data_PCOD9332076
_publ_section_title
;
Structure prediction by ZEFSAII (Michael W. Deem and Ramdas Pophale) SiO2 
 PCOD9332076
Probable space group: I 2 2 2
;
_chemical_formula_sum "Si O2"
_cell_formula_units_Z 48
_cell_length_a 13.716532
_cell_length_b 18.274731
_cell_length_c 7.139702
_cell_angle_alpha 90.000000
_cell_angle_beta 90.000000
_cell_angle_gamma 90.000000
_cell_volume 1789.680060
_symmetry_space_group_name_H-M "I 2 2 2"
_symmetry_group_IT_number 23
_symmetry_cell_setting 'orthorhombic'
loop_
_space_group_symop_operation_xyz
x,y,z
-x,-y,z
x,-y,-z
-x,y,-z
1/2+x,1/2+y,1/2+z
1/2-x,1/2-y,1/2+z
1/2+x,1/2-y,1/2-z
1/2-x,1/2+y,1/2-z
loop_
_atom_site_type_symbol
_atom_site_label
_atom_site_fract_x
_atom_site_fract_y
_atom_site_fract_z
Si Si1 0.856440 0.243465 0.681780
Si Si2 0.078500 0.216697 0.741942
Si Si3 0.792759 0.398891 0.753182
Si Si4 0.995473 0.414803 0.212764
Si Si5 0.189218 0.651390 0.161274
Si Si6 0.902417 0.960269 0.707526
O O1 0.877321 0.238549 0.460037
O O2 0.785193 0.312102 0.717727
O O3 0.794682 0.171701 0.739855
O O4 0.965956 0.241886 0.759333
O O5 0.137579 0.270068 0.883494
O O6 0.076752 0.127928 0.725791
O O7 0.903449 0.403944 0.683712
O O8 0.707263 0.455513 0.703032
O O9 0.795285 0.399474 0.980558
O O10 0.000000 0.500000 0.193200
O O11 0.891983 0.387958 0.285138
O O12 0.000000 0.384359 0.000000
O O13 0.893701 0.000000 0.500000
O O14 0.000000 0.000000 0.785713
#
# Coordination Sequence:
#
# PCOD9332076 Si02
#       6
#     8   8   8   8   8   8
#     4  11  20  36  58  89 127 157 215 259 313 375
#     4  11  23  38  61  93 125 170 208 264 322 377
#     4  11  22  36  61  92 120 162 207 268 310 369
#     4   9  20  33  54  86 120 152 201 256 310 366
#     4  11  20  37  59  90 127 164 213 257 321 371
#     4  11  23  37  58  92 127 164 207 258 319 379
#
# _framework density 26.820436000000001
#
# number of rings (size 3 to 8) (size 9 to 14) (size 15 to 20)
#    0.000    1.333    5.000    2.000    4.667    0.000 
#    0.000    0.000    0.000    2.000    0.000   19.833 
#    0.000    0.000    0.000    0.000    0.000    0.000 
#
# Total GULP energy -133644.754284 kJ/mol
# GULP energy per Si atom -5568.531429 kJ/mol
# Density = 2.675939 g / cm^3
# Si number density = 26.820436 Si / 1000 Ang^3
#
#
#
# Elastic Constant Matrix: (Units=GPa)
#
#
# Indices 1 2 3 4 5 6 
#
# 1 197.2368 32.7420 19.8021 0.0000 0.0000 0.0000
# 2 32.7420 119.7986 18.7562 0.0000 0.0000 0.0000
# 3 19.8021 18.7562 76.7985 0.0000 0.0000 0.0000
# 4 0.0000 0.0000 0.0000 27.7824 0.0000 0.0000
# 5 0.0000 0.0000 0.0000 0.0000 29.7789 0.0000
# 6 0.0000 0.0000 0.0000 0.0000 0.0000 61.7296
#
#
#
# Elastic Compliance Matrix: (Units=1/GPa)
#
#
# Indices 1 2 3 4 5 6 
#
# 1 0.005395 -0.001307 -0.001072 0.000000 0.000000 0.000000
# 2 -0.001307 0.008996 -0.001860 0.000000 0.000000 0.000000
# 3 -0.001072 -0.001860 0.013752 0.000000 0.000000 0.000000
# 4 0.000000 0.000000 0.000000 0.035994 0.000000 0.000000
# 5 0.000000 0.000000 0.000000 0.000000 0.033581 0.000000
# 6 0.000000 0.000000 0.000000 0.000000 0.000000 0.016200
#
#
# Mechanical properties :
#
#
# Convention : Reuss Voigt Hill
#
# Bulk Modulus (GPa) = 50.85190 59.60382 55.22786
# Shear Modulus (GPa) = 38.77516 45.36041 42.06779
#
# Velocity S-wave (km/s) = 3.80640 4.11696 3.96472
# Velocity P-wave (km/s) = 6.19028 6.69856 6.44943
#
# Compressibility (1/GPa) = 0.01966495
#
# Stress axis : x y z
#
# Youngs Moduli (GPa) = 185.37219 111.16468 72.71804
#
# Poissons Ratio (x) = 0.14524 0.07794
# Poissons Ratio (y) = 0.24220 0.13526
# Poissons Ratio (z) = 0.19869 0.20678
#
# Static dielectric constant tensor:
#      x y z
#    x 1.973980 0.000000 0.000000 
#    y 0.000000 1.726260 0.000000 
#    z 0.000000 0.000000 2.134950 
# 
# From -- ./inp_files/16847.got.cif
#   From: 2010.05.17/outbox.cif.g08.bks.cpg/sg23_9_cif.got.tgz:16847.got - 2010.06.04 12:02:01.
