data_PCOD9332510
_publ_section_title
;
Structure prediction by ZEFSAII (Michael W. Deem and Ramdas Pophale) SiO2 
 PCOD9332510
Probable space group: I 2 2 2
;
_chemical_formula_sum "Si O2"
_cell_formula_units_Z 38
_cell_length_a 14.593815
_cell_length_b 19.493423
_cell_length_c 4.957193
_cell_angle_alpha 90.000000
_cell_angle_beta 90.000000
_cell_angle_gamma 90.000000
_cell_volume 1410.239164
_symmetry_space_group_name_H-M "I 2 2 2"
_symmetry_group_IT_number 23
_symmetry_cell_setting 'orthorhombic'
loop_
_space_group_symop_operation_xyz
x,y,z
-x,-y,z
x,-y,-z
-x,y,-z
1/2+x,1/2+y,1/2+z
1/2-x,1/2-y,1/2+z
1/2+x,1/2-y,1/2-z
1/2-x,1/2+y,1/2-z
loop_
_atom_site_type_symbol
_atom_site_label
_atom_site_fract_x
_atom_site_fract_y
_atom_site_fract_z
Si Si1 0.836775 0.419897 0.678132
Si Si2 0.398865 0.419522 0.590528
Si Si3 0.691529 0.500000 0.000000
Si Si4 0.500000 0.000000 0.000000
Si Si5 0.699574 0.719283 0.473922
Si Si6 0.402269 0.839216 0.639665
O O1 0.675269 0.362029 0.508671
O O2 0.759860 0.475869 0.761001
O O3 0.929909 0.462974 0.695466
O O4 0.830716 0.368928 0.926254
O O5 0.398193 0.500000 0.500000
O O6 0.500000 0.395609 0.500000
O O7 0.371175 0.436050 0.902218
O O8 0.775183 0.753174 0.272878
O O9 0.610552 0.757873 0.355974
O O10 0.868302 0.624837 0.585373
O O11 0.500000 0.851592 0.500000
#
# Coordination Sequence:
#
# PCOD9332510 Si02
#       6
#     8   8   4   2   8   8
#     4  12  27  44  78 122 175 230 292 368 452 552
#     4  11  30  59  88 130 179 245 318 396 471 549
#     4  12  30  50  92 128 184 238 320 389 463 550
#     4  12  24  46  68 126 170 242 274 358 456 570
#     4  12  29  52  88 127 172 233 304 385 471 557
#     4  12  25  49  76 115 169 226 293 350 452 553
#
# _framework density 26.945785999999998
#
# number of rings (size 3 to 8) (size 9 to 14) (size 15 to 20)
#    0.000    0.211    2.105    4.421   13.263    2.526 
#    0.000    2.105    0.000    0.000    0.000    0.000 
#    0.000    0.000    0.000    0.000    0.000    0.000 
#
# Total GULP energy -105826.324343 kJ/mol
# GULP energy per Si atom -5569.806544 kJ/mol
# Density = 2.688446 g / cm^3
# Si number density = 26.945786 Si / 1000 Ang^3
#
#
#
# Elastic Constant Matrix: (Units=GPa)
#
#
# Indices 1 2 3 4 5 6 
#
# 1 149.0578 33.0652 45.0376 0.0000 0.0000 0.0000
# 2 33.0652 160.6406 61.4982 0.0000 0.0000 0.0000
# 3 45.0376 61.4982 183.5886 0.0000 0.0000 0.0000
# 4 0.0000 0.0000 0.0000 36.5649 0.0000 0.0000
# 5 0.0000 0.0000 0.0000 0.0000 36.6161 0.0000
# 6 0.0000 0.0000 0.0000 0.0000 0.0000 -9.6906
#
#
#
# Elastic Compliance Matrix: (Units=1/GPa)
#
#
# Indices 1 2 3 4 5 6 
#
# 1 0.007369 -0.000946 -0.001491 0.000000 0.000000 0.000000
# 2 -0.000946 0.007262 -0.002201 0.000000 0.000000 0.000000
# 3 -0.001491 -0.002201 0.006550 0.000000 0.000000 0.000000
# 4 0.000000 0.000000 0.000000 0.027349 0.000000 0.000000
# 5 0.000000 0.000000 0.000000 0.000000 0.027310 0.000000
# 6 0.000000 0.000000 0.000000 0.000000 0.000000 -0.103192
#
#
# Mechanical properties :
#
#
# Convention : Reuss Voigt Hill
#
# Bulk Modulus (GPa) = 83.99011 85.83210 84.91111
# Shear Modulus (GPa) = -354.39958 36.27716 -159.06121
#
# Velocity S-wave (km/s) = -11.48080 3.67318 -7.69144
# Velocity P-wave (km/s) = 12.02112 7.06487 6.87731
#
# Compressibility (1/GPa) = 0.01190616
#
# Stress axis : x y z
#
# Youngs Moduli (GPa) = 135.70116 137.69801 152.67510
#
# Poissons Ratio (x) = 0.13027 0.22762
# Poissons Ratio (y) = 0.12838 0.33598
# Poissons Ratio (z) = 0.20231 0.30302
#
# Static dielectric constant tensor:
#      x y z
#    x 2.201860 0.000000 0.000000 
#    y 0.000000 2.398490 0.000000 
#    z 0.000000 0.000000 2.451850 
# 
# From -- ./inp_files/1860.got.cif
#   From: 2010.05.17/outbox.cif.g08.bks.cpg/sg23_1_cif.got.tgz:1860.got - 2010.06.04 12:02:01.
