data_PCOD9332390
_publ_section_title
;
Structure prediction by ZEFSAII (Michael W. Deem and Ramdas Pophale) SiO2 
 PCOD9332390
Probable space group: I 2 2 2
;
_chemical_formula_sum "Si O2"
_cell_formula_units_Z 40
_cell_length_a 8.220772
_cell_length_b 28.325889
_cell_length_c 8.221008
_cell_angle_alpha 90.000000
_cell_angle_beta 90.000000
_cell_angle_gamma 90.000000
_cell_volume 1914.349473
_symmetry_space_group_name_H-M "I 2 2 2"
_symmetry_group_IT_number 23
_symmetry_cell_setting 'orthorhombic'
loop_
_space_group_symop_operation_xyz
x,y,z
-x,-y,z
x,-y,-z
-x,y,-z
1/2+x,1/2+y,1/2+z
1/2-x,1/2-y,1/2+z
1/2+x,1/2-y,1/2-z
1/2-x,1/2+y,1/2-z
loop_
_atom_site_type_symbol
_atom_site_label
_atom_site_fract_x
_atom_site_fract_y
_atom_site_fract_z
Si Si1 0.000000 0.749999 0.000000
Si Si2 0.263578 0.078917 0.577277
Si Si3 0.922718 0.078917 0.763576
Si Si4 0.444322 0.836749 0.266173
Si Si5 0.000000 0.000000 0.000000
Si Si6 0.733823 0.663251 0.555672
Si Si7 0.000000 0.500000 0.000000
O O1 0.970326 0.713894 0.149137
O O2 0.850864 0.786104 0.029708
O O3 0.193683 0.077149 0.393700
O O4 0.367925 0.125916 0.608057
O O5 0.382757 0.034586 0.601123
O O6 0.106296 0.077148 0.693673
O O7 0.898876 0.034586 0.882757
O O8 0.891943 0.125916 0.867923
O O9 0.618796 0.843266 0.182971
O O10 0.316991 0.843260 0.118817
#
# Coordination Sequence:
#
# PCOD9332390 Si02
#       7
#     4   8   8   8   2   8   2
#     4  12  22  40  64  94 132 176 226 274 332 412
#     4  11  24  43  68  98 136 182 229 280 341 410
#     4  11  24  43  68  98 136 182 229 280 341 410
#     4  11  24  42  65  95 134 178 226 283 341 401
#     4  12  22  38  64  96 132 170 222 274 324 396
#     4  11  24  42  65  95 134 178 226 283 341 401
#     4  12  22  38  64  96 132 170 222 274 324 396
#
# _framework density 20.894825999999998
#
# number of rings (size 3 to 8) (size 9 to 14) (size 15 to 20)
#    0.000    0.800    0.000    8.400    0.000    1.600 
#    0.000    4.000    0.000    2.400    0.000    0.000 
#    0.000    0.000    0.000    0.000    0.000    0.000 
#
# Total GULP energy -111539.710879 kJ/mol
# GULP energy per Si atom -5576.985544 kJ/mol
# Density = 2.084727 g / cm^3
# Si number density = 20.894826 Si / 1000 Ang^3
#
#
#
# Elastic Constant Matrix: (Units=GPa)
#
#
# Indices 1 2 3 4 5 6 
#
# 1 127.7579 69.1087 89.1528 0.0002 -0.0003 0.0000
# 2 69.1087 135.2109 69.1373 0.0001 -0.0001 -0.0003
# 3 89.1528 69.1373 127.8969 0.0018 0.0001 0.0006
# 4 0.0002 0.0001 0.0018 31.8046 -0.0001 -0.0003
# 5 -0.0003 -0.0001 0.0001 -0.0001 38.6428 0.0001
# 6 0.0000 -0.0003 0.0006 -0.0003 0.0001 31.8014
#
#
#
# Elastic Compliance Matrix: (Units=1/GPa)
#
#
# Indices 1 2 3 4 5 6 
#
# 1 0.016356 -0.003496 -0.009511 0.000000 0.000000 0.000000
# 2 -0.003496 0.010969 -0.003492 0.000000 0.000000 0.000000
# 3 -0.009511 -0.003492 0.016336 -0.000001 0.000000 0.000000
# 4 0.000000 0.000000 -0.000001 0.031442 0.000000 0.000000
# 5 0.000000 0.000000 0.000000 0.000000 0.025878 0.000000
# 6 0.000000 0.000000 0.000000 0.000000 0.000000 0.031445
#
#
# Mechanical properties :
#
#
# Convention : Reuss Voigt Hill
#
# Bulk Modulus (GPa) = 93.79402 93.96257 93.87830
# Shear Modulus (GPa) = 29.58963 31.34754 30.46858
#
# Velocity S-wave (km/s) = 3.76722 3.87751 3.82277
# Velocity P-wave (km/s) = 7.99429 8.06931 8.03189
#
# Compressibility (1/GPa) = 0.01066166
#
# Stress axis : x y z
#
# Youngs Moduli (GPa) = 61.14114 91.17006 61.21372
#
# Poissons Ratio (x) = 0.31877 0.58220
# Poissons Ratio (y) = 0.21378 0.21376
# Poissons Ratio (z) = 0.58151 0.31837
#
# Static dielectric constant tensor:
#      x y z
#    x 1.827500 0.000000 0.000000 
#    y 0.000000 1.737220 0.000000 
#    z 0.000000 0.000000 1.827650 
# 
# From -- ./inp_files/6984.got.cif
#   From: 2010.05.17/outbox.cif.g08.bks.cpg/sg23_4_cif.got.tgz:6984.got - 2010.06.04 12:02:01.
