data_PCOD9332103
_publ_section_title
;
Structure prediction by ZEFSAII (Michael W. Deem and Ramdas Pophale) SiO2 
 PCOD9332103
Probable space group: I 2 2 2
;
_chemical_formula_sum "Si O2"
_cell_formula_units_Z 64
_cell_length_a 9.063037
_cell_length_b 13.506871
_cell_length_c 24.181980
_cell_angle_alpha 90.000000
_cell_angle_beta 90.000000
_cell_angle_gamma 90.000000
_cell_volume 2960.195286
_symmetry_space_group_name_H-M "I 2 2 2"
_symmetry_group_IT_number 23
_symmetry_cell_setting 'orthorhombic'
loop_
_space_group_symop_operation_xyz
x,y,z
-x,-y,z
x,-y,-z
-x,y,-z
1/2+x,1/2+y,1/2+z
1/2-x,1/2-y,1/2+z
1/2+x,1/2-y,1/2-z
1/2-x,1/2+y,1/2-z
loop_
_atom_site_type_symbol
_atom_site_label
_atom_site_fract_x
_atom_site_fract_y
_atom_site_fract_z
Si Si1 0.866624 0.407284 0.545748
Si Si2 0.026814 0.291521 0.641372
Si Si3 0.280000 0.403657 0.598861
Si Si4 0.828900 0.985692 0.217690
Si Si5 0.434289 0.100011 0.370847
Si Si6 0.063547 0.794237 0.056513
Si Si7 0.930734 0.606269 0.249805
Si Si8 0.885076 0.089634 0.670722
O O1 0.933479 0.367754 0.603812
O O2 0.799004 0.482332 0.442288
O O3 0.720136 0.341444 0.539704
O O4 0.000000 0.393615 0.500000
O O5 0.002848 0.321669 0.705481
O O6 0.961687 0.182153 0.641725
O O7 0.186596 0.304189 0.612723
O O8 0.269640 0.455812 0.658389
O O9 0.444792 0.374712 0.579788
O O10 0.829198 0.901318 0.265254
O O11 0.742824 0.082730 0.240533
O O12 0.000000 0.000000 0.207410
O O13 0.426268 0.203504 0.401998
O O14 0.523468 0.122004 0.313559
O O15 0.267116 0.068427 0.358933
O O16 0.500000 0.000000 0.397278
O O17 0.000000 0.752960 0.000000
O O18 0.000000 0.500000 0.263900
O O19 0.000000 0.000000 0.671067
#
# Coordination Sequence:
#
# PCOD9332103 Si02
#       8
#     8   8   8   8   8   8   8   8
#     4  12  26  50  77 105 151 200 240 311 378 446
#     4  12  24  42  71 107 149 191 248 296 367 458
#     4  12  26  45  73 113 151 197 244 304 378 457
#     4  11  22  41  67 107 151 189 236 298 363 450
#     4  11  24  49  75  99 145 197 241 312 377 426
#     4  12  29  48  71 109 143 189 261 308 370 455
#     4  11  20  43  69 104 148 191 241 290 378 458
#     4  11  25  44  69 107 147 187 247 298 365 449
#
# _framework density 21.620196
#
# number of rings (size 3 to 8) (size 9 to 14) (size 15 to 20)
#    0.000    0.500    6.250    2.250    3.500    4.250 
#    2.250    0.000    0.000    0.375    0.000    0.000 
#    0.000    0.000    0.000    0.000    0.000    0.000 
#
# Total GULP energy -178501.082496 kJ/mol
# GULP energy per Si atom -5578.158828 kJ/mol
# Density = 2.157099 g / cm^3
# Si number density = 21.620196 Si / 1000 Ang^3
#
#
#
# Elastic Constant Matrix: (Units=GPa)
#
#
# Indices 1 2 3 4 5 6 
#
# 1 139.8654 46.3602 54.9802 0.0000 0.0000 0.0000
# 2 46.3602 82.1306 44.6427 0.0000 0.0000 0.0000
# 3 54.9802 44.6427 77.3518 0.0000 0.0000 0.0000
# 4 0.0000 0.0000 0.0000 7.0525 0.0000 0.0000
# 5 0.0000 0.0000 0.0000 0.0000 35.3989 0.0000
# 6 0.0000 0.0000 0.0000 0.0000 0.0000 26.8038
#
#
#
# Elastic Compliance Matrix: (Units=1/GPa)
#
#
# Indices 1 2 3 4 5 6 
#
# 1 0.010310 -0.002676 -0.005784 0.000000 0.000000 0.000000
# 2 -0.002676 0.018436 -0.008738 0.000000 0.000000 0.000000
# 3 -0.005784 -0.008738 0.022082 0.000000 0.000000 0.000000
# 4 0.000000 0.000000 0.000000 0.141794 0.000000 0.000000
# 5 0.000000 0.000000 0.000000 0.000000 0.028249 0.000000
# 6 0.000000 0.000000 0.000000 0.000000 0.000000 0.037308
#
#
# Mechanical properties :
#
#
# Convention : Reuss Voigt Hill
#
# Bulk Modulus (GPa) = 60.85540 65.70158 63.27849
# Shear Modulus (GPa) = 16.77551 24.07536 20.42544
#
# Velocity S-wave (km/s) = 2.78855 3.34062 3.07699
# Velocity P-wave (km/s) = 6.21101 6.73310 6.47732
#
# Compressibility (1/GPa) = 0.01643240
#
# Stress axis : x y z
#
# Youngs Moduli (GPa) = 96.98970 54.24227 45.28543
#
# Poissons Ratio (x) = 0.14515 0.26193
# Poissons Ratio (y) = 0.25954 0.39570
# Poissons Ratio (z) = 0.56099 0.47397
#
# Static dielectric constant tensor:
#      x y z
#    x 1.896890 0.000000 0.000000 
#    y 0.000000 1.780280 0.000000 
#    z 0.000000 0.000000 1.853040 
# 
# From -- ./inp_files/28086.got.cif
#   From: 2010.05.17/outbox.cif.g08.bks.cpg/sg23_15_cif.got.tgz:28086.got - 2010.06.04 12:02:01.
