data_PCOD9332766
_publ_section_title
;
Structure prediction by ZEFSAII (Michael W. Deem and Ramdas Pophale) SiO2 
 PCOD9332766
Probable space group: I 21 21 21
;
_chemical_formula_sum "Si O2"
_cell_formula_units_Z 32
_cell_length_a 10.264599
_cell_length_b 12.487296
_cell_length_c 10.525205
_cell_angle_alpha 90.000000
_cell_angle_beta 90.000000
_cell_angle_gamma 90.000000
_cell_volume 1349.090107
_symmetry_space_group_name_H-M "I 21 21 21"
_symmetry_group_IT_number 24
_symmetry_cell_setting 'orthorhombic'
loop_
_space_group_symop_operation_xyz
x,y,z
-x,1/2-y,z
x,-y,1/2-z
1/2-x,y,-z
1/2+x,1/2+y,1/2+z
1/2-x,-y,1/2+z
1/2+x,1/2-y,-z
-x,1/2+y,1/2-z
loop_
_atom_site_type_symbol
_atom_site_label
_atom_site_fract_x
_atom_site_fract_y
_atom_site_fract_z
Si Si1 0.308102 0.663290 0.361093
Si Si2 0.890717 0.632084 0.020555
Si Si3 0.345924 0.375482 0.612628
Si Si4 0.412848 0.116943 0.232972
O O1 0.250000 0.651956 0.500000
O O2 0.216676 0.616811 0.250602
O O3 0.328716 0.789556 0.329095
O O4 0.451413 0.612024 0.343384
O O5 0.861529 0.747143 0.084677
O O6 0.008631 0.578592 0.096753
O O7 0.750000 0.578153 0.000000
O O8 0.943356 0.648481 0.878086
O O9 0.250000 0.414110 0.500000
O O10 0.352744 0.000000 0.250000
#
# Coordination Sequence:
#
# PCOD9332766 Si02
#       4
#     8   8   8   8
#     4  11  23  43  67  98 139 181 217 288 365 405
#     4  10  18  33  65  97 118 160 230 273 318 387
#     4  10  16  35  69  91 117 172 229 268 316 416
#     4  11  23  42  65  96 140 180 225 286 347 415
#
# _framework density 23.71969
#
# number of rings (size 3 to 8) (size 9 to 14) (size 15 to 20)
#    0.000    1.500    7.500    1.500    0.000    5.000 
#    4.500    0.000    0.000    0.000    0.000    0.000 
#    0.000    0.000    0.000    0.000    0.000    0.000 
#
# Total GULP energy -89422.442978 kJ/mol
# GULP energy per Si atom -5588.902686 kJ/mol
# Density = 2.366570 g / cm^3
# Si number density = 23.719690 Si / 1000 Ang^3
#
#
#
# Elastic Constant Matrix: (Units=GPa)
#
#
# Indices 1 2 3 4 5 6 
#
# 1 189.3067 12.4042 77.0195 0.0000 0.0000 0.0000
# 2 12.4042 111.1265 24.2567 0.0000 0.0000 0.0000
# 3 77.0195 24.2567 209.0858 0.0000 0.0000 0.0000
# 4 0.0000 0.0000 0.0000 -46.8135 0.0000 0.0000
# 5 0.0000 0.0000 0.0000 0.0000 43.3487 0.0000
# 6 0.0000 0.0000 0.0000 0.0000 0.0000 -0.2930
#
#
#
# Elastic Compliance Matrix: (Units=1/GPa)
#
#
# Indices 1 2 3 4 5 6 
#
# 1 0.006218 -0.000199 -0.002267 0.000000 0.000000 0.000000
# 2 -0.000199 0.009239 -0.000998 0.000000 0.000000 0.000000
# 3 -0.002267 -0.000998 0.005734 0.000000 0.000000 0.000000
# 4 0.000000 0.000000 0.000000 -0.021361 0.000000 0.000000
# 5 0.000000 0.000000 0.000000 0.000000 0.023069 0.000000
# 6 0.000000 0.000000 0.000000 0.000000 0.000000 -3.413228
#
#
# Mechanical properties :
#
#
# Convention : Reuss Voigt Hill
#
# Bulk Modulus (GPa) = 70.12283 81.87554 75.99919
# Shear Modulus (GPa) = -1.47988 25.63767 12.07889
#
# Velocity S-wave (km/s) = -0.79073 3.29121 2.25907
# Velocity P-wave (km/s) = 5.36597 7.00255 6.23816
#
# Compressibility (1/GPa) = 0.01426069
#
# Stress axis : x y z
#
# Youngs Moduli (GPa) = 160.82440 108.23764 174.40514
#
# Poissons Ratio (x) = 0.02155 0.39544
# Poissons Ratio (y) = 0.03203 0.17414
# Poissons Ratio (z) = 0.36465 0.10807
#
# Static dielectric constant tensor:
#      x y z
#    x 1.960760 0.000000 0.000000 
#    y 0.000000 1.947810 0.000000 
#    z 0.000000 0.000000 1.849760 
# 
# From -- ./inp_files/10360.got.cif
#   From: 2010.05.17/outbox.cif.g08.bks.cpg/sg24_6_cif.got.tgz:10360.got - 2010.06.04 00:33:39.
