data_PCOD9332267
_publ_section_title
;
Structure prediction by ZEFSAII (Michael W. Deem and Ramdas Pophale) SiO2 
 PCOD9332267
Probable space group: I 2 2 2
;
_chemical_formula_sum "Si O2"
_cell_formula_units_Z 40
_cell_length_a 17.084514
_cell_length_b 9.692010
_cell_length_c 9.307109
_cell_angle_alpha 90.000000
_cell_angle_beta 90.000000
_cell_angle_gamma 90.000000
_cell_volume 1541.101640
_symmetry_space_group_name_H-M "I 2 2 2"
_symmetry_group_IT_number 23
_symmetry_cell_setting 'orthorhombic'
loop_
_space_group_symop_operation_xyz
x,y,z
-x,-y,z
x,-y,-z
-x,y,-z
1/2+x,1/2+y,1/2+z
1/2-x,1/2-y,1/2+z
1/2+x,1/2-y,1/2-z
1/2-x,1/2+y,1/2-z
loop_
_atom_site_type_symbol
_atom_site_label
_atom_site_fract_x
_atom_site_fract_y
_atom_site_fract_z
Si Si1 0.555624 0.227747 0.634656
Si Si2 0.633540 0.508015 0.672998
Si Si3 0.554837 0.754242 0.867208
Si Si4 0.205608 0.642845 0.991128
Si Si5 0.792268 0.621474 0.338928
O O1 0.500000 0.266815 0.500000
O O2 0.597253 0.358922 0.711943
O O3 0.499740 0.168195 0.753518
O O4 0.623529 0.131365 0.574144
O O5 0.615665 0.500000 0.500000
O O6 0.593177 0.623142 0.775860
O O7 0.729227 0.503091 0.675212
O O8 0.622525 0.863202 0.908151
O O9 0.500000 0.710683 0.000000
O O10 0.246510 0.766745 0.068607
O O11 0.251631 0.500000 0.000000
O O12 0.194538 0.669250 0.824432
#
# Coordination Sequence:
#
# PCOD9332267 Si02
#       5
#     8   8   8   8   8
#     4  11  22  44  70 100 141 189 245 307 375 472
#     4  11  23  44  77 102 144 206 251 303 401 477
#     4  12  26  45  74 114 151 187 257 340 391 440
#     4  11  25  46  75 105 148 205 257 304 389 474
#     4  11  25  47  70 108 150 195 255 313 379 484
#
# _framework density 25.955459000000001
#
# number of rings (size 3 to 8) (size 9 to 14) (size 15 to 20)
#    0.000    0.800    4.000    3.000    5.600    2.000 
#    3.600    0.000    0.000    0.000    0.000    0.000 
#    0.000    0.000    0.000    0.000    0.000    0.000 
#
# Total GULP energy -111670.349347 kJ/mol
# GULP energy per Si atom -5583.517467 kJ/mol
# Density = 2.589638 g / cm^3
# Si number density = 25.955459 Si / 1000 Ang^3
#
#
#
# Elastic Constant Matrix: (Units=GPa)
#
#
# Indices 1 2 3 4 5 6 
#
# 1 150.2239 27.1431 52.5047 0.0000 0.0000 0.0000
# 2 27.1431 98.0681 58.4842 0.0000 0.0000 0.0000
# 3 52.5047 58.4842 114.4428 0.0000 0.0000 0.0000
# 4 0.0000 0.0000 0.0000 26.8905 0.0000 0.0000
# 5 0.0000 0.0000 0.0000 0.0000 36.7237 0.0000
# 6 0.0000 0.0000 0.0000 0.0000 0.0000 17.5218
#
#
#
# Elastic Compliance Matrix: (Units=1/GPa)
#
#
# Indices 1 2 3 4 5 6 
#
# 1 0.007928 -0.000036 -0.003619 0.000000 0.000000 0.000000
# 2 -0.000036 0.014667 -0.007479 0.000000 0.000000 0.000000
# 3 -0.003619 -0.007479 0.014220 0.000000 0.000000 0.000000
# 4 0.000000 0.000000 0.000000 0.037188 0.000000 0.000000
# 5 0.000000 0.000000 0.000000 0.000000 0.027230 0.000000
# 6 0.000000 0.000000 0.000000 0.000000 0.000000 0.057072
#
#
# Mechanical properties :
#
#
# Convention : Reuss Voigt Hill
#
# Bulk Modulus (GPa) = 68.73904 70.99987 69.86945
# Shear Modulus (GPa) = 26.96554 31.20074 29.08314
#
# Velocity S-wave (km/s) = 3.22672 3.47088 3.35102
# Velocity P-wave (km/s) = 6.35793 6.59367 6.47687
#
# Compressibility (1/GPa) = 0.01454777
#
# Stress axis : x y z
#
# Youngs Moduli (GPa) = 126.13408 68.17995 70.32283
#
# Poissons Ratio (x) = 0.00247 0.25448
# Poissons Ratio (y) = 0.00457 0.52593
# Poissons Ratio (z) = 0.45645 0.50990
#
# Static dielectric constant tensor:
#      x y z
#    x 2.166650 0.000000 0.000000 
#    y 0.000000 2.082590 0.000000 
#    z 0.000000 0.000000 2.067600 
# 
# From -- ./inp_files/10720.got.cif
#   From: 2010.05.17/outbox.cif.g08.bks.cpg/sg23_6_cif.got.tgz:10720.got - 2010.06.04 12:02:01.
