data_PCOD9332113
_publ_section_title
;
Structure prediction by ZEFSAII (Michael W. Deem and Ramdas Pophale) SiO2 
 PCOD9332113
Probable space group: I 2 2 2
;
_chemical_formula_sum "Si O2"
_cell_formula_units_Z 48
_cell_length_a 5.764680
_cell_length_b 19.615349
_cell_length_c 18.873170
_cell_angle_alpha 90.000000
_cell_angle_beta 90.000000
_cell_angle_gamma 90.000000
_cell_volume 2134.106536
_symmetry_space_group_name_H-M "I 2 2 2"
_symmetry_group_IT_number 23
_symmetry_cell_setting 'orthorhombic'
loop_
_space_group_symop_operation_xyz
x,y,z
-x,-y,z
x,-y,-z
-x,y,-z
1/2+x,1/2+y,1/2+z
1/2-x,1/2-y,1/2+z
1/2+x,1/2-y,1/2-z
1/2-x,1/2+y,1/2-z
loop_
_atom_site_type_symbol
_atom_site_label
_atom_site_fract_x
_atom_site_fract_y
_atom_site_fract_z
Si Si1 0.724206 0.860631 0.179348
Si Si2 0.241246 0.148644 0.840342
Si Si3 0.229093 0.195993 0.675983
Si Si4 0.750955 0.464354 0.200264
Si Si5 0.094176 0.894268 0.570630
Si Si6 0.120178 0.269752 0.931794
O O1 0.483643 0.890375 0.147757
O O2 0.690285 0.778405 0.183451
O O3 0.741590 0.894731 0.255760
O O4 0.976516 0.875632 0.144908
O O5 0.238451 0.168264 0.756331
O O6 0.265639 0.213824 0.890981
O O7 0.461078 0.198240 0.629403
O O8 0.067213 0.146475 0.628171
O O9 0.500000 0.500000 0.218792
O O10 0.733979 0.447528 0.117681
O O11 0.000000 0.500000 0.214554
O O12 0.240919 0.832530 0.537741
O O13 0.000000 0.927335 0.500000
O O14 0.000000 0.236882 0.000000
#
# Coordination Sequence:
#
# PCOD9332113 Si02
#       6
#     8   8   8   8   8   8
#     4  11  21  39  65  93 123 165 216 289 352 394
#     4  11  21  35  63  93 127 166 213 266 361 410
#     4  11  21  37  63  96 128 166 220 282 364 418
#     4  12  28  47  67  92 133 191 254 289 319 392
#     4  12  24  42  64  94 135 187 230 281 350 403
#     4  11  23  36  60 100 142 176 209 276 346 444
#
# _framework density 22.491848999999998
#
# number of rings (size 3 to 8) (size 9 to 14) (size 15 to 20)
#    0.000    0.667    5.000    5.000    2.333    0.333 
#    0.000    0.833    0.000    0.000    0.000    0.000 
#    0.000   86.000    0.000    0.000    0.000    0.000 
#
# Total GULP energy -133702.163123 kJ/mol
# GULP energy per Si atom -5570.923463 kJ/mol
# Density = 2.244066 g / cm^3
# Si number density = 22.491849 Si / 1000 Ang^3
#
#
#
# Elastic Constant Matrix: (Units=GPa)
#
#
# Indices 1 2 3 4 5 6 
#
# 1 169.2340 31.2725 26.2962 0.0000 0.0000 0.0000
# 2 31.2725 54.5447 37.6358 0.0000 0.0000 0.0000
# 3 26.2962 37.6358 66.4502 0.0000 0.0000 0.0000
# 4 0.0000 0.0000 0.0000 -3.3661 0.0000 0.0000
# 5 0.0000 0.0000 0.0000 0.0000 25.1806 0.0000
# 6 0.0000 0.0000 0.0000 0.0000 0.0000 22.3523
#
#
#
# Elastic Compliance Matrix: (Units=1/GPa)
#
#
# Indices 1 2 3 4 5 6 
#
# 1 0.006633 -0.003270 -0.000773 0.000000 0.000000 0.000000
# 2 -0.003270 0.031706 -0.016664 0.000000 0.000000 0.000000
# 3 -0.000773 -0.016664 0.024793 0.000000 0.000000 0.000000
# 4 0.000000 0.000000 0.000000 -0.297080 0.000000 0.000000
# 5 0.000000 0.000000 0.000000 0.000000 0.039713 0.000000
# 6 0.000000 0.000000 0.000000 0.000000 0.000000 0.044738
#
#
# Mechanical properties :
#
#
# Convention : Reuss Voigt Hill
#
# Bulk Modulus (GPa) = 46.04219 53.40419 49.72319
# Shear Modulus (GPa) = -49.58156 21.83498 -13.87329
#
# Velocity S-wave (km/s) = -4.70022 3.11914 -2.48627
# Velocity P-wave (km/s) = 2.99016 6.06361 3.73003
#
# Compressibility (1/GPa) = 0.02171921
#
# Stress axis : x y z
#
# Youngs Moduli (GPa) = 150.75434 31.53959 40.33437
#
# Poissons Ratio (x) = 0.10312 0.03118
# Poissons Ratio (y) = 0.49292 0.67212
# Poissons Ratio (z) = 0.11655 0.52557
#
# Static dielectric constant tensor:
#      x y z
#    x 2.047470 0.000000 0.000000 
#    y 0.000000 1.864770 0.000000 
#    z 0.000000 0.000000 1.766820 
# 
# From -- ./inp_files/25702.got.cif
#   From: 2010.05.17/outbox.cif.g08.bks.cpg/sg23_13_cif.got.tgz:25702.got - 2010.06.04 12:02:01.
