data_PCOD9332630
_publ_section_title
;
Structure prediction by ZEFSAII (Michael W. Deem and Ramdas Pophale) SiO2 
 PCOD9332630
Probable space group: I 2 2 2
;
_chemical_formula_sum "Si O2"
_cell_formula_units_Z 28
_cell_length_a 6.000000
_cell_length_b 15.000000
_cell_length_c 30.000000
_cell_angle_alpha 90.000000
_cell_angle_beta 90.000000
_cell_angle_gamma 90.000000
_cell_volume 2700.000000
_symmetry_space_group_name_H-M "I 2 2 2"
_symmetry_group_IT_number 23
_symmetry_cell_setting 'orthorhombic'
loop_
_space_group_symop_operation_xyz
x,y,z
-x,-y,z
x,-y,-z
-x,y,-z
1/2+x,1/2+y,1/2+z
1/2-x,1/2-y,1/2+z
1/2+x,1/2-y,1/2-z
1/2-x,1/2+y,1/2-z
loop_
_atom_site_type_symbol
_atom_site_label
_atom_site_fract_x
_atom_site_fract_y
_atom_site_fract_z
Si Si1 0.328446 0.917820 0.167180
Si Si2 0.764257 0.243356 0.895681
Si Si3 0.419791 0.096016 0.930875
Si Si4 0.851668 0.250098 0.042866
Si Si5 0.993449 0.896010 0.445795
Si Si6 0.993728 0.099768 0.754244
Si Si7 0.348223 0.772941 0.798107
O O1 0.282433 0.925391 0.114590
O O2 0.438797 0.823117 0.180898
O O3 0.119697 0.919562 0.199503
O O4 0.500000 0.000000 0.176839
O O5 0.610541 0.160737 0.910875
O O6 0.671778 0.333902 0.919746
O O7 0.786256 0.249794 0.842902
O O8 0.997816 0.222419 0.916590
O O9 0.299958 0.162907 0.965346
O O10 0.500000 0.000000 0.947798
O O11 0.728936 0.338293 0.060212
O O12 0.000000 0.269935 0.000000
O O13 0.000000 0.894127 0.500000
O O14 0.000000 0.000000 0.432383
O O15 0.765049 0.151128 0.767234
O O16 0.113494 0.179464 0.726831
O O17 0.000000 0.000000 0.732221
#
# Coordination Sequence:
#
# PCOD9332630 Si02
#       7
#     8   8   8   8   8   8   8
#     4  10  19  38  61  89 118 160 213 254 296 364
#     4  10  22  40  61  90 124 161 202 250 306 358
#     4   9  21  38  60  88 125 162 202 248 299 354
#     4  11  21  39  65  90 123 158 203 250 296 362
#     4  10  21  40  66  91 120 158 201 251 304 358
#     4  12  23  37  64  92 121 166 212 250 307 368
#     4  11  23  39  61  89 129 162 199 259 309 360
#
# _framework density 10.370369999999999
#
# number of rings (size 3 to 8) (size 9 to 14) (size 15 to 20)
#    0.000    1.571    4.286    0.857    0.000    1.714 
#    0.000    2.143    6.286    0.000    0.000    0.000 
#    0.000    0.000    0.000    0.000    0.000    0.000 
#
# Total GULP energy -155904.783835 kJ/mol
# GULP energy per Si atom -5568.027994 kJ/mol
# Density = 1.034677 g / cm^3
# Si number density = 10.370370 Si / 1000 Ang^3
#
#
#
# Elastic Constant Matrix: (Units=GPa)
#
#
# Indices 1 2 3 4 5 6 
#
# 1 40.8021 31.1496 14.1570 0.0000 0.0000 0.0000
# 2 31.1496 187.7047 20.3837 0.0000 0.0000 0.0000
# 3 14.1570 20.3837 53.4536 0.0000 0.0000 0.0000
# 4 0.0000 0.0000 0.0000 27.0707 0.0000 0.0000
# 5 0.0000 0.0000 0.0000 0.0000 28.0849 0.0000
# 6 0.0000 0.0000 0.0000 0.0000 0.0000 18.9038
#
#
#
# Elastic Compliance Matrix: (Units=1/GPa)
#
#
# Indices 1 2 3 4 5 6 
#
# 1 0.029970 -0.004289 -0.006302 0.000000 0.000000 0.000000
# 2 -0.004289 0.006172 -0.001217 0.000000 0.000000 0.000000
# 3 -0.006302 -0.001217 0.020841 0.000000 0.000000 0.000000
# 4 0.000000 0.000000 0.000000 0.036940 0.000000 0.000000
# 5 0.000000 0.000000 0.000000 0.000000 0.035606 0.000000
# 6 0.000000 0.000000 0.000000 0.000000 0.000000 0.052900
#
#
# Mechanical properties :
#
#
# Convention : Reuss Voigt Hill
#
# Bulk Modulus (GPa) = 29.97111 45.92679 37.94895
# Shear Modulus (GPa) = 23.02379 29.22987 26.12683
#
# Velocity S-wave (km/s) = 3.33539 3.75813 3.55306
# Velocity P-wave (km/s) = 5.41432 6.40490 5.93033
#
# Compressibility (1/GPa) = 0.03336546
#
# Stress axis : x y z
#
# Youngs Moduli (GPa) = 33.36724 162.03507 47.98219
#
# Poissons Ratio (x) = 0.69499 0.30237
# Poissons Ratio (y) = 0.14312 0.05842
# Poissons Ratio (z) = 0.21027 0.19727
#
# Static dielectric constant tensor:
#      x y z
#    x 1.783460 0.000000 0.000000 
#    y 0.000000 1.744820 0.000000 
#    z 0.000000 0.000000 1.766570 
# 
# From -- ./inp_files/29963.got.cif
#   From: 2010.05.17/outbox.ucp.g08.bks.cvg/sg23_15_cif.got.tgz:29963.got - 2010.06.11 15:19:07.
