data_PCOD9332434
_publ_section_title
;
Structure prediction by ZEFSAII (Michael W. Deem and Ramdas Pophale) SiO2 
 PCOD9332434
Probable space group: I 2 2 2
;
_chemical_formula_sum "Si O2"
_cell_formula_units_Z 44
_cell_length_a 8.719811
_cell_length_b 27.682785
_cell_length_c 7.713047
_cell_angle_alpha 90.000000
_cell_angle_beta 90.000000
_cell_angle_gamma 90.000000
_cell_volume 1861.842027
_symmetry_space_group_name_H-M "I 2 2 2"
_symmetry_group_IT_number 23
_symmetry_cell_setting 'orthorhombic'
loop_
_space_group_symop_operation_xyz
x,y,z
-x,-y,z
x,-y,-z
-x,y,-z
1/2+x,1/2+y,1/2+z
1/2-x,1/2-y,1/2+z
1/2+x,1/2-y,1/2-z
1/2-x,1/2+y,1/2-z
loop_
_atom_site_type_symbol
_atom_site_label
_atom_site_fract_x
_atom_site_fract_y
_atom_site_fract_z
Si Si1 0.332825 0.413640 0.418009
Si Si2 0.356323 0.306793 0.262018
Si Si3 0.098674 0.369620 0.839300
Si Si4 0.674415 0.556644 0.031857
Si Si5 0.309491 0.288175 0.855710
Si Si6 0.500000 0.910905 0.000000
O O1 0.500000 0.425930 0.500000
O O2 0.341879 0.356846 0.364630
O O3 0.308035 0.438924 0.235639
O O4 0.178113 0.429064 0.522308
O O5 0.532276 0.290367 0.247184
O O6 0.255938 0.265372 0.350003
O O7 0.318035 0.307830 0.054471
O O8 0.198826 0.326385 0.764902
O O9 0.987626 0.385269 0.685318
O O10 0.206358 0.411846 0.919807
O O11 0.000000 0.351210 0.000000
O O12 0.688501 0.500000 0.000000
O O13 0.500000 0.574160 0.000000
#
# Coordination Sequence:
#
# PCOD9332434 Si02
#       6
#     8   8   8   8   8   4
#     4  12  26  48  77 113 155 200 266 324 393 471
#     4  11  26  42  65 103 145 199 251 321 383 456
#     4  12  25  48  74 105 155 196 252 317 388 465
#     4  11  24  49  80 110 150 204 252 321 403 467
#     4  11  26  42  65 100 147 192 255 315 385 456
#     4  12  26  44  77 114 140 204 248 312 383 464
#
# _framework density 23.63251
#
# number of rings (size 3 to 8) (size 9 to 14) (size 15 to 20)
#    0.000    0.545    3.636    3.273   10.182    0.364 
#    0.000    7.273    0.000    0.000    0.000    0.000 
#    0.000    0.000    0.000    0.000    0.000    0.000 
#
# Total GULP energy -122925.591772 kJ/mol
# GULP energy per Si atom -5587.526899 kJ/mol
# Density = 2.357872 g / cm^3
# Si number density = 23.632510 Si / 1000 Ang^3
#
#
#
# Elastic Constant Matrix: (Units=GPa)
#
#
# Indices 1 2 3 4 5 6 
#
# 1 165.7935 26.1623 19.3603 0.0005 0.0000 -0.0007
# 2 26.1623 80.5789 7.0582 0.0007 0.0006 -0.0006
# 3 19.3603 7.0582 96.8567 0.0047 -0.0011 -0.0203
# 4 0.0005 0.0007 0.0047 29.7725 0.0006 0.0061
# 5 0.0000 0.0006 -0.0011 0.0006 33.6566 -0.0044
# 6 -0.0007 -0.0006 -0.0203 0.0061 -0.0044 64.9500
#
#
#
# Elastic Compliance Matrix: (Units=1/GPa)
#
#
# Indices 1 2 3 4 5 6 
#
# 1 0.006482 -0.002004 -0.001150 0.000000 0.000000 0.000000
# 2 -0.002004 0.013109 -0.000555 0.000000 0.000000 0.000000
# 3 -0.001150 -0.000555 0.010595 -0.000002 0.000000 0.000003
# 4 0.000000 0.000000 -0.000002 0.033588 -0.000001 -0.000003
# 5 0.000000 0.000000 0.000000 -0.000001 0.029712 0.000002
# 6 0.000000 0.000000 0.000003 -0.000003 0.000002 0.015396
#
#
# Mechanical properties :
#
#
# Convention : Reuss Voigt Hill
#
# Bulk Modulus (GPa) = 43.91814 49.82117 46.86965
# Shear Modulus (GPa) = 40.35869 45.05238 42.70553
#
# Velocity S-wave (km/s) = 4.13699 4.37094 4.25557
# Velocity P-wave (km/s) = 6.43768 6.82648 6.63493
#
# Compressibility (1/GPa) = 0.02276964
#
# Stress axis : x y z
#
# Youngs Moduli (GPa) = 154.27193 76.28109 94.38637
#
# Poissons Ratio (x) = 0.15286 0.10851
# Poissons Ratio (y) = 0.30914 0.05236
# Poissons Ratio (z) = 0.17736 0.04232
#
# Static dielectric constant tensor:
#      x y z
#    x 2.029960 0.000000 0.000030 
#    y 0.000000 1.886780 0.000020 
#    z 0.000030 0.000020 1.744300 
# 
# From -- ./inp_files/7241.got.cif
#   From: 2010.05.17/outbox.cif.g08.bks.cpg/sg23_4_cif.got.tgz:7241.got - 2010.06.04 12:02:01.
