data_PCOD9332138
_publ_section_title
;
Structure prediction by ZEFSAII (Michael W. Deem and Ramdas Pophale) SiO2 
 PCOD9332138
Probable space group: I 2 2 2
;
_chemical_formula_sum "Si O2"
_cell_formula_units_Z 28
_cell_length_a 6.704386
_cell_length_b 13.994207
_cell_length_c 11.999610
_cell_angle_alpha 90.000000
_cell_angle_beta 90.000000
_cell_angle_gamma 90.000000
_cell_volume 1125.834195
_symmetry_space_group_name_H-M "I 2 2 2"
_symmetry_group_IT_number 23
_symmetry_cell_setting 'orthorhombic'
loop_
_space_group_symop_operation_xyz
x,y,z
-x,-y,z
x,-y,-z
-x,y,-z
1/2+x,1/2+y,1/2+z
1/2-x,1/2-y,1/2+z
1/2+x,1/2-y,1/2-z
1/2-x,1/2+y,1/2-z
loop_
_atom_site_type_symbol
_atom_site_label
_atom_site_fract_x
_atom_site_fract_y
_atom_site_fract_z
Si Si1 0.000000 0.845721 0.000000
Si Si2 0.500000 0.500000 0.332076
Si Si3 0.707392 0.204955 0.331792
Si Si4 0.205507 0.619304 0.181253
Si Si5 0.500000 0.376857 0.000000
O O1 0.858926 0.777864 0.070404
O O2 0.093814 0.917577 0.090053
O O3 0.322154 0.548666 0.263882
O O4 0.749245 0.271047 0.224452
O O5 0.534597 0.126423 0.316167
O O6 0.906054 0.162544 0.384819
O O7 0.294007 0.591292 0.060628
#
# Coordination Sequence:
#
# PCOD9332138 Si02
#       5
#     4   4   8   8   4
#     4   9  18  40  68 100 133 192 232 305 342 434
#     4   9  22  39  66  96 154 177 236 299 380 402
#     4  11  21  38  70 100 135 180 256 288 362 421
#     4  11  22  40  65 103 138 192 231 312 353 444
#     4  12  22  37  70  99 132 184 246 300 340 433
#
# _framework density 24.870448
#
# number of rings (size 3 to 8) (size 9 to 14) (size 15 to 20)
#    0.000    1.429    5.714    0.000    0.000    0.571 
#    0.000    1.429    6.286    5.143    0.000    0.000 
#    0.000    0.000    0.000    0.000    0.000    0.000 
#
# Total GULP energy -78018.075698 kJ/mol
# GULP energy per Si atom -5572.719693 kJ/mol
# Density = 2.481384 g / cm^3
# Si number density = 24.870448 Si / 1000 Ang^3
#
#
#
# Elastic Constant Matrix: (Units=GPa)
#
#
# Indices 1 2 3 4 5 6 
#
# 1 121.5745 50.1337 33.8877 0.0000 0.0000 0.0000
# 2 50.1337 104.0116 34.9271 0.0000 0.0000 0.0000
# 3 33.8877 34.9271 99.0283 0.0000 0.0000 0.0000
# 4 0.0000 0.0000 0.0000 49.0468 0.0000 0.0000
# 5 0.0000 0.0000 0.0000 0.0000 43.6541 0.0000
# 6 0.0000 0.0000 0.0000 0.0000 0.0000 17.7337
#
#
#
# Elastic Compliance Matrix: (Units=1/GPa)
#
#
# Indices 1 2 3 4 5 6 
#
# 1 0.010629 -0.004426 -0.002076 0.000000 0.000000 0.000000
# 2 -0.004426 0.012749 -0.002982 0.000000 0.000000 0.000000
# 3 -0.002076 -0.002982 0.011860 0.000000 0.000000 0.000000
# 4 0.000000 0.000000 0.000000 0.020389 0.000000 0.000000
# 5 0.000000 0.000000 0.000000 0.000000 0.022907 0.000000
# 6 0.000000 0.000000 0.000000 0.000000 0.000000 0.056390
#
#
# Mechanical properties :
#
#
# Convention : Reuss Voigt Hill
#
# Bulk Modulus (GPa) = 61.46271 62.50126 61.98198
# Shear Modulus (GPa) = 31.38401 35.79799 33.59100
#
# Velocity S-wave (km/s) = 3.55618 3.79803 3.67909
# Velocity P-wave (km/s) = 6.45203 6.66473 6.55924
#
# Compressibility (1/GPa) = 0.01627003
#
# Stress axis : x y z
#
# Youngs Moduli (GPa) = 94.07901 78.43723 84.31443
#
# Poissons Ratio (x) = 0.34717 0.17506
# Poissons Ratio (y) = 0.41641 0.25142
# Poissons Ratio (z) = 0.19534 0.23390
#
# Static dielectric constant tensor:
#      x y z
#    x 2.015040 0.000000 0.000000 
#    y 0.000000 2.071400 0.000000 
#    z 0.000000 0.000000 2.032600 
# 
# From -- ./inp_files/16271.got.cif
#   From: 2010.05.17/outbox.cif.g08.bks.cpg/sg23_9_cif.got.tgz:16271.got - 2010.06.04 12:02:01.
