data_PCOD9332321
_publ_section_title
;
Structure prediction by ZEFSAII (Michael W. Deem and Ramdas Pophale) SiO2 
 PCOD9332321
Probable space group: I 2 2 2
;
_chemical_formula_sum "Si O2"
_cell_formula_units_Z 52
_cell_length_a 24.875837
_cell_length_b 9.591222
_cell_length_c 9.793775
_cell_angle_alpha 90.000000
_cell_angle_beta 90.000000
_cell_angle_gamma 90.000000
_cell_volume 2336.693595
_symmetry_space_group_name_H-M "I 2 2 2"
_symmetry_group_IT_number 23
_symmetry_cell_setting 'orthorhombic'
loop_
_space_group_symop_operation_xyz
x,y,z
-x,-y,z
x,-y,-z
-x,y,-z
1/2+x,1/2+y,1/2+z
1/2-x,1/2-y,1/2+z
1/2+x,1/2-y,1/2-z
1/2-x,1/2+y,1/2-z
loop_
_atom_site_type_symbol
_atom_site_label
_atom_site_fract_x
_atom_site_fract_y
_atom_site_fract_z
Si Si1 0.500000 0.500000 0.000000
Si Si2 0.094741 0.038567 0.855644
Si Si3 0.769924 0.856363 0.584229
Si Si4 0.500000 0.000000 0.500000
Si Si5 0.068291 0.210474 0.321923
Si Si6 0.782624 0.873400 0.897802
Si Si7 0.866187 0.646460 0.549981
Si Si8 0.541558 0.183000 0.732440
O O1 0.537739 0.599146 0.914578
O O2 0.153486 0.105733 0.873049
O O3 0.058044 0.155326 0.786610
O O4 0.098038 0.888522 0.784715
O O5 0.069787 0.000000 0.000000
O O6 0.755278 0.880460 0.745644
O O7 0.730782 0.766190 0.484651
O O8 0.822124 0.756682 0.598544
O O9 0.780792 0.000000 0.500000
O O10 0.538584 0.096770 0.592877
O O11 0.109769 0.289484 0.413414
O O12 0.020986 0.313719 0.275421
O O13 0.768867 0.000000 0.000000
O O14 0.843810 0.500000 0.500000
O O15 0.915105 0.628710 0.657984
#
# Coordination Sequence:
#
# PCOD9332321 Si02
#       8
#     2   8   8   2   8   8   8   8
#     4  12  20  36  68 108 138 192 246 298 356 428
#     4  11  23  42  70 103 141 187 240 305 370 452
#     4  12  26  48  79 109 147 194 254 319 387 460
#     4  12  28  40  60  92 150 204 236 308 364 452
#     4  12  22  40  71 106 146 193 245 304 362 449
#     4  11  25  49  75 108 147 186 250 319 389 455
#     4  12  26  43  71 106 147 194 250 312 370 445
#     4  12  23  44  63  99 150 191 254 293 374 447
#
# _framework density 22.253667
#
# number of rings (size 3 to 8) (size 9 to 14) (size 15 to 20)
#    0.000    0.308    4.615    4.154    1.077    2.462 
#    1.385    0.000    0.000    0.000    0.000    0.000 
#    0.000    0.000    0.000    0.000    0.000    0.000 
#
# Total GULP energy -145236.406949 kJ/mol
# GULP energy per Si atom -5586.015652 kJ/mol
# Density = 2.220302 g / cm^3
# Si number density = 22.253667 Si / 1000 Ang^3
#
#
#
# Elastic Constant Matrix: (Units=GPa)
#
#
# Indices 1 2 3 4 5 6 
#
# 1 79.6610 26.2456 24.0462 0.0000 0.0000 0.0000
# 2 26.2456 107.4282 49.1211 0.0000 0.0000 0.0000
# 3 24.0462 49.1211 137.9300 0.0000 0.0000 0.0000
# 4 0.0000 0.0000 0.0000 53.5100 0.0000 0.0000
# 5 0.0000 0.0000 0.0000 0.0000 24.5616 0.0000
# 6 0.0000 0.0000 0.0000 0.0000 0.0000 18.7820
#
#
#
# Elastic Compliance Matrix: (Units=1/GPa)
#
#
# Indices 1 2 3 4 5 6 
#
# 1 0.013890 -0.002731 -0.001449 0.000000 0.000000 0.000000
# 2 -0.002731 0.011656 -0.003675 0.000000 0.000000 0.000000
# 3 -0.001449 -0.003675 0.008811 0.000000 0.000000 0.000000
# 4 0.000000 0.000000 0.000000 0.018688 0.000000 0.000000
# 5 0.000000 0.000000 0.000000 0.000000 0.040714 0.000000
# 6 0.000000 0.000000 0.000000 0.000000 0.000000 0.053243
#
#
# Mechanical properties :
#
#
# Convention : Reuss Voigt Hill
#
# Bulk Modulus (GPa) = 53.62517 58.20502 55.91509
# Shear Modulus (GPa) = 29.59832 34.41113 32.00472
#
# Velocity S-wave (km/s) = 3.65093 3.93658 3.79645
# Velocity P-wave (km/s) = 6.47472 6.84648 6.66319
#
# Compressibility (1/GPa) = 0.01864796
#
# Stress axis : x y z
#
# Youngs Moduli (GPa) = 71.99242 85.79183 113.48872
#
# Poissons Ratio (x) = 0.23430 0.16445
# Poissons Ratio (y) = 0.19661 0.41707
# Poissons Ratio (z) = 0.10432 0.31528
#
# Static dielectric constant tensor:
#      x y z
#    x 1.881610 0.000000 0.000000 
#    y 0.000000 1.744980 0.000000 
#    z 0.000000 0.000000 1.862970 
# 
# From -- ./inp_files/13041.got.cif
#   From: 2010.05.17/outbox.cif.g08.bks.cpg/sg23_7_cif.got.tgz:13041.got - 2010.06.04 12:02:01.
