data_PCOD9332939
_publ_section_title
;
Structure prediction by ZEFSAII (Michael W. Deem and Ramdas Pophale) SiO2 
 PCOD9332939
Probable space group: I 21 21 21
;
_chemical_formula_sum "Si O2"
_cell_formula_units_Z 48
_cell_length_a 9.752850
_cell_length_b 13.197071
_cell_length_c 16.780660
_cell_angle_alpha 90.000000
_cell_angle_beta 90.000000
_cell_angle_gamma 90.000000
_cell_volume 2159.822872
_symmetry_space_group_name_H-M "I 21 21 21"
_symmetry_group_IT_number 24
_symmetry_cell_setting 'orthorhombic'
loop_
_space_group_symop_operation_xyz
x,y,z
-x,1/2-y,z
x,-y,1/2-z
1/2-x,y,-z
1/2+x,1/2+y,1/2+z
1/2-x,-y,1/2+z
1/2+x,1/2-y,-z
-x,1/2+y,1/2-z
loop_
_atom_site_type_symbol
_atom_site_label
_atom_site_fract_x
_atom_site_fract_y
_atom_site_fract_z
Si Si1 0.204770 0.146066 0.856355
Si Si2 0.794441 0.890428 0.674579
Si Si3 0.023458 0.868973 0.793038
Si Si4 0.518402 0.939161 0.471281
Si Si5 0.512389 0.134941 0.863732
Si Si6 0.591168 0.353015 0.472658
O O1 0.201839 0.269088 0.848579
O O2 0.128731 0.107616 0.777249
O O3 0.356068 0.100265 0.860691
O O4 0.114945 0.111378 0.931109
O O5 0.870962 0.943582 0.600092
O O6 0.635864 0.918189 0.681428
O O7 0.877405 0.901948 0.756815
O O8 0.081720 0.890474 0.880090
O O9 0.000000 0.750000 0.796866
O O10 0.561067 0.868237 0.544319
O O11 0.482963 0.048510 0.510140
O O12 0.500000 0.250000 0.833951
O O13 0.500000 0.250000 0.482305
O O14 0.750000 0.340104 0.500000
#
# Coordination Sequence:
#
# PCOD9332939 Si02
#       6
#     8   8   8   8   8   8
#     4   9  17  31  54  87 121 150 178 216 272 342
#     4   9  18  31  54  87 121 152 179 213 273 346
#     4   8  17  37  58  77 106 143 185 232 284 339
#     4  11  20  33  55  81 116 154 186 225 276 333
#     4  10  18  29  51  89 126 151 177 212 265 338
#     4  11  25  44  62  79 101 142 200 253 295 331
#
# _framework density 22.224045
#
# number of rings (size 3 to 8) (size 9 to 14) (size 15 to 20)
#    0.000    2.333    0.000    4.500    0.000    6.667 
#    0.000    5.833    0.000    4.000    0.000    0.000 
#    0.000    0.000    0.000    0.000    0.000    0.000 
#
# Total GULP energy -133814.323683 kJ/mol
# GULP energy per Si atom -5575.596820 kJ/mol
# Density = 2.217346 g / cm^3
# Si number density = 22.224045 Si / 1000 Ang^3
#
#
#
# Elastic Constant Matrix: (Units=GPa)
#
#
# Indices 1 2 3 4 5 6 
#
# 1 164.4005 10.2733 50.1496 0.0000 0.0000 0.0000
# 2 10.2733 99.5262 -1.7783 0.0000 0.0000 0.0000
# 3 50.1496 -1.7783 81.7514 0.0000 0.0000 0.0000
# 4 0.0000 0.0000 0.0000 21.4200 0.0000 0.0000
# 5 0.0000 0.0000 0.0000 0.0000 15.2919 0.0000
# 6 0.0000 0.0000 0.0000 0.0000 0.0000 12.5815
#
#
#
# Elastic Compliance Matrix: (Units=1/GPa)
#
#
# Indices 1 2 3 4 5 6 
#
# 1 0.007556 -0.000863 -0.004654 0.000000 0.000000 0.000000
# 2 -0.000863 0.010150 0.000750 0.000000 0.000000 0.000000
# 3 -0.004654 0.000750 0.015104 0.000000 0.000000 0.000000
# 4 0.000000 0.000000 0.000000 0.046685 0.000000 0.000000
# 5 0.000000 0.000000 0.000000 0.000000 0.065394 0.000000
# 6 0.000000 0.000000 0.000000 0.000000 0.000000 0.079482
#
#
# Mechanical properties :
#
#
# Convention : Reuss Voigt Hill
#
# Bulk Modulus (GPa) = 42.96270 51.44081 47.20176
# Shear Modulus (GPa) = 20.68988 28.99425 24.84207
#
# Velocity S-wave (km/s) = 3.05449 3.61589 3.34698
# Velocity P-wave (km/s) = 5.64034 6.37414 6.01843
#
# Compressibility (1/GPa) = 0.02327600
#
# Stress axis : x y z
#
# Youngs Moduli (GPa) = 132.33866 98.52117 66.20950
#
# Poissons Ratio (x) = 0.08504 0.30815
# Poissons Ratio (y) = 0.11423 -0.04968
# Poissons Ratio (z) = 0.61592 -0.07392
#
# Static dielectric constant tensor:
#      x y z
#    x 1.847130 0.000000 0.000000 
#    y 0.000000 1.878080 0.000000 
#    z 0.000000 0.000000 1.841340 
# 
# From -- ./inp_files/29470.got.cif
#   From: 2010.05.17/outbox.cif.g08.bks.cpg/sg24_15_cif.got.tgz:29470.got - 2010.06.04 00:33:39.
