data_PCOD9332828
_publ_section_title
;
Structure prediction by ZEFSAII (Michael W. Deem and Ramdas Pophale) SiO2 
 PCOD9332828
Probable space group: I 21 21 21
;
_chemical_formula_sum "Si O2"
_cell_formula_units_Z 44
_cell_length_a 9.140910
_cell_length_b 22.927477
_cell_length_c 11.447312
_cell_angle_alpha 90.000000
_cell_angle_beta 90.000000
_cell_angle_gamma 90.000000
_cell_volume 2399.104798
_symmetry_space_group_name_H-M "I 21 21 21"
_symmetry_group_IT_number 24
_symmetry_cell_setting 'orthorhombic'
loop_
_space_group_symop_operation_xyz
x,y,z
-x,1/2-y,z
x,-y,1/2-z
1/2-x,y,-z
1/2+x,1/2+y,1/2+z
1/2-x,-y,1/2+z
1/2+x,1/2-y,-z
-x,1/2+y,1/2-z
loop_
_atom_site_type_symbol
_atom_site_label
_atom_site_fract_x
_atom_site_fract_y
_atom_site_fract_z
Si Si1 0.500000 0.750000 0.730038
Si Si2 0.419677 0.472670 0.375306
Si Si3 0.914265 0.983337 0.374748
Si Si4 0.812933 0.149419 0.126148
Si Si5 0.715446 0.721524 0.124932
Si Si6 0.069563 0.339382 0.674856
O O1 0.433266 0.696986 0.657823
O O2 0.634031 0.727535 0.807535
O O3 0.472945 0.500000 0.250000
O O4 0.244650 0.484784 0.373509
O O5 0.478229 0.500468 0.497121
O O6 0.441757 0.403221 0.380530
O O7 0.880592 0.914869 0.371464
O O8 0.987600 0.000000 0.250000
O O9 0.676250 0.152838 0.214876
O O10 0.750000 0.161423 0.000000
O O11 0.646668 0.786330 0.104700
O O12 0.593250 0.685298 0.194911
O O13 0.750000 0.693967 0.000000
#
# Coordination Sequence:
#
# PCOD9332828 Si02
#       6
#     4   8   8   8   8   8
#     4  10  24  36  56  82 116 154 194 236 290 346
#     4  10  17  31  54  88 107 148 186 243 284 342
#     4  10  18  29  53  90 112 140 191 243 284 336
#     4  11  20  37  57  86 117 148 197 243 283 349
#     4  10  22  38  55  84 114 154 188 242 290 351
#     4  10  20  35  60  83 114 147 196 237 296 346
#
# _framework density 18.340174000000001
#
# number of rings (size 3 to 8) (size 9 to 14) (size 15 to 20)
#    0.000    1.818    5.455    1.091    2.545    4.364 
#    0.000    0.000    0.000    3.273    0.000    0.000 
#    0.000    0.000    0.000    0.000    0.000    0.000 
#
# Total GULP energy -122541.587915 kJ/mol
# GULP energy per Si atom -5570.072178 kJ/mol
# Density = 1.829843 g / cm^3
# Si number density = 18.340174 Si / 1000 Ang^3
#
#
#
# Elastic Constant Matrix: (Units=GPa)
#
#
# Indices 1 2 3 4 5 6 
#
# 1 83.5035 59.5864 35.0341 0.0000 0.0000 0.0000
# 2 59.5864 142.7365 47.8693 -0.0001 0.0000 0.0003
# 3 35.0341 47.8693 124.3305 -0.0004 -0.0001 0.0008
# 4 0.0000 -0.0001 -0.0004 32.9612 0.0000 0.0010
# 5 0.0000 0.0000 -0.0001 0.0000 0.8423 -0.0002
# 6 0.0000 0.0003 0.0008 0.0010 -0.0002 15.8391
#
#
#
# Elastic Compliance Matrix: (Units=1/GPa)
#
#
# Indices 1 2 3 4 5 6 
#
# 1 0.017688 -0.006559 -0.002459 0.000000 0.000000 0.000000
# 2 -0.006559 0.010477 -0.002186 0.000000 0.000000 0.000000
# 3 -0.002459 -0.002186 0.009577 0.000000 0.000001 0.000000
# 4 0.000000 0.000000 0.000000 0.030339 0.000000 -0.000002
# 5 0.000000 0.000000 0.000001 0.000000 1.187265 0.000013
# 6 0.000000 0.000000 0.000000 -0.000002 0.000013 0.063135
#
#
# Mechanical properties :
#
#
# Convention : Reuss Voigt Hill
#
# Bulk Modulus (GPa) = 65.20971 70.61667 67.91319
# Shear Modulus (GPa) = 3.71471 23.80056 13.75764
#
# Velocity S-wave (km/s) = 1.42473 3.60631 2.74183
# Velocity P-wave (km/s) = 6.19188 7.47850 6.86540
#
# Compressibility (1/GPa) = 0.01533514
#
# Stress axis : x y z
#
# Youngs Moduli (GPa) = 56.53664 95.44613 104.41300
#
# Poissons Ratio (x) = 0.62606 0.25671
# Poissons Ratio (y) = 0.37084 0.22820
# Poissons Ratio (z) = 0.13900 0.20860
#
# Static dielectric constant tensor:
#      x y z
#    x 1.485590 0.000000 0.000010 
#    y 0.000000 1.632580 0.000000 
#    z 0.000010 0.000000 1.666740 
# 
# From -- ./inp_files/11198.got.cif
#   From: 2010.05.17/outbox.cif.g08.bks.cpg/sg24_6_cif.got.tgz:11198.got - 2010.06.04 00:33:39.
