data_PCOD9332818
_publ_section_title
;
Structure prediction by ZEFSAII (Michael W. Deem and Ramdas Pophale) SiO2 
 PCOD9332818
Probable space group: I 21 21 21
;
_chemical_formula_sum "Si O2"
_cell_formula_units_Z 48
_cell_length_a 8.081580
_cell_length_b 23.494292
_cell_length_c 13.983715
_cell_angle_alpha 90.000000
_cell_angle_beta 90.000000
_cell_angle_gamma 90.000000
_cell_volume 2655.101956
_symmetry_space_group_name_H-M "I 21 21 21"
_symmetry_group_IT_number 24
_symmetry_cell_setting 'orthorhombic'
loop_
_space_group_symop_operation_xyz
x,y,z
-x,1/2-y,z
x,-y,1/2-z
1/2-x,y,-z
1/2+x,1/2+y,1/2+z
1/2-x,-y,1/2+z
1/2+x,1/2-y,-z
-x,1/2+y,1/2-z
loop_
_atom_site_type_symbol
_atom_site_label
_atom_site_fract_x
_atom_site_fract_y
_atom_site_fract_z
Si Si1 0.655204 0.403527 0.215138
Si Si2 0.600768 0.504892 0.446945
Si Si3 0.580750 0.101321 0.946651
Si Si4 0.009030 0.432174 0.263802
Si Si5 0.904951 0.304495 0.936388
Si Si6 0.650824 0.053572 0.324325
O O1 0.652051 0.460620 0.148864
O O2 0.650697 0.349713 0.144049
O O3 0.485108 0.405514 0.274841
O O4 0.825264 0.406507 0.275154
O O5 0.750000 0.473242 0.500000
O O6 0.550362 0.554374 0.519904
O O7 0.442087 0.468701 0.418061
O O8 0.583562 0.096000 0.833302
O O9 0.750000 0.086680 0.000000
O O10 0.522043 0.160737 0.990391
O O11 0.985573 0.500000 0.250000
O O12 0.161659 0.425245 0.337183
O O13 0.000000 0.250000 0.896648
O O14 0.750000 0.285974 0.000000
O O15 0.666265 0.000000 0.250000
#
# Coordination Sequence:
#
# PCOD9332818 Si02
#       6
#     8   8   8   8   8   8
#     4  10  18  33  48  64  95 132 172 218 265 314
#     4  10  17  31  44  68  98 131 171 211 263 319
#     4  11  19  30  48  69 100 131 177 224 258 317
#     4  11  18  29  47  69  95 133 178 210 266 318
#     4  11  21  35  48  69  95 136 186 230 273 311
#     4   9  19  29  44  68  95 127 173 208 260 316
#
# _framework density 18.078403000000002
#
# number of rings (size 3 to 8) (size 9 to 14) (size 15 to 20)
#    0.000    1.667    3.333    7.000    0.000    0.000 
#    0.000    0.000    0.000    0.000    0.000    0.000 
#    0.000    0.000    0.000   22.500    0.000    1.000 
#
# Total GULP energy -133821.221851 kJ/mol
# GULP energy per Si atom -5575.884244 kJ/mol
# Density = 1.803726 g / cm^3
# Si number density = 18.078403 Si / 1000 Ang^3
#
#
#
# Elastic Constant Matrix: (Units=GPa)
#
#
# Indices 1 2 3 4 5 6 
#
# 1 130.2654 36.0725 11.6112 0.0000 0.0000 0.0000
# 2 36.0725 50.1172 18.3475 0.0000 0.0000 0.0000
# 3 11.6112 18.3475 25.8257 0.0000 0.0000 0.0000
# 4 0.0000 0.0000 0.0000 12.2218 0.0000 0.0000
# 5 0.0000 0.0000 0.0000 0.0000 34.4892 0.0000
# 6 0.0000 0.0000 0.0000 0.0000 0.0000 17.2231
#
#
#
# Elastic Compliance Matrix: (Units=1/GPa)
#
#
# Indices 1 2 3 4 5 6 
#
# 1 0.009600 -0.007203 0.000801 0.000000 0.000000 0.000000
# 2 -0.007203 0.032371 -0.019759 0.000000 0.000000 0.000000
# 3 0.000801 -0.019759 0.052399 0.000000 0.000000 0.000000
# 4 0.000000 0.000000 0.000000 0.081821 0.000000 0.000000
# 5 0.000000 0.000000 0.000000 0.000000 0.028995 0.000000
# 6 0.000000 0.000000 0.000000 0.000000 0.000000 0.058061
#
#
# Mechanical properties :
#
#
# Convention : Reuss Voigt Hill
#
# Bulk Modulus (GPa) = 23.78255 37.58564 30.68409
# Shear Modulus (GPa) = 15.17060 22.13198 18.65129
#
# Velocity S-wave (km/s) = 2.89996 3.50268 3.21548
# Velocity P-wave (km/s) = 4.93931 6.09868 5.54936
#
# Compressibility (1/GPa) = 0.04204764
#
# Stress axis : x y z
#
# Youngs Moduli (GPa) = 104.16872 30.89153 19.08440
#
# Poissons Ratio (x) = 0.22251 -0.01529
# Poissons Ratio (y) = 0.75031 0.37710
# Poissons Ratio (z) = -0.08345 0.61040
#
# Static dielectric constant tensor:
#      x y z
#    x 1.796770 0.000000 0.000000 
#    y 0.000000 1.598210 0.000000 
#    z 0.000000 0.000000 1.663070 
# 
# From -- ./inp_files/14330.got.cif
#   From: 2010.05.17/outbox.cif.g08.bks.cpg/sg24_8_cif.got.tgz:14330.got - 2010.06.04 00:33:39.
