data_PCOD9332476
_publ_section_title
;
Structure prediction by ZEFSAII (Michael W. Deem and Ramdas Pophale) SiO2 
 PCOD9332476
Probable space group: I 2 2 2
;
_chemical_formula_sum "Si O2"
_cell_formula_units_Z 34
_cell_length_a 8.930424
_cell_length_b 9.591542
_cell_length_c 18.124543
_cell_angle_alpha 90.000000
_cell_angle_beta 90.000000
_cell_angle_gamma 90.000000
_cell_volume 1552.485586
_symmetry_space_group_name_H-M "I 2 2 2"
_symmetry_group_IT_number 23
_symmetry_cell_setting 'orthorhombic'
loop_
_space_group_symop_operation_xyz
x,y,z
-x,-y,z
x,-y,-z
-x,y,-z
1/2+x,1/2+y,1/2+z
1/2-x,1/2-y,1/2+z
1/2+x,1/2-y,1/2-z
1/2-x,1/2+y,1/2-z
loop_
_atom_site_type_symbol
_atom_site_label
_atom_site_fract_x
_atom_site_fract_y
_atom_site_fract_z
Si Si1 0.682810 0.788745 0.342906
Si Si2 0.000000 0.000000 0.000000
Si Si3 0.322592 0.012467 0.773011
Si Si4 0.353840 0.307363 0.619689
Si Si5 0.331791 0.665929 0.999404
O O1 0.705519 0.941405 0.306947
O O2 0.760392 0.666253 0.293520
O O3 0.504656 0.757491 0.346061
O O4 0.746055 0.784914 0.426335
O O5 0.096219 0.093942 0.053140
O O6 0.234384 0.905372 0.825048
O O7 0.500000 0.000000 0.787100
O O8 0.248016 0.201381 0.577297
O O9 0.338837 0.500000 0.000000
O O10 0.500000 0.725039 0.000000
#
# Coordination Sequence:
#
# PCOD9332476 Si02
#       5
#     8   2   8   8   8
#     4  12  26  47  71 108 142 191 236 288 359 423
#     4  12  20  44  72  96 132 176 244 290 340 408
#     4  12  27  45  71 107 146 190 234 292 356 421
#     4  12  23  46  76 101 139 188 241 294 349 422
#     4  11  26  46  74 106 141 180 238 298 355 417
#
# _framework density 21.900365000000001
#
# number of rings (size 3 to 8) (size 9 to 14) (size 15 to 20)
#    0.000    0.235    4.706    2.824    6.588    0.941 
#    4.235    2.353    0.000    0.000    0.000    0.000 
#    0.000    0.000    0.000    0.000    0.000    0.000 
#
# Total GULP energy -95075.987175 kJ/mol
# GULP energy per Si atom -5592.705128 kJ/mol
# Density = 2.185052 g / cm^3
# Si number density = 21.900365 Si / 1000 Ang^3
#
#
#
# Elastic Constant Matrix: (Units=GPa)
#
#
# Indices 1 2 3 4 5 6 
#
# 1 137.4570 30.9643 32.4788 0.0000 0.0000 0.0000
# 2 30.9643 93.3037 30.9534 0.0000 0.0000 0.0000
# 3 32.4788 30.9534 82.0673 0.0000 0.0000 0.0000
# 4 0.0000 0.0000 0.0000 72.8046 0.0000 0.0000
# 5 0.0000 0.0000 0.0000 0.0000 51.0070 0.0000
# 6 0.0000 0.0000 0.0000 0.0000 0.0000 28.2690
#
#
#
# Elastic Compliance Matrix: (Units=1/GPa)
#
#
# Indices 1 2 3 4 5 6 
#
# 1 0.008312 -0.001906 -0.002571 0.000000 0.000000 0.000000
# 2 -0.001906 0.012687 -0.004031 0.000000 0.000000 0.000000
# 3 -0.002571 -0.004031 0.014723 0.000000 0.000000 0.000000
# 4 0.000000 0.000000 0.000000 0.013735 0.000000 0.000000
# 5 0.000000 0.000000 0.000000 0.000000 0.019605 0.000000
# 6 0.000000 0.000000 0.000000 0.000000 0.000000 0.035374
#
#
# Mechanical properties :
#
#
# Convention : Reuss Voigt Hill
#
# Bulk Modulus (GPa) = 53.45543 55.73567 54.59555
# Shear Modulus (GPa) = 39.15806 44.97822 42.06814
#
# Velocity S-wave (km/s) = 4.23307 4.53677 4.38755
# Velocity P-wave (km/s) = 6.95366 7.27653 7.11692
#
# Compressibility (1/GPa) = 0.01870717
#
# Stress axis : x y z
#
# Youngs Moduli (GPa) = 120.31277 78.81826 67.92121
#
# Poissons Ratio (x) = 0.15019 0.17461
# Poissons Ratio (y) = 0.22926 0.27380
# Poissons Ratio (z) = 0.30929 0.31773
#
# Static dielectric constant tensor:
#      x y z
#    x 1.795930 0.000000 0.000000 
#    y 0.000000 1.701580 0.000000 
#    z 0.000000 0.000000 1.716610 
# 
# From -- ./inp_files/6728.got.cif
#   From: 2010.05.17/outbox.cif.g08.bks.cpg/sg23_4_cif.got.tgz:6728.got - 2010.06.04 12:02:01.
