data_PCOD9332615
_publ_section_title
;
Structure prediction by ZEFSAII (Michael W. Deem and Ramdas Pophale) SiO2 
 PCOD9332615
Probable space group: I 2 2 2
;
_chemical_formula_sum "Si O2"
_cell_formula_units_Z 48
_cell_length_a 8.079633
_cell_length_b 16.799215
_cell_length_c 14.690163
_cell_angle_alpha 90.000000
_cell_angle_beta 90.000000
_cell_angle_gamma 90.000000
_cell_volume 1993.917740
_symmetry_space_group_name_H-M "I 2 2 2"
_symmetry_group_IT_number 23
_symmetry_cell_setting 'orthorhombic'
loop_
_space_group_symop_operation_xyz
x,y,z
-x,-y,z
x,-y,-z
-x,y,-z
1/2+x,1/2+y,1/2+z
1/2-x,1/2-y,1/2+z
1/2+x,1/2-y,1/2-z
1/2-x,1/2+y,1/2-z
loop_
_atom_site_type_symbol
_atom_site_label
_atom_site_fract_x
_atom_site_fract_y
_atom_site_fract_z
Si Si1 0.468551 0.186818 0.833418
Si Si2 0.333184 0.947274 0.756767
Si Si3 0.631511 0.595379 0.290768
Si Si4 0.035345 0.766593 0.862812
Si Si5 0.873967 0.825226 0.594792
Si Si6 0.659793 0.872459 0.442556
O O1 0.613550 0.121220 0.827543
O O2 0.296972 0.140536 0.827530
O O3 0.487487 0.233913 0.739051
O O4 0.484715 0.257790 0.904913
O O5 0.308124 0.912703 0.655045
O O6 0.500000 0.000000 0.748072
O O7 0.183565 0.003310 0.788534
O O8 0.494944 0.639601 0.352934
O O9 0.608355 0.619988 0.184510
O O10 0.897972 0.717848 0.918970
O O11 0.211154 0.730619 0.890125
O O12 0.817854 0.876075 0.508003
O O13 0.500000 0.904898 0.500000
#
# Coordination Sequence:
#
# PCOD9332615 Si02
#       6
#     8   8   8   8   8   8
#     4   8  15  27  42  62  88 118 152 186 224 273
#     4   9  16  26  43  68  95 119 147 190 237 275
#     4   9  16  27  44  65  89 118 152 190 229 272
#     4   8  15  27  42  62  88 118 152 186 224 273
#     4   9  16  27  44  65  89 118 152 190 229 272
#     4   9  16  26  43  68  95 119 147 190 237 275
#
# _framework density 24.073212000000002
#
# number of rings (size 3 to 8) (size 9 to 14) (size 15 to 20)
#    0.000    3.333    0.000    3.000    0.000    2.333 
#    0.000    1.667    0.000    1.000    0.000   16.333 
#    0.000   66.667    0.000    0.000    0.000    0.000 
#
# Total GULP energy -133935.184187 kJ/mol
# GULP energy per Si atom -5580.632674 kJ/mol
# Density = 2.401842 g / cm^3
# Si number density = 24.073212 Si / 1000 Ang^3
#
#
#
# Elastic Constant Matrix: (Units=GPa)
#
#
# Indices 1 2 3 4 5 6 
#
# 1 74.2583 8.6380 -6.5709 0.0000 0.0000 0.0000
# 2 8.6380 92.9377 -15.4238 0.0000 0.0000 0.0000
# 3 -6.5709 -15.4238 22.7492 0.0000 0.0000 0.0000
# 4 0.0000 0.0000 0.0000 23.6363 0.0000 0.0000
# 5 0.0000 0.0000 0.0000 0.0000 20.8363 0.0000
# 6 0.0000 0.0000 0.0000 0.0000 0.0000 30.4127
#
#
#
# Elastic Compliance Matrix: (Units=1/GPa)
#
#
# Indices 1 2 3 4 5 6 
#
# 1 0.013860 -0.000703 0.003527 0.000000 0.000000 0.000000
# 2 -0.000703 0.012160 0.008041 0.000000 0.000000 0.000000
# 3 0.003527 0.008041 0.050428 0.000000 0.000000 0.000000
# 4 0.000000 0.000000 0.000000 0.042308 0.000000 0.000000
# 5 0.000000 0.000000 0.000000 0.000000 0.047993 0.000000
# 6 0.000000 0.000000 0.000000 0.000000 0.000000 0.032881
#
#
# Mechanical properties :
#
#
# Convention : Reuss Voigt Hill
#
# Bulk Modulus (GPa) = 10.18555 18.13685 14.16120
# Shear Modulus (GPa) = 23.73874 28.53051 26.13463
#
# Velocity S-wave (km/s) = 3.14364 3.44634 3.29847
# Velocity P-wave (km/s) = 4.17335 4.83599 4.51684
#
# Compressibility (1/GPa) = 0.09817833
#
# Stress axis : x y z
#
# Youngs Moduli (GPa) = 72.14818 82.23868 19.83024
#
# Poissons Ratio (x) = 0.05781 -0.06994
# Poissons Ratio (y) = 0.05071 -0.15946
# Poissons Ratio (z) = -0.25446 -0.66129
#
# Static dielectric constant tensor:
#      x y z
#    x 2.100580 0.000000 0.000000 
#    y 0.000000 1.942080 0.000000 
#    z 0.000000 0.000000 1.937020 
# 
# From -- ./inp_files/20008.got.cif
#   From: 2010.05.17/outbox.cif.g08.bks.cpg/sg23_11_cif.got.tgz:20008.got - 2010.06.04 12:02:01.
