data_PCOD9332629
_publ_section_title
;
Structure prediction by ZEFSAII (Michael W. Deem and Ramdas Pophale) SiO2 
 PCOD9332629
Probable space group: I 2 2 2
;
_chemical_formula_sum "Si O2"
_cell_formula_units_Z 18
_cell_length_a 18.000000
_cell_length_b 9.000000
_cell_length_c 12.000000
_cell_angle_alpha 90.000000
_cell_angle_beta 90.000000
_cell_angle_gamma 90.000000
_cell_volume 1944.000000
_symmetry_space_group_name_H-M "I 2 2 2"
_symmetry_group_IT_number 23
_symmetry_cell_setting 'orthorhombic'
loop_
_space_group_symop_operation_xyz
x,y,z
-x,-y,z
x,-y,-z
-x,y,-z
1/2+x,1/2+y,1/2+z
1/2-x,1/2-y,1/2+z
1/2+x,1/2-y,1/2-z
1/2-x,1/2+y,1/2-z
loop_
_atom_site_type_symbol
_atom_site_label
_atom_site_fract_x
_atom_site_fract_y
_atom_site_fract_z
Si Si1 0.803492 0.497061 0.365782
Si Si2 0.673329 0.000000 0.500000
Si Si3 0.073307 0.599514 0.792541
Si Si4 0.480193 0.328514 0.376369
Si Si5 0.690858 0.758398 0.324007
O O1 0.803611 0.500000 0.500000
O O2 0.880096 0.560478 0.315768
O O3 0.738534 0.609601 0.329241
O O4 0.796276 0.344275 0.293583
O O5 0.624448 0.926418 0.598767
O O6 0.712555 0.869664 0.427270
O O7 0.000000 0.500000 0.804493
O O8 0.039782 0.761940 0.791650
O O9 0.500000 0.500000 0.381049
O O10 0.500000 0.266889 0.500000
O O11 0.396213 0.283537 0.344046
#
# Coordination Sequence:
#
# PCOD9332629 Si02
#       5
#     8   4   8   8   8
#     4  11  28  42  63  96 135 179 218 261 336 405
#     4  10  19  36  68  94 122 163 226 270 329 366
#     4  11  19  41  64  90 123 169 221 267 321 383
#     4  11  22  36  67 103 126 161 223 288 325 366
#     4  11  25  42  66  95 135 173 217 280 332 387
#
# _framework density 9.2592590000000001
#
# number of rings (size 3 to 8) (size 9 to 14) (size 15 to 20)
#    0.000    1.111    6.667    0.333   12.444    0.444 
#    0.000    0.000    0.000    1.333    0.000    0.000 
#    0.000    0.000    0.000    0.000    0.000    0.000 
#
# Total GULP energy -100298.503821 kJ/mol
# GULP energy per Si atom -5572.139101 kJ/mol
# Density = 0.923818 g / cm^3
# Si number density = 9.259259 Si / 1000 Ang^3
#
#
#
# Elastic Constant Matrix: (Units=GPa)
#
#
# Indices 1 2 3 4 5 6 
#
# 1 51.5463 27.7862 36.0837 0.0000 0.0000 0.0000
# 2 27.7862 78.8765 44.2260 0.0000 0.0000 0.0000
# 3 36.0837 44.2260 146.3872 0.0000 0.0000 0.0000
# 4 0.0000 0.0000 0.0000 26.0629 0.0000 0.0000
# 5 0.0000 0.0000 0.0000 0.0000 -33.0091 0.0000
# 6 0.0000 0.0000 0.0000 0.0000 0.0000 32.4722
#
#
#
# Elastic Compliance Matrix: (Units=1/GPa)
#
#
# Indices 1 2 3 4 5 6 
#
# 1 0.026109 -0.006729 -0.004403 0.000000 0.000000 0.000000
# 2 -0.006729 0.016998 -0.003477 0.000000 0.000000 0.000000
# 3 -0.004403 -0.003477 0.008967 0.000000 0.000000 0.000000
# 4 0.000000 0.000000 0.000000 0.038369 0.000000 0.000000
# 5 0.000000 0.000000 0.000000 0.000000 -0.030295 0.000000
# 6 0.000000 0.000000 0.000000 0.000000 0.000000 0.030796
#
#
# Mechanical properties :
#
#
# Convention : Reuss Voigt Hill
#
# Bulk Modulus (GPa) = 43.75020 54.77795 49.26408
# Shear Modulus (GPa) = 39.12977 16.35282 27.74129
#
# Velocity S-wave (km/s) = 4.60173 2.97484 3.87464
# Velocity P-wave (km/s) = 7.20493 6.43769 6.83209
#
# Compressibility (1/GPa) = 0.02285704
#
# Stress axis : x y z
#
# Youngs Moduli (GPa) = 38.30025 58.83088 111.52186
#
# Poissons Ratio (x) = 0.39587 0.49102
# Poissons Ratio (y) = 0.25772 0.38772
# Poissons Ratio (z) = 0.16863 0.20454
#
# Static dielectric constant tensor:
#      x y z
#    x 1.633260 0.000000 0.000000 
#    y 0.000000 2.256320 0.000000 
#    z 0.000000 0.000000 1.630830 
# 
# From -- ./inp_files/17236.got.cif
#   From: 2010.05.17/outbox.ucp.g08.bks.cvg/sg23_9_cif.got.tgz:17236.got - 2010.06.11 15:19:07.
