data_PCOD9332341
_publ_section_title
;
Structure prediction by ZEFSAII (Michael W. Deem and Ramdas Pophale) SiO2 
 PCOD9332341
Probable space group: I 2 2 2
;
_chemical_formula_sum "Si O2"
_cell_formula_units_Z 34
_cell_length_a 7.199122
_cell_length_b 19.053610
_cell_length_c 12.322603
_cell_angle_alpha 90.000000
_cell_angle_beta 90.000000
_cell_angle_gamma 90.000000
_cell_volume 1690.282371
_symmetry_space_group_name_H-M "I 2 2 2"
_symmetry_group_IT_number 23
_symmetry_cell_setting 'orthorhombic'
loop_
_space_group_symop_operation_xyz
x,y,z
-x,-y,z
x,-y,-z
-x,y,-z
1/2+x,1/2+y,1/2+z
1/2-x,1/2-y,1/2+z
1/2+x,1/2-y,1/2-z
1/2-x,1/2+y,1/2-z
loop_
_atom_site_type_symbol
_atom_site_label
_atom_site_fract_x
_atom_site_fract_y
_atom_site_fract_z
Si Si1 0.362806 0.662468 0.274580
Si Si2 0.000000 0.000000 0.500000
Si Si3 0.783756 0.023583 0.883465
Si Si4 0.986097 0.692574 0.871090
Si Si5 0.718986 0.577016 0.188592
O O1 0.272255 0.606481 0.358794
O O2 0.428505 0.734865 0.327058
O O3 0.545755 0.622420 0.233111
O O4 0.218011 0.679829 0.178795
O O5 0.135938 0.042546 0.579995
O O6 0.720137 0.980620 0.777540
O O7 0.000000 0.000000 0.887898
O O8 0.705777 0.000000 0.000000
O O9 0.112397 0.628301 0.833013
O O10 0.000000 0.694969 0.000000
#
# Coordination Sequence:
#
# PCOD9332341 Si02
#       5
#     8   2   8   8   8
#     4  11  23  46  65 100 131 176 226 273 336 403
#     4  12  20  44  72  96 140 178 218 286 338 396
#     4   9  20  40  69  93 127 173 224 275 328 389
#     4  12  27  42  70  99 138 176 224 280 339 406
#     4  11  23  44  67  99 137 176 224 273 340 400
#
# _framework density 20.114982000000001
#
# number of rings (size 3 to 8) (size 9 to 14) (size 15 to 20)
#    0.000    1.176    5.882    1.412    6.588    0.941 
#    0.000    4.706    0.000    0.000    0.000    0.000 
#    0.000    0.000    0.000    0.000    0.000    0.000 
#
# Total GULP energy -94971.377040 kJ/mol
# GULP energy per Si atom -5586.551591 kJ/mol
# Density = 2.006920 g / cm^3
# Si number density = 20.114982 Si / 1000 Ang^3
#
#
#
# Elastic Constant Matrix: (Units=GPa)
#
#
# Indices 1 2 3 4 5 6 
#
# 1 77.1000 6.0024 12.4534 0.0000 0.0000 0.0000
# 2 6.0024 67.9763 7.3953 0.0000 0.0000 0.0000
# 3 12.4534 7.3953 92.8497 0.0000 0.0000 0.0000
# 4 0.0000 0.0000 0.0000 -192.8350 0.0000 0.0000
# 5 0.0000 0.0000 0.0000 0.0000 -3.9269 0.0000
# 6 0.0000 0.0000 0.0000 0.0000 0.0000 34.7274
#
#
#
# Elastic Compliance Matrix: (Units=1/GPa)
#
#
# Indices 1 2 3 4 5 6 
#
# 1 0.013323 -0.000991 -0.001708 0.000000 0.000000 0.000000
# 2 -0.000991 0.014913 -0.001055 0.000000 0.000000 0.000000
# 3 -0.001708 -0.001055 0.011083 0.000000 0.000000 0.000000
# 4 0.000000 0.000000 0.000000 -0.005186 0.000000 0.000000
# 5 0.000000 0.000000 0.000000 0.000000 -0.254657 0.000000
# 6 0.000000 0.000000 0.000000 0.000000 0.000000 0.028796
#
#
# Mechanical properties :
#
#
# Convention : Reuss Voigt Hill
#
# Bulk Modulus (GPa) = 31.43429 32.18089 31.80759
# Shear Modulus (GPa) = -28.79923 -18.26856 -23.53390
#
# Velocity S-wave (km/s) = -3.78793 -3.01692 -3.42419
# Velocity P-wave (km/s) = 1.86278 1.97421 0.46235
#
# Compressibility (1/GPa) = 0.03181240
#
# Stress axis : x y z
#
# Youngs Moduli (GPa) = 75.05718 67.05444 90.22660
#
# Poissons Ratio (x) = 0.06643 0.15411
# Poissons Ratio (y) = 0.07435 0.09518
# Poissons Ratio (z) = 0.12820 0.07074
#
# Static dielectric constant tensor:
#      x y z
#    x 1.763220 0.000000 0.000000 
#    y 0.000000 1.707960 0.000000 
#    z 0.000000 0.000000 1.721740 
# 
# From -- ./inp_files/8149.got.cif
#   From: 2010.05.17/outbox.cif.g08.bks.cpg/sg23_5_cif.got.tgz:8149.got - 2010.06.04 12:02:01.
