data_PCOD9332995
_publ_section_title
;
Structure prediction by ZEFSAII (Michael W. Deem and Ramdas Pophale) SiO2 
 PCOD9332995
Probable space group: I 21 21 21
;
_chemical_formula_sum "Si O2"
_cell_formula_units_Z 44
_cell_length_a 10.816258
_cell_length_b 24.453766
_cell_length_c 8.511121
_cell_angle_alpha 90.000000
_cell_angle_beta 90.000000
_cell_angle_gamma 90.000000
_cell_volume 2251.176543
_symmetry_space_group_name_H-M "I 21 21 21"
_symmetry_group_IT_number 24
_symmetry_cell_setting 'orthorhombic'
loop_
_space_group_symop_operation_xyz
x,y,z
-x,1/2-y,z
x,-y,1/2-z
1/2-x,y,-z
1/2+x,1/2+y,1/2+z
1/2-x,-y,1/2+z
1/2+x,1/2-y,-z
-x,1/2+y,1/2-z
loop_
_atom_site_type_symbol
_atom_site_label
_atom_site_fract_x
_atom_site_fract_y
_atom_site_fract_z
Si Si1 0.372973 0.671350 0.896377
Si Si2 0.712480 0.385517 0.818737
Si Si3 0.758802 0.738114 0.313634
Si Si4 0.023439 0.442713 0.316855
Si Si5 0.500000 0.750000 0.126950
Si Si6 0.134838 0.957775 0.888854
O O1 0.343494 0.716317 0.765093
O O2 0.399001 0.612701 0.820311
O O3 0.250000 0.666111 0.000000
O O4 0.474742 0.697711 0.013651
O O5 0.684601 0.322188 0.786976
O O6 0.599442 0.425911 0.780978
O O7 0.820861 0.403181 0.699777
O O8 0.750000 0.390488 0.000000
O O9 0.750000 0.746376 0.500000
O O10 0.622910 0.741161 0.232213
O O11 0.073598 0.500000 0.250000
O O12 0.979314 0.451363 0.495837
O O13 0.113527 0.000000 0.750000
O O14 0.250000 0.975048 0.000000
#
# Coordination Sequence:
#
# PCOD9332995 Si02
#       6
#     8   8   8   8   4   8
#     4  10  22  41  60  81 112 150 194 236 279 342
#     4  10  19  32  54  87 119 145 176 224 283 341
#     4  10  22  37  60  91 119 147 187 237 286 339
#     4  11  22  36  56  79 109 152 191 231 281 327
#     4  10  20  38  62  88 116 154 186 224 292 352
#     4  10  18  31  51  80 115 146 181 228 277 334
#
# _framework density 19.545335000000001
#
# number of rings (size 3 to 8) (size 9 to 14) (size 15 to 20)
#    0.000    1.818    0.000    6.000    0.000    8.727 
#    0.000    5.455    0.000    0.000    0.000    0.000 
#    0.000    0.000    0.000    0.000    0.000    0.000 
#
# Total GULP energy -122839.807999 kJ/mol
# GULP energy per Si atom -5583.627636 kJ/mol
# Density = 1.950085 g / cm^3
# Si number density = 19.545335 Si / 1000 Ang^3
#
#
#
# Elastic Constant Matrix: (Units=GPa)
#
#
# Indices 1 2 3 4 5 6 
#
# 1 32.2028 25.8881 29.1374 -0.0008 0.0001 0.0001
# 2 25.8881 166.9309 69.1643 0.0017 0.0000 0.0001
# 3 29.1374 69.1643 119.0221 -0.0033 0.0002 0.0028
# 4 -0.0008 0.0017 -0.0033 -429.5887 0.0003 -0.0053
# 5 0.0001 0.0000 0.0002 0.0003 13.1584 0.0000
# 6 0.0001 0.0001 0.0028 -0.0053 0.0000 11.8357
#
#
#
# Elastic Compliance Matrix: (Units=1/GPa)
#
#
# Indices 1 2 3 4 5 6 
#
# 1 0.040922 -0.002892 -0.008337 0.000000 0.000000 0.000002
# 2 -0.002892 0.008095 -0.003996 0.000000 0.000000 0.000001
# 3 -0.008337 -0.003996 0.012765 0.000000 0.000000 -0.000003
# 4 0.000000 0.000000 0.000000 -0.002328 0.000000 -0.000001
# 5 0.000000 0.000000 0.000000 0.000000 0.075997 0.000000
# 6 0.000002 0.000001 -0.000003 -0.000001 0.000000 0.084490
#
#
# Mechanical properties :
#
#
# Convention : Reuss Voigt Hill
#
# Bulk Modulus (GPa) = 31.91736 62.94838 47.43287
# Shear Modulus (GPa) = 19.16924 -67.98784 -24.40930
#
# Velocity S-wave (km/s) = 3.13510 -5.90425 -3.53775
# Velocity P-wave (km/s) = 5.42868 3.76882 2.76284
#
# Compressibility (1/GPa) = 0.03133091
#
# Stress axis : x y z
#
# Youngs Moduli (GPa) = 24.43690 123.53966 78.33997
#
# Poissons Ratio (x) = 0.35725 0.65316
# Poissons Ratio (y) = 0.07067 0.31304
# Poissons Ratio (z) = 0.20374 0.49365
#
# Static dielectric constant tensor:
#      x y z
#    x 1.718540 0.000000 0.000000 
#    y 0.000000 1.706730 0.000000 
#    z 0.000000 0.000000 1.662930 
# 
# From -- ./inp_files/11205.got.cif
#   From: 2010.05.17/outbox.cif.g08.bks.cpg/sg24_6_cif.got.tgz:11205.got - 2010.06.04 00:33:39.
