data_PCOD9332018
_publ_section_title
;
Structure prediction by ZEFSAII (Michael W. Deem and Ramdas Pophale) SiO2 
 PCOD9332018
Probable space group: I 2 2 2
;
_chemical_formula_sum "Si O2"
_cell_formula_units_Z 60
_cell_length_a 24.099430
_cell_length_b 5.801555
_cell_length_c 19.383997
_cell_angle_alpha 90.000000
_cell_angle_beta 90.000000
_cell_angle_gamma 90.000000
_cell_volume 2710.157425
_symmetry_space_group_name_H-M "I 2 2 2"
_symmetry_group_IT_number 23
_symmetry_cell_setting 'orthorhombic'
loop_
_space_group_symop_operation_xyz
x,y,z
-x,-y,z
x,-y,-z
-x,y,-z
1/2+x,1/2+y,1/2+z
1/2-x,1/2-y,1/2+z
1/2+x,1/2-y,1/2-z
1/2-x,1/2+y,1/2-z
loop_
_atom_site_type_symbol
_atom_site_label
_atom_site_fract_x
_atom_site_fract_y
_atom_site_fract_z
Si Si1 0.721403 0.184515 0.439213
Si Si2 0.817979 0.957333 0.224718
Si Si3 0.500000 0.500000 0.216541
Si Si4 0.925432 0.330483 0.807262
Si Si5 0.330208 0.006427 0.923626
Si Si6 0.601584 0.211788 0.801857
Si Si7 0.593416 0.746488 0.536585
Si Si8 0.249426 0.301897 0.845080
O O1 0.775978 0.341398 0.433098
O O2 0.660270 0.282444 0.453748
O O3 0.730902 0.000000 0.500000
O O4 0.720000 0.029183 0.370871
O O5 0.846486 0.137987 0.276678
O O6 0.793675 0.093237 0.159886
O O7 0.866999 0.791720 0.204997
O O8 0.771281 0.828958 0.267855
O O9 0.470394 0.686855 0.264901
O O10 0.549671 0.628474 0.176725
O O11 0.918147 0.571243 0.766497
O O12 0.934708 0.297579 0.888820
O O13 0.374168 0.934746 0.865116
O O14 0.301022 0.237425 0.894127
O O15 0.355735 0.000000 0.000000
O O16 0.575361 0.500000 0.500000
O O17 0.586445 0.000000 0.500000
#
# Coordination Sequence:
#
# PCOD9332018 Si02
#       8
#     8   8   4   8   8   8   8   8
#     4  11  23  38  59  93 144 194 229 266 329 415
#     4  11  24  35  62  96 137 178 234 281 334 406
#     4  10  26  46  81  95 126 160 242 304 384 428
#     4  11  24  46  72  97 130 178 227 299 361 427
#     4  12  23  39  63  98 143 186 233 280 350 424
#     4  11  23  45  69 102 126 178 237 304 363 428
#     4  11  27  44  68 104 151 195 236 282 350 436
#     4  12  23  37  56  99 140 186 231 280 328 412
#
# _framework density 22.138936999999999
#
# number of rings (size 3 to 8) (size 9 to 14) (size 15 to 20)
#    0.000    0.800    4.000    3.200   11.200    0.000 
#    0.000    0.333    0.000    2.400    0.000    0.000 
#    0.000    0.000    0.000    0.000    0.000    0.000 
#
# Total GULP energy -167529.813036 kJ/mol
# GULP energy per Si atom -5584.327101 kJ/mol
# Density = 2.208855 g / cm^3
# Si number density = 22.138937 Si / 1000 Ang^3
#
#
#
# Elastic Constant Matrix: (Units=GPa)
#
#
# Indices 1 2 3 4 5 6 
#
# 1 74.9237 15.6765 5.9980 0.0000 0.0000 0.0000
# 2 15.6765 67.4641 24.9055 0.0000 0.0000 0.0000
# 3 5.9980 24.9055 84.5273 0.0000 0.0000 0.0000
# 4 0.0000 0.0000 0.0000 42.1654 0.0000 0.0000
# 5 0.0000 0.0000 0.0000 0.0000 11.9917 0.0000
# 6 0.0000 0.0000 0.0000 0.0000 0.0000 36.0376
#
#
#
# Elastic Compliance Matrix: (Units=1/GPa)
#
#
# Indices 1 2 3 4 5 6 
#
# 1 0.014029 -0.003245 -0.000039 0.000000 0.000000 0.000000
# 2 -0.003245 0.017383 -0.004891 0.000000 0.000000 0.000000
# 3 -0.000039 -0.004891 0.013274 0.000000 0.000000 0.000000
# 4 0.000000 0.000000 0.000000 0.023716 0.000000 0.000000
# 5 0.000000 0.000000 0.000000 0.000000 0.083391 0.000000
# 6 0.000000 0.000000 0.000000 0.000000 0.000000 0.027749
#
#
# Mechanical properties :
#
#
# Convention : Reuss Voigt Hill
#
# Bulk Modulus (GPa) = 35.29320 35.56388 35.42854
# Shear Modulus (GPa) = 24.34997 30.06128 27.20563
#
# Velocity S-wave (km/s) = 3.32003 3.68889 3.50931
# Velocity P-wave (km/s) = 5.53833 5.85173 5.69718
#
# Compressibility (1/GPa) = 0.02833407
#
# Stress axis : x y z
#
# Youngs Moduli (GPa) = 71.28043 57.52897 75.33245
#
# Poissons Ratio (x) = 0.18671 0.00296
# Poissons Ratio (y) = 0.23133 0.36848
# Poissons Ratio (z) = 0.00280 0.28140
#
# Static dielectric constant tensor:
#      x y z
#    x 1.788490 0.000000 0.000000 
#    y 0.000000 1.897300 0.000000 
#    z 0.000000 0.000000 1.884960 
# 
# From -- ./inp_files/27380.got.cif
#   From: 2010.05.17/outbox.cif.g08.bks.cpg/sg23_14_cif.got.tgz:27380.got - 2010.06.04 12:02:01.
