data_PCOD9332725
_publ_section_title
;
Structure prediction by ZEFSAII (Michael W. Deem and Ramdas Pophale) SiO2 
 PCOD9332725
Probable space group: I 21 21 21
;
_chemical_formula_sum "Si O2"
_cell_formula_units_Z 52
_cell_length_a 14.054772
_cell_length_b 9.004488
_cell_length_c 20.742542
_cell_angle_alpha 90.000000
_cell_angle_beta 90.000000
_cell_angle_gamma 90.000000
_cell_volume 2625.093681
_symmetry_space_group_name_H-M "I 21 21 21"
_symmetry_group_IT_number 24
_symmetry_cell_setting 'orthorhombic'
loop_
_space_group_symop_operation_xyz
x,y,z
-x,1/2-y,z
x,-y,1/2-z
1/2-x,y,-z
1/2+x,1/2+y,1/2+z
1/2-x,-y,1/2+z
1/2+x,1/2-y,-z
-x,1/2+y,1/2-z
loop_
_atom_site_type_symbol
_atom_site_label
_atom_site_fract_x
_atom_site_fract_y
_atom_site_fract_z
Si Si1 0.439112 0.978071 0.902759
Si Si2 0.596877 0.432188 0.317182
Si Si3 0.569918 0.612272 0.042420
Si Si4 0.203169 0.901697 0.309385
Si Si5 0.638166 0.140215 0.616687
Si Si6 0.794680 0.845073 0.774371
Si Si7 0.250000 0.284536 0.500000
O O1 0.546412 0.963374 0.877480
O O2 0.394564 0.813785 0.887784
O O3 0.372973 0.094512 0.866020
O O4 0.438697 0.993182 0.980247
O O5 0.558464 0.500000 0.250000
O O6 0.547009 0.447197 0.386223
O O7 0.699852 0.511488 0.327074
O O8 0.623558 0.261293 0.302682
O O9 0.500000 0.750000 0.029007
O O10 0.676697 0.680356 0.039535
O O11 0.239889 0.746559 0.281505
O O12 0.161677 0.000000 0.250000
O O13 0.714662 0.124922 0.672306
O O14 0.689911 0.117135 0.548767
O O15 0.833228 0.000000 0.750000
#
# Coordination Sequence:
#
# PCOD9332725 Si02
#       7
#     8   8   8   8   8   8   4
#     4  10  17  29  47  82 107 133 184 225 280 325
#     4   9  18  34  53  77 108 139 184 237 278 327
#     4  11  18  29  56  86 106 139 187 239 287 330
#     4   9  17  32  50  73 110 146 177 227 277 326
#     4  10  17  29  48  76 108 135 174 228 274 326
#     4  10  19  33  51  76 108 152 186 214 279 345
#     4  10  16  30  50  76 112 132 172 246 274 326
#
# _framework density 19.808816
#
# number of rings (size 3 to 8) (size 9 to 14) (size 15 to 20)
#    0.000    2.462    7.692    0.923    0.000    0.615 
#    0.000    0.769    0.000    3.692    0.000    0.000 
#    0.000    0.000    0.000    0.000    0.000    0.000 
#
# Total GULP energy -144985.327176 kJ/mol
# GULP energy per Si atom -5576.358738 kJ/mol
# Density = 1.976373 g / cm^3
# Si number density = 19.808816 Si / 1000 Ang^3
#
#
#
# Elastic Constant Matrix: (Units=GPa)
#
#
# Indices 1 2 3 4 5 6 
#
# 1 53.0748 2.5732 12.5823 0.0000 0.0000 0.0000
# 2 2.5732 49.6580 24.4947 0.0000 0.0000 0.0000
# 3 12.5823 24.4947 114.5637 0.0000 0.0000 0.0000
# 4 0.0000 0.0000 0.0000 16.6057 0.0000 0.0000
# 5 0.0000 0.0000 0.0000 0.0000 24.3460 0.0000
# 6 0.0000 0.0000 0.0000 0.0000 0.0000 6.1643
#
#
#
# Elastic Compliance Matrix: (Units=1/GPa)
#
#
# Indices 1 2 3 4 5 6 
#
# 1 0.019345 0.000051 -0.002136 0.000000 0.000000 0.000000
# 2 0.000051 0.022512 -0.004819 0.000000 0.000000 0.000000
# 3 -0.002136 -0.004819 0.009994 0.000000 0.000000 0.000000
# 4 0.000000 0.000000 0.000000 0.060220 0.000000 0.000000
# 5 0.000000 0.000000 0.000000 0.000000 0.041074 0.000000
# 6 0.000000 0.000000 0.000000 0.000000 0.000000 0.162225
#
#
# Mechanical properties :
#
#
# Convention : Reuss Voigt Hill
#
# Bulk Modulus (GPa) = 26.28538 32.95519 29.62028
# Shear Modulus (GPa) = 14.62592 21.26629 17.94611
#
# Velocity S-wave (km/s) = 2.72022 3.28010 3.01319
# Velocity P-wave (km/s) = 4.81294 5.56940 5.20493
#
# Compressibility (1/GPa) = 0.03804397
#
# Stress axis : x y z
#
# Youngs Moduli (GPa) = 51.69260 44.42057 100.06382
#
# Poissons Ratio (x) = -0.00226 0.21369
# Poissons Ratio (y) = -0.00263 0.48219
# Poissons Ratio (z) = 0.11039 0.21406
#
# Static dielectric constant tensor:
#      x y z
#    x 1.715190 0.000000 0.000000 
#    y 0.000000 1.695060 0.000000 
#    z 0.000000 0.000000 1.753480 
# 
# From -- ./inp_files/33708.got.cif
#   From: 2010.05.17/outbox.cif.g08.bks.cpg/sg24_17_cif.got.tgz:33708.got - 2010.06.04 00:33:39.
