data_PCOD9332271
_publ_section_title
;
Structure prediction by ZEFSAII (Michael W. Deem and Ramdas Pophale) SiO2 
 PCOD9332271
Probable space group: I 2 2 2
;
_chemical_formula_sum "Si O2"
_cell_formula_units_Z 48
_cell_length_a 23.805557
_cell_length_b 6.512807
_cell_length_c 14.146952
_cell_angle_alpha 90.000000
_cell_angle_beta 90.000000
_cell_angle_gamma 90.000000
_cell_volume 2193.357561
_symmetry_space_group_name_H-M "I 2 2 2"
_symmetry_group_IT_number 23
_symmetry_cell_setting 'orthorhombic'
loop_
_space_group_symop_operation_xyz
x,y,z
-x,-y,z
x,-y,-z
-x,y,-z
1/2+x,1/2+y,1/2+z
1/2-x,1/2-y,1/2+z
1/2+x,1/2-y,1/2-z
1/2-x,1/2+y,1/2-z
loop_
_atom_site_type_symbol
_atom_site_label
_atom_site_fract_x
_atom_site_fract_y
_atom_site_fract_z
Si Si1 0.537930 0.678601 0.629142
Si Si2 0.095932 0.595284 0.400595
Si Si3 0.500000 0.000000 0.761587
Si Si4 0.196197 0.645502 0.669527
Si Si5 0.312139 0.158013 0.337452
Si Si6 0.394280 0.000000 0.500000
Si Si7 0.882287 0.024829 0.287758
O O1 0.500000 0.500000 0.589966
O O2 0.495070 0.811560 0.691645
O O3 0.579399 0.582435 0.707975
O O4 0.568856 0.826886 0.554363
O O5 0.077175 0.500000 0.500000
O O6 0.160259 0.521703 0.387930
O O7 0.090933 0.836935 0.372791
O O8 0.055569 0.487582 0.323812
O O9 0.256087 0.721126 0.632308
O O10 0.203163 0.542625 0.773870
O O11 0.157098 0.845933 0.672783
O O12 0.345641 0.310164 0.269077
O O13 0.353451 0.098764 0.421797
#
# Coordination Sequence:
#
# PCOD9332271 Si02
#       7
#     8   8   4   8   8   4   8
#     4  12  26  50  74 104 150 207 247 313 397 454
#     4  11  25  42  70 112 142 179 257 314 362 462
#     4  12  23  49  74  98 148 202 238 309 393 454
#     4  11  22  45  73  99 144 197 241 302 392 450
#     4  11  24  45  72 103 145 195 249 310 377 456
#     4  12  28  49  72 122 146 186 281 322 356 490
#     4  11  22  46  72  95 143 200 234 296 391 450
#
# _framework density 21.884256000000001
#
# number of rings (size 3 to 8) (size 9 to 14) (size 15 to 20)
#    0.000    0.667    6.667    1.250    0.000    3.000 
#    6.000    0.000    0.000    0.000    0.000    0.000 
#    0.000    0.000    0.000    0.000    0.000    0.000 
#
# Total GULP energy -134048.513537 kJ/mol
# GULP energy per Si atom -5585.354731 kJ/mol
# Density = 2.183445 g / cm^3
# Si number density = 21.884256 Si / 1000 Ang^3
#
#
#
# Elastic Constant Matrix: (Units=GPa)
#
#
# Indices 1 2 3 4 5 6 
#
# 1 95.2265 36.9449 45.9146 0.0000 0.0000 0.0000
# 2 36.9449 119.7638 58.1271 0.0000 0.0000 0.0000
# 3 45.9146 58.1271 111.7710 0.0000 0.0000 0.0000
# 4 0.0000 0.0000 0.0000 27.8481 0.0000 0.0000
# 5 0.0000 0.0000 0.0000 0.0000 15.6468 0.0000
# 6 0.0000 0.0000 0.0000 0.0000 0.0000 52.4663
#
#
#
# Elastic Compliance Matrix: (Units=1/GPa)
#
#
# Indices 1 2 3 4 5 6 
#
# 1 0.013430 -0.001960 -0.004498 0.000000 0.000000 0.000000
# 2 -0.001960 0.011455 -0.005152 0.000000 0.000000 0.000000
# 3 -0.004498 -0.005152 0.013474 0.000000 0.000000 0.000000
# 4 0.000000 0.000000 0.000000 0.035909 0.000000 0.000000
# 5 0.000000 0.000000 0.000000 0.000000 0.063911 0.000000
# 6 0.000000 0.000000 0.000000 0.000000 0.000000 0.019060
#
#
# Mechanical properties :
#
#
# Convention : Reuss Voigt Hill
#
# Bulk Modulus (GPa) = 66.05241 67.63716 66.84479
# Shear Modulus (GPa) = 26.95345 31.57722 29.26534
#
# Velocity S-wave (km/s) = 3.51328 3.80270 3.66085
# Velocity P-wave (km/s) = 6.83415 7.08904 6.96276
#
# Compressibility (1/GPa) = 0.01513949
#
# Stress axis : x y z
#
# Youngs Moduli (GPa) = 74.45819 87.29860 74.21786
#
# Poissons Ratio (x) = 0.17111 0.33381
# Poissons Ratio (y) = 0.14594 0.38237
# Poissons Ratio (z) = 0.33489 0.44977
#
# Static dielectric constant tensor:
#      x y z
#    x 1.802020 0.000000 0.000000 
#    y 0.000000 1.852710 0.000000 
#    z 0.000000 0.000000 1.814880 
# 
# From -- ./inp_files/22716.got.cif
#   From: 2010.05.17/outbox.cif.g08.bks.cpg/sg23_12_cif.got.tgz:22716.got - 2010.06.04 12:02:01.
