data_PCOD9332928
_publ_section_title
;
Structure prediction by ZEFSAII (Michael W. Deem and Ramdas Pophale) SiO2 
 PCOD9332928
Probable space group: I 21 21 21
;
_chemical_formula_sum "Si O2"
_cell_formula_units_Z 64
_cell_length_a 21.619810
_cell_length_b 7.946022
_cell_length_c 22.523449
_cell_angle_alpha 90.000000
_cell_angle_beta 90.000000
_cell_angle_gamma 90.000000
_cell_volume 3869.336771
_symmetry_space_group_name_H-M "I 21 21 21"
_symmetry_group_IT_number 24
_symmetry_cell_setting 'orthorhombic'
loop_
_space_group_symop_operation_xyz
x,y,z
-x,1/2-y,z
x,-y,1/2-z
1/2-x,y,-z
1/2+x,1/2+y,1/2+z
1/2-x,-y,1/2+z
1/2+x,1/2-y,-z
-x,1/2+y,1/2-z
loop_
_atom_site_type_symbol
_atom_site_label
_atom_site_fract_x
_atom_site_fract_y
_atom_site_fract_z
Si Si1 0.636606 0.369140 0.373928
Si Si2 0.059007 0.649675 0.792794
Si Si3 0.960161 0.096771 0.898552
Si Si4 0.666888 0.718095 0.407755
Si Si5 0.457948 0.093740 0.484665
Si Si6 0.217417 0.409166 0.065911
Si Si7 0.152333 0.912927 0.460289
Si Si8 0.734340 0.281319 0.569730
O O1 0.610008 0.278585 0.316241
O O2 0.648177 0.567592 0.364219
O O3 0.587591 0.353486 0.429272
O O4 0.701699 0.291841 0.394590
O O5 0.080544 0.500000 0.750000
O O6 0.037493 0.554429 0.852513
O O7 0.000000 0.750000 0.768084
O O8 0.890881 0.156264 0.911328
O O9 0.000000 0.250000 0.873438
O O10 0.994800 0.040391 0.957600
O O11 0.728263 0.823001 0.395453
O O12 0.674436 0.619670 0.471012
O O13 0.500000 0.250000 0.504449
O O14 0.413975 0.000539 0.531541
O O15 0.161775 0.274635 0.065129
O O16 0.202747 0.600839 0.082712
O O17 0.250000 0.415762 0.000000
O O18 0.194089 0.048775 0.425464
O O19 0.750000 0.277286 0.500000
#
# Coordination Sequence:
#
# PCOD9332928 Si02
#       8
#     8   8   8   8   8   8   8   8
#     4  11  18  33  50  66  91 120 161 215 272 303
#     4  12  24  38  50  66  89 125 176 231 281 323
#     4  12  19  32  46  64  82 120 159 209 260 315
#     4  10  18  29  46  65  93 113 157 204 262 311
#     4  11  20  30  46  62  93 125 164 198 260 303
#     4   9  18  26  40  65  85 117 147 189 246 292
#     4  10  18  31  42  67  97 118 152 202 247 300
#     4  11  17  28  50  69  92 121 150 206 257 307
#
# _framework density 16.540302000000001
#
# number of rings (size 3 to 8) (size 9 to 14) (size 15 to 20)
#    0.000    1.250    8.750    1.500    0.000    1.000 
#    0.000    0.000    0.000    0.000    0.000    0.000 
#    0.000    0.000    0.000    0.000    0.000    0.000 
#
# Total GULP energy -178302.300368 kJ/mol
# GULP energy per Si atom -5571.946887 kJ/mol
# Density = 1.650266 g / cm^3
# Si number density = 16.540302 Si / 1000 Ang^3
#
#
#
# Elastic Constant Matrix: (Units=GPa)
#
#
# Indices 1 2 3 4 5 6 
#
# 1 55.2950 23.0886 18.4252 0.0000 0.0000 0.0000
# 2 23.0886 98.3989 7.4529 0.0000 0.0000 0.0000
# 3 18.4252 7.4529 18.2489 0.0000 0.0000 0.0000
# 4 0.0000 0.0000 0.0000 11.0010 0.0000 0.0000
# 5 0.0000 0.0000 0.0000 0.0000 5.6913 0.0000
# 6 0.0000 0.0000 0.0000 0.0000 0.0000 25.5309
#
#
#
# Elastic Compliance Matrix: (Units=1/GPa)
#
#
# Indices 1 2 3 4 5 6 
#
# 1 0.029281 -0.004779 -0.027612 0.000000 0.000000 0.000000
# 2 -0.004779 0.011267 0.000224 0.000000 0.000000 0.000000
# 3 -0.027612 0.000224 0.082585 0.000000 0.000000 0.000000
# 4 0.000000 0.000000 0.000000 0.090901 0.000000 0.000000
# 5 0.000000 0.000000 0.000000 0.000000 0.175705 0.000000
# 6 0.000000 0.000000 0.000000 0.000000 0.000000 0.039168
#
#
# Mechanical properties :
#
#
# Convention : Reuss Voigt Hill
#
# Bulk Modulus (GPa) = 17.00725 29.98626 23.49676
# Shear Modulus (GPa) = 9.74957 16.64306 13.19631
#
# Velocity S-wave (km/s) = 2.43048 3.17553 2.82765
# Velocity P-wave (km/s) = 4.26391 5.62262 4.98973
#
# Compressibility (1/GPa) = 0.05879845
#
# Stress axis : x y z
#
# Youngs Moduli (GPa) = 34.15148 88.75344 12.10868
#
# Poissons Ratio (x) = 0.42417 0.33435
# Poissons Ratio (y) = 0.16322 -0.00271
# Poissons Ratio (z) = 0.94300 -0.01987
#
# Static dielectric constant tensor:
#      x y z
#    x 1.593680 0.000000 0.000000 
#    y 0.000000 1.649150 0.000000 
#    z 0.000000 0.000000 1.551430 
# 
# From -- ./inp_files/36115.got.cif
#   From: 2010.05.17/outbox.cif.g08.bks.cpg/sg24_19_cif.got.tgz:36115.got - 2010.06.04 00:33:39.
