data_PCOD9332682
_publ_section_title
;
Structure prediction by ZEFSAII (Michael W. Deem and Ramdas Pophale) SiO2 
 PCOD9332682
Probable space group: I 21 21 21
;
_chemical_formula_sum "Si O2"
_cell_formula_units_Z 36
_cell_length_a 6.872433
_cell_length_b 19.034852
_cell_length_c 12.968855
_cell_angle_alpha 90.000000
_cell_angle_beta 90.000000
_cell_angle_gamma 90.000000
_cell_volume 1696.530429
_symmetry_space_group_name_H-M "I 21 21 21"
_symmetry_group_IT_number 24
_symmetry_cell_setting 'orthorhombic'
loop_
_space_group_symop_operation_xyz
x,y,z
-x,1/2-y,z
x,-y,1/2-z
1/2-x,y,-z
1/2+x,1/2+y,1/2+z
1/2-x,-y,1/2+z
1/2+x,1/2-y,-z
-x,1/2+y,1/2-z
loop_
_atom_site_type_symbol
_atom_site_label
_atom_site_fract_x
_atom_site_fract_y
_atom_site_fract_z
Si Si1 0.389964 0.050808 0.162559
Si Si2 0.750000 0.444699 0.500000
Si Si3 0.375361 0.573493 0.897494
Si Si4 0.476978 0.168391 0.026199
Si Si5 0.066932 0.586713 0.329727
O O1 0.508932 0.117542 0.123648
O O2 0.167847 0.073838 0.189339
O O3 0.469486 0.000000 0.250000
O O4 0.377180 0.997718 0.067378
O O5 0.596417 0.405569 0.570659
O O6 0.342877 0.604170 0.782329
O O7 0.368297 0.489331 0.874294
O O8 0.250000 0.590244 0.000000
O O9 0.500000 0.250000 0.047695
O O10 0.250000 0.156113 0.000000
O O11 0.583331 0.143282 0.921699
#
# Coordination Sequence:
#
# PCOD9332682 Si02
#       5
#     8   4   8   8   8
#     4  10  15  31  57  80 115 159 201 243 306 354
#     4  10  16  32  52  80 114 140 190 246 290 352
#     4  10  18  31  52  82 117 148 190 250 305 345
#     4  10  20  35  56  82 120 167 193 240 309 368
#     4   9  17  34  51  76 122 150 192 250 300 353
#
# _framework density 21.219778000000002
#
# number of rings (size 3 to 8) (size 9 to 14) (size 15 to 20)
#    0.000    2.222   10.000    0.000    0.000    0.889 
#    4.000    0.000    0.000    0.000    2.889    1.556 
#    0.000    0.000    0.444    0.000    0.000    0.000 
#
# Total GULP energy -100403.796112 kJ/mol
# GULP energy per Si atom -5577.988673 kJ/mol
# Density = 2.117148 g / cm^3
# Si number density = 21.219778 Si / 1000 Ang^3
#
#
#
# Elastic Constant Matrix: (Units=GPa)
#
#
# Indices 1 2 3 4 5 6 
#
# 1 76.0360 16.2859 36.5491 0.0000 0.0000 0.0000
# 2 16.2859 91.4101 69.7914 0.0000 0.0000 0.0000
# 3 36.5491 69.7914 203.9294 0.0000 0.0000 0.0000
# 4 0.0000 0.0000 0.0000 24.5368 0.0000 0.0000
# 5 0.0000 0.0000 0.0000 0.0000 38.7957 0.0000
# 6 0.0000 0.0000 0.0000 0.0000 0.0000 16.5360
#
#
#
# Elastic Compliance Matrix: (Units=1/GPa)
#
#
# Indices 1 2 3 4 5 6 
#
# 1 0.014435 -0.000808 -0.002311 0.000000 0.000000 0.000000
# 2 -0.000808 0.014854 -0.004939 0.000000 0.000000 0.000000
# 3 -0.002311 -0.004939 0.007008 0.000000 0.000000 0.000000
# 4 0.000000 0.000000 0.000000 0.040755 0.000000 0.000000
# 5 0.000000 0.000000 0.000000 0.000000 0.025776 0.000000
# 6 0.000000 0.000000 0.000000 0.000000 0.000000 0.060474
#
#
# Mechanical properties :
#
#
# Convention : Reuss Voigt Hill
#
# Bulk Modulus (GPa) = 49.54591 68.51426 59.03009
# Shear Modulus (GPa) = 26.86070 32.55699 29.70884
#
# Velocity S-wave (km/s) = 3.56171 3.92123 3.74579
# Velocity P-wave (km/s) = 6.34933 7.27045 6.82545
#
# Compressibility (1/GPa) = 0.02018330
#
# Stress axis : x y z
#
# Youngs Moduli (GPa) = 69.27421 67.31976 142.69239
#
# Poissons Ratio (x) = 0.05437 0.32973
# Poissons Ratio (y) = 0.05594 0.70475
# Poissons Ratio (z) = 0.16008 0.33249
#
# Static dielectric constant tensor:
#      x y z
#    x 1.961400 0.000000 0.000000 
#    y 0.000000 1.714880 0.000000 
#    z 0.000000 0.000000 1.765490 
# 
# From -- ./inp_files/18359.got.cif
#   From: 2010.05.17/outbox.cif.g08.bks.cpg/sg24_10_cif.got.tgz:18359.got - 2010.06.04 00:33:39.
