data_PCOD9332184
_publ_section_title
;
Structure prediction by ZEFSAII (Michael W. Deem and Ramdas Pophale) SiO2 
 PCOD9332184
Probable space group: I 2 2 2
;
_chemical_formula_sum "Si O2"
_cell_formula_units_Z 42
_cell_length_a 18.747457
_cell_length_b 14.070762
_cell_length_c 8.040500
_cell_angle_alpha 90.000000
_cell_angle_beta 90.000000
_cell_angle_gamma 90.000000
_cell_volume 2121.011580
_symmetry_space_group_name_H-M "I 2 2 2"
_symmetry_group_IT_number 23
_symmetry_cell_setting 'orthorhombic'
loop_
_space_group_symop_operation_xyz
x,y,z
-x,-y,z
x,-y,-z
-x,y,-z
1/2+x,1/2+y,1/2+z
1/2-x,1/2-y,1/2+z
1/2+x,1/2-y,1/2-z
1/2-x,1/2+y,1/2-z
loop_
_atom_site_type_symbol
_atom_site_label
_atom_site_fract_x
_atom_site_fract_y
_atom_site_fract_z
Si Si1 0.107853 0.142673 0.056983
Si Si2 0.174014 0.297442 0.882663
Si Si3 0.759392 0.446521 0.341247
Si Si4 0.000000 0.000000 0.000000
Si Si5 0.574107 0.389863 0.059724
Si Si6 0.284821 0.368447 0.144942
O O1 0.189703 0.109940 0.090547
O O2 0.077126 0.126129 0.242166
O O3 0.107484 0.246355 0.973378
O O4 0.060467 0.074983 0.936085
O O5 0.181892 0.379784 0.744854
O O6 0.210173 0.207256 0.792332
O O7 0.219227 0.340702 0.031486
O O8 0.790668 0.500000 0.500000
O O9 0.726995 0.525499 0.214967
O O10 0.572434 0.500000 0.000000
O O11 0.500000 0.345478 0.000000
O O12 0.644773 0.354069 0.967331
#
# Coordination Sequence:
#
# PCOD9332184 Si02
#       6
#     8   8   8   2   8   8
#     4  12  23  38  58  94 133 177 225 267 339 417
#     4  12  23  37  59  90 135 174 221 280 334 412
#     4  12  22  39  60  92 132 174 222 275 336 402
#     4  12  24  40  66  92 138 184 208 264 352 420
#     4  11  22  34  56  87 126 176 217 258 328 408
#     4  12  20  38  57  87 130 168 216 273 335 394
#
# _framework density 19.801873000000001
#
# number of rings (size 3 to 8) (size 9 to 14) (size 15 to 20)
#    0.000    0.190    8.571    1.714    2.667    0.000 
#    0.000    0.000    0.000    0.000    0.000    2.667 
#    0.000    0.000    0.000    0.000    0.000    0.000 
#
# Total GULP energy -116937.631500 kJ/mol
# GULP energy per Si atom -5568.458643 kJ/mol
# Density = 1.975680 g / cm^3
# Si number density = 19.801873 Si / 1000 Ang^3
#
#
#
# Elastic Constant Matrix: (Units=GPa)
#
#
# Indices 1 2 3 4 5 6 
#
# 1 53.9244 30.7364 22.3313 0.0000 0.0000 0.0000
# 2 30.7364 79.3816 49.5516 0.0000 0.0000 0.0000
# 3 22.3313 49.5516 123.2785 0.0000 0.0000 0.0000
# 4 0.0000 0.0000 0.0000 55.1536 0.0000 0.0000
# 5 0.0000 0.0000 0.0000 0.0000 12.1002 0.0000
# 6 0.0000 0.0000 0.0000 0.0000 0.0000 26.3427
#
#
#
# Elastic Compliance Matrix: (Units=1/GPa)
#
#
# Indices 1 2 3 4 5 6 
#
# 1 0.023857 -0.008730 -0.000812 0.000000 0.000000 0.000000
# 2 -0.008730 0.020012 -0.006462 0.000000 0.000000 0.000000
# 3 -0.000812 -0.006462 0.010856 0.000000 0.000000 0.000000
# 4 0.000000 0.000000 0.000000 0.018131 0.000000 0.000000
# 5 0.000000 0.000000 0.000000 0.000000 0.082643 0.000000
# 6 0.000000 0.000000 0.000000 0.000000 0.000000 0.037961
#
#
# Mechanical properties :
#
#
# Convention : Reuss Voigt Hill
#
# Bulk Modulus (GPa) = 44.02344 51.31368 47.66856
# Shear Modulus (GPa) = 21.45535 28.98366 25.21950
#
# Velocity S-wave (km/s) = 3.29523 3.82996 3.57261
# Velocity P-wave (km/s) = 6.06286 6.74744 6.41429
#
# Compressibility (1/GPa) = 0.02271517
#
# Stress axis : x y z
#
# Youngs Moduli (GPa) = 41.91623 49.97115 92.11206
#
# Poissons Ratio (x) = 0.43626 0.07484
# Poissons Ratio (y) = 0.36594 0.59524
# Poissons Ratio (z) = 0.03406 0.32292
#
# Static dielectric constant tensor:
#      x y z
#    x 1.719460 0.000000 0.000000 
#    y 0.000000 1.760420 0.000000 
#    z 0.000000 0.000000 1.811280 
# 
# From -- ./inp_files/12529.got.cif
#   From: 2010.05.17/outbox.cif.g08.bks.cpg/sg23_7_cif.got.tgz:12529.got - 2010.06.04 12:02:01.
