data_PCOD9332519
_publ_section_title
;
Structure prediction by ZEFSAII (Michael W. Deem and Ramdas Pophale) SiO2 
 PCOD9332519
Probable space group: I 2 2 2
;
_chemical_formula_sum "Si O2"
_cell_formula_units_Z 48
_cell_length_a 18.683090
_cell_length_b 17.938530
_cell_length_c 6.441352
_cell_angle_alpha 90.000000
_cell_angle_beta 90.000000
_cell_angle_gamma 90.000000
_cell_volume 2158.800897
_symmetry_space_group_name_H-M "I 2 2 2"
_symmetry_group_IT_number 23
_symmetry_cell_setting 'orthorhombic'
loop_
_space_group_symop_operation_xyz
x,y,z
-x,-y,z
x,-y,-z
-x,y,-z
1/2+x,1/2+y,1/2+z
1/2-x,1/2-y,1/2+z
1/2+x,1/2-y,1/2-z
1/2-x,1/2+y,1/2-z
loop_
_atom_site_type_symbol
_atom_site_label
_atom_site_fract_x
_atom_site_fract_y
_atom_site_fract_z
Si Si1 0.000000 0.500000 0.500000
Si Si2 0.436930 0.249309 0.142723
Si Si3 0.500000 0.500000 0.000000
Si Si4 0.385355 0.031888 0.701504
Si Si5 0.427260 0.424805 0.622101
Si Si6 0.674626 0.826561 0.838564
Si Si7 0.833675 0.205294 0.011249
Si Si8 0.000000 0.644027 0.000000
O O1 0.937601 0.476937 0.332169
O O2 0.382066 0.296890 0.280538
O O3 0.473042 0.196469 0.314596
O O4 0.500000 0.283456 0.000000
O O5 0.387683 0.201542 0.989420
O O6 0.451565 0.450435 0.848569
O O7 0.332229 0.084260 0.826353
O O8 0.440800 0.091289 0.602662
O O9 0.347389 0.000000 0.500000
O O10 0.403745 0.500000 0.500000
O O11 0.500000 0.399233 0.500000
O O12 0.368231 0.360834 0.624011
O O13 0.751826 0.806182 0.927689
O O14 0.663338 0.781906 0.621310
#
# Coordination Sequence:
#
# PCOD9332519 Si02
#       8
#     2   8   2   8   8   8   8   4
#     4  12  22  40  66 102 140 188 220 298 344 394
#     4  12  24  42  73 104 137 186 242 297 346 416
#     4   8  18  48  74 106 132 172 230 304 352 426
#     4  12  24  40  67 101 140 184 233 284 341 409
#     4   9  22  44  72 106 136 169 235 294 351 429
#     4  12  27  46  69 101 145 193 237 288 350 427
#     4  12  26  48  69 102 146 186 232 294 359 420
#     4  12  21  42  66 104 137 168 242 290 335 404
#
# _framework density 22.234566000000001
#
# number of rings (size 3 to 8) (size 9 to 14) (size 15 to 20)
#    0.000    0.833    6.667    1.000    3.500    2.667 
#    3.000    0.000    1.833    0.000    0.000    0.000 
#    0.000    0.000    0.000    0.000    0.000    0.000 
#
# Total GULP energy -133920.076546 kJ/mol
# GULP energy per Si atom -5580.003189 kJ/mol
# Density = 2.218396 g / cm^3
# Si number density = 22.234566 Si / 1000 Ang^3
#
#
#
# Elastic Constant Matrix: (Units=GPa)
#
#
# Indices 1 2 3 4 5 6 
#
# 1 97.9096 27.3224 47.4676 0.0000 0.0000 0.0000
# 2 27.3224 54.5773 10.8992 0.0000 0.0000 0.0000
# 3 47.4676 10.8992 123.4013 0.0000 0.0000 0.0000
# 4 0.0000 0.0000 0.0000 13.2058 0.0000 0.0000
# 5 0.0000 0.0000 0.0000 0.0000 40.1809 0.0000
# 6 0.0000 0.0000 0.0000 0.0000 0.0000 20.1469
#
#
#
# Elastic Compliance Matrix: (Units=1/GPa)
#
#
# Indices 1 2 3 4 5 6 
#
# 1 0.014353 -0.006192 -0.004974 0.000000 0.000000 0.000000
# 2 -0.006192 0.021323 0.000498 0.000000 0.000000 0.000000
# 3 -0.004974 0.000498 0.009973 0.000000 0.000000 0.000000
# 4 0.000000 0.000000 0.000000 0.075724 0.000000 0.000000
# 5 0.000000 0.000000 0.000000 0.000000 0.024887 0.000000
# 6 0.000000 0.000000 0.000000 0.000000 0.000000 0.049635
#
#
# Mechanical properties :
#
#
# Convention : Reuss Voigt Hill
#
# Bulk Modulus (GPa) = 41.12924 49.69628 45.41276
# Shear Modulus (GPa) = 22.18915 27.38667 24.78791
#
# Velocity S-wave (km/s) = 3.16247 3.51339 3.34254
# Velocity P-wave (km/s) = 5.64562 6.23362 5.94689
#
# Compressibility (1/GPa) = 0.02431360
#
# Stress axis : x y z
#
# Youngs Moduli (GPa) = 69.67223 46.89790 100.27121
#
# Poissons Ratio (x) = 0.29039 0.49876
# Poissons Ratio (y) = 0.43141 -0.04998
# Poissons Ratio (z) = 0.34656 -0.02338
#
# Static dielectric constant tensor:
#      x y z
#    x 1.788450 0.000000 0.000000 
#    y 0.000000 1.857830 0.000000 
#    z 0.000000 0.000000 1.863900 
# 
# From -- ./inp_files/3915.got.cif
#   From: 2010.05.17/outbox.cif.g08.bks.cpg/sg23_2_cif.got.tgz:3915.got - 2010.06.04 12:02:01.
