data_PCOD9332443
_publ_section_title
;
Structure prediction by ZEFSAII (Michael W. Deem and Ramdas Pophale) SiO2 
 PCOD9332443
Probable space group: I 2 2 2
;
_chemical_formula_sum "Si O2"
_cell_formula_units_Z 34
_cell_length_a 9.045866
_cell_length_b 20.683958
_cell_length_c 8.977038
_cell_angle_alpha 90.000000
_cell_angle_beta 90.000000
_cell_angle_gamma 90.000000
_cell_volume 1679.642523
_symmetry_space_group_name_H-M "I 2 2 2"
_symmetry_group_IT_number 23
_symmetry_cell_setting 'orthorhombic'
loop_
_space_group_symop_operation_xyz
x,y,z
-x,-y,z
x,-y,-z
-x,y,-z
1/2+x,1/2+y,1/2+z
1/2-x,1/2-y,1/2+z
1/2+x,1/2-y,1/2-z
1/2-x,1/2+y,1/2-z
loop_
_atom_site_type_symbol
_atom_site_label
_atom_site_fract_x
_atom_site_fract_y
_atom_site_fract_z
Si Si1 0.667809 0.327963 0.193905
Si Si2 0.667605 0.795980 0.008808
Si Si3 0.640322 0.612052 0.301241
Si Si4 0.500000 0.500000 0.500000
Si Si5 0.170447 0.577052 0.990147
O O1 0.663861 0.274959 0.063613
O O2 0.764355 0.297694 0.326864
O O3 0.507019 0.350047 0.249334
O O4 0.745408 0.391202 0.128293
O O5 0.770995 0.841758 0.911449
O O6 0.500000 0.820872 0.000000
O O7 0.593465 0.547658 0.392343
O O8 0.743502 0.596715 0.159812
O O9 0.172615 0.500000 0.000000
O O10 0.000000 0.599367 0.000000
#
# Coordination Sequence:
#
# PCOD9332443 Si02
#       5
#     8   8   8   2   8
#     4  12  24  45  69 105 138 193 237 299 369 439
#     4  12  25  42  69 102 141 180 237 301 369 429
#     4  12  25  46  72 103 143 194 247 297 361 445
#     4  12  24  48  76 108 148 200 258 296 360 448
#     4  11  25  44  69 101 140 186 241 301 364 427
#
# _framework density 20.242402999999999
#
# number of rings (size 3 to 8) (size 9 to 14) (size 15 to 20)
#    0.000    0.235    2.353    7.765    0.000    2.824 
#    0.000    0.000    0.000    0.000    0.000    0.000 
#    0.000    0.000    0.000    0.000    0.000    0.000 
#
# Total GULP energy -95175.796175 kJ/mol
# GULP energy per Si atom -5598.576246 kJ/mol
# Density = 2.019633 g / cm^3
# Si number density = 20.242403 Si / 1000 Ang^3
#
#
#
# Elastic Constant Matrix: (Units=GPa)
#
#
# Indices 1 2 3 4 5 6 
#
# 1 164.5773 52.7103 67.7686 -0.0001 -0.0002 0.0000
# 2 52.7103 101.0040 38.3147 0.0001 -0.0001 0.0000
# 3 67.7686 38.3147 132.5976 -0.0001 0.0007 -0.0012
# 4 -0.0001 0.0001 -0.0001 53.9857 0.0001 -0.0001
# 5 -0.0002 -0.0001 0.0007 0.0001 51.0604 -0.0001
# 6 0.0000 0.0000 -0.0012 -0.0001 -0.0001 21.3416
#
#
#
# Elastic Compliance Matrix: (Units=1/GPa)
#
#
# Indices 1 2 3 4 5 6 
#
# 1 0.008493 -0.003129 -0.003437 0.000000 0.000000 0.000000
# 2 -0.003129 0.012272 -0.001947 0.000000 0.000000 0.000000
# 3 -0.003437 -0.001947 0.009861 0.000000 0.000000 0.000001
# 4 0.000000 0.000000 0.000000 0.018523 0.000000 0.000000
# 5 0.000000 0.000000 0.000000 0.000000 0.019585 0.000000
# 6 0.000000 0.000000 0.000001 0.000000 0.000000 0.046857
#
#
# Mechanical properties :
#
#
# Convention : Reuss Voigt Hill
#
# Bulk Modulus (GPa) = 73.52374 79.52954 76.52664
# Shear Modulus (GPa) = 36.45656 41.23657 38.84656
#
# Velocity S-wave (km/s) = 4.24842 4.51836 4.38547
# Velocity P-wave (km/s) = 7.77599 8.16056 7.97059
#
# Compressibility (1/GPa) = 0.01360105
#
# Stress axis : x y z
#
# Youngs Moduli (GPa) = 117.73848 81.48689 101.41264
#
# Poissons Ratio (x) = 0.25495 0.34853
# Poissons Ratio (y) = 0.36837 0.19745
# Poissons Ratio (z) = 0.40464 0.15866
#
# Static dielectric constant tensor:
#      x y z
#    x 1.788790 0.000000 0.000000 
#    y 0.000000 1.701260 0.000000 
#    z 0.000000 0.000000 1.742420 
# 
# From -- ./inp_files/6699.got.cif
#   From: 2010.05.17/outbox.cif.g08.bks.cpg/sg23_4_cif.got.tgz:6699.got - 2010.06.04 12:02:01.
