data_PCOD9332787
_publ_section_title
;
Structure prediction by ZEFSAII (Michael W. Deem and Ramdas Pophale) SiO2 
 PCOD9332787
Probable space group: I 21 21 21
;
_chemical_formula_sum "Si O2"
_cell_formula_units_Z 64
_cell_length_a 9.183713
_cell_length_b 14.755830
_cell_length_c 28.009044
_cell_angle_alpha 90.000000
_cell_angle_beta 90.000000
_cell_angle_gamma 90.000000
_cell_volume 3795.598201
_symmetry_space_group_name_H-M "I 21 21 21"
_symmetry_group_IT_number 24
_symmetry_cell_setting 'orthorhombic'
loop_
_space_group_symop_operation_xyz
x,y,z
-x,1/2-y,z
x,-y,1/2-z
1/2-x,y,-z
1/2+x,1/2+y,1/2+z
1/2-x,-y,1/2+z
1/2+x,1/2-y,-z
-x,1/2+y,1/2-z
loop_
_atom_site_type_symbol
_atom_site_label
_atom_site_fract_x
_atom_site_fract_y
_atom_site_fract_z
Si Si1 0.877908 0.079171 0.209759
Si Si2 0.931273 0.151246 0.816309
Si Si3 0.579453 0.517115 0.864020
Si Si4 0.574590 0.344051 0.556088
Si Si5 0.372367 0.094515 0.269798
Si Si6 0.923438 0.343900 0.555846
Si Si7 0.409219 0.168712 0.716573
Si Si8 0.084840 0.994467 0.868791
O O1 0.739574 0.136905 0.192849
O O2 0.996459 0.137235 0.238537
O O3 0.840029 0.000000 0.250000
O O4 0.958767 0.043338 0.162072
O O5 0.000000 0.250000 0.825504
O O6 0.002248 0.116209 0.766965
O O7 0.988067 0.081453 0.856804
O O8 0.530961 0.570671 0.911356
O O9 0.602726 0.593223 0.823679
O O10 0.742933 0.478354 0.872542
O O11 0.500000 0.250000 0.570996
O O12 0.749013 0.333293 0.560997
O O13 0.541894 0.358119 0.500070
O O14 0.258114 0.176913 0.268411
O O15 0.426073 0.071133 0.322401
O O16 0.300375 0.000000 0.250000
O O17 0.961026 0.432224 0.586881
O O18 0.000000 0.250000 0.571177
O O19 0.500000 0.250000 0.695141
#
# Coordination Sequence:
#
# PCOD9332787 Si02
#       8
#     8   8   8   8   8   8   8   8
#     4  10  19  30  45  67  93 121 160 201 235 275
#     4  11  21  32  46  67  92 122 159 201 242 277
#     4   9  18  31  47  66  92 126 157 191 234 278
#     4   9  17  31  49  73 100 122 154 194 230 278
#     4   9  17  31  45  59  89 125 154 188 230 278
#     4   9  18  31  50  74  99 128 155 185 232 286
#     4  10  17  27  44  66  91 123 157 189 228 276
#     4   9  18  33  48  66  95 129 159 187 231 288
#
# _framework density 16.861637999999999
#
# number of rings (size 3 to 8) (size 9 to 14) (size 15 to 20)
#    0.000    2.500    0.000    4.875    0.000    1.500 
#    0.000    3.750    0.000    0.000    0.000    7.875 
#    0.000    0.000    0.000    0.000    0.000    0.000 
#
# Total GULP energy -178164.340862 kJ/mol
# GULP energy per Si atom -5567.635652 kJ/mol
# Density = 1.682326 g / cm^3
# Si number density = 16.861638 Si / 1000 Ang^3
#
#
#
# Elastic Constant Matrix: (Units=GPa)
#
#
# Indices 1 2 3 4 5 6 
#
# 1 37.8204 17.0753 19.3650 0.0000 0.0000 0.0000
# 2 17.0753 53.2321 29.6778 0.0000 0.0000 0.0000
# 3 19.3650 29.6778 69.8233 0.0000 0.0000 0.0000
# 4 0.0000 0.0000 0.0000 12.7359 0.0000 0.0000
# 5 0.0000 0.0000 0.0000 0.0000 16.8103 0.0000
# 6 0.0000 0.0000 0.0000 0.0000 0.0000 16.0357
#
#
#
# Elastic Compliance Matrix: (Units=1/GPa)
#
#
# Indices 1 2 3 4 5 6 
#
# 1 0.032761 -0.007134 -0.006054 0.000000 0.000000 0.000000
# 2 -0.007134 0.026173 -0.009146 0.000000 0.000000 0.000000
# 3 -0.006054 -0.009146 0.019888 0.000000 0.000000 0.000000
# 4 0.000000 0.000000 0.000000 0.078518 0.000000 0.000000
# 5 0.000000 0.000000 0.000000 0.000000 0.059487 0.000000
# 6 0.000000 0.000000 0.000000 0.000000 0.000000 0.062361
#
#
# Mechanical properties :
#
#
# Convention : Reuss Voigt Hill
#
# Bulk Modulus (GPa) = 29.27820 32.56800 30.92310
# Shear Modulus (GPa) = 14.91461 15.43356 15.17408
#
# Velocity S-wave (km/s) = 2.97733 3.02868 3.00312
# Velocity P-wave (km/s) = 5.40563 5.62026 5.51399
#
# Compressibility (1/GPa) = 0.03415510
#
# Stress axis : x y z
#
# Youngs Moduli (GPa) = 30.52385 38.20715 50.28053
#
# Poissons Ratio (x) = 0.27256 0.30440
# Poissons Ratio (y) = 0.21775 0.45988
# Poissons Ratio (z) = 0.18479 0.34945
#
# Static dielectric constant tensor:
#      x y z
#    x 1.953870 0.000000 0.000000 
#    y 0.000000 1.613950 0.000000 
#    z 0.000000 0.000000 1.571410 
# 
# From -- ./inp_files/13458.got.cif
#   From: 2010.05.17/outbox.cif.g08.bks.cpg/sg24_7_cif.got.tgz:13458.got - 2010.06.04 00:33:39.
