data_PCOD9332927
_publ_section_title
;
Structure prediction by ZEFSAII (Michael W. Deem and Ramdas Pophale) SiO2 
 PCOD9332927
Probable space group: I 21 21 21
;
_chemical_formula_sum "Si O2"
_cell_formula_units_Z 64
_cell_length_a 9.244595
_cell_length_b 14.727329
_cell_length_c 27.845648
_cell_angle_alpha 90.000000
_cell_angle_beta 90.000000
_cell_angle_gamma 90.000000
_cell_volume 3791.134631
_symmetry_space_group_name_H-M "I 21 21 21"
_symmetry_group_IT_number 24
_symmetry_cell_setting 'orthorhombic'
loop_
_space_group_symop_operation_xyz
x,y,z
-x,1/2-y,z
x,-y,1/2-z
1/2-x,y,-z
1/2+x,1/2+y,1/2+z
1/2-x,-y,1/2+z
1/2+x,1/2-y,-z
-x,1/2+y,1/2-z
loop_
_atom_site_type_symbol
_atom_site_label
_atom_site_fract_x
_atom_site_fract_y
_atom_site_fract_z
Si Si1 0.872688 0.080625 0.209648
Si Si2 0.942293 0.148161 0.814523
Si Si3 0.572153 0.514915 0.862816
Si Si4 0.575836 0.343668 0.556967
Si Si5 0.413733 0.160243 0.285047
Si Si6 0.921281 0.343753 0.555876
Si Si7 0.413703 0.168445 0.717173
Si Si8 0.095308 0.991747 0.867544
O O1 0.727372 0.133705 0.195813
O O2 0.993226 0.140517 0.236769
O O3 0.841644 0.000000 0.250000
O O4 0.948789 0.047558 0.160300
O O5 0.000000 0.250000 0.825010
O O6 0.017622 0.123915 0.763832
O O7 0.997781 0.077067 0.853909
O O8 0.529519 0.572505 0.909733
O O9 0.591509 0.586014 0.819433
O O10 0.735409 0.478333 0.871760
O O11 0.500000 0.250000 0.571244
O O12 0.748678 0.331688 0.562564
O O13 0.546969 0.358536 0.500464
O O14 0.500000 0.250000 0.300882
O O15 0.251316 0.191433 0.272854
O O16 0.414196 0.082393 0.324709
O O17 0.955621 0.433240 0.586630
O O18 0.000000 0.250000 0.570708
O O19 0.500000 0.250000 0.693202
#
# Coordination Sequence:
#
# PCOD9332927 Si02
#       8
#     8   8   8   8   8   8   8   8
#     4  10  20  33  48  68  94 127 167 205 242 287
#     4  11  22  34  48  68  92 124 166 208 250 287
#     4   9  19  31  47  70  95 130 164 193 240 287
#     4   9  17  31  49  73 105 130 157 194 232 290
#     4  10  19  30  47  71  99 131 162 194 239 290
#     4   9  18  31  50  76 102 132 160 189 239 290
#     4  10  18  29  45  67  98 130 161 197 234 281
#     4  10  19  33  49  69  99 130 162 202 240 288
#
# _framework density 16.881488999999998
#
# number of rings (size 3 to 8) (size 9 to 14) (size 15 to 20)
#    0.000    2.250    0.000    4.125    0.000    4.000 
#    0.000    0.000    0.000    0.000    0.000    7.875 
#    0.000    0.000    0.000    0.000    0.000    0.000 
#
# Total GULP energy -178325.928805 kJ/mol
# GULP energy per Si atom -5572.685275 kJ/mol
# Density = 1.684307 g / cm^3
# Si number density = 16.881489 Si / 1000 Ang^3
#
#
#
# Elastic Constant Matrix: (Units=GPa)
#
#
# Indices 1 2 3 4 5 6 
#
# 1 104.4622 47.8899 31.5377 0.0000 0.0000 0.0000
# 2 47.8899 75.6508 34.3447 0.0000 0.0000 0.0000
# 3 31.5377 34.3447 72.8549 0.0000 0.0000 0.0000
# 4 0.0000 0.0000 0.0000 37.8468 0.0000 0.0000
# 5 0.0000 0.0000 0.0000 0.0000 29.8994 0.0000
# 6 0.0000 0.0000 0.0000 0.0000 0.0000 26.2915
#
#
#
# Elastic Compliance Matrix: (Units=1/GPa)
#
#
# Indices 1 2 3 4 5 6 
#
# 1 0.013799 -0.007663 -0.002361 0.000000 0.000000 0.000000
# 2 -0.007663 0.021074 -0.006617 0.000000 0.000000 0.000000
# 3 -0.002361 -0.006617 0.017867 0.000000 0.000000 0.000000
# 4 0.000000 0.000000 0.000000 0.026422 0.000000 0.000000
# 5 0.000000 0.000000 0.000000 0.000000 0.033445 0.000000
# 6 0.000000 0.000000 0.000000 0.000000 0.000000 0.038035
#
#
# Mechanical properties :
#
#
# Convention : Reuss Voigt Hill
#
# Bulk Modulus (GPa) = 51.39406 53.39030 52.39218
# Shear Modulus (GPa) = 26.25896 28.08725 27.17311
#
# Velocity S-wave (km/s) = 3.94825 4.08338 4.01638
# Velocity P-wave (km/s) = 7.16205 7.34352 7.25335
#
# Compressibility (1/GPa) = 0.01945750
#
# Stress axis : x y z
#
# Youngs Moduli (GPa) = 72.47018 47.45175 55.96848
#
# Poissons Ratio (x) = 0.36365 0.13212
# Poissons Ratio (y) = 0.55537 0.37035
# Poissons Ratio (z) = 0.17107 0.31400
#
# Static dielectric constant tensor:
#      x y z
#    x 1.603000 0.000000 0.000000 
#    y 0.000000 1.557730 0.000000 
#    z 0.000000 0.000000 1.572230 
# 
# From -- ./inp_files/28298.got.cif
#   From: 2010.05.17/outbox.cif.g08.bks.cpg/sg24_15_cif.got.tgz:28298.got - 2010.06.04 00:33:39.
