data_PCOD9332830
_publ_section_title
;
Structure prediction by ZEFSAII (Michael W. Deem and Ramdas Pophale) SiO2 
 PCOD9332830
Probable space group: I 21 21 21
;
_chemical_formula_sum "Si O2"
_cell_formula_units_Z 48
_cell_length_a 14.579201
_cell_length_b 17.666539
_cell_length_c 9.863769
_cell_angle_alpha 90.000000
_cell_angle_beta 90.000000
_cell_angle_gamma 90.000000
_cell_volume 2540.552026
_symmetry_space_group_name_H-M "I 21 21 21"
_symmetry_group_IT_number 24
_symmetry_cell_setting 'orthorhombic'
loop_
_space_group_symop_operation_xyz
x,y,z
-x,1/2-y,z
x,-y,1/2-z
1/2-x,y,-z
1/2+x,1/2+y,1/2+z
1/2-x,-y,1/2+z
1/2+x,1/2-y,-z
-x,1/2+y,1/2-z
loop_
_atom_site_type_symbol
_atom_site_label
_atom_site_fract_x
_atom_site_fract_y
_atom_site_fract_z
Si Si1 0.353753 0.853186 0.957567
Si Si2 0.211257 0.279716 0.862332
Si Si3 0.932605 0.677759 0.774137
Si Si4 0.968898 0.161976 0.979735
Si Si5 0.172999 0.676332 0.111372
Si Si6 0.005319 0.411542 0.271743
O O1 0.353863 0.762484 0.928628
O O2 0.405120 0.893011 0.833505
O O3 0.250000 0.874352 0.000000
O O4 0.416183 0.866635 0.089695
O O5 0.162047 0.216564 0.771697
O O6 0.281379 0.319200 0.760855
O O7 0.250000 0.244135 0.000000
O O8 0.134291 0.336101 0.922225
O O9 0.000000 0.750000 0.798335
O O10 0.970789 0.632381 0.645795
O O11 0.983390 0.125130 0.123507
O O12 0.000000 0.250000 0.994042
O O13 0.082936 0.625188 0.129978
O O14 0.250000 0.652180 0.000000
O O15 0.018995 0.500000 0.250000
#
# Coordination Sequence:
#
# PCOD9332830 Si02
#       6
#     8   8   8   8   8   8
#     4  11  22  39  68  92 117 158 221 277 311 361
#     4  10  17  31  58  96 126 142 199 256 321 372
#     4   9  18  32  57  92 120 146 194 268 320 360
#     4   9  20  36  61  88 121 160 204 262 310 369
#     4  11  21  38  68  99 122 162 211 268 318 370
#     4  12  26  43  57  89 133 176 209 251 326 391
#
# _framework density 18.893530999999999
#
# number of rings (size 3 to 8) (size 9 to 14) (size 15 to 20)
#    0.000    2.000    5.000    2.500    4.667    0.000 
#    3.000    2.500    0.000    0.000    0.000    0.000 
#    0.000    0.000    0.000    0.000    0.000    0.000 
#
# Total GULP energy -133761.085628 kJ/mol
# GULP energy per Si atom -5573.378568 kJ/mol
# Density = 1.885053 g / cm^3
# Si number density = 18.893531 Si / 1000 Ang^3
#
#
#
# Elastic Constant Matrix: (Units=GPa)
#
#
# Indices 1 2 3 4 5 6 
#
# 1 75.1573 15.3821 23.6941 0.0000 0.0000 0.0000
# 2 15.3821 31.9796 12.8003 0.0000 0.0000 0.0000
# 3 23.6941 12.8003 123.8168 0.0000 0.0000 0.0000
# 4 0.0000 0.0000 0.0000 1.2890 0.0000 0.0000
# 5 0.0000 0.0000 0.0000 0.0000 31.7294 0.0000
# 6 0.0000 0.0000 0.0000 0.0000 0.0000 8.0968
#
#
#
# Elastic Compliance Matrix: (Units=1/GPa)
#
#
# Indices 1 2 3 4 5 6 
#
# 1 0.015345 -0.006473 -0.002267 0.000000 0.000000 0.000000
# 2 -0.006473 0.035351 -0.002416 0.000000 0.000000 0.000000
# 3 -0.002267 -0.002416 0.008760 0.000000 0.000000 0.000000
# 4 0.000000 0.000000 0.000000 0.775767 0.000000 0.000000
# 5 0.000000 0.000000 0.000000 0.000000 0.031517 0.000000
# 6 0.000000 0.000000 0.000000 0.000000 0.000000 0.123506
#
#
# Mechanical properties :
#
#
# Convention : Reuss Voigt Hill
#
# Bulk Modulus (GPa) = 26.92315 37.18963 32.05639
# Shear Modulus (GPa) = 4.87834 20.16153 12.51993
#
# Velocity S-wave (km/s) = 1.60861 3.27021 2.57701
# Velocity P-wave (km/s) = 4.21082 5.82972 5.08511
#
# Compressibility (1/GPa) = 0.03714276
#
# Stress axis : x y z
#
# Youngs Moduli (GPa) = 65.16738 28.28803 114.15442
#
# Poissons Ratio (x) = 0.18312 0.25882
# Poissons Ratio (y) = 0.42186 0.27577
# Poissons Ratio (z) = 0.14775 0.06834
#
# Static dielectric constant tensor:
#      x y z
#    x 1.746680 0.000000 0.000000 
#    y 0.000000 1.622840 0.000000 
#    z 0.000000 0.000000 1.698250 
# 
# From -- ./inp_files/12824.got.cif
#   From: 2010.05.17/outbox.cif.g08.bks.cpg/sg24_7_cif.got.tgz:12824.got - 2010.06.04 00:33:39.
