data_PCOD9332712
_publ_section_title
;
Structure prediction by ZEFSAII (Michael W. Deem and Ramdas Pophale) SiO2 
 PCOD9332712
Probable space group: I 21 21 21
;
_chemical_formula_sum "Si O2"
_cell_formula_units_Z 44
_cell_length_a 18.646439
_cell_length_b 13.187296
_cell_length_c 7.213747
_cell_angle_alpha 90.000000
_cell_angle_beta 90.000000
_cell_angle_gamma 90.000000
_cell_volume 1773.832329
_symmetry_space_group_name_H-M "I 21 21 21"
_symmetry_group_IT_number 24
_symmetry_cell_setting 'orthorhombic'
loop_
_space_group_symop_operation_xyz
x,y,z
-x,1/2-y,z
x,-y,1/2-z
1/2-x,y,-z
1/2+x,1/2+y,1/2+z
1/2-x,-y,1/2+z
1/2+x,1/2-y,-z
-x,1/2+y,1/2-z
loop_
_atom_site_type_symbol
_atom_site_label
_atom_site_fract_x
_atom_site_fract_y
_atom_site_fract_z
Si Si1 0.110821 0.553431 0.451236
Si Si2 0.922612 0.699710 0.927647
Si Si3 0.768817 0.262040 0.697062
Si Si4 0.625932 0.715413 0.643152
Si Si5 0.047336 0.021360 0.026545
Si Si6 0.250000 0.564756 0.000000
O O1 0.107133 0.500000 0.250000
O O2 0.117156 0.673236 0.437274
O O3 0.180555 0.501474 0.534050
O O4 0.034205 0.531077 0.538639
O O5 0.906666 0.722920 0.146935
O O6 0.922585 0.577396 0.924543
O O7 0.000000 0.750000 0.882924
O O8 0.854665 0.738070 0.808148
O O9 0.750000 0.314193 0.500000
O O10 0.710595 0.307387 0.834822
O O11 0.757070 0.145102 0.331483
O O12 0.587819 0.628364 0.524246
O O13 0.048078 0.000000 0.250000
#
# Coordination Sequence:
#
# PCOD9332712 Si02
#       6
#     8   8   8   8   8   4
#     4  11  17  29  47  73 107 128 161 213 254 305
#     4  10  16  28  47  74 105 125 168 210 251 305
#     4   8  16  28  43  67 101 131 163 206 241 302
#     4  10  17  29  46  70 105 132 163 205 262 306
#     4   9  18  26  47  75  97 131 157 205 266 294
#     4  10  18  28  46  70 100 136 162 202 260 300
#
# _framework density 24.805050999999999
#
# number of rings (size 3 to 8) (size 9 to 14) (size 15 to 20)
#    0.545    1.818    1.818    4.909    0.000    0.000 
#    0.000    0.000   14.000    0.000    0.000    2.545 
#   43.636    0.000    0.000    0.000    0.000    0.000 
#
# Total GULP energy -122944.993763 kJ/mol
# GULP energy per Si atom -5588.408807 kJ/mol
# Density = 2.474859 g / cm^3
# Si number density = 24.805051 Si / 1000 Ang^3
#
#
#
# Elastic Constant Matrix: (Units=GPa)
#
#
# Indices 1 2 3 4 5 6 
#
# 1 193.2486 75.6703 22.1625 0.0000 0.0000 0.0000
# 2 75.6703 162.4564 17.8416 0.0000 0.0000 0.0000
# 3 22.1625 17.8416 50.8432 0.0000 0.0000 0.0000
# 4 0.0000 0.0000 0.0000 10.9642 0.0000 0.0000
# 5 0.0000 0.0000 0.0000 0.0000 18.6444 0.0000
# 6 0.0000 0.0000 0.0000 0.0000 0.0000 -15.6947
#
#
#
# Elastic Compliance Matrix: (Units=1/GPa)
#
#
# Indices 1 2 3 4 5 6 
#
# 1 0.006490 -0.002821 -0.001839 0.000000 0.000000 0.000000
# 2 -0.002821 0.007628 -0.001447 0.000000 0.000000 0.000000
# 3 -0.001839 -0.001447 0.020978 0.000000 0.000000 0.000000
# 4 0.000000 0.000000 0.000000 0.091206 0.000000 0.000000
# 5 0.000000 0.000000 0.000000 0.000000 0.053635 0.000000
# 6 0.000000 0.000000 0.000000 0.000000 0.000000 -0.063716
#
#
# Mechanical properties :
#
#
# Convention : Reuss Voigt Hill
#
# Bulk Modulus (GPa) = 43.70313 70.87742 57.29027
# Shear Modulus (GPa) = 36.74739 22.17437 29.46088
#
# Velocity S-wave (km/s) = 3.85313 2.99314 3.45004
# Velocity P-wave (km/s) = 6.11984 6.37032 6.24633
#
# Compressibility (1/GPa) = 0.02288166
#
# Stress axis : x y z
#
# Youngs Moduli (GPa) = 154.07702 131.08777 47.66938
#
# Poissons Ratio (x) = 0.36981 0.08767
# Poissons Ratio (y) = 0.43467 0.06899
# Poissons Ratio (z) = 0.28337 0.18971
#
# Static dielectric constant tensor:
#      x y z
#    x 2.013270 0.000000 0.000000 
#    y 0.000000 1.908770 0.000000 
#    z 0.000000 0.000000 2.153250 
# 
# From -- ./inp_files/21483.got.cif
#   From: 2010.05.17/outbox.cif.g08.bks.cpg/sg24_11_cif.got.tgz:21483.got - 2010.06.04 00:33:39.
