data_PCOD9332032
_publ_section_title
;
Structure prediction by ZEFSAII (Michael W. Deem and Ramdas Pophale) SiO2 
 PCOD9332032
Probable space group: I 2 2 2
;
_chemical_formula_sum "Si O2"
_cell_formula_units_Z 26
_cell_length_a 27.273860
_cell_length_b 5.401065
_cell_length_c 7.649367
_cell_angle_alpha 90.000000
_cell_angle_beta 90.000000
_cell_angle_gamma 90.000000
_cell_volume 1126.812118
_symmetry_space_group_name_H-M "I 2 2 2"
_symmetry_group_IT_number 23
_symmetry_cell_setting 'orthorhombic'
loop_
_space_group_symop_operation_xyz
x,y,z
-x,-y,z
x,-y,-z
-x,y,-z
1/2+x,1/2+y,1/2+z
1/2-x,1/2-y,1/2+z
1/2+x,1/2-y,1/2-z
1/2-x,1/2+y,1/2-z
loop_
_atom_site_type_symbol
_atom_site_label
_atom_site_fract_x
_atom_site_fract_y
_atom_site_fract_z
Si Si1 0.160245 0.000000 0.500000
Si Si2 0.584568 0.189169 0.163084
Si Si3 0.862216 0.500000 0.000000
Si Si4 0.718298 0.217534 0.747256
Si Si5 0.000000 0.000000 0.500000
O O1 0.125000 0.904130 0.649349
O O2 0.191185 0.775380 0.428369
O O3 0.533295 0.325479 0.123766
O O4 0.600208 0.069143 0.344358
O O5 0.590291 0.000000 0.000000
O O6 0.822564 0.683798 0.904885
O O7 0.750694 0.466903 0.733812
#
# Coordination Sequence:
#
# PCOD9332032 Si02
#       5
#     4   8   4   8   2
#     4  11  25  45  72 104 158 208 252 329 395 455
#     4  11  24  51  80 110 154 200 259 334 402 493
#     4  12  27  48  86 112 158 216 269 321 403 472
#     4  12  28  47  75 119 165 215 276 328 384 466
#     4  10  26  52  84 110 156 194 256 340 428 466
#
# _framework density 23.073944000000001
#
# number of rings (size 3 to 8) (size 9 to 14) (size 15 to 20)
#    0.000    0.615    3.077    3.231    0.000   12.308 
#    0.000    4.615    0.000    0.000    0.000    0.000 
#    0.000    0.000    0.000    0.000    0.000    0.000 
#
# Total GULP energy -72594.876594 kJ/mol
# GULP energy per Si atom -5584.221276 kJ/mol
# Density = 2.302143 g / cm^3
# Si number density = 23.073944 Si / 1000 Ang^3
#
#
#
# Elastic Constant Matrix: (Units=GPa)
#
#
# Indices 1 2 3 4 5 6 
#
# 1 168.4006 93.1379 80.8716 0.0000 0.0000 0.0000
# 2 93.1379 152.9239 73.3277 0.0000 0.0000 0.0000
# 3 80.8716 73.3277 167.1310 0.0000 0.0000 0.0000
# 4 0.0000 0.0000 0.0000 44.1500 0.0000 0.0000
# 5 0.0000 0.0000 0.0000 0.0000 106.9194 0.0000
# 6 0.0000 0.0000 0.0000 0.0000 0.0000 57.9757
#
#
#
# Elastic Compliance Matrix: (Units=1/GPa)
#
#
# Indices 1 2 3 4 5 6 
#
# 1 0.009829 -0.004693 -0.002697 0.000000 0.000000 0.000000
# 2 -0.004693 0.010522 -0.002346 0.000000 0.000000 0.000000
# 3 -0.002697 -0.002346 0.008318 0.000000 0.000000 0.000000
# 4 0.000000 0.000000 0.000000 0.022650 0.000000 0.000000
# 5 0.000000 0.000000 0.000000 0.000000 0.009353 0.000000
# 6 0.000000 0.000000 0.000000 0.000000 0.000000 0.017249
#
#
# Mechanical properties :
#
#
# Convention : Reuss Voigt Hill
#
# Bulk Modulus (GPa) = 108.72840 109.23667 108.98254
# Shear Modulus (GPa) = 49.77216 57.88359 53.82788
#
# Velocity S-wave (km/s) = 4.64947 5.01404 4.83519
# Velocity P-wave (km/s) = 8.72052 8.99809 8.86039
#
# Compressibility (1/GPa) = 0.00919723
#
# Stress axis : x y z
#
# Youngs Moduli (GPa) = 101.73906 95.03627 120.22811
#
# Poissons Ratio (x) = 0.44602 0.32426
# Poissons Ratio (y) = 0.47747 0.28202
# Poissons Ratio (z) = 0.27439 0.22292
#
# Static dielectric constant tensor:
#      x y z
#    x 1.894560 0.000000 0.000000 
#    y 0.000000 1.365830 0.000000 
#    z 0.000000 0.000000 1.801900 
# 
# From -- ./inp_files/12809.got.cif
#   From: 2010.05.17/outbox.cif.g08.bks.cpg/sg23_7_cif.got.tgz:12809.got - 2010.06.04 12:02:01.
