data_PCOD9332238
_publ_section_title
;
Structure prediction by ZEFSAII (Michael W. Deem and Ramdas Pophale) SiO2 
 PCOD9332238
Probable space group: I 2 2 2
;
_chemical_formula_sum "Si O2"
_cell_formula_units_Z 28
_cell_length_a 7.017295
_cell_length_b 9.717627
_cell_length_c 17.959347
_cell_angle_alpha 90.000000
_cell_angle_beta 90.000000
_cell_angle_gamma 90.000000
_cell_volume 1224.674009
_symmetry_space_group_name_H-M "I 2 2 2"
_symmetry_group_IT_number 23
_symmetry_cell_setting 'orthorhombic'
loop_
_space_group_symop_operation_xyz
x,y,z
-x,-y,z
x,-y,-z
-x,y,-z
1/2+x,1/2+y,1/2+z
1/2-x,1/2-y,1/2+z
1/2+x,1/2-y,1/2-z
1/2-x,1/2+y,1/2-z
loop_
_atom_site_type_symbol
_atom_site_label
_atom_site_fract_x
_atom_site_fract_y
_atom_site_fract_z
Si Si1 0.257953 0.721377 0.652659
Si Si2 0.729531 0.011642 0.415042
Si Si3 0.699877 0.273510 0.321134
Si Si4 0.500000 0.000000 0.140439
O O1 0.484594 0.693937 0.652470
O O2 0.193800 0.709324 0.738684
O O3 0.136975 0.614017 0.603683
O O4 0.211241 0.876461 0.629410
O O5 0.776606 0.155093 0.375993
O O6 0.500000 0.000000 0.414611
O O7 0.791533 0.000000 0.500000
O O8 0.839491 0.404577 0.319570
#
# Coordination Sequence:
#
# PCOD9332238 Si02
#       4
#     8   8   8   4
#     4  11  22  40  67  94 132 170 218 275 326 384
#     4   9  21  43  69  95 126 175 224 267 323 388
#     4  11  22  40  67  94 132 170 218 275 326 384
#     4  12  24  38  59  96 127 172 212 260 336 382
#
# _framework density 22.863225
#
# number of rings (size 3 to 8) (size 9 to 14) (size 15 to 20)
#    0.000    1.429    2.857    2.571    4.000    1.143 
#    0.000    5.714    0.000    6.857    0.000    0.000 
#    0.000    0.000    0.000    0.000    0.000    0.000 
#
# Total GULP energy -78158.755648 kJ/mol
# GULP energy per Si atom -5582.768261 kJ/mol
# Density = 2.281119 g / cm^3
# Si number density = 22.863225 Si / 1000 Ang^3
#
#
#
# Elastic Constant Matrix: (Units=GPa)
#
#
# Indices 1 2 3 4 5 6 
#
# 1 173.8819 49.9762 -9.0277 0.0000 0.0000 0.0000
# 2 49.9762 156.5638 35.8121 0.0000 0.0000 0.0000
# 3 -9.0277 35.8121 89.0476 0.0000 0.0000 0.0000
# 4 0.0000 0.0000 0.0000 27.1934 0.0000 0.0000
# 5 0.0000 0.0000 0.0000 0.0000 -25.1112 0.0000
# 6 0.0000 0.0000 0.0000 0.0000 0.0000 36.6508
#
#
#
# Elastic Compliance Matrix: (Units=1/GPa)
#
#
# Indices 1 2 3 4 5 6 
#
# 1 0.006547 -0.002469 0.001656 0.000000 0.000000 0.000000
# 2 -0.002469 0.007965 -0.003454 0.000000 0.000000 0.000000
# 3 0.001656 -0.003454 0.012787 0.000000 0.000000 0.000000
# 4 0.000000 0.000000 0.000000 0.036774 0.000000 0.000000
# 5 0.000000 0.000000 0.000000 0.000000 -0.039823 0.000000
# 6 0.000000 0.000000 0.000000 0.000000 0.000000 0.027285
#
#
# Mechanical properties :
#
#
# Convention : Reuss Voigt Hill
#
# Bulk Modulus (GPa) = 53.28480 63.66827 58.47654
# Shear Modulus (GPa) = 75.39108 30.59545 52.99327
#
# Velocity S-wave (km/s) = 5.74860 3.66210 4.81962
# Velocity P-wave (km/s) = 8.21087 6.76678 7.52355
#
# Compressibility (1/GPa) = 0.01876708
#
# Stress axis : x y z
#
# Youngs Moduli (GPa) = 152.75231 125.54714 78.20556
#
# Poissons Ratio (x) = 0.30993 -0.12955
# Poissons Ratio (y) = 0.37708 0.27009
# Poissons Ratio (z) = -0.25303 0.43359
#
# Static dielectric constant tensor:
#      x y z
#    x 1.919940 0.000000 0.000000 
#    y 0.000000 1.842320 0.000000 
#    z 0.000000 0.000000 1.789760 
# 
# From -- ./inp_files/25892.got.cif
#   From: 2010.05.17/outbox.cif.g08.bks.cpg/sg23_13_cif.got.tgz:25892.got - 2010.06.04 12:02:01.
