data_PCOD9332258
_publ_section_title
;
Structure prediction by ZEFSAII (Michael W. Deem and Ramdas Pophale) SiO2 
 PCOD9332258
Probable space group: I 2 2 2
;
_chemical_formula_sum "Si O2"
_cell_formula_units_Z 26
_cell_length_a 6.999203
_cell_length_b 28.278837
_cell_length_c 6.482054
_cell_angle_alpha 90.000000
_cell_angle_beta 90.000000
_cell_angle_gamma 90.000000
_cell_volume 1282.988545
_symmetry_space_group_name_H-M "I 2 2 2"
_symmetry_group_IT_number 23
_symmetry_cell_setting 'orthorhombic'
loop_
_space_group_symop_operation_xyz
x,y,z
-x,-y,z
x,-y,-z
-x,y,-z
1/2+x,1/2+y,1/2+z
1/2-x,1/2-y,1/2+z
1/2+x,1/2-y,1/2-z
1/2-x,1/2+y,1/2-z
loop_
_atom_site_type_symbol
_atom_site_label
_atom_site_fract_x
_atom_site_fract_y
_atom_site_fract_z
Si Si1 0.196426 0.046672 0.616420
Si Si2 0.000000 0.000000 0.000000
Si Si3 0.500000 0.874923 0.500000
Si Si4 0.000000 0.783294 0.000000
Si Si5 0.381294 0.203028 0.801383
O O1 0.332072 0.090113 0.569245
O O2 0.000000 0.057369 0.500000
O O3 0.274517 0.000000 0.500000
O O4 0.134580 0.031431 0.848242
O O5 0.498182 0.838640 0.691691
O O6 0.164101 0.809913 0.131020
O O7 0.883825 0.748043 0.150792
O O8 0.500000 0.216652 0.000000
#
# Coordination Sequence:
#
# PCOD9332258 Si02
#       5
#     8   2   4   4   8
#     4   9  20  41  64  91 132 170 209 260 313 377
#     4   8  18  38  70  88 120 194 200 252 316 370
#     4  11  25  38  59 103 128 166 212 264 315 377
#     4  11  22  43  65  88 123 167 219 258 327 381
#     4  11  24  40  65  91 124 169 214 267 320 377
#
# _framework density 20.265184000000001
#
# number of rings (size 3 to 8) (size 9 to 14) (size 15 to 20)
#    0.000    2.154    3.077    0.462    0.000    8.615 
#    0.000    6.154    0.000    0.000    0.000    0.000 
#    0.000    0.000    0.000    0.000    0.000    0.000 
#
# Total GULP energy -72377.336821 kJ/mol
# GULP energy per Si atom -5567.487448 kJ/mol
# Density = 2.021906 g / cm^3
# Si number density = 20.265184 Si / 1000 Ang^3
#
#
#
# Elastic Constant Matrix: (Units=GPa)
#
#
# Indices 1 2 3 4 5 6 
#
# 1 94.6186 21.0107 47.5089 0.0006 -0.0006 0.0005
# 2 21.0107 73.3302 38.9191 0.0003 -0.0003 -0.0001
# 3 47.5089 38.9191 131.2680 -0.0040 0.0023 -0.0005
# 4 0.0006 0.0003 -0.0040 0.2238 -0.0012 0.0011
# 5 -0.0006 -0.0003 0.0023 -0.0012 20.3660 -0.0008
# 6 0.0005 -0.0001 -0.0005 0.0011 -0.0008 80.5351
#
#
#
# Elastic Compliance Matrix: (Units=1/GPa)
#
#
# Indices 1 2 3 4 5 6 
#
# 1 0.013047 -0.001462 -0.004288 -0.000108 0.000001 0.000000
# 2 -0.001462 0.016347 -0.004318 -0.000097 0.000001 0.000000
# 3 -0.004288 -0.004318 0.010450 0.000203 -0.000001 0.000000
# 4 -0.000108 -0.000097 0.000203 4.467505 0.000255 -0.000059
# 5 0.000001 0.000001 -0.000001 0.000255 0.049101 0.000001
# 6 0.000000 0.000000 0.000000 -0.000059 0.000001 0.012417
#
#
# Mechanical properties :
#
#
# Convention : Reuss Voigt Hill
#
# Bulk Modulus (GPa) = 50.74085 57.12159 53.93122
# Shear Modulus (GPa) = 1.08800 33.01020 17.04910
#
# Velocity S-wave (km/s) = 0.73352 4.04036 2.90366
# Velocity P-wave (km/s) = 5.08037 7.07207 6.15729
#
# Compressibility (1/GPa) = 0.01970799
#
# Stress axis : x y z
#
# Youngs Moduli (GPa) = 76.64794 61.17189 95.69215
#
# Poissons Ratio (x) = 0.08944 0.41037
# Poissons Ratio (y) = 0.11207 0.41316
# Poissons Ratio (z) = 0.32870 0.26411
#
# Static dielectric constant tensor:
#      x y z
#    x 1.789330 0.000010 0.000000 
#    y 0.000010 1.768200 0.000000 
#    z 0.000000 0.000000 1.738250 
# 
# From -- ./inp_files/572.got.cif
#   From: 2010.05.17/outbox.cif.g08.bks.cpg/sg23_1_cif.got.tgz:572.got - 2010.06.04 12:02:01.
