data_PCOD9332142
_publ_section_title
;
Structure prediction by ZEFSAII (Michael W. Deem and Ramdas Pophale) SiO2 
 PCOD9332142
Probable space group: I 2 2 2
;
_chemical_formula_sum "Si O2"
_cell_formula_units_Z 64
_cell_length_a 15.061866
_cell_length_b 12.569122
_cell_length_c 17.514005
_cell_angle_alpha 90.000000
_cell_angle_beta 90.000000
_cell_angle_gamma 90.000000
_cell_volume 3315.653896
_symmetry_space_group_name_H-M "I 2 2 2"
_symmetry_group_IT_number 23
_symmetry_cell_setting 'orthorhombic'
loop_
_space_group_symop_operation_xyz
x,y,z
-x,-y,z
x,-y,-z
-x,y,-z
1/2+x,1/2+y,1/2+z
1/2-x,1/2-y,1/2+z
1/2+x,1/2-y,1/2-z
1/2-x,1/2+y,1/2-z
loop_
_atom_site_type_symbol
_atom_site_label
_atom_site_fract_x
_atom_site_fract_y
_atom_site_fract_z
Si Si1 0.655361 0.258503 0.188771
Si Si2 0.736734 0.062126 0.928946
Si Si3 0.306123 0.382843 0.333267
Si Si4 0.893421 0.994761 0.687617
Si Si5 0.103690 0.289382 0.478991
Si Si6 0.280152 0.601348 0.949103
Si Si7 0.018096 0.881788 0.088367
Si Si8 0.643421 0.245226 0.363656
O O1 0.757636 0.227020 0.181213
O O2 0.638044 0.383533 0.189888
O O3 0.608988 0.208210 0.113626
O O4 0.636211 0.217612 0.274214
O O5 0.793636 0.154125 0.887882
O O6 0.735320 0.969457 0.865144
O O7 0.651209 0.115928 0.971043
O O8 0.782567 0.000000 0.000000
O O9 0.356028 0.431596 0.260624
O O10 0.380616 0.359332 0.395120
O O11 0.849273 0.937163 0.615479
O O12 0.000000 0.000000 0.684348
O O13 0.165325 0.188810 0.502149
O O14 0.000000 0.279324 0.500000
O O15 0.192472 0.651939 0.910268
O O16 0.256991 0.500000 0.000000
O O17 0.953596 0.789932 0.117390
O O18 0.000000 0.000000 0.122422
O O19 0.000000 0.888889 0.000000
#
# Coordination Sequence:
#
# PCOD9332142 Si02
#       8
#     8   8   8   8   8   8   8   8
#     4  12  23  40  65  93 134 169 219 267 332 388
#     4  11  21  39  63  89 131 163 214 271 331 386
#     4  12  23  40  62  99 129 170 207 278 334 386
#     4  12  24  42  67  94 130 172 219 272 323 388
#     4  11  25  40  63  96 130 179 225 270 322 396
#     4  11  24  41  66  93 131 178 219 271 321 393
#     4  11  22  36  67  95 128 162 214 274 325 386
#     4  11  23  41  62  99 129 171 217 270 331 388
#
# _framework density 19.302375999999999
#
# number of rings (size 3 to 8) (size 9 to 14) (size 15 to 20)
#    0.000    0.625    6.250    2.625    1.750    0.250 
#    0.000    0.000    0.000    2.625    0.000    0.000 
#    0.000    0.000    0.000    0.000    0.000    0.000 
#
# Total GULP energy -178380.862267 kJ/mol
# GULP energy per Si atom -5574.401946 kJ/mol
# Density = 1.925844 g / cm^3
# Si number density = 19.302376 Si / 1000 Ang^3
#
#
#
# Elastic Constant Matrix: (Units=GPa)
#
#
# Indices 1 2 3 4 5 6 
#
# 1 109.7609 66.6936 46.2354 0.0000 0.0000 0.0000
# 2 66.6936 100.2008 33.7576 0.0000 0.0000 0.0000
# 3 46.2354 33.7576 127.1825 0.0000 0.0000 0.0000
# 4 0.0000 0.0000 0.0000 17.2522 0.0000 0.0000
# 5 0.0000 0.0000 0.0000 0.0000 16.1935 0.0000
# 6 0.0000 0.0000 0.0000 0.0000 0.0000 12.5114
#
#
#
# Elastic Compliance Matrix: (Units=1/GPa)
#
#
# Indices 1 2 3 4 5 6 
#
# 1 0.016531 -0.009860 -0.003392 0.000000 0.000000 0.000000
# 2 -0.009860 0.016841 -0.000886 0.000000 0.000000 0.000000
# 3 -0.003392 -0.000886 0.009331 0.000000 0.000000 0.000000
# 4 0.000000 0.000000 0.000000 0.057964 0.000000 0.000000
# 5 0.000000 0.000000 0.000000 0.000000 0.061753 0.000000
# 6 0.000000 0.000000 0.000000 0.000000 0.000000 0.079927
#
#
# Mechanical properties :
#
#
# Convention : Reuss Voigt Hill
#
# Bulk Modulus (GPa) = 69.31493 70.05749 69.68621
# Shear Modulus (GPa) = 18.15325 21.88858 20.02092
#
# Velocity S-wave (km/s) = 3.07003 3.37112 3.22409
# Velocity P-wave (km/s) = 6.96813 7.17817 7.07393
#
# Compressibility (1/GPa) = 0.01442691
#
# Stress axis : x y z
#
# Youngs Moduli (GPa) = 60.49225 59.37812 107.16886
#
# Poissons Ratio (x) = 0.58548 0.36357
# Poissons Ratio (y) = 0.59646 0.09491
# Poissons Ratio (z) = 0.20522 0.05258
#
# Static dielectric constant tensor:
#      x y z
#    x 1.644880 0.000000 0.000000 
#    y 0.000000 1.709570 0.000000 
#    z 0.000000 0.000000 1.758680 
# 
# From -- ./inp_files/21062.got.cif
#   From: 2010.05.17/outbox.cif.g08.bks.cpg/sg23_11_cif.got.tgz:21062.got - 2010.06.04 12:02:01.
