data_PCOD9332158
_publ_section_title
;
Structure prediction by ZEFSAII (Michael W. Deem and Ramdas Pophale) SiO2 
 PCOD9332158
Probable space group: I 2 2 2
;
_chemical_formula_sum "Si O2"
_cell_formula_units_Z 60
_cell_length_a 11.656398
_cell_length_b 11.668704
_cell_length_c 22.035143
_cell_angle_alpha 90.000000
_cell_angle_beta 90.000000
_cell_angle_gamma 90.000000
_cell_volume 2997.111252
_symmetry_space_group_name_H-M "I 2 2 2"
_symmetry_group_IT_number 23
_symmetry_cell_setting 'orthorhombic'
loop_
_space_group_symop_operation_xyz
x,y,z
-x,-y,z
x,-y,-z
-x,y,-z
1/2+x,1/2+y,1/2+z
1/2-x,1/2-y,1/2+z
1/2+x,1/2-y,1/2-z
1/2-x,1/2+y,1/2-z
loop_
_atom_site_type_symbol
_atom_site_label
_atom_site_fract_x
_atom_site_fract_y
_atom_site_fract_z
Si Si1 0.895593 0.082065 0.228530
Si Si2 0.177511 0.301246 0.114427
Si Si3 0.554203 0.625892 0.937083
Si Si4 0.812592 0.491442 0.198166
Si Si5 0.077402 0.262125 0.664078
Si Si6 0.683683 0.127550 0.520707
Si Si7 0.916839 0.733613 0.860232
Si Si8 0.000000 0.500000 0.289121
O O1 0.927618 0.184293 0.275419
O O2 0.863059 0.149729 0.166857
O O3 0.805264 0.004124 0.265639
O O4 0.000000 0.000000 0.214427
O O5 0.189140 0.432487 0.137880
O O6 0.291482 0.243501 0.140852
O O7 0.055676 0.258367 0.140484
O O8 0.183753 0.301677 0.041871
O O9 0.500000 0.500000 0.925894
O O10 0.511181 0.705283 0.883056
O O11 0.689133 0.616965 0.949917
O O12 0.500000 0.668646 0.000000
O O13 0.861366 0.367876 0.180647
O O14 0.902117 0.546856 0.244646
O O15 0.046910 0.393330 0.674382
O O16 0.610478 0.192436 0.571512
O O17 0.644812 0.000000 0.500000
#
# Coordination Sequence:
#
# PCOD9332158 Si02
#       8
#     8   8   8   8   8   8   8   4
#     4  11  27  43  69  99 139 184 228 281 350 418
#     4  11  22  42  64  97 139 174 223 284 346 404
#     4  11  21  40  63  95 134 173 224 291 345 408
#     4  11  23  41  64  99 137 177 223 282 338 406
#     4  11  24  41  69  98 136 183 224 283 348 408
#     4  12  23  37  67 100 136 176 222 287 353 403
#     4  12  25  42  64 101 138 176 229 281 344 422
#     4  12  24  44  67 101 138 182 224 288 332 416
#
# _framework density 20.019278
#
# number of rings (size 3 to 8) (size 9 to 14) (size 15 to 20)
#    0.000    0.667    6.667    0.800    7.467    0.533 
#    0.000    0.333    0.000    3.200    0.000    0.000 
#    0.000    0.000    0.000    0.000    0.000    0.000 
#
# Total GULP energy -167569.276662 kJ/mol
# GULP energy per Si atom -5585.642555 kJ/mol
# Density = 1.997371 g / cm^3
# Si number density = 20.019278 Si / 1000 Ang^3
#
#
#
# Elastic Constant Matrix: (Units=GPa)
#
#
# Indices 1 2 3 4 5 6 
#
# 1 77.5694 43.3797 23.5638 0.0000 0.0000 0.0000
# 2 43.3797 83.7591 54.9432 0.0000 0.0000 0.0000
# 3 23.5638 54.9432 110.2270 0.0000 0.0000 0.0000
# 4 0.0000 0.0000 0.0000 8.1893 0.0000 0.0000
# 5 0.0000 0.0000 0.0000 0.0000 -4.8260 0.0000
# 6 0.0000 0.0000 0.0000 0.0000 0.0000 20.1153
#
#
#
# Elastic Compliance Matrix: (Units=1/GPa)
#
#
# Indices 1 2 3 4 5 6 
#
# 1 0.018255 -0.010244 0.001204 0.000000 0.000000 0.000000
# 2 -0.010244 0.023488 -0.009518 0.000000 0.000000 0.000000
# 3 0.001204 -0.009518 0.013559 0.000000 0.000000 0.000000
# 4 0.000000 0.000000 0.000000 0.122111 0.000000 0.000000
# 5 0.000000 0.000000 0.000000 0.000000 -0.207209 0.000000
# 6 0.000000 0.000000 0.000000 0.000000 0.000000 0.049713
#
#
# Mechanical properties :
#
#
# Convention : Reuss Voigt Hill
#
# Bulk Modulus (GPa) = 54.98818 57.25877 56.12347
# Shear Modulus (GPa) = 79.24596 14.67362 46.95979
#
# Velocity S-wave (km/s) = 6.29847 2.71029 4.84853
# Velocity P-wave (km/s) = 8.96781 6.20146 7.70972
#
# Compressibility (1/GPa) = 0.01818573
#
# Stress axis : x y z
#
# Youngs Moduli (GPa) = 54.78004 42.57540 73.75175
#
# Poissons Ratio (x) = 0.43614 -0.08878
# Poissons Ratio (y) = 0.56116 0.70195
# Poissons Ratio (z) = -0.06594 0.40522
#
# Static dielectric constant tensor:
#      x y z
#    x 1.778910 0.000000 0.000000 
#    y 0.000000 1.680090 0.000000 
#    z 0.000000 0.000000 1.728700 
# 
# From -- ./inp_files/26762.got.cif
#   From: 2010.05.17/outbox.cif.g08.bks.cpg/sg23_14_cif.got.tgz:26762.got - 2010.06.04 12:02:01.
