data_PCOD9332527
_publ_section_title
;
Structure prediction by ZEFSAII (Michael W. Deem and Ramdas Pophale) SiO2 
 PCOD9332527
Probable space group: I 2 2 2
;
_chemical_formula_sum "Si O2"
_cell_formula_units_Z 34
_cell_length_a 13.670845
_cell_length_b 4.854878
_cell_length_c 26.767384
_cell_angle_alpha 90.000000
_cell_angle_beta 90.000000
_cell_angle_gamma 90.000000
_cell_volume 1776.558895
_symmetry_space_group_name_H-M "I 2 2 2"
_symmetry_group_IT_number 23
_symmetry_cell_setting 'orthorhombic'
loop_
_space_group_symop_operation_xyz
x,y,z
-x,-y,z
x,-y,-z
-x,y,-z
1/2+x,1/2+y,1/2+z
1/2-x,1/2-y,1/2+z
1/2+x,1/2-y,1/2-z
1/2-x,1/2+y,1/2-z
loop_
_atom_site_type_symbol
_atom_site_label
_atom_site_fract_x
_atom_site_fract_y
_atom_site_fract_z
Si Si1 0.500000 0.000000 0.826445
Si Si2 0.208066 0.183159 0.219909
Si Si3 0.500000 0.000000 0.000000
Si Si4 0.832250 0.136927 0.550442
Si Si5 0.500000 0.500000 0.754107
Si Si6 0.811360 0.396892 0.383760
O O1 0.526618 0.252578 0.791131
O O2 0.594293 0.950883 0.860151
O O3 0.228148 0.473413 0.246344
O O4 0.243161 0.176128 0.162883
O O5 0.095249 0.094009 0.224129
O O6 0.429882 0.200290 0.967875
O O7 0.770652 0.377607 0.577382
O O8 0.790449 0.000000 0.500000
O O9 0.844802 0.879727 0.587869
#
# Coordination Sequence:
#
# PCOD9332527 Si02
#       6
#     4   8   2   8   4   8
#     4  12  23  34  59  92 122 166 211 236 305 364
#     4  12  23  43  61  92 126 163 213 256 300 370
#     4  12  24  40  58  84 134 150 218 256 296 384
#     4  12  25  39  55  86 123 169 202 258 304 365
#     4  12  22  42  62  88 126 170 202 260 300 352
#     4  12  24  38  60  87 127 170 206 244 311 372
#
# _framework density 19.138123
#
# number of rings (size 3 to 8) (size 9 to 14) (size 15 to 20)
#    0.000    0.000    7.059    3.882    3.294    0.000 
#    0.000    0.000    0.000    0.000    0.000    4.941 
#    0.000    0.000    0.000    0.000    0.000    0.000 
#
# Total GULP energy -95028.533119 kJ/mol
# GULP energy per Si atom -5589.913713 kJ/mol
# Density = 1.909456 g / cm^3
# Si number density = 19.138123 Si / 1000 Ang^3
#
#
#
# Elastic Constant Matrix: (Units=GPa)
#
#
# Indices 1 2 3 4 5 6 
#
# 1 57.2557 -17.1695 25.2644 0.0000 0.0000 0.0000
# 2 -17.1695 93.7431 38.5808 0.0000 0.0000 0.0000
# 3 25.2644 38.5808 137.1969 0.0000 0.0000 0.0000
# 4 0.0000 0.0000 0.0000 35.1391 0.0000 0.0000
# 5 0.0000 0.0000 0.0000 0.0000 29.1669 0.0000
# 6 0.0000 0.0000 0.0000 0.0000 0.0000 17.7002
#
#
#
# Elastic Compliance Matrix: (Units=1/GPa)
#
#
# Indices 1 2 3 4 5 6 
#
# 1 0.021980 0.006437 -0.005858 0.000000 0.000000 0.000000
# 2 0.006437 0.013948 -0.005108 0.000000 0.000000 0.000000
# 3 -0.005858 -0.005108 0.009804 0.000000 0.000000 0.000000
# 4 0.000000 0.000000 0.000000 0.028458 0.000000 0.000000
# 5 0.000000 0.000000 0.000000 0.000000 0.034285 0.000000
# 6 0.000000 0.000000 0.000000 0.000000 0.000000 0.056496
#
#
# Mechanical properties :
#
#
# Convention : Reuss Voigt Hill
#
# Bulk Modulus (GPa) = 27.26642 42.39411 34.83027
# Shear Modulus (GPa) = 26.84485 32.50256 29.67371
#
# Velocity S-wave (km/s) = 3.74931 4.12553 3.94191
# Velocity P-wave (km/s) = 5.74641 6.70023 6.24157
#
# Compressibility (1/GPa) = 0.03667515
#
# Stress axis : x y z
#
# Youngs Moduli (GPa) = 45.49506 71.69251 102.00145
#
# Poissons Ratio (x) = -0.46145 0.59749
# Poissons Ratio (y) = -0.29283 0.52099
# Poissons Ratio (z) = 0.26649 0.36618
#
# Static dielectric constant tensor:
#      x y z
#    x 1.645240 0.000000 0.000000 
#    y 0.000000 1.695060 0.000000 
#    z 0.000000 0.000000 1.707180 
# 
# From -- ./inp_files/28466.got.cif
#   From: 2010.05.17/outbox.cif.g08.bks.cpg/sg23_15_cif.got.tgz:28466.got - 2010.06.04 12:02:01.
