data_PCOD9332719
_publ_section_title
;
Structure prediction by ZEFSAII (Michael W. Deem and Ramdas Pophale) SiO2 
 PCOD9332719
Probable space group: I 21 21 21
;
_chemical_formula_sum "Si O2"
_cell_formula_units_Z 40
_cell_length_a 13.721901
_cell_length_b 16.171552
_cell_length_c 7.054606
_cell_angle_alpha 90.000000
_cell_angle_beta 90.000000
_cell_angle_gamma 90.000000
_cell_volume 1565.448363
_symmetry_space_group_name_H-M "I 21 21 21"
_symmetry_group_IT_number 24
_symmetry_cell_setting 'orthorhombic'
loop_
_space_group_symop_operation_xyz
x,y,z
-x,1/2-y,z
x,-y,1/2-z
1/2-x,y,-z
1/2+x,1/2+y,1/2+z
1/2-x,-y,1/2+z
1/2+x,1/2-y,-z
-x,1/2+y,1/2-z
loop_
_atom_site_type_symbol
_atom_site_label
_atom_site_fract_x
_atom_site_fract_y
_atom_site_fract_z
Si Si1 0.773705 0.591860 0.221621
Si Si2 0.635152 0.833123 0.204186
Si Si3 0.465706 0.155895 0.721783
Si Si4 0.575018 0.359782 0.293733
Si Si5 0.834182 0.903881 0.224487
O O1 0.812894 0.500000 0.250000
O O2 0.856256 0.652392 0.302656
O O3 0.664004 0.593138 0.303102
O O4 0.750000 0.610908 0.000000
O O5 0.613133 0.735332 0.199116
O O6 0.533543 0.867261 0.288160
O O7 0.739041 0.854315 0.294020
O O8 0.648452 0.871491 0.992218
O O9 0.500000 0.250000 0.702764
O O10 0.444757 0.117692 0.513712
O O11 0.558596 0.110959 0.810282
O O12 0.810196 0.000000 0.250000
#
# Coordination Sequence:
#
# PCOD9332719 Si02
#       5
#     8   8   8   8   8
#     4  10  21  32  51  81 109 136 170 221 269 307
#     4   9  17  30  47  71  97 128 172 209 249 300
#     4  10  16  29  50  75  96 129 174 214 252 302
#     4   9  16  30  52  72  95 128 174 215 249 300
#     4  10  18  26  43  72 104 123 153 210 266 299
#
# _framework density 25.551786
#
# number of rings (size 3 to 8) (size 9 to 14) (size 15 to 20)
#    0.000    2.400    4.000    1.800    5.600    0.800 
#    0.000    0.000    0.000    0.000   26.000    0.000 
#    0.000    0.000    0.000    0.000    0.000    0.000 
#
# Total GULP energy -111510.987389 kJ/mol
# GULP energy per Si atom -5575.549369 kJ/mol
# Density = 2.549363 g / cm^3
# Si number density = 25.551786 Si / 1000 Ang^3
#
#
#
# Elastic Constant Matrix: (Units=GPa)
#
#
# Indices 1 2 3 4 5 6 
#
# 1 309.7181 62.2504 13.4053 0.0000 0.0000 0.0000
# 2 62.2504 75.6706 2.8912 0.0000 0.0000 0.0000
# 3 13.4053 2.8912 110.2103 0.0000 0.0000 0.0000
# 4 0.0000 0.0000 0.0000 0.7861 0.0000 0.0000
# 5 0.0000 0.0000 0.0000 0.0000 -31.6203 0.0000
# 6 0.0000 0.0000 0.0000 0.0000 0.0000 34.1621
#
#
#
# Elastic Compliance Matrix: (Units=1/GPa)
#
#
# Indices 1 2 3 4 5 6 
#
# 1 0.003885 -0.003181 -0.000389 0.000000 0.000000 0.000000
# 2 -0.003181 0.015833 -0.000028 0.000000 0.000000 0.000000
# 3 -0.000389 -0.000028 0.009122 0.000000 0.000000 0.000000
# 4 0.000000 0.000000 0.000000 1.272058 0.000000 0.000000
# 5 0.000000 0.000000 0.000000 0.000000 -0.031625 0.000000
# 6 0.000000 0.000000 0.000000 0.000000 0.000000 0.029272
#
#
# Mechanical properties :
#
#
# Convention : Reuss Voigt Hill
#
# Bulk Modulus (GPa) = 46.20529 72.52143 59.36336
# Shear Modulus (GPa) = 3.80820 28.46907 16.13864
#
# Velocity S-wave (km/s) = 1.22214 3.34154 2.51590
# Velocity P-wave (km/s) = 4.48484 6.58268 5.63229
#
# Compressibility (1/GPa) = 0.02164254
#
# Stress axis : x y z
#
# Youngs Moduli (GPa) = 257.40346 63.15849 109.62950
#
# Poissons Ratio (x) = 0.20091 0.04266
# Poissons Ratio (y) = 0.81882 0.00312
# Poissons Ratio (z) = 0.10015 0.00180
#
# Static dielectric constant tensor:
#      x y z
#    x 2.242850 0.000000 0.000000 
#    y 0.000000 1.944580 0.000000 
#    z 0.000000 0.000000 2.187800 
# 
# From -- ./inp_files/20588.got.cif
#   From: 2010.05.17/outbox.cif.g08.bks.cpg/sg24_11_cif.got.tgz:20588.got - 2010.06.04 00:33:39.
