data_PCOD9332587
_publ_section_title
;
Structure prediction by ZEFSAII (Michael W. Deem and Ramdas Pophale) SiO2 
 PCOD9332587
Probable space group: I 2 2 2
;
_chemical_formula_sum "Si O2"
_cell_formula_units_Z 26
_cell_length_a 5.659515
_cell_length_b 20.519801
_cell_length_c 8.958021
_cell_angle_alpha 90.000000
_cell_angle_beta 90.000000
_cell_angle_gamma 90.000000
_cell_volume 1040.313984
_symmetry_space_group_name_H-M "I 2 2 2"
_symmetry_group_IT_number 23
_symmetry_cell_setting 'orthorhombic'
loop_
_space_group_symop_operation_xyz
x,y,z
-x,-y,z
x,-y,-z
-x,y,-z
1/2+x,1/2+y,1/2+z
1/2-x,1/2-y,1/2+z
1/2+x,1/2-y,1/2-z
1/2-x,1/2+y,1/2-z
loop_
_atom_site_type_symbol
_atom_site_label
_atom_site_fract_x
_atom_site_fract_y
_atom_site_fract_z
Si Si1 0.743004 0.613574 0.036394
Si Si2 0.238575 0.246821 0.340631
Si Si3 0.000000 0.500000 0.500000
Si Si4 0.791290 0.115173 0.112526
O O1 0.706951 0.627032 0.210923
O O2 0.500000 0.576421 0.000000
O O3 0.739743 0.680321 0.937132
O O4 0.000000 0.584091 0.000000
O O5 0.496899 0.249504 0.258135
O O6 0.230095 0.311878 0.441799
O O7 0.132555 0.551426 0.602571
O O8 0.000000 0.096652 0.000000
#
# Coordination Sequence:
#
# PCOD9332587 Si02
#       4
#     8   8   2   8
#     4  12  25  48  84 127 166 210 273 356 451 513
#     4  12  25  47  84 134 173 204 267 372 466 528
#     4  12  34  56  82 106 176 252 300 346 430 500
#     4  12  30  52  84 116 178 228 295 348 434 527
#
# _framework density 24.992455
#
# number of rings (size 3 to 8) (size 9 to 14) (size 15 to 20)
#    0.000    0.000    6.154    1.385   10.769    0.000 
#    0.000    0.769    0.000    0.000    0.000    0.000 
#    0.000    0.000    0.000    0.000    0.000    0.000 
#
# Total GULP energy -72471.860879 kJ/mol
# GULP energy per Si atom -5574.758529 kJ/mol
# Density = 2.493557 g / cm^3
# Si number density = 24.992455 Si / 1000 Ang^3
#
#
#
# Elastic Constant Matrix: (Units=GPa)
#
#
# Indices 1 2 3 4 5 6 
#
# 1 222.3132 43.0734 76.2939 0.0000 0.0000 0.0000
# 2 43.0734 166.8787 16.3303 0.0000 0.0000 0.0000
# 3 76.2939 16.3303 138.3924 0.0000 0.0000 -0.0001
# 4 0.0000 0.0000 0.0000 6.4819 0.0000 -0.0001
# 5 0.0000 0.0000 0.0000 0.0000 31.2691 0.0000
# 6 0.0000 0.0000 -0.0001 -0.0001 0.0000 122.9191
#
#
#
# Elastic Compliance Matrix: (Units=1/GPa)
#
#
# Indices 1 2 3 4 5 6 
#
# 1 0.005773 -0.001192 -0.003042 0.000000 0.000000 0.000000
# 2 -0.001192 0.006309 -0.000087 0.000000 0.000000 0.000000
# 3 -0.003042 -0.000087 0.008913 0.000000 0.000000 0.000000
# 4 0.000000 0.000000 0.000000 0.154276 0.000000 0.000000
# 5 0.000000 0.000000 0.000000 0.000000 0.031980 0.000000
# 6 0.000000 0.000000 0.000000 0.000000 0.000000 0.008135
#
#
# Mechanical properties :
#
#
# Convention : Reuss Voigt Hill
#
# Bulk Modulus (GPa) = 80.95834 88.77551 84.86692
# Shear Modulus (GPa) = 21.91573 58.25980 40.08777
#
# Velocity S-wave (km/s) = 2.96445 4.83338 4.00934
# Velocity P-wave (km/s) = 6.64686 8.16987 7.44740
#
# Compressibility (1/GPa) = 0.01235203
#
# Stress axis : x y z
#
# Youngs Moduli (GPa) = 173.21608 158.51182 112.19459
#
# Poissons Ratio (x) = 0.18902 0.34129
# Poissons Ratio (y) = 0.20655 0.00977
# Poissons Ratio (z) = 0.52691 0.01380
#
# Static dielectric constant tensor:
#      x y z
#    x 2.170540 0.000000 0.000000 
#    y 0.000000 1.914260 0.000000 
#    z 0.000000 0.000000 0.976240 
# 
# From -- ./inp_files/5645.got.cif
#   From: 2010.05.17/outbox.cif.g08.bks.cpg/sg23_3_cif.got.tgz:5645.got - 2010.06.04 12:02:01.
