data_PCOD9332384
_publ_section_title
;
Structure prediction by ZEFSAII (Michael W. Deem and Ramdas Pophale) SiO2 
 PCOD9332384
Probable space group: I 2 2 2
;
_chemical_formula_sum "Si O2"
_cell_formula_units_Z 56
_cell_length_a 13.621784
_cell_length_b 13.172414
_cell_length_c 14.991114
_cell_angle_alpha 90.000000
_cell_angle_beta 90.000000
_cell_angle_gamma 90.000000
_cell_volume 2689.882243
_symmetry_space_group_name_H-M "I 2 2 2"
_symmetry_group_IT_number 23
_symmetry_cell_setting 'orthorhombic'
loop_
_space_group_symop_operation_xyz
x,y,z
-x,-y,z
x,-y,-z
-x,y,-z
1/2+x,1/2+y,1/2+z
1/2-x,1/2-y,1/2+z
1/2+x,1/2-y,1/2-z
1/2-x,1/2+y,1/2-z
loop_
_atom_site_type_symbol
_atom_site_label
_atom_site_fract_x
_atom_site_fract_y
_atom_site_fract_z
Si Si1 0.814864 0.936782 0.327907
Si Si2 0.852429 0.794759 0.162721
Si Si3 0.817683 0.839001 0.677485
Si Si4 0.900142 0.549908 0.902740
Si Si5 0.886082 0.216245 0.519884
Si Si6 0.083423 0.776947 0.149334
Si Si7 0.270849 0.617331 0.521932
O O1 0.819911 0.869217 0.240882
O O2 0.702806 0.962399 0.353560
O O3 0.865255 0.872746 0.407942
O O4 0.856563 0.047593 0.307204
O O5 0.798143 0.688095 0.183538
O O6 0.968872 0.795626 0.158975
O O7 0.812886 0.834640 0.068783
O O8 0.844383 0.816740 0.575724
O O9 0.870488 0.769606 0.751701
O O10 0.909449 0.671761 0.905291
O O11 0.000000 0.500000 0.863603
O O12 0.890124 0.500000 0.000000
O O13 0.824782 0.316258 0.548354
O O14 0.000000 0.235616 0.500000
O O15 0.146712 0.861558 0.097133
O O16 0.250875 0.500000 0.500000
#
# Coordination Sequence:
#
# PCOD9332384 Si02
#       7
#     8   8   8   8   8   8   8
#     4  12  23  44  69 101 144 188 240 309 368 448
#     4  11  25  41  66  98 139 184 237 299 364 445
#     4  11  24  41  65  99 141 179 233 303 366 438
#     4  11  24  40  73 108 139 187 246 314 380 434
#     4  11  24  43  70  98 136 186 245 304 365 440
#     4  12  24  44  69 101 143 187 239 303 373 445
#     4  11  25  44  67  94 136 186 237 300 369 446
#
# _framework density 20.818754999999999
#
# number of rings (size 3 to 8) (size 9 to 14) (size 15 to 20)
#    0.000    0.714    2.857    4.286    6.000    5.429 
#    0.000    1.429    0.000    0.000    0.000    0.000 
#    0.000    0.000    0.000    0.000    0.000    0.000 
#
# Total GULP energy -156411.227655 kJ/mol
# GULP energy per Si atom -5586.115273 kJ/mol
# Density = 2.077137 g / cm^3
# Si number density = 20.818755 Si / 1000 Ang^3
#
#
#
# Elastic Constant Matrix: (Units=GPa)
#
#
# Indices 1 2 3 4 5 6 
#
# 1 128.3044 24.1484 7.9125 0.0000 0.0000 0.0000
# 2 24.1484 104.1508 -10.6659 0.0000 0.0000 0.0000
# 3 7.9125 -10.6659 69.7170 0.0000 0.0000 0.0000
# 4 0.0000 0.0000 0.0000 46.4445 0.0000 0.0000
# 5 0.0000 0.0000 0.0000 0.0000 20.7381 0.0000
# 6 0.0000 0.0000 0.0000 0.0000 0.0000 9.8628
#
#
#
# Elastic Compliance Matrix: (Units=1/GPa)
#
#
# Indices 1 2 3 4 5 6 
#
# 1 0.008255 -0.002042 -0.001249 0.000000 0.000000 0.000000
# 2 -0.002042 0.010259 0.001801 0.000000 0.000000 0.000000
# 3 -0.001249 0.001801 0.014761 0.000000 0.000000 0.000000
# 4 0.000000 0.000000 0.000000 0.021531 0.000000 0.000000
# 5 0.000000 0.000000 0.000000 0.000000 0.048220 0.000000
# 6 0.000000 0.000000 0.000000 0.000000 0.000000 0.101391
#
#
# Mechanical properties :
#
#
# Convention : Reuss Voigt Hill
#
# Bulk Modulus (GPa) = 33.00794 38.32912 35.66853
# Shear Modulus (GPa) = 22.98884 34.12757 28.55821
#
# Velocity S-wave (km/s) = 3.32661 4.05318 3.70774
# Velocity P-wave (km/s) = 5.53574 6.35258 5.95817
#
# Compressibility (1/GPa) = 0.03029574
#
# Stress axis : x y z
#
# Youngs Moduli (GPa) = 121.13365 97.47160 67.74576
#
# Poissons Ratio (x) = 0.19904 0.08464
# Poissons Ratio (y) = 0.24736 -0.12203
# Poissons Ratio (z) = 0.15134 -0.17558
#
# Static dielectric constant tensor:
#      x y z
#    x 1.740220 0.000000 0.000000 
#    y 0.000000 1.819720 0.000000 
#    z 0.000000 0.000000 1.723030 
# 
# From -- ./inp_files/21596.got.cif
#   From: 2010.05.17/outbox.cif.g08.bks.cpg/sg23_11_cif.got.tgz:21596.got - 2010.06.04 12:02:01.
