data_PCOD9332363
_publ_section_title
;
Structure prediction by ZEFSAII (Michael W. Deem and Ramdas Pophale) SiO2 
 PCOD9332363
Probable space group: I 2 2 2
;
_chemical_formula_sum "Si O2"
_cell_formula_units_Z 24
_cell_length_a 16.941878
_cell_length_b 7.057100
_cell_length_c 7.092853
_cell_angle_alpha 90.000000
_cell_angle_beta 90.000000
_cell_angle_gamma 90.000000
_cell_volume 848.025244
_symmetry_space_group_name_H-M "I 2 2 2"
_symmetry_group_IT_number 23
_symmetry_cell_setting 'orthorhombic'
loop_
_space_group_symop_operation_xyz
x,y,z
-x,-y,z
x,-y,-z
-x,y,-z
1/2+x,1/2+y,1/2+z
1/2-x,1/2-y,1/2+z
1/2+x,1/2-y,1/2-z
1/2-x,1/2+y,1/2-z
loop_
_atom_site_type_symbol
_atom_site_label
_atom_site_fract_x
_atom_site_fract_y
_atom_site_fract_z
Si Si1 0.858796 0.771267 0.994808
Si Si2 0.546189 0.697878 0.824238
Si Si3 0.316645 0.784260 0.929030
O O1 0.856857 0.719823 0.775624
O O2 0.930034 0.705138 0.128835
O O3 0.773271 0.713044 0.076738
O O4 0.863471 0.000000 0.000000
O O5 0.500000 0.500000 0.790761
O O6 0.500000 0.791604 0.000000
O O7 0.632460 0.672880 0.916862
O O8 0.314399 0.000000 0.000000
#
# Coordination Sequence:
#
# PCOD9332363 Si02
#       3
#     8   8   8
#     4  11  23  45  76 117 166 223 282 349 427 516
#     4  11  24  44  74 118 160 220 283 347 420 508
#     4  11  25  46  76 122 169 228 290 350 426 519
#
# _framework density 28.301044000000001
#
# number of rings (size 3 to 8) (size 9 to 14) (size 15 to 20)
#    0.000    1.000    3.333    4.000    0.000    8.000 
#    0.000    0.000    0.000    8.000    0.000    0.000 
#    0.000    0.000    0.000    0.000    0.000    0.000 
#
# Total GULP energy -67262.194173 kJ/mol
# GULP energy per Si atom -5605.182848 kJ/mol
# Density = 2.823663 g / cm^3
# Si number density = 28.301044 Si / 1000 Ang^3
#
#
#
# Elastic Constant Matrix: (Units=GPa)
#
#
# Indices 1 2 3 4 5 6 
#
# 1 179.6133 15.4555 109.2152 0.0000 0.0000 0.0000
# 2 15.4555 114.9144 26.4238 0.0000 0.0000 0.0000
# 3 109.2152 26.4238 281.2870 0.0000 0.0000 0.0000
# 4 0.0000 0.0000 0.0000 38.0006 0.0000 0.0000
# 5 0.0000 0.0000 0.0000 0.0000 84.1420 0.0000
# 6 0.0000 0.0000 0.0000 0.0000 0.0000 34.9435
#
#
#
# Elastic Compliance Matrix: (Units=1/GPa)
#
#
# Indices 1 2 3 4 5 6 
#
# 1 0.007301 -0.000337 -0.002803 0.000000 0.000000 0.000000
# 2 -0.000337 0.008910 -0.000706 0.000000 0.000000 0.000000
# 3 -0.002803 -0.000706 0.004710 0.000000 0.000000 0.000000
# 4 0.000000 0.000000 0.000000 0.026315 0.000000 0.000000
# 5 0.000000 0.000000 0.000000 0.000000 0.011885 0.000000
# 6 0.000000 0.000000 0.000000 0.000000 0.000000 0.028618
#
#
# Mechanical properties :
#
#
# Convention : Reuss Voigt Hill
#
# Bulk Modulus (GPa) = 75.59898 97.55596 86.57747
# Shear Modulus (GPa) = 50.08000 59.73192 54.90596
#
# Velocity S-wave (km/s) = 4.21116 4.59910 4.40940
# Velocity P-wave (km/s) = 7.10039 7.92136 7.52208
#
# Compressibility (1/GPa) = 0.01322769
#
# Stress axis : x y z
#
# Youngs Moduli (GPa) = 136.96821 112.23542 212.32575
#
# Poissons Ratio (x) = 0.03787 0.59516
# Poissons Ratio (y) = 0.04621 0.14990
# Poissons Ratio (z) = 0.38393 0.07924
#
# Static dielectric constant tensor:
#      x y z
#    x 2.232660 0.000000 0.000000 
#    y 0.000000 2.179990 0.000000 
#    z 0.000000 0.000000 2.197940 
# 
# From -- ./inp_files/9100.got.cif
#   From: 2010.05.17/outbox.cif.g08.bks.cpg/sg23_5_cif.got.tgz:9100.got - 2010.06.04 12:02:01.
