data_PCOD9332876
_publ_section_title
;
Structure prediction by ZEFSAII (Michael W. Deem and Ramdas Pophale) SiO2 
 PCOD9332876
Probable space group: I 21 21 21
;
_chemical_formula_sum "Si O2"
_cell_formula_units_Z 40
_cell_length_a 5.241655
_cell_length_b 20.032304
_cell_length_c 17.470260
_cell_angle_alpha 90.000000
_cell_angle_beta 90.000000
_cell_angle_gamma 90.000000
_cell_volume 1834.419690
_symmetry_space_group_name_H-M "I 21 21 21"
_symmetry_group_IT_number 24
_symmetry_cell_setting 'orthorhombic'
loop_
_space_group_symop_operation_xyz
x,y,z
-x,1/2-y,z
x,-y,1/2-z
1/2-x,y,-z
1/2+x,1/2+y,1/2+z
1/2-x,-y,1/2+z
1/2+x,1/2-y,-z
-x,1/2+y,1/2-z
loop_
_atom_site_type_symbol
_atom_site_label
_atom_site_fract_x
_atom_site_fract_y
_atom_site_fract_z
Si Si1 0.542693 0.601658 0.875062
Si Si2 0.378572 0.677040 0.582837
Si Si3 0.949109 0.176118 0.598361
Si Si4 0.007200 0.965609 0.448603
Si Si5 0.175500 0.683585 0.250283
O O1 0.321923 0.642405 0.920787
O O2 0.495814 0.523792 0.886237
O O3 0.498966 0.625283 0.787496
O O4 0.811457 0.627314 0.907357
O O5 0.500000 0.750000 0.585993
O O6 0.250000 0.675467 0.500000
O O7 0.544434 0.609496 0.582771
O O8 0.230466 0.672608 0.663426
O O9 0.903868 0.185850 0.690049
O O10 0.000000 0.250000 0.565879
O O11 0.250000 0.981486 0.500000
O O12 0.750000 0.967641 0.500000
O O13 0.000000 0.750000 0.245592
#
# Coordination Sequence:
#
# PCOD9332876 Si02
#       5
#     8   8   8   8   8
#     4  10  20  36  64  93 125 169 209 262 316 376
#     4  10  22  42  65  96 127 171 216 261 314 385
#     4  10  17  35  61  92 125 163 206 254 312 367
#     4  11  24  44  65  90 131 172 211 263 324 379
#     4   9  19  36  63  94 127 165 210 262 313 367
#
# _framework density 21.805261000000002
#
# number of rings (size 3 to 8) (size 9 to 14) (size 15 to 20)
#    1.200    0.800    2.000    2.400    0.000    1.600 
#    7.200    0.000    4.400   20.400    0.000    0.000 
#    0.000    0.000    0.000    0.000    0.000    0.000 
#
# Total GULP energy -111394.167755 kJ/mol
# GULP energy per Si atom -5569.708388 kJ/mol
# Density = 2.175563 g / cm^3
# Si number density = 21.805261 Si / 1000 Ang^3
#
#
#
# Elastic Constant Matrix: (Units=GPa)
#
#
# Indices 1 2 3 4 5 6 
#
# 1 108.4146 18.6977 0.6657 0.0000 0.0000 0.0000
# 2 18.6977 172.1843 28.0624 0.0000 0.0000 0.0000
# 3 0.6657 28.0624 98.5096 0.0000 0.0000 0.0000
# 4 0.0000 0.0000 0.0000 290.0013 0.0000 0.0000
# 5 0.0000 0.0000 0.0000 0.0000 16.6047 0.0000
# 6 0.0000 0.0000 0.0000 0.0000 0.0000 26.3046
#
#
#
# Elastic Compliance Matrix: (Units=1/GPa)
#
#
# Indices 1 2 3 4 5 6 
#
# 1 0.009405 -0.001060 0.000238 0.000000 0.000000 0.000000
# 2 -0.001060 0.006210 -0.001762 0.000000 0.000000 0.000000
# 3 0.000238 -0.001762 0.010652 0.000000 0.000000 0.000000
# 4 0.000000 0.000000 0.000000 0.003448 0.000000 0.000000
# 5 0.000000 0.000000 0.000000 0.000000 0.060224 0.000000
# 6 0.000000 0.000000 0.000000 0.000000 0.000000 0.038016
#
#
# Mechanical properties :
#
#
# Convention : Reuss Voigt Hill
#
# Bulk Modulus (GPa) = 47.39423 52.66222 50.02823
# Shear Modulus (GPa) = 35.67460 88.69429 62.18445
#
# Velocity S-wave (km/s) = 4.04921 6.38466 5.34603
# Velocity P-wave (km/s) = 6.60635 8.86315 7.81663
#
# Compressibility (1/GPa) = 0.02109961
#
# Stress axis : x y z
#
# Youngs Moduli (GPa) = 106.32383 161.03047 93.88268
#
# Poissons Ratio (x) = 0.17072 -0.02239
# Poissons Ratio (y) = 0.11272 0.16541
# Poissons Ratio (z) = -0.02535 0.28372
#
# Static dielectric constant tensor:
#      x y z
#    x 1.770920 0.000000 0.000000 
#    y 0.000000 1.823980 0.000000 
#    z 0.000000 0.000000 1.873110 
# 
# From -- ./inp_files/32084.got.cif
#   From: 2010.05.17/outbox.cif.g08.bks.cpg/sg24_17_cif.got.tgz:32084.got - 2010.06.04 00:33:39.
