data_PCOD9332509
_publ_section_title
;
Structure prediction by ZEFSAII (Michael W. Deem and Ramdas Pophale) SiO2 
 PCOD9332509
Probable space group: I 2 2 2
;
_chemical_formula_sum "Si O2"
_cell_formula_units_Z 30
_cell_length_a 5.748370
_cell_length_b 12.178927
_cell_length_c 19.177872
_cell_angle_alpha 90.000000
_cell_angle_beta 90.000000
_cell_angle_gamma 90.000000
_cell_volume 1342.623230
_symmetry_space_group_name_H-M "I 2 2 2"
_symmetry_group_IT_number 23
_symmetry_cell_setting 'orthorhombic'
loop_
_space_group_symop_operation_xyz
x,y,z
-x,-y,z
x,-y,-z
-x,y,-z
1/2+x,1/2+y,1/2+z
1/2-x,1/2-y,1/2+z
1/2+x,1/2-y,1/2-z
1/2-x,1/2+y,1/2-z
loop_
_atom_site_type_symbol
_atom_site_label
_atom_site_fract_x
_atom_site_fract_y
_atom_site_fract_z
Si Si1 0.796941 0.185169 0.099823
Si Si2 0.000000 0.000000 0.000000
Si Si3 0.000000 0.823223 0.500000
Si Si4 0.354155 0.888212 0.394081
Si Si5 0.752790 0.936393 0.758911
O O1 0.588249 0.245678 0.061686
O O2 0.743359 0.149494 0.178097
O O3 0.998834 0.276506 0.100112
O O4 0.860272 0.080526 0.051909
O O5 0.805014 0.891773 0.538268
O O6 0.229603 0.887467 0.318820
O O7 0.500000 0.000000 0.393262
O O8 0.500000 0.000000 0.761982
O O9 0.000000 0.000000 0.770090
#
# Coordination Sequence:
#
# PCOD9332509 Si02
#       5
#     8   2   4   8   8
#     4  12  28  49  80 111 162 206 265 336 401 477
#     4  12  24  54  70 116 158 198 274 326 418 456
#     4  12  28  48  82 114 150 221 255 346 392 488
#     4  11  29  52  76 118 157 211 269 328 402 479
#     4  11  29  52  82 117 160 214 268 333 394 481
#
# _framework density 22.344318000000001
#
# number of rings (size 3 to 8) (size 9 to 14) (size 15 to 20)
#    0.000    0.533    4.000    0.000   18.667    3.200 
#    0.000    0.000    0.000    0.000    0.000    0.000 
#    0.000    0.000    0.000    0.000    0.000    0.000 
#
# Total GULP energy -83888.224174 kJ/mol
# GULP energy per Si atom -5592.548278 kJ/mol
# Density = 2.229346 g / cm^3
# Si number density = 22.344318 Si / 1000 Ang^3
#
#
#
# Elastic Constant Matrix: (Units=GPa)
#
#
# Indices 1 2 3 4 5 6 
#
# 1 132.3524 -0.9913 232.5980 0.0000 0.0000 0.0000
# 2 -0.9913 183.9590 -178.1513 0.0000 0.0000 0.0000
# 3 232.5980 -178.1513 1182.5102 0.0000 0.0000 0.0000
# 4 0.0000 0.0000 0.0000 55.1639 0.0000 0.0000
# 5 0.0000 0.0000 0.0000 0.0000 68.0835 0.0000
# 6 0.0000 0.0000 0.0000 0.0000 0.0000 4.4962
#
#
#
# Elastic Compliance Matrix: (Units=1/GPa)
#
#
# Indices 1 2 3 4 5 6 
#
# 1 0.012623 -0.002736 -0.002895 0.000000 0.000000 0.000000
# 2 -0.002736 0.006957 0.001586 0.000000 0.000000 0.000000
# 3 -0.002895 0.001586 0.001654 0.000000 0.000000 0.000000
# 4 0.000000 0.000000 0.000000 0.018128 0.000000 0.000000
# 5 0.000000 0.000000 0.000000 0.000000 0.014688 0.000000
# 6 0.000000 0.000000 0.000000 0.000000 0.000000 0.222408
#
#
# Mechanical properties :
#
#
# Convention : Reuss Voigt Hill
#
# Bulk Modulus (GPa) = 76.07093 178.41470 127.24282
# Shear Modulus (GPa) = 17.30532 121.90647 69.60590
#
# Velocity S-wave (km/s) = 2.78598 7.39436 5.58741
# Velocity P-wave (km/s) = 6.66841 12.36622 9.93456
#
# Compressibility (1/GPa) = 0.01314563
#
# Stress axis : x y z
#
# Youngs Moduli (GPa) = 79.22128 143.73099 604.56309
#
# Poissons Ratio (x) = 0.39319 1.75023
# Poissons Ratio (y) = 0.21672 -0.95900
# Poissons Ratio (z) = 0.22935 -0.22800
#
# Static dielectric constant tensor:
#      x y z
#    x 1.900490 0.000000 0.000000 
#    y 0.000000 1.772000 0.000000 
#    z 0.000000 0.000000 1.771730 
# 
# From -- ./inp_files/13765.got.cif
#   From: 2010.05.17/outbox.cif.g08.bks.cpg/sg23_7_cif.got.tgz:13765.got - 2010.06.04 12:02:01.
