data_PCOD9332160
_publ_section_title
;
Structure prediction by ZEFSAII (Michael W. Deem and Ramdas Pophale) SiO2 
 PCOD9332160
Probable space group: I 2 2 2
;
_chemical_formula_sum "Si O2"
_cell_formula_units_Z 48
_cell_length_a 10.727448
_cell_length_b 21.048548
_cell_length_c 10.270948
_cell_angle_alpha 90.000000
_cell_angle_beta 90.000000
_cell_angle_gamma 90.000000
_cell_volume 2319.151342
_symmetry_space_group_name_H-M "I 2 2 2"
_symmetry_group_IT_number 23
_symmetry_cell_setting 'orthorhombic'
loop_
_space_group_symop_operation_xyz
x,y,z
-x,-y,z
x,-y,-z
-x,y,-z
1/2+x,1/2+y,1/2+z
1/2-x,1/2-y,1/2+z
1/2+x,1/2-y,1/2-z
1/2-x,1/2+y,1/2-z
loop_
_atom_site_type_symbol
_atom_site_label
_atom_site_fract_x
_atom_site_fract_y
_atom_site_fract_z
Si Si1 0.637896 0.199168 0.998147
Si Si2 0.018126 0.201087 0.854469
Si Si3 0.338308 0.188801 0.483173
Si Si4 0.230044 0.861084 0.764106
Si Si5 0.739015 0.131518 0.245957
Si Si6 0.148938 0.000405 0.154952
O O1 0.741555 0.253426 0.001037
O O2 0.658106 0.154287 0.122599
O O3 0.500000 0.226318 0.000000
O O4 0.667364 0.160629 0.868021
O O5 0.054727 0.273341 0.894963
O O6 0.131380 0.171296 0.774046
O O7 0.888509 0.186926 0.782694
O O8 0.000000 0.169554 0.000000
O O9 0.281676 0.141232 0.379559
O O10 0.331106 0.151799 0.621443
O O11 0.190634 0.931678 0.795144
O O12 0.782089 0.058680 0.224757
O O13 0.000000 0.000000 0.174253
O O14 0.173169 0.000000 0.000000
#
# Coordination Sequence:
#
# PCOD9332160 Si02
#       6
#     8   8   8   8   8   8
#     4  11  24  41  65  95 132 173 225 269 337 412
#     4  11  21  41  66  90 130 170 222 267 333 399
#     4  11  27  37  64  98 140 174 207 285 350 399
#     4  12  24  43  65 101 128 175 224 270 339 408
#     4  11  23  42  63 100 133 172 223 283 341 402
#     4  11  21  40  70  95 126 173 232 278 332 411
#
# _framework density 20.697227000000002
#
# number of rings (size 3 to 8) (size 9 to 14) (size 15 to 20)
#    0.000    0.833    6.667    2.000    4.667    0.667 
#    0.000    2.500    0.000    0.000    0.000    3.500 
#    0.000    0.000    0.000    0.000    0.000    0.000 
#
# Total GULP energy -133904.891384 kJ/mol
# GULP energy per Si atom -5579.370474 kJ/mol
# Density = 2.065012 g / cm^3
# Si number density = 20.697227 Si / 1000 Ang^3
#
#
#
# Elastic Constant Matrix: (Units=GPa)
#
#
# Indices 1 2 3 4 5 6 
#
# 1 34.6650 23.5551 15.9240 0.0000 0.0000 0.0000
# 2 23.5551 122.6971 41.9604 0.0001 0.0002 0.0000
# 3 15.9240 41.9604 135.0353 -0.0002 0.0002 0.0002
# 4 0.0000 0.0001 -0.0002 26.7315 0.0006 0.0001
# 5 0.0000 0.0002 0.0002 0.0006 -38.6680 0.0000
# 6 0.0000 0.0000 0.0002 0.0001 0.0000 17.0190
#
#
#
# Elastic Compliance Matrix: (Units=1/GPa)
#
#
# Indices 1 2 3 4 5 6 
#
# 1 0.033750 -0.005727 -0.002200 0.000000 0.000000 0.000000
# 2 -0.005727 0.010091 -0.002460 0.000000 0.000000 0.000000
# 3 -0.002200 -0.002460 0.008429 0.000000 0.000000 0.000000
# 4 0.000000 0.000000 0.000000 0.037409 0.000001 0.000000
# 5 0.000000 0.000000 0.000000 0.000001 -0.025861 0.000000
# 6 0.000000 0.000000 0.000000 0.000000 0.000000 0.058758
#
#
# Mechanical properties :
#
#
# Convention : Reuss Voigt Hill
#
# Bulk Modulus (GPa) = 31.75081 50.58626 41.16854
# Shear Modulus (GPa) = 32.49941 15.08037 23.78989
#
# Velocity S-wave (km/s) = 3.96691 2.70222 3.39399
# Velocity P-wave (km/s) = 6.02957 5.85065 5.94079
#
# Compressibility (1/GPa) = 0.03149526
#
# Stress axis : x y z
#
# Youngs Moduli (GPa) = 29.62992 99.09890 118.63154
#
# Poissons Ratio (x) = 0.56751 0.26104
# Poissons Ratio (y) = 0.16968 0.29187
# Poissons Ratio (z) = 0.06520 0.24381
#
# Static dielectric constant tensor:
#      x y z
#    x 1.891950 0.000000 0.000000 
#    y 0.000000 1.718420 0.000000 
#    z 0.000000 0.000000 1.772780 
# 
# From -- ./inp_files/8684.got.cif
#   From: 2010.05.17/outbox.cif.g08.bks.cpg/sg23_5_cif.got.tgz:8684.got - 2010.06.04 12:02:01.
