data_PCOD9332563
_publ_section_title
;
Structure prediction by ZEFSAII (Michael W. Deem and Ramdas Pophale) SiO2 
 PCOD9332563
Probable space group: I 2 2 2
;
_chemical_formula_sum "Si O2"
_cell_formula_units_Z 28
_cell_length_a 4.916791
_cell_length_b 11.002482
_cell_length_c 21.295707
_cell_angle_alpha 90.000000
_cell_angle_beta 90.000000
_cell_angle_gamma 90.000000
_cell_volume 1152.031827
_symmetry_space_group_name_H-M "I 2 2 2"
_symmetry_group_IT_number 23
_symmetry_cell_setting 'orthorhombic'
loop_
_space_group_symop_operation_xyz
x,y,z
-x,-y,z
x,-y,-z
-x,y,-z
1/2+x,1/2+y,1/2+z
1/2-x,1/2-y,1/2+z
1/2+x,1/2-y,1/2-z
1/2-x,1/2+y,1/2-z
loop_
_atom_site_type_symbol
_atom_site_label
_atom_site_fract_x
_atom_site_fract_y
_atom_site_fract_z
Si Si1 0.000000 0.500000 0.332620
Si Si2 0.005785 0.297054 0.567709
Si Si3 0.231217 0.828639 0.738875
Si Si4 0.537639 0.860646 0.400898
O O1 0.089552 0.391452 0.378719
O O2 0.218496 0.561639 0.286737
O O3 0.780197 0.194483 0.559024
O O4 0.000000 0.360222 0.500000
O O5 0.280837 0.229248 0.589876
O O6 0.423201 0.717359 0.762247
O O7 0.347402 0.859706 0.670523
O O8 0.500000 0.000000 0.418122
#
# Coordination Sequence:
#
# PCOD9332563 Si02
#       4
#     4   8   8   8
#     4  12  25  46  78 104 147 176 238 288 368 408
#     4  12  28  47  70 103 145 190 238 283 346 425
#     4  12  24  43  69 103 141 176 224 290 351 416
#     4  12  25  46  72 105 137 189 239 292 351 407
#
# _framework density 24.304883
#
# number of rings (size 3 to 8) (size 9 to 14) (size 15 to 20)
#    0.000    0.000    7.143    2.143    0.000    8.000 
#    0.000    2.857    0.000    0.000    0.000    0.000 
#    0.000    0.000    0.000    0.000    0.000    0.000 
#
# Total GULP energy -78409.200008 kJ/mol
# GULP energy per Si atom -5600.657143 kJ/mol
# Density = 2.424956 g / cm^3
# Si number density = 24.304883 Si / 1000 Ang^3
#
#
#
# Elastic Constant Matrix: (Units=GPa)
#
#
# Indices 1 2 3 4 5 6 
#
# 1 80.1568 12.9821 -5.6316 0.0000 0.0000 0.0000
# 2 12.9821 99.1109 36.5835 0.0000 0.0000 0.0000
# 3 -5.6316 36.5835 137.1892 0.0000 0.0000 0.0000
# 4 0.0000 0.0000 0.0000 24.1218 0.0000 0.0000
# 5 0.0000 0.0000 0.0000 0.0000 19.4774 0.0000
# 6 0.0000 0.0000 0.0000 0.0000 0.0000 27.3157
#
#
#
# Elastic Compliance Matrix: (Units=1/GPa)
#
#
# Indices 1 2 3 4 5 6 
#
# 1 0.012890 -0.002089 0.001086 0.000000 0.000000 0.000000
# 2 -0.002089 0.011530 -0.003160 0.000000 0.000000 0.000000
# 3 0.001086 -0.003160 0.008177 0.000000 0.000000 0.000000
# 4 0.000000 0.000000 0.000000 0.041456 0.000000 0.000000
# 5 0.000000 0.000000 0.000000 0.000000 0.051342 0.000000
# 6 0.000000 0.000000 0.000000 0.000000 0.000000 0.036609
#
#
# Mechanical properties :
#
#
# Convention : Reuss Voigt Hill
#
# Bulk Modulus (GPa) = 41.20348 44.92497 43.06422
# Shear Modulus (GPa) = 28.02366 32.35116 30.18741
#
# Velocity S-wave (km/s) = 3.39928 3.65232 3.52807
# Velocity P-wave (km/s) = 5.69178 6.02578 5.86116
#
# Compressibility (1/GPa) = 0.02426980
#
# Stress axis : x y z
#
# Youngs Moduli (GPa) = 77.57786 86.73062 122.30080
#
# Poissons Ratio (x) = 0.18122 -0.13286
# Poissons Ratio (y) = 0.16209 0.38652
# Poissons Ratio (z) = -0.08427 0.27410
#
# Static dielectric constant tensor:
#      x y z
#    x 1.865690 0.000000 0.000000 
#    y 0.000000 1.954050 0.000000 
#    z 0.000000 0.000000 2.053530 
# 
# From -- ./inp_files/1463.got.cif
#   From: 2010.05.17/outbox.cif.g08.bks.cpg/sg23_1_cif.got.tgz:1463.got - 2010.06.04 12:02:01.
