data_PCOD9332810
_publ_section_title
;
Structure prediction by ZEFSAII (Michael W. Deem and Ramdas Pophale) SiO2 
 PCOD9332810
Probable space group: I 21 21 21
;
_chemical_formula_sum "Si O2"
_cell_formula_units_Z 64
_cell_length_a 9.818565
_cell_length_b 18.401563
_cell_length_c 18.895621
_cell_angle_alpha 90.000000
_cell_angle_beta 90.000000
_cell_angle_gamma 90.000000
_cell_volume 3414.003027
_symmetry_space_group_name_H-M "I 21 21 21"
_symmetry_group_IT_number 24
_symmetry_cell_setting 'orthorhombic'
loop_
_space_group_symop_operation_xyz
x,y,z
-x,1/2-y,z
x,-y,1/2-z
1/2-x,y,-z
1/2+x,1/2+y,1/2+z
1/2-x,-y,1/2+z
1/2+x,1/2-y,-z
-x,1/2+y,1/2-z
loop_
_atom_site_type_symbol
_atom_site_label
_atom_site_fract_x
_atom_site_fract_y
_atom_site_fract_z
Si Si1 0.353105 0.727946 0.220126
Si Si2 0.317310 0.227822 0.120053
Si Si3 0.485635 0.395163 0.074296
Si Si4 0.229437 0.880524 0.790004
Si Si5 0.729444 0.512480 0.079947
Si Si6 0.926864 0.916526 0.730913
Si Si7 0.404089 0.322474 0.935456
Si Si8 0.099858 0.104070 0.158510
O O1 0.500000 0.750000 0.188860
O O2 0.356918 0.741803 0.304217
O O3 0.256055 0.793756 0.195708
O O4 0.342655 0.640683 0.220350
O O5 0.435072 0.180794 0.086015
O O6 0.245776 0.289885 0.074955
O O7 0.200363 0.168744 0.134541
O O8 0.598816 0.458979 0.075515
O O9 0.403169 0.408478 0.146748
O O10 0.422283 0.381889 0.997298
O O11 0.353784 0.906853 0.739834
O O12 0.087674 0.895985 0.746257
O O13 0.213024 0.925042 0.861862
O O14 0.853817 0.463651 0.110527
O O15 0.750000 0.538922 0.000000
O O16 0.906183 0.000000 0.750000
O O17 0.500000 0.250000 0.945365
O O18 0.454361 0.363575 0.863573
#
# Coordination Sequence:
#
# PCOD9332810 Si02
#       8
#     8   8   8   8   8   8   8   8
#     4   9  17  31  50  74 101 123 171 221 253 299
#     4   9  18  31  43  64  99 139 168 195 246 302
#     4  11  19  30  43  72 109 137 166 207 244 310
#     4  10  17  30  49  72  99 132 164 209 263 299
#     4  11  18  28  47  72 105 133 163 213 264 301
#     4  11  18  30  51  75 100 132 167 207 269 304
#     4  10  21  28  42  67 102 143 171 188 250 311
#     4   9  16  29  43  65  98 131 165 203 242 301
#
# _framework density 18.746323
#
# number of rings (size 3 to 8) (size 9 to 14) (size 15 to 20)
#    0.000    2.000    7.500    0.375    1.750    0.000 
#    2.250    0.000    0.000    1.500    0.000   14.875 
#    0.000    0.000    0.000    0.000    0.000    0.000 
#
# Total GULP energy -178180.043478 kJ/mol
# GULP energy per Si atom -5568.126359 kJ/mol
# Density = 1.870366 g / cm^3
# Si number density = 18.746323 Si / 1000 Ang^3
#
#
#
# Elastic Constant Matrix: (Units=GPa)
#
#
# Indices 1 2 3 4 5 6 
#
# 1 24.4750 17.2977 14.0761 0.0000 0.0000 0.0000
# 2 17.2977 127.4133 46.8139 0.0000 0.0000 0.0000
# 3 14.0761 46.8139 106.4842 0.0000 0.0000 0.0000
# 4 0.0000 0.0000 0.0000 34.8482 0.0000 0.0000
# 5 0.0000 0.0000 0.0000 0.0000 14.5502 0.0000
# 6 0.0000 0.0000 0.0000 0.0000 0.0000 18.7575
#
#
#
# Elastic Compliance Matrix: (Units=1/GPa)
#
#
# Indices 1 2 3 4 5 6 
#
# 1 0.046601 -0.004846 -0.004030 0.000000 0.000000 0.000000
# 2 -0.004846 0.009864 -0.003696 0.000000 0.000000 0.000000
# 3 -0.004030 -0.003696 0.011549 0.000000 0.000000 0.000000
# 4 0.000000 0.000000 0.000000 0.028696 0.000000 0.000000
# 5 0.000000 0.000000 0.000000 0.000000 0.068728 0.000000
# 6 0.000000 0.000000 0.000000 0.000000 0.000000 0.053312
#
#
# Mechanical properties :
#
#
# Convention : Reuss Voigt Hill
#
# Bulk Modulus (GPa) = 23.32627 46.08309 34.70468
# Shear Modulus (GPa) = 19.36614 25.64349 22.50481
#
# Velocity S-wave (km/s) = 3.21762 3.70255 3.46857
# Velocity P-wave (km/s) = 5.12584 6.55091 5.88169
#
# Compressibility (1/GPa) = 0.04287012
#
# Stress axis : x y z
#
# Youngs Moduli (GPa) = 21.45899 101.37486 86.58995
#
# Poissons Ratio (x) = 0.49125 0.34893
# Poissons Ratio (y) = 0.10399 0.32005
# Poissons Ratio (z) = 0.08647 0.37469
#
# Static dielectric constant tensor:
#      x y z
#    x 1.734770 0.000000 0.000000 
#    y 0.000000 1.709410 0.000000 
#    z 0.000000 0.000000 1.672520 
# 
# From -- ./inp_files/30431.got.cif
#   From: 2010.05.17/outbox.cif.g08.bks.cpg/sg24_16_cif.got.tgz:30431.got - 2010.06.04 00:33:39.
