data_PCOD9332530
_publ_section_title
;
Structure prediction by ZEFSAII (Michael W. Deem and Ramdas Pophale) SiO2 
 PCOD9332530
Probable space group: I 2 2 2
;
_chemical_formula_sum "Si O2"
_cell_formula_units_Z 54
_cell_length_a 14.760398
_cell_length_b 13.944833
_cell_length_c 12.115980
_cell_angle_alpha 90.000000
_cell_angle_beta 90.000000
_cell_angle_gamma 90.000000
_cell_volume 2493.847734
_symmetry_space_group_name_H-M "I 2 2 2"
_symmetry_group_IT_number 23
_symmetry_cell_setting 'orthorhombic'
loop_
_space_group_symop_operation_xyz
x,y,z
-x,-y,z
x,-y,-z
-x,y,-z
1/2+x,1/2+y,1/2+z
1/2-x,1/2-y,1/2+z
1/2+x,1/2-y,1/2-z
1/2-x,1/2+y,1/2-z
loop_
_atom_site_type_symbol
_atom_site_label
_atom_site_fract_x
_atom_site_fract_y
_atom_site_fract_z
Si Si1 0.158331 0.964018 0.659895
Si Si2 0.365600 0.061147 0.394356
Si Si3 0.099146 0.229230 0.972294
Si Si4 0.829164 0.784192 0.213801
Si Si5 0.854525 0.822624 0.747339
Si Si6 0.016890 0.712592 0.628485
Si Si7 0.500000 0.500000 0.000000
Si Si8 0.500000 0.000000 0.210010
O O1 0.256243 0.936304 0.610249
O O2 0.152701 0.896643 0.766792
O O3 0.071750 0.946032 0.580297
O O4 0.159265 0.076164 0.687597
O O5 0.404000 0.167297 0.412526
O O6 0.391721 0.000000 0.500000
O O7 0.411934 0.012065 0.288962
O O8 0.141906 0.162363 0.879138
O O9 0.145350 0.243499 0.089856
O O10 0.000000 0.193394 0.000000
O O11 0.726551 0.751116 0.226691
O O12 0.887541 0.735868 0.312125
O O13 0.944696 0.773391 0.699819
O O14 0.004030 0.598451 0.643023
O O15 0.000000 0.736123 0.500000
#
# Coordination Sequence:
#
# PCOD9332530 Si02
#       8
#     8   8   8   8   8   8   2   4
#     4  12  27  46  69 108 141 198 250 291 364 439
#     4  12  22  42  74 105 137 182 249 305 356 432
#     4  12  24  48  73 107 147 189 241 315 374 425
#     4  12  27  47  74 106 145 191 246 304 367 437
#     4  12  27  48  73 107 147 191 247 303 370 437
#     4  12  27  45  71 105 151 194 242 304 365 439
#     4  12  28  44  72  96 152 194 256 288 338 438
#     4  12  22  46  70 110 142 187 243 300 382 430
#
# _framework density 21.653286000000001
#
# number of rings (size 3 to 8) (size 9 to 14) (size 15 to 20)
#    0.000    0.000    5.185    4.889    6.222    0.593 
#    0.000    0.741    0.000    0.000    0.000    0.000 
#    0.000    0.000    0.000    0.000    0.000    0.000 
#
# Total GULP energy -150988.596024 kJ/mol
# GULP energy per Si atom -5592.170223 kJ/mol
# Density = 2.160400 g / cm^3
# Si number density = 21.653286 Si / 1000 Ang^3
#
#
#
# Elastic Constant Matrix: (Units=GPa)
#
#
# Indices 1 2 3 4 5 6 
#
# 1 92.4852 -22.0161 8.6491 0.0000 0.0000 0.0000
# 2 -22.0161 81.6953 -1.3188 0.0000 0.0000 0.0000
# 3 8.6491 -1.3188 116.2556 0.0000 0.0000 0.0000
# 4 0.0000 0.0000 0.0000 27.8702 0.0000 0.0000
# 5 0.0000 0.0000 0.0000 0.0000 27.2033 0.0000
# 6 0.0000 0.0000 0.0000 0.0000 0.0000 87.6388
#
#
#
# Elastic Compliance Matrix: (Units=1/GPa)
#
#
# Indices 1 2 3 4 5 6 
#
# 1 0.011633 0.003122 -0.000830 0.000000 0.000000 0.000000
# 2 0.003122 0.013081 -0.000084 0.000000 0.000000 0.000000
# 3 -0.000830 -0.000084 0.008663 0.000000 0.000000 0.000000
# 4 0.000000 0.000000 0.000000 0.035881 0.000000 0.000000
# 5 0.000000 0.000000 0.000000 0.000000 0.036760 0.000000
# 6 0.000000 0.000000 0.000000 0.000000 0.000000 0.011410
#
#
# Mechanical properties :
#
#
# Convention : Reuss Voigt Hill
#
# Bulk Modulus (GPa) = 26.46077 29.00716 27.73396
# Shear Modulus (GPa) = 39.80591 48.88392 44.34492
#
# Velocity S-wave (km/s) = 4.29223 4.75655 4.53034
# Velocity P-wave (km/s) = 6.06721 6.60240 6.34045
#
# Compressibility (1/GPa) = 0.03779179
#
# Stress axis : x y z
#
# Youngs Moduli (GPa) = 85.96029 76.44961 115.43954
#
# Poissons Ratio (x) = -0.23865 0.09582
# Poissons Ratio (y) = -0.26834 0.00968
# Poissons Ratio (z) = 0.07135 0.00641
#
# Static dielectric constant tensor:
#      x y z
#    x 1.776780 0.000000 0.000000 
#    y 0.000000 1.801520 0.000000 
#    z 0.000000 0.000000 0.875030 
# 
# From -- ./inp_files/16821.got.cif
#   From: 2010.05.17/outbox.cif.g08.bks.cpg/sg23_9_cif.got.tgz:16821.got - 2010.06.04 12:02:01.
