data_PCOD9332730
_publ_section_title
;
Structure prediction by ZEFSAII (Michael W. Deem and Ramdas Pophale) SiO2 
 PCOD9332730
Probable space group: I 21 21 21
;
_chemical_formula_sum "Si O2"
_cell_formula_units_Z 60
_cell_length_a 5.487423
_cell_length_b 22.819252
_cell_length_c 19.781217
_cell_angle_alpha 90.000000
_cell_angle_beta 90.000000
_cell_angle_gamma 90.000000
_cell_volume 2476.982001
_symmetry_space_group_name_H-M "I 21 21 21"
_symmetry_group_IT_number 24
_symmetry_cell_setting 'orthorhombic'
loop_
_space_group_symop_operation_xyz
x,y,z
-x,1/2-y,z
x,-y,1/2-z
1/2-x,y,-z
1/2+x,1/2+y,1/2+z
1/2-x,-y,1/2+z
1/2+x,1/2-y,-z
-x,1/2+y,1/2-z
loop_
_atom_site_type_symbol
_atom_site_label
_atom_site_fract_x
_atom_site_fract_y
_atom_site_fract_z
Si Si1 0.494441 0.995569 0.023277
Si Si2 0.500539 0.403828 0.821812
Si Si3 0.750000 0.713981 0.000000
Si Si4 0.499812 0.130895 0.968870
Si Si5 0.509746 0.969526 0.323094
Si Si6 0.803356 0.362395 0.631612
Si Si7 0.812712 0.132190 0.323924
Si Si8 0.751190 0.745042 0.232614
O O1 0.454440 0.004921 0.102836
O O2 0.750000 0.968049 0.000000
O O3 0.496737 0.060659 0.988158
O O4 0.250000 0.963042 0.000000
O O5 0.495056 0.364305 0.888323
O O6 0.781697 0.423617 0.813929
O O7 0.380544 0.378982 0.753643
O O8 0.295199 0.453262 0.834624
O O9 0.500000 0.750000 0.984297
O O10 0.820683 0.673751 0.936645
O O11 0.250000 0.154887 0.000000
O O12 0.750000 0.154320 0.000000
O O13 0.504230 0.000000 0.250000
O O14 0.540089 0.392820 0.634429
O O15 0.767173 0.315289 0.692481
O O16 0.056314 0.392782 0.650857
O O17 0.771335 0.203073 0.324001
O O18 0.500000 0.750000 0.271840
O O19 0.000000 0.750000 0.272798
#
# Coordination Sequence:
#
# PCOD9332730 Si02
#       8
#     8   8   4   8   8   8   8   8
#     4  10  16  32  54  76 102 132 163 208 291 320
#     4  12  21  35  54  80 108 139 178 215 270 350
#     4  12  20  30  54  84 106 140 196 248 284 316
#     4  10  16  30  53  76 103 130 158 214 278 316
#     4  12  23  35  53  84 111 136 176 231 281 336
#     4  10  19  33  49  78 108 137 177 227 271 322
#     4  10  20  32  49  74 107 145 168 213 277 322
#     4   8  14  27  44  64 100 129 161 203 251 306
#
# _framework density 24.223025
#
# number of rings (size 3 to 8) (size 9 to 14) (size 15 to 20)
#    0.000    1.600    5.333    4.400    0.000    0.000 
#    0.000    0.000    0.000    0.000   17.333    0.000 
#    0.000   19.200    0.000    0.400    0.000    0.000 
#
# Total GULP energy -167293.782359 kJ/mol
# GULP energy per Si atom -5576.459412 kJ/mol
# Density = 2.416789 g / cm^3
# Si number density = 24.223025 Si / 1000 Ang^3
#
#
#
# Elastic Constant Matrix: (Units=GPa)
#
#
# Indices 1 2 3 4 5 6 
#
# 1 234.2921 2.2453 50.5439 0.0000 0.0000 0.0000
# 2 2.2453 24.7991 13.5835 0.0000 0.0000 0.0000
# 3 50.5439 13.5835 153.9354 0.0000 0.0000 0.0000
# 4 0.0000 0.0000 0.0000 10.8579 0.0000 0.0000
# 5 0.0000 0.0000 0.0000 0.0000 36.6860 0.0000
# 6 0.0000 0.0000 0.0000 0.0000 0.0000 -3.6296
#
#
#
# Elastic Compliance Matrix: (Units=1/GPa)
#
#
# Indices 1 2 3 4 5 6 
#
# 1 0.004598 0.000431 -0.001548 0.000000 0.000000 0.000000
# 2 0.000431 0.042413 -0.003884 0.000000 0.000000 0.000000
# 3 -0.001548 -0.003884 0.007347 0.000000 0.000000 0.000000
# 4 0.000000 0.000000 0.000000 0.092099 0.000000 0.000000
# 5 0.000000 0.000000 0.000000 0.000000 0.027258 0.000000
# 6 0.000000 0.000000 0.000000 0.000000 0.000000 -0.275515
#
#
# Mechanical properties :
#
#
# Convention : Reuss Voigt Hill
#
# Bulk Modulus (GPa) = 22.54455 60.64133 41.59294
# Shear Modulus (GPa) = -64.92398 31.89312 -16.51543
#
# Velocity S-wave (km/s) = -5.18274 3.63250 -2.61398
# Velocity P-wave (km/s) = 5.14656 6.53317 2.84563
#
# Compressibility (1/GPa) = 0.04435663
#
# Stress axis : x y z
#
# Youngs Moduli (GPa) = 217.48845 23.57794 136.10649
#
# Poissons Ratio (x) = -0.01017 0.21066
# Poissons Ratio (y) = -0.09384 0.52867
# Poissons Ratio (z) = 0.33663 0.09158
#
# Static dielectric constant tensor:
#      x y z
#    x 2.109560 0.000000 0.000000 
#    y 0.000000 2.048100 0.000000 
#    z 0.000000 0.000000 1.967090 
# 
# From -- ./inp_files/28957.got.cif
#   From: 2010.05.17/outbox.cif.g08.bks.cpg/sg24_15_cif.got.tgz:28957.got - 2010.06.04 00:33:39.
