data_PCOD9332916
_publ_section_title
;
Structure prediction by ZEFSAII (Michael W. Deem and Ramdas Pophale) SiO2 
 PCOD9332916
Probable space group: I 21 21 21
;
_chemical_formula_sum "Si O2"
_cell_formula_units_Z 48
_cell_length_a 18.541353
_cell_length_b 13.036798
_cell_length_c 8.747160
_cell_angle_alpha 90.000000
_cell_angle_beta 90.000000
_cell_angle_gamma 90.000000
_cell_volume 2114.362411
_symmetry_space_group_name_H-M "I 21 21 21"
_symmetry_group_IT_number 24
_symmetry_cell_setting 'orthorhombic'
loop_
_space_group_symop_operation_xyz
x,y,z
-x,1/2-y,z
x,-y,1/2-z
1/2-x,y,-z
1/2+x,1/2+y,1/2+z
1/2-x,-y,1/2+z
1/2+x,1/2-y,-z
-x,1/2+y,1/2-z
loop_
_atom_site_type_symbol
_atom_site_label
_atom_site_fract_x
_atom_site_fract_y
_atom_site_fract_z
Si Si1 0.786911 0.669724 0.852145
Si Si2 0.944898 0.870369 0.710853
Si Si3 0.335315 0.549085 0.517201
Si Si4 0.857604 0.264123 0.185874
Si Si5 0.594752 0.639520 0.386092
Si Si6 0.108868 0.328715 0.478490
O O1 0.721563 0.707748 0.747161
O O2 0.843834 0.614862 0.739128
O O3 0.829296 0.766511 0.927131
O O4 0.750000 0.614540 0.000000
O O5 0.877801 0.931272 0.640401
O O6 0.927512 0.756006 0.654445
O O7 0.949696 0.856789 0.893361
O O8 0.018208 0.914554 0.638162
O O9 0.250000 0.544054 0.500000
O O10 0.353201 0.652000 0.610081
O O11 0.361406 0.438647 0.577277
O O12 0.880367 0.349158 0.061424
O O13 0.907137 0.245277 0.335556
#
# Coordination Sequence:
#
# PCOD9332916 Si02
#       6
#     8   8   8   8   8   8
#     4   9  17  30  47  71  95 125 165 203 243 288
#     4   9  19  32  44  62  92 135 171 199 240 284
#     4  11  19  29  46  70 102 134 162 192 228 282
#     4  10  18  28  46  69  95 130 165 202 243 284
#     4   9  17  32  46  61  93 129 166 208 243 284
#     4  10  19  29  45  70 100 129 164 197 234 289
#
# _framework density 22.701879000000002
#
# number of rings (size 3 to 8) (size 9 to 14) (size 15 to 20)
#    0.000    2.333    0.000    6.000    0.000    1.333 
#    0.000   20.000    0.000    0.000    0.000    0.000 
#    0.000   10.667    0.000    5.333    0.000   11.167 
#
# Total GULP energy -133730.572044 kJ/mol
# GULP energy per Si atom -5572.107169 kJ/mol
# Density = 2.265021 g / cm^3
# Si number density = 22.701879 Si / 1000 Ang^3
#
#
#
# Elastic Constant Matrix: (Units=GPa)
#
#
# Indices 1 2 3 4 5 6 
#
# 1 105.7634 14.4138 75.8791 0.0000 0.0000 0.0000
# 2 14.4138 46.0633 11.8791 0.0000 0.0000 0.0000
# 3 75.8791 11.8791 153.7259 0.0000 0.0000 0.0000
# 4 0.0000 0.0000 0.0000 5.7136 0.0000 0.0000
# 5 0.0000 0.0000 0.0000 0.0000 21.4606 0.0000
# 6 0.0000 0.0000 0.0000 0.0000 0.0000 -63.6090
#
#
#
# Elastic Compliance Matrix: (Units=1/GPa)
#
#
# Indices 1 2 3 4 5 6 
#
# 1 0.014995 -0.002840 -0.007182 0.000000 0.000000 0.000000
# 2 -0.002840 0.022689 -0.000351 0.000000 0.000000 0.000000
# 3 -0.007182 -0.000351 0.010077 0.000000 0.000000 0.000000
# 4 0.000000 0.000000 0.000000 0.175022 0.000000 0.000000
# 5 0.000000 0.000000 0.000000 0.000000 0.046597 0.000000
# 6 0.000000 0.000000 0.000000 0.000000 0.000000 -0.015721
#
#
# Mechanical properties :
#
#
# Convention : Reuss Voigt Hill
#
# Bulk Modulus (GPa) = 37.01802 56.65518 46.83660
# Shear Modulus (GPa) = 17.64231 6.27173 11.95702
#
# Velocity S-wave (km/s) = 2.79073 1.66392 2.29748
# Velocity P-wave (km/s) = 5.16970 5.35741 5.26439
#
# Compressibility (1/GPa) = 0.02701387
#
# Stress axis : x y z
#
# Youngs Moduli (GPa) = 66.69004 44.07511 99.23331
#
# Poissons Ratio (x) = 0.12517 0.71269
# Poissons Ratio (y) = 0.18939 0.03488
# Poissons Ratio (z) = 0.47896 0.01549
#
# Static dielectric constant tensor:
#      x y z
#    x 1.880800 0.000000 0.000000 
#    y 0.000000 1.904620 0.000000 
#    z 0.000000 0.000000 1.929620 
# 
# From -- ./inp_files/14488.got.cif
#   From: 2010.05.17/outbox.cif.g08.bks.cpg/sg24_8_cif.got.tgz:14488.got - 2010.06.04 00:33:39.
