data_PCOD9332319
_publ_section_title
;
Structure prediction by ZEFSAII (Michael W. Deem and Ramdas Pophale) SiO2 
 PCOD9332319
Probable space group: I 2 2 2
;
_chemical_formula_sum "Si O2"
_cell_formula_units_Z 24
_cell_length_a 15.239759
_cell_length_b 4.937132
_cell_length_c 12.692552
_cell_angle_alpha 90.000000
_cell_angle_beta 90.000000
_cell_angle_gamma 90.000000
_cell_volume 954.996521
_symmetry_space_group_name_H-M "I 2 2 2"
_symmetry_group_IT_number 23
_symmetry_cell_setting 'orthorhombic'
loop_
_space_group_symop_operation_xyz
x,y,z
-x,-y,z
x,-y,-z
-x,y,-z
1/2+x,1/2+y,1/2+z
1/2-x,1/2-y,1/2+z
1/2+x,1/2-y,1/2-z
1/2-x,1/2+y,1/2-z
loop_
_atom_site_type_symbol
_atom_site_label
_atom_site_fract_x
_atom_site_fract_y
_atom_site_fract_z
Si Si1 0.677958 0.475494 0.883041
Si Si2 0.405472 0.028373 0.793368
Si Si3 0.374848 0.235228 0.573597
O O1 0.668968 0.783058 0.845298
O O2 0.774350 0.351498 0.899045
O O3 0.631818 0.275323 0.799687
O O4 0.636574 0.500000 0.000000
O O5 0.422757 0.190217 0.684655
O O6 0.500000 0.000000 0.848512
O O7 0.378352 0.500000 0.500000
O O8 0.408295 0.000000 0.500000
#
# Coordination Sequence:
#
# PCOD9332319 Si02
#       3
#     8   8   8
#     4  11  23  42  67  95 130 176 231 283 340 412
#     4  12  25  41  64  98 137 176 218 281 356 418
#     4  11  23  43  69  95 127 176 233 286 338 406
#
# _framework density 25.130984000000002
#
# number of rings (size 3 to 8) (size 9 to 14) (size 15 to 20)
#    0.000    0.667    0.000   10.000    0.000    4.667 
#    0.000    1.667    0.000    0.000    0.000    0.000 
#    0.000    0.000    0.000    0.000    0.000    0.000 
#
# Total GULP energy -66949.224367 kJ/mol
# GULP energy per Si atom -5579.102031 kJ/mol
# Density = 2.507378 g / cm^3
# Si number density = 25.130984 Si / 1000 Ang^3
#
#
#
# Elastic Constant Matrix: (Units=GPa)
#
#
# Indices 1 2 3 4 5 6 
#
# 1 105.7661 42.8614 -10.8191 0.0000 0.0000 0.0000
# 2 42.8614 183.7498 27.9727 0.0000 0.0000 0.0000
# 3 -10.8191 27.9727 98.8614 0.0000 0.0000 0.0000
# 4 0.0000 0.0000 0.0000 59.5265 0.0000 0.0000
# 5 0.0000 0.0000 0.0000 0.0000 11.4097 0.0000
# 6 0.0000 0.0000 0.0000 0.0000 0.0000 33.9547
#
#
#
# Elastic Compliance Matrix: (Units=1/GPa)
#
#
# Indices 1 2 3 4 5 6 
#
# 1 0.010800 -0.002821 0.001980 0.000000 0.000000 0.000000
# 2 -0.002821 0.006424 -0.002126 0.000000 0.000000 0.000000
# 3 0.001980 -0.002126 0.010934 0.000000 0.000000 0.000000
# 4 0.000000 0.000000 0.000000 0.016799 0.000000 0.000000
# 5 0.000000 0.000000 0.000000 0.000000 0.087645 0.000000
# 6 0.000000 0.000000 0.000000 0.000000 0.000000 0.029451
#
#
# Mechanical properties :
#
#
# Convention : Reuss Voigt Hill
#
# Bulk Modulus (GPa) = 44.99658 56.48969 50.74313
# Shear Modulus (GPa) = 28.50708 42.86900 35.68804
#
# Velocity S-wave (km/s) = 3.37165 4.13464 3.77248
# Velocity P-wave (km/s) = 5.75335 6.73206 6.26185
#
# Compressibility (1/GPa) = 0.02222391
#
# Stress axis : x y z
#
# Youngs Moduli (GPa) = 92.58850 155.67008 91.46194
#
# Poissons Ratio (x) = 0.43911 -0.18110
# Poissons Ratio (y) = 0.26117 0.19448
# Poissons Ratio (z) = -0.18333 0.33100
#
# Static dielectric constant tensor:
#      x y z
#    x 2.087200 0.000000 0.000000 
#    y 0.000000 1.901380 0.000000 
#    z 0.000000 0.000000 2.013400 
# 
# From -- ./inp_files/1919.got.cif
#   From: 2010.05.17/outbox.cif.g08.bks.cpg/sg23_1_cif.got.tgz:1919.got - 2010.06.04 12:02:01.
