data_PCOD9332673
_publ_section_title
;
Structure prediction by ZEFSAII (Michael W. Deem and Ramdas Pophale) SiO2 
 PCOD9332673
Probable space group: I 21 21 21
;
_chemical_formula_sum "Si O2"
_cell_formula_units_Z 48
_cell_length_a 28.126271
_cell_length_b 15.683211
_cell_length_c 5.248584
_cell_angle_alpha 90.000000
_cell_angle_beta 90.000000
_cell_angle_gamma 90.000000
_cell_volume 2315.204162
_symmetry_space_group_name_H-M "I 21 21 21"
_symmetry_group_IT_number 24
_symmetry_cell_setting 'orthorhombic'
loop_
_space_group_symop_operation_xyz
x,y,z
-x,1/2-y,z
x,-y,1/2-z
1/2-x,y,-z
1/2+x,1/2+y,1/2+z
1/2-x,-y,1/2+z
1/2+x,1/2-y,-z
-x,1/2+y,1/2-z
loop_
_atom_site_type_symbol
_atom_site_label
_atom_site_fract_x
_atom_site_fract_y
_atom_site_fract_z
Si Si1 0.097369 0.367601 0.606758
Si Si2 0.490120 0.102917 0.265011
Si Si3 0.750000 0.236398 0.500000
Si Si4 0.431268 0.102202 0.761704
Si Si5 0.849589 0.275897 0.341801
Si Si6 0.351499 0.401991 0.896141
Si Si7 0.750000 0.117810 0.000000
O O1 0.119642 0.274383 0.555642
O O2 0.119067 0.418872 0.363294
O O3 0.041329 0.362175 0.651026
O O4 0.116972 0.410603 0.858344
O O5 0.455400 0.125722 0.494988
O O6 0.495557 0.000000 0.250000
O O7 0.466093 0.127500 0.995687
O O8 0.797088 0.291490 0.448124
O O9 0.758272 0.174983 0.745271
O O10 0.380582 0.148435 0.770967
O O11 0.425940 0.000000 0.750000
O O12 0.843146 0.200617 0.135249
O O13 0.298321 0.434717 0.947136
#
# Coordination Sequence:
#
# PCOD9332673 Si02
#       7
#     8   8   4   8   8   8   4
#     4  10  19  33  51  82 107 136 184 225 276 319
#     4  10  22  39  55  75 108 151 188 224 275 334
#     4  10  18  30  54  77 115 140 174 220 284 326
#     4  10  22  38  56  74 108 152 189 223 274 333
#     4   9  21  33  55  82 111 139 180 230 274 326
#     4   9  18  29  49  79 109 136 174 220 273 317
#     4  10  14  30  46  77 111 144 166 212 278 332
#
# _framework density 20.732513000000001
#
# number of rings (size 3 to 8) (size 9 to 14) (size 15 to 20)
#    1.000    1.333    1.667    1.000    2.333    0.667 
#    0.000    0.000    0.000    7.000    0.000    3.500 
#    0.000    0.000    0.000    0.000    0.000    0.000 
#
# Total GULP energy -133772.228959 kJ/mol
# GULP energy per Si atom -5573.842873 kJ/mol
# Density = 2.068532 g / cm^3
# Si number density = 20.732513 Si / 1000 Ang^3
#
#
#
# Elastic Constant Matrix: (Units=GPa)
#
#
# Indices 1 2 3 4 5 6 
#
# 1 147.0364 41.6731 35.9343 0.0000 0.0000 0.0001
# 2 41.6731 28.0830 21.7655 0.0000 0.0000 0.0000
# 3 35.9343 21.7655 146.7878 0.0000 0.0000 0.0010
# 4 0.0000 0.0000 0.0000 11.9482 0.0000 0.0000
# 5 0.0000 0.0000 0.0000 0.0000 31.3970 -0.0001
# 6 0.0001 0.0000 0.0010 0.0000 -0.0001-1443.3470
#
#
#
# Elastic Compliance Matrix: (Units=1/GPa)
#
#
# Indices 1 2 3 4 5 6 
#
# 1 0.011752 -0.017184 -0.000329 0.000000 0.000000 0.000000
# 2 -0.017184 0.065359 -0.005485 0.000000 0.000000 0.000000
# 3 -0.000329 -0.005485 0.007706 0.000000 0.000000 0.000000
# 4 0.000000 0.000000 0.000000 0.083695 0.000000 0.000000
# 5 0.000000 0.000000 0.000000 0.000000 0.031850 0.000000
# 6 0.000000 0.000000 0.000000 0.000000 0.000000 -0.000693
#
#
# Mechanical properties :
#
#
# Convention : Reuss Voigt Hill
#
# Bulk Modulus (GPa) = 25.75834 57.85035 41.80435
# Shear Modulus (GPa) = 19.33457 -265.16474 -122.91508
#
# Velocity S-wave (km/s) = 3.05712 -11.32147 -7.70810
# Velocity P-wave (km/s) = 4.99123 11.95563 7.68195
#
# Compressibility (1/GPa) = 0.03882238
#
# Stress axis : x y z
#
# Youngs Moduli (GPa) = 85.09484 15.30014 129.76343
#
# Poissons Ratio (x) = 0.26291 0.04268
# Poissons Ratio (y) = 1.46224 0.71172
# Poissons Ratio (z) = 0.02799 0.08392
#
# Static dielectric constant tensor:
#      x y z
#    x 1.759010 0.000000 0.000000 
#    y 0.000000 1.809300 0.000000 
#    z 0.000000 0.000000 1.817130 
# 
# From -- ./inp_files/6484.got.cif
#   From: 2010.05.17/outbox.cif.g08.bks.cpg/sg24_4_cif.got.tgz:6484.got - 2010.06.04 00:33:39.
