data_PCOD9332362
_publ_section_title
;
Structure prediction by ZEFSAII (Michael W. Deem and Ramdas Pophale) SiO2 
 PCOD9332362
Probable space group: I 2 2 2
;
_chemical_formula_sum "Si O2"
_cell_formula_units_Z 18
_cell_length_a 22.658495
_cell_length_b 5.079718
_cell_length_c 5.835091
_cell_angle_alpha 90.000000
_cell_angle_beta 90.000000
_cell_angle_gamma 90.000000
_cell_volume 671.611767
_symmetry_space_group_name_H-M "I 2 2 2"
_symmetry_group_IT_number 23
_symmetry_cell_setting 'orthorhombic'
loop_
_space_group_symop_operation_xyz
x,y,z
-x,-y,z
x,-y,-z
-x,y,-z
1/2+x,1/2+y,1/2+z
1/2-x,1/2-y,1/2+z
1/2+x,1/2-y,1/2-z
1/2-x,1/2+y,1/2-z
loop_
_atom_site_type_symbol
_atom_site_label
_atom_site_fract_x
_atom_site_fract_y
_atom_site_fract_z
Si Si1 0.586861 0.241458 0.156309
Si Si2 0.221581 0.278301 0.368210
Si Si3 0.000000 0.000000 0.000000
O O1 0.654233 0.176649 0.228945
O O2 0.543187 0.311363 0.358315
O O3 0.585941 0.500000 0.000000
O O4 0.567668 0.000000 0.000000
O O5 0.241611 0.389841 0.658765
O O6 0.210149 0.000000 0.500000
#
# Coordination Sequence:
#
# PCOD9332362 Si02
#       3
#     8   8   2
#     4  11  27  53  79 120 164 203 271 339 388 469
#     4  11  23  45  76 112 156 199 247 329 397 466
#     4  12  30  54  92 112 156 238 266 316 412 496
#
# _framework density 26.801202
#
# number of rings (size 3 to 8) (size 9 to 14) (size 15 to 20)
#    0.000    0.889    0.000    7.333    3.111    7.111 
#   16.000    0.000   19.556    0.000    0.000    0.000 
#    0.000    0.000    0.000    0.000    0.000    0.000 
#
# Total GULP energy -50126.491534 kJ/mol
# GULP energy per Si atom -5569.610170 kJ/mol
# Density = 2.674020 g / cm^3
# Si number density = 26.801202 Si / 1000 Ang^3
#
#
#
# Elastic Constant Matrix: (Units=GPa)
#
#
# Indices 1 2 3 4 5 6 
#
# 1 265.3348 110.1693 122.9064 0.0000 0.0000 0.0000
# 2 110.1693 277.8249 102.9968 0.0000 0.0000 0.0000
# 3 122.9064 102.9968 137.1832 0.0000 0.0000 0.0000
# 4 0.0000 0.0000 0.0000 84.2990 0.0000 0.0000
# 5 0.0000 0.0000 0.0000 0.0000 -14.4470 0.0000
# 6 0.0000 0.0000 0.0000 0.0000 0.0000 -40.4994
#
#
#
# Elastic Compliance Matrix: (Units=1/GPa)
#
#
# Indices 1 2 3 4 5 6 
#
# 1 0.006509 -0.000581 -0.005396 0.000000 0.000000 0.000000
# 2 -0.000581 0.005039 -0.003263 0.000000 0.000000 0.000000
# 3 -0.005396 -0.003263 0.014574 0.000000 0.000000 0.000000
# 4 0.000000 0.000000 0.000000 0.011863 0.000000 0.000000
# 5 0.000000 0.000000 0.000000 0.000000 -0.069219 0.000000
# 6 0.000000 0.000000 0.000000 0.000000 0.000000 -0.024692
#
#
# Mechanical properties :
#
#
# Convention : Reuss Voigt Hill
#
# Bulk Modulus (GPa) = 130.84111 150.27643 140.55877
# Shear Modulus (GPa) = -143.27744 28.82188 -57.22778
#
# Velocity S-wave (km/s) = -7.31952 3.28288 -4.62591
# Velocity P-wave (km/s) = 4.74434 8.40013 4.90171
#
# Compressibility (1/GPa) = 0.00764286
#
# Stress axis : x y z
#
# Youngs Moduli (GPa) = 153.62276 198.43292 68.61598
#
# Poissons Ratio (x) = 0.11527 0.37024
# Poissons Ratio (y) = 0.08924 0.22391
# Poissons Ratio (z) = 0.82893 0.64753
#
# Static dielectric constant tensor:
#      x y z
#    x 2.278210 0.000000 0.000000 
#    y 0.000000 2.064920 0.000000 
#    z 0.000000 0.000000 2.890390 
# 
# From -- ./inp_files/96.got.cif
#   From: 2010.05.17/outbox.cif.g08.bks.cpg/sg23_1_cif.got.tgz:96.got - 2010.06.04 12:02:01.
