data_PCOD9332618
_publ_section_title
;
Structure prediction by ZEFSAII (Michael W. Deem and Ramdas Pophale) SiO2 
 PCOD9332618
Probable space group: I 2 2 2
;
_chemical_formula_sum "Si O2"
_cell_formula_units_Z 32
_cell_length_a 23.828842
_cell_length_b 8.310683
_cell_length_c 7.063970
_cell_angle_alpha 90.000000
_cell_angle_beta 90.000000
_cell_angle_gamma 90.000000
_cell_volume 1398.905897
_symmetry_space_group_name_H-M "I 2 2 2"
_symmetry_group_IT_number 23
_symmetry_cell_setting 'orthorhombic'
loop_
_space_group_symop_operation_xyz
x,y,z
-x,-y,z
x,-y,-z
-x,y,-z
1/2+x,1/2+y,1/2+z
1/2-x,1/2-y,1/2+z
1/2+x,1/2-y,1/2-z
1/2-x,1/2+y,1/2-z
loop_
_atom_site_type_symbol
_atom_site_label
_atom_site_fract_x
_atom_site_fract_y
_atom_site_fract_z
Si Si1 0.618497 0.846316 0.131110
Si Si2 0.439063 0.544827 0.776207
Si Si3 0.330886 0.644586 0.211038
Si Si4 0.280591 0.975513 0.229856
O O1 0.572904 0.735870 0.233278
O O2 0.666654 0.909002 0.271421
O O3 0.647480 0.722538 0.984561
O O4 0.599707 0.000000 0.000000
O O5 0.500000 0.500000 0.700638
O O6 0.385989 0.440058 0.702668
O O7 0.441359 0.500000 0.000000
O O8 0.280276 0.519970 0.198634
O O9 0.300020 0.800475 0.298664
O O10 0.276344 0.000000 0.000000
#
# Coordination Sequence:
#
# PCOD9332618 Si02
#       4
#     8   8   8   8
#     4   8  16  28  42  64  88 114 148 182 219 264
#     4   9  16  27  42  62  87 117 148 177 218 266
#     4   9  16  27  42  60  88 115 140 179 219 258
#     4   9  17  28  44  67  89 113 146 181 221 268
#
# _framework density 22.875019999999999
#
# number of rings (size 3 to 8) (size 9 to 14) (size 15 to 20)
#    0.000    3.750    0.000    1.500    0.000    2.000 
#    0.000   22.500    0.000    0.750    0.000    0.000 
#    0.000   16.000    0.000    0.000    0.000    0.000 
#
# Total GULP energy -89116.027018 kJ/mol
# GULP energy per Si atom -5569.751689 kJ/mol
# Density = 2.282296 g / cm^3
# Si number density = 22.875020 Si / 1000 Ang^3
#
#
#
# Elastic Constant Matrix: (Units=GPa)
#
#
# Indices 1 2 3 4 5 6 
#
# 1 216.7932 132.1159 5.8235 0.0000 0.0000 0.0000
# 2 132.1159 164.4491 18.8260 0.0000 0.0000 0.0000
# 3 5.8235 18.8260 68.3585 0.0000 0.0000 0.0000
# 4 0.0000 0.0000 0.0000 12.3477 0.0000 0.0000
# 5 0.0000 0.0000 0.0000 0.0000 7.7367 0.0000
# 6 0.0000 0.0000 0.0000 0.0000 0.0000 35.6241
#
#
#
# Elastic Compliance Matrix: (Units=1/GPa)
#
#
# Indices 1 2 3 4 5 6 
#
# 1 0.009145 -0.007494 0.001285 0.000000 0.000000 0.000000
# 2 -0.007494 0.012420 -0.002782 0.000000 0.000000 0.000000
# 3 0.001285 -0.002782 0.015285 0.000000 0.000000 0.000000
# 4 0.000000 0.000000 0.000000 0.080987 0.000000 0.000000
# 5 0.000000 0.000000 0.000000 0.000000 0.129253 0.000000
# 6 0.000000 0.000000 0.000000 0.000000 0.000000 0.028071
#
#
# Mechanical properties :
#
#
# Convention : Reuss Voigt Hill
#
# Bulk Modulus (GPa) = 53.00002 84.79238 68.89620
# Shear Modulus (GPa) = 16.69818 30.66408 23.68113
#
# Velocity S-wave (km/s) = 2.70474 3.66526 3.22100
# Velocity P-wave (km/s) = 5.74228 7.42027 6.63454
#
# Compressibility (1/GPa) = 0.01886792
#
# Stress axis : x y z
#
# Youngs Moduli (GPa) = 109.34660 80.51439 65.42150
#
# Poissons Ratio (x) = 0.60339 -0.08405
# Poissons Ratio (y) = 0.81947 0.18201
# Poissons Ratio (z) = -0.14049 0.22400
#
# Static dielectric constant tensor:
#      x y z
#    x 1.921640 0.000000 0.000000 
#    y 0.000000 1.807720 0.000000 
#    z 0.000000 0.000000 1.982110 
# 
# From -- ./inp_files/6825.got.cif
#   From: 2010.05.17/outbox.cif.g08.bks.cpg/sg23_4_cif.got.tgz:6825.got - 2010.06.04 12:02:01.
