data_PCOD9332066
_publ_section_title
;
Structure prediction by ZEFSAII (Michael W. Deem and Ramdas Pophale) SiO2 
 PCOD9332066
Probable space group: I 2 2 2
;
_chemical_formula_sum "Si O2"
_cell_formula_units_Z 48
_cell_length_a 17.612869
_cell_length_b 9.181612
_cell_length_c 15.495428
_cell_angle_alpha 90.000000
_cell_angle_beta 90.000000
_cell_angle_gamma 90.000000
_cell_volume 2505.835846
_symmetry_space_group_name_H-M "I 2 2 2"
_symmetry_group_IT_number 23
_symmetry_cell_setting 'orthorhombic'
loop_
_space_group_symop_operation_xyz
x,y,z
-x,-y,z
x,-y,-z
-x,y,-z
1/2+x,1/2+y,1/2+z
1/2-x,1/2-y,1/2+z
1/2+x,1/2-y,1/2-z
1/2-x,1/2+y,1/2-z
loop_
_atom_site_type_symbol
_atom_site_label
_atom_site_fract_x
_atom_site_fract_y
_atom_site_fract_z
Si Si1 0.289128 0.161277 0.963918
Si Si2 0.113441 0.403205 0.294021
Si Si3 0.746522 0.522973 0.785109
Si Si4 0.368617 0.597475 0.922084
Si Si5 0.826498 0.191502 0.167168
Si Si6 0.955208 0.724667 0.718204
O O1 0.344619 0.150491 0.880446
O O2 0.206210 0.206959 0.928353
O O3 0.324125 0.269381 0.033322
O O4 0.284313 0.000000 0.000000
O O5 0.176389 0.427395 0.220026
O O6 0.078140 0.565123 0.307441
O O7 0.044704 0.295916 0.272561
O O8 0.693527 0.493306 0.867053
O O9 0.777169 0.686637 0.780655
O O10 0.698015 0.465610 0.703908
O O11 0.429881 0.663061 0.856093
O O12 0.399770 0.500000 0.000000
O O13 0.911881 0.226100 0.194697
#
# Coordination Sequence:
#
# PCOD9332066 Si02
#       6
#     8   8   8   8   8   8
#     4  11  20  33  52  79 109 142 179 218 273 327
#     4   9  18  34  54  77 103 140 184 214 263 328
#     4   9  18  32  53  74 101 137 182 222 258 317
#     4  11  20  33  52  79 113 138 172 228 277 317
#     4   9  18  32  53  76 101 137 184 221 257 316
#     4   9  18  34  54  77 104 141 178 220 263 321
#
# _framework density 19.155284999999999
#
# number of rings (size 3 to 8) (size 9 to 14) (size 15 to 20)
#    0.000    2.333    3.333    0.000    2.333    0.667 
#    0.000    1.667    0.000    1.000    0.000    1.167 
#    0.000    0.000    0.000    0.000    0.000    0.000 
#
# Total GULP energy -133755.736360 kJ/mol
# GULP energy per Si atom -5573.155682 kJ/mol
# Density = 1.911169 g / cm^3
# Si number density = 19.155285 Si / 1000 Ang^3
#
#
#
# Elastic Constant Matrix: (Units=GPa)
#
#
# Indices 1 2 3 4 5 6 
#
# 1 96.0419 13.8012 18.6153 0.0000 0.0000 0.0000
# 2 13.8012 52.5949 4.3564 0.0000 0.0000 0.0000
# 3 18.6153 4.3564 8.1390 0.0000 0.0000 0.0000
# 4 0.0000 0.0000 0.0000 21.5472 0.0000 0.0000
# 5 0.0000 0.0000 0.0000 0.0000 13.6967 0.0000
# 6 0.0000 0.0000 0.0000 0.0000 0.0000 22.9469
#
#
#
# Elastic Compliance Matrix: (Units=1/GPa)
#
#
# Indices 1 2 3 4 5 6 
#
# 1 0.018807 -0.001436 -0.042246 0.000000 0.000000 0.000000
# 2 -0.001436 0.020005 -0.007424 0.000000 0.000000 0.000000
# 3 -0.042246 -0.007424 0.223462 0.000000 0.000000 0.000000
# 4 0.000000 0.000000 0.000000 0.046410 0.000000 0.000000
# 5 0.000000 0.000000 0.000000 0.000000 0.073010 0.000000
# 6 0.000000 0.000000 0.000000 0.000000 0.000000 0.043579
#
#
# Mechanical properties :
#
#
# Convention : Reuss Voigt Hill
#
# Bulk Modulus (GPa) = 6.24751 25.59128 15.91940
# Shear Modulus (GPa) = 8.60825 19.63835 14.12330
#
# Velocity S-wave (km/s) = 2.12219 3.20538 2.71828
# Velocity P-wave (km/s) = 3.04524 5.20463 4.26390
#
# Compressibility (1/GPa) = 0.16006366
#
# Stress axis : x y z
#
# Youngs Moduli (GPa) = 53.17250 49.98769 4.47502
#
# Poissons Ratio (x) = 0.07177 0.18905
# Poissons Ratio (y) = 0.07635 0.03322
# Poissons Ratio (z) = 2.24631 0.37109
#
# Static dielectric constant tensor:
#      x y z
#    x 1.685550 0.000000 0.000000 
#    y 0.000000 1.700540 0.000000 
#    z 0.000000 0.000000 1.664490 
# 
# From -- ./inp_files/9939.got.cif
#   From: 2010.05.17/outbox.cif.g08.bks.cpg/sg23_5_cif.got.tgz:9939.got - 2010.06.04 12:02:01.
