data_PCOD9332073
_publ_section_title
;
Structure prediction by ZEFSAII (Michael W. Deem and Ramdas Pophale) SiO2 
 PCOD9332073
Probable space group: I 2 2 2
;
_chemical_formula_sum "Si O2"
_cell_formula_units_Z 40
_cell_length_a 20.600214
_cell_length_b 12.153720
_cell_length_c 8.109013
_cell_angle_alpha 90.000000
_cell_angle_beta 90.000000
_cell_angle_gamma 90.000000
_cell_volume 2030.247364
_symmetry_space_group_name_H-M "I 2 2 2"
_symmetry_group_IT_number 23
_symmetry_cell_setting 'orthorhombic'
loop_
_space_group_symop_operation_xyz
x,y,z
-x,-y,z
x,-y,-z
-x,y,-z
1/2+x,1/2+y,1/2+z
1/2-x,1/2-y,1/2+z
1/2+x,1/2-y,1/2-z
1/2-x,1/2+y,1/2-z
loop_
_atom_site_type_symbol
_atom_site_label
_atom_site_fract_x
_atom_site_fract_y
_atom_site_fract_z
Si Si1 0.155391 0.247305 0.324847
Si Si2 0.428936 0.541070 0.187839
Si Si3 0.704960 0.213233 0.807941
Si Si4 0.824889 0.481278 0.812693
Si Si5 0.193536 0.934049 0.160192
O O1 0.093027 0.168792 0.307474
O O2 0.216770 0.203886 0.215620
O O3 0.181761 0.245913 0.513026
O O4 0.144087 0.373554 0.270433
O O5 0.500000 0.500000 0.238882
O O6 0.375461 0.481952 0.297008
O O7 0.420802 0.500000 0.000000
O O8 0.687236 0.302443 0.666948
O O9 0.669842 0.097560 0.778188
O O10 0.747569 0.455330 0.800522
O O11 0.844765 0.500000 0.000000
O O12 0.218276 0.000000 0.000000
#
# Coordination Sequence:
#
# PCOD9332073 Si02
#       5
#     8   8   8   8   8
#     4  11  22  35  60  92 129 170 212 265 335 392
#     4  11  23  42  63  88 126 171 223 266 315 387
#     4  11  20  35  56  91 129 166 204 274 330 402
#     4  11  22  34  57  93 129 165 203 266 339 402
#     4  11  22  35  60  90 128 166 214 266 327 387
#
# _framework density 19.702033
#
# number of rings (size 3 to 8) (size 9 to 14) (size 15 to 20)
#    0.000    1.000    4.000    6.000    2.800    0.400 
#    0.000    0.000    0.000    1.200    0.000    1.400 
#    0.000    0.000    0.000    0.000    0.000    0.000 
#
# Total GULP energy -111574.141572 kJ/mol
# GULP energy per Si atom -5578.707079 kJ/mol
# Density = 1.965719 g / cm^3
# Si number density = 19.702033 Si / 1000 Ang^3
#
#
#
# Elastic Constant Matrix: (Units=GPa)
#
#
# Indices 1 2 3 4 5 6 
#
# 1 63.5072 40.6920 25.4641 0.0000 0.0000 0.0000
# 2 40.6920 179.5947 35.6046 0.0000 0.0000 0.0000
# 3 25.4641 35.6046 73.7139 0.0000 0.0000 0.0000
# 4 0.0000 0.0000 0.0000 35.4440 0.0000 0.0000
# 5 0.0000 0.0000 0.0000 0.0000 15.9443 0.0000
# 6 0.0000 0.0000 0.0000 0.0000 0.0000 25.8204
#
#
#
# Elastic Compliance Matrix: (Units=1/GPa)
#
#
# Indices 1 2 3 4 5 6 
#
# 1 0.020102 -0.003514 -0.005247 0.000000 0.000000 0.000000
# 2 -0.003514 0.006772 -0.002057 0.000000 0.000000 0.000000
# 3 -0.005247 -0.002057 0.016372 0.000000 0.000000 0.000000
# 4 0.000000 0.000000 0.000000 0.028214 0.000000 0.000000
# 5 0.000000 0.000000 0.000000 0.000000 0.062718 0.000000
# 6 0.000000 0.000000 0.000000 0.000000 0.000000 0.038729
#
#
# Mechanical properties :
#
#
# Convention : Reuss Voigt Hill
#
# Bulk Modulus (GPa) = 46.27510 57.81526 52.04518
# Shear Modulus (GPa) = 24.78362 29.77874 27.28118
#
# Velocity S-wave (km/s) = 3.55057 3.89196 3.72518
# Velocity P-wave (km/s) = 6.35194 7.04308 6.70642
#
# Compressibility (1/GPa) = 0.02160989
#
# Stress axis : x y z
#
# Youngs Moduli (GPa) = 49.74671 147.66271 61.08031
#
# Poissons Ratio (x) = 0.51896 0.32046
# Poissons Ratio (y) = 0.17483 0.12564
# Poissons Ratio (z) = 0.26100 0.30374
#
# Static dielectric constant tensor:
#      x y z
#    x 1.655150 0.000000 0.000000 
#    y 0.000000 1.793120 0.000000 
#    z 0.000000 0.000000 1.753690 
# 
# From -- ./inp_files/11808.got.cif
#   From: 2010.05.17/outbox.cif.g08.bks.cpg/sg23_6_cif.got.tgz:11808.got - 2010.06.04 12:02:01.
