data_PCOD9332268
_publ_section_title
;
Structure prediction by ZEFSAII (Michael W. Deem and Ramdas Pophale) SiO2 
 PCOD9332268
Probable space group: I 2 2 2
;
_chemical_formula_sum "Si O2"
_cell_formula_units_Z 34
_cell_length_a 11.646137
_cell_length_b 9.606910
_cell_length_c 12.977710
_cell_angle_alpha 90.000000
_cell_angle_beta 90.000000
_cell_angle_gamma 90.000000
_cell_volume 1451.990189
_symmetry_space_group_name_H-M "I 2 2 2"
_symmetry_group_IT_number 23
_symmetry_cell_setting 'orthorhombic'
loop_
_space_group_symop_operation_xyz
x,y,z
-x,-y,z
x,-y,-z
-x,y,-z
1/2+x,1/2+y,1/2+z
1/2-x,1/2-y,1/2+z
1/2+x,1/2-y,1/2-z
1/2-x,1/2+y,1/2-z
loop_
_atom_site_type_symbol
_atom_site_label
_atom_site_fract_x
_atom_site_fract_y
_atom_site_fract_z
Si Si1 0.674394 0.319280 0.631503
Si Si2 0.338486 0.011375 0.614550
Si Si3 0.000000 0.000000 0.000000
Si Si4 0.569722 0.129176 0.170819
Si Si5 0.405735 0.610756 0.851091
O O1 0.668676 0.151535 0.649079
O O2 0.588911 0.388574 0.550578
O O3 0.808925 0.348139 0.615968
O O4 0.635947 0.403465 0.733284
O O5 0.388024 0.000000 0.500000
O O6 0.400119 0.098187 0.706875
O O7 0.215978 0.088941 0.594639
O O8 0.480720 0.251503 0.151238
O O9 0.500000 0.000000 0.130748
O O10 0.500000 0.500000 0.882889
#
# Coordination Sequence:
#
# PCOD9332268 Si02
#       5
#     8   8   2   8   8
#     4  11  25  44  69 107 140 198 242 315 384 455
#     4  11  26  42  71 106 146 189 256 311 369 446
#     4  12  28  44  72 104 158 184 254 330 392 444
#     4  11  24  45  73 103 141 197 248 302 376 462
#     4  11  22  45  69  97 141 191 236 294 375 446
#
# _framework density 23.416136999999999
#
# number of rings (size 3 to 8) (size 9 to 14) (size 15 to 20)
#    0.000    0.941    5.882    0.000    3.294    2.824 
#    0.000    2.941    0.000    0.000    0.000    0.000 
#    0.000    0.000    0.000    0.000    0.000    0.000 
#
# Total GULP energy -94812.121235 kJ/mol
# GULP energy per Si atom -5577.183602 kJ/mol
# Density = 2.336284 g / cm^3
# Si number density = 23.416137 Si / 1000 Ang^3
#
#
#
# Elastic Constant Matrix: (Units=GPa)
#
#
# Indices 1 2 3 4 5 6 
#
# 1 249.6984 76.2152 38.3642 0.0000 0.0000 0.0000
# 2 76.2152 138.8201 27.0906 0.0000 0.0000 0.0000
# 3 38.3642 27.0906 63.5287 0.0000 0.0000 0.0000
# 4 0.0000 0.0000 0.0000 25.2224 0.0000 0.0000
# 5 0.0000 0.0000 0.0000 0.0000 281.3717 0.0000
# 6 0.0000 0.0000 0.0000 0.0000 0.0000 112.6923
#
#
#
# Elastic Compliance Matrix: (Units=1/GPa)
#
#
# Indices 1 2 3 4 5 6 
#
# 1 0.005041 -0.002371 -0.002033 0.000000 0.000000 0.000000
# 2 -0.002371 0.008972 -0.002394 0.000000 0.000000 0.000000
# 3 -0.002033 -0.002394 0.017990 0.000000 0.000000 0.000000
# 4 0.000000 0.000000 0.000000 0.039647 0.000000 0.000000
# 5 0.000000 0.000000 0.000000 0.000000 0.003554 0.000000
# 6 0.000000 0.000000 0.000000 0.000000 0.000000 0.008874
#
#
# Mechanical properties :
#
#
# Convention : Reuss Voigt Hill
#
# Bulk Modulus (GPa) = 54.32906 81.70969 68.01938
# Shear Modulus (GPa) = 48.16481 104.54910 76.35696
#
# Velocity S-wave (km/s) = 4.54023 6.68919 5.71660
# Velocity P-wave (km/s) = 7.12298 9.72783 8.52548
#
# Compressibility (1/GPa) = 0.01840635
#
# Stress axis : x y z
#
# Youngs Moduli (GPa) = 198.38006 111.45245 55.58714
#
# Poissons Ratio (x) = 0.26423 0.11302
# Poissons Ratio (y) = 0.47031 0.13310
# Poissons Ratio (z) = 0.40333 0.26687
#
# Static dielectric constant tensor:
#      x y z
#    x 1.994450 0.000000 0.000000 
#    y 0.000000 1.761510 0.000000 
#    z 0.000000 0.000000 1.959350 
# 
# From -- ./inp_files/7952.got.cif
#   From: 2010.05.17/outbox.cif.g08.bks.cpg/sg23_4_cif.got.tgz:7952.got - 2010.06.04 12:02:01.
