data_PCOD9332140
_publ_section_title
;
Structure prediction by ZEFSAII (Michael W. Deem and Ramdas Pophale) SiO2 
 PCOD9332140
Probable space group: I 2 2 2
;
_chemical_formula_sum "Si O2"
_cell_formula_units_Z 52
_cell_length_a 18.010667
_cell_length_b 5.524931
_cell_length_c 26.455560
_cell_angle_alpha 90.000000
_cell_angle_beta 90.000000
_cell_angle_gamma 90.000000
_cell_volume 2632.531728
_symmetry_space_group_name_H-M "I 2 2 2"
_symmetry_group_IT_number 23
_symmetry_cell_setting 'orthorhombic'
loop_
_space_group_symop_operation_xyz
x,y,z
-x,-y,z
x,-y,-z
-x,y,-z
1/2+x,1/2+y,1/2+z
1/2-x,1/2-y,1/2+z
1/2+x,1/2-y,1/2-z
1/2-x,1/2+y,1/2-z
loop_
_atom_site_type_symbol
_atom_site_label
_atom_site_fract_x
_atom_site_fract_y
_atom_site_fract_z
Si Si1 0.728128 0.002046 0.294474
Si Si2 0.726968 0.373398 0.384698
Si Si3 0.000000 0.500000 0.286335
Si Si4 0.500000 0.500000 0.273991
Si Si5 0.835522 0.369949 0.684562
Si Si6 0.110539 0.833827 0.155512
Si Si7 0.000000 0.500000 0.904500
Si Si8 0.129161 0.746463 0.968013
O O1 0.811695 0.911674 0.308317
O O2 0.670566 0.796180 0.310156
O O3 0.713031 0.210840 0.335039
O O4 0.706840 0.040407 0.236065
O O5 0.799121 0.521478 0.366541
O O6 0.658708 0.558582 0.388951
O O7 0.707374 0.234496 0.435690
O O8 0.921755 0.561184 0.313541
O O9 0.012639 0.749831 0.255422
O O10 0.569861 0.468419 0.310619
O O11 0.052454 0.654065 0.131816
O O12 0.053676 0.685424 0.935367
O O13 0.131824 0.500000 0.000000
O O14 0.123682 0.000000 0.000000
#
# Coordination Sequence:
#
# PCOD9332140 Si02
#       8
#     8   8   4   4   8   8   4   8
#     4  11  21  39  61  91 127 184 217 265 318 403
#     4  11  24  43  62  89 127 173 229 276 330 401
#     4  12  27  40  58  97 133 176 216 280 321 392
#     4  12  24  36  56  88 137 178 225 258 314 380
#     4  11  24  38  65  91 135 173 222 264 335 397
#     4  11  23  37  59  89 135 180 229 267 319 389
#     4  12  24  44  64  99 134 180 229 292 332 396
#     4  12  28  47  67  94 132 175 232 286 341 388
#
# _framework density 19.752848
#
# number of rings (size 3 to 8) (size 9 to 14) (size 15 to 20)
#    0.000    0.615    4.615    3.462    6.462    3.692 
#    0.000    0.000    0.000    0.000    0.000    0.538 
#    0.000    0.000    0.000    0.000    0.000    0.000 
#
# Total GULP energy -144796.188732 kJ/mol
# GULP energy per Si atom -5569.084182 kJ/mol
# Density = 1.970789 g / cm^3
# Si number density = 19.752848 Si / 1000 Ang^3
#
#
#
# Elastic Constant Matrix: (Units=GPa)
#
#
# Indices 1 2 3 4 5 6 
#
# 1 129.7700 34.5325 36.4001 0.0000 0.0000 0.0000
# 2 34.5325 70.1723 20.4707 0.0000 0.0000 0.0000
# 3 36.4001 20.4707 56.2168 0.0000 0.0000 0.0000
# 4 0.0000 0.0000 0.0000 17.0119 0.0000 0.0000
# 5 0.0000 0.0000 0.0000 0.0000 17.2403 0.0000
# 6 0.0000 0.0000 0.0000 0.0000 0.0000 36.9709
#
#
#
# Elastic Compliance Matrix: (Units=1/GPa)
#
#
# Indices 1 2 3 4 5 6 
#
# 1 0.010103 -0.003427 -0.005293 0.000000 0.000000 0.000000
# 2 -0.003427 0.017107 -0.004010 0.000000 0.000000 0.000000
# 3 -0.005293 -0.004010 0.022676 0.000000 0.000000 0.000000
# 4 0.000000 0.000000 0.000000 0.058782 0.000000 0.000000
# 5 0.000000 0.000000 0.000000 0.000000 0.058004 0.000000
# 6 0.000000 0.000000 0.000000 0.000000 0.000000 0.027048
#
#
# Mechanical properties :
#
#
# Convention : Reuss Voigt Hill
#
# Bulk Modulus (GPa) = 40.94348 48.77398 44.85873
# Shear Modulus (GPa) = 21.99508 25.22835 23.61171
#
# Velocity S-wave (km/s) = 3.34056 3.57767 3.46114
# Velocity P-wave (km/s) = 5.97093 6.46622 6.22350
#
# Compressibility (1/GPa) = 0.02442391
#
# Stress axis : x y z
#
# Youngs Moduli (GPa) = 98.98240 58.45506 44.09947
#
# Poissons Ratio (x) = 0.20035 0.23344
# Poissons Ratio (y) = 0.33926 0.17684
# Poissons Ratio (z) = 0.52396 0.23441
#
# Static dielectric constant tensor:
#      x y z
#    x 1.793620 0.000000 0.000000 
#    y 0.000000 1.938750 0.000000 
#    z 0.000000 0.000000 1.854860 
# 
# From -- ./inp_files/25426.got.cif
#   From: 2010.05.17/outbox.cif.g08.bks.cpg/sg23_13_cif.got.tgz:25426.got - 2010.06.04 12:02:01.
