data_PCOD9332330
_publ_section_title
;
Structure prediction by ZEFSAII (Michael W. Deem and Ramdas Pophale) SiO2 
 PCOD9332330
Probable space group: I 2 2 2
;
_chemical_formula_sum "Si O2"
_cell_formula_units_Z 38
_cell_length_a 14.621688
_cell_length_b 10.949043
_cell_length_c 11.710928
_cell_angle_alpha 90.000000
_cell_angle_beta 90.000000
_cell_angle_gamma 90.000000
_cell_volume 1874.843342
_symmetry_space_group_name_H-M "I 2 2 2"
_symmetry_group_IT_number 23
_symmetry_cell_setting 'orthorhombic'
loop_
_space_group_symop_operation_xyz
x,y,z
-x,-y,z
x,-y,-z
-x,y,-z
1/2+x,1/2+y,1/2+z
1/2-x,1/2-y,1/2+z
1/2+x,1/2-y,1/2-z
1/2-x,1/2+y,1/2-z
loop_
_atom_site_type_symbol
_atom_site_label
_atom_site_fract_x
_atom_site_fract_y
_atom_site_fract_z
Si Si1 0.647428 0.270544 0.661872
Si Si2 0.000000 0.837208 0.000000
Si Si3 0.163003 0.054662 0.153193
Si Si4 0.183379 0.114362 0.412784
Si Si5 0.500000 0.000000 0.000000
Si Si6 0.354766 0.816957 0.910967
O O1 0.556943 0.258753 0.588607
O O2 0.681451 0.409876 0.643900
O O3 0.717234 0.168495 0.618667
O O4 0.629612 0.256511 0.795106
O O5 0.074686 0.907595 0.921018
O O6 0.144460 0.083089 0.287208
O O7 0.252713 0.125925 0.106721
O O8 0.138235 0.226480 0.481305
O O9 0.185560 0.000000 0.500000
O O10 0.568592 0.080921 0.924893
#
# Coordination Sequence:
#
# PCOD9332330 Si02
#       6
#     8   4   8   8   2   8
#     4  11  23  43  69 102 137 179 233 290 350 424
#     4  12  25  42  71 108 133 182 234 287 354 427
#     4  11  23  44  76 100 142 182 236 292 355 425
#     4  11  23  45  72 101 142 186 232 296 353 415
#     4  12  28  48  70  96 140 188 236 290 350 438
#     4  11  25  46  70 102 139 184 235 288 355 420
#
# _framework density 20.268360000000001
#
# number of rings (size 3 to 8) (size 9 to 14) (size 15 to 20)
#    0.000    0.842    4.211    3.158    2.947    0.000 
#    7.579    0.526    0.000    0.000    0.000    0.000 
#    0.000    0.000    0.000    0.000    0.000    0.000 
#
# Total GULP energy -106096.792914 kJ/mol
# GULP energy per Si atom -5584.041732 kJ/mol
# Density = 2.022223 g / cm^3
# Si number density = 20.268360 Si / 1000 Ang^3
#
#
#
# Elastic Constant Matrix: (Units=GPa)
#
#
# Indices 1 2 3 4 5 6 
#
# 1 96.5558 33.6311 60.6365 0.0000 0.0000 0.0000
# 2 33.6311 75.3261 41.0226 0.0000 0.0000 0.0000
# 3 60.6365 41.0226 173.3392 0.0000 0.0000 0.0000
# 4 0.0000 0.0000 0.0000 -19.3568 0.0000 0.0000
# 5 0.0000 0.0000 0.0000 0.0000 37.3289 0.0000
# 6 0.0000 0.0000 0.0000 0.0000 0.0000 30.7511
#
#
#
# Elastic Compliance Matrix: (Units=1/GPa)
#
#
# Indices 1 2 3 4 5 6 
#
# 1 0.014352 -0.004217 -0.004022 0.000000 0.000000 0.000000
# 2 -0.004217 0.016479 -0.002425 0.000000 0.000000 0.000000
# 3 -0.004022 -0.002425 0.007750 0.000000 0.000000 0.000000
# 4 0.000000 0.000000 0.000000 -0.051662 0.000000 0.000000
# 5 0.000000 0.000000 0.000000 0.000000 0.026789 0.000000
# 6 0.000000 0.000000 0.000000 0.000000 0.000000 0.032519
#
#
# Mechanical properties :
#
#
# Convention : Reuss Voigt Hill
#
# Bulk Modulus (GPa) = 57.96369 68.42239 63.19304
# Shear Modulus (GPa) = 68.20730 23.74004 45.97367
#
# Velocity S-wave (km/s) = 5.80734 3.42612 4.76778
# Velocity P-wave (km/s) = 8.58062 7.03438 7.84569
#
# Compressibility (1/GPa) = 0.01725218
#
# Stress axis : x y z
#
# Youngs Moduli (GPa) = 69.67891 60.68363 129.03290
#
# Poissons Ratio (x) = 0.25590 0.51902
# Poissons Ratio (y) = 0.29384 0.31287
# Poissons Ratio (z) = 0.28027 0.14714
#
# Static dielectric constant tensor:
#      x y z
#    x 1.716250 0.000000 0.000000 
#    y 0.000000 1.739520 0.000000 
#    z 0.000000 0.000000 1.737430 
# 
# From -- ./inp_files/16530.got.cif
#   From: 2010.05.17/outbox.cif.g08.bks.cpg/sg23_9_cif.got.tgz:16530.got - 2010.06.04 12:02:01.
