data_PCOD9332317
_publ_section_title
;
Structure prediction by ZEFSAII (Michael W. Deem and Ramdas Pophale) SiO2 
 PCOD9332317
Probable space group: I 2 2 2
;
_chemical_formula_sum "Si O2"
_cell_formula_units_Z 56
_cell_length_a 9.702953
_cell_length_b 16.072746
_cell_length_c 15.825583
_cell_angle_alpha 90.000000
_cell_angle_beta 90.000000
_cell_angle_gamma 90.000000
_cell_volume 2468.048713
_symmetry_space_group_name_H-M "I 2 2 2"
_symmetry_group_IT_number 23
_symmetry_cell_setting 'orthorhombic'
loop_
_space_group_symop_operation_xyz
x,y,z
-x,-y,z
x,-y,-z
-x,y,-z
1/2+x,1/2+y,1/2+z
1/2-x,1/2-y,1/2+z
1/2+x,1/2-y,1/2-z
1/2-x,1/2+y,1/2-z
loop_
_atom_site_type_symbol
_atom_site_label
_atom_site_fract_x
_atom_site_fract_y
_atom_site_fract_z
Si Si1 0.014503 0.401620 0.102221
Si Si2 0.351668 0.854641 0.910167
Si Si3 0.348534 0.523486 0.328075
Si Si4 0.457258 0.582997 0.152539
Si Si5 0.764100 0.712673 0.844157
Si Si6 0.659880 0.881592 0.898558
Si Si7 0.217975 0.192877 0.666987
O O1 0.157635 0.364041 0.135618
O O2 0.000000 0.500000 0.123171
O O3 0.899279 0.342561 0.144432
O O4 0.000000 0.394488 0.000000
O O5 0.220429 0.895539 0.866792
O O6 0.501809 0.870140 0.867906
O O7 0.329150 0.756052 0.906682
O O8 0.353645 0.896032 0.001974
O O9 0.500000 0.500000 0.362792
O O10 0.372421 0.544044 0.230518
O O11 0.239227 0.451827 0.347745
O O12 0.500000 0.500000 0.101548
O O13 0.356978 0.653963 0.119243
O O14 0.589403 0.633064 0.186358
O O15 0.751939 0.798849 0.893373
O O16 0.748618 0.748403 0.748066
#
# Coordination Sequence:
#
# PCOD9332317 Si02
#       7
#     8   8   8   8   8   8   8
#     4  11  27  49  74 107 147 196 248 304 370 439
#     4  11  24  44  67 101 141 197 236 292 371 439
#     4  11  24  43  66 101 142 181 235 291 356 434
#     4  11  23  42  65 100 137 179 233 289 354 420
#     4  12  23  44  70 107 137 183 243 294 368 428
#     4  11  25  43  69  99 145 188 242 295 362 447
#     4  12  24  45  72 102 147 184 241 303 362 441
#
# _framework density 22.689988
#
# number of rings (size 3 to 8) (size 9 to 14) (size 15 to 20)
#    0.000    0.714    2.857    5.143    2.000    2.286 
#    0.000    0.000    0.000    3.429    0.000    0.000 
#    0.000    0.000    0.000    0.000    0.000    0.000 
#
# Total GULP energy -156417.124108 kJ/mol
# GULP energy per Si atom -5586.325861 kJ/mol
# Density = 2.263834 g / cm^3
# Si number density = 22.689988 Si / 1000 Ang^3
#
#
#
# Elastic Constant Matrix: (Units=GPa)
#
#
# Indices 1 2 3 4 5 6 
#
# 1 130.9615 48.4284 14.3657 0.0000 0.0000 0.0000
# 2 48.4284 149.5404 25.4343 0.0000 0.0000 0.0000
# 3 14.3657 25.4343 62.0334 0.0000 0.0000 0.0000
# 4 0.0000 0.0000 0.0000 -84.1666 0.0000 0.0000
# 5 0.0000 0.0000 0.0000 0.0000 10.0044 0.0000
# 6 0.0000 0.0000 0.0000 0.0000 0.0000 53.2063
#
#
#
# Elastic Compliance Matrix: (Units=1/GPa)
#
#
# Indices 1 2 3 4 5 6 
#
# 1 0.008724 -0.002668 -0.000927 0.000000 0.000000 0.000000
# 2 -0.002668 0.008004 -0.002664 0.000000 0.000000 0.000000
# 3 -0.000927 -0.002664 0.017427 0.000000 0.000000 0.000000
# 4 0.000000 0.000000 0.000000 -0.011881 0.000000 0.000000
# 5 0.000000 0.000000 0.000000 0.000000 0.099956 0.000000
# 6 0.000000 0.000000 0.000000 0.000000 0.000000 0.018795
#
#
# Mechanical properties :
#
#
# Convention : Reuss Voigt Hill
#
# Bulk Modulus (GPa) = 46.21303 57.66581 51.93942
# Shear Modulus (GPa) = 31.10332 12.76259 21.93295
#
# Velocity S-wave (km/s) = 3.70644 2.37423 3.11245
# Velocity P-wave (km/s) = 6.22321 5.74333 5.98808
#
# Compressibility (1/GPa) = 0.02163892
#
# Stress axis : x y z
#
# Youngs Moduli (GPa) = 114.62714 124.93480 57.38155
#
# Poissons Ratio (x) = 0.33328 0.05317
# Poissons Ratio (y) = 0.30578 0.15287
# Poissons Ratio (z) = 0.10621 0.33283
#
# Static dielectric constant tensor:
#      x y z
#    x 1.864380 0.000000 0.000000 
#    y 0.000000 1.859730 0.000000 
#    z 0.000000 0.000000 1.915970 
# 
# From -- ./inp_files/26271.got.cif
#   From: 2010.05.17/outbox.cif.g08.bks.cpg/sg23_14_cif.got.tgz:26271.got - 2010.06.04 12:02:01.
