data_PCOD9332659
_publ_section_title
;
Structure prediction by ZEFSAII (Michael W. Deem and Ramdas Pophale) SiO2 
 PCOD9332659
Probable space group: I 2 2 2
;
_chemical_formula_sum "Si O2"
_cell_formula_units_Z 26
_cell_length_a 21.000000
_cell_length_b 21.000000
_cell_length_c 6.000000
_cell_angle_alpha 90.000000
_cell_angle_beta 90.000000
_cell_angle_gamma 90.000000
_cell_volume 2646.000000
_symmetry_space_group_name_H-M "I 2 2 2"
_symmetry_group_IT_number 23
_symmetry_cell_setting 'orthorhombic'
loop_
_space_group_symop_operation_xyz
x,y,z
-x,-y,z
x,-y,-z
-x,y,-z
1/2+x,1/2+y,1/2+z
1/2-x,1/2-y,1/2+z
1/2+x,1/2-y,1/2-z
1/2-x,1/2+y,1/2-z
loop_
_atom_site_type_symbol
_atom_site_label
_atom_site_fract_x
_atom_site_fract_y
_atom_site_fract_z
Si Si1 0.833499 0.791925 0.243585
Si Si2 0.534724 0.158591 0.747271
Si Si3 0.933861 0.799493 0.615617
Si Si4 0.276311 0.828305 0.436346
Si Si5 0.668002 0.619431 0.362683
Si Si6 0.249894 0.000000 0.000000
Si Si7 0.851097 0.560605 0.852606
O O1 0.886001 0.777256 0.424029
O O2 0.766338 0.808598 0.354802
O O3 0.824618 0.728485 0.103574
O O4 0.849646 0.854330 0.104636
O O5 0.500000 0.148073 0.500000
O O6 0.553943 0.234283 0.744317
O O7 0.592728 0.106335 0.745445
O O8 0.500000 0.151800 0.000000
O O9 0.894823 0.858852 0.724427
O O10 0.000000 0.819016 0.500000
O O11 0.226032 0.838037 0.236661
O O12 0.312441 0.893364 0.481402
O O13 0.701303 0.550355 0.380950
O O14 0.298656 0.964183 0.829046
O O15 0.874345 0.500000 0.000000
#
# Coordination Sequence:
#
# PCOD9332659 Si02
#       7
#     8   8   8   8   8   4   8
#     4  11  22  38  67 102 139 170 227 300 369 426
#     4  11  29  51  74 109 148 196 255 307 361 433
#     4  10  26  44  72 102 137 186 237 304 369 435
#     4  11  22  37  63 105 132 176 226 297 369 430
#     4  11  23  40  67  99 140 180 230 294 367 435
#     4  12  26  44  67 105 142 190 240 298 368 446
#     4  12  27  44  70  97 148 196 243 296 361 439
#
# _framework density 9.8261529999999997
#
# number of rings (size 3 to 8) (size 9 to 14) (size 15 to 20)
#    0.000    0.923    4.615    0.923   15.077    0.308 
#    0.000    0.000    0.000    2.769    0.000    0.000 
#    0.000    0.000    0.000    0.000    0.000    0.000 
#
# Total GULP energy -144852.935042 kJ/mol
# GULP energy per Si atom -5571.266732 kJ/mol
# Density = 0.980379 g / cm^3
# Si number density = 9.826153 Si / 1000 Ang^3
#
#
#
# Elastic Constant Matrix: (Units=GPa)
#
#
# Indices 1 2 3 4 5 6 
#
# 1 109.1191 58.9553 41.4049 0.0000 0.0000 0.0000
# 2 58.9553 101.0382 26.1325 0.0000 0.0000 0.0000
# 3 41.4049 26.1325 74.1364 0.0000 0.0000 0.0000
# 4 0.0000 0.0000 0.0000 30.5292 0.0000 0.0000
# 5 0.0000 0.0000 0.0000 0.0000 21.8416 0.0000
# 6 0.0000 0.0000 0.0000 0.0000 0.0000 34.8736
#
#
#
# Elastic Compliance Matrix: (Units=1/GPa)
#
#
# Indices 1 2 3 4 5 6 
#
# 1 0.015488 -0.007482 -0.006013 0.000000 0.000000 0.000000
# 2 -0.007482 0.014505 -0.000934 0.000000 0.000000 0.000000
# 3 -0.006013 -0.000934 0.017176 0.000000 0.000000 0.000000
# 4 0.000000 0.000000 0.000000 0.032756 0.000000 0.000000
# 5 0.000000 0.000000 0.000000 0.000000 0.045784 0.000000
# 6 0.000000 0.000000 0.000000 0.000000 0.000000 0.028675
#
#
# Mechanical properties :
#
#
# Convention : Reuss Voigt Hill
#
# Bulk Modulus (GPa) = 54.61185 59.69766 57.15476
# Shear Modulus (GPa) = 26.40678 27.96895 27.18786
#
# Velocity S-wave (km/s) = 3.66963 3.77661 3.72350
# Velocity P-wave (km/s) = 6.76788 7.03277 6.90160
#
# Compressibility (1/GPa) = 0.01831104
#
# Stress axis : x y z
#
# Youngs Moduli (GPa) = 64.56469 68.94337 58.22083
#
# Poissons Ratio (x) = 0.51585 0.35007
# Poissons Ratio (y) = 0.48309 0.05438
# Poissons Ratio (z) = 0.38821 0.06439
#
# Static dielectric constant tensor:
#      x y z
#    x 1.715380 0.000000 0.000000 
#    y 0.000000 1.696550 0.000000 
#    z 0.000000 0.000000 1.774820 
# 
# From -- ./inp_files/3930.got.cif
#   From: 2010.05.17/outbox.ucp.g08.bks.cvg/sg23_2_cif.got.tgz:3930.got - 2010.06.11 15:19:07.
