data_PCOD9332232
_publ_section_title
;
Structure prediction by ZEFSAII (Michael W. Deem and Ramdas Pophale) SiO2 
 PCOD9332232
Probable space group: I 2 2 2
;
_chemical_formula_sum "Si O2"
_cell_formula_units_Z 64
_cell_length_a 14.530946
_cell_length_b 8.576020
_cell_length_c 24.991659
_cell_angle_alpha 90.000000
_cell_angle_beta 90.000000
_cell_angle_gamma 90.000000
_cell_volume 3114.402652
_symmetry_space_group_name_H-M "I 2 2 2"
_symmetry_group_IT_number 23
_symmetry_cell_setting 'orthorhombic'
loop_
_space_group_symop_operation_xyz
x,y,z
-x,-y,z
x,-y,-z
-x,y,-z
1/2+x,1/2+y,1/2+z
1/2-x,1/2-y,1/2+z
1/2+x,1/2-y,1/2-z
1/2-x,1/2+y,1/2-z
loop_
_atom_site_type_symbol
_atom_site_label
_atom_site_fract_x
_atom_site_fract_y
_atom_site_fract_z
Si Si1 0.790829 0.685647 0.303609
Si Si2 0.819226 0.319165 0.295364
Si Si3 0.259463 0.827139 0.002473
Si Si4 0.485380 0.683621 0.169387
Si Si5 0.210712 0.686176 0.895809
Si Si6 0.679991 0.819145 0.399778
Si Si7 0.542844 0.172290 0.053417
Si Si8 0.490365 0.810908 0.438474
O O1 0.810936 0.504723 0.295091
O O2 0.720973 0.750302 0.259364
O O3 0.742427 0.717624 0.360610
O O4 0.889629 0.770789 0.302399
O O5 0.924054 0.267800 0.307210
O O6 0.753492 0.255868 0.342532
O O7 0.201070 0.709115 0.037866
O O8 0.352039 0.849031 0.036441
O O9 0.273041 0.749601 0.944813
O O10 0.216735 0.000000 0.000000
O O11 0.500000 0.500000 0.172723
O O12 0.472867 0.734455 0.107457
O O13 0.203557 0.499582 0.889201
O O14 0.107694 0.734707 0.913651
O O15 0.573234 0.770515 0.398017
O O16 0.500000 0.000000 0.060508
O O17 0.500000 0.247332 0.000000
O O18 0.500000 0.753175 0.500000
O O19 0.500000 0.000000 0.441542
#
# Coordination Sequence:
#
# PCOD9332232 Si02
#       8
#     8   8   8   8   8   8   8   8
#     4  12  26  49  71 100 134 176 225 276 344 401
#     4  12  27  47  73  99 135 176 222 281 339 405
#     4  12  22  37  61  94 135 178 220 275 336 403
#     4  12  26  46  70 101 134 172 225 279 332 401
#     4  11  23  41  66  98 133 177 230 280 338 402
#     4  11  22  41  67  95 134 177 228 280 337 404
#     4  11  22  40  60  90 133 181 221 268 334 402
#     4   9  18  37  62  92 131 177 220 272 331 390
#
# _framework density 20.549686999999999
#
# number of rings (size 3 to 8) (size 9 to 14) (size 15 to 20)
#    0.000    0.750    3.750    5.250    0.000    1.250 
#    2.250    6.875    0.000    0.000    0.000    0.000 
#    0.000    0.000    0.000    0.000    0.000    0.000 
#
# Total GULP energy -178828.778921 kJ/mol
# GULP energy per Si atom -5588.399341 kJ/mol
# Density = 2.050291 g / cm^3
# Si number density = 20.549687 Si / 1000 Ang^3
#
#
#
# Elastic Constant Matrix: (Units=GPa)
#
#
# Indices 1 2 3 4 5 6 
#
# 1 114.1206 22.5456 16.8908 0.0000 0.0000 0.0000
# 2 22.5456 89.9290 5.7860 0.0000 0.0000 0.0000
# 3 16.8908 5.7860 80.6857 0.0000 0.0000 0.0000
# 4 0.0000 0.0000 0.0000 36.4123 0.0000 0.0000
# 5 0.0000 0.0000 0.0000 0.0000 24.3541 0.0000
# 6 0.0000 0.0000 0.0000 0.0000 0.0000 19.5236
#
#
#
# Elastic Compliance Matrix: (Units=1/GPa)
#
#
# Indices 1 2 3 4 5 6 
#
# 1 0.009479 -0.002259 -0.001822 0.000000 0.000000 0.000000
# 2 -0.002259 0.011710 -0.000367 0.000000 0.000000 0.000000
# 3 -0.001822 -0.000367 0.012802 0.000000 0.000000 0.000000
# 4 0.000000 0.000000 0.000000 0.027463 0.000000 0.000000
# 5 0.000000 0.000000 0.000000 0.000000 0.041061 0.000000
# 6 0.000000 0.000000 0.000000 0.000000 0.000000 0.051220
#
#
# Mechanical properties :
#
#
# Convention : Reuss Voigt Hill
#
# Bulk Modulus (GPa) = 39.85059 41.68669 40.76864
# Shear Modulus (GPa) = 29.24061 32.02554 30.63307
#
# Velocity S-wave (km/s) = 3.77626 3.95200 3.86513
# Velocity P-wave (km/s) = 6.20064 6.41515 6.30881
#
# Compressibility (1/GPa) = 0.02509373
#
# Stress axis : x y z
#
# Youngs Moduli (GPa) = 105.49997 85.39822 78.11555
#
# Poissons Ratio (x) = 0.19292 0.14235
# Poissons Ratio (y) = 0.23834 0.02865
# Poissons Ratio (z) = 0.19225 0.03132
#
# Static dielectric constant tensor:
#      x y z
#    x 1.797450 0.000000 0.000000 
#    y 0.000000 1.712120 0.000000 
#    z 0.000000 0.000000 1.697570 
# 
# From -- ./inp_files/28560.got.cif
#   From: 2010.05.17/outbox.cif.g08.bks.cpg/sg23_15_cif.got.tgz:28560.got - 2010.06.04 12:02:01.
