data_PCOD9332397
_publ_section_title
;
Structure prediction by ZEFSAII (Michael W. Deem and Ramdas Pophale) SiO2 
 PCOD9332397
Probable space group: I 2 2 2
;
_chemical_formula_sum "Si O2"
_cell_formula_units_Z 20
_cell_length_a 14.433206
_cell_length_b 7.994779
_cell_length_c 7.994791
_cell_angle_alpha 90.000000
_cell_angle_beta 90.000000
_cell_angle_gamma 90.000000
_cell_volume 922.521270
_symmetry_space_group_name_H-M "I 2 2 2"
_symmetry_group_IT_number 23
_symmetry_cell_setting 'orthorhombic'
loop_
_space_group_symop_operation_xyz
x,y,z
-x,-y,z
x,-y,-z
-x,y,-z
1/2+x,1/2+y,1/2+z
1/2-x,1/2-y,1/2+z
1/2+x,1/2-y,1/2-z
1/2-x,1/2+y,1/2-z
loop_
_atom_site_type_symbol
_atom_site_label
_atom_site_fract_x
_atom_site_fract_y
_atom_site_fract_z
Si Si1 0.843721 0.266062 0.407740
Si Si2 0.156280 0.907740 0.766061
Si Si3 0.000000 0.000000 0.000000
Si Si4 0.500000 0.000000 0.000000
O O1 0.846261 0.204388 0.599741
O O2 0.750000 0.362590 0.362590
O O3 0.932336 0.384659 0.389724
O O4 0.846261 0.099740 0.295614
O O5 0.067664 0.889724 0.884659
#
# Coordination Sequence:
#
# PCOD9332397 Si02
#       4
#     8   8   2   2
#     4  11  24  43  67  97 137 184 230 280 340 405
#     4  11  24  43  67  97 137 184 230 280 340 405
#     4  12  22  38  64  96 132 174 226 278 328 396
#     4  12  22  38  64  96 132 174 226 278 328 396
#
# _framework density 21.679718000000001
#
# number of rings (size 3 to 8) (size 9 to 14) (size 15 to 20)
#    0.000    0.800    0.000    8.400    0.000    3.200 
#    0.000    0.000    0.000    4.800    0.000    0.000 
#    0.000    0.000    0.000    0.000    0.000    0.000 
#
# Total GULP energy -56001.457006 kJ/mol
# GULP energy per Si atom -5600.145701 kJ/mol
# Density = 2.163037 g / cm^3
# Si number density = 21.679718 Si / 1000 Ang^3
#
#
#
# Elastic Constant Matrix: (Units=GPa)
#
#
# Indices 1 2 3 4 5 6 
#
# 1 229.7720 91.6532 91.6540 0.0000 0.0000 0.0000
# 2 91.6532 139.5180 63.3607 0.0000 0.0000 0.0000
# 3 91.6540 63.3607 139.5196 0.0000 0.0000 0.0000
# 4 0.0000 0.0000 0.0000 32.8486 0.0000 0.0000
# 5 0.0000 0.0000 0.0000 0.0000 35.0450 0.0000
# 6 0.0000 0.0000 0.0000 0.0000 0.0000 35.0443
#
#
#
# Elastic Compliance Matrix: (Units=1/GPa)
#
#
# Indices 1 2 3 4 5 6 
#
# 1 0.006805 -0.003074 -0.003074 0.000000 0.000000 0.000000
# 2 -0.003074 0.010419 -0.002712 0.000000 0.000000 0.000000
# 3 -0.003074 -0.002712 0.010418 0.000000 0.000000 0.000000
# 4 0.000000 0.000000 0.000000 0.030443 0.000000 0.000000
# 5 0.000000 0.000000 0.000000 0.000000 0.028535 0.000000
# 6 0.000000 0.000000 0.000000 0.000000 0.000000 0.028535
#
#
# Mechanical properties :
#
#
# Convention : Reuss Voigt Hill
#
# Bulk Modulus (GPa) = 100.79226 111.34949 106.07088
# Shear Modulus (GPa) = 36.71563 38.06370 37.38966
#
# Velocity S-wave (km/s) = 4.11974 4.19469 4.15738
# Velocity P-wave (km/s) = 8.31998 8.65639 8.48985
#
# Compressibility (1/GPa) = 0.00992140
#
# Stress axis : x y z
#
# Youngs Moduli (GPa) = 146.96049 95.98223 95.98312
#
# Poissons Ratio (x) = 0.29505 0.29506
# Poissons Ratio (y) = 0.45176 0.26031
# Poissons Ratio (z) = 0.45176 0.26031
#
# Static dielectric constant tensor:
#      x y z
#    x 1.753640 0.000000 0.000000 
#    y 0.000000 1.804180 0.000000 
#    z 0.000000 0.000000 1.804180 
# 
# From -- ./inp_files/5929.got.cif
#   From: 2010.05.17/outbox.cif.g08.bks.cpg/sg23_3_cif.got.tgz:5929.got - 2010.06.04 12:02:01.
