data_PCOD9332974
_publ_section_title
;
Structure prediction by ZEFSAII (Michael W. Deem and Ramdas Pophale) SiO2 
 PCOD9332974
Probable space group: I 21 21 21
;
_chemical_formula_sum "Si O2"
_cell_formula_units_Z 48
_cell_length_a 17.849311
_cell_length_b 23.797670
_cell_length_c 5.650076
_cell_angle_alpha 90.000000
_cell_angle_beta 90.000000
_cell_angle_gamma 90.000000
_cell_volume 2399.994156
_symmetry_space_group_name_H-M "I 21 21 21"
_symmetry_group_IT_number 24
_symmetry_cell_setting 'orthorhombic'
loop_
_space_group_symop_operation_xyz
x,y,z
-x,1/2-y,z
x,-y,1/2-z
1/2-x,y,-z
1/2+x,1/2+y,1/2+z
1/2-x,-y,1/2+z
1/2+x,1/2-y,-z
-x,1/2+y,1/2-z
loop_
_atom_site_type_symbol
_atom_site_label
_atom_site_fract_x
_atom_site_fract_y
_atom_site_fract_z
Si Si1 0.707889 0.160085 0.253032
Si Si2 0.294432 0.000000 0.250000
Si Si3 0.114987 0.893461 0.929528
Si Si4 0.000000 0.750000 0.959277
Si Si5 0.183396 0.207626 0.820249
Si Si6 0.542549 0.858278 0.302278
Si Si7 0.437670 0.167231 0.825014
O O1 0.750000 0.145845 0.500000
O O2 0.696074 0.228444 0.260167
O O3 0.628638 0.126534 0.238043
O O4 0.750000 0.150469 0.000000
O O5 0.250000 0.987983 0.500000
O O6 0.345741 0.052642 0.323740
O O7 0.169968 0.840922 0.870624
O O8 0.029924 0.888268 0.819667
O O9 0.102622 0.886532 0.210643
O O10 0.946671 0.714052 0.125967
O O11 0.959889 0.795945 0.804872
O O12 0.250000 0.193557 0.000000
O O13 0.108123 0.197793 0.971915
O O14 0.517899 0.851854 0.574831
#
# Coordination Sequence:
#
# PCOD9332974 Si02
#       7
#     8   4   8   4   8   8   8
#     4  11  25  36  56  89 128 168 207 257 308 359
#     4  12  30  48  72  98 130 156 208 270 326 372
#     4  10  24  40  65  83 117 166 210 260 321 370
#     4  10  18  30  56  76 116 158 212 254 294 348
#     4  10  22  33  54  84 123 165 214 253 307 369
#     4  10  21  37  54  83 117 162 215 250 307 379
#     4  10  20  34  57  81 116 168 217 253 307 362
#
# _framework density 20.000048
#
# number of rings (size 3 to 8) (size 9 to 14) (size 15 to 20)
#    0.000    1.667    0.000    5.000   21.000    0.000 
#    0.000    0.000    0.000    0.000    0.000    1.167 
#    0.000    0.000    0.000    0.000    0.000    0.000 
#
# Total GULP energy -133655.307958 kJ/mol
# GULP energy per Si atom -5568.971165 kJ/mol
# Density = 1.995453 g / cm^3
# Si number density = 20.000048 Si / 1000 Ang^3
#
#
#
# Elastic Constant Matrix: (Units=GPa)
#
#
# Indices 1 2 3 4 5 6 
#
# 1 134.5220 25.3167 48.9069 0.0000 0.0000 0.0000
# 2 25.3167 38.8463 25.6564 0.0000 0.0000 0.0000
# 3 48.9069 25.6564 105.6113 0.0000 0.0000 0.0000
# 4 0.0000 0.0000 0.0000 14.7401 0.0000 0.0000
# 5 0.0000 0.0000 0.0000 0.0000 16.4599 0.0000
# 6 0.0000 0.0000 0.0000 0.0000 0.0000 23.6724
#
#
#
# Elastic Compliance Matrix: (Units=1/GPa)
#
#
# Indices 1 2 3 4 5 6 
#
# 1 0.009404 -0.003874 -0.003414 0.000000 0.000000 0.000000
# 2 -0.003874 0.032258 -0.006043 0.000000 0.000000 0.000000
# 3 -0.003414 -0.006043 0.012517 0.000000 0.000000 0.000000
# 4 0.000000 0.000000 0.000000 0.067842 0.000000 0.000000
# 5 0.000000 0.000000 0.000000 0.000000 0.060754 0.000000
# 6 0.000000 0.000000 0.000000 0.000000 0.000000 0.042243
#
#
# Mechanical properties :
#
#
# Convention : Reuss Voigt Hill
#
# Bulk Modulus (GPa) = 36.33860 53.19328 44.76594
# Shear Modulus (GPa) = 19.16797 22.91447 21.04122
#
# Velocity S-wave (km/s) = 3.09916 3.38852 3.24706
# Velocity P-wave (km/s) = 5.56912 6.47794 6.04065
#
# Compressibility (1/GPa) = 0.02751895
#
# Stress axis : x y z
#
# Youngs Moduli (GPa) = 106.33895 30.99992 79.88879
#
# Poissons Ratio (x) = 0.12010 0.27271
# Poissons Ratio (y) = 0.41197 0.48273
# Poissons Ratio (z) = 0.36300 0.18732
#
# Static dielectric constant tensor:
#      x y z
#    x 1.804140 0.000000 0.000000 
#    y 0.000000 1.687810 0.000000 
#    z 0.000000 0.000000 1.822930 
# 
# From -- ./inp_files/4851.got.cif
#   From: 2010.05.17/outbox.cif.g08.bks.cpg/sg24_3_cif.got.tgz:4851.got - 2010.06.04 00:33:39.
