data_PCOD9332981
_publ_section_title
;
Structure prediction by ZEFSAII (Michael W. Deem and Ramdas Pophale) SiO2 
 PCOD9332981
Probable space group: I 21 21 21
;
_chemical_formula_sum "Si O2"
_cell_formula_units_Z 60
_cell_length_a 16.627449
_cell_length_b 14.213488
_cell_length_c 11.465818
_cell_angle_alpha 90.000000
_cell_angle_beta 90.000000
_cell_angle_gamma 90.000000
_cell_volume 2709.763168
_symmetry_space_group_name_H-M "I 21 21 21"
_symmetry_group_IT_number 24
_symmetry_cell_setting 'orthorhombic'
loop_
_space_group_symop_operation_xyz
x,y,z
-x,1/2-y,z
x,-y,1/2-z
1/2-x,y,-z
1/2+x,1/2+y,1/2+z
1/2-x,-y,1/2+z
1/2+x,1/2-y,-z
-x,1/2+y,1/2-z
loop_
_atom_site_type_symbol
_atom_site_label
_atom_site_fract_x
_atom_site_fract_y
_atom_site_fract_z
Si Si1 0.222843 0.539074 0.626298
Si Si2 0.633158 0.583523 0.675313
Si Si3 0.963300 0.852162 0.329009
Si Si4 0.453962 0.427531 0.088376
Si Si5 0.000000 0.750000 0.744389
Si Si6 0.662692 0.663701 0.194754
Si Si7 0.869244 0.525908 0.591000
Si Si8 0.703671 0.784705 0.725609
O O1 0.255289 0.500000 0.750000
O O2 0.250000 0.502007 0.500000
O O3 0.127751 0.525214 0.626867
O O4 0.248014 0.648739 0.636794
O O5 0.671316 0.500000 0.750000
O O6 0.541767 0.597479 0.722881
O O7 0.636116 0.556047 0.541390
O O8 0.673815 0.684464 0.680112
O O9 0.944120 0.902649 0.451341
O O10 0.881995 0.838298 0.253897
O O11 0.000000 0.750000 0.359614
O O12 0.466177 0.331548 0.160188
O O13 0.534779 0.485773 0.111491
O O14 0.924986 0.710408 0.816659
O O15 0.659392 0.609155 0.321764
O O16 0.672153 0.574116 0.111390
O O17 0.729354 0.745808 0.183986
#
# Coordination Sequence:
#
# PCOD9332981 Si02
#       8
#     8   8   8   8   4   8   8   8
#     4  12  27  43  65  99 133 176 226 288 342 404
#     4  10  23  41  66  96 128 175 219 272 336 409
#     4   9  18  35  61  90 126 159 221 275 319 390
#     4  10  18  34  61  93 124 166 218 271 330 398
#     4  10  18  30  60  88 124 162 212 260 320 390
#     4  10  21  36  59  96 129 164 212 275 333 390
#     4   9  22  37  58  95 135 166 209 276 339 398
#     4  11  23  39  66  99 124 175 224 272 333 402
#
# _framework density 22.142157000000001
#
# number of rings (size 3 to 8) (size 9 to 14) (size 15 to 20)
#    0.000    1.867    3.333    0.000    9.333    0.533 
#    0.000    1.333    4.400    0.000    0.000    0.000 
#    0.000    0.000    0.000    0.000    0.000    0.000 
#
# Total GULP energy -167254.722710 kJ/mol
# GULP energy per Si atom -5575.157424 kJ/mol
# Density = 2.209176 g / cm^3
# Si number density = 22.142157 Si / 1000 Ang^3
#
#
#
# Elastic Constant Matrix: (Units=GPa)
#
#
# Indices 1 2 3 4 5 6 
#
# 1 125.7082 21.6822 17.2597 0.0000 0.0000 0.0000
# 2 21.6822 56.7064 25.1251 0.0000 0.0000 0.0000
# 3 17.2597 25.1251 41.6263 0.0000 0.0000 0.0000
# 4 0.0000 0.0000 0.0000 20.5856 0.0000 0.0000
# 5 0.0000 0.0000 0.0000 0.0000 13.3944 0.0000
# 6 0.0000 0.0000 0.0000 0.0000 0.0000 3.7792
#
#
#
# Elastic Compliance Matrix: (Units=1/GPa)
#
#
# Indices 1 2 3 4 5 6 
#
# 1 0.008658 -0.002348 -0.002173 0.000000 0.000000 0.000000
# 2 -0.002348 0.024709 -0.013941 0.000000 0.000000 0.000000
# 3 -0.002173 -0.013941 0.033339 0.000000 0.000000 0.000000
# 4 0.000000 0.000000 0.000000 0.048578 0.000000 0.000000
# 5 0.000000 0.000000 0.000000 0.000000 0.074658 0.000000
# 6 0.000000 0.000000 0.000000 0.000000 0.000000 0.264609
#
#
# Mechanical properties :
#
#
# Convention : Reuss Voigt Hill
#
# Bulk Modulus (GPa) = 33.57584 39.13054 36.35319
# Shear Modulus (GPa) = 9.97204 18.21674 14.09439
#
# Velocity S-wave (km/s) = 2.12448 2.87142 2.52571
# Velocity P-wave (km/s) = 4.60593 5.35763 4.99594
#
# Compressibility (1/GPa) = 0.02978332
#
# Stress axis : x y z
#
# Youngs Moduli (GPa) = 115.49724 40.47089 29.99519
#
# Poissons Ratio (x) = 0.09502 0.06518
# Poissons Ratio (y) = 0.27116 0.41815
# Poissons Ratio (z) = 0.25097 0.56419
#
# Static dielectric constant tensor:
#      x y z
#    x 1.928490 0.000000 0.000000 
#    y 0.000000 1.797960 0.000000 
#    z 0.000000 0.000000 1.792470 
# 
# From -- ./inp_files/21689.got.cif
#   From: 2010.05.17/outbox.cif.g08.bks.cpg/sg24_11_cif.got.tgz:21689.got - 2010.06.04 00:33:39.
