data_PCOD9332237
_publ_section_title
;
Structure prediction by ZEFSAII (Michael W. Deem and Ramdas Pophale) SiO2 
 PCOD9332237
Probable space group: I 2 2 2
;
_chemical_formula_sum "Si O2"
_cell_formula_units_Z 52
_cell_length_a 13.265461
_cell_length_b 12.273773
_cell_length_c 15.934255
_cell_angle_alpha 90.000000
_cell_angle_beta 90.000000
_cell_angle_gamma 90.000000
_cell_volume 2594.371692
_symmetry_space_group_name_H-M "I 2 2 2"
_symmetry_group_IT_number 23
_symmetry_cell_setting 'orthorhombic'
loop_
_space_group_symop_operation_xyz
x,y,z
-x,-y,z
x,-y,-z
-x,y,-z
1/2+x,1/2+y,1/2+z
1/2-x,1/2-y,1/2+z
1/2+x,1/2-y,1/2-z
1/2-x,1/2+y,1/2-z
loop_
_atom_site_type_symbol
_atom_site_label
_atom_site_fract_x
_atom_site_fract_y
_atom_site_fract_z
Si Si1 0.207183 0.041427 0.677785
Si Si2 0.139867 0.000000 0.000000
Si Si3 0.858300 0.198477 0.700518
Si Si4 0.822345 0.856739 0.851383
Si Si5 0.529276 0.373039 0.904791
Si Si6 0.946765 0.804686 0.113229
Si Si7 0.396558 0.935604 0.419630
O O1 0.166559 0.067958 0.769738
O O2 0.147451 0.122440 0.615248
O O3 0.324073 0.056712 0.659912
O O4 0.184133 0.915424 0.665587
O O5 0.080577 0.911745 0.941404
O O6 0.200470 0.073079 0.933938
O O7 0.771605 0.281887 0.674234
O O8 0.884567 0.193591 0.799223
O O9 0.966182 0.207202 0.654104
O O10 0.933052 0.804686 0.867338
O O11 0.500000 0.500000 0.886205
O O12 0.500000 0.351751 0.000000
O O13 0.917309 0.692255 0.066766
O O14 0.500000 0.000000 0.404045
O O15 0.350494 0.000000 0.500000
#
# Coordination Sequence:
#
# PCOD9332237 Si02
#       7
#     8   4   8   8   8   8   8
#     4  11  22  40  65  97 135 179 226 281 344 416
#     4  12  29  42  72 102 143 186 245 298 344 417
#     4  11  23  40  67  96 135 172 226 286 349 409
#     4  12  24  43  67 100 133 181 234 286 346 419
#     4   9  20  37  61  93 126 164 219 281 330 393
#     4  12  24  45  66 102 138 186 228 293 350 413
#     4  11  27  44  65 102 145 182 227 281 359 419
#
# _framework density 20.043389000000001
#
# number of rings (size 3 to 8) (size 9 to 14) (size 15 to 20)
#    0.000    0.923    4.615    2.308   10.769    0.000 
#    0.000    0.000    0.000    0.000    0.000    1.077 
#    0.000    0.000    0.000    0.000    0.000    0.000 
#
# Total GULP energy -145026.155914 kJ/mol
# GULP energy per Si atom -5577.929074 kJ/mol
# Density = 1.999777 g / cm^3
# Si number density = 20.043389 Si / 1000 Ang^3
#
#
#
# Elastic Constant Matrix: (Units=GPa)
#
#
# Indices 1 2 3 4 5 6 
#
# 1 70.8871 38.1956 40.9128 0.0000 0.0000 0.0000
# 2 38.1956 103.2773 35.6210 0.0000 0.0000 0.0000
# 3 40.9128 35.6210 121.0603 0.0000 0.0000 0.0000
# 4 0.0000 0.0000 0.0000 32.9227 0.0000 0.0000
# 5 0.0000 0.0000 0.0000 0.0000 28.1961 0.0000
# 6 0.0000 0.0000 0.0000 0.0000 0.0000 14.7687
#
#
#
# Elastic Compliance Matrix: (Units=1/GPa)
#
#
# Indices 1 2 3 4 5 6 
#
# 1 0.020126 -0.005673 -0.005132 0.000000 0.000000 0.000000
# 2 -0.005673 0.012375 -0.001724 0.000000 0.000000 0.000000
# 3 -0.005132 -0.001724 0.010502 0.000000 0.000000 0.000000
# 4 0.000000 0.000000 0.000000 0.030374 0.000000 0.000000
# 5 0.000000 0.000000 0.000000 0.000000 0.035466 0.000000
# 6 0.000000 0.000000 0.000000 0.000000 0.000000 0.067711
#
#
# Mechanical properties :
#
#
# Convention : Reuss Voigt Hill
#
# Bulk Modulus (GPa) = 55.72789 58.29817 57.01303
# Shear Modulus (GPa) = 24.08536 27.21051 25.64793
#
# Velocity S-wave (km/s) = 3.47026 3.68853 3.58106
# Velocity P-wave (km/s) = 6.62729 6.87674 6.75316
#
# Compressibility (1/GPa) = 0.01794434
#
# Stress axis : x y z
#
# Youngs Moduli (GPa) = 49.68728 80.80521 95.21855
#
# Poissons Ratio (x) = 0.45841 0.48870
# Poissons Ratio (y) = 0.28188 0.16417
# Poissons Ratio (z) = 0.25501 0.13932
#
# Static dielectric constant tensor:
#      x y z
#    x 1.758030 0.000000 0.000000 
#    y 0.000000 1.714110 0.000000 
#    z 0.000000 0.000000 1.740120 
# 
# From -- ./inp_files/21610.got.cif
#   From: 2010.05.17/outbox.cif.g08.bks.cpg/sg23_11_cif.got.tgz:21610.got - 2010.06.04 12:02:01.
