data_PCOD9332209
_publ_section_title
;
Structure prediction by ZEFSAII (Michael W. Deem and Ramdas Pophale) SiO2 
 PCOD9332209
Probable space group: I 2 2 2
;
_chemical_formula_sum "Si O2"
_cell_formula_units_Z 34
_cell_length_a 22.175128
_cell_length_b 6.387181
_cell_length_c 11.957369
_cell_angle_alpha 90.000000
_cell_angle_beta 90.000000
_cell_angle_gamma 90.000000
_cell_volume 1693.600567
_symmetry_space_group_name_H-M "I 2 2 2"
_symmetry_group_IT_number 23
_symmetry_cell_setting 'orthorhombic'
loop_
_space_group_symop_operation_xyz
x,y,z
-x,-y,z
x,-y,-z
-x,y,-z
1/2+x,1/2+y,1/2+z
1/2-x,1/2-y,1/2+z
1/2+x,1/2-y,1/2-z
1/2-x,1/2+y,1/2-z
loop_
_atom_site_type_symbol
_atom_site_label
_atom_site_fract_x
_atom_site_fract_y
_atom_site_fract_z
Si Si1 0.000000 0.000000 0.500000
Si Si2 0.732663 0.638414 0.608948
Si Si3 0.119756 0.453442 0.124888
Si Si4 0.168730 0.839022 0.268684
Si Si5 0.554993 0.635293 0.783339
O O1 0.034383 0.846905 0.587272
O O2 0.729404 0.500000 0.500000
O O3 0.678204 0.804185 0.608135
O O4 0.797949 0.739138 0.625840
O O5 0.720077 0.479564 0.710525
O O6 0.143624 0.661598 0.185603
O O7 0.073445 0.332788 0.207733
O O8 0.095572 0.500000 0.000000
O O9 0.113562 0.990201 0.291817
O O10 0.500000 0.500000 0.730294
#
# Coordination Sequence:
#
# PCOD9332209 Si02
#       5
#     2   8   8   8   8
#     4   8  20  52  66  90 136 162 224 298 300 388
#     4  11  22  38  62  98 135 169 213 271 327 398
#     4  11  22  40  67  93 137 172 216 280 336 396
#     4  11  22  39  63  95 130 171 218 265 333 398
#     4   9  23  45  67  91 130 172 225 280 326 392
#
# _framework density 20.075571
#
# number of rings (size 3 to 8) (size 9 to 14) (size 15 to 20)
#    0.706    0.941    4.706    0.000    0.000    2.824 
#    2.118    4.706    0.000    0.000    0.000    0.000 
#    0.000    0.000    0.000    0.000    0.000    0.000 
#
# Total GULP energy -94775.155744 kJ/mol
# GULP energy per Si atom -5575.009161 kJ/mol
# Density = 2.002988 g / cm^3
# Si number density = 20.075571 Si / 1000 Ang^3
#
#
#
# Elastic Constant Matrix: (Units=GPa)
#
#
# Indices 1 2 3 4 5 6 
#
# 1 72.1553 15.3121 30.2741 0.0000 0.0000 0.0000
# 2 15.3121 68.5878 35.2379 0.0000 0.0000 0.0000
# 3 30.2741 35.2379 110.3073 0.0000 0.0000 0.0000
# 4 0.0000 0.0000 0.0000 30.1183 0.0000 0.0000
# 5 0.0000 0.0000 0.0000 0.0000 33.4470 0.0000
# 6 0.0000 0.0000 0.0000 0.0000 0.0000 3.0578
#
#
#
# Elastic Compliance Matrix: (Units=1/GPa)
#
#
# Indices 1 2 3 4 5 6 
#
# 1 0.015800 -0.001555 -0.003840 0.000000 0.000000 0.000000
# 2 -0.001555 0.017596 -0.005194 0.000000 0.000000 0.000000
# 3 -0.003840 -0.005194 0.011779 0.000000 0.000000 0.000000
# 4 0.000000 0.000000 0.000000 0.033202 0.000000 0.000000
# 5 0.000000 0.000000 0.000000 0.000000 0.029898 0.000000
# 6 0.000000 0.000000 0.000000 0.000000 0.000000 0.327029
#
#
# Mechanical properties :
#
#
# Convention : Reuss Voigt Hill
#
# Bulk Modulus (GPa) = 41.67184 45.85540 43.76362
# Shear Modulus (GPa) = 10.76474 24.67304 17.71889
#
# Velocity S-wave (km/s) = 2.31813 3.50952 2.97410
# Velocity P-wave (km/s) = 5.28844 6.27003 5.80004
#
# Compressibility (1/GPa) = 0.02399702
#
# Stress axis : x y z
#
# Youngs Moduli (GPa) = 63.29148 56.83262 84.89887
#
# Poissons Ratio (x) = 0.08835 0.32599
# Poissons Ratio (y) = 0.09839 0.44099
# Poissons Ratio (z) = 0.24302 0.29520
#
# Static dielectric constant tensor:
#      x y z
#    x 1.712230 0.000000 0.000000 
#    y 0.000000 1.903660 0.000000 
#    z 0.000000 0.000000 1.714500 
# 
# From -- ./inp_files/1567.got.cif
#   From: 2010.05.17/outbox.cif.g08.bks.cpg/sg23_1_cif.got.tgz:1567.got - 2010.06.04 12:02:01.
