data_PCOD9332110
_publ_section_title
;
Structure prediction by ZEFSAII (Michael W. Deem and Ramdas Pophale) SiO2 
 PCOD9332110
Probable space group: I 2 2 2
;
_chemical_formula_sum "Si O2"
_cell_formula_units_Z 48
_cell_length_a 8.906122
_cell_length_b 28.509863
_cell_length_c 9.240059
_cell_angle_alpha 90.000000
_cell_angle_beta 90.000000
_cell_angle_gamma 90.000000
_cell_volume 2346.164800
_symmetry_space_group_name_H-M "I 2 2 2"
_symmetry_group_IT_number 23
_symmetry_cell_setting 'orthorhombic'
loop_
_space_group_symop_operation_xyz
x,y,z
-x,-y,z
x,-y,-z
-x,y,-z
1/2+x,1/2+y,1/2+z
1/2-x,1/2-y,1/2+z
1/2+x,1/2-y,1/2-z
1/2-x,1/2+y,1/2-z
loop_
_atom_site_type_symbol
_atom_site_label
_atom_site_fract_x
_atom_site_fract_y
_atom_site_fract_z
Si Si1 0.380309 0.346757 0.193999
Si Si2 0.751760 0.049925 0.985442
Si Si3 0.165705 0.348691 0.470574
Si Si4 0.664556 0.200669 0.506344
Si Si5 0.500084 0.551670 0.258218
Si Si6 0.334120 0.710171 0.295072
O O1 0.252582 0.341477 0.319455
O O2 0.294559 0.333598 0.048415
O O3 0.449506 0.399270 0.187166
O O4 0.509843 0.309419 0.232537
O O5 0.657598 0.095591 0.014844
O O6 0.837974 0.056697 0.833632
O O7 0.880862 0.047405 0.109277
O O8 0.673571 0.000000 0.000000
O O9 0.271729 0.329024 0.596049
O O10 0.000000 0.327829 0.500000
O O11 0.500000 0.177891 0.500000
O O12 0.652739 0.243833 0.393991
O O13 0.717409 0.217463 0.664042
O O14 0.500000 0.500000 0.183771
#
# Coordination Sequence:
#
# PCOD9332110 Si02
#       6
#     8   8   8   8   8   8
#     4  11  22  40  64  91 122 165 210 252 305 369
#     4   8  14  27  50  85 122 155 194 243 298 350
#     4  11  21  34  57  89 125 161 198 253 310 353
#     4  12  26  42  62  90 123 159 205 259 313 369
#     4   8  14  29  57  90 117 153 202 253 291 353
#     4  12  24  42  63  86 119 165 207 252 301 374
#
# _framework density 20.458921
#
# number of rings (size 3 to 8) (size 9 to 14) (size 15 to 20)
#    0.000    1.667    1.667    6.000    0.000    1.667 
#    0.000    0.000    0.000    2.000    0.000    1.167 
#    0.000    0.000    0.000    0.000    0.000    0.000 
#
# Total GULP energy -133926.162407 kJ/mol
# GULP energy per Si atom -5580.256767 kJ/mol
# Density = 2.041236 g / cm^3
# Si number density = 20.458921 Si / 1000 Ang^3
#
#
#
# Elastic Constant Matrix: (Units=GPa)
#
#
# Indices 1 2 3 4 5 6 
#
# 1 63.9954 -2.4783 3.2174 0.0008 0.0006 0.0002
# 2 -2.4783 104.9636 12.1564 0.0011 0.0007 0.0005
# 3 3.2174 12.1564 68.3340 0.0041 -0.0043 0.0001
# 4 0.0008 0.0011 0.0041 18.8670 -0.0006 0.0000
# 5 0.0006 0.0007 -0.0043 -0.0006 19.5149 0.0004
# 6 0.0002 0.0005 0.0001 0.0000 0.0004 17.9804
#
#
#
# Elastic Compliance Matrix: (Units=1/GPa)
#
#
# Indices 1 2 3 4 5 6 
#
# 1 0.015685 0.000465 -0.000821 -0.000001 -0.000001 0.000000
# 2 0.000465 0.009741 -0.001755 0.000000 -0.000001 0.000000
# 3 -0.000821 -0.001755 0.014985 -0.000003 0.000003 0.000000
# 4 -0.000001 0.000000 -0.000003 0.053003 0.000002 0.000000
# 5 -0.000001 -0.000001 0.000003 0.000002 0.051243 -0.000001
# 6 0.000000 0.000000 0.000000 0.000000 -0.000001 0.055616
#
#
# Mechanical properties :
#
#
# Convention : Reuss Voigt Hill
#
# Bulk Modulus (GPa) = 27.63180 29.23155 28.43167
# Shear Modulus (GPa) = 23.08850 26.23229 24.66040
#
# Velocity S-wave (km/s) = 3.36300 3.58466 3.47560
# Velocity P-wave (km/s) = 5.34930 5.60821 5.48028
#
# Compressibility (1/GPa) = 0.03619019
#
# Stress axis : x y z
#
# Youngs Moduli (GPa) = 63.75337 102.65519 66.73397
#
# Poissons Ratio (x) = -0.04778 0.05481
# Poissons Ratio (y) = -0.02968 0.11711
# Poissons Ratio (z) = 0.05236 0.18015
#
# Static dielectric constant tensor:
#      x y z
#    x 1.736930 0.000000 0.000000 
#    y 0.000000 1.790610 0.000000 
#    z 0.000000 0.000000 1.726040 
# 
# From -- ./inp_files/7342.got.cif
#   From: 2010.05.17/outbox.cif.g08.bks.cpg/sg23_4_cif.got.tgz:7342.got - 2010.06.04 12:02:01.
