data_PCOD9332297
_publ_section_title
;
Structure prediction by ZEFSAII (Michael W. Deem and Ramdas Pophale) SiO2 
 PCOD9332297
Probable space group: I 2 2 2
;
_chemical_formula_sum "Si O2"
_cell_formula_units_Z 64
_cell_length_a 29.237543
_cell_length_b 7.604253
_cell_length_c 11.836564
_cell_angle_alpha 90.000000
_cell_angle_beta 90.000000
_cell_angle_gamma 90.000000
_cell_volume 2631.619416
_symmetry_space_group_name_H-M "I 2 2 2"
_symmetry_group_IT_number 23
_symmetry_cell_setting 'orthorhombic'
loop_
_space_group_symop_operation_xyz
x,y,z
-x,-y,z
x,-y,-z
-x,y,-z
1/2+x,1/2+y,1/2+z
1/2-x,1/2-y,1/2+z
1/2+x,1/2-y,1/2-z
1/2-x,1/2+y,1/2-z
loop_
_atom_site_type_symbol
_atom_site_label
_atom_site_fract_x
_atom_site_fract_y
_atom_site_fract_z
Si Si1 0.513106 0.692876 0.868767
Si Si2 0.794619 0.798476 0.947486
Si Si3 0.076085 0.701586 0.281334
Si Si4 0.660744 0.595639 0.222023
Si Si5 0.889578 0.640317 0.351744
Si Si6 0.137294 0.243398 0.131274
Si Si7 0.693705 0.216038 0.001613
Si Si8 0.447101 0.790242 0.519584
O O1 0.500000 0.500000 0.825311
O O2 0.477166 0.815486 0.807565
O O3 0.564457 0.748743 0.851206
O O4 0.500000 0.697327 0.000000
O O5 0.817888 0.790968 0.825422
O O6 0.825922 0.702483 0.039011
O O7 0.742421 0.736194 0.944063
O O8 0.794959 0.000000 0.000000
O O9 0.108155 0.866262 0.309485
O O10 0.097290 0.561269 0.372410
O O11 0.073386 0.720697 0.145313
O O12 0.657857 0.409202 0.287695
O O13 0.687948 0.667833 0.112011
O O14 0.873770 0.609640 0.222283
O O15 0.851072 0.738180 0.422278
O O16 0.089773 0.201828 0.066013
O O17 0.695185 0.000000 0.000000
O O18 0.500000 0.729398 0.500000
O O19 0.447450 0.000000 0.500000
#
# Coordination Sequence:
#
# PCOD9332297 Si02
#       8
#     8   8   8   8   8   8   8   8
#     4  11  26  45  66  99 143 187 239 298 368 439
#     4   9  22  43  69 100 141 189 237 298 368 433
#     4  12  23  41  70 103 139 190 245 296 358 437
#     4  11  23  43  72  99 143 187 241 300 365 433
#     4  12  25  41  70 103 140 187 243 297 363 440
#     4  11  23  44  69 103 144 191 235 304 365 434
#     4  11  24  44  71 105 139 187 244 301 364 444
#     4  11  23  40  67 105 148 192 246 293 355 435
#
# _framework density 24.319627000000001
#
# number of rings (size 3 to 8) (size 9 to 14) (size 15 to 20)
#    0.000    1.000    3.750    2.625    3.500    2.000 
#    0.000    0.625    5.500    0.000    0.000    0.000 
#    0.000    0.000    0.000    0.000    0.000    0.000 
#
# Total GULP energy -178395.454754 kJ/mol
# GULP energy per Si atom -5574.857961 kJ/mol
# Density = 2.426427 g / cm^3
# Si number density = 24.319627 Si / 1000 Ang^3
#
#
#
# Elastic Constant Matrix: (Units=GPa)
#
#
# Indices 1 2 3 4 5 6 
#
# 1 157.6203 4.5354 45.0483 0.0000 0.0000 0.0000
# 2 4.5354 41.0025 14.8166 0.0000 0.0000 0.0000
# 3 45.0483 14.8166 116.9619 0.0000 0.0000 0.0000
# 4 0.0000 0.0000 0.0000 27.1999 0.0000 0.0000
# 5 0.0000 0.0000 0.0000 0.0000 -6.8251 0.0000
# 6 0.0000 0.0000 0.0000 0.0000 0.0000 30.1639
#
#
#
# Elastic Compliance Matrix: (Units=1/GPa)
#
#
# Indices 1 2 3 4 5 6 
#
# 1 0.007131 0.000213 -0.002774 0.000000 0.000000 0.000000
# 2 0.000213 0.025565 -0.003321 0.000000 0.000000 0.000000
# 3 -0.002774 -0.003321 0.010039 0.000000 0.000000 0.000000
# 4 0.000000 0.000000 0.000000 0.036765 0.000000 0.000000
# 5 0.000000 0.000000 0.000000 0.000000 -0.146519 0.000000
# 6 0.000000 0.000000 0.000000 0.000000 0.000000 0.033152
#
#
# Mechanical properties :
#
#
# Convention : Reuss Voigt Hill
#
# Bulk Modulus (GPa) = 32.28616 49.37615 40.83115
# Shear Modulus (GPa) = -424.40931 26.85337 -198.77797
#
# Velocity S-wave (km/s) = -13.22467 3.32653 -9.05058
# Velocity P-wave (km/s) = 14.82851 5.92465 9.61205
#
# Compressibility (1/GPa) = 0.03097303
#
# Stress axis : x y z
#
# Youngs Moduli (GPa) = 140.23467 39.11580 99.61446
#
# Poissons Ratio (x) = -0.00835 0.27628
# Poissons Ratio (y) = -0.02994 0.33080
# Poissons Ratio (z) = 0.38895 0.12990
#
# Static dielectric constant tensor:
#      x y z
#    x 1.931280 0.000000 0.000000 
#    y 0.000000 2.065240 0.000000 
#    z 0.000000 0.000000 1.956270 
# 
# From -- ./inp_files/18819.got.cif
#   From: 2010.05.17/outbox.cif.g08.bks.cpg/sg23_10_cif.got.tgz:18819.got - 2010.06.04 12:02:01.
