data_PCOD9332962
_publ_section_title
;
Structure prediction by ZEFSAII (Michael W. Deem and Ramdas Pophale) SiO2 
 PCOD9332962
Probable space group: I 21 21 21
;
_chemical_formula_sum "Si O2"
_cell_formula_units_Z 52
_cell_length_a 11.694212
_cell_length_b 28.513960
_cell_length_c 9.368701
_cell_angle_alpha 90.000000
_cell_angle_beta 90.000000
_cell_angle_gamma 90.000000
_cell_volume 3123.977358
_symmetry_space_group_name_H-M "I 21 21 21"
_symmetry_group_IT_number 24
_symmetry_cell_setting 'orthorhombic'
loop_
_space_group_symop_operation_xyz
x,y,z
-x,1/2-y,z
x,-y,1/2-z
1/2-x,y,-z
1/2+x,1/2+y,1/2+z
1/2-x,-y,1/2+z
1/2+x,1/2-y,-z
-x,1/2+y,1/2-z
loop_
_atom_site_type_symbol
_atom_site_label
_atom_site_fract_x
_atom_site_fract_y
_atom_site_fract_z
Si Si1 0.250000 0.799771 0.500000
Si Si2 0.489380 0.160970 0.104283
Si Si3 0.607745 0.222961 0.875753
Si Si4 0.418992 0.378048 0.383209
Si Si5 0.347795 0.631346 0.806420
Si Si6 0.115936 0.574970 0.455528
Si Si7 0.638688 0.020258 0.405842
O O1 0.359071 0.828538 0.442855
O O2 0.203245 0.762623 0.384501
O O3 0.508084 0.152600 0.272603
O O4 0.565790 0.202251 0.030445
O O5 0.538767 0.113164 0.035403
O O6 0.500000 0.250000 0.812128
O O7 0.639880 0.177579 0.788036
O O8 0.418130 0.363625 0.548235
O O9 0.286537 0.374024 0.335292
O O10 0.439102 0.434222 0.380790
O O11 0.388760 0.587369 0.711325
O O12 0.250000 0.581613 0.500000
O O13 0.085468 0.522897 0.505962
O O14 0.750000 0.034314 0.500000
O O15 0.672390 0.000000 0.250000
#
# Coordination Sequence:
#
# PCOD9332962 Si02
#       7
#     4   8   8   8   8   8   8
#     4  10  20  34  58  78  94 140 194 236 266 334
#     4  10  19  34  54  77 105 134 184 227 281 320
#     4   9  19  35  54  72  96 132 182 226 268 330
#     4  11  19  30  46  79 112 142 167 222 271 331
#     4  10  19  31  48  73 114 144 168 210 286 320
#     4  10  18  30  51  74 109 148 171 216 261 331
#     4  11  19  28  45  76 116 142 179 209 269 333
#
# _framework density 16.645447000000001
#
# number of rings (size 3 to 8) (size 9 to 14) (size 15 to 20)
#    0.000    1.846    4.615    1.846    2.154    0.000 
#    0.000    5.385    0.000    7.385    0.000   12.923 
#    0.000    0.000    0.000    0.000    0.000    0.000 
#
# Total GULP energy -144810.672053 kJ/mol
# GULP energy per Si atom -5569.641233 kJ/mol
# Density = 1.660756 g / cm^3
# Si number density = 16.645447 Si / 1000 Ang^3
#
#
#
# Elastic Constant Matrix: (Units=GPa)
#
#
# Indices 1 2 3 4 5 6 
#
# 1 59.9245 37.5217 24.2537 -0.0001 -0.0002 0.0000
# 2 37.5217 102.5638 29.6740 0.0002 0.0000 0.0000
# 3 24.2537 29.6740 113.7739 0.0002 -0.0009 0.0001
# 4 -0.0001 0.0002 0.0002 20.7937 -0.0001 0.0001
# 5 -0.0002 0.0000 -0.0009 -0.0001 14.2502 -0.0001
# 6 0.0000 0.0000 0.0001 0.0001 -0.0001 16.3583
#
#
#
# Elastic Compliance Matrix: (Units=1/GPa)
#
#
# Indices 1 2 3 4 5 6 
#
# 1 0.022476 -0.007394 -0.002863 0.000000 0.000000 0.000000
# 2 -0.007394 0.012978 -0.001809 0.000000 0.000000 0.000000
# 3 -0.002863 -0.001809 0.009871 0.000000 0.000001 0.000000
# 4 0.000000 0.000000 0.000000 0.048092 0.000000 0.000000
# 5 0.000000 0.000000 0.000001 0.000000 0.070174 0.000000
# 6 0.000000 0.000000 0.000000 0.000000 0.000000 0.061131
#
#
# Mechanical properties :
#
#
# Convention : Reuss Voigt Hill
#
# Bulk Modulus (GPa) = 47.18233 51.01790 49.10012
# Shear Modulus (GPa) = 19.53736 22.60128 21.06932
#
# Velocity S-wave (km/s) = 3.42970 3.68884 3.56163
# Velocity P-wave (km/s) = 6.64009 6.98997 6.81728
#
# Compressibility (1/GPa) = 0.02119437
#
# Stress axis : x y z
#
# Youngs Moduli (GPa) = 44.49120 77.05066 101.30299
#
# Poissons Ratio (x) = 0.56974 0.29001
# Poissons Ratio (y) = 0.32899 0.18323
# Poissons Ratio (z) = 0.12737 0.13936
#
# Static dielectric constant tensor:
#      x y z
#    x 1.555180 0.000000 0.000000 
#    y 0.000000 1.591580 0.000000 
#    z 0.000000 0.000000 1.624750 
# 
# From -- ./inp_files/11582.got.cif
#   From: 2010.05.17/outbox.cif.g08.bks.cpg/sg24_6_cif.got.tgz:11582.got - 2010.06.04 00:33:39.
