data_PCOD9332550
_publ_section_title
;
Structure prediction by ZEFSAII (Michael W. Deem and Ramdas Pophale) SiO2 
 PCOD9332550
Probable space group: I 2 2 2
;
_chemical_formula_sum "Si O2"
_cell_formula_units_Z 34
_cell_length_a 18.658058
_cell_length_b 4.907814
_cell_length_c 15.220600
_cell_angle_alpha 90.000000
_cell_angle_beta 90.000000
_cell_angle_gamma 90.000000
_cell_volume 1393.754577
_symmetry_space_group_name_H-M "I 2 2 2"
_symmetry_group_IT_number 23
_symmetry_cell_setting 'orthorhombic'
loop_
_space_group_symop_operation_xyz
x,y,z
-x,-y,z
x,-y,-z
-x,y,-z
1/2+x,1/2+y,1/2+z
1/2-x,1/2-y,1/2+z
1/2+x,1/2-y,1/2-z
1/2-x,1/2+y,1/2-z
loop_
_atom_site_type_symbol
_atom_site_label
_atom_site_fract_x
_atom_site_fract_y
_atom_site_fract_z
Si Si1 0.500000 0.000000 0.670171
Si Si2 0.870444 0.255129 0.059097
Si Si3 0.500000 0.500000 0.207407
Si Si4 0.753507 0.589980 0.308628
Si Si5 0.000000 0.500000 0.500000
Si Si6 0.382544 0.370181 0.909809
O O1 0.563794 0.111564 0.610573
O O2 0.477048 0.248625 0.732014
O O3 0.812667 0.141530 0.127150
O O4 0.839050 0.500000 0.000000
O O5 0.894240 0.000000 0.000000
O O6 0.427875 0.426785 0.152636
O O7 0.757240 0.279230 0.277406
O O8 0.823674 0.700195 0.358088
O O9 0.052340 0.318602 0.442040
O O10 0.352961 0.500000 0.000000
#
# Coordination Sequence:
#
# PCOD9332550 Si02
#       6
#     4   8   4   8   2   8
#     4  12  26  44  73 101 146 190 244 316 364 444
#     4  12  26  48  73 108 142 198 255 309 373 449
#     4  12  23  44  67 108 146 190 238 306 379 436
#     4  12  28  49  75 110 151 200 248 314 385 455
#     4  12  24  44  72 116 148 202 256 314 382 446
#     4  12  26  44  74 111 154 201 255 312 376 467
#
# _framework density 24.394539999999999
#
# number of rings (size 3 to 8) (size 9 to 14) (size 15 to 20)
#    0.000    0.000    2.353    7.412    4.941    0.941 
#    0.000    0.000    0.000    0.000    0.000    0.000 
#    0.000    0.000    0.000    0.000    0.000    0.000 
#
# Total GULP energy -95403.074633 kJ/mol
# GULP energy per Si atom -5611.945567 kJ/mol
# Density = 2.433902 g / cm^3
# Si number density = 24.394540 Si / 1000 Ang^3
#
#
#
# Elastic Constant Matrix: (Units=GPa)
#
#
# Indices 1 2 3 4 5 6 
#
# 1 129.6057 0.3022 37.1070 0.0000 0.0000 0.0000
# 2 0.3022 96.1216 20.9592 0.0000 0.0000 0.0000
# 3 37.1070 20.9592 98.6225 0.0000 0.0000 0.0000
# 4 0.0000 0.0000 0.0000 43.2233 0.0000 0.0000
# 5 0.0000 0.0000 0.0000 0.0000 32.4026 0.0000
# 6 0.0000 0.0000 0.0000 0.0000 0.0000 16.0946
#
#
#
# Elastic Compliance Matrix: (Units=1/GPa)
#
#
# Indices 1 2 3 4 5 6 
#
# 1 0.008694 0.000719 -0.003424 0.000000 0.000000 0.000000
# 2 0.000719 0.010969 -0.002602 0.000000 0.000000 0.000000
# 3 -0.003424 -0.002602 0.011981 0.000000 0.000000 0.000000
# 4 0.000000 0.000000 0.000000 0.023136 0.000000 0.000000
# 5 0.000000 0.000000 0.000000 0.000000 0.030862 0.000000
# 6 0.000000 0.000000 0.000000 0.000000 0.000000 0.062133
#
#
# Mechanical properties :
#
#
# Convention : Reuss Voigt Hill
#
# Bulk Modulus (GPa) = 47.54934 49.00965 48.27950
# Shear Modulus (GPa) = 30.23024 36.07619 33.15321
#
# Velocity S-wave (km/s) = 3.52408 3.84977 3.69052
# Velocity P-wave (km/s) = 6.00774 6.31625 6.16393
#
# Compressibility (1/GPa) = 0.02103079
#
# Stress axis : x y z
#
# Youngs Moduli (GPa) = 115.01670 91.17001 83.46601
#
# Poissons Ratio (x) = -0.06558 0.28580
# Poissons Ratio (y) = -0.08273 0.21715
# Poissons Ratio (z) = 0.39384 0.23719
#
# Static dielectric constant tensor:
#      x y z
#    x 1.882160 0.000000 0.000000 
#    y 0.000000 1.961890 0.000000 
#    z 0.000000 0.000000 2.068250 
# 
# From -- ./inp_files/21875.got.cif
#   From: 2010.05.17/outbox.cif.g08.bks.cpg/sg23_11_cif.got.tgz:21875.got - 2010.06.04 12:02:01.
