data_PCOD9332095
_publ_section_title
;
Structure prediction by ZEFSAII (Michael W. Deem and Ramdas Pophale) SiO2 
 PCOD9332095
Probable space group: I 2 2 2
;
_chemical_formula_sum "Si O2"
_cell_formula_units_Z 58
_cell_length_a 15.438358
_cell_length_b 17.394128
_cell_length_c 11.430599
_cell_angle_alpha 90.000000
_cell_angle_beta 90.000000
_cell_angle_gamma 90.000000
_cell_volume 3069.536194
_symmetry_space_group_name_H-M "I 2 2 2"
_symmetry_group_IT_number 23
_symmetry_cell_setting 'orthorhombic'
loop_
_space_group_symop_operation_xyz
x,y,z
-x,-y,z
x,-y,-z
-x,y,-z
1/2+x,1/2+y,1/2+z
1/2-x,1/2-y,1/2+z
1/2+x,1/2-y,1/2-z
1/2-x,1/2+y,1/2-z
loop_
_atom_site_type_symbol
_atom_site_label
_atom_site_fract_x
_atom_site_fract_y
_atom_site_fract_z
Si Si1 0.095973 0.084682 0.549130
Si Si2 0.246621 0.917131 0.804747
Si Si3 0.249228 0.327092 0.935907
Si Si4 0.500000 0.000000 0.000000
Si Si5 0.371723 0.942824 0.188506
Si Si6 0.721590 0.646611 0.438946
Si Si7 0.908111 0.960305 0.817339
Si Si8 0.911013 0.413426 0.950107
O O1 0.163359 0.148176 0.504308
O O2 0.088600 0.077840 0.688710
O O3 0.000000 0.098654 0.500000
O O4 0.124235 0.000000 0.500000
O O5 0.243331 0.861433 0.694397
O O6 0.329296 0.973068 0.793951
O O7 0.162682 0.972034 0.807105
O O8 0.247628 0.875961 0.929492
O O9 0.226318 0.237709 0.929161
O O10 0.171795 0.368496 0.004559
O O11 0.440266 0.050653 0.915361
O O12 0.292944 0.889009 0.148529
O O13 0.412143 0.916808 0.310232
O O14 0.631853 0.602997 0.405755
O O15 0.000000 0.000000 0.846308
O O16 0.904295 0.500000 0.000000
O O17 0.000000 0.379723 0.000000
#
# Coordination Sequence:
#
# PCOD9332095 Si02
#       8
#     8   8   8   2   8   8   8   8
#     4  11  20  40  68 103 123 166 236 280 333 398
#     4  11  22  42  64  90 126 171 219 261 325 405
#     4  12  24  42  64  95 139 175 208 287 344 388
#     4  12  20  40  70  88 118 160 214 278 312 372
#     4  11  22  42  67  92 124 167 224 265 313 395
#     4  11  27  41  60  99 134 173 214 265 350 401
#     4  11  21  42  71  95 125 171 229 276 319 403
#     4  11  23  41  66  98 122 170 228 267 318 394
#
# _framework density 18.895363
#
# number of rings (size 3 to 8) (size 9 to 14) (size 15 to 20)
#    0.000    0.828    5.517    4.138    3.862    1.103 
#    3.724    1.379    0.000    0.000    0.000    0.000 
#    0.000    0.000    0.000    0.000    0.000    0.000 
#
# Total GULP energy -162094.532461 kJ/mol
# GULP energy per Si atom -5589.466637 kJ/mol
# Density = 1.885236 g / cm^3
# Si number density = 18.895363 Si / 1000 Ang^3
#
#
#
# Elastic Constant Matrix: (Units=GPa)
#
#
# Indices 1 2 3 4 5 6 
#
# 1 112.5481 46.8093 44.8907 0.0000 0.0000 0.0000
# 2 46.8093 104.3193 39.1647 0.0000 0.0000 0.0000
# 3 44.8907 39.1647 130.1855 0.0000 0.0000 0.0000
# 4 0.0000 0.0000 0.0000 -5.2187 0.0000 0.0000
# 5 0.0000 0.0000 0.0000 0.0000 32.7944 0.0000
# 6 0.0000 0.0000 0.0000 0.0000 0.0000 6.6035
#
#
#
# Elastic Compliance Matrix: (Units=1/GPa)
#
#
# Indices 1 2 3 4 5 6 
#
# 1 0.011753 -0.004230 -0.002780 0.000000 0.000000 0.000000
# 2 -0.004230 0.012329 -0.002250 0.000000 0.000000 0.000000
# 3 -0.002780 -0.002250 0.009317 0.000000 0.000000 0.000000
# 4 0.000000 0.000000 0.000000 -0.191619 0.000000 0.000000
# 5 0.000000 0.000000 0.000000 0.000000 0.030493 0.000000
# 6 0.000000 0.000000 0.000000 0.000000 0.000000 0.151435
#
#
# Mechanical properties :
#
#
# Convention : Reuss Voigt Hill
#
# Bulk Modulus (GPa) = 67.21384 67.64249 67.42817
# Shear Modulus (GPa) = 105.95739 21.24838 63.60289
#
# Velocity S-wave (km/s) = 7.49651 3.35704 5.80807
# Velocity P-wave (km/s) = 10.51565 7.13459 8.98558
#
# Compressibility (1/GPa) = 0.01487789
#
# Stress axis : x y z
#
# Youngs Moduli (GPa) = 85.08235 81.11024 107.33038
#
# Poissons Ratio (x) = 0.34310 0.29840
# Poissons Ratio (y) = 0.35990 0.24153
# Poissons Ratio (z) = 0.23655 0.18253
#
# Static dielectric constant tensor:
#      x y z
#    x 1.667160 0.000000 0.000000 
#    y 0.000000 1.645080 0.000000 
#    z 0.000000 0.000000 1.663360 
# 
# From -- ./inp_files/16952.got.cif
#   From: 2010.05.17/outbox.cif.g08.bks.cpg/sg23_9_cif.got.tgz:16952.got - 2010.06.04 12:02:01.
