data_PCOD9332148
_publ_section_title
;
Structure prediction by ZEFSAII (Michael W. Deem and Ramdas Pophale) SiO2 
 PCOD9332148
Probable space group: I 2 2 2
;
_chemical_formula_sum "Si O2"
_cell_formula_units_Z 26
_cell_length_a 9.834358
_cell_length_b 7.076160
_cell_length_c 19.986796
_cell_angle_alpha 90.000000
_cell_angle_beta 90.000000
_cell_angle_gamma 90.000000
_cell_volume 1390.870954
_symmetry_space_group_name_H-M "I 2 2 2"
_symmetry_group_IT_number 23
_symmetry_cell_setting 'orthorhombic'
loop_
_space_group_symop_operation_xyz
x,y,z
-x,-y,z
x,-y,-z
-x,y,-z
1/2+x,1/2+y,1/2+z
1/2-x,1/2-y,1/2+z
1/2+x,1/2-y,1/2-z
1/2-x,1/2+y,1/2-z
loop_
_atom_site_type_symbol
_atom_site_label
_atom_site_fract_x
_atom_site_fract_y
_atom_site_fract_z
Si Si1 0.839978 0.135797 0.665359
Si Si2 0.874328 0.750139 0.613037
Si Si3 0.500000 0.000000 0.000000
Si Si4 0.843827 0.011812 0.183904
O O1 0.839796 0.029612 0.736617
O O2 0.719729 0.285539 0.666506
O O3 0.982526 0.245492 0.654159
O O4 0.835258 0.971514 0.609620
O O5 0.753914 0.641960 0.650223
O O6 0.909151 0.636826 0.546035
O O7 0.000000 0.000000 0.162302
#
# Coordination Sequence:
#
# PCOD9332148 Si02
#       4
#     8   8   2   8
#     4  11  21  39  65  98 132 165 221 270 339 387
#     4  11  24  41  63  99 125 182 222 266 321 390
#     4  12  24  46  70  84 138 184 238 264 292 412
#     4  12  21  37  64 101 136 167 207 283 340 391
#
# _framework density 18.693322999999999
#
# number of rings (size 3 to 8) (size 9 to 14) (size 15 to 20)
#    0.000    0.615    9.231    0.000    0.000    3.692 
#    0.000    0.769    0.000    0.000   16.000    0.000 
#    0.000    0.000    0.000    0.000    0.000    0.000 
#
# Total GULP energy -72571.926230 kJ/mol
# GULP energy per Si atom -5582.455864 kJ/mol
# Density = 1.865078 g / cm^3
# Si number density = 18.693323 Si / 1000 Ang^3
#
#
#
# Elastic Constant Matrix: (Units=GPa)
#
#
# Indices 1 2 3 4 5 6 
#
# 1 151.5137 99.3348 45.8460 0.0000 0.0000 0.0000
# 2 99.3348 142.6870 43.9401 0.0000 0.0000 0.0000
# 3 45.8460 43.9401 65.0281 0.0000 0.0000 0.0000
# 4 0.0000 0.0000 0.0000 39.9954 0.0000 0.0000
# 5 0.0000 0.0000 0.0000 0.0000 16.8733 0.0000
# 6 0.0000 0.0000 0.0000 0.0000 0.0000 45.2787
#
#
#
# Elastic Compliance Matrix: (Units=1/GPa)
#
#
# Indices 1 2 3 4 5 6 
#
# 1 0.012847 -0.007772 -0.003806 0.000000 0.000000 0.000000
# 2 -0.007772 0.013551 -0.003678 0.000000 0.000000 0.000000
# 3 -0.003806 -0.003678 0.020546 0.000000 0.000000 0.000000
# 4 0.000000 0.000000 0.000000 0.025003 0.000000 0.000000
# 5 0.000000 0.000000 0.000000 0.000000 0.059265 0.000000
# 6 0.000000 0.000000 0.000000 0.000000 0.000000 0.022085
#
#
# Mechanical properties :
#
#
# Convention : Reuss Voigt Hill
#
# Bulk Modulus (GPa) = 60.84922 81.94119 71.39521
# Shear Modulus (GPa) = 26.41504 31.77001 29.09252
#
# Velocity S-wave (km/s) = 3.76317 4.12702 3.94928
# Velocity P-wave (km/s) = 7.17662 8.16329 7.68580
#
# Compressibility (1/GPa) = 0.01643406
#
# Stress axis : x y z
#
# Youngs Moduli (GPa) = 77.83984 73.79390 48.67090
#
# Poissons Ratio (x) = 0.57350 0.18524
# Poissons Ratio (y) = 0.60494 0.17899
# Poissons Ratio (z) = 0.29625 0.27138
#
# Static dielectric constant tensor:
#      x y z
#    x 1.623710 0.000000 0.000000 
#    y 0.000000 1.684670 0.000000 
#    z 0.000000 0.000000 1.656450 
# 
# From -- ./inp_files/6372.got.cif
#   From: 2010.05.17/outbox.cif.g08.bks.cpg/sg23_4_cif.got.tgz:6372.got - 2010.06.04 12:02:01.
