data_PCOD9332875
_publ_section_title
;
Structure prediction by ZEFSAII (Michael W. Deem and Ramdas Pophale) SiO2 
 PCOD9332875
Probable space group: I 21 21 21
;
_chemical_formula_sum "Si O2"
_cell_formula_units_Z 48
_cell_length_a 20.190876
_cell_length_b 13.980826
_cell_length_c 7.689720
_cell_angle_alpha 90.000000
_cell_angle_beta 90.000000
_cell_angle_gamma 90.000000
_cell_volume 2170.693565
_symmetry_space_group_name_H-M "I 21 21 21"
_symmetry_group_IT_number 24
_symmetry_cell_setting 'orthorhombic'
loop_
_space_group_symop_operation_xyz
x,y,z
-x,1/2-y,z
x,-y,1/2-z
1/2-x,y,-z
1/2+x,1/2+y,1/2+z
1/2-x,-y,1/2+z
1/2+x,1/2-y,-z
-x,1/2+y,1/2-z
loop_
_atom_site_type_symbol
_atom_site_label
_atom_site_fract_x
_atom_site_fract_y
_atom_site_fract_z
Si Si1 0.605777 0.500000 0.250000
Si Si2 0.815690 0.687829 0.229134
Si Si3 0.004201 0.509862 0.985058
Si Si4 0.435062 0.312520 0.668666
Si Si5 0.176078 0.810185 0.651658
Si Si6 0.897412 0.500000 0.250000
Si Si7 0.560624 0.818533 0.411327
O O1 0.554107 0.442862 0.371976
O O2 0.649294 0.418246 0.166120
O O3 0.864263 0.762691 0.134879
O O4 0.815576 0.699655 0.441498
O O5 0.736720 0.695110 0.212039
O O6 0.849507 0.585166 0.190352
O O7 0.951943 0.456157 0.116700
O O8 0.050778 0.585320 0.080435
O O9 0.044340 0.429079 0.883558
O O10 0.500000 0.250000 0.621510
O O11 0.433326 0.316820 0.878683
O O12 0.123227 0.726408 0.684641
O O13 0.500000 0.750000 0.364803
#
# Coordination Sequence:
#
# PCOD9332875 Si02
#       7
#     4   8   8   8   8   4   8
#     4  12  23  38  54  96 133 164 208 262 347 394
#     4  10  20  35  60  92 126 169 211 260 320 392
#     4  12  21  35  62  93 122 163 210 272 317 369
#     4  10  18  34  60  92 117 152 219 267 300 368
#     4  10  21  36  56  91 134 171 200 256 337 399
#     4  12  17  36  60  86 125 160 218 264 311 384
#     4  10  17  35  59  87 121 162 210 258 308 383
#
# _framework density 22.112748
#
# number of rings (size 3 to 8) (size 9 to 14) (size 15 to 20)
#    0.000    1.333    6.667    1.500    0.000    0.000 
#    3.000    0.000    0.000    0.000   17.333    0.000 
#    0.000    0.000    0.000    0.000    0.000    0.000 
#
# Total GULP energy -133687.777197 kJ/mol
# GULP energy per Si atom -5570.324050 kJ/mol
# Density = 2.206242 g / cm^3
# Si number density = 22.112748 Si / 1000 Ang^3
#
#
#
# Elastic Constant Matrix: (Units=GPa)
#
#
# Indices 1 2 3 4 5 6 
#
# 1 159.1486 88.4170 23.2227 0.0000 0.0000 0.0000
# 2 88.4170 142.6710 14.5069 0.0000 0.0000 0.0000
# 3 23.2227 14.5069 27.0194 0.0000 0.0000 0.0000
# 4 0.0000 0.0000 0.0000 26.8385 0.0000 0.0000
# 5 0.0000 0.0000 0.0000 0.0000 10.3753 0.0000
# 6 0.0000 0.0000 0.0000 0.0000 0.0000 26.4012
#
#
#
# Elastic Compliance Matrix: (Units=1/GPa)
#
#
# Indices 1 2 3 4 5 6 
#
# 1 0.010371 -0.005840 -0.005778 0.000000 0.000000 0.000000
# 2 -0.005840 0.010702 -0.000727 0.000000 0.000000 0.000000
# 3 -0.005778 -0.000727 0.042367 0.000000 0.000000 0.000000
# 4 0.000000 0.000000 0.000000 0.037260 0.000000 0.000000
# 5 0.000000 0.000000 0.000000 0.000000 0.096382 0.000000
# 6 0.000000 0.000000 0.000000 0.000000 0.000000 0.037877
#
#
# Mechanical properties :
#
#
# Convention : Reuss Voigt Hill
#
# Bulk Modulus (GPa) = 25.80628 64.57025 45.18826
# Shear Modulus (GPa) = 18.34422 26.23584 22.29003
#
# Velocity S-wave (km/s) = 2.88336 3.44824 3.17837
# Velocity P-wave (km/s) = 4.77291 6.71697 5.82659
#
# Compressibility (1/GPa) = 0.03875026
#
# Stress axis : x y z
#
# Youngs Moduli (GPa) = 96.42453 93.44083 23.60329
#
# Poissons Ratio (x) = 0.54565 0.13638
# Poissons Ratio (y) = 0.56307 0.01716
# Poissons Ratio (z) = 0.55716 0.06793
#
# Static dielectric constant tensor:
#      x y z
#    x 1.903440 0.000000 0.000000 
#    y 0.000000 1.788040 0.000000 
#    z 0.000000 0.000000 2.062300 
# 
# From -- ./inp_files/15149.got.cif
#   From: 2010.05.17/outbox.cif.g08.bks.cpg/sg24_8_cif.got.tgz:15149.got - 2010.06.04 00:33:39.
