data_PCOD9332475
_publ_section_title
;
Structure prediction by ZEFSAII (Michael W. Deem and Ramdas Pophale) SiO2 
 PCOD9332475
Probable space group: I 2 2 2
;
_chemical_formula_sum "Si O2"
_cell_formula_units_Z 32
_cell_length_a 12.863956
_cell_length_b 17.182216
_cell_length_c 7.101009
_cell_angle_alpha 90.000000
_cell_angle_beta 90.000000
_cell_angle_gamma 90.000000
_cell_volume 1569.545042
_symmetry_space_group_name_H-M "I 2 2 2"
_symmetry_group_IT_number 23
_symmetry_cell_setting 'orthorhombic'
loop_
_space_group_symop_operation_xyz
x,y,z
-x,-y,z
x,-y,-z
-x,y,-z
1/2+x,1/2+y,1/2+z
1/2-x,1/2-y,1/2+z
1/2+x,1/2-y,1/2-z
1/2-x,1/2+y,1/2-z
loop_
_atom_site_type_symbol
_atom_site_label
_atom_site_fract_x
_atom_site_fract_y
_atom_site_fract_z
Si Si1 0.763321 0.672389 0.687850
Si Si2 0.422085 0.941442 0.645614
Si Si3 0.614916 0.413282 0.579364
Si Si4 0.880799 0.824422 0.554027
O O1 0.852883 0.610404 0.728786
O O2 0.697760 0.645321 0.509378
O O3 0.820859 0.753934 0.657944
O O4 0.685107 0.666051 0.863994
O O5 0.500000 0.896454 0.500000
O O6 0.500000 0.000000 0.751536
O O7 0.362906 0.000000 0.500000
O O8 0.637797 0.500000 0.500000
O O9 0.500000 0.394296 0.500000
O O10 0.616449 0.398118 0.803416
O O11 0.000000 0.805193 0.500000
#
# Coordination Sequence:
#
# PCOD9332475 Si02
#       4
#     8   8   8   8
#     4  12  23  46  72  98 146 185 237 296 362 424
#     4   6  18  38  62 102 124 176 219 277 353 401
#     4  11  26  46  69 105 137 186 248 288 350 441
#     4  12  27  45  72 104 142 194 235 301 354 424
#
# _framework density 20.388075000000001
#
# number of rings (size 3 to 8) (size 9 to 14) (size 15 to 20)
#    1.500    0.250    5.000    0.000    3.500    3.000 
#    4.500    0.000    0.000    1.500    0.000    0.000 
#    0.000    0.000    0.000    0.000    0.000    0.000 
#
# Total GULP energy -89081.018731 kJ/mol
# GULP energy per Si atom -5567.563671 kJ/mol
# Density = 2.034167 g / cm^3
# Si number density = 20.388075 Si / 1000 Ang^3
#
#
#
# Elastic Constant Matrix: (Units=GPa)
#
#
# Indices 1 2 3 4 5 6 
#
# 1 108.8655 39.7002 42.4129 0.0000 0.0000 0.0000
# 2 39.7002 60.5192 18.8072 0.0000 0.0000 0.0000
# 3 42.4129 18.8072 89.7766 0.0000 0.0000 0.0000
# 4 0.0000 0.0000 0.0000 26.1871 0.0000 0.0000
# 5 0.0000 0.0000 0.0000 0.0000 30.4773 0.0000
# 6 0.0000 0.0000 0.0000 0.0000 0.0000 29.6867
#
#
#
# Elastic Compliance Matrix: (Units=1/GPa)
#
#
# Indices 1 2 3 4 5 6 
#
# 1 0.013880 -0.007560 -0.004974 0.000000 0.000000 0.000000
# 2 -0.007560 0.021792 -0.000994 0.000000 0.000000 0.000000
# 3 -0.004974 -0.000994 0.013697 0.000000 0.000000 0.000000
# 4 0.000000 0.000000 0.000000 0.038187 0.000000 0.000000
# 5 0.000000 0.000000 0.000000 0.000000 0.032811 0.000000
# 6 0.000000 0.000000 0.000000 0.000000 0.000000 0.033685
#
#
# Mechanical properties :
#
#
# Convention : Reuss Voigt Hill
#
# Bulk Modulus (GPa) = 44.81437 51.22242 48.01839
# Shear Modulus (GPa) = 26.51906 27.81962 27.16934
#
# Velocity S-wave (km/s) = 3.61045 3.69793 3.65445
# Velocity P-wave (km/s) = 6.27765 6.58871 6.43506
#
# Compressibility (1/GPa) = 0.02231427
#
# Stress axis : x y z
#
# Youngs Moduli (GPa) = 72.04534 45.88930 73.01059
#
# Poissons Ratio (x) = 0.34691 0.36313
# Poissons Ratio (y) = 0.54464 0.07255
# Poissons Ratio (z) = 0.35833 0.04560
#
# Static dielectric constant tensor:
#      x y z
#    x 1.718610 0.000000 0.000000 
#    y 0.000000 1.742250 0.000000 
#    z 0.000000 0.000000 1.656750 
# 
# From -- ./inp_files/2108.got.cif
#   From: 2010.05.17/outbox.cif.g08.bks.cpg/sg23_2_cif.got.tgz:2108.got - 2010.06.04 12:02:01.
