data_PCOD9332377
_publ_section_title
;
Structure prediction by ZEFSAII (Michael W. Deem and Ramdas Pophale) SiO2 
 PCOD9332377
Probable space group: I 2 2 2
;
_chemical_formula_sum "Si O2"
_cell_formula_units_Z 34
_cell_length_a 16.884335
_cell_length_b 8.694453
_cell_length_c 9.031537
_cell_angle_alpha 90.000000
_cell_angle_beta 90.000000
_cell_angle_gamma 90.000000
_cell_volume 1325.830147
_symmetry_space_group_name_H-M "I 2 2 2"
_symmetry_group_IT_number 23
_symmetry_cell_setting 'orthorhombic'
loop_
_space_group_symop_operation_xyz
x,y,z
-x,-y,z
x,-y,-z
-x,y,-z
1/2+x,1/2+y,1/2+z
1/2-x,1/2-y,1/2+z
1/2+x,1/2-y,1/2-z
1/2-x,1/2+y,1/2-z
loop_
_atom_site_type_symbol
_atom_site_label
_atom_site_fract_x
_atom_site_fract_y
_atom_site_fract_z
Si Si1 0.000000 0.500000 0.500000
Si Si2 0.622690 0.163921 0.534552
Si Si3 0.517048 0.227315 0.258504
Si Si4 0.246072 0.619992 0.609995
Si Si5 0.350418 0.427416 0.837604
O O1 0.034808 0.621671 0.617614
O O2 0.561486 0.163531 0.401188
O O3 0.574759 0.203582 0.687698
O O4 0.684391 0.299846 0.515650
O O5 0.663765 0.000000 0.500000
O O6 0.562561 0.388039 0.228954
O O7 0.204396 0.500000 0.500000
O O8 0.292106 0.534961 0.741951
O O9 0.192309 0.761357 0.657335
O O10 0.360666 0.500000 0.000000
#
# Coordination Sequence:
#
# PCOD9332377 Si02
#       5
#     2   8   8   8   8
#     4  12  24  42  70 120 148 202 226 326 372 446
#     4  11  23  50  78 107 142 205 254 296 365 474
#     4  11  25  45  75 106 151 190 251 295 378 443
#     4  12  27  50  76 107 151 206 250 306 375 456
#     4  12  29  48  73 114 150 197 248 323 376 434
#
# _framework density 25.644310999999998
#
# number of rings (size 3 to 8) (size 9 to 14) (size 15 to 20)
#    0.000    0.471    4.706    2.824    8.235    0.941 
#    0.000    0.000    0.000    0.000    0.000    0.000 
#    0.000    0.000    0.000    0.000    0.000    0.000 
#
# Total GULP energy -94980.025519 kJ/mol
# GULP energy per Si atom -5587.060325 kJ/mol
# Density = 2.558594 g / cm^3
# Si number density = 25.644311 Si / 1000 Ang^3
#
#
#
# Elastic Constant Matrix: (Units=GPa)
#
#
# Indices 1 2 3 4 5 6 
#
# 1 70.7526 56.4176 34.3197 0.0000 0.0000 0.0000
# 2 56.4176 143.6402 60.7596 0.0000 0.0000 0.0000
# 3 34.3197 60.7596 150.3330 0.0000 0.0000 0.0000
# 4 0.0000 0.0000 0.0000 58.5726 0.0000 0.0000
# 5 0.0000 0.0000 0.0000 0.0000 -6.6868 0.0000
# 6 0.0000 0.0000 0.0000 0.0000 0.0000 50.4060
#
#
#
# Elastic Compliance Matrix: (Units=1/GPa)
#
#
# Indices 1 2 3 4 5 6 
#
# 1 0.020957 -0.007488 -0.001758 0.000000 0.000000 0.000000
# 2 -0.007488 0.011073 -0.002766 0.000000 0.000000 0.000000
# 3 -0.001758 -0.002766 0.008171 0.000000 0.000000 0.000000
# 4 0.000000 0.000000 0.000000 0.017073 0.000000 0.000000
# 5 0.000000 0.000000 0.000000 0.000000 -0.149548 0.000000
# 6 0.000000 0.000000 0.000000 0.000000 0.000000 0.019839
#
#
# Mechanical properties :
#
#
# Convention : Reuss Voigt Hill
#
# Bulk Modulus (GPa) = 61.81310 74.19107 68.00208
# Shear Modulus (GPa) = -116.22623 34.67362 -40.77630
#
# Velocity S-wave (km/s) = -6.73950 3.68108 -3.99190
# Velocity P-wave (km/s) = 6.03363 6.86008 2.30825
#
# Compressibility (1/GPa) = 0.01617780
#
# Stress axis : x y z
#
# Youngs Moduli (GPa) = 47.71635 90.31189 122.38227
#
# Poissons Ratio (x) = 0.67623 0.21516
# Poissons Ratio (y) = 0.35729 0.33849
# Poissons Ratio (z) = 0.08389 0.24979
#
# Static dielectric constant tensor:
#      x y z
#    x 2.180790 0.000000 0.000000 
#    y 0.000000 2.115600 0.000000 
#    z 0.000000 0.000000 1.969460 
# 
# From -- ./inp_files/11688.got.cif
#   From: 2010.05.17/outbox.cif.g08.bks.cpg/sg23_6_cif.got.tgz:11688.got - 2010.06.04 12:02:01.
