data_PCOD9332658
_publ_section_title
;
Structure prediction by ZEFSAII (Michael W. Deem and Ramdas Pophale) SiO2 
 PCOD9332658
Probable space group: I 2 2 2
;
_chemical_formula_sum "Si O2"
_cell_formula_units_Z 24
_cell_length_a 18.000000
_cell_length_b 15.000000
_cell_length_c 9.000000
_cell_angle_alpha 90.000000
_cell_angle_beta 90.000000
_cell_angle_gamma 90.000000
_cell_volume 2430.000000
_symmetry_space_group_name_H-M "I 2 2 2"
_symmetry_group_IT_number 23
_symmetry_cell_setting 'orthorhombic'
loop_
_space_group_symop_operation_xyz
x,y,z
-x,-y,z
x,-y,-z
-x,y,-z
1/2+x,1/2+y,1/2+z
1/2-x,1/2-y,1/2+z
1/2+x,1/2-y,1/2-z
1/2-x,1/2+y,1/2-z
loop_
_atom_site_type_symbol
_atom_site_label
_atom_site_fract_x
_atom_site_fract_y
_atom_site_fract_z
Si Si1 0.309996 0.702119 0.401552
Si Si2 0.703881 0.344159 0.746265
Si Si3 0.573869 0.790013 0.782836
Si Si4 0.222723 0.527815 0.331906
Si Si5 0.083382 0.486523 0.176222
Si Si6 0.434657 0.283329 0.088600
O O1 0.306080 0.693236 0.578944
O O2 0.258620 0.781175 0.339355
O O3 0.390770 0.720130 0.331241
O O4 0.276291 0.611534 0.336613
O O5 0.736287 0.443167 0.739081
O O6 0.624794 0.339436 0.826174
O O7 0.485015 0.778064 0.802919
O O8 0.598342 0.885338 0.724390
O O9 0.601504 0.772968 0.952608
O O10 0.203930 0.500000 0.500000
O O11 0.146368 0.547103 0.247739
O O12 0.000000 0.500000 0.231566
O O13 0.084649 0.500000 0.000000
O O14 0.500000 0.335846 0.000000
#
# Coordination Sequence:
#
# PCOD9332658 Si02
#       6
#     8   8   8   8   8   8
#     4  11  23  38  68  90 131 169 211 264 318 384
#     4  11  22  41  64  95 129 168 214 262 320 381
#     4   9  21  43  60  95 122 167 210 257 321 381
#     4  10  25  41  61  96 127 167 213 258 320 384
#     4  11  25  39  58  94 133 161 211 263 315 376
#     4   8  22  40  68  87 123 169 212 257 322 384
#
# _framework density 9.8765429999999999
#
# number of rings (size 3 to 8) (size 9 to 14) (size 15 to 20)
#    1.000    0.833    1.667    1.000    7.000    5.000 
#    0.000    0.833    3.667    3.000    0.000    0.000 
#    0.000    0.000    0.000    0.000    0.000    0.000 
#
# Total GULP energy -133785.216707 kJ/mol
# GULP energy per Si atom -5574.384029 kJ/mol
# Density = 0.985406 g / cm^3
# Si number density = 9.876543 Si / 1000 Ang^3
#
#
#
# Elastic Constant Matrix: (Units=GPa)
#
#
# Indices 1 2 3 4 5 6 
#
# 1 87.4698 36.6813 59.9250 0.0000 0.0000 0.0000
# 2 36.6813 51.2470 30.1460 0.0000 0.0000 0.0000
# 3 59.9250 30.1460 40.5700 0.0000 0.0000 0.0000
# 4 0.0000 0.0000 0.0000 23.5265 0.0000 0.0000
# 5 0.0000 0.0000 0.0000 0.0000 35.7317 0.0000
# 6 0.0000 0.0000 0.0000 0.0000 0.0000 18.6634
#
#
#
# Elastic Compliance Matrix: (Units=1/GPa)
#
#
# Indices 1 2 3 4 5 6 
#
# 1 -0.314614 -0.085579 0.528300 0.000000 0.000000 0.000000
# 2 -0.085579 0.011388 0.117945 0.000000 0.000000 0.000000
# 3 0.528300 0.117945 -0.843331 0.000000 0.000000 0.000000
# 4 0.000000 0.000000 0.000000 0.042505 0.000000 0.000000
# 5 0.000000 0.000000 0.000000 0.000000 0.027986 0.000000
# 6 0.000000 0.000000 0.000000 0.000000 0.000000 0.053581
#
#
# Mechanical properties :
#
#
# Convention : Reuss Voigt Hill
#
# Bulk Modulus (GPa) = -39.64135 48.08793 4.22329
# Shear Modulus (GPa) = -2.32318 19.08661 8.38172
#
# Velocity S-wave (km/s) = -1.08566 3.11184 2.06215
# Velocity P-wave (km/s) = 4.65656 6.10809 2.79511
#
# Compressibility (1/GPa) = -0.02522618
#
# Stress axis : x y z
#
# Youngs Moduli (GPa) = -3.17849 87.81437 -1.18577
#
# Poissons Ratio (x) = 7.51503 0.62644
# Poissons Ratio (y) = -0.27201 0.13986
# Poissons Ratio (z) = 1.67920 -10.35723
#
# Static dielectric constant tensor:
#      x y z
#    x 1.762890 0.000000 0.000000 
#    y 0.000000 1.696090 0.000000 
#    z 0.000000 0.000000 1.693100 
# 
# From -- ./inp_files/11033.got.cif
#   From: 2010.05.17/outbox.ucp.g08.bks.cvg/sg23_6_cif.got.tgz:11033.got - 2010.06.11 15:19:07.
