data_PCOD9332585
_publ_section_title
;
Structure prediction by ZEFSAII (Michael W. Deem and Ramdas Pophale) SiO2 
 PCOD9332585
Probable space group: I 2 2 2
;
_chemical_formula_sum "Si O2"
_cell_formula_units_Z 28
_cell_length_a 11.698865
_cell_length_b 7.922574
_cell_length_c 12.637178
_cell_angle_alpha 90.000000
_cell_angle_beta 90.000000
_cell_angle_gamma 90.000000
_cell_volume 1171.278406
_symmetry_space_group_name_H-M "I 2 2 2"
_symmetry_group_IT_number 23
_symmetry_cell_setting 'orthorhombic'
loop_
_space_group_symop_operation_xyz
x,y,z
-x,-y,z
x,-y,-z
-x,y,-z
1/2+x,1/2+y,1/2+z
1/2-x,1/2-y,1/2+z
1/2+x,1/2-y,1/2-z
1/2-x,1/2+y,1/2-z
loop_
_atom_site_type_symbol
_atom_site_label
_atom_site_fract_x
_atom_site_fract_y
_atom_site_fract_z
Si Si1 0.573124 0.164066 0.631462
Si Si2 0.325531 0.677072 0.806479
Si Si3 0.365817 0.583018 0.385599
Si Si4 0.776021 0.000000 0.500000
O O1 0.601238 0.173771 0.755938
O O2 0.492038 0.328146 0.609402
O O3 0.500000 0.000000 0.610089
O O4 0.690168 0.128549 0.564829
O O5 0.331195 0.548638 0.707675
O O6 0.206699 0.755586 0.844695
O O7 0.357514 0.582192 0.912437
O O8 0.334828 0.500000 0.500000
#
# Coordination Sequence:
#
# PCOD9332585 Si02
#       4
#     8   8   8   4
#     4  12  26  48  78 110 144 195 256 311 363 443
#     4  12  26  46  74 110 150 190 247 311 375 431
#     4  12  27  47  80 113 144 197 256 307 365 442
#     4  12  25  46  77 104 150 188 243 310 369 438
#
# _framework density 23.905504000000001
#
# number of rings (size 3 to 8) (size 9 to 14) (size 15 to 20)
#    0.000    0.000    5.714    3.000    4.000    3.429 
#    0.000    2.857    0.000    0.000    0.000    0.000 
#    0.000    0.000    0.000    0.000    0.000    0.000 
#
# Total GULP energy -77978.751577 kJ/mol
# GULP energy per Si atom -5569.910827 kJ/mol
# Density = 2.385109 g / cm^3
# Si number density = 23.905504 Si / 1000 Ang^3
#
#
#
# Elastic Constant Matrix: (Units=GPa)
#
#
# Indices 1 2 3 4 5 6 
#
# 1 53.8889 15.2296 60.0700 0.0000 0.0000 0.0000
# 2 15.2296 96.3562 52.2096 0.0000 0.0000 0.0000
# 3 60.0700 52.2096 246.1394 0.0000 0.0000 0.0000
# 4 0.0000 0.0000 0.0000 53.4679 0.0000 0.0000
# 5 0.0000 0.0000 0.0000 0.0000 37.8916 0.0000
# 6 0.0000 0.0000 0.0000 0.0000 0.0000 21.9246
#
#
#
# Elastic Compliance Matrix: (Units=1/GPa)
#
#
# Indices 1 2 3 4 5 6 
#
# 1 0.025539 -0.000745 -0.006075 0.000000 0.000000 0.000000
# 2 -0.000745 0.011748 -0.002310 0.000000 0.000000 0.000000
# 3 -0.006075 -0.002310 0.006035 0.000000 0.000000 0.000000
# 4 0.000000 0.000000 0.000000 0.018703 0.000000 0.000000
# 5 0.000000 0.000000 0.000000 0.000000 0.026391 0.000000
# 6 0.000000 0.000000 0.000000 0.000000 0.000000 0.045611
#
#
# Mechanical properties :
#
#
# Convention : Reuss Voigt Hill
#
# Bulk Modulus (GPa) = 39.90086 72.37811 56.13949
# Shear Modulus (GPa) = 31.12558 40.58183 35.85370
#
# Velocity S-wave (km/s) = 3.61227 4.12466 3.87694
# Velocity P-wave (km/s) = 5.84169 7.28191 6.60119
#
# Compressibility (1/GPa) = 0.02506211
#
# Stress axis : x y z
#
# Youngs Moduli (GPa) = 39.15629 85.12407 165.69367
#
# Poissons Ratio (x) = 0.06342 1.00653
# Poissons Ratio (y) = 0.02917 0.38275
# Poissons Ratio (z) = 0.23786 0.19664
#
# Static dielectric constant tensor:
#      x y z
#    x 1.972340 0.000000 0.000000 
#    y 0.000000 2.245930 0.000000 
#    z 0.000000 0.000000 1.899960 
# 
# From -- ./inp_files/16258.got.cif
#   From: 2010.05.17/outbox.cif.g08.bks.cpg/sg23_9_cif.got.tgz:16258.got - 2010.06.04 12:02:01.
