data_PCOD9332558
_publ_section_title
;
Structure prediction by ZEFSAII (Michael W. Deem and Ramdas Pophale) SiO2 
 PCOD9332558
Probable space group: I 2 2 2
;
_chemical_formula_sum "Si O2"
_cell_formula_units_Z 30
_cell_length_a 14.035270
_cell_length_b 8.778253
_cell_length_c 9.314146
_cell_angle_alpha 90.000000
_cell_angle_beta 90.000000
_cell_angle_gamma 90.000000
_cell_volume 1147.550764
_symmetry_space_group_name_H-M "I 2 2 2"
_symmetry_group_IT_number 23
_symmetry_cell_setting 'orthorhombic'
loop_
_space_group_symop_operation_xyz
x,y,z
-x,-y,z
x,-y,-z
-x,y,-z
1/2+x,1/2+y,1/2+z
1/2-x,1/2-y,1/2+z
1/2+x,1/2-y,1/2-z
1/2-x,1/2+y,1/2-z
loop_
_atom_site_type_symbol
_atom_site_label
_atom_site_fract_x
_atom_site_fract_y
_atom_site_fract_z
Si Si1 0.120651 0.500000 0.500000
Si Si2 0.773250 0.820127 0.173273
Si Si3 0.449290 0.851381 0.298958
Si Si4 0.385635 0.628165 0.741334
Si Si5 0.000000 0.000000 0.500000
O O1 0.191227 0.379749 0.571165
O O2 0.070618 0.599491 0.629234
O O3 0.847639 0.688507 0.134794
O O4 0.703220 0.740560 0.288041
O O5 0.841452 0.963646 0.203878
O O6 0.522026 0.711443 0.323988
O O7 0.500000 0.000000 0.354197
O O8 0.429479 0.597940 0.900084
#
# Coordination Sequence:
#
# PCOD9332558 Si02
#       5
#     4   8   8   8   2
#     4  12  25  44  79 104 144 188 237 302 363 406
#     4  12  25  44  69 108 148 181 236 298 363 416
#     4  12  24  45  75 104 139 188 242 292 350 431
#     4  12  24  42  69 107 141 180 236 300 346 422
#     4  12  24  40  78 102 138 176 262 288 348 402
#
# _framework density 26.142634000000001
#
# number of rings (size 3 to 8) (size 9 to 14) (size 15 to 20)
#    0.000    0.000    8.000    2.000    0.000    0.000 
#    0.000    2.667    0.000    4.800    0.000    0.000 
#    0.000    0.000    0.000    0.000    0.000    0.000 
#
# Total GULP energy -83604.651289 kJ/mol
# GULP energy per Si atom -5573.643419 kJ/mol
# Density = 2.608313 g / cm^3
# Si number density = 26.142634 Si / 1000 Ang^3
#
#
#
# Elastic Constant Matrix: (Units=GPa)
#
#
# Indices 1 2 3 4 5 6 
#
# 1 184.0010 73.9653 5.2038 0.0000 0.0000 0.0000
# 2 73.9653 118.3284 28.1554 0.0000 0.0000 0.0000
# 3 5.2038 28.1554 70.8045 0.0000 0.0000 0.0000
# 4 0.0000 0.0000 0.0000 14.1058 0.0000 0.0000
# 5 0.0000 0.0000 0.0000 0.0000 42.2559 0.0000
# 6 0.0000 0.0000 0.0000 0.0000 0.0000 62.9991
#
#
#
# Elastic Compliance Matrix: (Units=1/GPa)
#
#
# Indices 1 2 3 4 5 6 
#
# 1 0.007387 -0.004958 0.001428 0.000000 0.000000 0.000000
# 2 -0.004958 0.012661 -0.004670 0.000000 0.000000 0.000000
# 3 0.001428 -0.004670 0.015876 0.000000 0.000000 0.000000
# 4 0.000000 0.000000 0.000000 0.070893 0.000000 0.000000
# 5 0.000000 0.000000 0.000000 0.000000 0.023665 0.000000
# 6 0.000000 0.000000 0.000000 0.000000 0.000000 0.015873
#
#
# Mechanical properties :
#
#
# Convention : Reuss Voigt Hill
#
# Bulk Modulus (GPa) = 51.21616 65.30920 58.26268
# Shear Modulus (GPa) = 29.53991 41.59279 35.56635
#
# Velocity S-wave (km/s) = 3.36512 3.99305 3.69246
# Velocity P-wave (km/s) = 5.89341 6.80407 6.36505
#
# Compressibility (1/GPa) = 0.01952509
#
# Stress axis : x y z
#
# Youngs Moduli (GPa) = 135.36952 78.98150 62.98980
#
# Poissons Ratio (x) = 0.39155 -0.08998
# Poissons Ratio (y) = 0.67109 0.29419
# Poissons Ratio (z) = -0.19337 0.36887
#
# Static dielectric constant tensor:
#      x y z
#    x 1.999180 0.000000 0.000000 
#    y 0.000000 2.193530 0.000000 
#    z 0.000000 0.000000 2.976470 
# 
# From -- ./inp_files/7854.got.cif
#   From: 2010.05.17/outbox.cif.g08.bks.cpg/sg23_4_cif.got.tgz:7854.got - 2010.06.04 12:02:01.
