data_PCOD9332488
_publ_section_title
;
Structure prediction by ZEFSAII (Michael W. Deem and Ramdas Pophale) SiO2 
 PCOD9332488
Probable space group: I 2 2 2
;
_chemical_formula_sum "Si O2"
_cell_formula_units_Z 34
_cell_length_a 14.051091
_cell_length_b 20.790733
_cell_length_c 5.107324
_cell_angle_alpha 90.000000
_cell_angle_beta 90.000000
_cell_angle_gamma 90.000000
_cell_volume 1492.015233
_symmetry_space_group_name_H-M "I 2 2 2"
_symmetry_group_IT_number 23
_symmetry_cell_setting 'orthorhombic'
loop_
_space_group_symop_operation_xyz
x,y,z
-x,-y,z
x,-y,-z
-x,y,-z
1/2+x,1/2+y,1/2+z
1/2-x,1/2-y,1/2+z
1/2+x,1/2-y,1/2-z
1/2-x,1/2+y,1/2-z
loop_
_atom_site_type_symbol
_atom_site_label
_atom_site_fract_x
_atom_site_fract_y
_atom_site_fract_z
Si Si1 0.845166 0.000000 0.500000
Si Si2 0.096260 0.394726 0.632052
Si Si3 0.000000 0.807746 0.000000
Si Si4 0.190062 0.269036 0.854666
Si Si5 0.500000 0.393898 0.000000
Si Si6 0.000000 0.500000 0.000000
Si Si7 0.780042 0.500000 0.500000
O O1 0.912439 0.059820 0.429710
O O2 0.782852 0.016957 0.750481
O O3 0.158701 0.340330 0.767057
O O4 0.158969 0.436350 0.431072
O O5 0.000000 0.367292 0.500000
O O6 0.061482 0.451322 0.824849
O O7 0.091934 0.766108 0.072300
O O8 0.975756 0.851014 0.250527
O O9 0.241678 0.235457 0.607111
#
# Coordination Sequence:
#
# PCOD9332488 Si02
#       7
#     4   8   4   8   4   2   4
#     4  11  27  46  72 116 142 202 241 333 366 470
#     4  12  28  49  76 116 159 202 256 326 405 467
#     4  12  27  53  76 111 149 212 252 330 372 470
#     4  12  32  52  80 115 158 215 266 320 393 480
#     4  11  26  50  76 100 158 191 262 302 398 435
#     4  12  22  52  78 114 150 212 240 342 408 452
#     4  12  25  45  78 112 150 190 254 319 395 452
#
# _framework density 22.787970999999999
#
# number of rings (size 3 to 8) (size 9 to 14) (size 15 to 20)
#    0.000    0.235    2.353    4.235   18.118    1.882 
#    0.000    0.000    0.000    0.000    0.000    0.000 
#    0.000    0.000    0.000    0.000    0.000    0.000 
#
# Total GULP energy -95274.867164 kJ/mol
# GULP energy per Si atom -5604.403951 kJ/mol
# Density = 2.273610 g / cm^3
# Si number density = 22.787971 Si / 1000 Ang^3
#
#
#
# Elastic Constant Matrix: (Units=GPa)
#
#
# Indices 1 2 3 4 5 6 
#
# 1 137.9856 61.7878 41.5833 0.0000 0.0000 0.0000
# 2 61.7878 136.8080 39.0618 0.0000 0.0000 0.0000
# 3 41.5833 39.0618 110.6109 0.0000 0.0000 0.0000
# 4 0.0000 0.0000 0.0000 36.6132 0.0000 0.0000
# 5 0.0000 0.0000 0.0000 0.0000 45.4179 0.0000
# 6 0.0000 0.0000 0.0000 0.0000 0.0000 24.2872
#
#
#
# Elastic Compliance Matrix: (Units=1/GPa)
#
#
# Indices 1 2 3 4 5 6 
#
# 1 0.009586 -0.003671 -0.002308 0.000000 0.000000 0.000000
# 2 -0.003671 0.009535 -0.001987 0.000000 0.000000 0.000000
# 3 -0.002308 -0.001987 0.010610 0.000000 0.000000 0.000000
# 4 0.000000 0.000000 0.000000 0.027313 0.000000 0.000000
# 5 0.000000 0.000000 0.000000 0.000000 0.022018 0.000000
# 6 0.000000 0.000000 0.000000 0.000000 0.000000 0.041174
#
#
# Mechanical properties :
#
#
# Convention : Reuss Voigt Hill
#
# Bulk Modulus (GPa) = 72.46343 74.47446 73.46895
# Shear Modulus (GPa) = 35.51993 37.46176 36.49084
#
# Velocity S-wave (km/s) = 3.95234 4.05894 4.00599
# Velocity P-wave (km/s) = 7.25920 7.39723 7.32854
#
# Compressibility (1/GPa) = 0.01380006
#
# Stress axis : x y z
#
# Youngs Moduli (GPa) = 104.31668 104.88002 94.25082
#
# Poissons Ratio (x) = 0.38498 0.21749
# Poissons Ratio (y) = 0.38291 0.18730
# Poissons Ratio (z) = 0.24072 0.20842
#
# Static dielectric constant tensor:
#      x y z
#    x 1.904460 0.000000 0.000000 
#    y 0.000000 1.804300 0.000000 
#    z 0.000000 0.000000 1.815490 
# 
# From -- ./inp_files/2240.got.cif
#   From: 2010.05.17/outbox.cif.g08.bks.cpg/sg23_2_cif.got.tgz:2240.got - 2010.06.04 12:02:01.
