data_PCOD9332123
_publ_section_title
;
Structure prediction by ZEFSAII (Michael W. Deem and Ramdas Pophale) SiO2 
 PCOD9332123
Probable space group: I 2 2 2
;
_chemical_formula_sum "Si O2"
_cell_formula_units_Z 58
_cell_length_a 15.461119
_cell_length_b 9.539190
_cell_length_c 19.170770
_cell_angle_alpha 90.000000
_cell_angle_beta 90.000000
_cell_angle_gamma 90.000000
_cell_volume 2827.430762
_symmetry_space_group_name_H-M "I 2 2 2"
_symmetry_group_IT_number 23
_symmetry_cell_setting 'orthorhombic'
loop_
_space_group_symop_operation_xyz
x,y,z
-x,-y,z
x,-y,-z
-x,y,-z
1/2+x,1/2+y,1/2+z
1/2-x,1/2-y,1/2+z
1/2+x,1/2-y,1/2-z
1/2-x,1/2+y,1/2-z
loop_
_atom_site_type_symbol
_atom_site_label
_atom_site_fract_x
_atom_site_fract_y
_atom_site_fract_z
Si Si1 0.801579 0.178071 0.366590
Si Si2 0.097828 0.168192 0.496449
Si Si3 0.000000 0.000000 0.000000
Si Si4 0.221914 0.605134 0.169641
Si Si5 0.527859 0.342549 0.775780
Si Si6 0.402212 0.344010 0.372430
Si Si7 0.126919 0.698950 0.649647
Si Si8 0.758722 0.464847 0.325044
O O1 0.847654 0.216129 0.438351
O O2 0.876236 0.174065 0.307278
O O3 0.741357 0.306887 0.347893
O O4 0.757166 0.027442 0.373075
O O5 0.130707 0.223702 0.423934
O O6 0.000000 0.219241 0.500000
O O7 0.096461 0.000000 0.500000
O O8 0.056822 0.903166 0.054998
O O9 0.146961 0.692562 0.130597
O O10 0.296644 0.717648 0.188695
O O11 0.207238 0.536647 0.245384
O O12 0.500000 0.500000 0.797072
O O13 0.529937 0.335111 0.691924
O O14 0.462214 0.232942 0.811283
O O15 0.327442 0.449694 0.344380
O O16 0.159778 0.541699 0.638577
#
# Coordination Sequence:
#
# PCOD9332123 Si02
#       8
#     8   8   2   8   8   8   8   8
#     4  12  22  38  70  97 138 179 229 286 363 430
#     4  11  21  37  59  95 132 175 213 265 341 434
#     4  12  28  52  76 106 148 200 252 306 380 448
#     4  11  21  43  68 102 131 176 243 298 350 423
#     4  12  19  38  70 103 127 185 237 291 355 430
#     4  11  25  45  74 100 141 187 247 301 361 437
#     4  11  23  38  67  99 139 171 230 285 350 432
#     4  11  24  42  67 105 136 177 236 307 361 423
#
# _framework density 20.513321999999999
#
# number of rings (size 3 to 8) (size 9 to 14) (size 15 to 20)
#    0.000    0.690    7.586    0.828    0.000    3.310 
#    0.000    0.690    0.000    0.828    0.000    0.000 
#    0.000    0.000    0.000    0.000    0.000    0.000 
#
# Total GULP energy -161719.017703 kJ/mol
# GULP energy per Si atom -5576.517852 kJ/mol
# Density = 2.046663 g / cm^3
# Si number density = 20.513322 Si / 1000 Ang^3
#
#
#
# Elastic Constant Matrix: (Units=GPa)
#
#
# Indices 1 2 3 4 5 6 
#
# 1 54.7397 39.5929 36.1919 0.0000 0.0000 0.0000
# 2 39.5929 93.6331 29.7942 0.0000 0.0000 0.0000
# 3 36.1919 29.7942 142.2382 0.0000 0.0000 0.0000
# 4 0.0000 0.0000 0.0000 25.3439 0.0000 0.0000
# 5 0.0000 0.0000 0.0000 0.0000 4.0578 0.0000
# 6 0.0000 0.0000 0.0000 0.0000 0.0000 27.7361
#
#
#
# Elastic Compliance Matrix: (Units=1/GPa)
#
#
# Indices 1 2 3 4 5 6 
#
# 1 0.029582 -0.010836 -0.005257 0.000000 0.000000 0.000000
# 2 -0.010836 0.015412 -0.000471 0.000000 0.000000 0.000000
# 3 -0.005257 -0.000471 0.008467 0.000000 0.000000 0.000000
# 4 0.000000 0.000000 0.000000 0.039457 0.000000 0.000000
# 5 0.000000 0.000000 0.000000 0.000000 0.246439 0.000000
# 6 0.000000 0.000000 0.000000 0.000000 0.000000 0.036054
#
#
# Mechanical properties :
#
#
# Convention : Reuss Voigt Hill
#
# Bulk Modulus (GPa) = 49.18350 55.75212 52.46781
# Shear Modulus (GPa) = 12.03902 23.76302 17.90102
#
# Velocity S-wave (km/s) = 2.42520 3.40725 2.95728
# Velocity P-wave (km/s) = 5.64540 6.53579 6.10685
#
# Compressibility (1/GPa) = 0.02033202
#
# Stress axis : x y z
#
# Youngs Moduli (GPa) = 33.80485 64.88518 118.10822
#
# Poissons Ratio (x) = 0.70308 0.62091
# Poissons Ratio (y) = 0.36630 0.05565
# Poissons Ratio (z) = 0.17772 0.03057
#
# Static dielectric constant tensor:
#      x y z
#    x 1.874860 0.000000 0.000000 
#    y 0.000000 1.789030 0.000000 
#    z 0.000000 0.000000 1.766670 
# 
# From -- ./inp_files/25078.got.cif
#   From: 2010.05.17/outbox.cif.g08.bks.cpg/sg23_13_cif.got.tgz:25078.got - 2010.06.04 12:02:01.
