data_PCOD9332929
_publ_section_title
;
Structure prediction by ZEFSAII (Michael W. Deem and Ramdas Pophale) SiO2 
 PCOD9332929
Probable space group: I 21 21 21
;
_chemical_formula_sum "Si O2"
_cell_formula_units_Z 32
_cell_length_a 5.027839
_cell_length_b 11.058490
_cell_length_c 32.794683
_cell_angle_alpha 90.000000
_cell_angle_beta 90.000000
_cell_angle_gamma 90.000000
_cell_volume 1823.394453
_symmetry_space_group_name_H-M "I 21 21 21"
_symmetry_group_IT_number 24
_symmetry_cell_setting 'orthorhombic'
loop_
_space_group_symop_operation_xyz
x,y,z
-x,1/2-y,z
x,-y,1/2-z
1/2-x,y,-z
1/2+x,1/2+y,1/2+z
1/2-x,-y,1/2+z
1/2+x,1/2-y,-z
-x,1/2+y,1/2-z
loop_
_atom_site_type_symbol
_atom_site_label
_atom_site_fract_x
_atom_site_fract_y
_atom_site_fract_z
Si Si1 0.386700 0.511883 0.323102
Si Si2 0.000000 0.750000 0.472728
Si Si3 0.881955 0.598184 0.214326
Si Si4 0.234115 0.669822 0.395195
Si Si5 0.500000 0.750000 0.267480
O O1 0.668625 0.447217 0.319024
O O2 0.305257 0.557097 0.367598
O O3 0.410725 0.364779 0.204716
O O4 0.166845 0.419373 0.306409
O O5 0.750000 0.711434 0.500000
O O6 0.113639 0.651209 0.440423
O O7 0.889635 0.500000 0.250000
O O8 0.740856 0.707906 0.238391
O O9 0.500000 0.750000 0.399054
O O10 0.000000 0.750000 0.374080
#
# Coordination Sequence:
#
# PCOD9332929 Si02
#       5
#     8   4   8   8   4
#     4  11  21  34  48  70  92 131 179 202 252 308
#     4  10  18  29  46  72  96 126 160 182 240 309
#     4  10  22  32  48  68  90 128 172 220 259 288
#     4  10  19  30  48  66  94 134 153 199 242 281
#     4  10  22  37  50  68 104 130 176 236 258 277
#
# _framework density 17.549686000000001
#
# number of rings (size 3 to 8) (size 9 to 14) (size 15 to 20)
#    0.750    1.000    2.500    3.750    3.500    5.000 
#    0.000    0.000    0.000    0.000    0.000    0.000 
#    0.000    0.000    0.000   22.500    0.000    5.000 
#
# Total GULP energy -89081.539462 kJ/mol
# GULP energy per Si atom -5567.596216 kJ/mol
# Density = 1.750974 g / cm^3
# Si number density = 17.549686 Si / 1000 Ang^3
#
#
#
# Elastic Constant Matrix: (Units=GPa)
#
#
# Indices 1 2 3 4 5 6 
#
# 1 116.4525 16.0606 24.6835 0.0000 0.0000 0.0000
# 2 16.0606 33.6611 22.9961 0.0000 0.0000 0.0000
# 3 24.6835 22.9961 96.4196 0.0000 0.0000 0.0000
# 4 0.0000 0.0000 0.0000 8.4519 0.0000 0.0000
# 5 0.0000 0.0000 0.0000 0.0000 15.4738 0.0000
# 6 0.0000 0.0000 0.0000 0.0000 0.0000 11.2291
#
#
#
# Elastic Compliance Matrix: (Units=1/GPa)
#
#
# Indices 1 2 3 4 5 6 
#
# 1 0.009393 -0.003392 -0.001596 0.000000 0.000000 0.000000
# 2 -0.003392 0.036715 -0.007888 0.000000 0.000000 0.000000
# 3 -0.001596 -0.007888 0.012661 0.000000 0.000000 0.000000
# 4 0.000000 0.000000 0.000000 0.118317 0.000000 0.000000
# 5 0.000000 0.000000 0.000000 0.000000 0.064625 0.000000
# 6 0.000000 0.000000 0.000000 0.000000 0.000000 0.089055
#
#
# Mechanical properties :
#
#
# Convention : Reuss Voigt Hill
#
# Bulk Modulus (GPa) = 30.28631 41.55705 35.92168
# Shear Modulus (GPa) = 13.60457 19.21715 16.41086
#
# Velocity S-wave (km/s) = 2.78727 3.31269 3.06127
# Velocity P-wave (km/s) = 5.25865 6.19378 5.74527
#
# Compressibility (1/GPa) = 0.03301822
#
# Stress axis : x y z
#
# Youngs Moduli (GPa) = 106.46018 27.23673 78.98127
#
# Poissons Ratio (x) = 0.09237 0.12604
# Poissons Ratio (y) = 0.36106 0.62303
# Poissons Ratio (z) = 0.16989 0.21485
#
# Static dielectric constant tensor:
#      x y z
#    x 1.671360 0.000000 0.000000 
#    y 0.000000 1.700340 0.000000 
#    z 0.000000 0.000000 1.613980 
# 
# From -- ./inp_files/36299.got.cif
#   From: 2010.05.17/outbox.cif.g08.bks.cpg/sg24_19_cif.got.tgz:36299.got - 2010.06.04 00:33:39.
