data_PCOD9332797
_publ_section_title
;
Structure prediction by ZEFSAII (Michael W. Deem and Ramdas Pophale) SiO2 
 PCOD9332797
Probable space group: I 21 21 21
;
_chemical_formula_sum "Si O2"
_cell_formula_units_Z 48
_cell_length_a 10.202083
_cell_length_b 8.426098
_cell_length_c 28.742616
_cell_angle_alpha 90.000000
_cell_angle_beta 90.000000
_cell_angle_gamma 90.000000
_cell_volume 2470.823090
_symmetry_space_group_name_H-M "I 21 21 21"
_symmetry_group_IT_number 24
_symmetry_cell_setting 'orthorhombic'
loop_
_space_group_symop_operation_xyz
x,y,z
-x,1/2-y,z
x,-y,1/2-z
1/2-x,y,-z
1/2+x,1/2+y,1/2+z
1/2-x,-y,1/2+z
1/2+x,1/2-y,-z
-x,1/2+y,1/2-z
loop_
_atom_site_type_symbol
_atom_site_label
_atom_site_fract_x
_atom_site_fract_y
_atom_site_fract_z
Si Si1 0.393868 0.387439 0.099018
Si Si2 0.623238 0.643160 0.715815
Si Si3 0.895301 0.112666 0.514650
Si Si4 0.696649 0.935900 0.299053
Si Si5 0.452401 0.427279 0.656421
Si Si6 0.393380 0.616148 0.568802
O O1 0.500000 0.250000 0.091630
O O2 0.410073 0.543565 0.066801
O O3 0.388161 0.432662 0.153856
O O4 0.251440 0.323683 0.082038
O O5 0.500000 0.750000 0.733298
O O6 0.655170 0.500000 0.750000
O O7 0.743437 0.759548 0.707160
O O8 0.563137 0.553956 0.671206
O O9 0.750000 0.171831 0.500000
O O10 0.000000 0.250000 0.506076
O O11 0.909511 0.957522 0.482017
O O12 0.641074 0.000000 0.250000
O O13 0.825813 0.040889 0.311278
O O14 0.500000 0.250000 0.660377
O O15 0.413380 0.470837 0.604315
O O16 0.500000 0.750000 0.576515
#
# Coordination Sequence:
#
# PCOD9332797 Si02
#       6
#     8   8   8   8   8   8
#     4  10  22  41  59  80 115 156 190 230 286 343
#     4  10  17  28  48  78 113 149 189 235 293 341
#     4  10  22  40  62  89 119 149 186 233 285 340
#     4  10  20  35  53  75 109 151 196 241 281 334
#     4  10  17  28  50  83 120 150 182 235 295 340
#     4  10  20  36  61  91 117 147 190 236 280 338
#
# _framework density 19.426725999999999
#
# number of rings (size 3 to 8) (size 9 to 14) (size 15 to 20)
#    0.000    2.000    0.000    7.000    0.000    1.333 
#    0.000    8.333    0.000    0.000    0.000    0.000 
#    0.000    0.000    0.000    0.000    0.000    0.000 
#
# Total GULP energy -133882.236927 kJ/mol
# GULP energy per Si atom -5578.426539 kJ/mol
# Density = 1.938251 g / cm^3
# Si number density = 19.426726 Si / 1000 Ang^3
#
#
#
# Elastic Constant Matrix: (Units=GPa)
#
#
# Indices 1 2 3 4 5 6 
#
# 1 80.7344 59.6972 28.9480 0.0000 0.0000 0.0000
# 2 59.6972 105.5528 35.0876 0.0000 0.0000 0.0000
# 3 28.9480 35.0876 130.8123 0.0000 0.0000 0.0000
# 4 0.0000 0.0000 0.0000 -175.8680 0.0000 0.0000
# 5 0.0000 0.0000 0.0000 0.0000 13.8843 0.0000
# 6 0.0000 0.0000 0.0000 0.0000 0.0000 26.0894
#
#
#
# Elastic Compliance Matrix: (Units=1/GPa)
#
#
# Indices 1 2 3 4 5 6 
#
# 1 0.021609 -0.011673 -0.001651 0.000000 0.000000 0.000000
# 2 -0.011673 0.016707 -0.001898 0.000000 0.000000 0.000000
# 3 -0.001651 -0.001898 0.008519 0.000000 0.000000 0.000000
# 4 0.000000 0.000000 0.000000 -0.005686 0.000000 0.000000
# 5 0.000000 0.000000 0.000000 0.000000 0.072024 0.000000
# 6 0.000000 0.000000 0.000000 0.000000 0.000000 0.038330
#
#
# Mechanical properties :
#
#
# Convention : Reuss Voigt Hill
#
# Bulk Modulus (GPa) = 61.00806 62.72946 61.86876
# Shear Modulus (GPa) = 26.67945 -14.28776 6.19585
#
# Velocity S-wave (km/s) = 3.70988 -2.71490 1.78781
# Velocity P-wave (km/s) = 7.05856 4.74688 6.01482
#
# Compressibility (1/GPa) = 0.01639128
#
# Stress axis : x y z
#
# Youngs Moduli (GPa) = 46.27600 59.85649 117.38418
#
# Poissons Ratio (x) = 0.69869 0.19381
# Poissons Ratio (y) = 0.54017 0.22280
# Poissons Ratio (z) = 0.07641 0.11361
#
# Static dielectric constant tensor:
#      x y z
#    x 1.689930 0.000000 0.000000 
#    y 0.000000 1.635800 0.000000 
#    z 0.000000 0.000000 1.745580 
# 
# From -- ./inp_files/38293.got.cif
#   From: 2010.05.17/outbox.cif.g08.bks.cpg/sg24_20_cif.got.tgz:38293.got - 2010.06.04 00:33:39.
