data_PCOD9332609
_publ_section_title
;
Structure prediction by ZEFSAII (Michael W. Deem and Ramdas Pophale) SiO2 
 PCOD9332609
Probable space group: I 2 2 2
;
_chemical_formula_sum "Si O2"
_cell_formula_units_Z 32
_cell_length_a 13.723622
_cell_length_b 16.643712
_cell_length_c 4.830732
_cell_angle_alpha 90.000000
_cell_angle_beta 90.000000
_cell_angle_gamma 90.000000
_cell_volume 1103.397216
_symmetry_space_group_name_H-M "I 2 2 2"
_symmetry_group_IT_number 23
_symmetry_cell_setting 'orthorhombic'
loop_
_space_group_symop_operation_xyz
x,y,z
-x,-y,z
x,-y,-z
-x,y,-z
1/2+x,1/2+y,1/2+z
1/2-x,1/2-y,1/2+z
1/2+x,1/2-y,1/2-z
1/2-x,1/2+y,1/2-z
loop_
_atom_site_type_symbol
_atom_site_label
_atom_site_fract_x
_atom_site_fract_y
_atom_site_fract_z
Si Si1 0.500000 0.267501 0.500000
Si Si2 0.754683 0.193182 0.775472
Si Si3 0.407473 0.121091 0.839971
Si Si4 0.727367 0.000000 0.500000
Si Si5 0.103371 0.103033 0.609828
O O1 0.549664 0.204216 0.287303
O O2 0.429302 0.326506 0.321565
O O3 0.724438 0.238134 0.496526
O O4 0.672788 0.141084 0.925431
O O5 0.353594 0.065263 0.614826
O O6 0.159293 0.139665 0.343796
O O7 0.500000 0.085031 0.000000
O O8 0.815988 0.961950 0.702838
O O9 0.000000 0.075326 0.500000
#
# Coordination Sequence:
#
# PCOD9332609 Si02
#       5
#     4   8   8   4   8
#     4  12  30  65 103 150 204 272 370 434 514 624
#     4  12  29  54  98 145 199 263 352 435 511 611
#     4  12  32  59  96 153 210 277 350 441 518 642
#     4  12  33  65  96 146 214 276 326 436 556 622
#     4  12  31  57  97 144 200 268 345 431 522 633
#
# _framework density 29.001346000000002
#
# number of rings (size 3 to 8) (size 9 to 14) (size 15 to 20)
#    0.000    0.000    0.000    5.625   28.000    1.500 
#    4.500    1.250    0.000    0.000    0.000    0.000 
#    0.000    0.000    0.000    0.000    0.000    0.000 
#
# Total GULP energy -89304.728648 kJ/mol
# GULP energy per Si atom -5581.545540 kJ/mol
# Density = 2.893534 g / cm^3
# Si number density = 29.001346 Si / 1000 Ang^3
#
#
#
# Elastic Constant Matrix: (Units=GPa)
#
#
# Indices 1 2 3 4 5 6 
#
# 1 217.0187 108.5776 85.9319 0.0000 0.0000 0.0000
# 2 108.5776 231.3627 110.4293 0.0000 0.0000 0.0000
# 3 85.9319 110.4293 215.9645 0.0000 0.0000 0.0000
# 4 0.0000 0.0000 0.0000 29.8210 0.0000 0.0000
# 5 0.0000 0.0000 0.0000 0.0000 84.2688 0.0000
# 6 0.0000 0.0000 0.0000 0.0000 0.0000 43.7826
#
#
#
# Elastic Compliance Matrix: (Units=1/GPa)
#
#
# Indices 1 2 3 4 5 6 
#
# 1 0.006292 -0.002325 -0.001314 0.000000 0.000000 0.000000
# 2 -0.002325 0.006577 -0.002438 0.000000 0.000000 0.000000
# 3 -0.001314 -0.002438 0.006400 0.000000 0.000000 0.000000
# 4 0.000000 0.000000 0.000000 0.033533 0.000000 0.000000
# 5 0.000000 0.000000 0.000000 0.000000 0.011867 0.000000
# 6 0.000000 0.000000 0.000000 0.000000 0.000000 0.022840
#
#
# Mechanical properties :
#
#
# Convention : Reuss Voigt Hill
#
# Bulk Modulus (GPa) = 140.57647 141.58039 141.07843
# Shear Modulus (GPa) = 49.00260 55.53497 52.26879
#
# Velocity S-wave (km/s) = 4.11501 4.38072 4.24994
# Velocity P-wave (km/s) = 8.43537 8.63204 8.53427
#
# Compressibility (1/GPa) = 0.00711357
#
# Stress axis : x y z
#
# Youngs Moduli (GPa) = 158.93780 152.04411 156.25126
#
# Poissons Ratio (x) = 0.35355 0.20539
# Poissons Ratio (y) = 0.36958 0.38091
# Poissons Ratio (z) = 0.20892 0.37065
#
# Static dielectric constant tensor:
#      x y z
#    x 2.388350 0.000000 0.000000 
#    y 0.000000 2.472780 0.000000 
#    z 0.000000 0.000000 2.282790 
# 
# From -- ./inp_files/1399.got.cif
#   From: 2010.05.17/outbox.cif.g08.bks.cpg/sg23_1_cif.got.tgz:1399.got - 2010.06.04 12:02:01.
