data_PCOD9332617
_publ_section_title
;
Structure prediction by ZEFSAII (Michael W. Deem and Ramdas Pophale) SiO2 
 PCOD9332617
Probable space group: I 2 2 2
;
_chemical_formula_sum "Si O2"
_cell_formula_units_Z 42
_cell_length_a 6.984044
_cell_length_b 14.189450
_cell_length_c 19.674439
_cell_angle_alpha 90.000000
_cell_angle_beta 90.000000
_cell_angle_gamma 90.000000
_cell_volume 1949.731851
_symmetry_space_group_name_H-M "I 2 2 2"
_symmetry_group_IT_number 23
_symmetry_cell_setting 'orthorhombic'
loop_
_space_group_symop_operation_xyz
x,y,z
-x,-y,z
x,-y,-z
-x,y,-z
1/2+x,1/2+y,1/2+z
1/2-x,1/2-y,1/2+z
1/2+x,1/2-y,1/2-z
1/2-x,1/2+y,1/2-z
loop_
_atom_site_type_symbol
_atom_site_label
_atom_site_fract_x
_atom_site_fract_y
_atom_site_fract_z
Si Si1 0.224258 0.802508 0.368225
Si Si2 0.328193 0.871908 0.779245
Si Si3 0.661662 0.249148 0.653603
Si Si4 0.723310 0.579060 0.261535
Si Si5 0.705922 0.179234 0.518900
Si Si6 0.500000 0.000000 0.500000
O O1 0.167337 0.697665 0.343749
O O2 0.455558 0.796758 0.360867
O O3 0.161898 0.881100 0.312742
O O4 0.184707 0.824650 0.447315
O O5 0.254491 0.805858 0.718015
O O6 0.548403 0.899370 0.766248
O O7 0.209129 0.968332 0.776166
O O8 0.637211 0.355004 0.679443
O O9 0.779955 0.232402 0.584994
O O10 0.500000 0.227167 0.500000
O O11 0.639638 0.072500 0.538534
#
# Coordination Sequence:
#
# PCOD9332617 Si02
#       6
#     8   8   8   8   8   2
#     4   9  17  30  47  70  94 116 149 193 234 267
#     4   9  18  30  47  67  92 123 156 185 223 275
#     4   9  17  30  47  70  94 116 149 193 234 267
#     4   9  18  30  47  67  92 123 156 185 223 275
#     4   8  16  26  46  72  96 110 147 188 235 266
#     4   8  16  24  48  80  92 116 144 190 242 276
#
# _framework density 21.541423000000002
#
# number of rings (size 3 to 8) (size 9 to 14) (size 15 to 20)
#    0.571    2.667    0.000    0.000    2.667    0.762 
#    0.000    1.905    0.000    5.714    0.000    1.333 
#    0.000    0.000    0.000    0.000    0.000    0.000 
#
# Total GULP energy -116936.819067 kJ/mol
# GULP energy per Si atom -5568.419956 kJ/mol
# Density = 2.149239 g / cm^3
# Si number density = 21.541423 Si / 1000 Ang^3
#
#
#
# Elastic Constant Matrix: (Units=GPa)
#
#
# Indices 1 2 3 4 5 6 
#
# 1 45.6974 0.8894 -0.2498 0.0000 0.0000 0.0000
# 2 0.8894 161.2443 71.1348 0.0000 0.0000 0.0000
# 3 -0.2498 71.1348 152.5517 0.0000 0.0000 0.0000
# 4 0.0000 0.0000 0.0000 15.2935 0.0000 0.0000
# 5 0.0000 0.0000 0.0000 0.0000 11.3110 0.0000
# 6 0.0000 0.0000 0.0000 0.0000 0.0000 24.1688
#
#
#
# Elastic Compliance Matrix: (Units=1/GPa)
#
#
# Indices 1 2 3 4 5 6 
#
# 1 0.021887 -0.000172 0.000116 0.000000 0.000000 0.000000
# 2 -0.000172 0.007809 -0.003642 0.000000 0.000000 0.000000
# 3 0.000116 -0.003642 0.008254 0.000000 0.000000 0.000000
# 4 0.000000 0.000000 0.000000 0.065387 0.000000 0.000000
# 5 0.000000 0.000000 0.000000 0.000000 0.088409 0.000000
# 6 0.000000 0.000000 0.000000 0.000000 0.000000 0.041376
#
#
# Mechanical properties :
#
#
# Convention : Reuss Voigt Hill
#
# Bulk Modulus (GPa) = 32.72838 55.89359 44.31099
# Shear Modulus (GPa) = 19.94395 29.33592 24.63994
#
# Velocity S-wave (km/s) = 3.04607 3.69431 3.38574
# Velocity P-wave (km/s) = 5.25334 6.64835 5.99158
#
# Compressibility (1/GPa) = 0.03055452
#
# Stress axis : x y z
#
# Youngs Moduli (GPa) = 45.68913 128.05204 121.16068
#
# Poissons Ratio (x) = 0.02201 -0.01405
# Poissons Ratio (y) = 0.00785 0.44124
# Poissons Ratio (z) = -0.00530 0.46634
#
# Static dielectric constant tensor:
#      x y z
#    x 1.945480 0.000000 0.000000 
#    y 0.000000 1.775850 0.000000 
#    z 0.000000 0.000000 1.825110 
# 
# From -- ./inp_files/24267.got.cif
#   From: 2010.05.17/outbox.cif.g08.bks.cpg/sg23_13_cif.got.tgz:24267.got - 2010.06.04 12:02:01.
