data_PCOD9332816
_publ_section_title
;
Structure prediction by ZEFSAII (Michael W. Deem and Ramdas Pophale) SiO2 
 PCOD9332816
Probable space group: I 21 21 21
;
_chemical_formula_sum "Si O2"
_cell_formula_units_Z 48
_cell_length_a 9.412483
_cell_length_b 20.384094
_cell_length_c 15.097003
_cell_angle_alpha 90.000000
_cell_angle_beta 90.000000
_cell_angle_gamma 90.000000
_cell_volume 2896.585548
_symmetry_space_group_name_H-M "I 21 21 21"
_symmetry_group_IT_number 24
_symmetry_cell_setting 'orthorhombic'
loop_
_space_group_symop_operation_xyz
x,y,z
-x,1/2-y,z
x,-y,1/2-z
1/2-x,y,-z
1/2+x,1/2+y,1/2+z
1/2-x,-y,1/2+z
1/2+x,1/2-y,-z
-x,1/2+y,1/2-z
loop_
_atom_site_type_symbol
_atom_site_label
_atom_site_fract_x
_atom_site_fract_y
_atom_site_fract_z
Si Si1 0.913794 0.987202 0.510133
Si Si2 0.670734 0.352970 0.594422
Si Si3 0.383965 0.002355 0.848752
Si Si4 0.067817 0.184576 0.697421
Si Si5 0.588109 0.853985 0.015848
Si Si6 0.577757 0.441926 0.181066
O O1 0.750000 0.968472 0.500000
O O2 0.005852 0.974454 0.422267
O O3 0.984668 0.952477 0.593945
O O4 0.918744 0.066578 0.521727
O O5 0.750000 0.353145 0.500000
O O6 0.665325 0.428294 0.627540
O O7 0.768867 0.312983 0.662384
O O8 0.511693 0.333004 0.566591
O O9 0.242623 0.046363 0.844775
O O10 0.447028 0.000000 0.750000
O O11 0.057508 0.125346 0.766494
O O12 0.000000 0.250000 0.736383
O O13 0.976132 0.171120 0.608043
O O14 0.750000 0.833347 0.000000
O O15 0.542417 0.500000 0.250000
#
# Coordination Sequence:
#
# PCOD9332816 Si02
#       6
#     8   8   8   8   8   8
#     4  10  20  33  52  83 113 136 173 227 282 322
#     4   9  16  31  51  75 108 142 175 218 264 325
#     4  10  17  30  56  82 106 135 181 222 267 321
#     4  11  21  33  51  78 107 144 184 227 268 319
#     4   9  18  32  51  79 112 143 174 214 277 343
#     4  11  18  34  56  76 104 145 183 221 265 322
#
# _framework density 16.571235999999999
#
# number of rings (size 3 to 8) (size 9 to 14) (size 15 to 20)
#    0.000    2.000    5.000    2.500    0.000    2.667 
#    3.000    0.000    0.000    2.000    0.000    0.000 
#    0.000    0.000    0.000    0.000    0.000    0.000 
#
# Total GULP energy -133843.396293 kJ/mol
# GULP energy per Si atom -5576.808179 kJ/mol
# Density = 1.653352 g / cm^3
# Si number density = 16.571236 Si / 1000 Ang^3
#
#
#
# Elastic Constant Matrix: (Units=GPa)
#
#
# Indices 1 2 3 4 5 6 
#
# 1 131.4757 41.7366 68.2020 0.0000 0.0000 0.0000
# 2 41.7366 79.1200 36.0685 0.0000 0.0000 0.0000
# 3 68.2020 36.0685 109.9870 0.0000 0.0000 0.0000
# 4 0.0000 0.0000 0.0000 17.0717 0.0000 0.0000
# 5 0.0000 0.0000 0.0000 0.0000 13.6054 0.0000
# 6 0.0000 0.0000 0.0000 0.0000 0.0000 10.0581
#
#
#
# Elastic Compliance Matrix: (Units=1/GPa)
#
#
# Indices 1 2 3 4 5 6 
#
# 1 0.011961 -0.003443 -0.006288 0.000000 0.000000 0.000000
# 2 -0.003443 0.015852 -0.003063 0.000000 0.000000 0.000000
# 3 -0.006288 -0.003063 0.013995 0.000000 0.000000 0.000000
# 4 0.000000 0.000000 0.000000 0.058577 0.000000 0.000000
# 5 0.000000 0.000000 0.000000 0.000000 0.073500 0.000000
# 6 0.000000 0.000000 0.000000 0.000000 0.000000 0.099422
#
#
# Mechanical properties :
#
#
# Convention : Reuss Voigt Hill
#
# Bulk Modulus (GPa) = 61.65269 68.06634 64.85952
# Shear Modulus (GPa) = 16.43111 19.78543 18.10827
#
# Velocity S-wave (km/s) = 3.15230 3.45912 3.30927
# Velocity P-wave (km/s) = 7.10878 7.55766 7.33665
#
# Compressibility (1/GPa) = 0.01621989
#
# Stress axis : x y z
#
# Youngs Moduli (GPa) = 83.60804 63.08456 71.45194
#
# Poissons Ratio (x) = 0.21720 0.44926
# Poissons Ratio (y) = 0.28786 0.21888
# Poissons Ratio (z) = 0.52569 0.19325
#
# Static dielectric constant tensor:
#      x y z
#    x 1.590640 0.000000 0.000000 
#    y 0.000000 1.566780 0.000000 
#    z 0.000000 0.000000 1.541200 
# 
# From -- ./inp_files/12970.got.cif
#   From: 2010.05.17/outbox.cif.g08.bks.cpg/sg24_7_cif.got.tgz:12970.got - 2010.06.04 00:33:39.
