data_PCOD9332846
_publ_section_title
;
Structure prediction by ZEFSAII (Michael W. Deem and Ramdas Pophale) SiO2 
 PCOD9332846
Probable space group: I 21 21 21
;
_chemical_formula_sum "Si O2"
_cell_formula_units_Z 64
_cell_length_a 18.806041
_cell_length_b 11.300650
_cell_length_c 14.433767
_cell_angle_alpha 90.000000
_cell_angle_beta 90.000000
_cell_angle_gamma 90.000000
_cell_volume 3067.471195
_symmetry_space_group_name_H-M "I 21 21 21"
_symmetry_group_IT_number 24
_symmetry_cell_setting 'orthorhombic'
loop_
_space_group_symop_operation_xyz
x,y,z
-x,1/2-y,z
x,-y,1/2-z
1/2-x,y,-z
1/2+x,1/2+y,1/2+z
1/2-x,-y,1/2+z
1/2+x,1/2-y,-z
-x,1/2+y,1/2-z
loop_
_atom_site_type_symbol
_atom_site_label
_atom_site_fract_x
_atom_site_fract_y
_atom_site_fract_z
Si Si1 0.353306 0.812621 0.927482
Si Si2 0.387640 0.195365 0.368160
Si Si3 0.142138 0.748616 0.355959
Si Si4 0.753725 0.359280 0.739560
Si Si5 0.050029 0.033501 0.120755
Si Si6 0.531684 0.942741 0.149210
Si Si7 0.948308 0.841458 0.522709
Si Si8 0.058467 0.348429 0.303013
O O1 0.291604 0.821135 0.851238
O O2 0.401558 0.703240 0.892741
O O3 0.398118 0.933380 0.917163
O O4 0.342195 0.801508 0.036604
O O5 0.335578 0.165664 0.283665
O O6 0.451902 0.100458 0.378370
O O7 0.422537 0.323290 0.353554
O O8 0.221968 0.785643 0.327018
O O9 0.100696 0.871357 0.329728
O O10 0.117210 0.709239 0.459502
O O11 0.113288 0.651796 0.282522
O O12 0.744643 0.500000 0.750000
O O13 0.987496 0.959894 0.168239
O O14 0.006891 0.113946 0.050417
O O15 0.527897 0.000000 0.250000
O O16 0.566060 0.043036 0.083516
O O17 0.000000 0.750000 0.578871
O O18 0.000000 0.250000 0.277042
#
# Coordination Sequence:
#
# PCOD9332846 Si02
#       8
#     8   8   8   8   8   8   8   8
#     4  10  19  34  61  94 129 177 217 270 327 393
#     4  11  24  43  71  97 127 174 229 277 342 391
#     4  10  21  34  54  95 133 184 209 263 341 407
#     4  11  22  40  64  95 140 176 224 273 332 412
#     4  10  17  33  52  89 135 167 211 270 324 389
#     4  11  25  45  72 100 124 163 226 296 341 389
#     4  10  21  36  64  98 137 164 212 272 344 406
#     4   9  18  26  51  83 128 172 214 255 320 386
#
# _framework density 20.864091999999999
#
# number of rings (size 3 to 8) (size 9 to 14) (size 15 to 20)
#    0.000    1.750    2.500    2.625    5.250    3.500 
#    0.000    0.000   11.000    0.000    0.000    0.000 
#    0.000    0.000    0.000    0.000    0.000    0.000 
#
# Total GULP energy -178320.040532 kJ/mol
# GULP energy per Si atom -5572.501267 kJ/mol
# Density = 2.081660 g / cm^3
# Si number density = 20.864092 Si / 1000 Ang^3
#
#
#
# Elastic Constant Matrix: (Units=GPa)
#
#
# Indices 1 2 3 4 5 6 
#
# 1 72.3207 28.7125 22.1445 0.0000 0.0000 0.0000
# 2 28.7125 88.1818 25.9416 0.0000 0.0000 0.0000
# 3 22.1445 25.9416 69.1429 0.0000 0.0000 0.0000
# 4 0.0000 0.0000 0.0000 22.7462 0.0000 0.0000
# 5 0.0000 0.0000 0.0000 0.0000 30.2324 0.0000
# 6 0.0000 0.0000 0.0000 0.0000 0.0000 15.5201
#
#
#
# Elastic Compliance Matrix: (Units=1/GPa)
#
#
# Indices 1 2 3 4 5 6 
#
# 1 0.016689 -0.004341 -0.003716 0.000000 0.000000 0.000000
# 2 -0.004341 0.013876 -0.003816 0.000000 0.000000 0.000000
# 3 -0.003716 -0.003816 0.017085 0.000000 0.000000 0.000000
# 4 0.000000 0.000000 0.000000 0.043963 0.000000 0.000000
# 5 0.000000 0.000000 0.000000 0.000000 0.033077 0.000000
# 6 0.000000 0.000000 0.000000 0.000000 0.000000 0.064433
#
#
# Mechanical properties :
#
#
# Convention : Reuss Voigt Hill
#
# Bulk Modulus (GPa) = 41.83473 42.58251 42.20862
# Shear Modulus (GPa) = 22.64121 23.88953 23.26537
#
# Velocity S-wave (km/s) = 3.29777 3.38747 3.34292
# Velocity P-wave (km/s) = 5.88175 5.97944 5.93080
#
# Compressibility (1/GPa) = 0.02390359
#
# Stress axis : x y z
#
# Youngs Moduli (GPa) = 59.92141 72.06626 58.53179
#
# Poissons Ratio (x) = 0.31281 0.21752
# Poissons Ratio (y) = 0.26009 0.22336
# Poissons Ratio (z) = 0.22269 0.27500
#
# Static dielectric constant tensor:
#      x y z
#    x 1.759750 0.000000 0.000000 
#    y 0.000000 1.843620 0.000000 
#    z 0.000000 0.000000 1.870280 
# 
# From -- ./inp_files/27229.got.cif
#   From: 2010.05.17/outbox.cif.g08.bks.cpg/sg24_14_cif.got.tgz:27229.got - 2010.06.04 00:33:39.
