data_PCOD9332084
_publ_section_title
;
Structure prediction by ZEFSAII (Michael W. Deem and Ramdas Pophale) SiO2 
 PCOD9332084
Probable space group: I 2 2 2
;
_chemical_formula_sum "Si O2"
_cell_formula_units_Z 52
_cell_length_a 14.935071
_cell_length_b 8.654214
_cell_length_c 19.886251
_cell_angle_alpha 90.000000
_cell_angle_beta 90.000000
_cell_angle_gamma 90.000000
_cell_volume 2570.323805
_symmetry_space_group_name_H-M "I 2 2 2"
_symmetry_group_IT_number 23
_symmetry_cell_setting 'orthorhombic'
loop_
_space_group_symop_operation_xyz
x,y,z
-x,-y,z
x,-y,-z
-x,y,-z
1/2+x,1/2+y,1/2+z
1/2-x,1/2-y,1/2+z
1/2+x,1/2-y,1/2-z
1/2-x,1/2+y,1/2-z
loop_
_atom_site_type_symbol
_atom_site_label
_atom_site_fract_x
_atom_site_fract_y
_atom_site_fract_z
Si Si1 0.596903 0.060159 0.357064
Si Si2 0.407588 0.424273 0.170244
Si Si3 0.899089 0.558145 0.363951
Si Si4 0.198142 0.500000 0.500000
Si Si5 0.857961 0.783125 0.259249
Si Si6 0.158798 0.665826 0.255058
Si Si7 0.762599 0.853953 0.551573
O O1 0.590950 0.197219 0.301114
O O2 0.666813 0.114847 0.412915
O O3 0.500000 0.000000 0.380607
O O4 0.638086 0.917246 0.314590
O O5 0.500000 0.500000 0.145714
O O6 0.367601 0.536543 0.227933
O O7 0.419585 0.272474 0.215954
O O8 0.340031 0.377086 0.109537
O O9 0.861959 0.545024 0.437322
O O10 0.888882 0.724489 0.332113
O O11 0.837059 0.461833 0.313158
O O12 0.000000 0.500000 0.360721
O O13 0.238385 0.325706 0.522215
O O14 0.753392 0.750370 0.247408
O O15 0.775948 0.000000 0.500000
#
# Coordination Sequence:
#
# PCOD9332084 Si02
#       7
#     8   8   8   4   8   8   8
#     4  11  23  44  69  97 133 181 234 288 355 417
#     4  12  22  39  64 101 141 174 224 291 351 427
#     4  11  22  39  60  92 132 176 223 275 342 421
#     4  12  25  44  70  95 138 188 232 280 353 431
#     4  11  20  37  66  96 135 173 219 285 347 419
#     4  11  20  39  64  98 135 172 221 285 355 411
#     4  12  27  47  68 100 137 188 240 291 351 419
#
# _framework density 20.230915
#
# number of rings (size 3 to 8) (size 9 to 14) (size 15 to 20)
#    0.000    0.615    4.615    5.769    0.000    0.615 
#    2.769    0.000    0.000    0.923    0.000    0.000 
#    0.000    0.000    0.000    0.000    0.000    0.000 
#
# Total GULP energy -144766.776104 kJ/mol
# GULP energy per Si atom -5567.952927 kJ/mol
# Density = 2.018487 g / cm^3
# Si number density = 20.230915 Si / 1000 Ang^3
#
#
#
# Elastic Constant Matrix: (Units=GPa)
#
#
# Indices 1 2 3 4 5 6 
#
# 1 136.0148 43.9994 52.3474 0.0000 0.0000 0.0000
# 2 43.9994 125.3735 39.2437 0.0000 0.0000 0.0000
# 3 52.3474 39.2437 79.5062 0.0000 0.0000 0.0000
# 4 0.0000 0.0000 0.0000 5.3083 0.0000 0.0000
# 5 0.0000 0.0000 0.0000 0.0000 23.7389 0.0000
# 6 0.0000 0.0000 0.0000 0.0000 0.0000 23.3230
#
#
#
# Elastic Compliance Matrix: (Units=1/GPa)
#
#
# Indices 1 2 3 4 5 6 
#
# 1 0.010159 -0.001740 -0.005829 0.000000 0.000000 0.000000
# 2 -0.001740 0.009732 -0.003658 0.000000 0.000000 0.000000
# 3 -0.005829 -0.003658 0.018221 0.000000 0.000000 0.000000
# 4 0.000000 0.000000 0.000000 0.188384 0.000000 0.000000
# 5 0.000000 0.000000 0.000000 0.000000 0.042125 0.000000
# 6 0.000000 0.000000 0.000000 0.000000 0.000000 0.042876
#
#
# Mechanical properties :
#
#
# Convention : Reuss Voigt Hill
#
# Bulk Modulus (GPa) = 63.87082 68.00835 65.93958
# Shear Modulus (GPa) = 14.74185 24.16099 19.45142
#
# Velocity S-wave (km/s) = 2.70233 3.45956 3.10412
# Velocity P-wave (km/s) = 6.43244 7.04607 6.74623
#
# Compressibility (1/GPa) = 0.01565660
#
# Stress axis : x y z
#
# Youngs Moduli (GPa) = 98.43745 102.75516 54.88109
#
# Poissons Ratio (x) = 0.17884 0.31993
# Poissons Ratio (y) = 0.17133 0.20074
# Poissons Ratio (z) = 0.57384 0.37584
#
# Static dielectric constant tensor:
#      x y z
#    x 1.744220 0.000000 0.000000 
#    y 0.000000 2.361180 0.000000 
#    z 0.000000 0.000000 1.704350 
# 
# From -- ./inp_files/26955.got.cif
#   From: 2010.05.17/outbox.cif.g08.bks.cpg/sg23_14_cif.got.tgz:26955.got - 2010.06.04 12:02:01.
