data_PCOD9332749
_publ_section_title
;
Structure prediction by ZEFSAII (Michael W. Deem and Ramdas Pophale) SiO2 
 PCOD9332749
Probable space group: I 21 21 21
;
_chemical_formula_sum "Si O2"
_cell_formula_units_Z 48
_cell_length_a 18.457751
_cell_length_b 10.638659
_cell_length_c 12.589131
_cell_angle_alpha 90.000000
_cell_angle_beta 90.000000
_cell_angle_gamma 90.000000
_cell_volume 2472.073758
_symmetry_space_group_name_H-M "I 21 21 21"
_symmetry_group_IT_number 24
_symmetry_cell_setting 'orthorhombic'
loop_
_space_group_symop_operation_xyz
x,y,z
-x,1/2-y,z
x,-y,1/2-z
1/2-x,y,-z
1/2+x,1/2+y,1/2+z
1/2-x,-y,1/2+z
1/2+x,1/2-y,-z
-x,1/2+y,1/2-z
loop_
_atom_site_type_symbol
_atom_site_label
_atom_site_fract_x
_atom_site_fract_y
_atom_site_fract_z
Si Si1 0.329519 0.587387 0.051686
Si Si2 0.416606 0.748374 0.896047
Si Si3 0.791329 0.733009 0.762705
Si Si4 0.142891 0.767642 0.328224
Si Si5 0.202379 0.036734 0.397973
Si Si6 0.331089 0.301224 0.049338
O O1 0.330820 0.679778 0.152288
O O2 0.341819 0.444300 0.084557
O O3 0.250000 0.597807 0.000000
O O4 0.382141 0.631625 0.958095
O O5 0.500000 0.750000 0.927827
O O6 0.411612 0.746569 0.767857
O O7 0.362792 0.865557 0.924088
O O8 0.716800 0.796663 0.717910
O O9 0.759743 0.613193 0.825103
O O10 0.835983 0.714700 0.653839
O O11 0.166253 0.913216 0.347187
O O12 0.120956 0.722948 0.444983
O O13 0.250000 0.000746 0.500000
O O14 0.250000 0.287813 0.000000
#
# Coordination Sequence:
#
# PCOD9332749 Si02
#       6
#     8   8   8   8   8   8
#     4  11  18  35  57  82 114 149 201 246 294 352
#     4  11  22  38  57  86 120 160 198 237 306 372
#     4  10  16  32  55  86 109 140 189 251 296 333
#     4  10  21  36  53  89 122 152 197 242 301 350
#     4  11  19  37  64  90 119 153 209 257 296 352
#     4   9  20  31  52  88 115 143 185 244 298 342
#
# _framework density 19.416896999999999
#
# number of rings (size 3 to 8) (size 9 to 14) (size 15 to 20)
#    0.000    1.667    5.000    4.000    0.000    0.667 
#    6.000    0.000    0.000    1.000   13.000    0.000 
#    0.000    0.000    0.000    0.000    0.000    0.000 
#
# Total GULP energy -133666.626806 kJ/mol
# GULP energy per Si atom -5569.442784 kJ/mol
# Density = 1.937270 g / cm^3
# Si number density = 19.416897 Si / 1000 Ang^3
#
#
#
# Elastic Constant Matrix: (Units=GPa)
#
#
# Indices 1 2 3 4 5 6 
#
# 1 63.4565 13.1874 14.4968 0.0000 0.0000 0.0000
# 2 13.1874 80.1821 39.2552 0.0000 0.0000 0.0000
# 3 14.4968 39.2552 117.0621 0.0000 0.0000 0.0000
# 4 0.0000 0.0000 0.0000 31.5039 0.0000 0.0000
# 5 0.0000 0.0000 0.0000 0.0000 14.4681 0.0000
# 6 0.0000 0.0000 0.0000 0.0000 0.0000 -1.5438
#
#
#
# Elastic Compliance Matrix: (Units=1/GPa)
#
#
# Indices 1 2 3 4 5 6 
#
# 1 0.016494 -0.002049 -0.001355 0.000000 0.000000 0.000000
# 2 -0.002049 0.015176 -0.004835 0.000000 0.000000 0.000000
# 3 -0.001355 -0.004835 0.010332 0.000000 0.000000 0.000000
# 4 0.000000 0.000000 0.000000 0.031742 0.000000 0.000000
# 5 0.000000 0.000000 0.000000 0.000000 0.069117 0.000000
# 6 0.000000 0.000000 0.000000 0.000000 0.000000 -0.647750
#
#
# Mechanical properties :
#
#
# Convention : Reuss Voigt Hill
#
# Bulk Modulus (GPa) = 39.18165 43.84217 41.51191
# Shear Modulus (GPa) = -10.41882 21.80306 5.69212
#
# Velocity S-wave (km/s) = -2.31894 3.35459 1.71403
# Velocity P-wave (km/s) = 3.61289 6.13456 5.03417
#
# Compressibility (1/GPa) = 0.02552215
#
# Stress axis : x y z
#
# Youngs Moduli (GPa) = 60.62686 65.89412 96.78878
#
# Poissons Ratio (x) = 0.13503 0.13119
# Poissons Ratio (y) = 0.12424 0.46800
# Poissons Ratio (z) = 0.08218 0.31862
#
# Static dielectric constant tensor:
#      x y z
#    x 1.645300 0.000000 0.000000 
#    y 0.000000 1.724780 0.000000 
#    z 0.000000 0.000000 1.782680 
# 
# From -- ./inp_files/22147.got.cif
#   From: 2010.05.17/outbox.cif.g08.bks.cpg/sg24_12_cif.got.tgz:22147.got - 2010.06.04 00:33:39.
