data_PCOD9332760
_publ_section_title
;
Structure prediction by ZEFSAII (Michael W. Deem and Ramdas Pophale) SiO2 
 PCOD9332760
Probable space group: I 21 21 21
;
_chemical_formula_sum "Si O2"
_cell_formula_units_Z 56
_cell_length_a 14.573299
_cell_length_b 8.169090
_cell_length_c 23.012684
_cell_angle_alpha 90.000000
_cell_angle_beta 90.000000
_cell_angle_gamma 90.000000
_cell_volume 2739.673634
_symmetry_space_group_name_H-M "I 21 21 21"
_symmetry_group_IT_number 24
_symmetry_cell_setting 'orthorhombic'
loop_
_space_group_symop_operation_xyz
x,y,z
-x,1/2-y,z
x,-y,1/2-z
1/2-x,y,-z
1/2+x,1/2+y,1/2+z
1/2-x,-y,1/2+z
1/2+x,1/2-y,-z
-x,1/2+y,1/2-z
loop_
_atom_site_type_symbol
_atom_site_label
_atom_site_fract_x
_atom_site_fract_y
_atom_site_fract_z
Si Si1 0.500000 0.250000 0.604076
Si Si2 0.926614 0.397988 0.069148
Si Si3 0.570039 0.397047 0.355960
Si Si4 0.368571 0.450099 0.689395
Si Si5 0.230144 0.225337 0.143765
Si Si6 0.300687 0.239648 0.266747
Si Si7 0.398723 0.826457 0.438192
Si Si8 0.456509 0.500000 0.250000
O O1 0.534305 0.414540 0.569250
O O2 0.425305 0.334040 0.646755
O O3 0.844190 0.393374 0.115198
O O4 0.000000 0.250000 0.083380
O O5 0.885798 0.340383 0.007070
O O6 0.500000 0.250000 0.367431
O O7 0.662734 0.347972 0.323793
O O8 0.593088 0.491940 0.413355
O O9 0.517789 0.503914 0.307240
O O10 0.420082 0.500000 0.750000
O O11 0.326300 0.607589 0.656695
O O12 0.281378 0.352443 0.712716
O O13 0.266807 0.163899 0.206300
O O14 0.316309 0.252065 0.099852
O O15 0.390386 0.345079 0.250098
O O16 0.500000 0.750000 0.428531
#
# Coordination Sequence:
#
# PCOD9332760 Si02
#       8
#     4   8   8   8   8   8   8   4
#     4  12  26  48  76  96 142 184 230 302 362 388
#     4  11  26  48  72 100 134 185 242 291 340 407
#     4  10  22  35  60  95 136 176 223 275 332 417
#     4  10  23  42  70 103 134 181 228 289 356 429
#     4  11  21  44  68  95 145 175 224 286 343 414
#     4  10  20  37  63  99 137 172 225 278 348 421
#     4  11  25  42  68  98 135 185 231 278 341 404
#     4  10  16  34  56  94 136 174 212 266 350 414
#
# _framework density 20.440391999999999
#
# number of rings (size 3 to 8) (size 9 to 14) (size 15 to 20)
#    0.000    1.429    3.571    2.143    5.000    3.429 
#    2.571    0.000    0.000    0.000    0.000    0.000 
#    0.000    0.000    0.000    0.000    0.000    0.000 
#
# Total GULP energy -156136.356238 kJ/mol
# GULP energy per Si atom -5576.298437 kJ/mol
# Density = 2.039387 g / cm^3
# Si number density = 20.440392 Si / 1000 Ang^3
#
#
#
# Elastic Constant Matrix: (Units=GPa)
#
#
# Indices 1 2 3 4 5 6 
#
# 1 55.5963 15.7694 28.4316 0.0000 0.0000 0.0000
# 2 15.7694 83.2412 11.8388 0.0000 0.0000 0.0000
# 3 28.4316 11.8388 79.1679 0.0000 0.0000 0.0000
# 4 0.0000 0.0000 0.0000 32.2253 0.0000 0.0000
# 5 0.0000 0.0000 0.0000 0.0000-4155.5508 0.0000
# 6 0.0000 0.0000 0.0000 0.0000 0.0000 77.7926
#
#
#
# Elastic Compliance Matrix: (Units=1/GPa)
#
#
# Indices 1 2 3 4 5 6 
#
# 1 0.022853 -0.003231 -0.007724 0.000000 0.000000 0.000000
# 2 -0.003231 0.012731 -0.000744 0.000000 0.000000 0.000000
# 3 -0.007724 -0.000744 0.015517 0.000000 0.000000 0.000000
# 4 0.000000 0.000000 0.000000 0.031032 0.000000 0.000000
# 5 0.000000 0.000000 0.000000 0.000000 -0.000241 0.000000
# 6 0.000000 0.000000 0.000000 0.000000 0.000000 0.012855
#
#
# Mechanical properties :
#
#
# Convention : Reuss Voigt Hill
#
# Bulk Modulus (GPa) = 36.09603 36.67612 36.38608
# Shear Modulus (GPa) = 39.25320 -798.30887 -379.52784
#
# Velocity S-wave (km/s) = 4.38696 -19.78389 -13.64106
# Velocity P-wave (km/s) = 6.58469 22.44745 15.17448
#
# Compressibility (1/GPa) = 0.02770387
#
# Stress axis : x y z
#
# Youngs Moduli (GPa) = 43.75741 78.54790 64.44736
#
# Poissons Ratio (x) = 0.25378 0.49780
# Poissons Ratio (y) = 0.14137 0.04792
# Poissons Ratio (z) = 0.33799 0.05840
#
# Static dielectric constant tensor:
#      x y z
#    x 1.725390 0.000000 0.000000 
#    y 0.000000 1.856270 0.000000 
#    z 0.000000 0.000000 1.713440 
# 
# From -- ./inp_files/33804.got.cif
#   From: 2010.05.17/outbox.cif.g08.bks.cpg/sg24_17_cif.got.tgz:33804.got - 2010.06.04 00:33:39.
