data_PCOD9332117
_publ_section_title
;
Structure prediction by ZEFSAII (Michael W. Deem and Ramdas Pophale) SiO2 
 PCOD9332117
Probable space group: I 2 2 2
;
_chemical_formula_sum "Si O2"
_cell_formula_units_Z 42
_cell_length_a 9.084079
_cell_length_b 14.350712
_cell_length_c 15.840657
_cell_angle_alpha 90.000000
_cell_angle_beta 90.000000
_cell_angle_gamma 90.000000
_cell_volume 2065.035592
_symmetry_space_group_name_H-M "I 2 2 2"
_symmetry_group_IT_number 23
_symmetry_cell_setting 'orthorhombic'
loop_
_space_group_symop_operation_xyz
x,y,z
-x,-y,z
x,-y,-z
-x,y,-z
1/2+x,1/2+y,1/2+z
1/2-x,1/2-y,1/2+z
1/2+x,1/2-y,1/2-z
1/2-x,1/2+y,1/2-z
loop_
_atom_site_type_symbol
_atom_site_label
_atom_site_fract_x
_atom_site_fract_y
_atom_site_fract_z
Si Si1 0.836200 0.115788 0.672925
Si Si2 0.920374 0.236048 0.417827
Si Si3 0.348876 0.636963 0.366967
Si Si4 0.767789 0.557196 0.080606
Si Si5 0.500000 0.500000 0.500000
Si Si6 0.478671 0.821400 0.602344
O O1 0.843089 0.098908 0.772504
O O2 0.680814 0.157597 0.639429
O O3 0.962290 0.188910 0.645262
O O4 0.835236 0.014363 0.629723
O O5 0.807421 0.312062 0.383256
O O6 0.824637 0.146804 0.447804
O O7 0.000000 0.275074 0.500000
O O8 0.399006 0.564074 0.438589
O O9 0.467277 0.720647 0.368918
O O10 0.904789 0.599529 0.131556
O O11 0.822540 0.500000 0.000000
O O12 0.500000 0.821359 0.500000
#
# Coordination Sequence:
#
# PCOD9332117 Si02
#       6
#     8   8   8   8   2   8
#     4  12  23  39  70 104 141 166 222 281 329 412
#     4  11  23  42  67 100 139 172 213 277 348 392
#     4  11  27  47  66  96 126 189 234 274 332 394
#     4  11  21  36  64 105 141 175 207 262 342 411
#     4  12  28  52  74  80 128 192 250 276 328 400
#     4  11  21  42  69  98 138 183 217 265 351 413
#
# _framework density 20.338633000000002
#
# number of rings (size 3 to 8) (size 9 to 14) (size 15 to 20)
#    0.000    0.762    4.762    3.429    2.667    0.000 
#    0.000    4.286    0.000    0.000    0.000    0.000 
#    0.000    0.000    0.000    0.000    0.000    0.000 
#
# Total GULP energy -117304.305692 kJ/mol
# GULP energy per Si atom -5585.919319 kJ/mol
# Density = 2.029234 g / cm^3
# Si number density = 20.338633 Si / 1000 Ang^3
#
#
#
# Elastic Constant Matrix: (Units=GPa)
#
#
# Indices 1 2 3 4 5 6 
#
# 1 123.2988 36.2399 26.6809 0.0000 0.0000 0.0000
# 2 36.2399 92.4249 34.0264 0.0000 0.0000 0.0000
# 3 26.6809 34.0264 112.4515 0.0000 0.0000 0.0000
# 4 0.0000 0.0000 0.0000 12.7332 0.0000 0.0000
# 5 0.0000 0.0000 0.0000 0.0000 19.0251 0.0000
# 6 0.0000 0.0000 0.0000 0.0000 0.0000 30.6474
#
#
#
# Elastic Compliance Matrix: (Units=1/GPa)
#
#
# Indices 1 2 3 4 5 6 
#
# 1 0.009319 -0.003196 -0.001244 0.000000 0.000000 0.000000
# 2 -0.003196 0.013272 -0.003258 0.000000 0.000000 0.000000
# 3 -0.001244 -0.003258 0.010174 0.000000 0.000000 0.000000
# 4 0.000000 0.000000 0.000000 0.078535 0.000000 0.000000
# 5 0.000000 0.000000 0.000000 0.000000 0.052562 0.000000
# 6 0.000000 0.000000 0.000000 0.000000 0.000000 0.032629
#
#
# Mechanical properties :
#
#
# Convention : Reuss Voigt Hill
#
# Bulk Modulus (GPa) = 57.57280 58.00774 57.79027
# Shear Modulus (GPa) = 22.96996 27.89635 25.43315
#
# Velocity S-wave (km/s) = 3.36426 3.70752 3.54006
# Velocity P-wave (km/s) = 6.59239 6.84912 6.72198
#
# Compressibility (1/GPa) = 0.01736931
#
# Stress axis : x y z
#
# Youngs Moduli (GPa) = 107.30842 75.34624 98.29352
#
# Poissons Ratio (x) = 0.24081 0.12228
# Poissons Ratio (y) = 0.34296 0.32021
# Poissons Ratio (z) = 0.13349 0.24545
#
# Static dielectric constant tensor:
#      x y z
#    x 1.784350 0.000000 0.000000 
#    y 0.000000 1.710130 0.000000 
#    z 0.000000 0.000000 1.733670 
# 
# From -- ./inp_files/19797.got.cif
#   From: 2010.05.17/outbox.cif.g08.bks.cpg/sg23_10_cif.got.tgz:19797.got - 2010.06.04 12:02:01.
