data_PCOD9332991
_publ_section_title
;
Structure prediction by ZEFSAII (Michael W. Deem and Ramdas Pophale) SiO2 
 PCOD9332991
Probable space group: I 21 21 21
;
_chemical_formula_sum "Si O2"
_cell_formula_units_Z 40
_cell_length_a 7.114609
_cell_length_b 16.236011
_cell_length_c 13.754398
_cell_angle_alpha 90.000000
_cell_angle_beta 90.000000
_cell_angle_gamma 90.000000
_cell_volume 1588.809988
_symmetry_space_group_name_H-M "I 21 21 21"
_symmetry_group_IT_number 24
_symmetry_cell_setting 'orthorhombic'
loop_
_space_group_symop_operation_xyz
x,y,z
-x,1/2-y,z
x,-y,1/2-z
1/2-x,y,-z
1/2+x,1/2+y,1/2+z
1/2-x,-y,1/2+z
1/2+x,1/2-y,-z
-x,1/2+y,1/2-z
loop_
_atom_site_type_symbol
_atom_site_label
_atom_site_fract_x
_atom_site_fract_y
_atom_site_fract_z
Si Si1 0.528484 0.348046 0.184186
Si Si2 0.052406 0.078770 0.408631
Si Si3 0.042948 0.107668 0.021883
Si Si4 0.527811 0.657794 0.719067
Si Si5 0.475970 0.151973 0.395859
O O1 0.500000 0.250000 0.171563
O O2 0.752575 0.360038 0.198233
O O3 0.448891 0.374412 0.289537
O O4 0.460278 0.393311 0.086700
O O5 0.965157 0.096345 0.303529
O O6 0.258347 0.121384 0.399290
O O7 0.951798 0.118610 0.501528
O O8 0.069736 0.983551 0.435430
O O9 0.942292 0.154216 0.110503
O O10 0.250000 0.145287 0.000000
O O11 0.500000 0.750000 0.757772
O O12 0.500000 0.250000 0.396831
#
# Coordination Sequence:
#
# PCOD9332991 Si02
#       5
#     8   8   8   8   8
#     4   9  19  33  52  79 103 138 176 216 261 313
#     4  10  18  31  49  78 105 135 173 217 258 307
#     4  10  18  31  50  78 106 130 174 222 260 300
#     4  10  20  32  52  81 103 138 175 218 263 311
#     4   9  17  30  48  74 104 134 168 213 261 307
#
# _framework density 25.176075000000001
#
# number of rings (size 3 to 8) (size 9 to 14) (size 15 to 20)
#    0.000    2.400    2.000    1.800    0.000    0.800 
#    0.000    0.000    0.000    0.000   57.200    0.000 
#    0.000    0.000    0.000    0.000    0.000    0.000 
#
# Total GULP energy -111597.086906 kJ/mol
# GULP energy per Si atom -5579.854345 kJ/mol
# Density = 2.511877 g / cm^3
# Si number density = 25.176075 Si / 1000 Ang^3
#
#
#
# Elastic Constant Matrix: (Units=GPa)
#
#
# Indices 1 2 3 4 5 6 
#
# 1 105.6385 4.9063 4.2548 0.0000 0.0000 0.0000
# 2 4.9063 93.3054 58.5650 0.0000 0.0000 0.0000
# 3 4.2548 58.5650 291.0354 0.0000 0.0000 0.0000
# 4 0.0000 0.0000 0.0000 152.0604 0.0000 0.0000
# 5 0.0000 0.0000 0.0000 0.0000 -30.1832 0.0000
# 6 0.0000 0.0000 0.0000 0.0000 0.0000 15.2206
#
#
#
# Elastic Compliance Matrix: (Units=1/GPa)
#
#
# Indices 1 2 3 4 5 6 
#
# 1 0.009490 -0.000471 -0.000044 0.000000 0.000000 0.000000
# 2 -0.000471 0.012290 -0.002466 0.000000 0.000000 0.000000
# 3 -0.000044 -0.002466 0.003933 0.000000 0.000000 0.000000
# 4 0.000000 0.000000 0.000000 0.006576 0.000000 0.000000
# 5 0.000000 0.000000 0.000000 0.000000 -0.033131 0.000000
# 6 0.000000 0.000000 0.000000 0.000000 0.000000 0.065700
#
#
# Mechanical properties :
#
#
# Convention : Reuss Voigt Hill
#
# Bulk Modulus (GPa) = 50.63317 69.49238 60.06277
# Shear Modulus (GPa) = 64.59510 55.56978 60.08244
#
# Velocity S-wave (km/s) = 5.07080 4.70323 4.89047
# Velocity P-wave (km/s) = 7.37830 7.56018 7.46979
#
# Compressibility (1/GPa) = 0.01974990
#
# Stress axis : x y z
#
# Youngs Moduli (GPa) = 105.37504 81.36504 254.26288
#
# Poissons Ratio (x) = 0.03836 0.01115
# Poissons Ratio (y) = 0.04968 0.62708
# Poissons Ratio (z) = 0.00462 0.20067
#
# Static dielectric constant tensor:
#      x y z
#    x 0.397530 0.000000 0.000000 
#    y 0.000000 1.942470 0.000000 
#    z 0.000000 0.000000 2.128320 
# 
# From -- ./inp_files/13977.got.cif
#   From: 2010.05.17/outbox.cif.g08.bks.cpg/sg24_7_cif.got.tgz:13977.got - 2010.06.04 00:33:39.
