data_PCOD9332796
_publ_section_title
;
Structure prediction by ZEFSAII (Michael W. Deem and Ramdas Pophale) SiO2 
 PCOD9332796
Probable space group: I 21 21 21
;
_chemical_formula_sum "Si O2"
_cell_formula_units_Z 48
_cell_length_a 13.840612
_cell_length_b 18.105037
_cell_length_c 8.304239
_cell_angle_alpha 90.000000
_cell_angle_beta 90.000000
_cell_angle_gamma 90.000000
_cell_volume 2080.916006
_symmetry_space_group_name_H-M "I 21 21 21"
_symmetry_group_IT_number 24
_symmetry_cell_setting 'orthorhombic'
loop_
_space_group_symop_operation_xyz
x,y,z
-x,1/2-y,z
x,-y,1/2-z
1/2-x,y,-z
1/2+x,1/2+y,1/2+z
1/2-x,-y,1/2+z
1/2+x,1/2-y,-z
-x,1/2+y,1/2-z
loop_
_atom_site_type_symbol
_atom_site_label
_atom_site_fract_x
_atom_site_fract_y
_atom_site_fract_z
Si Si1 0.700923 0.427953 0.670331
Si Si2 0.602471 0.151911 0.834528
Si Si3 0.505290 0.084791 0.542252
Si Si4 0.123236 0.182154 0.079452
Si Si5 0.374599 0.452827 0.107496
Si Si6 0.527403 0.334769 0.233136
O O1 0.748951 0.500000 0.750000
O O2 0.750000 0.409326 0.500000
O O3 0.588692 0.445095 0.631711
O O4 0.689395 0.365667 0.805026
O O5 0.588083 0.123302 0.651896
O O6 0.488847 0.164984 0.875508
O O7 0.645301 0.232087 0.879545
O O8 0.654816 0.088692 0.940587
O O9 0.459624 0.143274 0.417398
O O10 0.551887 0.015164 0.454970
O O11 0.115555 0.158242 0.892346
O O12 0.320499 0.500000 0.250000
O O13 0.436294 0.386018 0.185197
O O14 0.500000 0.250000 0.219007
#
# Coordination Sequence:
#
# PCOD9332796 Si02
#       6
#     8   8   8   8   8   8
#     4  11  24  38  53  71 103 153 209 241 264 310
#     4   9  15  29  48  72 102 134 175 228 292 341
#     4  10  20  29  52  77 106 144 186 229 281 335
#     4   9  17  32  50  69 101 138 185 235 288 326
#     4   9  16  27  43  71 105 139 172 209 270 349
#     4  10  17  28  48  75 104 139 177 222 286 351
#
# _framework density 23.066765
#
# number of rings (size 3 to 8) (size 9 to 14) (size 15 to 20)
#    0.000    2.333    3.333    3.500    4.667    3.333 
#    0.000    0.000    0.000    0.000    0.000    0.000 
#    0.000    0.000   11.333    0.000    4.000    0.000 
#
# Total GULP energy -133608.934910 kJ/mol
# GULP energy per Si atom -5567.038955 kJ/mol
# Density = 2.301426 g / cm^3
# Si number density = 23.066765 Si / 1000 Ang^3
#
#
#
# Elastic Constant Matrix: (Units=GPa)
#
#
# Indices 1 2 3 4 5 6 
#
# 1 36.9151 16.2556 25.9703 0.0000 0.0000 0.0000
# 2 16.2556 146.4053 74.8991 0.0000 0.0000 0.0000
# 3 25.9703 74.8991 159.0174 0.0000 0.0000 0.0000
# 4 0.0000 0.0000 0.0000 52.5294 0.0000 0.0000
# 5 0.0000 0.0000 0.0000 0.0000 16.9017 0.0000
# 6 0.0000 0.0000 0.0000 0.0000 0.0000 -10.5953
#
#
#
# Elastic Compliance Matrix: (Units=1/GPa)
#
#
# Indices 1 2 3 4 5 6 
#
# 1 0.030743 -0.001113 -0.004497 0.000000 0.000000 0.000000
# 2 -0.001113 0.009039 -0.004076 0.000000 0.000000 0.000000
# 3 -0.004497 -0.004076 0.008943 0.000000 0.000000 0.000000
# 4 0.000000 0.000000 0.000000 0.019037 0.000000 0.000000
# 5 0.000000 0.000000 0.000000 0.000000 0.059166 0.000000
# 6 0.000000 0.000000 0.000000 0.000000 0.000000 -0.094382
#
#
# Mechanical properties :
#
#
# Convention : Reuss Voigt Hill
#
# Bulk Modulus (GPa) = 34.06714 64.06531 49.06622
# Shear Modulus (GPa) = 81.03675 26.78134 53.90904
#
# Velocity S-wave (km/s) = 5.93360 3.41109 4.83959
# Velocity P-wave (km/s) = 7.85777 6.58394 7.24889
#
# Compressibility (1/GPa) = 0.02935380
#
# Stress axis : x y z
#
# Youngs Moduli (GPa) = 32.52808 110.63148 111.82306
#
# Poissons Ratio (x) = 0.12313 0.50282
# Poissons Ratio (y) = 0.03620 0.45576
# Poissons Ratio (z) = 0.14626 0.45090
#
# Static dielectric constant tensor:
#      x y z
#    x 1.888070 0.000000 0.000000 
#    y 0.000000 1.841760 0.000000 
#    z 0.000000 0.000000 2.103150 
# 
# From -- ./inp_files/12838.got.cif
#   From: 2010.05.17/outbox.cif.g08.bks.cpg/sg24_7_cif.got.tgz:12838.got - 2010.06.04 00:33:39.
