data_PCOD9332964
_publ_section_title
;
Structure prediction by ZEFSAII (Michael W. Deem and Ramdas Pophale) SiO2 
 PCOD9332964
Probable space group: I 21 21 21
;
_chemical_formula_sum "Si O2"
_cell_formula_units_Z 44
_cell_length_a 9.554353
_cell_length_b 19.918195
_cell_length_c 8.644768
_cell_angle_alpha 90.000000
_cell_angle_beta 90.000000
_cell_angle_gamma 90.000000
_cell_volume 1645.146604
_symmetry_space_group_name_H-M "I 21 21 21"
_symmetry_group_IT_number 24
_symmetry_cell_setting 'orthorhombic'
loop_
_space_group_symop_operation_xyz
x,y,z
-x,1/2-y,z
x,-y,1/2-z
1/2-x,y,-z
1/2+x,1/2+y,1/2+z
1/2-x,-y,1/2+z
1/2+x,1/2-y,-z
-x,1/2+y,1/2-z
loop_
_atom_site_type_symbol
_atom_site_label
_atom_site_fract_x
_atom_site_fract_y
_atom_site_fract_z
Si Si1 0.750000 0.681981 0.500000
Si Si2 0.528551 0.500000 0.750000
Si Si3 0.250000 0.002221 0.500000
Si Si4 0.301726 0.227456 0.676027
Si Si5 0.469027 0.000000 0.250000
Si Si6 0.055010 0.362289 0.282422
Si Si7 0.500000 0.250000 0.298507
Si Si8 0.465139 0.372055 0.082472
O O1 0.808921 0.727014 0.364760
O O2 0.633247 0.636391 0.424141
O O3 0.634809 0.528148 0.620161
O O4 0.437376 0.440410 0.677603
O O5 0.362621 0.032831 0.377180
O O6 0.357294 0.302378 0.641843
O O7 0.400011 0.161886 0.663761
O O8 0.359434 0.221717 0.379593
O O9 0.559985 0.057572 0.166617
O O10 0.081374 0.364487 0.095430
O O11 0.433967 0.308556 0.191731
#
# Coordination Sequence:
#
# PCOD9332964 Si02
#       8
#     4   4   4   8   4   8   4   8
#     4   8  15  28  48  82 110 137 182 246 293 336
#     4  11  22  36  55  90 118 163 203 254 304 369
#     4  10  23  32  54  84 124 155 206 246 305 360
#     4   9  18  32  54  86 117 151 192 253 301 352
#     4  11  20  34  51  86 114 155 197 254 300 359
#     4  10  19  34  56  85 119 151 194 249 308 356
#     4  10  20  32  56  88 120 146 200 254 304 346
#     4  10  18  30  51  81 113 145 190 246 298 351
#
# _framework density 26.745336999999999
#
# number of rings (size 3 to 8) (size 9 to 14) (size 15 to 20)
#    0.000    2.182    1.818    3.818   12.727    0.000 
#    0.000    0.909    0.000    2.182    0.000    0.000 
#    0.000    0.000    0.000    0.000    0.000    0.000 
#
# Total GULP energy -122578.526821 kJ/mol
# GULP energy per Si atom -5571.751219 kJ/mol
# Density = 2.668446 g / cm^3
# Si number density = 26.745337 Si / 1000 Ang^3
#
#
#
# Elastic Constant Matrix: (Units=GPa)
#
#
# Indices 1 2 3 4 5 6 
#
# 1 51.7172 11.0949 -12.5432 0.0000 -0.0001 0.0000
# 2 11.0949 175.9999 40.6307 -0.0005 0.0000 0.0000
# 3 -12.5432 40.6307 86.2458 -0.0006 -0.0001 -0.0001
# 4 0.0000 -0.0005 -0.0006 48.3440 0.0001 0.0000
# 5 -0.0001 0.0000 -0.0001 0.0001 15.8081 0.0000
# 6 0.0000 0.0000 -0.0001 0.0000 0.0000 21.8706
#
#
#
# Elastic Compliance Matrix: (Units=1/GPa)
#
#
# Indices 1 2 3 4 5 6 
#
# 1 0.020812 -0.002256 0.004090 0.000000 0.000000 0.000000
# 2 -0.002256 0.006620 -0.003447 0.000000 0.000000 0.000000
# 3 0.004090 -0.003447 0.013813 0.000000 0.000000 0.000000
# 4 0.000000 0.000000 0.000000 0.020685 0.000000 0.000000
# 5 0.000000 0.000000 0.000000 0.000000 0.063259 0.000000
# 6 0.000000 0.000000 0.000000 0.000000 0.000000 0.045723
#
#
# Mechanical properties :
#
#
# Convention : Reuss Voigt Hill
#
# Bulk Modulus (GPa) = 26.30296 43.59195 34.94745
# Shear Modulus (GPa) = 26.76501 35.52326 31.14413
#
# Velocity S-wave (km/s) = 3.16687 3.64841 3.41613
# Velocity P-wave (km/s) = 4.81955 5.83799 5.35304
#
# Compressibility (1/GPa) = 0.03801853
#
# Stress axis : x y z
#
# Youngs Moduli (GPa) = 48.04969 151.06355 72.39407
#
# Poissons Ratio (x) = 0.34081 -0.29606
# Poissons Ratio (y) = 0.10840 0.24952
# Poissons Ratio (z) = -0.19650 0.52067
#
# Static dielectric constant tensor:
#      x y z
#    x 2.209300 0.000000 0.000000 
#    y 0.000000 2.309660 0.000000 
#    z 0.000000 0.000000 2.378720 
# 
# From -- ./inp_files/12753.got.cif
#   From: 2010.05.17/outbox.cif.g08.bks.cpg/sg24_7_cif.got.tgz:12753.got - 2010.06.04 00:33:39.
