data_PCOD9332677
_publ_section_title
;
Structure prediction by ZEFSAII (Michael W. Deem and Ramdas Pophale) SiO2 
 PCOD9332677
Probable space group: I 21 21 21
;
_chemical_formula_sum "Si O2"
_cell_formula_units_Z 48
_cell_length_a 12.720422
_cell_length_b 7.391668
_cell_length_c 22.443777
_cell_angle_alpha 90.000000
_cell_angle_beta 90.000000
_cell_angle_gamma 90.000000
_cell_volume 2110.279190
_symmetry_space_group_name_H-M "I 21 21 21"
_symmetry_group_IT_number 24
_symmetry_cell_setting 'orthorhombic'
loop_
_space_group_symop_operation_xyz
x,y,z
-x,1/2-y,z
x,-y,1/2-z
1/2-x,y,-z
1/2+x,1/2+y,1/2+z
1/2-x,-y,1/2+z
1/2+x,1/2-y,-z
-x,1/2+y,1/2-z
loop_
_atom_site_type_symbol
_atom_site_label
_atom_site_fract_x
_atom_site_fract_y
_atom_site_fract_z
Si Si1 0.238455 0.120969 0.376961
Si Si2 0.026246 0.034093 0.430565
Si Si3 0.955589 0.543149 0.933214
Si Si4 0.207839 0.473996 0.068285
Si Si5 0.876398 0.760489 0.778530
Si Si6 0.625685 0.867690 0.347007
O O1 0.127976 0.021245 0.388353
O O2 0.338100 0.038114 0.410121
O O3 0.226873 0.319708 0.408627
O O4 0.284936 0.146191 0.310523
O O5 0.049696 0.982721 0.498668
O O6 0.000000 0.250000 0.430421
O O7 0.914818 0.938068 0.419736
O O8 0.000000 0.750000 0.932702
O O9 0.030347 0.426881 0.890194
O O10 0.277647 0.345063 0.109009
O O11 0.250000 0.465092 0.000000
O O12 0.883147 0.727574 0.707430
O O13 0.000000 0.750000 0.797230
O O14 0.851276 0.956176 0.806477
#
# Coordination Sequence:
#
# PCOD9332677 Si02
#       6
#     8   8   8   8   8   8
#     4  10  16  25  39  66  97 126 148 181 243 290
#     4   9  17  22  40  66  98 128 140 179 247 301
#     4  11  14  25  40  67 100 122 147 185 238 292
#     4  10  15  26  40  66 101 118 152 186 233 296
#     4  10  18  30  43  66  96 124 162 200 236 281
#     4  10  18  26  46  68  90 130 154 199 237 274
#
# _framework density 22.745805000000001
#
# number of rings (size 3 to 8) (size 9 to 14) (size 15 to 20)
#    0.000    2.000    6.667    2.500    0.000    0.000 
#    0.000    0.000    0.000    0.000   39.000    2.333 
#    0.000    0.000    0.000    0.000    0.000    0.000 
#
# Total GULP energy -133848.507638 kJ/mol
# GULP energy per Si atom -5577.021152 kJ/mol
# Density = 2.269403 g / cm^3
# Si number density = 22.745805 Si / 1000 Ang^3
#
#
#
# Elastic Constant Matrix: (Units=GPa)
#
#
# Indices 1 2 3 4 5 6 
#
# 1 222.1450 19.3827 86.3858 0.0000 0.0000 0.0000
# 2 19.3827 57.2959 12.7248 0.0000 0.0000 0.0000
# 3 86.3858 12.7248 147.5755 0.0000 0.0000 0.0000
# 4 0.0000 0.0000 0.0000 11.9923 0.0000 0.0000
# 5 0.0000 0.0000 0.0000 0.0000 22.0326 0.0000
# 6 0.0000 0.0000 0.0000 0.0000 0.0000 4.9859
#
#
#
# Elastic Compliance Matrix: (Units=1/GPa)
#
#
# Indices 1 2 3 4 5 6 
#
# 1 0.005916 -0.001256 -0.003355 0.000000 0.000000 0.000000
# 2 -0.001256 0.018061 -0.000822 0.000000 0.000000 0.000000
# 3 -0.003355 -0.000822 0.008811 0.000000 0.000000 0.000000
# 4 0.000000 0.000000 0.000000 0.083387 0.000000 0.000000
# 5 0.000000 0.000000 0.000000 0.000000 0.045387 0.000000
# 6 0.000000 0.000000 0.000000 0.000000 0.000000 0.200564
#
#
# Mechanical properties :
#
#
# Convention : Reuss Voigt Hill
#
# Bulk Modulus (GPa) = 45.61680 73.77811 59.69745
# Shear Modulus (GPa) = 13.14760 28.37036 20.75898
#
# Velocity S-wave (km/s) = 2.40682 3.53552 3.02429
# Velocity P-wave (km/s) = 5.27468 7.01233 6.20464
#
# Compressibility (1/GPa) = 0.02192175
#
# Stress axis : x y z
#
# Youngs Moduli (GPa) = 169.04339 55.36861 113.49865
#
# Poissons Ratio (x) = 0.06955 0.38073
# Poissons Ratio (y) = 0.21235 0.09329
# Poissons Ratio (z) = 0.56706 0.04551
#
# Static dielectric constant tensor:
#      x y z
#    x 1.875620 0.000000 0.000000 
#    y 0.000000 1.993550 0.000000 
#    z 0.000000 0.000000 1.889920 
# 
# From -- ./inp_files/19850.got.cif
#   From: 2010.05.17/outbox.cif.g08.bks.cpg/sg24_10_cif.got.tgz:19850.got - 2010.06.04 00:33:39.
