data_PCOD9332059
_publ_section_title
;
Structure prediction by ZEFSAII (Michael W. Deem and Ramdas Pophale) SiO2 
 PCOD9332059
Probable space group: I 2 2 2
;
_chemical_formula_sum "Si O2"
_cell_formula_units_Z 64
_cell_length_a 9.793864
_cell_length_b 11.035865
_cell_length_c 29.358844
_cell_angle_alpha 90.000000
_cell_angle_beta 90.000000
_cell_angle_gamma 90.000000
_cell_volume 3173.214276
_symmetry_space_group_name_H-M "I 2 2 2"
_symmetry_group_IT_number 23
_symmetry_cell_setting 'orthorhombic'
loop_
_space_group_symop_operation_xyz
x,y,z
-x,-y,z
x,-y,-z
-x,y,-z
1/2+x,1/2+y,1/2+z
1/2-x,1/2-y,1/2+z
1/2+x,1/2-y,1/2-z
1/2-x,1/2+y,1/2-z
loop_
_atom_site_type_symbol
_atom_site_label
_atom_site_fract_x
_atom_site_fract_y
_atom_site_fract_z
Si Si1 0.446849 0.865073 0.143764
Si Si2 0.707910 0.734305 0.776268
Si Si3 0.788600 0.783133 0.614246
Si Si4 0.482676 0.362282 0.281985
Si Si5 0.163186 0.032461 0.350555
Si Si6 0.012155 0.137292 0.111640
Si Si7 0.160517 0.135103 0.510930
Si Si8 0.248520 0.260624 0.921011
O O1 0.371202 0.826152 0.190047
O O2 0.576095 0.779156 0.134243
O O3 0.339508 0.843556 0.102836
O O4 0.500000 0.000000 0.145987
O O5 0.618453 0.706815 0.732376
O O6 0.852533 0.790621 0.763386
O O7 0.710375 0.611594 0.807094
O O8 0.664186 0.689692 0.612352
O O9 0.817632 0.827790 0.562811
O O10 0.761371 0.904788 0.643212
O O11 0.500000 0.500000 0.265260
O O12 0.463657 0.366919 0.335933
O O13 0.199842 0.119127 0.393715
O O14 0.000000 0.000000 0.349725
O O15 0.908432 0.228851 0.087528
O O16 0.000000 0.000000 0.093474
O O17 0.225811 0.224309 0.474137
O O18 0.000000 0.134943 0.500000
O O19 0.213207 0.000000 0.500000
#
# Coordination Sequence:
#
# PCOD9332059 Si02
#       8
#     8   8   8   8   8   8   8   8
#     4  11  23  41  67  95 132 182 228 263 331 401
#     4  11  25  43  69 100 134 177 218 287 336 403
#     4  12  24  39  72 103 127 185 221 270 345 403
#     4  11  26  45  68  98 136 176 224 279 338 405
#     4  11  19  40  66 100 133 168 214 277 342 394
#     4  11  26  48  66  90 139 186 224 271 335 403
#     4  11  21  38  67 102 136 167 221 283 339 399
#     4  11  21  43  66  94 139 172 221 281 334 394
#
# _framework density 20.168824999999998
#
# number of rings (size 3 to 8) (size 9 to 14) (size 15 to 20)
#    0.000    0.875    7.500    1.125    3.500    1.000 
#    0.000    5.625    0.000    0.000    0.000    0.000 
#    0.000    0.000    0.000    0.000    0.000    0.000 
#
# Total GULP energy -178858.677390 kJ/mol
# GULP energy per Si atom -5589.333668 kJ/mol
# Density = 2.012292 g / cm^3
# Si number density = 20.168825 Si / 1000 Ang^3
#
#
#
# Elastic Constant Matrix: (Units=GPa)
#
#
# Indices 1 2 3 4 5 6 
#
# 1 87.5386 14.9228 -11.6513 0.0000 0.0000 0.0000
# 2 14.9228 89.3565 9.8117 0.0000 0.0000 0.0000
# 3 -11.6513 9.8117 31.4719 0.0000 0.0000 0.0000
# 4 0.0000 0.0000 0.0000 -19.8724 0.0000 0.0000
# 5 0.0000 0.0000 0.0000 0.0000 29.7051 0.0000
# 6 0.0000 0.0000 0.0000 0.0000 0.0000 34.2508
#
#
#
# Elastic Compliance Matrix: (Units=1/GPa)
#
#
# Indices 1 2 3 4 5 6 
#
# 1 0.012621 -0.002714 0.005518 0.000000 0.000000 0.000000
# 2 -0.002714 0.012171 -0.004799 0.000000 0.000000 0.000000
# 3 0.005518 -0.004799 0.035313 0.000000 0.000000 0.000000
# 4 0.000000 0.000000 0.000000 -0.050321 0.000000 0.000000
# 5 0.000000 0.000000 0.000000 0.000000 0.033664 0.000000
# 6 0.000000 0.000000 0.000000 0.000000 0.000000 0.029196
#
#
# Mechanical properties :
#
#
# Convention : Reuss Voigt Hill
#
# Bulk Modulus (GPa) = 17.82007 26.05927 21.93967
# Shear Modulus (GPa) = 52.44433 21.83564 37.13998
#
# Velocity S-wave (km/s) = 5.10481 3.29392 4.29587
# Velocity P-wave (km/s) = 6.60304 5.23595 5.95883
#
# Compressibility (1/GPa) = 0.05611651
#
# Stress axis : x y z
#
# Youngs Moduli (GPa) = 79.23548 82.16073 28.31779
#
# Poissons Ratio (x) = 0.22295 -0.15627
# Poissons Ratio (y) = 0.21501 0.13590
# Poissons Ratio (z) = -0.43725 0.39430
#
# Static dielectric constant tensor:
#      x y z
#    x 1.697370 0.000000 0.000000 
#    y 0.000000 1.736190 0.000000 
#    z 0.000000 0.000000 1.703980 
# 
# From -- ./inp_files/30340.got.cif
#   From: 2010.05.17/outbox.cif.g08.bks.cpg/sg23_16_cif.got.tgz:30340.got - 2010.06.04 12:02:01.
