data_PCOD9332215
_publ_section_title
;
Structure prediction by ZEFSAII (Michael W. Deem and Ramdas Pophale) SiO2 
 PCOD9332215
Probable space group: I 2 2 2
;
_chemical_formula_sum "Si O2"
_cell_formula_units_Z 48
_cell_length_a 15.078410
_cell_length_b 12.795086
_cell_length_c 13.093199
_cell_angle_alpha 90.000000
_cell_angle_beta 90.000000
_cell_angle_gamma 90.000000
_cell_volume 2526.065026
_symmetry_space_group_name_H-M "I 2 2 2"
_symmetry_group_IT_number 23
_symmetry_cell_setting 'orthorhombic'
loop_
_space_group_symop_operation_xyz
x,y,z
-x,-y,z
x,-y,-z
-x,y,-z
1/2+x,1/2+y,1/2+z
1/2-x,1/2-y,1/2+z
1/2+x,1/2-y,1/2-z
1/2-x,1/2+y,1/2-z
loop_
_atom_site_type_symbol
_atom_site_label
_atom_site_fract_x
_atom_site_fract_y
_atom_site_fract_z
Si Si1 0.708845 0.733547 0.501809
Si Si2 0.500000 0.500000 0.000000
Si Si3 0.426322 0.170232 0.643895
Si Si4 0.843356 0.877237 0.622507
Si Si5 0.875474 0.704369 0.791262
Si Si6 0.307346 0.974379 0.236682
Si Si7 0.500000 0.000000 0.500000
Si Si8 0.777134 0.500000 0.500000
O O1 0.625898 0.747643 0.577177
O O2 0.779179 0.823102 0.537309
O O3 0.681697 0.752511 0.385309
O O4 0.734322 0.613770 0.515217
O O5 0.429864 0.432294 0.070614
O O6 0.522202 0.205561 0.677114
O O7 0.367142 0.125316 0.734065
O O8 0.439664 0.072084 0.569060
O O9 0.866724 0.778305 0.693617
O O10 0.784263 0.952056 0.698799
O O11 0.846058 0.585221 0.773553
O O12 0.314145 0.982316 0.114392
#
# Coordination Sequence:
#
# PCOD9332215 Si02
#       8
#     8   2   8   8   8   8   2   4
#     4  11  23  43  67  96 129 172 225 267 337 394
#     4  12  28  50  64 100 134 172 236 260 346 400
#     4  11  22  38  66  99 126 166 219 284 322 389
#     4  11  26  44  69  95 132 181 217 279 323 412
#     4  12  21  42  67  96 128 165 222 275 332 388
#     4  11  23  43  67  96 129 172 225 267 337 394
#     4  12  16  34  64  92 124 158 212 276 318 380
#     4  12  24  40  66  92 136 176 214 268 328 414
#
# _framework density 19.001887
#
# number of rings (size 3 to 8) (size 9 to 14) (size 15 to 20)
#    0.000    0.667    6.667    1.000    0.000    5.333 
#    0.000    1.667    0.000    0.000    0.000    0.000 
#    0.000    0.000    0.000    0.000    0.000    0.000 
#
# Total GULP energy -133704.515580 kJ/mol
# GULP energy per Si atom -5571.021482 kJ/mol
# Density = 1.895864 g / cm^3
# Si number density = 19.001887 Si / 1000 Ang^3
#
#
#
# Elastic Constant Matrix: (Units=GPa)
#
#
# Indices 1 2 3 4 5 6 
#
# 1 76.8414 -2.3868 18.6799 0.0000 0.0000 0.0000
# 2 -2.3868 36.1563 0.6405 0.0000 0.0000 0.0000
# 3 18.6799 0.6405 102.4579 0.0000 0.0000 0.0000
# 4 0.0000 0.0000 0.0000 46.9205 0.0000 0.0000
# 5 0.0000 0.0000 0.0000 0.0000 -30.9658 0.0000
# 6 0.0000 0.0000 0.0000 0.0000 0.0000 8.1783
#
#
#
# Elastic Compliance Matrix: (Units=1/GPa)
#
#
# Indices 1 2 3 4 5 6 
#
# 1 0.013650 0.000945 -0.002494 0.000000 0.000000 0.000000
# 2 0.000945 0.027726 -0.000346 0.000000 0.000000 0.000000
# 3 -0.002494 -0.000346 0.010217 0.000000 0.000000 0.000000
# 4 0.000000 0.000000 0.000000 0.021313 0.000000 0.000000
# 5 0.000000 0.000000 0.000000 0.000000 -0.032294 0.000000
# 6 0.000000 0.000000 0.000000 0.000000 0.000000 0.122275
#
#
# Mechanical properties :
#
#
# Convention : Reuss Voigt Hill
#
# Bulk Modulus (GPa) = 20.91917 27.70254 24.31085
# Shear Modulus (GPa) = 27.38060 18.06138 22.72099
#
# Velocity S-wave (km/s) = 3.80009 3.08637 3.46167
# Velocity P-wave (km/s) = 5.50338 5.22603 5.36650
#
# Compressibility (1/GPa) = 0.04780304
#
# Stress axis : x y z
#
# Youngs Moduli (GPa) = 73.26238 36.06696 97.87559
#
# Poissons Ratio (x) = -0.03409 0.24415
# Poissons Ratio (y) = -0.06925 0.03383
# Poissons Ratio (z) = 0.18275 0.01247
#
# Static dielectric constant tensor:
#      x y z
#    x 1.704360 0.000000 0.000000 
#    y 0.000000 1.703540 0.000000 
#    z 0.000000 0.000000 1.786700 
# 
# From -- ./inp_files/21582.got.cif
#   From: 2010.05.17/outbox.cif.g08.bks.cpg/sg23_11_cif.got.tgz:21582.got - 2010.06.04 12:02:01.
