data_PCOD9332144
_publ_section_title
;
Structure prediction by ZEFSAII (Michael W. Deem and Ramdas Pophale) SiO2 
 PCOD9332144
Probable space group: I 2 2 2
;
_chemical_formula_sum "Si O2"
_cell_formula_units_Z 48
_cell_length_a 18.722892
_cell_length_b 8.792672
_cell_length_c 13.230022
_cell_angle_alpha 90.000000
_cell_angle_beta 90.000000
_cell_angle_gamma 90.000000
_cell_volume 2177.982426
_symmetry_space_group_name_H-M "I 2 2 2"
_symmetry_group_IT_number 23
_symmetry_cell_setting 'orthorhombic'
loop_
_space_group_symop_operation_xyz
x,y,z
-x,-y,z
x,-y,-z
-x,y,-z
1/2+x,1/2+y,1/2+z
1/2-x,1/2-y,1/2+z
1/2+x,1/2-y,1/2-z
1/2-x,1/2+y,1/2-z
loop_
_atom_site_type_symbol
_atom_site_label
_atom_site_fract_x
_atom_site_fract_y
_atom_site_fract_z
Si Si1 0.470744 0.168136 0.249774
Si Si2 0.775457 0.165731 0.946305
Si Si3 0.435570 0.387774 0.854095
Si Si4 0.293993 0.509196 0.245001
Si Si5 0.389612 0.173583 0.037378
Si Si6 0.323817 0.802436 0.642941
O O1 0.534852 0.288629 0.240516
O O2 0.434661 0.180068 0.139066
O O3 0.406704 0.196249 0.327402
O O4 0.500000 0.000000 0.264497
O O5 0.803461 0.133468 0.834741
O O6 0.692570 0.211240 0.939672
O O7 0.813522 0.278962 0.023558
O O8 0.777993 0.000000 0.000000
O O9 0.500000 0.500000 0.879399
O O10 0.363803 0.476590 0.824309
O O11 0.417167 0.279400 0.947638
O O12 0.290938 0.346268 0.299867
O O13 0.222164 0.556046 0.185435
O O14 0.392735 0.000000 0.000000
#
# Coordination Sequence:
#
# PCOD9332144 Si02
#       6
#     8   8   8   8   8   8
#     4  12  25  40  65  98 139 182 219 270 351 414
#     4   9  20  39  69  95 122 174 228 267 324 400
#     4  12  25  42  62 100 143 175 219 286 348 400
#     4  11  23  43  67  97 134 173 228 282 337 410
#     4  11  21  39  64 100 133 172 216 268 334 416
#     4  11  23  43  68  98 132 177 229 278 335 412
#
# _framework density 22.038744999999999
#
# number of rings (size 3 to 8) (size 9 to 14) (size 15 to 20)
#    0.000    1.000    6.667    0.500    2.333    1.333 
#    0.000    3.333    0.000    1.000    0.000    0.000 
#    0.000    0.000    0.000    0.000    0.000    0.000 
#
# Total GULP energy -134345.765947 kJ/mol
# GULP energy per Si atom -5597.740248 kJ/mol
# Density = 2.198858 g / cm^3
# Si number density = 22.038745 Si / 1000 Ang^3
#
#
#
# Elastic Constant Matrix: (Units=GPa)
#
#
# Indices 1 2 3 4 5 6 
#
# 1 69.1778 12.8771 16.4469 0.0000 0.0000 0.0000
# 2 12.8771 81.4341 7.5562 0.0000 0.0000 0.0000
# 3 16.4469 7.5562 69.0113 0.0000 0.0000 0.0000
# 4 0.0000 0.0000 0.0000 20.3349 0.0000 0.0000
# 5 0.0000 0.0000 0.0000 0.0000 34.6319 0.0000
# 6 0.0000 0.0000 0.0000 0.0000 0.0000 36.3799
#
#
#
# Elastic Compliance Matrix: (Units=1/GPa)
#
#
# Indices 1 2 3 4 5 6 
#
# 1 0.015690 -0.002156 -0.003503 0.000000 0.000000 0.000000
# 2 -0.002156 0.012702 -0.000877 0.000000 0.000000 0.000000
# 3 -0.003503 -0.000877 0.015421 0.000000 0.000000 0.000000
# 4 0.000000 0.000000 0.000000 0.049177 0.000000 0.000000
# 5 0.000000 0.000000 0.000000 0.000000 0.028875 0.000000
# 6 0.000000 0.000000 0.000000 0.000000 0.000000 0.027488
#
#
# Mechanical properties :
#
#
# Convention : Reuss Voigt Hill
#
# Bulk Modulus (GPa) = 32.52985 32.59819 32.56402
# Shear Modulus (GPa) = 28.95670 30.45221 29.70445
#
# Velocity S-wave (km/s) = 3.62871 3.72123 3.67526
# Velocity P-wave (km/s) = 5.68762 5.76948 5.72869
#
# Compressibility (1/GPa) = 0.03074099
#
# Stress axis : x y z
#
# Youngs Moduli (GPa) = 63.73612 78.72681 64.84550
#
# Poissons Ratio (x) = 0.16973 0.22716
# Poissons Ratio (y) = 0.13741 0.05687
# Poissons Ratio (z) = 0.22328 0.06904
#
# Static dielectric constant tensor:
#      x y z
#    x 1.790970 0.000000 0.000000 
#    y 0.000000 1.845740 0.000000 
#    z 0.000000 0.000000 1.787670 
# 
# From -- ./inp_files/11038.got.cif
#   From: 2010.05.17/outbox.cif.g08.bks.cpg/sg23_6_cif.got.tgz:11038.got - 2010.06.04 12:02:01.
