data_PCOD9332607
_publ_section_title
;
Structure prediction by ZEFSAII (Michael W. Deem and Ramdas Pophale) SiO2 
 PCOD9332607
Probable space group: I 2 2 2
;
_chemical_formula_sum "Si O2"
_cell_formula_units_Z 32
_cell_length_a 31.952921
_cell_length_b 5.197160
_cell_length_c 8.014222
_cell_angle_alpha 90.000000
_cell_angle_beta 90.000000
_cell_angle_gamma 90.000000
_cell_volume 1330.877312
_symmetry_space_group_name_H-M "I 2 2 2"
_symmetry_group_IT_number 23
_symmetry_cell_setting 'orthorhombic'
loop_
_space_group_symop_operation_xyz
x,y,z
-x,-y,z
x,-y,-z
-x,y,-z
1/2+x,1/2+y,1/2+z
1/2-x,1/2-y,1/2+z
1/2+x,1/2-y,1/2-z
1/2-x,1/2+y,1/2-z
loop_
_atom_site_type_symbol
_atom_site_label
_atom_site_fract_x
_atom_site_fract_y
_atom_site_fract_z
Si Si1 0.569963 0.500000 0.500000
Si Si2 0.471448 0.252838 0.199765
Si Si3 0.600126 0.000000 0.000000
Si Si4 0.232137 0.880383 0.823800
Si Si5 0.640443 0.180732 0.335604
O O1 0.544839 0.700105 0.387768
O O2 0.599974 0.350529 0.374244
O O3 0.500000 0.500000 0.167994
O O4 0.432415 0.211548 0.074793
O O5 0.500000 0.000000 0.192314
O O6 0.629548 0.053425 0.158995
O O7 0.251756 0.598696 0.801768
O O8 0.182312 0.846085 0.817167
O O9 0.244401 0.000000 0.000000
O O10 0.646021 0.000000 0.500000
#
# Coordination Sequence:
#
# PCOD9332607 Si02
#       5
#     4   8   4   8   8
#     4  12  27  50  85 112 164 222 274 334 423 488
#     4  12  29  52  80 122 165 217 280 348 414 488
#     4  12  29  52  85 118 164 220 278 340 413 486
#     4  12  28  55  85 123 167 214 268 335 408 489
#     4  12  27  55  82 122 164 220 271 343 401 498
#
# _framework density 24.044288000000002
#
# number of rings (size 3 to 8) (size 9 to 14) (size 15 to 20)
#    0.000    0.000    3.750    4.500    1.750   10.000 
#    9.000    0.000    0.000    0.000    0.000    0.000 
#    0.000    0.000    0.000    0.000    0.000    0.000 
#
# Total GULP energy -89668.317255 kJ/mol
# GULP energy per Si atom -5604.269828 kJ/mol
# Density = 2.398956 g / cm^3
# Si number density = 24.044288 Si / 1000 Ang^3
#
#
#
# Elastic Constant Matrix: (Units=GPa)
#
#
# Indices 1 2 3 4 5 6 
#
# 1 76.7907 33.3223 50.2824 0.0000 0.0000 0.0000
# 2 33.3223 116.5262 40.3382 0.0000 0.0000 0.0000
# 3 50.2824 40.3382 167.4068 0.0000 0.0000 0.0000
# 4 0.0000 0.0000 0.0000 121.8807 0.0000 0.0000
# 5 0.0000 0.0000 0.0000 0.0000 1.7742 0.0000
# 6 0.0000 0.0000 0.0000 0.0000 0.0000 26.0044
#
#
#
# Elastic Compliance Matrix: (Units=1/GPa)
#
#
# Indices 1 2 3 4 5 6 
#
# 1 0.017398 -0.003454 -0.004393 0.000000 0.000000 0.000000
# 2 -0.003454 0.010049 -0.001384 0.000000 0.000000 0.000000
# 3 -0.004393 -0.001384 0.007626 0.000000 0.000000 0.000000
# 4 0.000000 0.000000 0.000000 0.008205 0.000000 0.000000
# 5 0.000000 0.000000 0.000000 0.000000 0.563640 0.000000
# 6 0.000000 0.000000 0.000000 0.000000 0.000000 0.038455
#
#
# Mechanical properties :
#
#
# Convention : Reuss Voigt Hill
#
# Bulk Modulus (GPa) = 60.20368 67.62329 63.91349
# Shear Modulus (GPa) = 7.46968 45.71723 26.59345
#
# Velocity S-wave (km/s) = 1.76448 4.36521 3.32930
# Velocity P-wave (km/s) = 5.40779 7.32067 6.43570
#
# Compressibility (1/GPa) = 0.01661028
#
# Stress axis : x y z
#
# Youngs Moduli (GPa) = 57.47738 99.51631 131.12187
#
# Poissons Ratio (x) = 0.34377 0.57607
# Poissons Ratio (y) = 0.19855 0.18144
# Poissons Ratio (z) = 0.25252 0.13771
#
# Static dielectric constant tensor:
#      x y z
#    x 1.858120 0.000000 0.000000 
#    y 0.000000 1.962280 0.000000 
#    z 0.000000 0.000000 2.012940 
# 
# From -- ./inp_files/13214.got.cif
#   From: 2010.05.17/outbox.cif.g08.bks.cpg/sg23_7_cif.got.tgz:13214.got - 2010.06.04 12:02:01.
