data_PCOD9332757
_publ_section_title
;
Structure prediction by ZEFSAII (Michael W. Deem and Ramdas Pophale) SiO2 
 PCOD9332757
Probable space group: I 21 21 21
;
_chemical_formula_sum "Si O2"
_cell_formula_units_Z 44
_cell_length_a 8.879917
_cell_length_b 12.869576
_cell_length_c 17.376735
_cell_angle_alpha 90.000000
_cell_angle_beta 90.000000
_cell_angle_gamma 90.000000
_cell_volume 1985.826599
_symmetry_space_group_name_H-M "I 21 21 21"
_symmetry_group_IT_number 24
_symmetry_cell_setting 'orthorhombic'
loop_
_space_group_symop_operation_xyz
x,y,z
-x,1/2-y,z
x,-y,1/2-z
1/2-x,y,-z
1/2+x,1/2+y,1/2+z
1/2-x,-y,1/2+z
1/2+x,1/2-y,-z
-x,1/2+y,1/2-z
loop_
_atom_site_type_symbol
_atom_site_label
_atom_site_fract_x
_atom_site_fract_y
_atom_site_fract_z
Si Si1 0.666503 0.057673 0.174002
Si Si2 0.500000 0.750000 0.751408
Si Si3 0.076301 0.474859 0.991515
Si Si4 0.514205 0.053002 0.644316
Si Si5 0.198353 0.202945 0.829679
Si Si6 0.263561 0.000000 0.250000
Si Si7 0.500000 0.250000 0.028896
O O1 0.565285 0.023595 0.100910
O O2 0.649534 0.179722 0.189365
O O3 0.843880 0.025449 0.158652
O O4 0.626401 0.000000 0.250000
O O5 0.445242 0.658974 0.809871
O O6 0.373252 0.792351 0.693938
O O7 0.053720 0.353181 0.014152
O O8 0.250000 0.502877 0.000000
O O9 0.993074 0.548410 0.051925
O O10 0.353402 0.024741 0.680722
O O11 0.137161 0.204766 0.917404
O O12 0.151984 0.103418 0.778961
#
# Coordination Sequence:
#
# PCOD9332757 Si02
#       7
#     8   4   8   8   8   4   4
#     4  10  16  33  58  85 112 147 206 247 282 342
#     4  10  18  34  65  89 120 152 208 248 292 363
#     4   9  21  34  56  86 116 156 196 246 294 349
#     4  10  18  33  57  90 113 152 200 251 294 345
#     4  10  20  36  58  92 116 158 196 245 300 350
#     4  10  20  34  58  88 124 152 190 246 308 364
#     4  10  22  40  57  89 124 156 198 252 306 355
#
# _framework density 22.157018999999998
#
# number of rings (size 3 to 8) (size 9 to 14) (size 15 to 20)
#    0.000    2.182    2.727    1.091    0.000    4.364 
#    6.545    0.000    4.000    0.000    0.000    0.000 
#    0.000    0.000    0.000    0.000    0.000    0.000 
#
# Total GULP energy -122482.435432 kJ/mol
# GULP energy per Si atom -5567.383429 kJ/mol
# Density = 2.210659 g / cm^3
# Si number density = 22.157019 Si / 1000 Ang^3
#
#
#
# Elastic Constant Matrix: (Units=GPa)
#
#
# Indices 1 2 3 4 5 6 
#
# 1 70.4812 23.0611 34.1288 0.0000 0.0000 0.0000
# 2 23.0611 90.3566 33.4944 0.0000 0.0000 0.0000
# 3 34.1288 33.4944 137.7859 0.0000 0.0000 0.0000
# 4 0.0000 0.0000 0.0000 39.4382 0.0000 0.0000
# 5 0.0000 0.0000 0.0000 0.0000 0.0943 0.0000
# 6 0.0000 0.0000 0.0000 0.0000 0.0000 29.1854
#
#
#
# Elastic Compliance Matrix: (Units=1/GPa)
#
#
# Indices 1 2 3 4 5 6 
#
# 1 0.016842 -0.003025 -0.003436 0.000000 0.000000 0.000000
# 2 -0.003025 0.012706 -0.002340 0.000000 0.000000 0.000000
# 3 -0.003436 -0.002340 0.008678 0.000000 0.000000 0.000000
# 4 0.000000 0.000000 0.000000 0.025356 0.000000 0.000000
# 5 0.000000 0.000000 0.000000 0.000000 10.604792 0.000000
# 6 0.000000 0.000000 0.000000 0.000000 0.000000 0.034264
#
#
# Mechanical properties :
#
#
# Convention : Reuss Voigt Hill
#
# Bulk Modulus (GPa) = 48.48573 53.33248 50.90910
# Shear Modulus (GPa) = 0.46611 27.60622 14.03616
#
# Velocity S-wave (km/s) = 0.45915 3.53361 2.51965
# Velocity P-wave (km/s) = 4.71290 6.38522 5.61170
#
# Compressibility (1/GPa) = 0.02062462
#
# Stress axis : x y z
#
# Youngs Moduli (GPa) = 59.37616 78.69993 115.23985
#
# Poissons Ratio (x) = 0.23803 0.39601
# Poissons Ratio (y) = 0.17959 0.26962
# Poissons Ratio (z) = 0.20404 0.18413
#
# Static dielectric constant tensor:
#      x y z
#    x 1.923440 0.000000 0.000000 
#    y 0.000000 1.829760 0.000000 
#    z 0.000000 0.000000 1.888900 
# 
# From -- ./inp_files/30173.got.cif
#   From: 2010.05.17/outbox.cif.g08.bks.cpg/sg24_16_cif.got.tgz:30173.got - 2010.06.04 00:33:39.
