data_PCOD9332337
_publ_section_title
;
Structure prediction by ZEFSAII (Michael W. Deem and Ramdas Pophale) SiO2 
 PCOD9332337
Probable space group: I 2 2 2
;
_chemical_formula_sum "Si O2"
_cell_formula_units_Z 32
_cell_length_a 19.788069
_cell_length_b 8.963848
_cell_length_c 8.591173
_cell_angle_alpha 90.000000
_cell_angle_beta 90.000000
_cell_angle_gamma 90.000000
_cell_volume 1523.878579
_symmetry_space_group_name_H-M "I 2 2 2"
_symmetry_group_IT_number 23
_symmetry_cell_setting 'orthorhombic'
loop_
_space_group_symop_operation_xyz
x,y,z
-x,-y,z
x,-y,-z
-x,y,-z
1/2+x,1/2+y,1/2+z
1/2-x,1/2-y,1/2+z
1/2+x,1/2-y,1/2-z
1/2-x,1/2+y,1/2-z
loop_
_atom_site_type_symbol
_atom_site_label
_atom_site_fract_x
_atom_site_fract_y
_atom_site_fract_z
Si Si1 0.693765 0.843812 0.587074
Si Si2 0.045881 0.656725 0.367956
Si Si3 0.430051 0.671196 0.557835
Si Si4 0.689964 0.152151 0.039047
O O1 0.635927 0.740205 0.517126
O O2 0.685313 0.842227 0.773888
O O3 0.766930 0.784951 0.534398
O O4 0.683214 0.000000 0.500000
O O5 0.063712 0.775399 0.235085
O O6 0.118888 0.635818 0.449185
O O7 0.000000 0.500000 0.329516
O O8 0.000000 0.729727 0.500000
O O9 0.430612 0.500000 0.500000
O O10 0.500000 0.742255 0.500000
O O11 0.729615 0.000000 0.000000
#
# Coordination Sequence:
#
# PCOD9332337 Si02
#       4
#     8   8   8   8
#     4  12  27  44  75 108 146 206 246 316 379 463
#     4  11  23  43  77 114 146 203 258 317 378 458
#     4  11  26  46  69 110 152 192 251 314 382 450
#     4  12  24  46  69 107 151 188 258 308 382 449
#
# _framework density 20.99905
#
# number of rings (size 3 to 8) (size 9 to 14) (size 15 to 20)
#    0.000    0.500    2.500    6.750    3.500    2.000 
#    0.000    7.500    0.000    0.000    0.000    0.000 
#    0.000    0.000    0.000    0.000    0.000    0.000 
#
# Total GULP energy -89068.860428 kJ/mol
# GULP energy per Si atom -5566.803777 kJ/mol
# Density = 2.095125 g / cm^3
# Si number density = 20.999050 Si / 1000 Ang^3
#
#
#
# Elastic Constant Matrix: (Units=GPa)
#
#
# Indices 1 2 3 4 5 6 
#
# 1 124.6395 53.6998 34.1850 0.0000 0.0000 0.0000
# 2 53.6998 107.2420 72.1429 0.0000 0.0000 0.0000
# 3 34.1850 72.1429 188.3251 0.0000 0.0000 0.0000
# 4 0.0000 0.0000 0.0000 4.0115 0.0000 0.0000
# 5 0.0000 0.0000 0.0000 0.0000 -14.8094 0.0000
# 6 0.0000 0.0000 0.0000 0.0000 0.0000 102.6365
#
#
#
# Elastic Compliance Matrix: (Units=1/GPa)
#
#
# Indices 1 2 3 4 5 6 
#
# 1 0.010233 -0.005220 0.000142 0.000000 0.000000 0.000000
# 2 -0.005220 0.015224 -0.004885 0.000000 0.000000 0.000000
# 3 0.000142 -0.004885 0.007155 0.000000 0.000000 0.000000
# 4 0.000000 0.000000 0.000000 0.249286 0.000000 0.000000
# 5 0.000000 0.000000 0.000000 0.000000 -0.067525 0.000000
# 6 0.000000 0.000000 0.000000 0.000000 0.000000 0.009743
#
#
# Mechanical properties :
#
#
# Convention : Reuss Voigt Hill
#
# Bulk Modulus (GPa) = 78.81276 82.25133 80.53205
# Shear Modulus (GPa) = 20.13932 35.71296 27.92614
#
# Velocity S-wave (km/s) = 3.10023 4.12842 3.65070
# Velocity P-wave (km/s) = 7.10129 7.87269 7.49692
#
# Compressibility (1/GPa) = 0.01268830
#
# Stress axis : x y z
#
# Youngs Moduli (GPa) = 97.72322 65.68481 139.75527
#
# Poissons Ratio (x) = 0.34284 -0.01984
# Poissons Ratio (y) = 0.51007 0.68265
# Poissons Ratio (z) = -0.01387 0.32084
#
# Static dielectric constant tensor:
#      x y z
#    x 1.863430 0.000000 0.000000 
#    y 0.000000 1.901680 0.000000 
#    z 0.000000 0.000000 1.850760 
# 
# From -- ./inp_files/11613.got.cif
#   From: 2010.05.17/outbox.cif.g08.bks.cpg/sg23_6_cif.got.tgz:11613.got - 2010.06.04 12:02:01.
