data_PCOD9332257
_publ_section_title
;
Structure prediction by ZEFSAII (Michael W. Deem and Ramdas Pophale) SiO2 
 PCOD9332257
Probable space group: I 2 2 2
;
_chemical_formula_sum "Si O2"
_cell_formula_units_Z 58
_cell_length_a 10.410841
_cell_length_b 9.185585
_cell_length_c 27.616417
_cell_angle_alpha 90.000000
_cell_angle_beta 90.000000
_cell_angle_gamma 90.000000
_cell_volume 2640.948704
_symmetry_space_group_name_H-M "I 2 2 2"
_symmetry_group_IT_number 23
_symmetry_cell_setting 'orthorhombic'
loop_
_space_group_symop_operation_xyz
x,y,z
-x,-y,z
x,-y,-z
-x,y,-z
1/2+x,1/2+y,1/2+z
1/2-x,1/2-y,1/2+z
1/2+x,1/2-y,1/2-z
1/2-x,1/2+y,1/2-z
loop_
_atom_site_type_symbol
_atom_site_label
_atom_site_fract_x
_atom_site_fract_y
_atom_site_fract_z
Si Si1 0.846577 0.994000 0.655055
Si Si2 0.741980 0.256200 0.776941
Si Si3 0.663355 0.289266 0.932093
Si Si4 0.851663 0.672052 0.990124
Si Si5 0.475524 0.173765 0.298685
Si Si6 0.861654 0.452506 0.359585
Si Si7 0.000000 0.000000 0.500000
Si Si8 0.195012 0.765701 0.119956
O O1 0.803272 0.915131 0.703997
O O2 0.791381 0.893518 0.611612
O O3 0.790203 0.151003 0.645518
O O4 0.000000 0.000000 0.652025
O O5 0.648881 0.211516 0.733518
O O6 0.896051 0.264122 0.772920
O O7 0.708508 0.143206 0.819338
O O8 0.605359 0.150437 0.905354
O O9 0.772987 0.242880 0.969145
O O10 0.571444 0.389682 0.964067
O O11 0.818040 0.718850 0.935899
O O12 0.823770 0.500000 0.000000
O O13 0.000000 0.693560 0.000000
O O14 0.439284 0.245123 0.350795
O O15 0.500000 0.000000 0.304788
O O16 0.765186 0.580377 0.374423
O O17 0.000000 0.500000 0.339303
#
# Coordination Sequence:
#
# PCOD9332257 Si02
#       8
#     8   8   8   8   8   8   2   8
#     4  11  22  42  74 107 140 194 248 301 378 453
#     4  11  28  49  78 109 152 191 249 320 381 461
#     4  11  23  43  69 105 143 192 252 311 372 437
#     4  11  25  42  73 100 144 190 259 316 369 440
#     4  12  29  50  81 115 149 198 261 314 383 470
#     4  11  28  48  73 110 160 197 246 317 392 455
#     4  12  20  40  72 104 144 188 266 314 364 456
#     4  12  26  47  73 109 151 200 249 314 386 457
#
# _framework density 21.961805999999999
#
# number of rings (size 3 to 8) (size 9 to 14) (size 15 to 20)
#    0.000    0.690    4.138    2.069   13.517    1.103 
#    0.000    0.690    0.000    0.000    0.000    0.000 
#    0.000    0.000    0.000    0.000    0.000    0.000 
#
# Total GULP energy -162162.428665 kJ/mol
# GULP energy per Si atom -5591.807885 kJ/mol
# Density = 2.191182 g / cm^3
# Si number density = 21.961806 Si / 1000 Ang^3
#
#
#
# Elastic Constant Matrix: (Units=GPa)
#
#
# Indices 1 2 3 4 5 6 
#
# 1 119.7303 26.7028 34.9311 0.0000 0.0000 0.0000
# 2 26.7028 93.7795 26.3577 0.0000 0.0000 0.0000
# 3 34.9311 26.3577 100.4320 0.0000 0.0000 0.0000
# 4 0.0000 0.0000 0.0000 42.4049 0.0000 0.0000
# 5 0.0000 0.0000 0.0000 0.0000 33.4861 0.0000
# 6 0.0000 0.0000 0.0000 0.0000 0.0000 22.8181
#
#
#
# Elastic Compliance Matrix: (Units=1/GPa)
#
#
# Indices 1 2 3 4 5 6 
#
# 1 0.009612 -0.001940 -0.002834 0.000000 0.000000 0.000000
# 2 -0.001940 0.011904 -0.002449 0.000000 0.000000 0.000000
# 3 -0.002834 -0.002449 0.011585 0.000000 0.000000 0.000000
# 4 0.000000 0.000000 0.000000 0.023582 0.000000 0.000000
# 5 0.000000 0.000000 0.000000 0.000000 0.029863 0.000000
# 6 0.000000 0.000000 0.000000 0.000000 0.000000 0.043825
#
#
# Mechanical properties :
#
#
# Convention : Reuss Voigt Hill
#
# Bulk Modulus (GPa) = 53.60678 54.43612 54.02145
# Shear Modulus (GPa) = 33.10461 34.80515 33.95488
#
# Velocity S-wave (km/s) = 3.88670 3.98528 3.93630
# Velocity P-wave (km/s) = 6.67862 6.78359 6.73131
#
# Compressibility (1/GPa) = 0.01865436
#
# Stress axis : x y z
#
# Youngs Moduli (GPa) = 104.04103 84.00386 86.31555
#
# Poissons Ratio (x) = 0.16300 0.24460
# Poissons Ratio (y) = 0.20188 0.21141
# Poissons Ratio (z) = 0.29483 0.20575
#
# Static dielectric constant tensor:
#      x y z
#    x 1.852130 0.000000 0.000000 
#    y 0.000000 1.794230 0.000000 
#    z 0.000000 0.000000 1.835410 
# 
# From -- ./inp_files/29458.got.cif
#   From: 2010.05.17/outbox.cif.g08.bks.cpg/sg23_15_cif.got.tgz:29458.got - 2010.06.04 12:02:01.
