data_PCOD9332058
_publ_section_title
;
Structure prediction by ZEFSAII (Michael W. Deem and Ramdas Pophale) SiO2 
 PCOD9332058
Probable space group: I 2 2 2
;
_chemical_formula_sum "Si O2"
_cell_formula_units_Z 40
_cell_length_a 11.755614
_cell_length_b 11.842525
_cell_length_c 13.654422
_cell_angle_alpha 90.000000
_cell_angle_beta 90.000000
_cell_angle_gamma 90.000000
_cell_volume 1900.916098
_symmetry_space_group_name_H-M "I 2 2 2"
_symmetry_group_IT_number 23
_symmetry_cell_setting 'orthorhombic'
loop_
_space_group_symop_operation_xyz
x,y,z
-x,-y,z
x,-y,-z
-x,y,-z
1/2+x,1/2+y,1/2+z
1/2-x,1/2-y,1/2+z
1/2+x,1/2-y,1/2-z
1/2-x,1/2+y,1/2-z
loop_
_atom_site_type_symbol
_atom_site_label
_atom_site_fract_x
_atom_site_fract_y
_atom_site_fract_z
Si Si1 0.517767 0.629840 0.383479
Si Si2 0.846949 0.330561 0.907165
Si Si3 0.681090 0.092013 0.624335
Si Si4 0.048764 0.880629 0.608589
Si Si5 0.868658 0.238784 0.279478
O O1 0.500000 0.500000 0.352697
O O2 0.500000 0.623227 0.500000
O O3 0.431278 0.735477 0.364997
O O4 0.629526 0.662543 0.320055
O O5 0.859561 0.462601 0.880188
O O6 0.725127 0.295174 0.860139
O O7 0.859273 0.340248 0.026135
O O8 0.816993 0.105471 0.613263
O O9 0.649157 0.140722 0.730069
O O10 0.000000 0.866728 0.500000
O O11 0.990188 0.783232 0.670919
O O12 0.000000 0.000000 0.643655
#
# Coordination Sequence:
#
# PCOD9332058 Si02
#       5
#     8   8   8   8   8
#     4  11  25  45  67  95 135 173 218 276 341 409
#     4  11  23  44  67 100 133 172 231 281 334 395
#     4  11  23  42  68  98 136 175 227 288 328 395
#     4  11  19  39  67  98 131 176 228 280 329 392
#     4  12  23  38  67  98 131 180 216 279 334 401
#
# _framework density 21.042484999999999
#
# number of rings (size 3 to 8) (size 9 to 14) (size 15 to 20)
#    0.000    0.800    6.000    3.000    2.800    0.800 
#    0.000    0.000    0.000    0.000    0.000    0.000 
#    0.000    0.000    0.000    0.000    0.000    0.000 
#
# Total GULP energy -111340.147345 kJ/mol
# GULP energy per Si atom -5567.007367 kJ/mol
# Density = 2.099459 g / cm^3
# Si number density = 21.042485 Si / 1000 Ang^3
#
#
#
# Elastic Constant Matrix: (Units=GPa)
#
#
# Indices 1 2 3 4 5 6 
#
# 1 88.6552 43.2385 15.7568 0.0000 0.0000 0.0000
# 2 43.2385 124.1310 42.8306 0.0000 0.0000 0.0000
# 3 15.7568 42.8306 120.8071 0.0000 0.0000 0.0000
# 4 0.0000 0.0000 0.0000 -1.6435 0.0000 0.0000
# 5 0.0000 0.0000 0.0000 0.0000 -22.6715 0.0000
# 6 0.0000 0.0000 0.0000 0.0000 0.0000 18.3781
#
#
#
# Elastic Compliance Matrix: (Units=1/GPa)
#
#
# Indices 1 2 3 4 5 6 
#
# 1 0.013589 -0.004697 -0.000107 0.000000 0.000000 0.000000
# 2 -0.004697 0.010802 -0.003217 0.000000 0.000000 0.000000
# 3 -0.000107 -0.003217 0.009432 0.000000 0.000000 0.000000
# 4 0.000000 0.000000 0.000000 -0.608459 0.000000 0.000000
# 5 0.000000 0.000000 0.000000 0.000000 -0.044108 0.000000
# 6 0.000000 0.000000 0.000000 0.000000 0.000000 0.054413
#
#
# Mechanical properties :
#
#
# Convention : Reuss Voigt Hill
#
# Bulk Modulus (GPa) = 56.23813 59.69388 57.96601
# Shear Modulus (GPa) = -9.21894 14.26377 2.52241
#
# Velocity S-wave (km/s) = -2.09538 2.60639 1.09605
# Velocity P-wave (km/s) = 4.57492 6.12271 5.40451
#
# Compressibility (1/GPa) = 0.01778153
#
# Stress axis : x y z
#
# Youngs Moduli (GPa) = 73.58735 92.57550 106.01911
#
# Poissons Ratio (x) = 0.43478 0.01138
# Poissons Ratio (y) = 0.34560 0.34108
# Poissons Ratio (z) = 0.00790 0.29783
#
# Static dielectric constant tensor:
#      x y z
#    x 1.828540 0.000000 0.000000 
#    y 0.000000 1.827070 0.000000 
#    z 0.000000 0.000000 1.836820 
# 
# From -- ./inp_files/9598.got.cif
#   From: 2010.05.17/outbox.cif.g08.bks.cpg/sg23_5_cif.got.tgz:9598.got - 2010.06.04 12:02:01.
