data_PCOD9332311
_publ_section_title
;
Structure prediction by ZEFSAII (Michael W. Deem and Ramdas Pophale) SiO2 
 PCOD9332311
Probable space group: I 2 2 2
;
_chemical_formula_sum "Si O2"
_cell_formula_units_Z 40
_cell_length_a 4.872041
_cell_length_b 12.701149
_cell_length_c 28.915689
_cell_angle_alpha 90.000000
_cell_angle_beta 90.000000
_cell_angle_gamma 90.000000
_cell_volume 1789.317833
_symmetry_space_group_name_H-M "I 2 2 2"
_symmetry_group_IT_number 23
_symmetry_cell_setting 'orthorhombic'
loop_
_space_group_symop_operation_xyz
x,y,z
-x,-y,z
x,-y,-z
-x,y,-z
1/2+x,1/2+y,1/2+z
1/2-x,1/2-y,1/2+z
1/2+x,1/2-y,1/2-z
1/2-x,1/2+y,1/2-z
loop_
_atom_site_type_symbol
_atom_site_label
_atom_site_fract_x
_atom_site_fract_y
_atom_site_fract_z
Si Si1 0.903437 0.619575 0.551875
Si Si2 0.203081 0.399479 0.296678
Si Si3 0.930319 0.840962 0.288452
Si Si4 0.612723 0.676961 0.393455
Si Si5 0.071676 0.611711 0.847293
O O1 0.589236 0.630347 0.567445
O O2 0.000000 0.500000 0.560085
O O3 0.000000 0.645105 0.500000
O O4 0.085251 0.689108 0.585991
O O5 0.440483 0.387865 0.258005
O O6 0.347976 0.391879 0.347013
O O7 0.000000 0.500000 0.294311
O O8 0.047955 0.286260 0.290585
O O9 0.120701 0.883132 0.329517
O O10 0.623470 0.874730 0.301726
O O11 0.497268 0.788924 0.378214
O O12 0.000000 0.500000 0.868771
#
# Coordination Sequence:
#
# PCOD9332311 Si02
#       5
#     8   8   8   8   8
#     4  11  24  43  67  94 127 162 197 250 327 402
#     4  11  24  43  64  93 133 172 217 273 315 361
#     4  11  24  41  61  90 126 174 218 250 304 367
#     4  11  23  41  66  96 123 159 211 262 313 376
#     4  11  24  43  64  88 125 171 214 255 303 363
#
# _framework density 22.354889
#
# number of rings (size 3 to 8) (size 9 to 14) (size 15 to 20)
#    0.000    1.000    0.000    7.800    0.000    6.400 
#    0.000   20.000    0.000    3.600    0.000    0.000 
#    0.000    0.000    0.000    0.000    0.000    0.000 
#
# Total GULP energy -112003.351960 kJ/mol
# GULP energy per Si atom -5600.167598 kJ/mol
# Density = 2.230401 g / cm^3
# Si number density = 22.354889 Si / 1000 Ang^3
#
#
#
# Elastic Constant Matrix: (Units=GPa)
#
#
# Indices 1 2 3 4 5 6 
#
# 1 87.3099 29.4147 14.3099 0.0000 0.0000 0.0000
# 2 29.4147 143.5464 29.4602 0.0000 0.0000 0.0000
# 3 14.3099 29.4602 93.6083 0.0000 0.0000 0.0000
# 4 0.0000 0.0000 0.0000 -42.6721 0.0000 0.0000
# 5 0.0000 0.0000 0.0000 0.0000 33.1451 0.0000
# 6 0.0000 0.0000 0.0000 0.0000 0.0000 42.3262
#
#
#
# Elastic Compliance Matrix: (Units=1/GPa)
#
#
# Indices 1 2 3 4 5 6 
#
# 1 0.012422 -0.002305 -0.001174 0.000000 0.000000 0.000000
# 2 -0.002305 0.007875 -0.002126 0.000000 0.000000 0.000000
# 3 -0.001174 -0.002126 0.011531 0.000000 0.000000 0.000000
# 4 0.000000 0.000000 0.000000 -0.023434 0.000000 0.000000
# 5 0.000000 0.000000 0.000000 0.000000 0.030170 0.000000
# 6 0.000000 0.000000 0.000000 0.000000 0.000000 0.023626
#
#
# Mechanical properties :
#
#
# Convention : Reuss Voigt Hill
#
# Bulk Modulus (GPa) = 48.49709 52.31491 50.40600
# Shear Modulus (GPa) = 62.28783 23.31182 42.79982
#
# Velocity S-wave (km/s) = 5.28428 3.23275 4.38032
# Velocity P-wave (km/s) = 7.67938 6.11450 6.94118
#
# Compressibility (1/GPa) = 0.02061980
#
# Stress axis : x y z
#
# Youngs Moduli (GPa) = 80.50071 126.98452 86.72008
#
# Poissons Ratio (x) = 0.29265 0.10178
# Poissons Ratio (y) = 0.18552 0.18437
# Poissons Ratio (z) = 0.09448 0.26998
#
# Static dielectric constant tensor:
#      x y z
#    x 1.884760 0.000000 0.000000 
#    y 0.000000 1.904810 0.000000 
#    z 0.000000 0.000000 1.833270 
# 
# From -- ./inp_files/28863.got.cif
#   From: 2010.05.17/outbox.cif.g08.bks.cpg/sg23_15_cif.got.tgz:28863.got - 2010.06.04 12:02:01.
