data_PCOD9332262
_publ_section_title
;
Structure prediction by ZEFSAII (Michael W. Deem and Ramdas Pophale) SiO2 
 PCOD9332262
Probable space group: I 2 2 2
;
_chemical_formula_sum "Si O2"
_cell_formula_units_Z 26
_cell_length_a 7.292604
_cell_length_b 28.639078
_cell_length_c 6.458072
_cell_angle_alpha 90.000000
_cell_angle_beta 90.000000
_cell_angle_gamma 90.000000
_cell_volume 1348.790648
_symmetry_space_group_name_H-M "I 2 2 2"
_symmetry_group_IT_number 23
_symmetry_cell_setting 'orthorhombic'
loop_
_space_group_symop_operation_xyz
x,y,z
-x,-y,z
x,-y,-z
-x,y,-z
1/2+x,1/2+y,1/2+z
1/2-x,1/2-y,1/2+z
1/2+x,1/2-y,1/2-z
1/2-x,1/2+y,1/2-z
loop_
_atom_site_type_symbol
_atom_site_label
_atom_site_fract_x
_atom_site_fract_y
_atom_site_fract_z
Si Si1 0.183118 0.047706 0.620616
Si Si2 0.000000 0.000000 0.000000
Si Si3 0.500000 0.884026 0.500000
Si Si4 0.000000 0.773659 0.000000
Si Si5 0.362178 0.194125 0.193197
O O1 0.346243 0.084061 0.606784
O O2 0.000000 0.064910 0.500000
O O3 0.236508 0.000000 0.500000
O O4 0.122559 0.031977 0.849173
O O5 0.596001 0.850602 0.332915
O O6 0.098226 0.739716 0.166099
O O7 0.844356 0.803511 0.111486
O O8 0.500000 0.194891 0.000000
#
# Coordination Sequence:
#
# PCOD9332262 Si02
#       5
#     8   2   4   4   8
#     4   9  20  41  65  93 132 170 209 261 315 378
#     4   8  18  40  76  88 120 190 200 256 320 370
#     4  11  25  40  63 103 128 166 216 264 315 377
#     4  11  22  44  66  88 119 169 217 260 327 383
#     4  11  24  40  67  91 124 167 215 266 321 377
#
# _framework density 19.276530000000001
#
# number of rings (size 3 to 8) (size 9 to 14) (size 15 to 20)
#    0.000    2.154    3.077    0.462    0.000    7.385 
#    0.000    7.692    0.000    0.000    0.000    0.000 
#    0.000    0.000    0.000    0.000    0.000    0.000 
#
# Total GULP energy -72645.065289 kJ/mol
# GULP energy per Si atom -5588.081945 kJ/mol
# Density = 1.923266 g / cm^3
# Si number density = 19.276530 Si / 1000 Ang^3
#
#
#
# Elastic Constant Matrix: (Units=GPa)
#
#
# Indices 1 2 3 4 5 6 
#
# 1 173.7703 89.9482 76.5925 0.0002 -0.0004 0.0001
# 2 89.9482 109.4568 63.9256 -0.0012 -0.0002 0.0002
# 3 76.5925 63.9256 147.7007 0.0405 0.0019 -0.0014
# 4 0.0002 -0.0012 0.0405 -21.5992 0.0061 -0.0119
# 5 -0.0004 -0.0002 0.0019 0.0061 29.7624 -0.0005
# 6 0.0001 0.0002 -0.0014 -0.0119 -0.0005 13.9130
#
#
#
# Elastic Compliance Matrix: (Units=1/GPa)
#
#
# Indices 1 2 3 4 5 6 
#
# 1 0.010570 -0.007340 -0.002304 -0.000004 0.000000 0.000000
# 2 -0.007340 0.017324 -0.003691 -0.000008 0.000000 -0.000001
# 3 -0.002304 -0.003691 0.009563 0.000018 -0.000001 0.000001
# 4 -0.000004 -0.000008 0.000018 -0.046298 0.000009 -0.000040
# 5 0.000000 0.000000 -0.000001 0.000009 0.033599 0.000001
# 6 0.000000 -0.000001 0.000001 -0.000040 0.000001 0.071875
#
#
# Mechanical properties :
#
#
# Convention : Reuss Voigt Hill
#
# Bulk Modulus (GPa) = 92.72264 99.09561 95.90912
# Shear Modulus (GPa) = 39.40100 17.77935 28.59017
#
# Velocity S-wave (km/s) = 4.52595 3.04029 3.85536
# Velocity P-wave (km/s) = 8.69011 7.99021 8.34750
#
# Compressibility (1/GPa) = 0.01078485
#
# Stress axis : x y z
#
# Youngs Moduli (GPa) = 94.60836 57.72359 104.56899
#
# Poissons Ratio (x) = 0.42371 0.24096
# Poissons Ratio (y) = 0.69445 0.38602
# Poissons Ratio (z) = 0.21800 0.21309
#
# Static dielectric constant tensor:
#      x y z
#    x 1.675420 0.000000 -0.000010 
#    y 0.000000 1.651750 0.000000 
#    z -0.000010 0.000000 1.661010 
# 
# From -- ./inp_files/573.got.cif
#   From: 2010.05.17/outbox.cif.g08.bks.cpg/sg23_1_cif.got.tgz:573.got - 2010.06.04 12:02:01.
