data_PCOD9332892
_publ_section_title
;
Structure prediction by ZEFSAII (Michael W. Deem and Ramdas Pophale) SiO2 
 PCOD9332892
Probable space group: I 21 21 21
;
_chemical_formula_sum "Si O2"
_cell_formula_units_Z 64
_cell_length_a 13.824023
_cell_length_b 23.574467
_cell_length_c 7.073120
_cell_angle_alpha 90.000000
_cell_angle_beta 90.000000
_cell_angle_gamma 90.000000
_cell_volume 2305.087186
_symmetry_space_group_name_H-M "I 21 21 21"
_symmetry_group_IT_number 24
_symmetry_cell_setting 'orthorhombic'
loop_
_space_group_symop_operation_xyz
x,y,z
-x,1/2-y,z
x,-y,1/2-z
1/2-x,y,-z
1/2+x,1/2+y,1/2+z
1/2-x,-y,1/2+z
1/2+x,1/2-y,-z
-x,1/2+y,1/2-z
loop_
_atom_site_type_symbol
_atom_site_label
_atom_site_fract_x
_atom_site_fract_y
_atom_site_fract_z
Si Si1 0.389655 0.012450 0.464371
Si Si2 0.689388 0.248201 0.289157
Si Si3 0.388361 0.866408 0.101519
Si Si4 0.578573 0.609599 0.549419
Si Si5 0.141238 0.397562 0.002819
Si Si6 0.376656 0.481260 0.461761
Si Si7 0.108653 0.767376 0.377694
Si Si8 0.894063 0.135900 0.571053
O O1 0.354362 0.076375 0.504423
O O2 0.506329 0.019076 0.457725
O O3 0.354544 0.000000 0.250000
O O4 0.380786 0.954110 0.584336
O O5 0.668380 0.307938 0.389259
O O6 0.799817 0.240860 0.225594
O O7 0.656398 0.195473 0.412635
O O8 0.623696 0.250015 0.098087
O O9 0.403735 0.883064 0.323307
O O10 0.495012 0.853768 0.022180
O O11 0.463469 0.618136 0.592768
O O12 0.626579 0.664890 0.638632
O O13 0.152411 0.462396 0.070707
O O14 0.111455 0.389136 0.783960
O O15 0.250000 0.371860 0.000000
O O16 0.345485 0.500000 0.250000
O O17 0.350614 0.418679 0.535693
O O18 0.000000 0.750000 0.321926
#
# Coordination Sequence:
#
# PCOD9332892 Si02
#       8
#     8   8   8   8   8   8   8   8
#     4   7  10  19  36  48  63  92 123 149 196 225
#     4  10  18  24  35  50  74 108 133 149 189 228
#     4   8  13  23  35  52  71  92 125 161 183 224
#     4   8  14  23  32  47  73 102 126 152 189 220
#     4   9  15  20  35  52  71  98 135 153 183 229
#     4   7  12  22  30  48  71  95 121 161 184 220
#     4  10  19  26  31  47  84 108 130 159 177 223
#     4   9  15  22  35  49  76 104 129 148 192 230
#
# _framework density 27.764676000000001
#
# number of rings (size 3 to 8) (size 9 to 14) (size 15 to 20)
#    0.000    3.500    0.000    5.625    3.500    0.000 
#    0.000    0.000    0.000    0.000    0.000    0.000 
#   33.750    0.000   21.250    3.750    7.500    0.000 
#
# Total GULP energy -178730.685714 kJ/mol
# GULP energy per Si atom -5585.333929 kJ/mol
# Density = 2.770148 g / cm^3
# Si number density = 27.764676 Si / 1000 Ang^3
#
#
#
# Elastic Constant Matrix: (Units=GPa)
#
#
# Indices 1 2 3 4 5 6 
#
# 1 152.3838 49.0499 23.7411 -0.0006 0.0000 0.0002
# 2 49.0499 264.0446 52.0384 -0.0003 -0.0001 -0.0006
# 3 23.7411 52.0384 89.2695 -0.0001 -0.0012 0.0046
# 4 -0.0006 -0.0003 -0.0001 20.8133 -0.0003 0.0027
# 5 0.0000 -0.0001 -0.0012 -0.0003 20.1245 -0.0008
# 6 0.0002 -0.0006 0.0046 0.0027 -0.0008 -141.0877
#
#
#
# Elastic Compliance Matrix: (Units=1/GPa)
#
#
# Indices 1 2 3 4 5 6 
#
# 1 0.007104 -0.001070 -0.001265 0.000000 0.000000 0.000000
# 2 -0.001070 0.004440 -0.002304 0.000000 0.000000 0.000000
# 3 -0.001265 -0.002304 0.012881 0.000000 0.000001 0.000000
# 4 0.000000 0.000000 0.000000 0.048046 0.000001 0.000001
# 5 0.000000 0.000000 0.000001 0.000001 0.049691 0.000000
# 6 0.000000 0.000000 0.000000 0.000001 0.000000 -0.007088
#
#
# Mechanical properties :
#
#
# Convention : Reuss Voigt Hill
#
# Bulk Modulus (GPa) = 66.02013 83.92853 74.97433
# Shear Modulus (GPa) = 38.63925 5.36126 22.00026
#
# Velocity S-wave (km/s) = 3.73456 1.39110 2.81798
# Velocity P-wave (km/s) = 6.51352 5.73362 6.13597
#
# Compressibility (1/GPa) = 0.01514689
#
# Stress axis : x y z
#
# Youngs Moduli (GPa) = 140.76511 225.22206 77.63111
#
# Poissons Ratio (x) = 0.24105 0.09823
# Poissons Ratio (y) = 0.15066 0.17883
# Poissons Ratio (z) = 0.17812 0.51883
#
# Static dielectric constant tensor:
#      x y z
#    x 2.110410 0.000000 0.000000 
#    y 0.000000 2.239470 0.000000 
#    z 0.000000 0.000000 2.245520 
# 
# From -- ./inp_files/30450.got.cif
#   From: 2010.05.17/outbox.cif.g08.bks.cpg/sg24_16_cif.got.tgz:30450.got - 2010.06.04 00:33:39.
