data_PCOD9332849
_publ_section_title
;
Structure prediction by ZEFSAII (Michael W. Deem and Ramdas Pophale) SiO2 
 PCOD9332849
Probable space group: I 21 21 21
;
_chemical_formula_sum "Si O2"
_cell_formula_units_Z 36
_cell_length_a 25.122780
_cell_length_b 4.975628
_cell_length_c 14.139560
_cell_angle_alpha 90.000000
_cell_angle_beta 90.000000
_cell_angle_gamma 90.000000
_cell_volume 1767.467731
_symmetry_space_group_name_H-M "I 21 21 21"
_symmetry_group_IT_number 24
_symmetry_cell_setting 'orthorhombic'
loop_
_space_group_symop_operation_xyz
x,y,z
-x,1/2-y,z
x,-y,1/2-z
1/2-x,y,-z
1/2+x,1/2+y,1/2+z
1/2-x,-y,1/2+z
1/2+x,1/2-y,-z
-x,1/2+y,1/2-z
loop_
_atom_site_type_symbol
_atom_site_label
_atom_site_fract_x
_atom_site_fract_y
_atom_site_fract_z
Si Si1 0.693980 0.689665 0.950935
Si Si2 0.171671 0.689415 0.334486
Si Si3 0.945720 0.151006 0.112341
Si Si4 0.922548 0.639468 0.987407
Si Si5 0.000000 0.250000 0.681123
O O1 0.690201 0.488493 0.860386
O O2 0.686731 0.000861 0.923229
O O3 0.750000 0.645398 0.000000
O O4 0.641399 0.629158 0.012656
O O5 0.191837 0.500000 0.250000
O O6 0.107455 0.704631 0.327851
O O7 0.000000 0.250000 0.161388
O O8 0.941876 0.349866 0.022273
O O9 0.940696 0.852975 0.068818
O O10 0.950081 0.714860 0.889702
O O11 0.006744 0.500000 0.750000
#
# Coordination Sequence:
#
# PCOD9332849 Si02
#       5
#     8   8   8   8   4
#     4  10  21  39  62  81 109 158 200 229 286 358
#     4  10  21  36  57  88 117 143 184 243 290 328
#     4  10  17  33  57  79 109 152 179 214 278 353
#     4  10  20  35  55  79 110 146 195 230 278 353
#     4  12  22  34  54  82 116 146 186 246 294 322
#
# _framework density 20.368126
#
# number of rings (size 3 to 8) (size 9 to 14) (size 15 to 20)
#    0.000    1.778    2.222    2.667    0.000    0.000 
#    0.000   10.000    0.000    0.000    0.000    0.000 
#    0.000    0.000    0.000    0.000    0.000    0.000 
#
# Total GULP energy -100427.510148 kJ/mol
# GULP energy per Si atom -5579.306119 kJ/mol
# Density = 2.032177 g / cm^3
# Si number density = 20.368126 Si / 1000 Ang^3
#
#
#
# Elastic Constant Matrix: (Units=GPa)
#
#
# Indices 1 2 3 4 5 6 
#
# 1 140.5476 16.2546 15.5130 0.0000 0.0000 0.0000
# 2 16.2546 107.0015 10.7697 0.0000 0.0000 0.0000
# 3 15.5130 10.7697 42.4686 0.0000 0.0000 0.0000
# 4 0.0000 0.0000 0.0000 32.2112 0.0000 0.0000
# 5 0.0000 0.0000 0.0000 0.0000 1.8628 0.0000
# 6 0.0000 0.0000 0.0000 0.0000 0.0000 22.7073
#
#
#
# Elastic Compliance Matrix: (Units=1/GPa)
#
#
# Indices 1 2 3 4 5 6 
#
# 1 0.007495 -0.000886 -0.002513 0.000000 0.000000 0.000000
# 2 -0.000886 0.009695 -0.002135 0.000000 0.000000 0.000000
# 3 -0.002513 -0.002135 0.025006 0.000000 0.000000 0.000000
# 4 0.000000 0.000000 0.000000 0.031045 0.000000 0.000000
# 5 0.000000 0.000000 0.000000 0.000000 0.536826 0.000000
# 6 0.000000 0.000000 0.000000 0.000000 0.000000 0.044039
#
#
# Mechanical properties :
#
#
# Convention : Reuss Voigt Hill
#
# Bulk Modulus (GPa) = 32.12489 41.67693 36.90091
# Shear Modulus (GPa) = 7.40138 27.85494 17.62816
#
# Velocity S-wave (km/s) = 1.90832 3.70209 2.94509
# Velocity P-wave (km/s) = 4.54554 6.22737 5.45170
#
# Compressibility (1/GPa) = 0.03112851
#
# Stress axis : x y z
#
# Youngs Moduli (GPa) = 133.42516 103.14499 39.98994
#
# Poissons Ratio (x) = 0.09134 0.10050
# Poissons Ratio (y) = 0.11816 0.08538
# Poissons Ratio (z) = 0.33532 0.22023
#
# Static dielectric constant tensor:
#      x y z
#    x 1.740680 0.000000 0.000000 
#    y 0.000000 1.707440 0.000000 
#    z 0.000000 0.000000 1.746620 
# 
# From -- ./inp_files/23615.got.cif
#   From: 2010.05.17/outbox.cif.g08.bks.cpg/sg24_12_cif.got.tgz:23615.got - 2010.06.04 00:33:39.
