data_PCOD9332259
_publ_section_title
;
Structure prediction by ZEFSAII (Michael W. Deem and Ramdas Pophale) SiO2 
 PCOD9332259
Probable space group: I 2 2 2
;
_chemical_formula_sum "Si O2"
_cell_formula_units_Z 36
_cell_length_a 12.467084
_cell_length_b 15.729549
_cell_length_c 9.080134
_cell_angle_alpha 90.000000
_cell_angle_beta 90.000000
_cell_angle_gamma 90.000000
_cell_volume 1780.628884
_symmetry_space_group_name_H-M "I 2 2 2"
_symmetry_group_IT_number 23
_symmetry_cell_setting 'orthorhombic'
loop_
_space_group_symop_operation_xyz
x,y,z
-x,-y,z
x,-y,-z
-x,y,-z
1/2+x,1/2+y,1/2+z
1/2-x,1/2-y,1/2+z
1/2+x,1/2-y,1/2-z
1/2-x,1/2+y,1/2-z
loop_
_atom_site_type_symbol
_atom_site_label
_atom_site_fract_x
_atom_site_fract_y
_atom_site_fract_z
Si Si1 0.878720 0.755132 0.279658
Si Si2 0.627517 0.594262 0.986737
Si Si3 0.821189 0.500000 0.500000
Si Si4 0.690758 0.626239 0.309374
Si Si5 0.000000 0.640789 0.500000
Si Si6 0.500000 0.691569 0.500000
O O1 0.856549 0.849444 0.342170
O O2 0.774681 0.702361 0.328203
O O3 0.970849 0.704119 0.367801
O O4 0.920278 0.758747 0.111951
O O5 0.667818 0.634616 0.136891
O O6 0.674317 0.500000 0.000000
O O7 0.500000 0.587852 0.000000
O O8 0.747750 0.540333 0.370536
O O9 0.901148 0.421997 0.459268
O O10 0.580317 0.638145 0.397202
#
# Coordination Sequence:
#
# PCOD9332259 Si02
#       6
#     8   8   4   8   4   4
#     4  11  22  43  66  93 126 174 221 274 327 399
#     4  11  23  42  61  87 130 170 204 267 334 384
#     4   9  22  37  68  98 124 175 216 275 316 406
#     4  11  24  41  64  97 128 170 222 267 338 395
#     4   9  18  44  67  88 136 166 221 266 336 379
#     4  12  24  39  68  95 128 168 228 278 321 406
#
# _framework density 20.217573999999999
#
# number of rings (size 3 to 8) (size 9 to 14) (size 15 to 20)
#    0.000    1.333    3.333    1.333    3.111    2.222 
#    4.000    0.000    0.000    0.000    0.000    0.000 
#    0.000    0.000    0.000    0.000    0.000    0.000 
#
# Total GULP energy -100270.361231 kJ/mol
# GULP energy per Si atom -5570.575624 kJ/mol
# Density = 2.017156 g / cm^3
# Si number density = 20.217574 Si / 1000 Ang^3
#
#
#
# Elastic Constant Matrix: (Units=GPa)
#
#
# Indices 1 2 3 4 5 6 
#
# 1 66.6970 12.2034 9.0965 0.0000 0.0000 0.0000
# 2 12.2034 89.6993 14.4626 0.0000 0.0000 0.0000
# 3 9.0965 14.4626 70.7858 0.0000 0.0000 0.0000
# 4 0.0000 0.0000 0.0000 25.3479 0.0000 0.0000
# 5 0.0000 0.0000 0.0000 0.0000 37.3727 0.0000
# 6 0.0000 0.0000 0.0000 0.0000 0.0000 5.0058
#
#
#
# Elastic Compliance Matrix: (Units=1/GPa)
#
#
# Indices 1 2 3 4 5 6 
#
# 1 0.015553 -0.001855 -0.001620 0.000000 0.000000 0.000000
# 2 -0.001855 0.011749 -0.002162 0.000000 0.000000 0.000000
# 3 -0.001620 -0.002162 0.014777 0.000000 0.000000 0.000000
# 4 0.000000 0.000000 0.000000 0.039451 0.000000 0.000000
# 5 0.000000 0.000000 0.000000 0.000000 0.026758 0.000000
# 6 0.000000 0.000000 0.000000 0.000000 0.000000 0.199767
#
#
# Mechanical properties :
#
#
# Convention : Reuss Voigt Hill
#
# Bulk Modulus (GPa) = 32.46099 33.18968 32.82534
# Shear Modulus (GPa) = 15.17001 26.30659 20.73830
#
# Velocity S-wave (km/s) = 2.74220 3.61109 3.20622
# Velocity P-wave (km/s) = 5.11047 5.81709 5.47519
#
# Compressibility (1/GPa) = 0.03080621
#
# Stress axis : x y z
#
# Youngs Moduli (GPa) = 64.29439 85.11127 67.67249
#
# Poissons Ratio (x) = 0.15787 0.10961
# Poissons Ratio (y) = 0.11926 0.14632
# Poissons Ratio (z) = 0.10414 0.18403
#
# Static dielectric constant tensor:
#      x y z
#    x 2.376100 0.000000 0.000000 
#    y 0.000000 1.788910 0.000000 
#    z 0.000000 0.000000 1.734420 
# 
# From -- ./inp_files/9520.got.cif
#   From: 2010.05.17/outbox.cif.g08.bks.cpg/sg23_5_cif.got.tgz:9520.got - 2010.06.04 12:02:01.
