data_PCOD9332862
_publ_section_title
;
Structure prediction by ZEFSAII (Michael W. Deem and Ramdas Pophale) SiO2 
 PCOD9332862
Probable space group: I 21 21 21
;
_chemical_formula_sum "Si O2"
_cell_formula_units_Z 32
_cell_length_a 16.901152
_cell_length_b 9.855779
_cell_length_c 10.154387
_cell_angle_alpha 90.000000
_cell_angle_beta 90.000000
_cell_angle_gamma 90.000000
_cell_volume 1691.457053
_symmetry_space_group_name_H-M "I 21 21 21"
_symmetry_group_IT_number 24
_symmetry_cell_setting 'orthorhombic'
loop_
_space_group_symop_operation_xyz
x,y,z
-x,1/2-y,z
x,-y,1/2-z
1/2-x,y,-z
1/2+x,1/2+y,1/2+z
1/2-x,-y,1/2+z
1/2+x,1/2-y,-z
-x,1/2+y,1/2-z
loop_
_atom_site_type_symbol
_atom_site_label
_atom_site_fract_x
_atom_site_fract_y
_atom_site_fract_z
Si Si1 0.237749 0.376268 0.149655
Si Si2 0.916457 0.695674 0.349045
Si Si3 0.133482 0.902874 0.080138
Si Si4 0.188244 0.857317 0.808746
O O1 0.241002 0.500000 0.250000
O O2 0.151652 0.307449 0.148847
O O3 0.299510 0.261698 0.202625
O O4 0.250000 0.420862 0.000000
O O5 0.922545 0.653589 0.194682
O O6 0.886086 0.562663 0.426775
O O7 0.000000 0.750000 0.397632
O O8 0.222294 0.886134 0.138330
O O9 0.135923 0.830550 0.938809
O O10 0.160345 0.000000 0.750000
#
# Coordination Sequence:
#
# PCOD9332862 Si02
#       4
#     8   8   8   8
#     4  11  24  37  58  90 124 154 194 250 307 351
#     4  10  20  35  57  85 121 153 200 246 289 359
#     4   9  18  32  56  86 106 155 203 238 288 340
#     4  10  17  34  61  79 111 145 211 252 277 338
#
# _framework density 18.918600000000001
#
# number of rings (size 3 to 8) (size 9 to 14) (size 15 to 20)
#    0.000    2.000    5.000    1.500   10.500    0.000 
#    0.000    0.000    0.000   10.500    0.000    0.000 
#    0.000    0.000    0.000    0.000    0.000    0.000 
#
# Total GULP energy -89167.272129 kJ/mol
# GULP energy per Si atom -5572.954508 kJ/mol
# Density = 1.887554 g / cm^3
# Si number density = 18.918600 Si / 1000 Ang^3
#
#
#
# Elastic Constant Matrix: (Units=GPa)
#
#
# Indices 1 2 3 4 5 6 
#
# 1 27.3042 22.2587 10.4296 0.0000 0.0000 0.0000
# 2 22.2587 86.3382 38.3279 0.0000 0.0000 0.0000
# 3 10.4296 38.3279 122.6941 0.0000 0.0000 0.0000
# 4 0.0000 0.0000 0.0000 24.1438 0.0000 0.0000
# 5 0.0000 0.0000 0.0000 0.0000 14.0014 0.0000
# 6 0.0000 0.0000 0.0000 0.0000 0.0000 9.4363
#
#
#
# Elastic Compliance Matrix: (Units=1/GPa)
#
#
# Indices 1 2 3 4 5 6 
#
# 1 0.046376 -0.011849 -0.000241 0.000000 0.000000 0.000000
# 2 -0.011849 0.016475 -0.004139 0.000000 0.000000 0.000000
# 3 -0.000241 -0.004139 0.009464 0.000000 0.000000 0.000000
# 4 0.000000 0.000000 0.000000 0.041418 0.000000 0.000000
# 5 0.000000 0.000000 0.000000 0.000000 0.071421 0.000000
# 6 0.000000 0.000000 0.000000 0.000000 0.000000 0.105974
#
#
# Mechanical properties :
#
#
# Convention : Reuss Voigt Hill
#
# Bulk Modulus (GPa) = 25.09019 42.04100 33.56559
# Shear Modulus (GPa) = 14.84245 20.53766 17.69005
#
# Velocity S-wave (km/s) = 2.80401 3.29839 3.06119
# Velocity P-wave (km/s) = 4.87588 6.06433 5.50229
#
# Compressibility (1/GPa) = 0.03985622
#
# Stress axis : x y z
#
# Youngs Moduli (GPa) = 21.56291 60.69907 105.66528
#
# Poissons Ratio (x) = 0.71924 0.02543
# Poissons Ratio (y) = 0.25550 0.43737
# Poissons Ratio (z) = 0.00519 0.25125
#
# Static dielectric constant tensor:
#      x y z
#    x 1.639110 0.000000 0.000000 
#    y 0.000000 1.676690 0.000000 
#    z 0.000000 0.000000 1.711080 
# 
# From -- ./inp_files/10581.got.cif
#   From: 2010.05.17/outbox.cif.g08.bks.cpg/sg24_6_cif.got.tgz:10581.got - 2010.06.04 00:33:39.
