data_PCOD9332795
_publ_section_title
;
Structure prediction by ZEFSAII (Michael W. Deem and Ramdas Pophale) SiO2 
 PCOD9332795
Probable space group: I 21 21 21
;
_chemical_formula_sum "Si O2"
_cell_formula_units_Z 32
_cell_length_a 34.467774
_cell_length_b 7.558502
_cell_length_c 5.335180
_cell_angle_alpha 90.000000
_cell_angle_beta 90.000000
_cell_angle_gamma 90.000000
_cell_volume 1389.946375
_symmetry_space_group_name_H-M "I 21 21 21"
_symmetry_group_IT_number 24
_symmetry_cell_setting 'orthorhombic'
loop_
_space_group_symop_operation_xyz
x,y,z
-x,1/2-y,z
x,-y,1/2-z
1/2-x,y,-z
1/2+x,1/2+y,1/2+z
1/2-x,-y,1/2+z
1/2+x,1/2-y,-z
-x,1/2+y,1/2-z
loop_
_atom_site_type_symbol
_atom_site_label
_atom_site_fract_x
_atom_site_fract_y
_atom_site_fract_z
Si Si1 0.455934 0.696357 0.358631
Si Si2 0.704634 0.679507 0.499544
Si Si3 0.085274 0.804860 0.136296
Si Si4 0.172392 0.220959 0.495283
O O1 0.500000 0.750000 0.415057
O O2 0.454499 0.500000 0.250000
O O3 0.432594 0.705685 0.621337
O O4 0.440255 0.807291 0.117913
O O5 0.750000 0.635391 0.500000
O O6 0.690189 0.781196 0.255867
O O7 0.680941 0.493097 0.501056
O O8 0.695000 0.782111 0.751189
O O9 0.090176 0.000000 0.250000
O O10 0.127380 0.740421 0.045576
#
# Coordination Sequence:
#
# PCOD9332795 Si02
#       4
#     8   8   8   8
#     4  12  27  47  67  93 127 167 221 269 337 404
#     4  10  17  28  47  79 136 175 199 250 319 380
#     4  12  23  40  68  96 129 171 211 273 331 393
#     4  10  18  29  48  82 122 165 206 244 320 373
#
# _framework density 23.022472
#
# number of rings (size 3 to 8) (size 9 to 14) (size 15 to 20)
#    0.000    1.000    2.500    9.000    3.500    0.000 
#    0.000    0.000    0.000    0.000    0.000    0.000 
#    0.000   90.000    0.000    0.000    0.000    0.000 
#
# Total GULP energy -89393.376737 kJ/mol
# GULP energy per Si atom -5587.086046 kJ/mol
# Density = 2.297007 g / cm^3
# Si number density = 23.022472 Si / 1000 Ang^3
#
#
#
# Elastic Constant Matrix: (Units=GPa)
#
#
# Indices 1 2 3 4 5 6 
#
# 1 168.8396 3.6535 85.6548 0.0000 0.0000 0.0000
# 2 3.6535 40.8416 16.8196 0.0001 0.0001 0.0001
# 3 85.6548 16.8196 256.0999 0.0001 0.0001 0.0001
# 4 0.0000 0.0001 0.0001 -14.0063 0.0001 0.0000
# 5 0.0000 0.0001 0.0001 0.0001 72.1544 0.0001
# 6 0.0000 0.0001 0.0001 0.0000 0.0001 11.0409
#
#
#
# Elastic Compliance Matrix: (Units=1/GPa)
#
#
# Indices 1 2 3 4 5 6 
#
# 1 0.007138 0.000354 -0.002411 0.000000 0.000000 0.000000
# 2 0.000354 0.025183 -0.001772 0.000000 0.000000 0.000000
# 3 -0.002411 -0.001772 0.004827 0.000000 0.000000 0.000000
# 4 0.000000 0.000000 0.000000 -0.071397 0.000000 0.000000
# 5 0.000000 0.000000 0.000000 0.000000 0.013859 0.000000
# 6 0.000000 0.000000 0.000000 0.000000 0.000000 0.090573
#
#
# Mechanical properties :
#
#
# Convention : Reuss Voigt Hill
#
# Bulk Modulus (GPa) = 33.90876 75.33743 54.62310
# Shear Modulus (GPa) = 57.03098 37.81467 47.42283
#
# Velocity S-wave (km/s) = 4.98253 4.05719 4.54348
# Velocity P-wave (km/s) = 6.91819 7.39879 7.16253
#
# Compressibility (1/GPa) = 0.02949090
#
# Stress axis : x y z
#
# Youngs Moduli (GPa) = 140.09373 39.70922 207.15103
#
# Poissons Ratio (x) = -0.01407 0.49937
# Poissons Ratio (y) = -0.04963 0.36715
# Poissons Ratio (z) = 0.33772 0.07038
#
# Static dielectric constant tensor:
#      x y z
#    x 1.818830 0.000000 0.000000 
#    y 0.000000 1.869080 0.000000 
#    z 0.000000 0.000000 1.800380 
# 
# From -- ./inp_files/7517.got.cif
#   From: 2010.05.17/outbox.cif.g08.bks.cpg/sg24_4_cif.got.tgz:7517.got - 2010.06.04 00:33:39.
