data_PCOD9332348
_publ_section_title
;
Structure prediction by ZEFSAII (Michael W. Deem and Ramdas Pophale) SiO2 
 PCOD9332348
Probable space group: I 2 2 2
;
_chemical_formula_sum "Si O2"
_cell_formula_units_Z 32
_cell_length_a 14.253906
_cell_length_b 7.211168
_cell_length_c 13.171675
_cell_angle_alpha 90.000000
_cell_angle_beta 90.000000
_cell_angle_gamma 90.000000
_cell_volume 1353.881052
_symmetry_space_group_name_H-M "I 2 2 2"
_symmetry_group_IT_number 23
_symmetry_cell_setting 'orthorhombic'
loop_
_space_group_symop_operation_xyz
x,y,z
-x,-y,z
x,-y,-z
-x,y,-z
1/2+x,1/2+y,1/2+z
1/2-x,1/2-y,1/2+z
1/2+x,1/2-y,1/2-z
1/2-x,1/2+y,1/2-z
loop_
_atom_site_type_symbol
_atom_site_label
_atom_site_fract_x
_atom_site_fract_y
_atom_site_fract_z
Si Si1 0.087069 0.850153 0.773669
Si Si2 0.107733 0.223085 0.007538
Si Si3 0.000000 0.500000 0.336150
Si Si4 0.722982 0.366068 0.091497
Si Si5 0.359564 0.000000 0.000000
O O1 0.137446 0.768971 0.874534
O O2 0.040116 0.669229 0.725876
O O3 0.168025 0.916370 0.694430
O O4 0.000000 0.000000 0.790492
O O5 0.165040 0.337965 0.923266
O O6 0.000000 0.278390 0.000000
O O7 0.111728 0.000000 0.000000
O O8 0.076260 0.587060 0.412639
O O9 0.692962 0.500000 0.000000
O O10 0.694555 0.159422 0.057347
#
# Coordination Sequence:
#
# PCOD9332348 Si02
#       5
#     8   8   4   8   4
#     4  11  23  44  73 102 140 191 237 300 373 436
#     4  11  24  48  69  95 145 193 235 305 370 432
#     4   9  20  36  67 102 128 180 227 282 359 436
#     4  11  24  41  69 105 137 186 246 300 357 443
#     4   9  18  40  61  96 150 166 215 304 360 407
#
# _framework density 23.635753999999999
#
# number of rings (size 3 to 8) (size 9 to 14) (size 15 to 20)
#    0.000    1.500    3.750    1.500    0.000    7.000 
#    4.500    0.000    0.000    0.000    0.000    0.000 
#    0.000    0.000    0.000    0.000    0.000    0.000 
#
# Total GULP energy -89201.480933 kJ/mol
# GULP energy per Si atom -5575.092558 kJ/mol
# Density = 2.358196 g / cm^3
# Si number density = 23.635754 Si / 1000 Ang^3
#
#
#
# Elastic Constant Matrix: (Units=GPa)
#
#
# Indices 1 2 3 4 5 6 
#
# 1 101.1410 12.3573 34.1941 0.0000 0.0000 0.0000
# 2 12.3573 58.3823 9.4345 0.0000 0.0000 0.0000
# 3 34.1941 9.4345 91.5950 0.0000 0.0000 0.0000
# 4 0.0000 0.0000 0.0000 26.7099 0.0000 0.0000
# 5 0.0000 0.0000 0.0000 0.0000 42.6362 0.0000
# 6 0.0000 0.0000 0.0000 0.0000 0.0000 22.9347
#
#
#
# Elastic Compliance Matrix: (Units=1/GPa)
#
#
# Indices 1 2 3 4 5 6 
#
# 1 0.011492 -0.001769 -0.004108 0.000000 0.000000 0.000000
# 2 -0.001769 0.017691 -0.001162 0.000000 0.000000 0.000000
# 3 -0.004108 -0.001162 0.012571 0.000000 0.000000 0.000000
# 4 0.000000 0.000000 0.000000 0.037439 0.000000 0.000000
# 5 0.000000 0.000000 0.000000 0.000000 0.023454 0.000000
# 6 0.000000 0.000000 0.000000 0.000000 0.000000 0.043602
#
#
# Mechanical properties :
#
#
# Convention : Reuss Voigt Hill
#
# Bulk Modulus (GPa) = 36.13173 40.34335 38.23754
# Shear Modulus (GPa) = 29.48948 31.46498 30.47723
#
# Velocity S-wave (km/s) = 3.53606 3.65258 3.59479
# Velocity P-wave (km/s) = 5.65612 5.90714 5.78299
#
# Compressibility (1/GPa) = 0.02767651
#
# Stress axis : x y z
#
# Youngs Moduli (GPa) = 87.01605 56.52719 79.54869
#
# Poissons Ratio (x) = 0.09997 0.32679
# Poissons Ratio (y) = 0.15390 0.09243
# Poissons Ratio (z) = 0.35747 0.06568
#
# Static dielectric constant tensor:
#      x y z
#    x 2.081570 0.000000 0.000000 
#    y 0.000000 1.888890 0.000000 
#    z 0.000000 0.000000 2.008800 
# 
# From -- ./inp_files/9308.got.cif
#   From: 2010.05.17/outbox.cif.g08.bks.cpg/sg23_5_cif.got.tgz:9308.got - 2010.06.04 12:02:01.
