data_PCOD9332591
_publ_section_title
;
Structure prediction by ZEFSAII (Michael W. Deem and Ramdas Pophale) SiO2 
 PCOD9332591
Probable space group: I 2 2 2
;
_chemical_formula_sum "Si O2"
_cell_formula_units_Z 30
_cell_length_a 12.911226
_cell_length_b 8.361454
_cell_length_c 11.687705
_cell_angle_alpha 90.000000
_cell_angle_beta 90.000000
_cell_angle_gamma 90.000000
_cell_volume 1261.765154
_symmetry_space_group_name_H-M "I 2 2 2"
_symmetry_group_IT_number 23
_symmetry_cell_setting 'orthorhombic'
loop_
_space_group_symop_operation_xyz
x,y,z
-x,-y,z
x,-y,-z
-x,y,-z
1/2+x,1/2+y,1/2+z
1/2-x,1/2-y,1/2+z
1/2+x,1/2-y,1/2-z
1/2-x,1/2+y,1/2-z
loop_
_atom_site_type_symbol
_atom_site_label
_atom_site_fract_x
_atom_site_fract_y
_atom_site_fract_z
Si Si1 0.500000 0.000000 0.000000
Si Si2 0.732711 0.000000 0.500000
Si Si3 0.400177 0.155166 0.211924
Si Si4 0.192015 0.007374 0.267648
Si Si5 0.069875 0.248379 0.107005
O O1 0.439664 0.883592 0.913882
O O2 0.803736 0.068913 0.601482
O O3 0.657254 0.136137 0.448183
O O4 0.311234 0.024468 0.231792
O O5 0.345807 0.326601 0.225551
O O6 0.492247 0.164506 0.304326
O O7 0.123708 0.108744 0.179988
O O8 0.000000 0.193463 0.000000
#
# Coordination Sequence:
#
# PCOD9332591 Si02
#       5
#     2   4   8   8   8
#     4  12  32  52  80 120 170 212 274 342 416 482
#     4  12  25  50  85 112 172 218 277 340 403 498
#     4  12  29  52  83 120 165 218 273 341 415 483
#     4  12  28  50  81 123 161 216 278 336 410 481
#     4  12  27  51  82 122 166 219 273 337 418 490
#
# _framework density 23.776214
#
# number of rings (size 3 to 8) (size 9 to 14) (size 15 to 20)
#    0.000    0.000    5.333    2.800    3.733    4.267 
#    0.000    0.000    0.000    0.000    0.000    0.000 
#    0.000    0.000    0.000    0.000    0.000    0.000 
#
# Total GULP energy -84019.153693 kJ/mol
# GULP energy per Si atom -5601.276913 kJ/mol
# Density = 2.372210 g / cm^3
# Si number density = 23.776214 Si / 1000 Ang^3
#
#
#
# Elastic Constant Matrix: (Units=GPa)
#
#
# Indices 1 2 3 4 5 6 
#
# 1 91.4230 66.2804 57.9604 0.0000 0.0000 0.0000
# 2 66.2804 161.2292 63.2152 0.0000 0.0000 0.0000
# 3 57.9604 63.2152 201.3312 0.0000 0.0000 0.0000
# 4 0.0000 0.0000 0.0000 49.7418 0.0000 0.0000
# 5 0.0000 0.0000 0.0000 0.0000 67.9863 0.0000
# 6 0.0000 0.0000 0.0000 0.0000 0.0000 32.1251
#
#
#
# Elastic Compliance Matrix: (Units=1/GPa)
#
#
# Indices 1 2 3 4 5 6 
#
# 1 0.017128 -0.005825 -0.003102 0.000000 0.000000 0.000000
# 2 -0.005825 0.009054 -0.001166 0.000000 0.000000 0.000000
# 3 -0.003102 -0.001166 0.006226 0.000000 0.000000 0.000000
# 4 0.000000 0.000000 0.000000 0.020104 0.000000 0.000000
# 5 0.000000 0.000000 0.000000 0.000000 0.014709 0.000000
# 6 0.000000 0.000000 0.000000 0.000000 0.000000 0.031128
#
#
# Mechanical properties :
#
#
# Convention : Reuss Voigt Hill
#
# Bulk Modulus (GPa) = 81.81753 92.09949 86.95851
# Shear Modulus (GPa) = 40.78026 47.73911 44.25969
#
# Velocity S-wave (km/s) = 4.14595 4.48577 4.31920
# Velocity P-wave (km/s) = 7.57660 8.10244 7.84393
#
# Compressibility (1/GPa) = 0.01222232
#
# Stress axis : x y z
#
# Youngs Moduli (GPa) = 58.38508 110.44743 160.61622
#
# Poissons Ratio (x) = 0.64334 0.49821
# Poissons Ratio (y) = 0.34009 0.18727
# Poissons Ratio (z) = 0.18110 0.12878
#
# Static dielectric constant tensor:
#      x y z
#    x 1.913830 0.000000 0.000000 
#    y 0.000000 1.939510 0.000000 
#    z 0.000000 0.000000 1.935400 
# 
# From -- ./inp_files/16314.got.cif
#   From: 2010.05.17/outbox.cif.g08.bks.cpg/sg23_9_cif.got.tgz:16314.got - 2010.06.04 12:02:01.
