data_PCOD9332501
_publ_section_title
;
Structure prediction by ZEFSAII (Michael W. Deem and Ramdas Pophale) SiO2 
 PCOD9332501
Probable space group: I 2 2 2
;
_chemical_formula_sum "Si O2"
_cell_formula_units_Z 38
_cell_length_a 8.577328
_cell_length_b 9.419443
_cell_length_c 20.837609
_cell_angle_alpha 90.000000
_cell_angle_beta 90.000000
_cell_angle_gamma 90.000000
_cell_volume 1683.546534
_symmetry_space_group_name_H-M "I 2 2 2"
_symmetry_group_IT_number 23
_symmetry_cell_setting 'orthorhombic'
loop_
_space_group_symop_operation_xyz
x,y,z
-x,-y,z
x,-y,-z
-x,y,-z
1/2+x,1/2+y,1/2+z
1/2-x,1/2-y,1/2+z
1/2+x,1/2-y,1/2-z
1/2-x,1/2+y,1/2-z
loop_
_atom_site_type_symbol
_atom_site_label
_atom_site_fract_x
_atom_site_fract_y
_atom_site_fract_z
Si Si1 0.000000 0.000000 0.500000
Si Si2 0.500000 0.000000 0.408592
Si Si3 0.221738 0.727981 0.839594
Si Si4 0.276041 0.678382 0.091456
Si Si5 0.947741 0.850867 0.280653
Si Si6 0.687546 0.496908 0.574554
O O1 0.902881 0.894183 0.454356
O O2 0.628299 0.100668 0.373760
O O3 0.385581 0.117786 0.437808
O O4 0.119577 0.758603 0.776366
O O5 0.397085 0.700432 0.816332
O O6 0.235254 0.864409 0.885852
O O7 0.318247 0.631831 0.164058
O O8 0.258979 0.847667 0.097490
O O9 0.000000 0.000000 0.250772
O O10 0.500000 0.500000 0.578543
O O11 0.732432 0.500000 0.500000
#
# Coordination Sequence:
#
# PCOD9332501 Si02
#       6
#     2   4   8   8   8   8
#     4  12  28  50  74 112 156 198 260 316 384 478
#     4  12  24  47  80 110 140 199 250 308 388 454
#     4  12  27  48  76 111 150 198 255 316 389 463
#     4  12  27  48  77 110 152 197 251 318 381 464
#     4  12  27  47  73 109 151 195 253 314 383 460
#     4  11  27  48  76 112 151 199 252 312 383 464
#
# _framework density 22.571400000000001
#
# number of rings (size 3 to 8) (size 9 to 14) (size 15 to 20)
#    0.000    0.211    5.263    1.895    8.842    1.263 
#    0.000    0.000    0.000    0.000    0.000    0.000 
#    0.000    0.000    0.000    0.000    0.000    0.000 
#
# Total GULP energy -106168.367269 kJ/mol
# GULP energy per Si atom -5587.808804 kJ/mol
# Density = 2.252003 g / cm^3
# Si number density = 22.571400 Si / 1000 Ang^3
#
#
#
# Elastic Constant Matrix: (Units=GPa)
#
#
# Indices 1 2 3 4 5 6 
#
# 1 90.7612 43.7590 10.3783 0.0000 0.0000 0.0000
# 2 43.7590 139.2486 23.1218 0.0000 0.0000 0.0000
# 3 10.3783 23.1218 59.7039 0.0000 0.0000 0.0000
# 4 0.0000 0.0000 0.0000 17.9294 0.0000 0.0000
# 5 0.0000 0.0000 0.0000 0.0000 87.6677 0.0000
# 6 0.0000 0.0000 0.0000 0.0000 0.0000 35.0491
#
#
#
# Elastic Compliance Matrix: (Units=1/GPa)
#
#
# Indices 1 2 3 4 5 6 
#
# 1 0.013015 -0.003969 -0.000725 0.000000 0.000000 0.000000
# 2 -0.003969 0.008886 -0.002751 0.000000 0.000000 0.000000
# 3 -0.000725 -0.002751 0.017941 0.000000 0.000000 0.000000
# 4 0.000000 0.000000 0.000000 0.055774 0.000000 0.000000
# 5 0.000000 0.000000 0.000000 0.000000 0.011407 0.000000
# 6 0.000000 0.000000 0.000000 0.000000 0.000000 0.028531
#
#
# Mechanical properties :
#
#
# Convention : Reuss Voigt Hill
#
# Bulk Modulus (GPa) = 40.08062 49.35909 44.71985
# Shear Modulus (GPa) = 31.49375 42.29287 36.89331
#
# Velocity S-wave (km/s) = 3.73942 4.33336 4.04730
# Velocity P-wave (km/s) = 6.03657 6.85222 6.45728
#
# Compressibility (1/GPa) = 0.02494972
#
# Stress axis : x y z
#
# Youngs Moduli (GPa) = 76.83648 112.54121 55.73878
#
# Poissons Ratio (x) = 0.44673 0.04041
# Poissons Ratio (y) = 0.30500 0.15335
# Poissons Ratio (z) = 0.05571 0.30962
#
# Static dielectric constant tensor:
#      x y z
#    x 1.836120 0.000000 0.000000 
#    y 0.000000 1.895860 0.000000 
#    z 0.000000 0.000000 1.857350 
# 
# From -- ./inp_files/6940.got.cif
#   From: 2010.05.17/outbox.cif.g08.bks.cpg/sg23_4_cif.got.tgz:6940.got - 2010.06.04 12:02:01.
