data_PCOD9332253
_publ_section_title
;
Structure prediction by ZEFSAII (Michael W. Deem and Ramdas Pophale) SiO2 
 PCOD9332253
Probable space group: I 2 2 2
;
_chemical_formula_sum "Si O2"
_cell_formula_units_Z 34
_cell_length_a 5.176529
_cell_length_b 12.751126
_cell_length_c 21.663574
_cell_angle_alpha 90.000000
_cell_angle_beta 90.000000
_cell_angle_gamma 90.000000
_cell_volume 1429.938290
_symmetry_space_group_name_H-M "I 2 2 2"
_symmetry_group_IT_number 23
_symmetry_cell_setting 'orthorhombic'
loop_
_space_group_symop_operation_xyz
x,y,z
-x,-y,z
x,-y,-z
-x,y,-z
1/2+x,1/2+y,1/2+z
1/2-x,1/2-y,1/2+z
1/2+x,1/2-y,1/2-z
1/2-x,1/2+y,1/2-z
loop_
_atom_site_type_symbol
_atom_site_label
_atom_site_fract_x
_atom_site_fract_y
_atom_site_fract_z
Si Si1 0.500000 0.000000 0.897829
Si Si2 0.620474 0.270424 0.715345
Si Si3 0.500000 0.500000 0.000000
Si Si4 0.500000 0.500000 0.318061
Si Si5 0.877364 0.395321 0.105443
Si Si6 0.500000 0.785246 0.500000
Si Si7 0.000000 0.337893 0.500000
O O1 0.746771 0.977620 0.857775
O O2 0.584359 0.092866 0.942591
O O3 0.397923 0.209930 0.753533
O O4 0.479731 0.385498 0.712803
O O5 0.677043 0.195947 0.655209
O O6 0.674000 0.433353 0.050878
O O7 0.000000 0.500000 0.135087
O O8 0.093953 0.347477 0.059971
O O9 0.744800 0.720233 0.478605
#
# Coordination Sequence:
#
# PCOD9332253 Si02
#       7
#     4   8   2   4   8   4   4
#     4  11  22  42  66 104 140 200 236 313 372 474
#     4  12  31  51  81 111 155 218 274 345 403 491
#     4  12  24  50  82 130 170 214 268 358 424 500
#     4  12  26  50  72 104 146 192 266 320 400 468
#     4  12  27  46  77 119 161 208 271 337 419 492
#     4  12  23  43  68 114 152 199 250 330 407 486
#     4  11  23  36  68 100 154 193 245 290 386 476
#
# _framework density 23.777252000000001
#
# number of rings (size 3 to 8) (size 9 to 14) (size 15 to 20)
#    0.000    0.235    2.353    6.353    6.588    1.882 
#    0.000    0.000    0.000    0.000    0.000    0.000 
#    0.000    0.000    0.000    0.000    0.000    0.000 
#
# Total GULP energy -94688.826862 kJ/mol
# GULP energy per Si atom -5569.930992 kJ/mol
# Density = 2.372313 g / cm^3
# Si number density = 23.777252 Si / 1000 Ang^3
#
#
#
# Elastic Constant Matrix: (Units=GPa)
#
#
# Indices 1 2 3 4 5 6 
#
# 1 78.8737 0.7411 32.5567 0.0000 0.0000 0.0000
# 2 0.7411 119.1488 31.9087 0.0000 0.0000 0.0000
# 3 32.5567 31.9087 95.9823 0.0000 0.0000 0.0000
# 4 0.0000 0.0000 0.0000 1080.9970 0.0000 0.0000
# 5 0.0000 0.0000 0.0000 0.0000 38.7987 0.0000
# 6 0.0000 0.0000 0.0000 0.0000 0.0000 11.1646
#
#
#
# Elastic Compliance Matrix: (Units=1/GPa)
#
#
# Indices 1 2 3 4 5 6 
#
# 1 0.014949 0.001389 -0.005532 0.000000 0.000000 0.000000
# 2 0.001389 0.009342 -0.003577 0.000000 0.000000 0.000000
# 3 -0.005532 -0.003577 0.013484 0.000000 0.000000 0.000000
# 4 0.000000 0.000000 0.000000 0.000925 0.000000 0.000000
# 5 0.000000 0.000000 0.000000 0.000000 0.025774 0.000000
# 6 0.000000 0.000000 0.000000 0.000000 0.000000 0.089569
#
#
# Mechanical properties :
#
#
# Convention : Reuss Voigt Hill
#
# Bulk Modulus (GPa) = 44.77380 47.15750 45.96565
# Shear Modulus (GPa) = 28.25997 241.44529 134.85263
#
# Velocity S-wave (km/s) = 3.45125 10.08787 7.53910
# Velocity P-wave (km/s) = 5.89516 12.47249 9.75489
#
# Compressibility (1/GPa) = 0.02233449
#
# Stress axis : x y z
#
# Youngs Moduli (GPa) = 66.89416 107.04235 74.16115
#
# Poissons Ratio (x) = -0.14864 0.41028
# Poissons Ratio (y) = -0.09289 0.26525
# Poissons Ratio (z) = 0.37007 0.38286
#
# Static dielectric constant tensor:
#      x y z
#    x 1.842960 0.000000 0.000000 
#    y 0.000000 2.087260 0.000000 
#    z 0.000000 0.000000 1.886660 
# 
# From -- ./inp_files/1629.got.cif
#   From: 2010.05.17/outbox.cif.g08.bks.cpg/sg23_1_cif.got.tgz:1629.got - 2010.06.04 12:02:01.
