data_PCOD9332537
_publ_section_title
;
Structure prediction by ZEFSAII (Michael W. Deem and Ramdas Pophale) SiO2 
 PCOD9332537
Probable space group: I 2 2 2
;
_chemical_formula_sum "Si O2"
_cell_formula_units_Z 56
_cell_length_a 31.179489
_cell_length_b 14.709808
_cell_length_c 5.040050
_cell_angle_alpha 90.000000
_cell_angle_beta 90.000000
_cell_angle_gamma 90.000000
_cell_volume 2311.590188
_symmetry_space_group_name_H-M "I 2 2 2"
_symmetry_group_IT_number 23
_symmetry_cell_setting 'orthorhombic'
loop_
_space_group_symop_operation_xyz
x,y,z
-x,-y,z
x,-y,-z
-x,y,-z
1/2+x,1/2+y,1/2+z
1/2-x,1/2-y,1/2+z
1/2+x,1/2-y,1/2-z
1/2-x,1/2+y,1/2-z
loop_
_atom_site_type_symbol
_atom_site_label
_atom_site_fract_x
_atom_site_fract_y
_atom_site_fract_z
Si Si1 0.657478 0.346341 0.805956
Si Si2 0.969518 0.748631 0.748048
Si Si3 0.248524 0.186711 0.467532
Si Si4 0.576410 0.442139 0.743500
Si Si5 0.090098 0.405164 0.904417
Si Si6 0.682088 0.089274 0.860196
Si Si7 0.856170 0.273338 0.776613
O O1 0.760582 0.237933 0.811949
O O2 0.628214 0.430444 0.728471
O O3 0.706159 0.359680 0.907445
O O4 0.633831 0.305379 0.066953
O O5 0.941941 0.840513 0.772408
O O6 0.939934 0.659256 0.732692
O O7 0.000000 0.757612 0.500000
O O8 0.000000 0.738191 0.000000
O O9 0.286444 0.120129 0.375406
O O10 0.343618 0.274945 0.442074
O O11 0.560065 0.500000 0.500000
O O12 0.564977 0.500000 0.000000
O O13 0.134941 0.428722 0.758060
O O14 0.070681 0.500000 0.000000
O O15 0.105380 0.340081 0.144727
O O16 0.674942 0.164917 0.088713
O O17 0.699558 0.000000 0.000000
#
# Coordination Sequence:
#
# PCOD9332537 Si02
#       7
#     8   8   8   8   8   8   8
#     4  12  25  47  79 110 154 207 272 320 406 463
#     4  12  30  52  84 123 166 204 257 334 406 481
#     4  12  26  46  74 109 150 209 270 332 391 466
#     4  12  27  50  88 117 154 209 268 328 405 486
#     4  12  26  48  82 119 159 213 263 319 393 492
#     4  12  26  44  78 113 153 202 272 324 393 461
#     4  12  22  45  79 108 147 207 262 324 380 482
#
# _framework density 24.225746999999998
#
# number of rings (size 3 to 8) (size 9 to 14) (size 15 to 20)
#    0.000    0.000    5.714    3.429    4.000    2.000 
#    0.000    5.000    3.143    0.000    0.000    0.000 
#    0.000    0.000    0.000    0.000    0.000    0.000 
#
# Total GULP energy -156736.252061 kJ/mol
# GULP energy per Si atom -5597.723288 kJ/mol
# Density = 2.417061 g / cm^3
# Si number density = 24.225747 Si / 1000 Ang^3
#
#
#
# Elastic Constant Matrix: (Units=GPa)
#
#
# Indices 1 2 3 4 5 6 
#
# 1 88.6924 24.7814 28.9616 0.0009 0.0003 0.0002
# 2 24.7814 96.4398 29.6241 0.0017 0.0004 0.0004
# 3 28.9616 29.6241 166.2406 -0.0111 -0.0016 0.0015
# 4 0.0009 0.0017 -0.0111 37.2427 -0.0001 0.0006
# 5 0.0003 0.0004 -0.0016 -0.0001 44.8839 0.0001
# 6 0.0002 0.0004 0.0015 0.0006 0.0001 13.0321
#
#
#
# Elastic Compliance Matrix: (Units=1/GPa)
#
#
# Indices 1 2 3 4 5 6 
#
# 1 0.012591 -0.002710 -0.001711 -0.000001 0.000000 0.000000
# 2 -0.002710 0.011553 -0.001587 -0.000001 0.000000 0.000000
# 3 -0.001711 -0.001587 0.006596 0.000002 0.000000 -0.000001
# 4 -0.000001 -0.000001 0.000002 0.026851 0.000000 -0.000001
# 5 0.000000 0.000000 0.000000 0.000000 0.022280 0.000000
# 6 0.000000 0.000000 -0.000001 -0.000001 0.000000 0.076734
#
#
# Mechanical properties :
#
#
# Convention : Reuss Voigt Hill
#
# Bulk Modulus (GPa) = 53.40314 57.56746 55.48530
# Shear Modulus (GPa) = 28.59431 36.89879 32.74655
#
# Velocity S-wave (km/s) = 3.43932 3.90695 3.68057
# Velocity P-wave (km/s) = 6.15335 6.64582 6.40432
#
# Compressibility (1/GPa) = 0.01872549
#
# Stress axis : x y z
#
# Youngs Moduli (GPa) = 79.42398 86.55853 151.60424
#
# Poissons Ratio (x) = 0.23456 0.25933
# Poissons Ratio (y) = 0.21523 0.24054
# Poissons Ratio (z) = 0.13586 0.13734
#
# Static dielectric constant tensor:
#      x y z
#    x 2.018510 0.000000 0.000000 
#    y 0.000000 1.910310 0.000000 
#    z 0.000000 0.000000 1.911360 
# 
# From -- ./inp_files/5369.got.cif
#   From: 2010.05.17/outbox.cif.g08.bks.cpg/sg23_3_cif.got.tgz:5369.got - 2010.06.04 12:02:01.
