data_PCOD9332713
_publ_section_title
;
Structure prediction by ZEFSAII (Michael W. Deem and Ramdas Pophale) SiO2 
 PCOD9332713
Probable space group: I 21 21 21
;
_chemical_formula_sum "Si O2"
_cell_formula_units_Z 52
_cell_length_a 15.810159
_cell_length_b 13.982754
_cell_length_c 12.122529
_cell_angle_alpha 90.000000
_cell_angle_beta 90.000000
_cell_angle_gamma 90.000000
_cell_volume 2679.922201
_symmetry_space_group_name_H-M "I 21 21 21"
_symmetry_group_IT_number 24
_symmetry_cell_setting 'orthorhombic'
loop_
_space_group_symop_operation_xyz
x,y,z
-x,1/2-y,z
x,-y,1/2-z
1/2-x,y,-z
1/2+x,1/2+y,1/2+z
1/2-x,-y,1/2+z
1/2+x,1/2-y,-z
-x,1/2+y,1/2-z
loop_
_atom_site_type_symbol
_atom_site_label
_atom_site_fract_x
_atom_site_fract_y
_atom_site_fract_z
Si Si1 0.955514 0.500000 0.250000
Si Si2 0.520466 0.971132 0.982029
Si Si3 0.542594 0.344677 0.056423
Si Si4 0.404734 0.290509 0.604355
Si Si5 0.629524 0.309134 0.817954
Si Si6 0.838176 0.624445 0.966513
Si Si7 0.693008 0.610945 0.280069
O O1 0.011561 0.503683 0.356674
O O2 0.902414 0.402626 0.250382
O O3 0.589009 0.887359 0.968235
O O4 0.426370 0.931238 0.013859
O O5 0.526130 0.069720 0.048057
O O6 0.500000 0.250000 0.103010
O O7 0.617132 0.382110 0.134048
O O8 0.581905 0.315459 0.935663
O O9 0.500000 0.250000 0.595059
O O10 0.386667 0.281432 0.736555
O O11 0.343093 0.216444 0.544954
O O12 0.728271 0.331325 0.829378
O O13 0.833181 0.652009 0.838858
O O14 0.750000 0.571746 0.000000
O O15 0.713152 0.500000 0.250000
#
# Coordination Sequence:
#
# PCOD9332713 Si02
#       7
#     4   8   8   8   8   8   8
#     4  10  16  28  52  86 120 142 176 242 296 350
#     4  10  21  34  57  85 117 156 198 247 302 349
#     4  11  26  40  57  89 126 169 197 240 310 381
#     4  10  19  34  56  89 115 151 196 252 300 352
#     4  11  20  35  59  89 123 146 197 250 309 358
#     4  11  20  35  56  88 122 147 197 253 304 354
#     4  12  23  37  60  90 124 159 197 250 314 370
#
# _framework density 19.403549000000002
#
# number of rings (size 3 to 8) (size 9 to 14) (size 15 to 20)
#    0.000    1.231    6.923    0.923    4.308    1.846 
#    0.000    0.000    0.000    1.846    4.000    0.000 
#    0.000    0.000    0.000    0.000    0.000    0.000 
#
# Total GULP energy -144799.544003 kJ/mol
# GULP energy per Si atom -5569.213231 kJ/mol
# Density = 1.935939 g / cm^3
# Si number density = 19.403549 Si / 1000 Ang^3
#
#
#
# Elastic Constant Matrix: (Units=GPa)
#
#
# Indices 1 2 3 4 5 6 
#
# 1 35.3883 16.3651 7.2309 0.0000 0.0000 0.0000
# 2 16.3651 74.0122 0.2509 0.0000 0.0000 0.0000
# 3 7.2309 0.2509 70.9437 0.0000 0.0000 0.0000
# 4 0.0000 0.0000 0.0000 12.9681 0.0000 0.0000
# 5 0.0000 0.0000 0.0000 0.0000 17.7114 0.0000
# 6 0.0000 0.0000 0.0000 0.0000 0.0000 17.6931
#
#
#
# Elastic Compliance Matrix: (Units=1/GPa)
#
#
# Indices 1 2 3 4 5 6 
#
# 1 0.032212 -0.007112 -0.003258 0.000000 0.000000 0.000000
# 2 -0.007112 0.015081 0.000672 0.000000 0.000000 0.000000
# 3 -0.003258 0.000672 0.014425 0.000000 0.000000 0.000000
# 4 0.000000 0.000000 0.000000 0.077112 0.000000 0.000000
# 5 0.000000 0.000000 0.000000 0.000000 0.056461 0.000000
# 6 0.000000 0.000000 0.000000 0.000000 0.000000 0.056519
#
#
# Mechanical properties :
#
#
# Convention : Reuss Voigt Hill
#
# Bulk Modulus (GPa) = 23.62782 25.33755 24.48269
# Shear Modulus (GPa) = 17.52446 20.10767 18.81607
#
# Velocity S-wave (km/s) = 3.00852 3.22264 3.11742
# Velocity P-wave (km/s) = 4.92664 5.18977 5.05991
#
# Compressibility (1/GPa) = 0.04232298
#
# Stress axis : x y z
#
# Youngs Moduli (GPa) = 31.04397 66.30657 69.32223
#
# Poissons Ratio (x) = 0.47154 0.22586
# Poissons Ratio (y) = 0.22077 -0.04655
# Poissons Ratio (z) = 0.10114 -0.04453
#
# Static dielectric constant tensor:
#      x y z
#    x 1.771190 0.000000 0.000000 
#    y 0.000000 1.796170 0.000000 
#    z 0.000000 0.000000 1.708770 
# 
# From -- ./inp_files/21649.got.cif
#   From: 2010.05.17/outbox.cif.g08.bks.cpg/sg24_11_cif.got.tgz:21649.got - 2010.06.04 00:33:39.
