data_PCOD9332756
_publ_section_title
;
Structure prediction by ZEFSAII (Michael W. Deem and Ramdas Pophale) SiO2 
 PCOD9332756
Probable space group: I 21 21 21
;
_chemical_formula_sum "Si O2"
_cell_formula_units_Z 64
_cell_length_a 8.816709
_cell_length_b 17.089008
_cell_length_c 21.364110
_cell_angle_alpha 90.000000
_cell_angle_beta 90.000000
_cell_angle_gamma 90.000000
_cell_volume 3218.905044
_symmetry_space_group_name_H-M "I 21 21 21"
_symmetry_group_IT_number 24
_symmetry_cell_setting 'orthorhombic'
loop_
_space_group_symop_operation_xyz
x,y,z
-x,1/2-y,z
x,-y,1/2-z
1/2-x,y,-z
1/2+x,1/2+y,1/2+z
1/2-x,-y,1/2+z
1/2+x,1/2-y,-z
-x,1/2+y,1/2-z
loop_
_atom_site_type_symbol
_atom_site_label
_atom_site_fract_x
_atom_site_fract_y
_atom_site_fract_z
Si Si1 0.910375 0.937742 0.200818
Si Si2 0.443662 0.556984 0.439071
Si Si3 0.183014 0.658092 0.388137
Si Si4 0.028705 0.965083 0.417543
Si Si5 0.830134 0.213262 0.248716
Si Si6 0.141865 0.800155 0.550604
Si Si7 0.840389 0.499744 0.644510
Si Si8 0.252621 0.885719 0.756191
O O1 0.943427 0.980129 0.134558
O O2 0.825953 0.854048 0.198544
O O3 0.071369 0.913030 0.234000
O O4 0.840762 0.000000 0.250000
O O5 0.280494 0.592588 0.424866
O O6 0.480138 0.530532 0.509569
O O7 0.553685 0.629472 0.418104
O O8 0.498246 0.495108 0.389089
O O9 0.013615 0.625166 0.398716
O O10 0.206365 0.666745 0.314754
O O11 0.248723 0.739334 0.414650
O O12 0.203618 0.986573 0.404999
O O13 0.734336 0.292730 0.252128
O O14 0.000000 0.250000 0.244100
O O15 0.250000 0.837831 0.500000
O O16 0.000000 0.750000 0.523601
O O17 0.813223 0.567088 0.697069
O O18 0.820764 0.419589 0.681610
#
# Coordination Sequence:
#
# PCOD9332756 Si02
#       8
#     8   8   8   8   8   8   8   8
#     4  10  16  33  53  82 109 133 184 240 270 312
#     4  11  23  33  48  77 112 151 176 215 271 329
#     4  11  21  34  50  74 112 144 180 220 263 329
#     4  11  19  34  56  74 105 144 183 227 264 319
#     4  10  19  31  56  87 107 140 183 230 289 313
#     4  10  20  32  43  65 104 143 183 212 250 314
#     4  10  18  34  55  78 110 142 188 224 267 322
#     4   9  17  32  55  79 108 142 178 234 272 316
#
# _framework density 19.882536999999999
#
# number of rings (size 3 to 8) (size 9 to 14) (size 15 to 20)
#    0.000    1.750    3.750    4.500    0.000    1.500 
#    0.000    2.500    0.000    0.000    0.000   17.500 
#    0.000    0.000    0.000    0.000    0.000    0.000 
#
# Total GULP energy -178223.674170 kJ/mol
# GULP energy per Si atom -5569.489818 kJ/mol
# Density = 1.983728 g / cm^3
# Si number density = 19.882537 Si / 1000 Ang^3
#
#
#
# Elastic Constant Matrix: (Units=GPa)
#
#
# Indices 1 2 3 4 5 6 
#
# 1 16.8739 4.6658 19.4869 0.0000 0.0000 0.0000
# 2 4.6658 88.3025 46.2513 0.0000 0.0000 0.0000
# 3 19.4869 46.2513 84.6407 0.0000 0.0000 0.0000
# 4 0.0000 0.0000 0.0000 30.3609 0.0000 0.0000
# 5 0.0000 0.0000 0.0000 0.0000 21.4265 0.0000
# 6 0.0000 0.0000 0.0000 0.0000 0.0000 18.7339
#
#
#
# Elastic Compliance Matrix: (Units=1/GPa)
#
#
# Indices 1 2 3 4 5 6 
#
# 1 0.084606 0.008031 -0.023867 0.000000 0.000000 0.000000
# 2 0.008031 0.016628 -0.010935 0.000000 0.000000 0.000000
# 3 -0.023867 -0.010935 0.023285 0.000000 0.000000 0.000000
# 4 0.000000 0.000000 0.000000 0.032937 0.000000 0.000000
# 5 0.000000 0.000000 0.000000 0.000000 0.046671 0.000000
# 6 0.000000 0.000000 0.000000 0.000000 0.000000 0.053379
#
#
# Mechanical properties :
#
#
# Convention : Reuss Voigt Hill
#
# Bulk Modulus (GPa) = 14.08932 36.73610 25.41271
# Shear Modulus (GPa) = 14.93838 22.06513 18.50175
#
# Velocity S-wave (km/s) = 2.74402 3.33494 3.05381
# Velocity P-wave (km/s) = 4.14019 5.77458 5.02429
#
# Compressibility (1/GPa) = 0.07097572
#
# Stress axis : x y z
#
# Youngs Moduli (GPa) = 11.81950 60.13937 42.94597
#
# Poissons Ratio (x) = -0.48297 1.02500
# Poissons Ratio (y) = -0.09492 0.46962
# Poissons Ratio (z) = 0.28210 0.65764
#
# Static dielectric constant tensor:
#      x y z
#    x 1.815430 0.000000 0.000000 
#    y 0.000000 1.792910 0.000000 
#    z 0.000000 0.000000 1.764170 
# 
# From -- ./inp_files/32953.got.cif
#   From: 2010.05.17/outbox.cif.g08.bks.cpg/sg24_17_cif.got.tgz:32953.got - 2010.06.04 00:33:39.
