data_PCOD9332411
_publ_section_title
;
Structure prediction by ZEFSAII (Michael W. Deem and Ramdas Pophale) SiO2 
 PCOD9332411
Probable space group: I 2 2 2
;
_chemical_formula_sum "Si O2"
_cell_formula_units_Z 48
_cell_length_a 13.689843
_cell_length_b 16.862159
_cell_length_c 9.293396
_cell_angle_alpha 90.000000
_cell_angle_beta 90.000000
_cell_angle_gamma 90.000000
_cell_volume 2145.290408
_symmetry_space_group_name_H-M "I 2 2 2"
_symmetry_group_IT_number 23
_symmetry_cell_setting 'orthorhombic'
loop_
_space_group_symop_operation_xyz
x,y,z
-x,-y,z
x,-y,-z
-x,y,-z
1/2+x,1/2+y,1/2+z
1/2-x,1/2-y,1/2+z
1/2+x,1/2-y,1/2-z
1/2-x,1/2+y,1/2-z
loop_
_atom_site_type_symbol
_atom_site_label
_atom_site_fract_x
_atom_site_fract_y
_atom_site_fract_z
Si Si1 0.627045 0.672537 0.293522
Si Si2 0.458828 0.746489 0.160106
Si Si3 0.760436 0.087296 0.970712
Si Si4 0.737761 0.077089 0.413949
Si Si5 0.255671 0.177315 0.313670
Si Si6 0.424574 0.073072 0.822876
O O1 0.513699 0.687057 0.269202
O O2 0.670242 0.649716 0.448168
O O3 0.675892 0.609591 0.186298
O O4 0.670938 0.757887 0.252511
O O5 0.345627 0.723693 0.164765
O O6 0.471958 0.839904 0.194420
O O7 0.500000 0.732254 0.000000
O O8 0.653050 0.085260 0.045832
O O9 0.753485 0.108646 0.804471
O O10 0.801573 0.000000 0.000000
O O11 0.712160 0.142579 0.533630
O O12 0.644799 0.058807 0.314511
O O13 0.769652 0.000000 0.500000
O O14 0.500000 0.000000 0.838382
#
# Coordination Sequence:
#
# PCOD9332411 Si02
#       6
#     8   8   8   8   8   8
#     4  11  24  44  70 104 140 194 238 298 363 434
#     4  12  25  44  76 109 139 189 256 296 360 445
#     4  11  25  46  71 102 144 192 230 300 373 426
#     4  11  24  47  68 101 147 190 233 297 375 426
#     4  12  23  47  73 102 149 188 242 302 359 440
#     4  11  27  45  70 111 146 184 237 299 374 445
#
# _framework density 22.374593000000001
#
# number of rings (size 3 to 8) (size 9 to 14) (size 15 to 20)
#    0.000    0.667    5.000    4.000    7.000    1.000 
#    0.000    5.833    0.000    0.000    0.000    0.000 
#    0.000    0.000    0.000    0.000    0.000    0.000 
#
# Total GULP energy -134330.845313 kJ/mol
# GULP energy per Si atom -5597.118555 kJ/mol
# Density = 2.232367 g / cm^3
# Si number density = 22.374593 Si / 1000 Ang^3
#
#
#
# Elastic Constant Matrix: (Units=GPa)
#
#
# Indices 1 2 3 4 5 6 
#
# 1 73.5520 26.5511 17.2617 0.0000 0.0000 0.0000
# 2 26.5511 91.1604 12.9945 0.0000 0.0000 0.0000
# 3 17.2617 12.9945 89.2278 0.0000 0.0000 0.0000
# 4 0.0000 0.0000 0.0000 44.3697 0.0000 0.0000
# 5 0.0000 0.0000 0.0000 0.0000 34.0559 0.0000
# 6 0.0000 0.0000 0.0000 0.0000 0.0000 32.8258
#
#
#
# Elastic Compliance Matrix: (Units=1/GPa)
#
#
# Indices 1 2 3 4 5 6 
#
# 1 0.015689 -0.004225 -0.002420 0.000000 0.000000 0.000000
# 2 -0.004225 0.012340 -0.000980 0.000000 0.000000 0.000000
# 3 -0.002420 -0.000980 0.011818 0.000000 0.000000 0.000000
# 4 0.000000 0.000000 0.000000 0.022538 0.000000 0.000000
# 5 0.000000 0.000000 0.000000 0.000000 0.029363 0.000000
# 6 0.000000 0.000000 0.000000 0.000000 0.000000 0.030464
#
#
# Mechanical properties :
#
#
# Convention : Reuss Voigt Hill
#
# Bulk Modulus (GPa) = 40.65337 40.83944 40.74641
# Shear Modulus (GPa) = 34.32661 35.39247 34.85954
#
# Velocity S-wave (km/s) = 3.92111 3.98152 3.95143
# Velocity P-wave (km/s) = 6.22166 6.27924 6.25051
#
# Compressibility (1/GPa) = 0.02459820
#
# Stress axis : x y z
#
# Youngs Moduli (GPa) = 63.74008 81.03884 84.61600
#
# Poissons Ratio (x) = 0.34235 0.20476
# Poissons Ratio (y) = 0.26927 0.08291
# Poissons Ratio (z) = 0.15424 0.07940
#
# Static dielectric constant tensor:
#      x y z
#    x 1.820360 0.000000 0.000000 
#    y 0.000000 1.834020 0.000000 
#    z 0.000000 0.000000 1.832450 
# 
# From -- ./inp_files/9929.got.cif
#   From: 2010.05.17/outbox.cif.g08.bks.cpg/sg23_5_cif.got.tgz:9929.got - 2010.06.04 12:02:01.
