data_PCOD9332678
_publ_section_title
;
Structure prediction by ZEFSAII (Michael W. Deem and Ramdas Pophale) SiO2 
 PCOD9332678
Probable space group: I 21 21 21
;
_chemical_formula_sum "Si O2"
_cell_formula_units_Z 56
_cell_length_a 13.237720
_cell_length_b 19.772078
_cell_length_c 8.275247
_cell_angle_alpha 90.000000
_cell_angle_beta 90.000000
_cell_angle_gamma 90.000000
_cell_volume 2165.940247
_symmetry_space_group_name_H-M "I 21 21 21"
_symmetry_group_IT_number 24
_symmetry_cell_setting 'orthorhombic'
loop_
_space_group_symop_operation_xyz
x,y,z
-x,1/2-y,z
x,-y,1/2-z
1/2-x,y,-z
1/2+x,1/2+y,1/2+z
1/2-x,-y,1/2+z
1/2+x,1/2-y,-z
-x,1/2+y,1/2-z
loop_
_atom_site_type_symbol
_atom_site_label
_atom_site_fract_x
_atom_site_fract_y
_atom_site_fract_z
Si Si1 0.019183 0.432213 0.985888
Si Si2 0.619858 0.726361 0.233972
Si Si3 0.939119 0.405750 0.334996
Si Si4 0.346501 0.452642 0.592718
Si Si5 0.369029 0.066922 0.311073
Si Si6 0.620860 0.256821 0.613602
Si Si7 0.892611 0.212199 0.057119
O O1 0.949357 0.434046 0.150935
O O2 0.098853 0.492013 0.982007
O O3 0.080774 0.362901 0.002567
O O4 0.958320 0.435094 0.821375
O O5 0.500000 0.750000 0.241238
O O6 0.650209 0.647500 0.209409
O O7 0.656567 0.749528 0.407991
O O8 0.657962 0.757545 0.066808
O O9 0.060158 0.401740 0.373916
O O10 0.893921 0.440541 0.497921
O O11 0.877090 0.336074 0.333248
O O12 0.322487 0.500000 0.750000
O O13 0.250000 0.424948 0.500000
O O14 0.305946 0.000000 0.250000
O O15 0.500000 0.250000 0.593262
O O16 0.657142 0.215365 0.767676
O O17 0.000000 0.250000 0.082210
#
# Coordination Sequence:
#
# PCOD9332678 Si02
#       7
#     8   8   8   8   8   8   8
#     4  11  19  31  43  60  75 108 142 183 228 263
#     4   9  16  25  36  60  76 100 128 162 201 262
#     4  10  19  30  43  58  75 106 136 182 229 266
#     4  10  23  35  44  57  81 111 162 199 224 244
#     4  11  19  26  42  56  80 106 134 172 215 253
#     4   9  15  25  41  58  82  94 119 168 231 263
#     4  10  15  26  44  57  82  97 124 177 223 266
#
# _framework density 25.854821999999999
#
# number of rings (size 3 to 8) (size 9 to 14) (size 15 to 20)
#    0.000    2.000    7.143    0.000    2.000    0.000 
#    0.000    0.000    0.000    0.000    0.000    0.000 
#    0.000    0.000    0.000    0.000    0.000    0.000 
#
# Total GULP energy -156017.544083 kJ/mol
# GULP energy per Si atom -5572.055146 kJ/mol
# Density = 2.579598 g / cm^3
# Si number density = 25.854822 Si / 1000 Ang^3
#
#
#
# Elastic Constant Matrix: (Units=GPa)
#
#
# Indices 1 2 3 4 5 6 
#
# 1 77.4001 5.5635 22.9745 0.0000 0.0000 0.0000
# 2 5.5635 118.1566 34.5595 0.0000 0.0000 0.0000
# 3 22.9745 34.5595 213.1770 0.0001 0.0001 0.0000
# 4 0.0000 0.0000 0.0001 33.0824 0.0000 0.0000
# 5 0.0000 0.0000 0.0001 0.0000 34.5738 0.0000
# 6 0.0000 0.0000 0.0000 0.0000 0.0000 -42.8009
#
#
#
# Elastic Compliance Matrix: (Units=1/GPa)
#
#
# Indices 1 2 3 4 5 6 
#
# 1 0.013352 -0.000218 -0.001404 0.000000 0.000000 0.000000
# 2 -0.000218 0.008888 -0.001417 0.000000 0.000000 0.000000
# 3 -0.001404 -0.001417 0.005072 0.000000 0.000000 0.000000
# 4 0.000000 0.000000 0.000000 0.030228 0.000000 0.000000
# 5 0.000000 0.000000 0.000000 0.000000 0.028924 0.000000
# 6 0.000000 0.000000 0.000000 0.000000 0.000000 -0.023364
#
#
# Mechanical properties :
#
#
# Convention : Reuss Voigt Hill
#
# Bulk Modulus (GPa) = 47.09427 59.43652 53.26540
# Shear Modulus (GPa) = 65.56868 28.01349 46.79108
#
# Velocity S-wave (km/s) = 5.04137 3.29521 4.25875
# Velocity P-wave (km/s) = 7.22091 6.12506 6.69545
#
# Compressibility (1/GPa) = 0.02123400
#
# Stress axis : x y z
#
# Youngs Moduli (GPa) = 74.89403 112.50882 197.16106
#
# Poissons Ratio (x) = 0.02454 0.27674
# Poissons Ratio (y) = 0.01634 0.27946
# Poissons Ratio (z) = 0.10512 0.15947
#
# Static dielectric constant tensor:
#      x y z
#    x 2.234280 0.000000 0.000000 
#    y 0.000000 1.995770 0.000000 
#    z 0.000000 0.000000 2.037510 
# 
# From -- ./inp_files/15448.got.cif
#   From: 2010.05.17/outbox.cif.g08.bks.cpg/sg24_8_cif.got.tgz:15448.got - 2010.06.04 00:33:39.
