data_PCOD9332220
_publ_section_title
;
Structure prediction by ZEFSAII (Michael W. Deem and Ramdas Pophale) SiO2 
 PCOD9332220
Probable space group: I 2 2 2
;
_chemical_formula_sum "Si O2"
_cell_formula_units_Z 50
_cell_length_a 24.664918
_cell_length_b 15.172490
_cell_length_c 5.334443
_cell_angle_alpha 90.000000
_cell_angle_beta 90.000000
_cell_angle_gamma 90.000000
_cell_volume 1996.299118
_symmetry_space_group_name_H-M "I 2 2 2"
_symmetry_group_IT_number 23
_symmetry_cell_setting 'orthorhombic'
loop_
_space_group_symop_operation_xyz
x,y,z
-x,-y,z
x,-y,-z
-x,y,-z
1/2+x,1/2+y,1/2+z
1/2-x,1/2-y,1/2+z
1/2+x,1/2-y,1/2-z
1/2-x,1/2+y,1/2-z
loop_
_atom_site_type_symbol
_atom_site_label
_atom_site_fract_x
_atom_site_fract_y
_atom_site_fract_z
Si Si1 0.626313 0.898783 0.529581
Si Si2 0.500000 0.500000 0.000000
Si Si3 0.757937 0.382188 0.717567
Si Si4 0.943356 0.839324 0.802917
Si Si5 0.647917 0.454593 0.745981
Si Si6 0.178483 0.276172 0.624584
Si Si7 0.921554 0.746335 0.316683
O O1 0.687534 0.902738 0.636264
O O2 0.636037 0.828216 0.304553
O O3 0.581896 0.851489 0.707799
O O4 0.609836 0.000000 0.500000
O O5 0.470029 0.569796 0.808138
O O6 0.712231 0.455332 0.736516
O O7 0.781473 0.357356 0.448895
O O8 0.722857 0.296877 0.801151
O O9 0.878606 0.859492 0.780207
O O10 0.949501 0.768569 0.580522
O O11 0.947346 0.807776 0.093862
O O12 0.625700 0.500000 0.500000
O O13 0.630282 0.500000 0.000000
O O14 0.143528 0.242224 0.380129
#
# Coordination Sequence:
#
# PCOD9332220 Si02
#       7
#     8   2   8   8   8   8   8
#     4  11  24  41  66 104 145 196 267 317 362 423
#     4  12  32  54  84 122 154 174 240 314 364 490
#     4  11  23  34  60  89 141 193 256 303 367 412
#     4  12  26  49  74 106 141 190 232 295 384 455
#     4  12  26  40  61  91 136 187 242 294 359 426
#     4  11  22  39  62  94 135 201 250 314 361 428
#     4  11  24  46  72  98 143 194 243 293 377 448
#
# _framework density 25.046347999999998
#
# number of rings (size 3 to 8) (size 9 to 14) (size 15 to 20)
#    0.000    0.640    5.600    1.440    6.720    3.200 
#    0.000    0.000    0.000    0.000    0.000    3.360 
#    0.000    0.000    0.000    0.000    0.000    0.000 
#
# Total GULP energy -139241.816950 kJ/mol
# GULP energy per Si atom -5569.672678 kJ/mol
# Density = 2.498934 g / cm^3
# Si number density = 25.046348 Si / 1000 Ang^3
#
#
#
# Elastic Constant Matrix: (Units=GPa)
#
#
# Indices 1 2 3 4 5 6 
#
# 1 26.7122 5.9670 -5.2173 0.0000 0.0000 0.0000
# 2 5.9670 137.4293 61.6494 0.0000 0.0000 0.0000
# 3 -5.2173 61.6494 149.0865 0.0000 0.0000 0.0000
# 4 0.0000 0.0000 0.0000 36.4942 0.0000 0.0000
# 5 0.0000 0.0000 0.0000 0.0000 36.9664 0.0000
# 6 0.0000 0.0000 0.0000 0.0000 0.0000 41.0776
#
#
#
# Elastic Compliance Matrix: (Units=1/GPa)
#
#
# Indices 1 2 3 4 5 6 
#
# 1 0.038551 -0.002798 0.002506 0.000000 0.000000 0.000000
# 2 -0.002798 0.009137 -0.003876 0.000000 0.000000 0.000000
# 3 0.002506 -0.003876 0.008398 0.000000 0.000000 0.000000
# 4 0.000000 0.000000 0.000000 0.027402 0.000000 0.000000
# 5 0.000000 0.000000 0.000000 0.000000 0.027052 0.000000
# 6 0.000000 0.000000 0.000000 0.000000 0.000000 0.024344
#
#
# Mechanical properties :
#
#
# Convention : Reuss Voigt Hill
#
# Bulk Modulus (GPa) = 20.94269 48.66957 34.80613
# Shear Modulus (GPa) = 31.41982 39.62957 35.52470
#
# Velocity S-wave (km/s) = 3.54569 3.98207 3.77020
# Velocity P-wave (km/s) = 5.01421 6.37310 5.73405
#
# Compressibility (1/GPa) = 0.04774937
#
# Stress axis : x y z
#
# Youngs Moduli (GPa) = 25.93993 109.44837 119.07551
#
# Poissons Ratio (x) = 0.30624 -0.29842
# Poissons Ratio (y) = 0.07258 0.46155
# Poissons Ratio (z) = -0.06501 0.42423
#
# Static dielectric constant tensor:
#      x y z
#    x 2.040300 0.000000 0.000000 
#    y 0.000000 2.152550 0.000000 
#    z 0.000000 0.000000 2.121710 
# 
# From -- ./inp_files/4943.got.cif
#   From: 2010.05.17/outbox.cif.g08.bks.cpg/sg23_3_cif.got.tgz:4943.got - 2010.06.04 12:02:01.
