data_PCOD9332843
_publ_section_title
;
Structure prediction by ZEFSAII (Michael W. Deem and Ramdas Pophale) SiO2 
 PCOD9332843
Probable space group: I 21 21 21
;
_chemical_formula_sum "Si O2"
_cell_formula_units_Z 40
_cell_length_a 7.660412
_cell_length_b 20.171809
_cell_length_c 11.227237
_cell_angle_alpha 90.000000
_cell_angle_beta 90.000000
_cell_angle_gamma 90.000000
_cell_volume 1734.881699
_symmetry_space_group_name_H-M "I 21 21 21"
_symmetry_group_IT_number 24
_symmetry_cell_setting 'orthorhombic'
loop_
_space_group_symop_operation_xyz
x,y,z
-x,1/2-y,z
x,-y,1/2-z
1/2-x,y,-z
1/2+x,1/2+y,1/2+z
1/2-x,-y,1/2+z
1/2+x,1/2-y,-z
-x,1/2+y,1/2-z
loop_
_atom_site_type_symbol
_atom_site_label
_atom_site_fract_x
_atom_site_fract_y
_atom_site_fract_z
Si Si1 0.178767 0.292610 0.866895
Si Si2 0.074320 0.558344 0.674838
Si Si3 0.916188 0.457640 0.069017
Si Si4 0.300376 0.910684 0.799384
Si Si5 0.706564 0.735045 0.130296
O O1 0.150425 0.368766 0.832014
O O2 0.282557 0.264030 0.753362
O O3 0.000000 0.250000 0.873875
O O4 0.250000 0.288959 0.000000
O O5 0.166097 0.500000 0.750000
O O6 0.052832 0.537366 0.537017
O O7 0.887272 0.568962 0.742110
O O8 0.934172 0.413089 0.186965
O O9 0.864359 0.530692 0.114706
O O10 0.750000 0.427136 0.000000
O O11 0.266954 0.841399 0.862857
O O12 0.500000 0.750000 0.138811
O O13 0.750000 0.762850 0.000000
#
# Coordination Sequence:
#
# PCOD9332843 Si02
#       5
#     8   8   8   8   8
#     4  11  26  45  72 100 140 188 229 285 348 417
#     4  11  20  37  65  92 132 172 226 275 348 398
#     4   9  17  28  57  97 117 158 217 283 319 379
#     4  10  17  32  58  94 128 158 216 281 335 382
#     4  11  24  41  64  94 135 180 221 279 344 409
#
# _framework density 23.056327
#
# number of rings (size 3 to 8) (size 9 to 14) (size 15 to 20)
#    0.000    1.600    8.000    0.600    2.800    0.800 
#    0.000    1.000    4.400    0.000    0.000    0.000 
#    0.000    0.000    0.000    0.000    0.000    0.000 
#
# Total GULP energy -111543.962147 kJ/mol
# GULP energy per Si atom -5577.198107 kJ/mol
# Density = 2.300385 g / cm^3
# Si number density = 23.056327 Si / 1000 Ang^3
#
#
#
# Elastic Constant Matrix: (Units=GPa)
#
#
# Indices 1 2 3 4 5 6 
#
# 1 49.9522 30.3637 25.9223 0.0000 0.0000 0.0000
# 2 30.3637 126.3454 73.0588 0.0000 0.0000 0.0000
# 3 25.9223 73.0588 183.7062 0.0000 0.0000 0.0000
# 4 0.0000 0.0000 0.0000 56.1836 0.0000 0.0000
# 5 0.0000 0.0000 0.0000 0.0000 24.8609 0.0000
# 6 0.0000 0.0000 0.0000 0.0000 0.0000 6.3900
#
#
#
# Elastic Compliance Matrix: (Units=1/GPa)
#
#
# Indices 1 2 3 4 5 6 
#
# 1 0.023719 -0.004889 -0.001403 0.000000 0.000000 0.000000
# 2 -0.004889 0.011286 -0.003799 0.000000 0.000000 0.000000
# 3 -0.001403 -0.003799 0.007152 0.000000 0.000000 0.000000
# 4 0.000000 0.000000 0.000000 0.017799 0.000000 0.000000
# 5 0.000000 0.000000 0.000000 0.000000 0.040224 0.000000
# 6 0.000000 0.000000 0.000000 0.000000 0.000000 0.156493
#
#
# Mechanical properties :
#
#
# Convention : Reuss Voigt Hill
#
# Bulk Modulus (GPa) = 45.50285 68.74371 57.12328
# Shear Modulus (GPa) = 17.59452 32.86418 25.22935
#
# Velocity S-wave (km/s) = 2.76544 3.77952 3.31153
# Velocity P-wave (km/s) = 5.47497 6.99476 6.28100
#
# Compressibility (1/GPa) = 0.02197665
#
# Stress axis : x y z
#
# Youngs Moduli (GPa) = 42.16054 88.60284 139.81991
#
# Poissons Ratio (x) = 0.43320 0.19610
# Poissons Ratio (y) = 0.20613 0.53112
# Poissons Ratio (z) = 0.05913 0.33657
#
# Static dielectric constant tensor:
#      x y z
#    x 1.910360 0.000000 0.000000 
#    y 0.000000 1.857710 0.000000 
#    z 0.000000 0.000000 1.919920 
# 
# From -- ./inp_files/18422.got.cif
#   From: 2010.05.17/outbox.cif.g08.bks.cpg/sg24_10_cif.got.tgz:18422.got - 2010.06.04 00:33:39.
