data_PCOD9332100
_publ_section_title
;
Structure prediction by ZEFSAII (Michael W. Deem and Ramdas Pophale) SiO2 
 PCOD9332100
Probable space group: I 2 2 2
;
_chemical_formula_sum "Si O2"
_cell_formula_units_Z 40
_cell_length_a 10.349143
_cell_length_b 13.585361
_cell_length_c 12.770713
_cell_angle_alpha 90.000000
_cell_angle_beta 90.000000
_cell_angle_gamma 90.000000
_cell_volume 1795.521940
_symmetry_space_group_name_H-M "I 2 2 2"
_symmetry_group_IT_number 23
_symmetry_cell_setting 'orthorhombic'
loop_
_space_group_symop_operation_xyz
x,y,z
-x,-y,z
x,-y,-z
-x,y,-z
1/2+x,1/2+y,1/2+z
1/2-x,1/2-y,1/2+z
1/2+x,1/2-y,1/2-z
1/2-x,1/2+y,1/2-z
loop_
_atom_site_type_symbol
_atom_site_label
_atom_site_fract_x
_atom_site_fract_y
_atom_site_fract_z
Si Si1 0.891525 0.122394 0.700826
Si Si2 0.818945 0.905587 0.682756
Si Si3 0.969959 0.610289 0.122498
Si Si4 0.142989 0.099806 0.048754
Si Si5 0.686230 0.272773 0.627841
O O1 0.875551 0.107993 0.826996
O O2 0.809076 0.213259 0.664914
O O3 0.036647 0.131284 0.656251
O O4 0.828266 0.021350 0.659682
O O5 0.681676 0.870436 0.639682
O O6 0.818658 0.872567 0.804491
O O7 0.000000 0.500000 0.168341
O O8 0.063860 0.701142 0.154720
O O9 0.000000 0.603460 0.000000
O O10 0.201984 0.194984 0.992248
O O11 0.000000 0.102103 0.000000
O O12 0.203761 0.000000 0.000000
#
# Coordination Sequence:
#
# PCOD9332100 Si02
#       5
#     8   8   8   8   8
#     4  11  23  42  70 105 139 188 236 303 354 421
#     4  11  22  43  68 100 142 176 241 291 350 421
#     4  11  25  45  69  98 140 191 235 287 355 438
#     4  11  20  41  68 105 138 183 244 294 356 430
#     4  12  23  39  72 105 137 192 231 299 359 423
#
# _framework density 22.277646000000001
#
# number of rings (size 3 to 8) (size 9 to 14) (size 15 to 20)
#    0.000    0.800    6.000    3.000    2.800    0.000 
#    0.000    1.000    4.400    0.000    0.000    1.400 
#    0.000    0.000    0.000    0.000    0.000    0.000 
#
# Total GULP energy -111538.292983 kJ/mol
# GULP energy per Si atom -5576.914649 kJ/mol
# Density = 2.222694 g / cm^3
# Si number density = 22.277646 Si / 1000 Ang^3
#
#
#
# Elastic Constant Matrix: (Units=GPa)
#
#
# Indices 1 2 3 4 5 6 
#
# 1 128.5523 26.6229 36.4423 0.0000 0.0000 0.0000
# 2 26.6229 99.7337 15.7134 0.0000 0.0000 0.0000
# 3 36.4423 15.7134 45.9232 0.0000 0.0000 0.0000
# 4 0.0000 0.0000 0.0000 28.7989 0.0000 0.0000
# 5 0.0000 0.0000 0.0000 0.0000 27.0890 0.0000
# 6 0.0000 0.0000 0.0000 0.0000 0.0000 20.3746
#
#
#
# Elastic Compliance Matrix: (Units=1/GPa)
#
#
# Indices 1 2 3 4 5 6 
#
# 1 0.010255 -0.001538 -0.007612 0.000000 0.000000 0.000000
# 2 -0.001538 0.010829 -0.002485 0.000000 0.000000 0.000000
# 3 -0.007612 -0.002485 0.028666 0.000000 0.000000 0.000000
# 4 0.000000 0.000000 0.000000 0.034724 0.000000 0.000000
# 5 0.000000 0.000000 0.000000 0.000000 0.036915 0.000000
# 6 0.000000 0.000000 0.000000 0.000000 0.000000 0.049081
#
#
# Mechanical properties :
#
#
# Convention : Reuss Voigt Hill
#
# Bulk Modulus (GPa) = 37.76312 47.97402 42.86857
# Shear Modulus (GPa) = 24.68334 28.28120 26.48227
#
# Velocity S-wave (km/s) = 3.33225 3.56685 3.45155
# Velocity P-wave (km/s) = 5.63854 6.20843 5.93034
#
# Compressibility (1/GPa) = 0.02648086
#
# Stress axis : x y z
#
# Youngs Moduli (GPa) = 97.51049 92.34651 34.88464
#
# Poissons Ratio (x) = 0.14206 0.26553
# Poissons Ratio (y) = 0.15000 0.08667
# Poissons Ratio (z) = 0.74222 0.22944
#
# Static dielectric constant tensor:
#      x y z
#    x 1.862750 0.000000 0.000000 
#    y 0.000000 1.923960 0.000000 
#    z 0.000000 0.000000 1.832970 
# 
# From -- ./inp_files/19781.got.cif
#   From: 2010.05.17/outbox.cif.g08.bks.cpg/sg23_10_cif.got.tgz:19781.got - 2010.06.04 12:02:01.
