data_PCOD9332790
_publ_section_title
;
Structure prediction by ZEFSAII (Michael W. Deem and Ramdas Pophale) SiO2 
 PCOD9332790
Probable space group: I 21 21 21
;
_chemical_formula_sum "Si O2"
_cell_formula_units_Z 64
_cell_length_a 11.265508
_cell_length_b 20.491395
_cell_length_c 13.938631
_cell_angle_alpha 90.000000
_cell_angle_beta 90.000000
_cell_angle_gamma 90.000000
_cell_volume 3217.676854
_symmetry_space_group_name_H-M "I 21 21 21"
_symmetry_group_IT_number 24
_symmetry_cell_setting 'orthorhombic'
loop_
_space_group_symop_operation_xyz
x,y,z
-x,1/2-y,z
x,-y,1/2-z
1/2-x,y,-z
1/2+x,1/2+y,1/2+z
1/2-x,-y,1/2+z
1/2+x,1/2-y,-z
-x,1/2+y,1/2-z
loop_
_atom_site_type_symbol
_atom_site_label
_atom_site_fract_x
_atom_site_fract_y
_atom_site_fract_z
Si Si1 0.149711 0.594257 0.431788
Si Si2 0.176543 0.141229 0.194275
Si Si3 0.082845 0.812985 0.721279
Si Si4 0.935908 0.681300 0.494142
Si Si5 0.066044 0.580511 0.233975
Si Si6 0.454863 0.456685 0.540175
Si Si7 0.283596 0.994929 0.604101
Si Si8 0.957404 0.443438 0.672085
O O1 0.250000 0.622946 0.500000
O O2 0.159290 0.600676 0.316996
O O3 0.027026 0.625167 0.465077
O O4 0.129911 0.518844 0.453907
O O5 0.276506 0.183379 0.248489
O O6 0.217597 0.066818 0.173717
O O7 0.050060 0.124954 0.243288
O O8 0.159215 0.174922 0.090310
O O9 0.087635 0.825214 0.606620
O O10 0.029219 0.875291 0.774352
O O11 0.000000 0.750000 0.738110
O O12 0.000000 0.750000 0.481112
O O13 0.049902 0.500000 0.250000
O O14 0.095830 0.590712 0.122578
O O15 0.586911 0.473911 0.584964
O O16 0.471766 0.441853 0.428492
O O17 0.250000 0.967470 0.500000
O O18 0.178767 0.042772 0.637012
O O19 0.987936 0.500000 0.750000
#
# Coordination Sequence:
#
# PCOD9332790 Si02
#       8
#     8   8   8   8   8   8   8   8
#     4  10  20  34  54  81 114 143 184 241 299 366
#     4  11  18  32  57  81 116 153 193 248 305 364
#     4  11  23  34  49  80 122 160 193 241 310 368
#     4  10  21  36  54  77 110 156 196 236 299 374
#     4   9  17  32  56  85 114 145 187 249 308 361
#     4  10  19  34  53  86 117 147 192 250 300 356
#     4  10  17  27  53  86 115 146 188 255 307 350
#     4  11  21  31  54  84 118 157 199 247 306 361
#
# _framework density 19.890125999999999
#
# number of rings (size 3 to 8) (size 9 to 14) (size 15 to 20)
#    0.000    1.750    5.000    2.625    0.000    2.000 
#    0.000    5.625    0.000    3.000    0.000   13.125 
#    0.000    0.000    0.000    0.000    0.000    0.000 
#
# Total GULP energy -178145.529206 kJ/mol
# GULP energy per Si atom -5567.047788 kJ/mol
# Density = 1.984485 g / cm^3
# Si number density = 19.890126 Si / 1000 Ang^3
#
#
#
# Elastic Constant Matrix: (Units=GPa)
#
#
# Indices 1 2 3 4 5 6 
#
# 1 36.0131 12.8268 30.4916 0.0000 0.0000 0.0000
# 2 12.8268 57.0444 44.6282 -0.0001 0.0000 0.0000
# 3 30.4916 44.6282 135.4524 -0.0001 0.0000 0.0000
# 4 0.0000 -0.0001 -0.0001 22.7093 0.0000 0.0000
# 5 0.0000 0.0000 0.0000 0.0000 24.9082 0.0000
# 6 0.0000 0.0000 0.0000 0.0000 0.0000 17.7926
#
#
#
# Elastic Compliance Matrix: (Units=1/GPa)
#
#
# Indices 1 2 3 4 5 6 
#
# 1 0.034523 -0.002267 -0.007024 0.000000 0.000000 0.000000
# 2 -0.002267 0.023767 -0.007320 0.000000 0.000000 0.000000
# 3 -0.007024 -0.007320 0.011376 0.000000 0.000000 0.000000
# 4 0.000000 0.000000 0.000000 0.044035 0.000000 0.000000
# 5 0.000000 0.000000 0.000000 0.000000 0.040147 0.000000
# 6 0.000000 0.000000 0.000000 0.000000 0.000000 0.056203
#
#
# Mechanical properties :
#
#
# Convention : Reuss Voigt Hill
#
# Bulk Modulus (GPa) = 27.44112 44.93367 36.18739
# Shear Modulus (GPa) = 19.57549 22.45291 21.01420
#
# Velocity S-wave (km/s) = 3.14057 3.36348 3.25393
# Velocity P-wave (km/s) = 5.19396 6.14198 5.68776
#
# Compressibility (1/GPa) = 0.03644167
#
# Stress axis : x y z
#
# Youngs Moduli (GPa) = 28.96657 42.07530 87.90626
#
# Poissons Ratio (x) = 0.09539 0.61749
# Poissons Ratio (y) = 0.06567 0.64350
# Poissons Ratio (z) = 0.20347 0.30800
#
# Static dielectric constant tensor:
#      x y z
#    x 1.799280 0.000000 0.000000 
#    y 0.000000 1.642640 0.000000 
#    z 0.000000 0.000000 1.761590 
# 
# From -- ./inp_files/26035.got.cif
#   From: 2010.05.17/outbox.cif.g08.bks.cpg/sg24_14_cif.got.tgz:26035.got - 2010.06.04 00:33:39.
