data_PCOD9332291
_publ_section_title
;
Structure prediction by ZEFSAII (Michael W. Deem and Ramdas Pophale) SiO2 
 PCOD9332291
Probable space group: I 2 2 2
;
_chemical_formula_sum "Si O2"
_cell_formula_units_Z 38
_cell_length_a 8.284383
_cell_length_b 25.824412
_cell_length_c 8.638910
_cell_angle_alpha 90.000000
_cell_angle_beta 90.000000
_cell_angle_gamma 90.000000
_cell_volume 1848.202529
_symmetry_space_group_name_H-M "I 2 2 2"
_symmetry_group_IT_number 23
_symmetry_cell_setting 'orthorhombic'
loop_
_space_group_symop_operation_xyz
x,y,z
-x,-y,z
x,-y,-z
-x,y,-z
1/2+x,1/2+y,1/2+z
1/2-x,1/2-y,1/2+z
1/2+x,1/2-y,1/2-z
1/2-x,1/2+y,1/2-z
loop_
_atom_site_type_symbol
_atom_site_label
_atom_site_fract_x
_atom_site_fract_y
_atom_site_fract_z
Si Si1 0.324578 0.696119 0.934450
Si Si2 0.000000 0.643805 0.500000
Si Si3 0.746504 0.578529 0.976672
Si Si4 0.824233 0.795540 0.939568
Si Si5 0.000000 0.000000 0.500000
Si Si6 0.541228 0.943140 0.748643
O O1 0.295762 0.637936 0.994769
O O2 0.317980 0.698901 0.747276
O O3 0.500000 0.711719 0.000000
O O4 0.197449 0.735920 0.008228
O O5 0.165749 0.676819 0.484453
O O6 0.955648 0.604324 0.363862
O O7 0.608188 0.541665 0.909564
O O8 0.798876 0.555638 0.143571
O O9 0.897515 0.571703 0.866841
O O10 0.000000 0.814213 0.000000
O O11 0.500000 0.000000 0.812660
#
# Coordination Sequence:
#
# PCOD9332291 Si02
#       6
#     8   4   8   8   2   8
#     4  12  26  46  72 104 142 188 234 293 362 420
#     4  12  27  47  70 102 149 185 228 296 368 418
#     4  11  23  39  72 100 135 178 235 285 339 420
#     4  12  29  47  71 105 145 185 242 294 357 437
#     4  12  20  40  68 106 134 170 236 290 334 414
#     4  11  23  45  68 100 134 186 230 284 350 421
#
# _framework density 20.560517000000001
#
# number of rings (size 3 to 8) (size 9 to 14) (size 15 to 20)
#    0.000    0.421    6.316    2.211    8.842    0.000 
#    0.000    0.000    0.000    2.526    0.000    0.000 
#    0.000    0.000    0.000    0.000    0.000    0.000 
#
# Total GULP energy -106001.452093 kJ/mol
# GULP energy per Si atom -5579.023794 kJ/mol
# Density = 2.051372 g / cm^3
# Si number density = 20.560517 Si / 1000 Ang^3
#
#
#
# Elastic Constant Matrix: (Units=GPa)
#
#
# Indices 1 2 3 4 5 6 
#
# 1 104.2997 39.2828 7.9788 0.0001 -0.0002 -0.0001
# 2 39.2828 149.8876 25.7211 0.0001 -0.0002 0.0000
# 3 7.9788 25.7211 61.1974 0.0021 -0.0001 0.0001
# 4 0.0001 0.0001 0.0021 38.7900 0.0002 0.0002
# 5 -0.0002 -0.0002 -0.0001 0.0002 18.4300 0.0000
# 6 -0.0001 0.0000 0.0001 0.0002 0.0000 28.1046
#
#
#
# Elastic Compliance Matrix: (Units=1/GPa)
#
#
# Indices 1 2 3 4 5 6 
#
# 1 0.010641 -0.002749 -0.000232 0.000000 0.000000 0.000000
# 2 -0.002749 0.007900 -0.002962 0.000000 0.000000 0.000000
# 3 -0.000232 -0.002962 0.017616 -0.000001 0.000000 0.000000
# 4 0.000000 0.000000 -0.000001 0.025780 0.000000 0.000000
# 5 0.000000 0.000000 0.000000 0.000000 0.054259 0.000000
# 6 0.000000 0.000000 0.000000 0.000000 0.000000 0.035581
#
#
# Mechanical properties :
#
#
# Convention : Reuss Voigt Hill
#
# Bulk Modulus (GPa) = 41.20151 51.26115 46.23133
# Shear Modulus (GPa) = 29.11140 33.22505 31.16822
#
# Velocity S-wave (km/s) = 3.76691 4.02427 3.89771
# Velocity P-wave (km/s) = 6.24517 6.82488 6.54145
#
# Compressibility (1/GPa) = 0.02427095
#
# Stress axis : x y z
#
# Youngs Moduli (GPa) = 93.97743 126.57534 56.76731
#
# Poissons Ratio (x) = 0.34795 0.01317
# Poissons Ratio (y) = 0.25834 0.16815
# Poissons Ratio (z) = 0.02180 0.37493
#
# Static dielectric constant tensor:
#      x y z
#    x 1.700000 0.000000 0.000000 
#    y 0.000000 1.746960 0.000000 
#    z 0.000000 0.000000 1.782330 
# 
# From -- ./inp_files/6939.got.cif
#   From: 2010.05.17/outbox.cif.g08.bks.cpg/sg23_4_cif.got.tgz:6939.got - 2010.06.04 12:02:01.
