data_PCOD9332623
_publ_section_title
;
Structure prediction by ZEFSAII (Michael W. Deem and Ramdas Pophale) SiO2 
 PCOD9332623
Probable space group: I 2 2 2
;
_chemical_formula_sum "Si O2"
_cell_formula_units_Z 40
_cell_length_a 7.539392
_cell_length_b 13.991209
_cell_length_c 19.298245
_cell_angle_alpha 90.000000
_cell_angle_beta 90.000000
_cell_angle_gamma 90.000000
_cell_volume 2035.679411
_symmetry_space_group_name_H-M "I 2 2 2"
_symmetry_group_IT_number 23
_symmetry_cell_setting 'orthorhombic'
loop_
_space_group_symop_operation_xyz
x,y,z
-x,-y,z
x,-y,-z
-x,y,-z
1/2+x,1/2+y,1/2+z
1/2-x,1/2-y,1/2+z
1/2+x,1/2-y,1/2-z
1/2-x,1/2+y,1/2-z
loop_
_atom_site_type_symbol
_atom_site_label
_atom_site_fract_x
_atom_site_fract_y
_atom_site_fract_z
Si Si1 0.789778 0.300691 0.356517
Si Si2 0.714217 0.892591 0.286796
Si Si3 0.217203 0.388749 0.500000
Si Si4 0.285783 0.892590 0.286796
Si Si5 0.210221 0.699309 0.643483
O O1 0.719711 0.356221 0.288555
O O2 0.720019 0.337878 0.429663
O O3 0.763651 0.188695 0.341748
O O4 1.000000 0.319379 0.357374
O O5 0.500000 0.894209 0.284150
O O6 0.763651 0.811306 0.341748
O O7 0.775779 0.000000 0.301325
O O8 0.266433 0.500000 0.500000
O O9 0.279980 0.337878 0.429663
O O10 0.000000 0.384895 0.500000
O O11 0.219712 0.856221 0.211445
#
# Coordination Sequence:
#
# PCOD9332623 Si02
#       5
#     8   8   8   8   8
#     4   9  17  29  47  70  91 113 147 187 222 260
#     4   9  17  30  47  66  90 120 150 180 218 264
#     4   9  16  28  48  71  92 114 143 183 228 267
#     4   9  17  30  47  66  90 120 150 180 218 264
#     4   9  17  29  47  70  91 113 147 187 222 260
#
# _framework density 19.649457000000002
#
# number of rings (size 3 to 8) (size 9 to 14) (size 15 to 20)
#    0.000    3.000    0.000    1.200    0.000    5.600 
#    0.000    2.000    0.000   10.800    0.000    0.000 
#    0.000    0.000    0.000    0.000    0.000    0.000 
#
# Total GULP energy -111554.276830 kJ/mol
# GULP energy per Si atom -5577.713841 kJ/mol
# Density = 1.960473 g / cm^3
# Si number density = 19.649457 Si / 1000 Ang^3
#
#
#
# Elastic Constant Matrix: (Units=GPa)
#
#
# Indices 1 2 3 4 5 6 
#
# 1 44.5917 -13.8863 4.4474 0.0000 0.0000 0.0000
# 2 -13.8863 164.9724 110.8153 0.0000 0.0000 0.0000
# 3 4.4474 110.8153 168.3812 0.0000 0.0000 0.0000
# 4 0.0000 0.0000 0.0000 20.5024 0.0000 0.0000
# 5 0.0000 0.0000 0.0000 0.0000 -12.3300 0.0000
# 6 0.0000 0.0000 0.0000 0.0000 0.0000 21.9155
#
#
#
# Elastic Compliance Matrix: (Units=1/GPa)
#
#
# Indices 1 2 3 4 5 6 
#
# 1 0.024153 0.004412 -0.003542 0.000000 0.000000 0.000000
# 2 0.004412 0.011670 -0.007797 0.000000 0.000000 0.000000
# 3 -0.003542 -0.007797 0.011164 0.000000 0.000000 0.000000
# 4 0.000000 0.000000 0.000000 0.048775 0.000000 0.000000
# 5 0.000000 0.000000 0.000000 0.000000 -0.081103 0.000000
# 6 0.000000 0.000000 0.000000 0.000000 0.000000 0.045630
#
#
# Mechanical properties :
#
#
# Convention : Reuss Voigt Hill
#
# Bulk Modulus (GPa) = 30.18063 64.52200 47.35131
# Shear Modulus (GPa) = 58.69471 24.45552 41.57511
#
# Velocity S-wave (km/s) = 5.47136 3.53170 4.60482
# Velocity P-wave (km/s) = 7.43688 7.03835 7.24036
#
# Compressibility (1/GPa) = 0.03313384
#
# Stress axis : x y z
#
# Youngs Moduli (GPa) = 41.40293 85.68634 89.57446
#
# Poissons Ratio (x) = -0.37805 0.31723
# Poissons Ratio (y) = -0.18267 0.69842
# Poissons Ratio (z) = 0.14663 0.66811
#
# Static dielectric constant tensor:
#      x y z
#    x 1.761330 0.000000 0.000000 
#    y 0.000000 1.668050 0.000000 
#    z 0.000000 0.000000 1.675420 
# 
# From -- ./inp_files/9595.got.cif
#   From: 2010.05.17/outbox.cif.g08.bks.cpg/sg23_5_cif.got.tgz:9595.got - 2010.06.04 12:02:01.
