data_PCOD9332210
_publ_section_title
;
Structure prediction by ZEFSAII (Michael W. Deem and Ramdas Pophale) SiO2 
 PCOD9332210
Probable space group: I 2 2 2
;
_chemical_formula_sum "Si O2"
_cell_formula_units_Z 48
_cell_length_a 21.384368
_cell_length_b 4.841300
_cell_length_c 21.705011
_cell_angle_alpha 90.000000
_cell_angle_beta 90.000000
_cell_angle_gamma 90.000000
_cell_volume 2247.079435
_symmetry_space_group_name_H-M "I 2 2 2"
_symmetry_group_IT_number 23
_symmetry_cell_setting 'orthorhombic'
loop_
_space_group_symop_operation_xyz
x,y,z
-x,-y,z
x,-y,-z
-x,y,-z
1/2+x,1/2+y,1/2+z
1/2-x,1/2-y,1/2+z
1/2+x,1/2-y,1/2-z
1/2-x,1/2+y,1/2-z
loop_
_atom_site_type_symbol
_atom_site_label
_atom_site_fract_x
_atom_site_fract_y
_atom_site_fract_z
Si Si1 0.670162 0.064234 0.428020
Si Si2 0.821035 0.921444 0.571188
Si Si3 0.129588 0.975340 0.146325
Si Si4 0.750366 0.285790 0.285745
Si Si5 0.958950 0.759299 0.249898
Si Si6 0.634818 0.047966 0.144883
O O1 0.644057 0.829043 0.380600
O O2 0.663849 0.000000 0.500000
O O3 0.745418 0.123636 0.419357
O O4 0.628905 0.331563 0.413395
O O5 0.867924 0.670723 0.588596
O O6 0.827631 0.000000 0.500000
O O7 0.840479 0.175455 0.613839
O O8 0.190530 0.089126 0.181609
O O9 0.076146 0.070258 0.194909
O O10 0.751297 0.459659 0.222175
O O11 0.813112 0.385994 0.316426
O O12 0.916254 0.628879 0.303959
O O13 0.000000 0.500000 0.225769
O O14 0.000000 0.000000 0.280387
#
# Coordination Sequence:
#
# PCOD9332210 Si02
#       6
#     8   8   8   8   8   8
#     4  11  22  38  63 101 140 172 206 257 335 414
#     4  11  22  38  63 101 140 172 206 257 335 414
#     4  12  23  40  65  93 136 174 213 271 331 400
#     4  12  22  34  59  98 133 166 202 262 346 406
#     4  12  28  46  66  94 132 182 234 280 330 382
#     4  12  23  40  65  93 136 174 213 271 331 400
#
# _framework density 21.361059999999998
#
# number of rings (size 3 to 8) (size 9 to 14) (size 15 to 20)
#    0.000    0.333    5.000    5.000    2.333    2.667 
#    0.000    0.000    0.000   15.000    0.000    0.000 
#    0.000    0.000    0.000    0.000    0.000    0.000 
#
# Total GULP energy -133816.821431 kJ/mol
# GULP energy per Si atom -5575.700893 kJ/mol
# Density = 2.131244 g / cm^3
# Si number density = 21.361060 Si / 1000 Ang^3
#
#
#
# Elastic Constant Matrix: (Units=GPa)
#
#
# Indices 1 2 3 4 5 6 
#
# 1 67.3305 19.8415 38.1869 0.0000 0.0000 0.0000
# 2 19.8415 106.6914 15.5111 0.0000 0.0000 0.0000
# 3 38.1869 15.5111 78.7660 0.0000 0.0000 0.0000
# 4 0.0000 0.0000 0.0000 36.9782 0.0000 0.0000
# 5 0.0000 0.0000 0.0000 0.0000 5.5695 0.0000
# 6 0.0000 0.0000 0.0000 0.0000 0.0000 30.6692
#
#
#
# Elastic Compliance Matrix: (Units=1/GPa)
#
#
# Indices 1 2 3 4 5 6 
#
# 1 0.021118 -0.002511 -0.009744 0.000000 0.000000 0.000000
# 2 -0.002511 0.009948 -0.000742 0.000000 0.000000 0.000000
# 3 -0.009744 -0.000742 0.017566 0.000000 0.000000 0.000000
# 4 0.000000 0.000000 0.000000 0.027043 0.000000 0.000000
# 5 0.000000 0.000000 0.000000 0.000000 0.179551 0.000000
# 6 0.000000 0.000000 0.000000 0.000000 0.000000 0.032606
#
#
# Mechanical properties :
#
#
# Convention : Reuss Voigt Hill
#
# Bulk Modulus (GPa) = 44.17177 44.42964 44.30070
# Shear Modulus (GPa) = 15.55833 26.59327 21.07580
#
# Velocity S-wave (km/s) = 2.70172 3.53220 3.14450
# Velocity P-wave (km/s) = 5.51869 6.12207 5.82820
#
# Compressibility (1/GPa) = 0.02263889
#
# Stress axis : x y z
#
# Youngs Moduli (GPa) = 47.35202 100.52686 56.92837
#
# Poissons Ratio (x) = 0.25240 0.55471
# Poissons Ratio (y) = 0.11889 0.04222
# Poissons Ratio (z) = 0.46140 0.07456
#
# Static dielectric constant tensor:
#      x y z
#    x 1.802060 0.000000 0.000000 
#    y 0.000000 1.850940 0.000000 
#    z 0.000000 0.000000 2.030340 
# 
# From -- ./inp_files/27254.got.cif
#   From: 2010.05.17/outbox.cif.g08.bks.cpg/sg23_14_cif.got.tgz:27254.got - 2010.06.04 12:02:01.
