data_PCOD9332941
_publ_section_title
;
Structure prediction by ZEFSAII (Michael W. Deem and Ramdas Pophale) SiO2 
 PCOD9332941
Probable space group: I 21 21 21
;
_chemical_formula_sum "Si O2"
_cell_formula_units_Z 52
_cell_length_a 5.508527
_cell_length_b 14.191532
_cell_length_c 27.300819
_cell_angle_alpha 90.000000
_cell_angle_beta 90.000000
_cell_angle_gamma 90.000000
_cell_volume 2134.226160
_symmetry_space_group_name_H-M "I 21 21 21"
_symmetry_group_IT_number 24
_symmetry_cell_setting 'orthorhombic'
loop_
_space_group_symop_operation_xyz
x,y,z
-x,1/2-y,z
x,-y,1/2-z
1/2-x,y,-z
1/2+x,1/2+y,1/2+z
1/2-x,-y,1/2+z
1/2+x,1/2-y,-z
-x,1/2+y,1/2-z
loop_
_atom_site_type_symbol
_atom_site_label
_atom_site_fract_x
_atom_site_fract_y
_atom_site_fract_z
Si Si1 0.500000 0.750000 0.137013
Si Si2 0.138607 0.888035 0.310178
Si Si3 0.706723 0.090727 0.615131
Si Si4 0.628404 0.116790 0.136281
Si Si5 0.998561 0.882330 0.525644
Si Si6 0.145446 0.883536 0.196948
Si Si7 0.997557 0.405924 0.486304
O O1 0.370507 0.677417 0.100648
O O2 0.353128 0.821514 0.172279
O O3 0.399045 0.855001 0.330479
O O4 0.108731 0.860550 0.253652
O O5 0.897517 0.859518 0.341653
O O6 0.167659 0.002666 0.309162
O O7 0.587045 0.133966 0.663661
O O8 0.516853 0.069308 0.571714
O O9 0.844514 0.996562 0.630258
O O10 0.545363 0.144966 0.081748
O O11 0.250000 0.851365 0.500000
O O12 0.750000 0.851995 0.500000
O O13 0.003479 0.996203 0.517891
O O14 0.750000 0.357044 0.500000
O O15 0.250000 0.360095 0.500000
#
# Coordination Sequence:
#
# PCOD9332941 Si02
#       7
#     4   8   8   8   8   8   8
#     4  12  24  40  66  80 122 156 216 256 310 358
#     4  10  23  38  62  85 117 147 207 257 305 361
#     4  11  23  39  61  84 113 158 213 253 305 358
#     4  11  20  36  60  88 115 154 202 251 299 363
#     4  10  18  29  52  86 112 151 193 238 300 345
#     4  10  24  39  59  86 113 155 203 260 309 361
#     4  10  21  34  59  80 107 151 201 253 296 340
#
# _framework density 24.364802999999998
#
# number of rings (size 3 to 8) (size 9 to 14) (size 15 to 20)
#    0.000    1.538    4.615    1.385   10.769    1.231 
#    0.000    0.000    3.385    0.000    0.000    0.000 
#    0.000    0.000    0.000    4.154    2.769    0.923 
#
# Total GULP energy -145165.919807 kJ/mol
# GULP energy per Si atom -5583.304608 kJ/mol
# Density = 2.430935 g / cm^3
# Si number density = 24.364803 Si / 1000 Ang^3
#
#
#
# Elastic Constant Matrix: (Units=GPa)
#
#
# Indices 1 2 3 4 5 6 
#
# 1 216.6497 32.7231 88.3077 0.0000 0.0000 0.0000
# 2 32.7231 102.6510 9.0886 0.0000 0.0000 0.0000
# 3 88.3077 9.0886 181.2752 0.0000 0.0000 0.0000
# 4 0.0000 0.0000 0.0000 -34.6511 0.0000 0.0000
# 5 0.0000 0.0000 0.0000 0.0000 -30.1248 0.0000
# 6 0.0000 0.0000 0.0000 0.0000 0.0000 21.1060
#
#
#
# Elastic Compliance Matrix: (Units=1/GPa)
#
#
# Indices 1 2 3 4 5 6 
#
# 1 0.006031 -0.001670 -0.002854 0.000000 0.000000 0.000000
# 2 -0.001670 0.010248 0.000300 0.000000 0.000000 0.000000
# 3 -0.002854 0.000300 0.006892 0.000000 0.000000 0.000000
# 4 0.000000 0.000000 0.000000 -0.028859 0.000000 0.000000
# 5 0.000000 0.000000 0.000000 0.000000 -0.033195 0.000000
# 6 0.000000 0.000000 0.000000 0.000000 0.000000 0.047380
#
#
# Mechanical properties :
#
#
# Convention : Reuss Voigt Hill
#
# Bulk Modulus (GPa) = 67.92743 84.53496 76.23119
# Shear Modulus (GPa) = 228.79893 15.96311 122.38102
#
# Velocity S-wave (km/s) = 9.70100 2.56241 7.09490
# Velocity P-wave (km/s) = 12.38624 6.59738 9.92332
#
# Compressibility (1/GPa) = 0.01472159
#
# Stress axis : x y z
#
# Youngs Moduli (GPa) = 165.79637 97.58413 145.09560
#
# Poissons Ratio (x) = 0.16296 0.41418
# Poissons Ratio (y) = 0.27688 -0.04349
# Poissons Ratio (z) = 0.47327 -0.02925
#
# Static dielectric constant tensor:
#      x y z
#    x 2.052680 0.000000 0.000000 
#    y 0.000000 2.083920 0.000000 
#    z 0.000000 0.000000 1.888060 
# 
# From -- ./inp_files/36544.got.cif
#   From: 2010.05.17/outbox.cif.g08.bks.cpg/sg24_19_cif.got.tgz:36544.got - 2010.06.04 00:33:39.
