data_PCOD9332107
_publ_section_title
;
Structure prediction by ZEFSAII (Michael W. Deem and Ramdas Pophale) SiO2 
 PCOD9332107
Probable space group: I 2 2 2
;
_chemical_formula_sum "Si O2"
_cell_formula_units_Z 64
_cell_length_a 7.567349
_cell_length_b 13.532674
_cell_length_c 28.013032
_cell_angle_alpha 90.000000
_cell_angle_beta 90.000000
_cell_angle_gamma 90.000000
_cell_volume 2868.715639
_symmetry_space_group_name_H-M "I 2 2 2"
_symmetry_group_IT_number 23
_symmetry_cell_setting 'orthorhombic'
loop_
_space_group_symop_operation_xyz
x,y,z
-x,-y,z
x,-y,-z
-x,y,-z
1/2+x,1/2+y,1/2+z
1/2-x,1/2-y,1/2+z
1/2+x,1/2-y,1/2-z
1/2-x,1/2+y,1/2-z
loop_
_atom_site_type_symbol
_atom_site_label
_atom_site_fract_x
_atom_site_fract_y
_atom_site_fract_z
Si Si1 0.283659 0.501361 0.897103
Si Si2 0.197599 0.039659 0.709428
Si Si3 0.206856 0.308936 0.276468
Si Si4 0.716731 0.887788 0.877895
Si Si5 0.216161 0.386200 0.622476
Si Si6 0.715812 0.706598 0.944222
Si Si7 0.694465 0.127636 0.770599
Si Si8 0.215822 0.205993 0.554178
O O1 0.500000 0.500000 0.897206
O O2 0.226168 0.518065 0.842468
O O3 0.228024 0.396794 0.919713
O O4 0.228272 0.599136 0.925802
O O5 0.294425 0.983089 0.752089
O O6 0.204714 0.151216 0.727729
O O7 0.000000 0.000000 0.709405
O O8 0.280146 0.352906 0.325541
O O9 0.220977 0.191942 0.271598
O O10 0.004816 0.338366 0.274077
O O11 0.500305 0.886522 0.877025
O O12 0.772256 0.803394 0.914986
O O13 0.769330 0.000668 0.889141
O O14 0.275614 0.364659 0.676774
O O15 0.272086 0.299337 0.586558
O O16 0.499953 0.705900 0.944132
O O17 0.770863 0.713907 0.999220
#
# Coordination Sequence:
#
# PCOD9332107 Si02
#       8
#     8   8   8   8   8   8   8   8
#     4   9  17  29  44  69 104 137 171 216 268 317
#     4  11  21  34  53  78 107 145 184 217 264 323
#     4  11  21  35  53  76 108 145 180 221 269 321
#     4   9  17  30  46  67 100 138 171 212 268 319
#     4   9  17  30  46  67 100 138 171 212 268 319
#     4   9  16  26  43  67  98 137 174 210 262 325
#     4  11  21  35  53  76 108 145 180 221 269 321
#     4   9  16  26  43  67  98 137 174 210 262 325
#
# _framework density 22.309633999999999
#
# number of rings (size 3 to 8) (size 9 to 14) (size 15 to 20)
#    0.000    2.250    1.250    3.000    0.000    6.000 
#    0.000    2.500    0.000    0.000    0.000    0.000 
#    0.000   53.000    0.000    0.000    0.000    0.000 
#
# Total GULP energy -178718.803578 kJ/mol
# GULP energy per Si atom -5584.962612 kJ/mol
# Density = 2.225886 g / cm^3
# Si number density = 22.309634 Si / 1000 Ang^3
#
#
#
# Elastic Constant Matrix: (Units=GPa)
#
#
# Indices 1 2 3 4 5 6 
#
# 1 47.5468 5.6711 4.6977 0.0000 0.0000 0.0000
# 2 5.6711 186.6386 101.2813 0.0000 0.0000 0.0000
# 3 4.6977 101.2813 186.1082 0.0000 0.0000 0.0000
# 4 0.0000 0.0000 0.0000 42.5613 0.0000 0.0000
# 5 0.0000 0.0000 0.0000 0.0000 4.0489 0.0000
# 6 0.0000 0.0000 0.0000 0.0000 0.0000 14.7901
#
#
#
# Elastic Compliance Matrix: (Units=1/GPa)
#
#
# Indices 1 2 3 4 5 6 
#
# 1 0.021117 -0.000500 -0.000261 0.000000 0.000000 0.000000
# 2 -0.000500 0.007615 -0.004132 0.000000 0.000000 0.000000
# 3 -0.000261 -0.004132 0.007628 0.000000 0.000000 0.000000
# 4 0.000000 0.000000 0.000000 0.023496 0.000000 0.000000
# 5 0.000000 0.000000 0.000000 0.000000 0.246979 0.000000
# 6 0.000000 0.000000 0.000000 0.000000 0.000000 0.067613
#
#
# Mechanical properties :
#
#
# Convention : Reuss Voigt Hill
#
# Bulk Modulus (GPa) = 37.62851 71.51043 54.56947
# Shear Modulus (GPa) = 12.71967 32.85629 22.78798
#
# Velocity S-wave (km/s) = 2.39036 3.84179 3.19947
# Velocity P-wave (km/s) = 4.95192 7.19739 6.17753
#
# Compressibility (1/GPa) = 0.02657559
#
# Stress axis : x y z
#
# Youngs Moduli (GPa) = 47.35449 131.31605 131.09141
#
# Poissons Ratio (x) = 0.06567 0.03420
# Poissons Ratio (y) = 0.02368 0.54162
# Poissons Ratio (z) = 0.01235 0.54255
#
# Static dielectric constant tensor:
#      x y z
#    x 1.908570 0.000000 0.000000 
#    y 0.000000 1.770040 0.000000 
#    z 0.000000 0.000000 1.791540 
# 
# From -- ./inp_files/30356.got.cif
#   From: 2010.05.17/outbox.cif.g08.bks.cpg/sg23_16_cif.got.tgz:30356.got - 2010.06.04 12:02:01.
