data_PCOD9332303
_publ_section_title
;
Structure prediction by ZEFSAII (Michael W. Deem and Ramdas Pophale) SiO2 
 PCOD9332303
Probable space group: I 2 2 2
;
_chemical_formula_sum "Si O2"
_cell_formula_units_Z 48
_cell_length_a 25.735470
_cell_length_b 8.758544
_cell_length_c 9.676998
_cell_angle_alpha 90.000000
_cell_angle_beta 90.000000
_cell_angle_gamma 90.000000
_cell_volume 2181.246118
_symmetry_space_group_name_H-M "I 2 2 2"
_symmetry_group_IT_number 23
_symmetry_cell_setting 'orthorhombic'
loop_
_space_group_symop_operation_xyz
x,y,z
-x,-y,z
x,-y,-z
-x,y,-z
1/2+x,1/2+y,1/2+z
1/2-x,1/2-y,1/2+z
1/2+x,1/2-y,1/2-z
1/2-x,1/2+y,1/2-z
loop_
_atom_site_type_symbol
_atom_site_label
_atom_site_fract_x
_atom_site_fract_y
_atom_site_fract_z
Si Si1 0.439867 0.166410 0.704874
Si Si2 0.560133 0.166410 0.795126
Si Si3 0.399522 0.334019 0.951644
Si Si4 0.100478 0.834019 0.048356
Si Si5 0.784018 0.104683 0.116703
Si Si6 0.715982 0.395317 0.116703
O O1 0.500000 0.170321 0.750001
O O2 0.427190 0.207506 0.547370
O O3 0.419700 1.000000 0.750000
O O4 0.412745 0.296635 0.794690
O O5 0.572810 0.207506 0.952630
O O6 0.587255 0.296635 0.705310
O O7 0.418368 0.500000 0.000000
O O8 0.337126 0.337130 0.955751
O O9 0.162874 0.837130 0.044249
O O10 0.081631 0.000000 0.000000
O O11 0.750000 0.250000 0.156686
O O12 0.795437 0.000000 0.250000
O O13 0.756931 0.000000 0.000000
O O14 0.743069 0.500000 0.000000
#
# Coordination Sequence:
#
# PCOD9332303 Si02
#       6
#     8   8   8   8   8   8
#     4  11  24  41  62  91 126 165 211 261 314 376
#     4  11  24  41  62  91 126 165 211 261 314 376
#     4  11  23  41  63  91 126 163 209 263 315 374
#     4  11  23  41  63  91 126 163 209 263 315 374
#     4  11  24  43  65  94 129 167 214 265 318 380
#     4  11  24  43  65  94 129 167 214 265 318 380
#
# _framework density 22.005769999999998
#
# number of rings (size 3 to 8) (size 9 to 14) (size 15 to 20)
#    0.000    1.000    0.000    8.000    0.000   10.667 
#    0.000    0.000    0.000    0.000    0.000    0.000 
#    0.000    0.000    0.000    0.000    0.000    0.000 
#
# Total GULP energy -134170.151242 kJ/mol
# GULP energy per Si atom -5590.422968 kJ/mol
# Density = 2.195568 g / cm^3
# Si number density = 22.005770 Si / 1000 Ang^3
#
#
#
# Elastic Constant Matrix: (Units=GPa)
#
#
# Indices 1 2 3 4 5 6 
#
# 1 51.0981 30.7214 2.4712 0.0000 0.0000 0.0000
# 2 30.7214 97.6101 9.2938 0.0000 0.0000 0.0000
# 3 2.4712 9.2938 89.7275 0.0000 0.0000 0.0000
# 4 0.0000 0.0000 0.0000 44.9760 0.0000 0.0000
# 5 0.0000 0.0000 0.0000 0.0000 24.5551 0.0000
# 6 0.0000 0.0000 0.0000 0.0000 0.0000 22.7363
#
#
#
# Elastic Compliance Matrix: (Units=1/GPa)
#
#
# Indices 1 2 3 4 5 6 
#
# 1 0.024139 -0.007609 0.000123 0.000000 0.000000 0.000000
# 2 -0.007609 0.012745 -0.001111 0.000000 0.000000 0.000000
# 3 0.000123 -0.001111 0.011256 0.000000 0.000000 0.000000
# 4 0.000000 0.000000 0.000000 0.022234 0.000000 0.000000
# 5 0.000000 0.000000 0.000000 0.000000 0.040725 0.000000
# 6 0.000000 0.000000 0.000000 0.000000 0.000000 0.043982
#
#
# Mechanical properties :
#
#
# Convention : Reuss Voigt Hill
#
# Bulk Modulus (GPa) = 32.31210 35.93428 34.12319
# Shear Modulus (GPa) = 27.38356 31.51675 29.45016
#
# Velocity S-wave (km/s) = 3.53141 3.78855 3.66224
# Velocity P-wave (km/s) = 5.59849 5.95839 5.78124
#
# Compressibility (1/GPa) = 0.03094816
#
# Stress axis : x y z
#
# Youngs Moduli (GPa) = 41.42661 78.45924 88.83758
#
# Poissons Ratio (x) = 0.59701 -0.01096
# Poissons Ratio (y) = 0.31522 0.09866
# Poissons Ratio (z) = -0.00511 0.08714
#
# Static dielectric constant tensor:
#      x y z
#    x 1.818670 0.000000 0.000000 
#    y 0.000000 1.812390 0.000000 
#    z 0.000000 0.000000 1.774900 
# 
# From -- ./inp_files/13351.got.cif
#   From: 2010.05.17/outbox.cif.g08.bks.cpg/sg23_7_cif.got.tgz:13351.got - 2010.06.04 12:02:01.
