data_PCOD9332747
_publ_section_title
;
Structure prediction by ZEFSAII (Michael W. Deem and Ramdas Pophale) SiO2 
 PCOD9332747
Probable space group: I 21 21 21
;
_chemical_formula_sum "Si O2"
_cell_formula_units_Z 40
_cell_length_a 12.207714
_cell_length_b 9.586695
_cell_length_c 15.196693
_cell_angle_alpha 90.000000
_cell_angle_beta 90.000000
_cell_angle_gamma 90.000000
_cell_volume 1778.493764
_symmetry_space_group_name_H-M "I 21 21 21"
_symmetry_group_IT_number 24
_symmetry_cell_setting 'orthorhombic'
loop_
_space_group_symop_operation_xyz
x,y,z
-x,1/2-y,z
x,-y,1/2-z
1/2-x,y,-z
1/2+x,1/2+y,1/2+z
1/2-x,-y,1/2+z
1/2+x,1/2-y,-z
-x,1/2+y,1/2-z
loop_
_atom_site_type_symbol
_atom_site_label
_atom_site_fract_x
_atom_site_fract_y
_atom_site_fract_z
Si Si1 0.750000 0.555594 0.000000
Si Si2 0.764293 0.000000 0.250000
Si Si3 0.553483 0.094182 0.881540
Si Si4 0.613550 0.500000 0.750000
Si Si5 0.718578 0.706246 0.186245
Si Si6 0.016799 0.914683 0.559127
Si Si7 0.534757 0.500000 0.250000
O O1 0.749325 0.653405 0.912247
O O2 0.859727 0.461571 0.975351
O O3 0.839335 0.926548 0.324353
O O4 0.708287 0.869422 0.202418
O O5 0.500000 0.250000 0.879806
O O6 0.463652 0.998978 0.833714
O O7 0.563643 0.041376 0.980705
O O8 0.688060 0.635901 0.752915
O O9 0.610877 0.630651 0.222333
O O10 0.984899 0.965781 0.655563
O O11 0.000000 0.750000 0.564173
#
# Coordination Sequence:
#
# PCOD9332747 Si02
#       7
#     4   4   8   4   8   8   4
#     4  10  20  40  64  94 132 172 216 262 334 392
#     4  11  22  35  59  94 129 160 206 263 330 380
#     4  10  19  31  56  93 121 152 197 260 323 383
#     4  10  16  32  54  84 120 154 186 244 318 378
#     4  10  20  37  61  87 126 166 207 255 318 384
#     4  10  21  39  66  93 120 166 217 263 316 390
#     4   9  22  41  63  84 121 174 214 257 308 376
#
# _framework density 22.490943000000001
#
# number of rings (size 3 to 8) (size 9 to 14) (size 15 to 20)
#    0.000    2.000    4.000    0.000    0.000    0.000 
#    0.000    9.000    0.000    0.000    0.000    0.000 
#    0.000    0.000    0.000    0.000    0.000    0.000 
#
# Total GULP energy -111438.592838 kJ/mol
# GULP energy per Si atom -5571.929642 kJ/mol
# Density = 2.243975 g / cm^3
# Si number density = 22.490943 Si / 1000 Ang^3
#
#
#
# Elastic Constant Matrix: (Units=GPa)
#
#
# Indices 1 2 3 4 5 6 
#
# 1 45.0589 47.7517 38.8091 0.0000 0.0000 0.0000
# 2 47.7517 155.9780 52.0798 0.0000 0.0000 0.0000
# 3 38.8091 52.0798 207.9580 0.0000 0.0000 0.0000
# 4 0.0000 0.0000 0.0000 33.1355 0.0000 0.0000
# 5 0.0000 0.0000 0.0000 0.0000 6.9440 0.0000
# 6 0.0000 0.0000 0.0000 0.0000 0.0000 15.4861
#
#
#
# Elastic Compliance Matrix: (Units=1/GPa)
#
#
# Indices 1 2 3 4 5 6 
#
# 1 0.036106 -0.009607 -0.004332 0.000000 0.000000 0.000000
# 2 -0.009607 0.009552 -0.000599 0.000000 0.000000 0.000000
# 3 -0.004332 -0.000599 0.005767 0.000000 0.000000 0.000000
# 4 0.000000 0.000000 0.000000 0.030179 0.000000 0.000000
# 5 0.000000 0.000000 0.000000 0.000000 0.144008 0.000000
# 6 0.000000 0.000000 0.000000 0.000000 0.000000 0.064574
#
#
# Mechanical properties :
#
#
# Convention : Reuss Voigt Hill
#
# Bulk Modulus (GPa) = 44.74638 76.25290 60.49964
# Shear Modulus (GPa) = 15.30394 29.13675 22.22035
#
# Velocity S-wave (km/s) = 2.61137 3.60319 3.14661
# Velocity P-wave (km/s) = 5.38803 7.16157 6.33715
#
# Compressibility (1/GPa) = 0.02234817
#
# Stress axis : x y z
#
# Youngs Moduli (GPa) = 27.69659 104.68543 173.39370
#
# Poissons Ratio (x) = 1.00572 0.75115
# Poissons Ratio (y) = 0.26608 0.10393
# Poissons Ratio (z) = 0.11998 0.06275
#
# Static dielectric constant tensor:
#      x y z
#    x 1.878690 0.000000 0.000000 
#    y 0.000000 1.879340 0.000000 
#    z 0.000000 0.000000 1.931680 
# 
# From -- ./inp_files/24582.got.cif
#   From: 2010.05.17/outbox.cif.g08.bks.cpg/sg24_13_cif.got.tgz:24582.got - 2010.06.04 00:33:39.
