data_PCOD9332381
_publ_section_title
;
Structure prediction by ZEFSAII (Michael W. Deem and Ramdas Pophale) SiO2 
 PCOD9332381
Probable space group: I 2 2 2
;
_chemical_formula_sum "Si O2"
_cell_formula_units_Z 60
_cell_length_a 11.229511
_cell_length_b 21.841999
_cell_length_c 11.061968
_cell_angle_alpha 90.000000
_cell_angle_beta 90.000000
_cell_angle_gamma 90.000000
_cell_volume 2713.223848
_symmetry_space_group_name_H-M "I 2 2 2"
_symmetry_group_IT_number 23
_symmetry_cell_setting 'orthorhombic'
loop_
_space_group_symop_operation_xyz
x,y,z
-x,-y,z
x,-y,-z
-x,y,-z
1/2+x,1/2+y,1/2+z
1/2-x,1/2-y,1/2+z
1/2+x,1/2-y,1/2-z
1/2-x,1/2+y,1/2-z
loop_
_atom_site_type_symbol
_atom_site_label
_atom_site_fract_x
_atom_site_fract_y
_atom_site_fract_z
Si Si1 0.528625 0.148018 0.777041
Si Si2 0.626453 0.026525 0.770501
Si Si3 0.701559 0.874343 0.637011
Si Si4 0.878678 0.024424 0.135017
Si Si5 0.556509 0.725661 0.876049
Si Si6 0.167378 0.280791 0.929664
Si Si7 0.684170 0.000000 0.500000
Si Si8 0.092415 0.162503 0.820605
O O1 0.619548 0.095977 0.821110
O O2 0.411783 0.113933 0.723523
O O3 0.487756 0.204134 0.860498
O O4 0.594765 0.181582 0.668409
O O5 0.500000 0.000000 0.815498
O O6 0.751637 0.994060 0.805495
O O7 0.623044 0.026401 0.622419
O O8 0.660794 0.819253 0.550842
O O9 0.736152 0.935502 0.559097
O O10 0.804240 0.845588 0.719134
O O11 0.906815 0.095717 0.125877
O O12 0.000000 0.000000 0.198855
O O13 0.871869 0.000000 0.000000
O O14 0.696373 0.723157 0.890177
O O15 0.516764 0.687149 0.759215
O O16 0.500000 0.700467 0.000000
O O17 0.120506 0.212013 0.922858
#
# Coordination Sequence:
#
# PCOD9332381 Si02
#       8
#     8   8   8   8   8   8   4   8
#     4  11  24  40  63 103 136 172 230 282 346 431
#     4  12  24  43  74 106 142 188 234 301 366 428
#     4  12  22  44  68 102 142 178 234 289 358 421
#     4  11  28  54  72 100 140 195 249 296 359 442
#     4  11  24  43  66  97 136 180 228 291 351 417
#     4  11  24  40  67  97 134 185 223 282 355 420
#     4  12  23  38  73 108 147 184 231 310 365 436
#     4  11  24  47  68  97 142 180 234 297 352 430
#
# _framework density 22.113916
#
# number of rings (size 3 to 8) (size 9 to 14) (size 15 to 20)
#    0.000    0.667    6.667    0.600    1.867    1.333 
#    9.600    0.333    0.000    0.000    0.000    0.000 
#    0.000    0.000    0.000    0.000    0.000    0.000 
#
# Total GULP energy -167337.781859 kJ/mol
# GULP energy per Si atom -5577.926062 kJ/mol
# Density = 2.206358 g / cm^3
# Si number density = 22.113916 Si / 1000 Ang^3
#
#
#
# Elastic Constant Matrix: (Units=GPa)
#
#
# Indices 1 2 3 4 5 6 
#
# 1 115.2443 30.6520 20.7605 -0.0001 0.0000 0.0000
# 2 30.6520 141.2033 18.9688 -0.0001 0.0001 0.0001
# 3 20.7605 18.9688 69.2970 -0.0002 0.0001 0.0002
# 4 -0.0001 -0.0001 -0.0002 34.9841 0.0001 0.0001
# 5 0.0000 0.0001 0.0001 0.0001 26.4206 0.0000
# 6 0.0000 0.0001 0.0002 0.0001 0.0000 24.0222
#
#
#
# Elastic Compliance Matrix: (Units=1/GPa)
#
#
# Indices 1 2 3 4 5 6 
#
# 1 0.009575 -0.001758 -0.002387 0.000000 0.000000 0.000000
# 2 -0.001758 0.007675 -0.001574 0.000000 0.000000 0.000000
# 3 -0.002387 -0.001574 0.015577 0.000000 0.000000 0.000000
# 4 0.000000 0.000000 0.000000 0.028584 0.000000 0.000000
# 5 0.000000 0.000000 0.000000 0.000000 0.037849 0.000000
# 6 0.000000 0.000000 0.000000 0.000000 0.000000 0.041628
#
#
# Mechanical properties :
#
#
# Convention : Reuss Voigt Hill
#
# Bulk Modulus (GPa) = 46.75551 51.83410 49.29481
# Shear Modulus (GPa) = 31.35650 34.10960 32.73305
#
# Velocity S-wave (km/s) = 3.76966 3.93166 3.85151
# Velocity P-wave (km/s) = 6.33530 6.64087 6.48988
#
# Compressibility (1/GPa) = 0.02138785
#
# Stress axis : x y z
#
# Youngs Moduli (GPa) = 104.44082 130.29241 64.19810
#
# Poissons Ratio (x) = 0.22902 0.15326
# Poissons Ratio (y) = 0.18358 0.10107
# Poissons Ratio (z) = 0.24933 0.20512
#
# Static dielectric constant tensor:
#      x y z
#    x 1.844690 0.000000 0.000000 
#    y 0.000000 1.921800 0.000000 
#    z 0.000000 0.000000 1.729240 
# 
# From -- ./inp_files/15989.got.cif
#   From: 2010.05.17/outbox.cif.g08.bks.cpg/sg23_8_cif.got.tgz:15989.got - 2010.06.04 12:02:01.
