data_PCOD9332322
_publ_section_title
;
Structure prediction by ZEFSAII (Michael W. Deem and Ramdas Pophale) SiO2 
 PCOD9332322
Probable space group: I 2 2 2
;
_chemical_formula_sum "Si O2"
_cell_formula_units_Z 32
_cell_length_a 13.763240
_cell_length_b 11.846919
_cell_length_c 8.437693
_cell_angle_alpha 90.000000
_cell_angle_beta 90.000000
_cell_angle_gamma 90.000000
_cell_volume 1375.782630
_symmetry_space_group_name_H-M "I 2 2 2"
_symmetry_group_IT_number 23
_symmetry_cell_setting 'orthorhombic'
loop_
_space_group_symop_operation_xyz
x,y,z
-x,-y,z
x,-y,-z
-x,y,-z
1/2+x,1/2+y,1/2+z
1/2-x,1/2-y,1/2+z
1/2+x,1/2-y,1/2-z
1/2-x,1/2+y,1/2-z
loop_
_atom_site_type_symbol
_atom_site_label
_atom_site_fract_x
_atom_site_fract_y
_atom_site_fract_z
Si Si1 0.160773 0.000000 0.500000
Si Si2 0.529719 0.130040 0.827687
Si Si3 0.500000 0.500000 0.249657
Si Si4 0.894664 0.778458 0.127020
Si Si5 0.216917 0.304737 0.835904
O O1 0.086621 0.954457 0.364854
O O2 0.230615 0.903997 0.566664
O O3 0.474189 0.188311 0.681793
O O4 0.643131 0.145511 0.793811
O O5 0.500000 0.000000 0.828438
O O6 0.500000 0.179262 0.000000
O O7 0.445516 0.600650 0.341531
O O8 0.806227 0.749760 0.245672
O O9 0.845587 0.770623 0.955763
#
# Coordination Sequence:
#
# PCOD9332322 Si02
#       5
#     4   8   4   8   8
#     4   9  20  40  71 100 138 192 243 286 357 430
#     4  11  25  45  70 100 136 179 236 298 351 418
#     4   9  22  40  69 104 147 191 228 300 360 430
#     4  11  24  42  72 103 145 183 239 289 360 430
#     4  11  23  42  71 103 135 188 233 290 349 429
#
# _framework density 23.259488000000001
#
# number of rings (size 3 to 8) (size 9 to 14) (size 15 to 20)
#    0.000    1.500    0.000    3.750   10.500    1.000 
#    0.000    2.500    5.500    0.000    0.000    0.000 
#    0.000    0.000    0.000    0.000    0.000    0.000 
#
# Total GULP energy -89497.467103 kJ/mol
# GULP energy per Si atom -5593.591694 kJ/mol
# Density = 2.320655 g / cm^3
# Si number density = 23.259488 Si / 1000 Ang^3
#
#
#
# Elastic Constant Matrix: (Units=GPa)
#
#
# Indices 1 2 3 4 5 6 
#
# 1 170.2352 32.9233 56.0342 0.0000 0.0000 0.0000
# 2 32.9233 52.5376 24.7632 0.0000 0.0000 0.0000
# 3 56.0342 24.7632 116.1713 0.0000 0.0000 0.0000
# 4 0.0000 0.0000 0.0000 -3.3180 0.0000 0.0000
# 5 0.0000 0.0000 0.0000 0.0000 52.9368 0.0000
# 6 0.0000 0.0000 0.0000 0.0000 0.0000 29.8015
#
#
#
# Elastic Compliance Matrix: (Units=1/GPa)
#
#
# Indices 1 2 3 4 5 6 
#
# 1 0.007469 -0.003315 -0.002896 0.000000 0.000000 0.000000
# 2 -0.003315 0.022632 -0.003225 0.000000 0.000000 0.000000
# 3 -0.002896 -0.003225 0.010692 0.000000 0.000000 0.000000
# 4 0.000000 0.000000 0.000000 -0.301386 0.000000 0.000000
# 5 0.000000 0.000000 0.000000 0.000000 0.018890 0.000000
# 6 0.000000 0.000000 0.000000 0.000000 0.000000 0.033555
#
#
# Mechanical properties :
#
#
# Convention : Reuss Voigt Hill
#
# Bulk Modulus (GPa) = 45.62012 62.93173 54.27592
# Shear Modulus (GPa) = -27.47722 30.89896 1.71087
#
# Velocity S-wave (km/s) = -3.44078 3.64874 0.85858
# Velocity P-wave (km/s) = 1.96744 6.69822 4.93645
#
# Compressibility (1/GPa) = 0.02192015
#
# Stress axis : x y z
#
# Youngs Moduli (GPa) = 133.89474 44.18580 93.52671
#
# Poissons Ratio (x) = 0.14649 0.27082
# Poissons Ratio (y) = 0.44391 0.30163
# Poissons Ratio (z) = 0.38772 0.14250
#
# Static dielectric constant tensor:
#      x y z
#    x 1.942620 0.000000 0.000000 
#    y 0.000000 1.830160 0.000000 
#    z 0.000000 0.000000 1.972230 
# 
# From -- ./inp_files/7962.got.cif
#   From: 2010.05.17/outbox.cif.g08.bks.cpg/sg23_4_cif.got.tgz:7962.got - 2010.06.04 12:02:01.
