data_PCOD9332555
_publ_section_title
;
Structure prediction by ZEFSAII (Michael W. Deem and Ramdas Pophale) SiO2 
 PCOD9332555
Probable space group: I 2 2 2
;
_chemical_formula_sum "Si O2"
_cell_formula_units_Z 26
_cell_length_a 29.053765
_cell_length_b 7.237815
_cell_length_c 5.354980
_cell_angle_alpha 90.000000
_cell_angle_beta 90.000000
_cell_angle_gamma 90.000000
_cell_volume 1126.076125
_symmetry_space_group_name_H-M "I 2 2 2"
_symmetry_group_IT_number 23
_symmetry_cell_setting 'orthorhombic'
loop_
_space_group_symop_operation_xyz
x,y,z
-x,-y,z
x,-y,-z
-x,y,-z
1/2+x,1/2+y,1/2+z
1/2-x,1/2-y,1/2+z
1/2+x,1/2-y,1/2-z
1/2-x,1/2+y,1/2-z
loop_
_atom_site_type_symbol
_atom_site_label
_atom_site_fract_x
_atom_site_fract_y
_atom_site_fract_z
Si Si1 0.500000 0.500000 0.000000
Si Si2 0.376664 0.271269 0.746253
Si Si3 0.725330 0.297557 0.117813
Si Si4 0.584411 0.313396 0.757432
O O1 0.532960 0.380291 0.820052
O O2 0.322916 0.229898 0.765790
O O3 0.385852 0.494871 0.749513
O O4 0.403411 0.214069 0.498108
O O5 0.399221 0.205460 0.001095
O O6 0.757750 0.307206 0.365179
O O7 0.718539 0.500000 0.000000
#
# Coordination Sequence:
#
# PCOD9332555 Si02
#       4
#     2   8   8   8
#     4   8  16  26  40  82  92 162 178 230 248 378
#     4   9  17  30  45  67  96 147 177 218 285 338
#     4  12  24  38  59  81 111 150 213 250 290 346
#     4   9  16  26  48  62 113 131 193 202 290 347
#
# _framework density 23.089026
#
# number of rings (size 3 to 8) (size 9 to 14) (size 15 to 20)
#    0.000    2.462    3.077    2.769    4.308    9.846 
#    0.000    0.000    0.000    0.000    0.000    0.000 
#    0.000    0.000    0.000  343.385   40.615    0.000 
#
# Total GULP energy -72444.007508 kJ/mol
# GULP energy per Si atom -5572.615962 kJ/mol
# Density = 2.303647 g / cm^3
# Si number density = 23.089026 Si / 1000 Ang^3
#
#
#
# Elastic Constant Matrix: (Units=GPa)
#
#
# Indices 1 2 3 4 5 6 
#
# 1 166.6758 6.8148 89.2455 0.0000 0.0000 0.0000
# 2 6.8148 56.5765 20.3516 -0.0002 -0.0002 -0.0002
# 3 89.2455 20.3516 284.6548 -0.0003 -0.0002 -0.0002
# 4 0.0000 -0.0002 -0.0003 -3.0091 -0.0002 -0.0002
# 5 0.0000 -0.0002 -0.0002 -0.0002 -15.4093 -0.0001
# 6 0.0000 -0.0002 -0.0002 -0.0002 -0.0001 10.4107
#
#
#
# Elastic Compliance Matrix: (Units=1/GPa)
#
#
# Indices 1 2 3 4 5 6 
#
# 1 0.007210 -0.000057 -0.002257 0.000000 0.000000 0.000000
# 2 -0.000057 0.018142 -0.001279 -0.000001 0.000000 0.000000
# 3 -0.002257 -0.001279 0.004312 0.000000 0.000000 0.000000
# 4 0.000000 -0.000001 0.000000 -0.332330 0.000004 -0.000005
# 5 0.000000 0.000000 0.000000 0.000004 -0.064896 -0.000001
# 6 0.000000 0.000000 0.000000 -0.000005 -0.000001 0.096055
#
#
# Mechanical properties :
#
#
# Convention : Reuss Voigt Hill
#
# Bulk Modulus (GPa) = 44.48554 82.30343 63.39449
# Shear Modulus (GPa) = -19.46824 24.49816 2.51496
#
# Velocity S-wave (km/s) = -2.90691 3.26088 1.04480
# Velocity P-wave (km/s) = 2.83584 7.06408 5.38253
#
# Compressibility (1/GPa) = 0.02247921
#
# Stress axis : x y z
#
# Youngs Moduli (GPa) = 138.69197 55.12014 231.91350
#
# Poissons Ratio (x) = 0.00313 0.52331
# Poissons Ratio (y) = 0.00788 0.29668
# Poissons Ratio (z) = 0.31296 0.07051
#
# Static dielectric constant tensor:
#      x y z
#    x 1.851340 0.000000 0.000000 
#    y 0.000000 1.909700 0.000000 
#    z 0.000000 0.000000 1.795330 
# 
# From -- ./inp_files/555.got.cif
#   From: 2010.05.17/outbox.cif.g08.bks.cpg/sg23_1_cif.got.tgz:555.got - 2010.06.04 12:02:01.
