data_PCOD9332684
_publ_section_title
;
Structure prediction by ZEFSAII (Michael W. Deem and Ramdas Pophale) SiO2 
 PCOD9332684
Probable space group: I 21 21 21
;
_chemical_formula_sum "Si O2"
_cell_formula_units_Z 36
_cell_length_a 7.219428
_cell_length_b 5.533366
_cell_length_c 39.495008
_cell_angle_alpha 90.000000
_cell_angle_beta 90.000000
_cell_angle_gamma 90.000000
_cell_volume 1577.736210
_symmetry_space_group_name_H-M "I 21 21 21"
_symmetry_group_IT_number 24
_symmetry_cell_setting 'orthorhombic'
loop_
_space_group_symop_operation_xyz
x,y,z
-x,1/2-y,z
x,-y,1/2-z
1/2-x,y,-z
1/2+x,1/2+y,1/2+z
1/2-x,-y,1/2+z
1/2+x,1/2-y,-z
-x,1/2+y,1/2-z
loop_
_atom_site_type_symbol
_atom_site_label
_atom_site_fract_x
_atom_site_fract_y
_atom_site_fract_z
Si Si1 0.200642 0.500000 0.067267
Si Si2 0.223271 0.000000 0.175027
Si Si3 0.379906 0.000000 0.750000
Si Si4 0.220204 0.000000 0.039957
Si Si5 0.799990 0.000000 0.352260
O O1 0.175235 0.500000 0.107498
O O2 0.292372 0.749654 0.055598
O O3 0.998202 0.500000 0.049611
O O4 0.292372 0.250347 0.055598
O O5 0.292567 0.749242 0.159407
O O6 0.003118 1.000000 0.165284
O O7 0.235825 1.000000 0.215425
O O8 0.292567 0.250759 0.159408
O O9 0.500000 0.250000 0.750000
O O10 0.250000 1.000000 0.000000
#
# Coordination Sequence:
#
# PCOD9332684 Si02
#       5
#     8   8   4   8   8
#     4  10  19  30  42  59  78  96 128 166 196 233
#     4  10  16  22  33  46  63  91 118 149 191 216
#     4  12  16  24  28  46  68  88 118 156 192 214
#     4  10  18  29  43  58  76  98 120 154 206 242
#     4  10  16  25  36  48  65  91 120 151 193 214
#
# _framework density 22.817501
#
# number of rings (size 3 to 8) (size 9 to 14) (size 15 to 20)
#    0.000    1.778    4.444    7.333    0.000    0.000 
#    0.000    0.000    0.000    0.000    0.000    0.000 
#    0.000    0.000    0.000    0.000    0.000    0.000 
#
# Total GULP energy -100547.662324 kJ/mol
# GULP energy per Si atom -5585.981240 kJ/mol
# Density = 2.276557 g / cm^3
# Si number density = 22.817501 Si / 1000 Ang^3
#
#
#
# Elastic Constant Matrix: (Units=GPa)
#
#
# Indices 1 2 3 4 5 6 
#
# 1 91.7427 18.0272 18.5495 0.0000 0.0000 0.0000
# 2 18.0272 286.3157 70.1159 0.0000 0.0000 0.0000
# 3 18.5495 70.1159 240.7173 0.0000 0.0000 0.0000
# 4 0.0000 0.0000 0.0000 48.8463 0.0000 0.0000
# 5 0.0000 0.0000 0.0000 0.0000 -35.1436 0.0000
# 6 0.0000 0.0000 0.0000 0.0000 0.0000 -26.4808
#
#
#
# Elastic Compliance Matrix: (Units=1/GPa)
#
#
# Indices 1 2 3 4 5 6 
#
# 1 0.011147 -0.000529 -0.000705 0.000000 0.000000 0.000000
# 2 -0.000529 0.003786 -0.001062 0.000000 0.000000 0.000000
# 3 -0.000705 -0.001062 0.004518 0.000000 0.000000 0.000000
# 4 0.000000 0.000000 0.000000 0.020472 0.000000 0.000000
# 5 0.000000 0.000000 0.000000 0.000000 -0.028455 0.000000
# 6 0.000000 0.000000 0.000000 0.000000 0.000000 -0.037763
#
#
# Mechanical properties :
#
#
# Convention : Reuss Voigt Hill
#
# Bulk Modulus (GPa) = 67.30182 92.46232 79.88207
# Shear Modulus (GPa) = -298.50545 31.58326 -133.46110
#
# Velocity S-wave (km/s) = -11.45020 3.72448 -7.65622
# Velocity P-wave (km/s) = 12.05196 7.68805 6.56291
#
# Compressibility (1/GPa) = 0.01485844
#
# Stress axis : x y z
#
# Youngs Moduli (GPa) = 89.71392 264.12784 221.34159
#
# Poissons Ratio (x) = 0.13978 0.15600
# Poissons Ratio (y) = 0.04748 0.23507
# Poissons Ratio (z) = 0.06323 0.28051
#
# Static dielectric constant tensor:
#      x y z
#    x 1.817510 0.000000 0.000000 
#    y 0.000000 2.329810 0.000000 
#    z 0.000000 0.000000 1.766350 
# 
# From -- ./inp_files/38662.got.cif
#   From: 2010.05.17/outbox.cif.g08.bks.cpg/sg24_20_cif.got.tgz:38662.got - 2010.06.04 00:33:39.
