data_PCOD9332225
_publ_section_title
;
Structure prediction by ZEFSAII (Michael W. Deem and Ramdas Pophale) SiO2 
 PCOD9332225
Probable space group: I 2 2 2
;
_chemical_formula_sum "Si O2"
_cell_formula_units_Z 48
_cell_length_a 8.503599
_cell_length_b 10.793239
_cell_length_c 24.752023
_cell_angle_alpha 90.000000
_cell_angle_beta 90.000000
_cell_angle_gamma 90.000000
_cell_volume 2271.774739
_symmetry_space_group_name_H-M "I 2 2 2"
_symmetry_group_IT_number 23
_symmetry_cell_setting 'orthorhombic'
loop_
_space_group_symop_operation_xyz
x,y,z
-x,-y,z
x,-y,-z
-x,y,-z
1/2+x,1/2+y,1/2+z
1/2-x,1/2-y,1/2+z
1/2+x,1/2-y,1/2-z
1/2-x,1/2+y,1/2-z
loop_
_atom_site_type_symbol
_atom_site_label
_atom_site_fract_x
_atom_site_fract_y
_atom_site_fract_z
Si Si1 0.185430 0.356557 0.273936
Si Si2 0.312415 0.267061 0.596957
Si Si3 0.808732 0.502066 0.062887
Si Si4 0.185731 0.637149 0.296691
Si Si5 0.316882 0.743807 0.615160
Si Si6 0.172532 0.356110 0.489981
O O1 0.237647 0.502179 0.273052
O O2 0.230632 0.260842 0.226531
O O3 0.261940 0.295479 0.326504
O O4 0.997869 0.355560 0.282185
O O5 0.217042 0.352234 0.638887
O O6 0.495458 0.269779 0.611839
O O7 0.291441 0.305433 0.534765
O O8 0.257855 0.124239 0.594993
O O9 0.767073 0.381253 0.096844
O O10 0.000000 0.500000 0.060256
O O11 0.754371 0.500000 0.000000
O O12 0.235242 0.661704 0.569682
O O13 0.159940 0.500000 0.500000
O O14 0.000000 0.298508 0.500000
#
# Coordination Sequence:
#
# PCOD9332225 Si02
#       6
#     8   8   8   8   8   8
#     4  11  26  47  69  96 131 170 215 271 330 388
#     4  11  22  39  65  93 126 167 213 264 321 387
#     4   9  18  36  60  92 130 166 204 255 316 375
#     4  11  26  47  69  96 131 170 215 271 330 388
#     4  11  22  39  65  93 126 167 213 264 321 387
#     4  11  23  38  57  86 126 167 208 261 322 384
#
# _framework density 21.128854
#
# number of rings (size 3 to 8) (size 9 to 14) (size 15 to 20)
#    0.000    1.333    1.667    3.500    2.333    8.000 
#    0.000    3.333    0.000    0.000    0.000    0.000 
#    0.000    0.000    0.000    0.000    0.000    0.000 
#
# Total GULP energy -134045.949525 kJ/mol
# GULP energy per Si atom -5585.247897 kJ/mol
# Density = 2.108076 g / cm^3
# Si number density = 21.128854 Si / 1000 Ang^3
#
#
#
# Elastic Constant Matrix: (Units=GPa)
#
#
# Indices 1 2 3 4 5 6 
#
# 1 40.6745 12.0386 1.1085 0.0000 0.0000 0.0000
# 2 12.0386 74.6835 -17.0687 0.0000 0.0000 0.0000
# 3 1.1085 -17.0687 54.3915 0.0000 0.0000 0.0000
# 4 0.0000 0.0000 0.0000 30.8115 0.0000 0.0000
# 5 0.0000 0.0000 0.0000 0.0000 83.4927 0.0000
# 6 0.0000 0.0000 0.0000 0.0000 0.0000 -3.3303
#
#
#
# Elastic Compliance Matrix: (Units=1/GPa)
#
#
# Indices 1 2 3 4 5 6 
#
# 1 0.026015 -0.004648 -0.001989 0.000000 0.000000 0.000000
# 2 -0.004648 0.015255 0.004882 0.000000 0.000000 0.000000
# 3 -0.001989 0.004882 0.019958 0.000000 0.000000 0.000000
# 4 0.000000 0.000000 0.000000 0.032455 0.000000 0.000000
# 5 0.000000 0.000000 0.000000 0.000000 0.011977 0.000000
# 6 0.000000 0.000000 0.000000 0.000000 0.000000 -0.300275
#
#
# Mechanical properties :
#
#
# Convention : Reuss Voigt Hill
#
# Bulk Modulus (GPa) = 17.32566 17.98960 17.65763
# Shear Modulus (GPa) = -29.09261 33.77285 2.34012
#
# Velocity S-wave (km/s) = -3.71470 4.00237 1.05354
# Velocity P-wave (km/s) = 3.19075 5.46729 3.13930
#
# Compressibility (1/GPa) = 0.05771785
#
# Stress axis : x y z
#
# Youngs Moduli (GPa) = 38.43884 65.55303 50.10592
#
# Poissons Ratio (x) = 0.30470 0.09965
# Poissons Ratio (y) = 0.17867 -0.24461
# Poissons Ratio (z) = 0.07645 -0.32002
#
# Static dielectric constant tensor:
#      x y z
#    x 1.766110 0.000000 0.000000 
#    y 0.000000 1.835370 0.000000 
#    z 0.000000 0.000000 3.101640 
# 
# From -- ./inp_files/8695.got.cif
#   From: 2010.05.17/outbox.cif.g08.bks.cpg/sg23_5_cif.got.tgz:8695.got - 2010.06.04 12:02:01.
