data_PCOD9332205
_publ_section_title
;
Structure prediction by ZEFSAII (Michael W. Deem and Ramdas Pophale) SiO2 
 PCOD9332205
Probable space group: I 2 2 2
;
_chemical_formula_sum "Si O2"
_cell_formula_units_Z 64
_cell_length_a 9.320013
_cell_length_b 27.921694
_cell_length_c 12.471314
_cell_angle_alpha 90.000000
_cell_angle_beta 90.000000
_cell_angle_gamma 90.000000
_cell_volume 3245.416915
_symmetry_space_group_name_H-M "I 2 2 2"
_symmetry_group_IT_number 23
_symmetry_cell_setting 'orthorhombic'
loop_
_space_group_symop_operation_xyz
x,y,z
-x,-y,z
x,-y,-z
-x,y,-z
1/2+x,1/2+y,1/2+z
1/2-x,1/2-y,1/2+z
1/2+x,1/2-y,1/2-z
1/2-x,1/2+y,1/2-z
loop_
_atom_site_type_symbol
_atom_site_label
_atom_site_fract_x
_atom_site_fract_y
_atom_site_fract_z
Si Si1 0.044721 0.946819 0.256003
Si Si2 0.563490 0.866562 0.608321
Si Si3 0.164593 0.700168 0.228864
Si Si4 0.250847 0.052147 0.946825
Si Si5 0.031498 0.771336 0.630309
Si Si6 0.111416 0.134764 0.597451
Si Si7 0.278646 0.606558 0.343538
Si Si8 0.492933 0.054916 0.781870
O O1 0.143417 0.950449 0.152221
O O2 0.119158 0.916746 0.348379
O O3 0.914010 0.913631 0.219001
O O4 0.000000 0.000000 0.288711
O O5 0.500000 0.888110 0.500000
O O6 0.448637 0.826933 0.649773
O O7 0.724211 0.848929 0.580674
O O8 0.570116 0.907299 0.698377
O O9 0.062657 0.733292 0.303023
O O10 0.299006 0.725637 0.165428
O O11 0.236074 0.659679 0.306143
O O12 0.404461 0.058742 0.891866
O O13 0.210283 0.093977 0.030274
O O14 0.245134 0.000000 0.000000
O O15 0.963527 0.822603 0.662689
O O16 0.000000 0.765707 0.500000
O O17 0.000000 0.129492 0.500000
O O18 0.151223 0.572296 0.305360
O O19 0.500000 0.000000 0.745552
#
# Coordination Sequence:
#
# PCOD9332205 Si02
#       8
#     8   8   8   8   8   8   8   8
#     4  12  23  41  64  99 138 184 231 276 337 413
#     4  11  24  43  68  96 129 180 231 287 354 409
#     4  11  25  47  72 104 140 177 233 301 351 433
#     4  12  22  39  63  95 139 187 229 275 343 412
#     4  11  24  47  75 102 139 182 230 296 366 427
#     4  11  24  45  70  95 135 183 230 284 350 412
#     4  11  24  38  63  95 141 178 226 280 341 407
#     4  11  22  38  60  94 131 179 231 282 331 411
#
# _framework density 19.720115
#
# number of rings (size 3 to 8) (size 9 to 14) (size 15 to 20)
#    0.000    0.750    5.000    3.000    1.750    2.500 
#    2.250    1.250    0.000    0.000    0.000    0.000 
#    0.000    0.000    0.000    0.000    0.000    0.000 
#
# Total GULP energy -178464.859376 kJ/mol
# GULP energy per Si atom -5577.026855 kJ/mol
# Density = 1.967523 g / cm^3
# Si number density = 19.720115 Si / 1000 Ang^3
#
#
#
# Elastic Constant Matrix: (Units=GPa)
#
#
# Indices 1 2 3 4 5 6 
#
# 1 125.3094 30.1689 28.9159 0.0000 0.0000 0.0000
# 2 30.1689 100.8765 40.8199 0.0000 0.0000 0.0000
# 3 28.9159 40.8199 82.3358 -0.0004 0.0002 0.0001
# 4 0.0000 0.0000 -0.0004 26.0772 0.0001 0.0001
# 5 0.0000 0.0000 0.0002 0.0001 16.5010 0.0000
# 6 0.0000 0.0000 0.0001 0.0001 0.0000 26.5656
#
#
#
# Elastic Compliance Matrix: (Units=1/GPa)
#
#
# Indices 1 2 3 4 5 6 
#
# 1 0.008925 -0.001752 -0.002266 0.000000 0.000000 0.000000
# 2 -0.001752 0.012745 -0.005703 0.000000 0.000000 0.000000
# 3 -0.002266 -0.005703 0.015769 0.000000 0.000000 0.000000
# 4 0.000000 0.000000 0.000000 0.038348 0.000000 0.000000
# 5 0.000000 0.000000 0.000000 0.000000 0.060603 0.000000
# 6 0.000000 0.000000 0.000000 0.000000 0.000000 0.037643
#
#
# Mechanical properties :
#
#
# Convention : Reuss Voigt Hill
#
# Bulk Modulus (GPa) = 55.56758 56.48124 56.02441
# Shear Modulus (GPa) = 25.06613 27.73657 26.40135
#
# Velocity S-wave (km/s) = 3.56911 3.75442 3.66294
# Velocity P-wave (km/s) = 6.72488 6.89187 6.80888
#
# Compressibility (1/GPa) = 0.01799611
#
# Stress axis : x y z
#
# Youngs Moduli (GPa) = 112.04555 78.46206 63.41738
#
# Poissons Ratio (x) = 0.13750 0.14368
# Poissons Ratio (y) = 0.19635 0.36168
# Poissons Ratio (z) = 0.25385 0.44749
#
# Static dielectric constant tensor:
#      x y z
#    x 1.711060 0.000000 0.000000 
#    y 0.000000 1.691460 0.000000 
#    z 0.000000 0.000000 1.678990 
# 
# From -- ./inp_files/14982.got.cif
#   From: 2010.05.17/outbox.cif.g08.bks.cpg/sg23_8_cif.got.tgz:14982.got - 2010.06.04 12:02:01.
