data_PCOD9332314
_publ_section_title
;
Structure prediction by ZEFSAII (Michael W. Deem and Ramdas Pophale) SiO2 
 PCOD9332314
Probable space group: I 2 2 2
;
_chemical_formula_sum "Si O2"
_cell_formula_units_Z 40
_cell_length_a 7.891300
_cell_length_b 9.170954
_cell_length_c 23.570804
_cell_angle_alpha 90.000000
_cell_angle_beta 90.000000
_cell_angle_gamma 90.000000
_cell_volume 1705.836747
_symmetry_space_group_name_H-M "I 2 2 2"
_symmetry_group_IT_number 23
_symmetry_cell_setting 'orthorhombic'
loop_
_space_group_symop_operation_xyz
x,y,z
-x,-y,z
x,-y,-z
-x,y,-z
1/2+x,1/2+y,1/2+z
1/2-x,1/2-y,1/2+z
1/2+x,1/2-y,1/2-z
1/2-x,1/2+y,1/2-z
loop_
_atom_site_type_symbol
_atom_site_label
_atom_site_fract_x
_atom_site_fract_y
_atom_site_fract_z
Si Si1 0.245630 0.500000 0.000000
Si Si2 0.971950 0.671136 0.301795
Si Si3 0.500000 0.000000 0.000000
Si Si4 0.434924 0.255897 0.078535
Si Si5 0.000000 0.000000 0.000000
Si Si6 0.654841 0.248252 0.573808
Si Si7 0.932229 0.165116 0.187652
O O1 0.352588 0.608462 0.956029
O O2 0.134886 0.394841 0.962013
O O3 0.089745 0.731432 0.353796
O O4 0.771316 0.675465 0.312588
O O5 0.000000 0.500000 0.294213
O O6 0.005501 0.760234 0.244775
O O7 0.600525 0.890364 0.042157
O O8 0.640115 0.260074 0.078963
O O9 0.105824 0.107279 0.959907
O O10 0.535020 0.250689 0.628966
O O11 0.000000 0.000000 0.184556
#
# Coordination Sequence:
#
# PCOD9332314 Si02
#       7
#     4   8   2   8   2   8   8
#     4  12  25  43  76 115 150 184 245 302 365 434
#     4  11  25  45  73 105 141 194 246 307 367 432
#     4  12  18  38  68 106 140 184 244 286 354 426
#     4  11  23  41  72 109 141 188 242 300 354 431
#     4  12  26  46  70  96 148 200 240 268 372 442
#     4  11  24  45  70 102 147 192 233 303 357 437
#     4  11  25  49  72 103 141 189 251 305 369 441
#
# _framework density 23.448903000000001
#
# number of rings (size 3 to 8) (size 9 to 14) (size 15 to 20)
#    0.000    0.800    4.000    3.000    0.000    5.200 
#    7.200    0.000    0.000    0.000    0.000    0.000 
#    0.000    0.000    0.000    0.000    0.000    0.000 
#
# Total GULP energy -111661.249954 kJ/mol
# GULP energy per Si atom -5583.062498 kJ/mol
# Density = 2.339553 g / cm^3
# Si number density = 23.448903 Si / 1000 Ang^3
#
#
#
# Elastic Constant Matrix: (Units=GPa)
#
#
# Indices 1 2 3 4 5 6 
#
# 1 63.5680 47.1341 37.1332 0.0000 0.0000 0.0000
# 2 47.1341 204.3054 121.7139 0.0000 0.0000 0.0000
# 3 37.1332 121.7139 224.4770 0.0000 0.0000 0.0000
# 4 0.0000 0.0000 0.0000 -4.7381 0.0000 0.0000
# 5 0.0000 0.0000 0.0000 0.0000 18.1851 0.0000
# 6 0.0000 0.0000 0.0000 0.0000 0.0000 54.0760
#
#
#
# Elastic Compliance Matrix: (Units=1/GPa)
#
#
# Indices 1 2 3 4 5 6 
#
# 1 0.019174 -0.003743 -0.001142 0.000000 0.000000 0.000000
# 2 -0.003743 0.007961 -0.003697 0.000000 0.000000 0.000000
# 3 -0.001142 -0.003697 0.006648 0.000000 0.000000 0.000000
# 4 0.000000 0.000000 0.000000 -0.211056 0.000000 0.000000
# 5 0.000000 0.000000 0.000000 0.000000 0.054990 0.000000
# 6 0.000000 0.000000 0.000000 0.000000 0.000000 0.018493
#
#
# Mechanical properties :
#
#
# Convention : Reuss Voigt Hill
#
# Bulk Modulus (GPa) = 60.17573 100.47921 80.32747
# Shear Modulus (GPa) = -61.66275 32.59589 -14.53343
#
# Velocity S-wave (km/s) = -5.13359 3.73242 -2.49226
# Velocity P-wave (km/s) = 3.06922 7.84334 5.10382
#
# Compressibility (1/GPa) = 0.01661800
#
# Stress axis : x y z
#
# Youngs Moduli (GPa) = 52.15467 125.61603 150.41119
#
# Poissons Ratio (x) = 0.47018 0.17181
# Poissons Ratio (y) = 0.19521 0.55611
# Poissons Ratio (z) = 0.05957 0.46443
#
# Static dielectric constant tensor:
#      x y z
#    x 2.099990 0.000000 0.000000 
#    y 0.000000 1.888710 0.000000 
#    z 0.000000 0.000000 2.053880 
# 
# From -- ./inp_files/26626.got.cif
#   From: 2010.05.17/outbox.cif.g08.bks.cpg/sg23_14_cif.got.tgz:26626.got - 2010.06.04 12:02:01.
