data_PCOD9332908
_publ_section_title
;
Structure prediction by ZEFSAII (Michael W. Deem and Ramdas Pophale) SiO2 
 PCOD9332908
Probable space group: I 21 21 21
;
_chemical_formula_sum "Si O2"
_cell_formula_units_Z 36
_cell_length_a 20.300235
_cell_length_b 9.729862
_cell_length_c 7.068765
_cell_angle_alpha 90.000000
_cell_angle_beta 90.000000
_cell_angle_gamma 90.000000
_cell_volume 1396.211754
_symmetry_space_group_name_H-M "I 21 21 21"
_symmetry_group_IT_number 24
_symmetry_cell_setting 'orthorhombic'
loop_
_space_group_symop_operation_xyz
x,y,z
-x,1/2-y,z
x,-y,1/2-z
1/2-x,y,-z
1/2+x,1/2+y,1/2+z
1/2-x,-y,1/2+z
1/2+x,1/2-y,-z
-x,1/2+y,1/2-z
loop_
_atom_site_type_symbol
_atom_site_label
_atom_site_fract_x
_atom_site_fract_y
_atom_site_fract_z
Si Si1 0.116736 0.981970 0.980302
Si Si2 0.250000 0.463906 0.000000
Si Si3 0.534315 0.016601 0.479235
Si Si4 0.850850 0.800303 0.908185
Si Si5 0.134266 0.714312 0.455617
O O1 0.134108 0.123929 0.084454
O O2 0.116376 0.000000 0.750000
O O3 0.162011 0.847162 0.000924
O O4 0.040436 0.957787 0.033939
O O5 0.301631 0.573525 0.078979
O O6 0.299649 0.362956 0.884988
O O7 0.582764 0.144301 0.505796
O O8 0.533714 0.000000 0.250000
O O9 0.569585 0.881901 0.570088
O O10 0.860055 0.784214 0.684566
#
# Coordination Sequence:
#
# PCOD9332908 Si02
#       5
#     8   4   8   8   8
#     4   9  15  24  40  61  83 104 126 159 200 237
#     4  10  18  28  38  50  80 114 140 162 188 224
#     4   8  13  23  39  59  83 106 123 147 194 246
#     4   9  17  27  40  59  82 107 134 161 190 231
#     4   9  17  27  40  59  82 107 134 161 190 231
#
# _framework density 25.784053
#
# number of rings (size 3 to 8) (size 9 to 14) (size 15 to 20)
#    0.000    3.111    0.000    3.333    0.000    6.222 
#    0.000    0.000    0.000    0.000    0.000    0.000 
#    0.000  113.778    0.000    0.000    0.000    0.000 
#
# Total GULP energy -100471.344562 kJ/mol
# GULP energy per Si atom -5581.741365 kJ/mol
# Density = 2.572537 g / cm^3
# Si number density = 25.784053 Si / 1000 Ang^3
#
#
#
# Elastic Constant Matrix: (Units=GPa)
#
#
# Indices 1 2 3 4 5 6 
#
# 1 110.2355 81.9243 -1.6230 0.0000 0.0000 0.0000
# 2 81.9243 230.4045 -5.0305 0.0000 0.0000 0.0000
# 3 -1.6230 -5.0305 99.4835 0.0000 0.0000 0.0000
# 4 0.0000 0.0000 0.0000 10.5418 0.0000 0.0000
# 5 0.0000 0.0000 0.0000 0.0000 14.0948 0.0000
# 6 0.0000 0.0000 0.0000 0.0000 0.0000 -8.2317
#
#
#
# Elastic Compliance Matrix: (Units=1/GPa)
#
#
# Indices 1 2 3 4 5 6 
#
# 1 0.012330 -0.004384 -0.000021 0.000000 0.000000 0.000000
# 2 -0.004384 0.005904 0.000227 0.000000 0.000000 0.000000
# 3 -0.000021 0.000227 0.010063 0.000000 0.000000 0.000000
# 4 0.000000 0.000000 0.000000 0.094861 0.000000 0.000000
# 5 0.000000 0.000000 0.000000 0.000000 0.070948 0.000000
# 6 0.000000 0.000000 0.000000 0.000000 0.000000 -0.121482
#
#
# Mechanical properties :
#
#
# Convention : Reuss Voigt Hill
#
# Bulk Modulus (GPa) = 50.14844 65.62946 57.88895
# Shear Modulus (GPa) = 57.06066 27.60450 42.33258
#
# Velocity S-wave (km/s) = 4.70938 3.27556 4.05632
# Velocity P-wave (km/s) = 7.00447 6.30987 6.66622
#
# Compressibility (1/GPa) = 0.01994080
#
# Stress axis : x y z
#
# Youngs Moduli (GPa) = 81.10563 169.37334 99.37331
#
# Poissons Ratio (x) = 0.74261 0.00204
# Poissons Ratio (y) = 0.35560 -0.02256
# Poissons Ratio (z) = 0.00167 -0.03845
#
# Static dielectric constant tensor:
#      x y z
#    x 1.973370 0.000000 0.000000 
#    y 0.000000 2.019610 0.000000 
#    z 0.000000 0.000000 2.224780 
# 
# From -- ./inp_files/10925.got.cif
#   From: 2010.05.17/outbox.cif.g08.bks.cpg/sg24_6_cif.got.tgz:10925.got - 2010.06.04 00:33:39.
