data_PCOD9332879
_publ_section_title
;
Structure prediction by ZEFSAII (Michael W. Deem and Ramdas Pophale) SiO2 
 PCOD9332879
Probable space group: I 21 21 21
;
_chemical_formula_sum "Si O2"
_cell_formula_units_Z 28
_cell_length_a 17.872929
_cell_length_b 7.575197
_cell_length_c 8.078373
_cell_angle_alpha 90.000000
_cell_angle_beta 90.000000
_cell_angle_gamma 90.000000
_cell_volume 1093.738661
_symmetry_space_group_name_H-M "I 21 21 21"
_symmetry_group_IT_number 24
_symmetry_cell_setting 'orthorhombic'
loop_
_space_group_symop_operation_xyz
x,y,z
-x,1/2-y,z
x,-y,1/2-z
1/2-x,y,-z
1/2+x,1/2+y,1/2+z
1/2-x,-y,1/2+z
1/2+x,1/2-y,-z
-x,1/2+y,1/2-z
loop_
_atom_site_type_symbol
_atom_site_label
_atom_site_fract_x
_atom_site_fract_y
_atom_site_fract_z
Si Si1 0.569096 0.873008 0.074113
Si Si2 0.500000 0.750000 0.475536
Si Si3 0.630499 0.290980 0.768437
Si Si4 0.284307 0.195426 0.313858
O O1 0.500000 0.750000 0.118704
O O2 0.593053 0.817006 0.884031
O O3 0.533957 0.066227 0.090194
O O4 0.643073 0.816164 0.173147
O O5 0.571522 0.702430 0.586389
O O6 0.644872 0.500000 0.750000
O O7 0.715514 0.224361 0.792263
O O8 0.250000 0.178106 0.500000
O O9 0.306246 0.000000 0.250000
#
# Coordination Sequence:
#
# PCOD9332879 Si02
#       4
#     8   4   8   8
#     4  11  21  37  68 104 146 190 250 310 375 443
#     4  12  20  34  72 108 146 186 260 312 366 448
#     4  10  17  35  66 107 143 192 244 315 374 443
#     4   9  21  40  74 105 151 198 247 315 387 455
#
# _framework density 25.600263000000002
#
# number of rings (size 3 to 8) (size 9 to 14) (size 15 to 20)
#    0.000    1.714    4.286    0.857    0.000    0.000 
#    0.000    0.000   59.714    0.000    0.000    0.000 
#    0.000    0.000    0.000    0.000    0.000    0.000 
#
# Total GULP energy -78228.413709 kJ/mol
# GULP energy per Si atom -5587.743836 kJ/mol
# Density = 2.554200 g / cm^3
# Si number density = 25.600263 Si / 1000 Ang^3
#
#
#
# Elastic Constant Matrix: (Units=GPa)
#
#
# Indices 1 2 3 4 5 6 
#
# 1 285.6862 145.4618 67.8660 0.0000 0.0000 0.0000
# 2 145.4618 178.5028 65.8354 0.0000 0.0000 0.0000
# 3 67.8660 65.8354 51.1896 0.0000 0.0000 0.0000
# 4 0.0000 0.0000 0.0000 26.8622 0.0000 0.0000
# 5 0.0000 0.0000 0.0000 0.0000 19.9179 0.0000
# 6 0.0000 0.0000 0.0000 0.0000 0.0000 29.9829
#
#
#
# Elastic Compliance Matrix: (Units=1/GPa)
#
#
# Indices 1 2 3 4 5 6 
#
# 1 0.006264 -0.003884 -0.003310 0.000000 0.000000 0.000000
# 2 -0.003884 0.013066 -0.011654 0.000000 0.000000 0.000000
# 3 -0.003310 -0.011654 0.038912 0.000000 0.000000 0.000000
# 4 0.000000 0.000000 0.000000 0.037227 0.000000 0.000000
# 5 0.000000 0.000000 0.000000 0.000000 0.050206 0.000000
# 6 0.000000 0.000000 0.000000 0.000000 0.000000 0.033352
#
#
# Mechanical properties :
#
#
# Convention : Reuss Voigt Hill
#
# Bulk Modulus (GPa) = 48.67245 119.30057 83.98651
# Shear Modulus (GPa) = 22.36416 31.10029 26.73222
#
# Velocity S-wave (km/s) = 2.95886 3.48924 3.23494
# Velocity P-wave (km/s) = 5.54319 7.93319 6.84333
#
# Compressibility (1/GPa) = 0.02054550
#
# Stress axis : x y z
#
# Youngs Moduli (GPa) = 159.63809 76.53668 25.69905
#
# Poissons Ratio (x) = 0.29727 0.08505
# Poissons Ratio (y) = 0.62004 0.29951
# Poissons Ratio (z) = 0.52834 0.89199
#
# Static dielectric constant tensor:
#      x y z
#    x 2.009630 0.000000 0.000000 
#    y 0.000000 2.010140 0.000000 
#    z 0.000000 0.000000 2.338410 
# 
# From -- ./inp_files/20318.got.cif
#   From: 2010.05.17/outbox.cif.g08.bks.cpg/sg24_11_cif.got.tgz:20318.got - 2010.06.04 00:33:39.
