data_PCOD9332913
_publ_section_title
;
Structure prediction by ZEFSAII (Michael W. Deem and Ramdas Pophale) SiO2 
 PCOD9332913
Probable space group: I 21 21 21
;
_chemical_formula_sum "Si O2"
_cell_formula_units_Z 64
_cell_length_a 7.300732
_cell_length_b 23.340315
_cell_length_c 18.422175
_cell_angle_alpha 90.000000
_cell_angle_beta 90.000000
_cell_angle_gamma 90.000000
_cell_volume 3139.164128
_symmetry_space_group_name_H-M "I 21 21 21"
_symmetry_group_IT_number 24
_symmetry_cell_setting 'orthorhombic'
loop_
_space_group_symop_operation_xyz
x,y,z
-x,1/2-y,z
x,-y,1/2-z
1/2-x,y,-z
1/2+x,1/2+y,1/2+z
1/2-x,-y,1/2+z
1/2+x,1/2-y,-z
-x,1/2+y,1/2-z
loop_
_atom_site_type_symbol
_atom_site_label
_atom_site_fract_x
_atom_site_fract_y
_atom_site_fract_z
Si Si1 0.186536 0.285791 0.581919
Si Si2 0.765274 0.551773 0.585351
Si Si3 0.776152 0.757018 0.760136
Si Si4 0.799432 0.038872 0.917934
Si Si5 0.227544 0.043653 0.684879
Si Si6 0.801141 0.120001 0.789656
Si Si7 0.339638 0.584012 0.132058
Si Si8 0.251965 0.865225 0.293831
O O1 0.250000 0.275312 0.500000
O O2 0.285052 0.264072 0.655937
O O3 0.175759 0.354551 0.593610
O O4 0.000000 0.250000 0.585563
O O5 0.750000 0.554262 0.500000
O O6 0.676116 0.496891 0.625771
O O7 0.702041 0.607785 0.628822
O O8 0.982692 0.543434 0.595104
O O9 0.732180 0.815034 0.717034
O O10 0.705531 0.699789 0.722558
O O11 0.000000 0.750000 0.761003
O O12 0.728925 0.082461 0.856406
O O13 0.755948 0.971791 0.906017
O O14 0.750000 0.055476 0.000000
O O15 0.323558 0.094274 0.729262
O O16 0.055722 0.071977 0.644347
O O17 0.166372 0.000000 0.750000
O O18 0.762177 0.089214 0.713445
O O19 0.024708 0.127179 0.791049
#
# Coordination Sequence:
#
# PCOD9332913 Si02
#       8
#     8   8   8   8   8   8   8   8
#     4  10  19  30  45  66  92 116 140 176 216 255
#     4   9  17  28  43  64  90 115 140 178 222 259
#     4   8  14  26  45  66  83 107 148 187 211 242
#     4  10  18  28  44  66  90 112 138 177 220 259
#     4   8  13  23  42  65  85 109 145 184 213 244
#     4   8  14  25  44  65  83 107 145 186 213 244
#     4   9  15  27  46  65  84 112 149 178 208 249
#     4   8  13  25  44  63  82 110 149 184 212 246
#
# _framework density 20.387591
#
# number of rings (size 3 to 8) (size 9 to 14) (size 15 to 20)
#    0.000    3.250    0.000    5.250    0.000    0.000 
#    0.000    6.250    0.000    7.500    0.000    0.000 
#    0.000    0.000    0.000    0.000    0.000    0.000 
#
# Total GULP energy -178206.620952 kJ/mol
# GULP energy per Si atom -5568.956905 kJ/mol
# Density = 2.034119 g / cm^3
# Si number density = 20.387591 Si / 1000 Ang^3
#
#
#
# Elastic Constant Matrix: (Units=GPa)
#
#
# Indices 1 2 3 4 5 6 
#
# 1 50.7550 6.7466 0.4259 0.0000 0.0000 0.0000
# 2 6.7466 159.9583 95.6044 0.0000 0.0000 0.0000
# 3 0.4259 95.6044 163.8670 0.0000 0.0000 0.0000
# 4 0.0000 0.0000 0.0000 23.2136 0.0000 0.0000
# 5 0.0000 0.0000 0.0000 0.0000 17.8613 0.0000
# 6 0.0000 0.0000 0.0000 0.0000 0.0000 -0.4667
#
#
#
# Elastic Compliance Matrix: (Units=1/GPa)
#
#
# Indices 1 2 3 4 5 6 
#
# 1 0.019862 -0.001239 0.000671 0.000000 0.000000 0.000000
# 2 -0.001239 0.009676 -0.005642 0.000000 0.000000 0.000000
# 3 0.000671 -0.005642 0.009392 0.000000 0.000000 0.000000
# 4 0.000000 0.000000 0.000000 0.043078 0.000000 0.000000
# 5 0.000000 0.000000 0.000000 0.000000 0.055987 0.000000
# 6 0.000000 0.000000 0.000000 0.000000 0.000000 -2.142876
#
#
# Mechanical properties :
#
#
# Convention : Reuss Voigt Hill
#
# Bulk Modulus (GPa) = 37.72076 64.45935 51.09006
# Shear Modulus (GPa) = -2.52064 26.24189 11.86063
#
# Velocity S-wave (km/s) = -1.11312 3.59158 2.41458
# Velocity P-wave (km/s) = 4.10974 6.99177 5.73475
#
# Compressibility (1/GPa) = 0.02651060
#
# Stress axis : x y z
#
# Youngs Moduli (GPa) = 50.34858 103.34810 106.46811
#
# Poissons Ratio (x) = 0.12803 -0.07146
# Poissons Ratio (y) = 0.06237 0.60070
# Poissons Ratio (z) = -0.03379 0.58309
#
# Static dielectric constant tensor:
#      x y z
#    x 1.821220 0.000000 0.000000 
#    y 0.000000 1.730470 0.000000 
#    z 0.000000 0.000000 1.715820 
# 
# From -- ./inp_files/29877.got.cif
#   From: 2010.05.17/outbox.cif.g08.bks.cpg/sg24_15_cif.got.tgz:29877.got - 2010.06.04 00:33:39.
