data_PCOD9332709
_publ_section_title
;
Structure prediction by ZEFSAII (Michael W. Deem and Ramdas Pophale) SiO2 
 PCOD9332709
Probable space group: I 21 21 21
;
_chemical_formula_sum "Si O2"
_cell_formula_units_Z 48
_cell_length_a 17.879108
_cell_length_b 27.390919
_cell_length_c 5.369025
_cell_angle_alpha 90.000000
_cell_angle_beta 90.000000
_cell_angle_gamma 90.000000
_cell_volume 2629.346837
_symmetry_space_group_name_H-M "I 21 21 21"
_symmetry_group_IT_number 24
_symmetry_cell_setting 'orthorhombic'
loop_
_space_group_symop_operation_xyz
x,y,z
-x,1/2-y,z
x,-y,1/2-z
1/2-x,y,-z
1/2+x,1/2+y,1/2+z
1/2-x,-y,1/2+z
1/2+x,1/2-y,-z
-x,1/2+y,1/2-z
loop_
_atom_site_type_symbol
_atom_site_label
_atom_site_fract_x
_atom_site_fract_y
_atom_site_fract_z
Si Si1 0.465803 0.514867 0.000000
Si Si2 0.663662 0.256463 0.000000
Si Si3 0.579822 0.222260 0.500000
Si Si4 0.009356 0.872037 0.000000
Si Si5 0.392517 0.136234 0.000000
Si Si6 0.634590 0.526106 0.500000
O O1 0.424896 0.500000 0.750000
O O2 0.424896 0.500000 0.250000
O O3 0.486613 0.571447 1.000000
O O4 0.543909 0.483305 0.000000
O O5 0.623205 0.237285 0.249601
O O6 0.750000 0.241946 0.000000
O O7 0.623205 0.237285 0.750399
O O8 0.656830 0.315333 1.000000
O O9 0.500000 0.250000 0.500000
O O10 0.559542 0.165134 0.500000
O O11 0.057455 0.862687 0.750447
O O12 0.057454 0.862687 0.249555
O O13 0.351910 0.083724 1.000000
O O14 0.661895 0.500000 0.250000
O O15 0.661895 0.500000 0.750000
#
# Coordination Sequence:
#
# PCOD9332709 Si02
#       6
#     8   8   8   8   8   8
#     4  10  16  27  44  76 116 147 164 223 299 329
#     4  12  26  43  59  82 120 163 198 242 299 353
#     4  12  23  40  62  88 116 145 202 257 294 340
#     4  12  20  30  55  86 112 144 188 238 292 331
#     4  12  19  32  55  80 110 154 192 229 282 344
#     4  10  16  27  45  75 108 151 176 223 290 319
#
# _framework density 18.255485
#
# number of rings (size 3 to 8) (size 9 to 14) (size 15 to 20)
#    0.000    0.667   10.000    2.000    0.000    0.000 
#    0.000    0.000    0.000    1.000    0.000    0.000 
#    0.000   13.333    0.000    0.000    0.000    0.000 
#
# Total GULP energy -134037.057078 kJ/mol
# GULP energy per Si atom -5584.877378 kJ/mol
# Density = 1.821393 g / cm^3
# Si number density = 18.255485 Si / 1000 Ang^3
#
#
#
# Elastic Constant Matrix: (Units=GPa)
#
#
# Indices 1 2 3 4 5 6 
#
# 1 82.3750 30.4674 56.8777 0.0000 -0.0009 0.0000
# 2 30.4674 91.8222 28.8570 0.0000 -0.0022 0.0000
# 3 56.8777 28.8570 208.6155 0.0000 -0.0150 0.0000
# 4 0.0000 0.0000 0.0000 24.7914 -0.0003 0.0000
# 5 -0.0009 -0.0022 -0.0150 -0.0003 -968.6389 -0.0003
# 6 0.0000 0.0000 0.0000 0.0000 -0.0003 1.3234
#
#
#
# Elastic Compliance Matrix: (Units=1/GPa)
#
#
# Indices 1 2 3 4 5 6 
#
# 1 0.016379 -0.004215 -0.003883 0.000000 0.000000 0.000000
# 2 -0.004215 0.012470 -0.000576 0.000000 0.000000 0.000000
# 3 -0.003883 -0.000576 0.005932 0.000000 0.000000 0.000000
# 4 0.000000 0.000000 0.000000 0.040337 0.000000 0.000000
# 5 0.000000 0.000000 0.000000 0.000000 -0.001032 0.000000
# 6 0.000000 0.000000 0.000000 0.000000 0.000000 0.755619
#
#
# Mechanical properties :
#
#
# Convention : Reuss Voigt Hill
#
# Bulk Modulus (GPa) = 57.35656 68.35742 62.85699
# Shear Modulus (GPa) = 5.86261 -170.73078 -82.43408
#
# Velocity S-wave (km/s) = 1.79399 -9.68122 -6.72710
# Velocity P-wave (km/s) = 5.98149 9.35104 5.08250
#
# Compressibility (1/GPa) = 0.01743480
#
# Stress axis : x y z
#
# Youngs Moduli (GPa) = 61.05248 80.19235 168.58383
#
# Poissons Ratio (x) = 0.33798 0.65457
# Poissons Ratio (y) = 0.25731 0.09708
# Poissons Ratio (z) = 0.23705 0.04618
#
# Static dielectric constant tensor:
#      x y z
#    x 1.598410 0.000000 0.000000 
#    y 0.000000 1.633040 0.000000 
#    z 0.000000 0.000000 1.686060 
# 
# From -- ./inp_files/3744.got.cif
#   From: 2010.05.17/outbox.cif.g08.bks.cpg/sg24_2_cif.got.tgz:3744.got - 2010.06.04 00:33:39.
