data_PCOD9332425
_publ_section_title
;
Structure prediction by ZEFSAII (Michael W. Deem and Ramdas Pophale) SiO2 
 PCOD9332425
Probable space group: I 2 2 2
;
_chemical_formula_sum "Si O2"
_cell_formula_units_Z 34
_cell_length_a 5.740907
_cell_length_b 32.952235
_cell_length_c 7.935252
_cell_angle_alpha 90.000000
_cell_angle_beta 90.000000
_cell_angle_gamma 90.000000
_cell_volume 1501.156983
_symmetry_space_group_name_H-M "I 2 2 2"
_symmetry_group_IT_number 23
_symmetry_cell_setting 'orthorhombic'
loop_
_space_group_symop_operation_xyz
x,y,z
-x,-y,z
x,-y,-z
-x,y,-z
1/2+x,1/2+y,1/2+z
1/2-x,1/2-y,1/2+z
1/2+x,1/2-y,1/2-z
1/2-x,1/2+y,1/2-z
loop_
_atom_site_type_symbol
_atom_site_label
_atom_site_fract_x
_atom_site_fract_y
_atom_site_fract_z
Si Si1 0.500000 0.681056 0.500000
Si Si2 0.500000 0.175104 0.500000
Si Si3 0.000000 0.500000 0.500000
Si Si4 0.123187 0.869757 0.677464
Si Si5 0.614084 0.458395 0.315708
Si Si6 0.248447 0.748670 0.845279
O O1 0.497700 0.653107 0.334225
O O2 0.286150 0.712195 0.466371
O O3 0.616161 0.147886 0.645733
O O4 0.697989 0.206481 0.438555
O O5 0.130987 0.529207 0.371913
O O6 0.112015 0.917652 0.711897
O O7 0.000000 0.862996 0.500000
O O8 0.500000 0.500000 0.244655
O O9 0.500000 0.451240 0.500000
O O10 0.007074 0.752191 0.733145
#
# Coordination Sequence:
#
# PCOD9332425 Si02
#       6
#     4   4   2   8   8   8
#     4  11  24  46  75  96 147 199 246 313 380 447
#     4  11  26  40  68 105 151 187 257 322 368 467
#     4   8  18  40  68 100 136 168 252 276 384 456
#     4  12  25  47  68 108 144 190 251 310 376 469
#     4   9  20  41  72 103 134 193 238 306 377 464
#     4  11  24  47  73 109 147 205 263 314 385 462
#
# _framework density 22.649197000000001
#
# number of rings (size 3 to 8) (size 9 to 14) (size 15 to 20)
#    0.000    1.647    3.529    1.412    0.000    7.059 
#    8.471    0.000    0.000    0.000    0.000    0.000 
#    0.000    0.000    0.000    0.000    0.000    0.000 
#
# Total GULP energy -94847.917713 kJ/mol
# GULP energy per Si atom -5579.289277 kJ/mol
# Density = 2.259765 g / cm^3
# Si number density = 22.649197 Si / 1000 Ang^3
#
#
#
# Elastic Constant Matrix: (Units=GPa)
#
#
# Indices 1 2 3 4 5 6 
#
# 1 97.7419 53.8546 54.9430 0.0000 0.0000 0.0000
# 2 53.8546 219.4334 83.4695 0.0000 0.0004 0.0001
# 3 54.9430 83.4695 130.6248 0.0001 -0.0002 0.0002
# 4 0.0000 0.0000 0.0001 54.1701 0.0006 0.0000
# 5 0.0000 0.0004 -0.0002 0.0006 129.0549 0.0000
# 6 0.0000 0.0001 0.0002 0.0000 0.0000 35.4109
#
#
#
# Elastic Compliance Matrix: (Units=1/GPa)
#
#
# Indices 1 2 3 4 5 6 
#
# 1 0.013790 -0.001556 -0.004806 0.000000 0.000000 0.000000
# 2 -0.001556 0.006196 -0.003305 0.000000 0.000000 0.000000
# 3 -0.004806 -0.003305 0.011789 0.000000 0.000000 0.000000
# 4 0.000000 0.000000 0.000000 0.018460 0.000000 0.000000
# 5 0.000000 0.000000 0.000000 0.000000 0.007749 0.000000
# 6 0.000000 0.000000 0.000000 0.000000 0.000000 0.028240
#
#
# Mechanical properties :
#
#
# Convention : Reuss Voigt Hill
#
# Bulk Modulus (GPa) = 80.37900 92.48159 86.43030
# Shear Modulus (GPa) = 45.57687 60.76270 53.16978
#
# Velocity S-wave (km/s) = 4.49073 5.18517 4.85039
# Velocity P-wave (km/s) = 7.90282 8.76178 8.34336
#
# Compressibility (1/GPa) = 0.01244106
#
# Stress axis : x y z
#
# Youngs Moduli (GPa) = 72.51627 161.38761 84.82717
#
# Poissons Ratio (x) = 0.25118 0.40766
# Poissons Ratio (y) = 0.11286 0.28034
# Poissons Ratio (z) = 0.34850 0.53335
#
# Static dielectric constant tensor:
#      x y z
#    x 1.924030 0.000000 0.000000 
#    y 0.000000 1.789920 0.000000 
#    z 0.000000 0.000000 1.962060 
# 
# From -- ./inp_files/862.got.cif
#   From: 2010.05.17/outbox.cif.g08.bks.cpg/sg23_1_cif.got.tgz:862.got - 2010.06.04 12:02:01.
