data_PCOD9332993
_publ_section_title
;
Structure prediction by ZEFSAII (Michael W. Deem and Ramdas Pophale) SiO2 
 PCOD9332993
Probable space group: I 21 21 21
;
_chemical_formula_sum "Si O2"
_cell_formula_units_Z 32
_cell_length_a 34.031609
_cell_length_b 7.178743
_cell_length_c 5.171443
_cell_angle_alpha 90.000000
_cell_angle_beta 90.000000
_cell_angle_gamma 90.000000
_cell_volume 1263.405115
_symmetry_space_group_name_H-M "I 21 21 21"
_symmetry_group_IT_number 24
_symmetry_cell_setting 'orthorhombic'
loop_
_space_group_symop_operation_xyz
x,y,z
-x,1/2-y,z
x,-y,1/2-z
1/2-x,y,-z
1/2+x,1/2+y,1/2+z
1/2-x,-y,1/2+z
1/2+x,1/2-y,-z
-x,1/2+y,1/2-z
loop_
_atom_site_type_symbol
_atom_site_label
_atom_site_fract_x
_atom_site_fract_y
_atom_site_fract_z
Si Si1 0.712855 0.277147 0.311750
Si Si2 0.413654 0.724097 0.720664
Si Si3 0.175036 0.784006 0.298422
Si Si4 0.545132 0.220898 0.276926
O O1 0.713814 0.500000 0.250000
O O2 0.750000 0.237628 0.500000
O O3 0.678641 0.209483 0.506198
O O4 0.703438 0.204083 0.022623
O O5 0.414514 0.500000 0.750000
O O6 0.370192 0.774914 0.625506
O O7 0.444684 0.791568 0.508053
O O8 0.425757 0.794877 0.003062
O O9 0.186014 0.000000 0.250000
O O10 0.500000 0.250000 0.350187
O O11 0.551121 0.000000 0.250000
#
# Coordination Sequence:
#
# PCOD9332993 Si02
#       4
#     8   8   8   8
#     4  10  18  31  51  78 108 135 169 218 267 306
#     4  10  21  37  54  76 108 143 174 211 265 318
#     4  10  20  32  52  80 104 134 177 217 257 308
#     4  10  21  36  55  78 104 138 177 216 263 314
#
# _framework density 25.328378000000001
#
# number of rings (size 3 to 8) (size 9 to 14) (size 15 to 20)
#    0.000    2.000    0.000    5.250    0.000    2.000 
#    0.000    0.000    0.000    3.000    0.000    7.000 
#    0.000    0.000    0.000    0.000    0.000    0.000 
#
# Total GULP energy -89289.694476 kJ/mol
# GULP energy per Si atom -5580.605905 kJ/mol
# Density = 2.527073 g / cm^3
# Si number density = 25.328378 Si / 1000 Ang^3
#
#
#
# Elastic Constant Matrix: (Units=GPa)
#
#
# Indices 1 2 3 4 5 6 
#
# 1 112.0654 -27.3427 52.4071 0.0000 0.0000 0.0000
# 2 -27.3427 87.6176 6.0597 0.0000 0.0000 0.0000
# 3 52.4071 6.0597 203.3806 0.0000 0.0000 0.0000
# 4 0.0000 0.0000 0.0000 -16.6996 0.0000 0.0000
# 5 0.0000 0.0000 0.0000 0.0000 44.7518 0.0000
# 6 0.0000 0.0000 0.0000 0.0000 0.0000 18.7995
#
#
#
# Elastic Compliance Matrix: (Units=1/GPa)
#
#
# Indices 1 2 3 4 5 6 
#
# 1 0.011235 0.003714 -0.003006 0.000000 0.000000 0.000000
# 2 0.003714 0.012665 -0.001334 0.000000 0.000000 0.000000
# 3 -0.003006 -0.001334 0.005731 0.000000 0.000000 0.000000
# 4 0.000000 0.000000 0.000000 -0.059882 0.000000 0.000000
# 5 0.000000 0.000000 0.000000 0.000000 0.022345 0.000000
# 6 0.000000 0.000000 0.000000 0.000000 0.000000 0.053193
#
#
# Mechanical properties :
#
#
# Convention : Reuss Voigt Hill
#
# Bulk Modulus (GPa) = 35.23770 51.70132 43.46951
# Shear Modulus (GPa) = 89.28715 34.16632 61.72673
#
# Velocity S-wave (km/s) = 5.94377 3.67677 4.94201
# Velocity P-wave (km/s) = 7.81326 6.20335 7.05438
#
# Compressibility (1/GPa) = 0.02837870
#
# Stress axis : x y z
#
# Youngs Moduli (GPa) = 89.00631 78.96061 174.48464
#
# Poissons Ratio (x) = -0.29326 0.52445
# Poissons Ratio (y) = -0.33057 0.23283
# Poissons Ratio (z) = 0.26753 0.10536
#
# Static dielectric constant tensor:
#      x y z
#    x 1.965970 0.000000 0.000000 
#    y 0.000000 2.079280 0.000000 
#    z 0.000000 0.000000 1.993130 
# 
# From -- ./inp_files/1296.got.cif
#   From: 2010.05.17/outbox.cif.g08.bks.cpg/sg24_1_cif.got.tgz:1296.got - 2010.06.04 00:33:39.
