data_PCOD9332582
_publ_section_title
;
Structure prediction by ZEFSAII (Michael W. Deem and Ramdas Pophale) SiO2 
 PCOD9332582
Probable space group: I 2 2 2
;
_chemical_formula_sum "Si O2"
_cell_formula_units_Z 36
_cell_length_a 11.565979
_cell_length_b 19.654523
_cell_length_c 7.226238
_cell_angle_alpha 90.000000
_cell_angle_beta 90.000000
_cell_angle_gamma 90.000000
_cell_volume 1642.695884
_symmetry_space_group_name_H-M "I 2 2 2"
_symmetry_group_IT_number 23
_symmetry_cell_setting 'orthorhombic'
loop_
_space_group_symop_operation_xyz
x,y,z
-x,-y,z
x,-y,-z
-x,y,-z
1/2+x,1/2+y,1/2+z
1/2-x,1/2-y,1/2+z
1/2+x,1/2-y,1/2-z
1/2-x,1/2+y,1/2-z
loop_
_atom_site_type_symbol
_atom_site_label
_atom_site_fract_x
_atom_site_fract_y
_atom_site_fract_z
Si Si1 0.621745 0.425556 0.264567
Si Si2 0.673805 0.168402 0.704084
Si Si3 0.864514 0.083788 0.210017
Si Si4 0.000000 0.675188 0.500000
Si Si5 0.683652 0.201263 0.300057
O O1 0.721947 0.383175 0.172012
O O2 0.632078 0.417709 0.486616
O O3 0.493629 0.397753 0.220815
O O4 0.642264 0.505241 0.226391
O O5 0.582701 0.138063 0.850785
O O6 0.630626 0.191403 0.503365
O O7 0.730618 0.234797 0.797764
O O8 0.761626 0.134762 0.258110
O O9 0.913180 0.712393 0.357453
#
# Coordination Sequence:
#
# PCOD9332582 Si02
#       5
#     8   8   8   4   8
#     4   9  19  39  68 100 133 171 219 274 327 381
#     4  12  25  43  68  98 133 174 216 271 330 394
#     4   9  19  39  68 100 133 171 219 274 327 381
#     4  12  26  48  63  98 129 176 224 262 332 390
#     4  12  25  43  68  98 133 174 216 271 330 394
#
# _framework density 21.915196000000002
#
# number of rings (size 3 to 8) (size 9 to 14) (size 15 to 20)
#    0.000    1.333    4.444    2.000    3.111    1.778 
#    0.000    4.444    0.000    2.667    0.000    0.000 
#    0.000    0.000    0.000    0.000    0.000    0.000 
#
# Total GULP energy -100470.579502 kJ/mol
# GULP energy per Si atom -5581.698861 kJ/mol
# Density = 2.186532 g / cm^3
# Si number density = 21.915196 Si / 1000 Ang^3
#
#
#
# Elastic Constant Matrix: (Units=GPa)
#
#
# Indices 1 2 3 4 5 6 
#
# 1 115.0911 36.4827 42.0518 0.0000 0.0001 -0.0002
# 2 36.4827 52.0131 9.2350 -0.0005 0.0002 0.0000
# 3 42.0518 9.2350 133.9433 -0.0017 -0.0010 0.0006
# 4 0.0000 -0.0005 -0.0017 -8.7601 0.0002 0.0005
# 5 0.0001 0.0002 -0.0010 0.0002 18.9511 0.0003
# 6 -0.0002 0.0000 0.0006 0.0005 0.0003 12.6189
#
#
#
# Elastic Compliance Matrix: (Units=1/GPa)
#
#
# Indices 1 2 3 4 5 6 
#
# 1 0.012510 -0.008177 -0.003364 0.000001 0.000000 0.000000
# 2 -0.008177 0.024810 0.000857 -0.000002 0.000000 0.000000
# 3 -0.003364 0.000857 0.008463 -0.000002 0.000000 0.000000
# 4 0.000001 -0.000002 -0.000002 -0.114154 0.000001 0.000004
# 5 0.000000 0.000000 0.000000 0.000001 0.052767 -0.000001
# 6 0.000000 0.000000 0.000000 0.000004 -0.000001 0.079246
#
#
# Mechanical properties :
#
#
# Convention : Reuss Voigt Hill
#
# Bulk Modulus (GPa) = 40.96079 52.95405 46.95742
# Shear Modulus (GPa) = 53.67774 18.78051 36.22912
#
# Velocity S-wave (km/s) = 4.95445 2.93057 4.07031
# Velocity P-wave (km/s) = 7.17356 5.97215 6.60025
#
# Compressibility (1/GPa) = 0.02441359
#
# Stress axis : x y z
#
# Youngs Moduli (GPa) = 79.93638 40.30707 118.16392
#
# Poissons Ratio (x) = 0.32961 0.39747
# Poissons Ratio (y) = 0.65367 -0.10124
# Poissons Ratio (z) = 0.26888 -0.03453
#
# Static dielectric constant tensor:
#      x y z
#    x 1.838720 0.000000 0.000000 
#    y 0.000000 1.753730 0.000000 
#    z 0.000000 0.000000 1.841920 
# 
# From -- ./inp_files/8191.got.cif
#   From: 2010.05.17/outbox.cif.g08.bks.cpg/sg23_5_cif.got.tgz:8191.got - 2010.06.04 12:02:01.
