data_PCOD9332097
_publ_section_title
;
Structure prediction by ZEFSAII (Michael W. Deem and Ramdas Pophale) SiO2 
 PCOD9332097
Probable space group: I 2 2 2
;
_chemical_formula_sum "Si O2"
_cell_formula_units_Z 64
_cell_length_a 11.376705
_cell_length_b 17.359166
_cell_length_c 14.871615
_cell_angle_alpha 90.000000
_cell_angle_beta 90.000000
_cell_angle_gamma 90.000000
_cell_volume 2936.996892
_symmetry_space_group_name_H-M "I 2 2 2"
_symmetry_group_IT_number 23
_symmetry_cell_setting 'orthorhombic'
loop_
_space_group_symop_operation_xyz
x,y,z
-x,-y,z
x,-y,-z
-x,y,-z
1/2+x,1/2+y,1/2+z
1/2-x,1/2-y,1/2+z
1/2+x,1/2-y,1/2-z
1/2-x,1/2+y,1/2-z
loop_
_atom_site_type_symbol
_atom_site_label
_atom_site_fract_x
_atom_site_fract_y
_atom_site_fract_z
Si Si1 0.298669 0.946992 0.223583
Si Si2 0.267541 0.446580 0.586334
Si Si3 0.510975 0.109077 0.894055
Si Si4 0.866506 0.786042 0.031994
Si Si5 0.775971 0.211274 0.304033
Si Si6 0.865936 0.470873 0.094725
Si Si7 0.485408 0.708167 0.104711
Si Si8 0.725243 0.806173 0.368379
O O1 0.417899 0.938533 0.164295
O O2 0.273042 0.859782 0.248671
O O3 0.202679 0.992166 0.163967
O O4 0.312165 0.992185 0.316360
O O5 0.245352 0.500000 0.500000
O O6 0.349726 0.375947 0.557017
O O7 0.148075 0.406621 0.623297
O O8 0.482900 0.199242 0.882143
O O9 0.500000 0.091921 0.000000
O O10 0.814917 0.740283 0.118979
O O11 0.789097 0.758682 0.946249
O O12 0.000000 0.770737 0.000000
O O13 0.807302 0.275237 0.229563
O O14 0.896081 0.182456 0.348182
O O15 0.851246 0.379273 0.102171
O O16 0.000000 0.500000 0.095234
O O17 0.813496 0.500000 0.000000
O O18 0.363058 0.673474 0.137142
O O19 0.500000 0.692929 0.000000
#
# Coordination Sequence:
#
# PCOD9332097 Si02
#       8
#     8   8   8   8   8   8   8   8
#     4  12  25  42  71 111 147 189 242 310 385 446
#     4  12  23  43  70 111 149 189 244 313 387 446
#     4  11  20  40  70 111 141 180 233 309 377 440
#     4  12  28  48  75 105 152 207 254 311 381 464
#     4  12  26  46  75 112 146 197 257 306 384 456
#     4  11  27  45  69 102 147 194 242 302 367 442
#     4  11  23  46  78 105 144 189 252 308 358 448
#     4  12  26  48  75 111 143 194 255 311 375 446
#
# _framework density 21.790966999999998
#
# number of rings (size 3 to 8) (size 9 to 14) (size 15 to 20)
#    0.000    0.375    5.000    4.125    7.000    0.250 
#    0.000    0.625    0.000    0.000    0.000    0.000 
#    0.000    0.000    0.000    0.000    0.000    0.000 
#
# Total GULP energy -178912.366872 kJ/mol
# GULP energy per Si atom -5591.011465 kJ/mol
# Density = 2.174137 g / cm^3
# Si number density = 21.790967 Si / 1000 Ang^3
#
#
#
# Elastic Constant Matrix: (Units=GPa)
#
#
# Indices 1 2 3 4 5 6 
#
# 1 91.7541 24.4312 28.3590 0.0000 0.0000 0.0000
# 2 24.4312 82.0780 47.0010 0.0000 0.0000 0.0000
# 3 28.3590 47.0010 160.1700 0.0000 0.0000 0.0000
# 4 0.0000 0.0000 0.0000 37.1830 0.0000 0.0000
# 5 0.0000 0.0000 0.0000 0.0000 26.4226 0.0000
# 6 0.0000 0.0000 0.0000 0.0000 0.0000 15.0988
#
#
#
# Elastic Compliance Matrix: (Units=1/GPa)
#
#
# Indices 1 2 3 4 5 6 
#
# 1 0.012058 -0.002845 -0.001300 0.000000 0.000000 0.000000
# 2 -0.002845 0.015315 -0.003991 0.000000 0.000000 0.000000
# 3 -0.001300 -0.003991 0.007645 0.000000 0.000000 0.000000
# 4 0.000000 0.000000 0.000000 0.026894 0.000000 0.000000
# 5 0.000000 0.000000 0.000000 0.000000 0.037846 0.000000
# 6 0.000000 0.000000 0.000000 0.000000 0.000000 0.066230
#
#
# Mechanical properties :
#
#
# Convention : Reuss Voigt Hill
#
# Bulk Modulus (GPa) = 53.34126 59.28718 56.31422
# Shear Modulus (GPa) = 26.52399 31.35493 28.93946
#
# Velocity S-wave (km/s) = 3.49263 3.79739 3.64819
# Velocity P-wave (km/s) = 6.38720 6.81859 6.60642
#
# Compressibility (1/GPa) = 0.01874721
#
# Stress axis : x y z
#
# Youngs Moduli (GPa) = 82.93261 65.29374 130.81155
#
# Poissons Ratio (x) = 0.18574 0.17008
# Poissons Ratio (y) = 0.23591 0.52201
# Poissons Ratio (z) = 0.10783 0.26056
#
# Static dielectric constant tensor:
#      x y z
#    x 1.970240 0.000000 0.000000 
#    y 0.000000 1.871120 0.000000 
#    z 0.000000 0.000000 1.804690 
# 
# From -- ./inp_files/21051.got.cif
#   From: 2010.05.17/outbox.cif.g08.bks.cpg/sg23_11_cif.got.tgz:21051.got - 2010.06.04 12:02:01.
