data_PCOD9332206
_publ_section_title
;
Structure prediction by ZEFSAII (Michael W. Deem and Ramdas Pophale) SiO2 
 PCOD9332206
Probable space group: I 2 2 2
;
_chemical_formula_sum "Si O2"
_cell_formula_units_Z 64
_cell_length_a 23.172984
_cell_length_b 8.487256
_cell_length_c 14.975270
_cell_angle_alpha 90.000000
_cell_angle_beta 90.000000
_cell_angle_gamma 90.000000
_cell_volume 2945.261938
_symmetry_space_group_name_H-M "I 2 2 2"
_symmetry_group_IT_number 23
_symmetry_cell_setting 'orthorhombic'
loop_
_space_group_symop_operation_xyz
x,y,z
-x,-y,z
x,-y,-z
-x,y,-z
1/2+x,1/2+y,1/2+z
1/2-x,1/2-y,1/2+z
1/2+x,1/2-y,1/2-z
1/2-x,1/2+y,1/2-z
loop_
_atom_site_type_symbol
_atom_site_label
_atom_site_fract_x
_atom_site_fract_y
_atom_site_fract_z
Si Si1 0.277358 0.684516 0.473011
Si Si2 0.509754 0.309459 0.641836
Si Si3 0.769966 0.175344 0.292559
Si Si4 0.292411 0.678392 0.134212
Si Si5 0.582418 0.411789 0.097051
Si Si6 0.410759 0.688714 0.476915
Si Si7 0.101064 0.786097 0.291029
Si Si8 0.985281 0.335130 0.396495
O O1 0.273270 0.500000 0.500000
O O2 0.249694 0.721374 0.377148
O O3 0.245909 0.785419 0.548345
O O4 0.344522 0.732565 0.471584
O O5 0.500000 0.500000 0.647271
O O6 0.550744 0.256067 0.559764
O O7 0.445233 0.261982 0.612572
O O8 0.548280 0.253813 0.724311
O O9 0.725136 0.200423 0.212434
O O10 0.833736 0.232404 0.260127
O O11 0.777983 0.995760 0.326430
O O12 0.358434 0.686703 0.100361
O O13 0.593301 0.536672 0.175166
O O14 0.526922 0.311246 0.125193
O O15 0.575427 0.500000 0.000000
O O16 0.410956 0.500000 0.500000
O O17 0.082226 0.691206 0.379061
O O18 0.000000 0.500000 0.351820
O O19 0.000000 0.347386 0.500000
#
# Coordination Sequence:
#
# PCOD9332206 Si02
#       8
#     8   8   8   8   8   8   8   8
#     4  11  22  39  64  91 128 169 210 262 323 384
#     4   9  16  31  57  88 113 148 194 251 304 353
#     4  11  25  42  63  94 130 169 222 269 323 387
#     4  11  24  43  64  93 127 173 219 273 322 387
#     4  11  22  41  64  89 126 168 219 260 314 387
#     4   8  17  32  55  87 121 146 192 249 305 363
#     4  11  22  38  61  87 121 165 211 257 304 379
#     4  11  24  38  58  89 125 159 200 256 321 377
#
# _framework density 21.729814999999999
#
# number of rings (size 3 to 8) (size 9 to 14) (size 15 to 20)
#    0.000    1.625    1.250    5.250    0.000    8.000 
#    0.000    0.000    0.000    0.000    0.000    4.375 
#    0.000    0.000    0.000    0.000    0.000    0.000 
#
# Total GULP energy -178367.388017 kJ/mol
# GULP energy per Si atom -5573.980876 kJ/mol
# Density = 2.168036 g / cm^3
# Si number density = 21.729815 Si / 1000 Ang^3
#
#
#
# Elastic Constant Matrix: (Units=GPa)
#
#
# Indices 1 2 3 4 5 6 
#
# 1 124.8422 13.6362 34.5261 0.0000 0.0000 0.0000
# 2 13.6362 28.5415 -7.6561 0.0000 0.0000 0.0000
# 3 34.5261 -7.6561 85.3328 0.0000 0.0000 0.0000
# 4 0.0000 0.0000 0.0000 20.8865 0.0000 0.0000
# 5 0.0000 0.0000 0.0000 0.0000 12.9876 0.0000
# 6 0.0000 0.0000 0.0000 0.0000 0.0000 30.5810
#
#
#
# Elastic Compliance Matrix: (Units=1/GPa)
#
#
# Indices 1 2 3 4 5 6 
#
# 1 0.009919 -0.005959 -0.004548 0.000000 0.000000 0.000000
# 2 -0.005959 0.039481 0.005953 0.000000 0.000000 0.000000
# 3 -0.004548 0.005953 0.014093 0.000000 0.000000 0.000000
# 4 0.000000 0.000000 0.000000 0.047878 0.000000 0.000000
# 5 0.000000 0.000000 0.000000 0.000000 0.076996 0.000000
# 6 0.000000 0.000000 0.000000 0.000000 0.000000 0.032700
#
#
# Mechanical properties :
#
#
# Convention : Reuss Voigt Hill
#
# Bulk Modulus (GPa) = 18.38728 35.52547 26.95637
# Shear Modulus (GPa) = 20.13678 26.10503 23.12091
#
# Velocity S-wave (km/s) = 3.04746 3.46980 3.26547
# Velocity P-wave (km/s) = 4.56758 5.69534 5.16235
#
# Compressibility (1/GPa) = 0.05438542
#
# Stress axis : x y z
#
# Youngs Moduli (GPa) = 100.81967 25.32894 70.95723
#
# Poissons Ratio (x) = 0.15093 0.32270
# Poissons Ratio (y) = 0.60076 -0.42242
# Poissons Ratio (z) = 0.45851 -0.15079
#
# Static dielectric constant tensor:
#      x y z
#    x 1.788220 0.000000 0.000000 
#    y 0.000000 2.261530 0.000000 
#    z 0.000000 0.000000 1.881450 
# 
# From -- ./inp_files/22601.got.cif
#   From: 2010.05.17/outbox.cif.g08.bks.cpg/sg23_12_cif.got.tgz:22601.got - 2010.06.04 12:02:01.
