data_PCOD9332462
_publ_section_title
;
Structure prediction by ZEFSAII (Michael W. Deem and Ramdas Pophale) SiO2 
 PCOD9332462
Probable space group: I 2 2 2
;
_chemical_formula_sum "Si O2"
_cell_formula_units_Z 40
_cell_length_a 7.938603
_cell_length_b 8.300784
_cell_length_c 24.695022
_cell_angle_alpha 90.000000
_cell_angle_beta 90.000000
_cell_angle_gamma 90.000000
_cell_volume 1627.318697
_symmetry_space_group_name_H-M "I 2 2 2"
_symmetry_group_IT_number 23
_symmetry_cell_setting 'orthorhombic'
loop_
_space_group_symop_operation_xyz
x,y,z
-x,-y,z
x,-y,-z
-x,y,-z
1/2+x,1/2+y,1/2+z
1/2-x,1/2-y,1/2+z
1/2+x,1/2-y,1/2-z
1/2-x,1/2+y,1/2-z
loop_
_atom_site_type_symbol
_atom_site_label
_atom_site_fract_x
_atom_site_fract_y
_atom_site_fract_z
Si Si1 0.184994 0.701387 0.630500
Si Si2 0.199960 0.177757 0.486792
Si Si3 0.832171 0.894484 0.080515
Si Si4 0.322034 0.092780 0.280905
Si Si5 0.188213 0.222449 0.672251
O O1 0.224477 0.800871 0.576639
O O2 0.202591 0.520775 0.607954
O O3 0.309024 0.754710 0.678716
O O4 0.998649 0.742234 0.650800
O O5 0.283712 0.316496 0.523255
O O6 0.000000 0.185736 0.500000
O O7 0.263137 0.000000 0.500000
O O8 0.820523 0.749406 0.123670
O O9 0.000000 0.000000 0.077777
O O10 0.274913 0.157188 0.221864
O O11 0.500000 0.000000 0.277858
O O12 0.200329 0.957100 0.304899
#
# Coordination Sequence:
#
# PCOD9332462 Si02
#       5
#     8   8   8   8   8
#     4  12  26  45  76 108 148 201 253 308 384 462
#     4  11  25  47  78 113 148 199 254 311 378 459
#     4  12  26  47  77 115 151 197 251 319 382 446
#     4  12  26  45  70 109 152 199 258 327 384 453
#     4  12  25  46  74 105 149 202 257 313 390 463
#
# _framework density 24.580313
#
# number of rings (size 3 to 8) (size 9 to 14) (size 15 to 20)
#    0.000    0.200    2.000    7.800    2.800    4.000 
#    0.000    1.000    0.000    0.000    0.000    0.000 
#    0.000    0.000    0.000    0.000    0.000    0.000 
#
# Total GULP energy -112097.572044 kJ/mol
# GULP energy per Si atom -5604.878602 kJ/mol
# Density = 2.452437 g / cm^3
# Si number density = 24.580313 Si / 1000 Ang^3
#
#
#
# Elastic Constant Matrix: (Units=GPa)
#
#
# Indices 1 2 3 4 5 6 
#
# 1 89.8643 18.8923 14.7341 0.0000 0.0000 0.0000
# 2 18.8923 120.5502 30.7933 0.0000 0.0000 0.0000
# 3 14.7341 30.7933 160.8175 0.0000 0.0000 0.0000
# 4 0.0000 0.0000 0.0000 91.9023 0.0000 0.0000
# 5 0.0000 0.0000 0.0000 0.0000 32.1964 0.0000
# 6 0.0000 0.0000 0.0000 0.0000 0.0000 34.1489
#
#
#
# Elastic Compliance Matrix: (Units=1/GPa)
#
#
# Indices 1 2 3 4 5 6 
#
# 1 0.011593 -0.001625 -0.000751 0.000000 0.000000 0.000000
# 2 -0.001625 0.008950 -0.001565 0.000000 0.000000 0.000000
# 3 -0.000751 -0.001565 0.006587 0.000000 0.000000 0.000000
# 4 0.000000 0.000000 0.000000 0.010881 0.000000 0.000000
# 5 0.000000 0.000000 0.000000 0.000000 0.031059 0.000000
# 6 0.000000 0.000000 0.000000 0.000000 0.000000 0.029284
#
#
# Mechanical properties :
#
#
# Convention : Reuss Voigt Hill
#
# Bulk Modulus (GPa) = 51.95473 55.56351 53.75912
# Shear Modulus (GPa) = 44.38516 52.10368 48.24442
#
# Velocity S-wave (km/s) = 4.25399 4.60905 4.43507
# Velocity P-wave (km/s) = 6.73136 7.13992 6.93864
#
# Compressibility (1/GPa) = 0.01924753
#
# Stress axis : x y z
#
# Youngs Moduli (GPa) = 86.26173 111.73604 151.82200
#
# Poissons Ratio (x) = 0.18156 0.11401
# Poissons Ratio (y) = 0.14017 0.23757
# Poissons Ratio (z) = 0.06478 0.17485
#
# Static dielectric constant tensor:
#      x y z
#    x 1.964010 0.000000 0.000000 
#    y 0.000000 2.001240 0.000000 
#    z 0.000000 0.000000 1.915660 
# 
# From -- ./inp_files/27873.got.cif
#   From: 2010.05.17/outbox.cif.g08.bks.cpg/sg23_14_cif.got.tgz:27873.got - 2010.06.04 12:02:01.
