data_PCOD9332083
_publ_section_title
;
Structure prediction by ZEFSAII (Michael W. Deem and Ramdas Pophale) SiO2 
 PCOD9332083
Probable space group: I 2 2 2
;
_chemical_formula_sum "Si O2"
_cell_formula_units_Z 60
_cell_length_a 12.023303
_cell_length_b 32.733678
_cell_length_c 7.303927
_cell_angle_alpha 90.000000
_cell_angle_beta 90.000000
_cell_angle_gamma 90.000000
_cell_volume 2874.584118
_symmetry_space_group_name_H-M "I 2 2 2"
_symmetry_group_IT_number 23
_symmetry_cell_setting 'orthorhombic'
loop_
_space_group_symop_operation_xyz
x,y,z
-x,-y,z
x,-y,-z
-x,y,-z
1/2+x,1/2+y,1/2+z
1/2-x,1/2-y,1/2+z
1/2+x,1/2-y,1/2-z
1/2-x,1/2+y,1/2-z
loop_
_atom_site_type_symbol
_atom_site_label
_atom_site_fract_x
_atom_site_fract_y
_atom_site_fract_z
Si Si1 0.622524 0.408837 0.908393
Si Si2 0.741155 0.576835 0.712685
Si Si3 0.435277 0.126409 0.319147
Si Si4 0.873485 0.859372 0.941032
Si Si5 0.134146 0.707509 0.009457
Si Si6 0.372785 0.494318 0.220826
Si Si7 0.500000 0.818033 0.000000
Si Si8 0.721679 0.216162 0.100799
O O1 0.628166 0.370608 0.774405
O O2 0.651867 0.446505 0.772157
O O3 0.500000 0.414071 0.000000
O O4 0.701245 0.410521 0.083020
O O5 0.869187 0.590535 0.717591
O O6 0.678326 0.604869 0.566286
O O7 0.705255 0.529310 0.694742
O O8 0.500000 0.111785 0.500000
O O9 0.357652 0.163345 0.395014
O O10 0.508920 0.151125 0.171976
O O11 0.803324 0.818823 0.970662
O O12 0.000000 0.854048 0.000000
O O13 0.181705 0.706855 0.805444
O O14 0.210361 0.741913 0.101503
O O15 0.000000 0.716805 0.000000
O O16 0.500000 0.500000 0.283744
O O17 0.371072 0.500000 0.000000
O O18 0.607628 0.789233 0.013430
#
# Coordination Sequence:
#
# PCOD9332083 Si02
#       8
#     8   8   8   8   8   8   4   8
#     4  11  20  37  61  90 133 174 208 258 326 397
#     4  11  22  37  64  93 129 169 218 271 318 393
#     4  11  23  43  66  94 123 174 227 272 328 394
#     4  12  24  40  61  99 137 170 219 270 331 398
#     4  11  24  45  67  95 129 171 223 272 337 397
#     4   9  15  33  58  88 124 166 201 252 317 386
#     4  12  22  44  68  88 129 164 224 272 327 392
#     4  12  25  43  67  96 131 172 221 279 331 396
#
# _framework density 20.872585000000001
#
# number of rings (size 3 to 8) (size 9 to 14) (size 15 to 20)
#    0.000    0.933    8.000    2.000    0.000    0.533 
#    0.000    1.333    0.000    3.600    0.000    0.933 
#    0.000    0.000    0.000    0.000    0.000    0.000 
#
# Total GULP energy -167418.580859 kJ/mol
# GULP energy per Si atom -5580.619362 kJ/mol
# Density = 2.082508 g / cm^3
# Si number density = 20.872585 Si / 1000 Ang^3
#
#
#
# Elastic Constant Matrix: (Units=GPa)
#
#
# Indices 1 2 3 4 5 6 
#
# 1 84.6305 42.7942 10.2435 0.0006 -0.0010 -0.0009
# 2 42.7942 74.2330 1.1955 0.0002 -0.0018 -0.0008
# 3 10.2435 1.1955 69.3762 0.0001 -0.0116 -0.0026
# 4 0.0006 0.0002 0.0001 2.3440 0.0009 -0.0003
# 5 -0.0010 -0.0018 -0.0116 0.0009 13.8004 0.0008
# 6 -0.0009 -0.0008 -0.0026 -0.0003 0.0008 33.2330
#
#
#
# Elastic Compliance Matrix: (Units=1/GPa)
#
#
# Indices 1 2 3 4 5 6 
#
# 1 0.017052 -0.009792 -0.002349 -0.000003 -0.000002 0.000000
# 2 -0.009792 0.019098 0.001117 0.000000 0.000003 0.000000
# 3 -0.002349 0.001117 0.014742 0.000000 0.000012 0.000001
# 4 -0.000003 0.000000 0.000000 0.426618 -0.000028 0.000004
# 5 -0.000002 0.000003 0.000012 -0.000028 0.072462 -0.000002
# 6 0.000000 0.000000 0.000001 0.000004 -0.000002 0.030091
#
#
# Mechanical properties :
#
#
# Convention : Reuss Voigt Hill
#
# Bulk Modulus (GPa) = 34.67074 37.41177 36.04125
# Shear Modulus (GPa) = 8.17360 21.47593 14.82476
#
# Velocity S-wave (km/s) = 1.98102 3.21114 2.66794
# Velocity P-wave (km/s) = 4.67753 5.63128 5.17642
#
# Compressibility (1/GPa) = 0.02884277
#
# Stress axis : x y z
#
# Youngs Moduli (GPa) = 58.64412 52.36072 67.83453
#
# Poissons Ratio (x) = 0.51274 0.15934
# Poissons Ratio (y) = 0.57427 -0.07576
# Poissons Ratio (z) = 0.13776 -0.05847
#
# Static dielectric constant tensor:
#      x y z
#    x 1.812620 0.000000 0.000040 
#    y 0.000000 1.763020 0.000000 
#    z 0.000040 0.000000 1.841070 
# 
# From -- ./inp_files/8931.got.cif
#   From: 2010.05.17/outbox.cif.g08.bks.cpg/sg23_5_cif.got.tgz:8931.got - 2010.06.04 12:02:01.
