data_PCOD9332383
_publ_section_title
;
Structure prediction by ZEFSAII (Michael W. Deem and Ramdas Pophale) SiO2 
 PCOD9332383
Probable space group: I 2 2 2
;
_chemical_formula_sum "Si O2"
_cell_formula_units_Z 48
_cell_length_a 16.305297
_cell_length_b 9.355429
_cell_length_c 14.805518
_cell_angle_alpha 90.000000
_cell_angle_beta 90.000000
_cell_angle_gamma 90.000000
_cell_volume 2258.478849
_symmetry_space_group_name_H-M "I 2 2 2"
_symmetry_group_IT_number 23
_symmetry_cell_setting 'orthorhombic'
loop_
_space_group_symop_operation_xyz
x,y,z
-x,-y,z
x,-y,-z
-x,y,-z
1/2+x,1/2+y,1/2+z
1/2-x,1/2-y,1/2+z
1/2+x,1/2-y,1/2-z
1/2-x,1/2+y,1/2-z
loop_
_atom_site_type_symbol
_atom_site_label
_atom_site_fract_x
_atom_site_fract_y
_atom_site_fract_z
Si Si1 0.585941 0.071388 0.690478
Si Si2 0.500000 0.500000 0.812326
Si Si3 0.432626 0.249441 0.936743
Si Si4 0.795770 0.790387 0.570310
Si Si5 0.646176 0.625820 0.269226
Si Si6 0.159189 0.500000 0.000000
Si Si7 0.306557 0.976360 0.144899
O O1 0.590154 0.241004 0.702180
O O2 0.606332 0.033192 0.588036
O O3 0.500000 0.000000 0.717933
O O4 0.658720 0.022574 0.757237
O O5 0.482175 0.360747 0.874256
O O6 0.580762 0.496309 0.750615
O O7 0.374450 0.135511 0.888464
O O8 0.500000 0.175442 0.000000
O O9 0.370099 0.329593 0.003756
O O10 0.812444 0.845755 0.671465
O O11 0.796520 0.617976 0.583304
O O12 0.716721 0.865530 0.527556
O O13 0.718026 0.594183 0.339380
#
# Coordination Sequence:
#
# PCOD9332383 Si02
#       7
#     8   4   8   8   8   4   8
#     4  11  25  43  67 100 136 188 241 294 358 423
#     4  12  25  42  72 104 147 186 242 293 360 432
#     4  12  25  42  68 105 145 183 234 300 363 425
#     4  11  24  40  68 103 136 186 238 292 364 424
#     4  11  24  44  67 105 141 188 232 296 358 433
#     4  12  23  46  73  92 140 186 252 293 344 444
#     4  11  26  44  68 102 148 187 233 292 374 430
#
# _framework density 21.253243999999999
#
# number of rings (size 3 to 8) (size 9 to 14) (size 15 to 20)
#    0.000    0.667    3.333    4.000    7.000    2.000 
#    0.000    0.000    0.000    0.000    0.000    0.000 
#    0.000    0.000    0.000    0.000    0.000    0.000 
#
# Total GULP energy -134119.840441 kJ/mol
# GULP energy per Si atom -5588.326685 kJ/mol
# Density = 2.120487 g / cm^3
# Si number density = 21.253244 Si / 1000 Ang^3
#
#
#
# Elastic Constant Matrix: (Units=GPa)
#
#
# Indices 1 2 3 4 5 6 
#
# 1 89.3351 28.8269 9.6513 0.0000 0.0000 0.0000
# 2 28.8269 78.4301 21.2897 0.0000 0.0000 0.0000
# 3 9.6513 21.2897 66.7152 0.0000 0.0000 0.0000
# 4 0.0000 0.0000 0.0000 23.2505 0.0000 0.0000
# 5 0.0000 0.0000 0.0000 0.0000 -11.0410 0.0000
# 6 0.0000 0.0000 0.0000 0.0000 0.0000 32.9604
#
#
#
# Elastic Compliance Matrix: (Units=1/GPa)
#
#
# Indices 1 2 3 4 5 6 
#
# 1 0.012709 -0.004568 -0.000381 0.000000 0.000000 0.000000
# 2 -0.004568 0.015601 -0.004318 0.000000 0.000000 0.000000
# 3 -0.000381 -0.004318 0.016422 0.000000 0.000000 0.000000
# 4 0.000000 0.000000 0.000000 0.043010 0.000000 0.000000
# 5 0.000000 0.000000 0.000000 0.000000 -0.090572 0.000000
# 6 0.000000 0.000000 0.000000 0.000000 0.000000 0.030339
#
#
# Mechanical properties :
#
#
# Convention : Reuss Voigt Hill
#
# Bulk Modulus (GPa) = 38.16895 39.33513 38.75204
# Shear Modulus (GPa) = 91.28178 20.68149 55.98163
#
# Velocity S-wave (km/s) = 6.56070 3.12284 5.13785
# Velocity P-wave (km/s) = 8.68266 5.61701 7.31230
#
# Compressibility (1/GPa) = 0.02619931
#
# Stress axis : x y z
#
# Youngs Moduli (GPa) = 78.68508 64.09799 60.89375
#
# Poissons Ratio (x) = 0.29278 0.02319
# Poissons Ratio (y) = 0.35941 0.26292
# Poissons Ratio (z) = 0.02997 0.27676
#
# Static dielectric constant tensor:
#      x y z
#    x 1.758960 0.000000 0.000000 
#    y 0.000000 1.909620 0.000000 
#    z 0.000000 0.000000 1.785220 
# 
# From -- ./inp_files/22048.got.cif
#   From: 2010.05.17/outbox.cif.g08.bks.cpg/sg23_12_cif.got.tgz:22048.got - 2010.06.04 12:02:01.
