data_PCOD9332970
_publ_section_title
;
Structure prediction by ZEFSAII (Michael W. Deem and Ramdas Pophale) SiO2 
 PCOD9332970
Probable space group: I 21 21 21
;
_chemical_formula_sum "Si O2"
_cell_formula_units_Z 36
_cell_length_a 12.495059
_cell_length_b 10.395800
_cell_length_c 12.446737
_cell_angle_alpha 90.000000
_cell_angle_beta 90.000000
_cell_angle_gamma 90.000000
_cell_volume 1616.783022
_symmetry_space_group_name_H-M "I 21 21 21"
_symmetry_group_IT_number 24
_symmetry_cell_setting 'orthorhombic'
loop_
_space_group_symop_operation_xyz
x,y,z
-x,1/2-y,z
x,-y,1/2-z
1/2-x,y,-z
1/2+x,1/2+y,1/2+z
1/2-x,-y,1/2+z
1/2+x,1/2-y,-z
-x,1/2+y,1/2-z
loop_
_atom_site_type_symbol
_atom_site_label
_atom_site_fract_x
_atom_site_fract_y
_atom_site_fract_z
Si Si1 0.647892 0.094618 0.843080
Si Si2 0.812238 0.645111 0.228828
Si Si3 0.615270 0.602651 0.375596
Si Si4 0.113853 0.611702 0.576479
Si Si5 0.750000 0.606357 0.000000
O O1 0.636598 0.240250 0.797998
O O2 0.774563 0.072509 0.870524
O O3 0.613954 0.000000 0.750000
O O4 0.594008 0.061930 0.956422
O O5 0.856258 0.500000 0.250000
O O6 0.690334 0.632857 0.274181
O O7 0.803910 0.676526 0.101975
O O8 0.490448 0.584929 0.353485
O O9 0.623645 0.734888 0.441789
O O10 0.664199 0.487948 0.444244
#
# Coordination Sequence:
#
# PCOD9332970 Si02
#       5
#     8   8   8   8   4
#     4  10  20  34  53  78 108 141 173 212 263 312
#     4   9  18  33  55  79 103 134 173 214 259 305
#     4   9  17  33  55  77  99 138 183 215 248 305
#     4   9  18  34  54  74 104 143 183 211 245 313
#     4  10  18  30  54  82 108 126 164 228 274 298
#
# _framework density 22.266438000000001
#
# number of rings (size 3 to 8) (size 9 to 14) (size 15 to 20)
#    0.000    2.667    0.000    4.000    0.000    4.444 
#    0.000    7.778    0.000    5.333    0.000    0.000 
#    0.000    0.000    0.000    0.000    0.000    0.000 
#
# Total GULP energy -100384.226842 kJ/mol
# GULP energy per Si atom -5576.901491 kJ/mol
# Density = 2.221576 g / cm^3
# Si number density = 22.266438 Si / 1000 Ang^3
#
#
#
# Elastic Constant Matrix: (Units=GPa)
#
#
# Indices 1 2 3 4 5 6 
#
# 1 63.5157 1.8281 -4.9785 0.0000 0.0000 0.0000
# 2 1.8281 57.4424 23.6897 0.0000 0.0000 0.0000
# 3 -4.9785 23.6897 134.9781 0.0000 0.0000 0.0000
# 4 0.0000 0.0000 0.0000 36.8386 0.0000 0.0000
# 5 0.0000 0.0000 0.0000 0.0000 3.9724 0.0000
# 6 0.0000 0.0000 0.0000 0.0000 0.0000 7.0796
#
#
#
# Elastic Compliance Matrix: (Units=1/GPa)
#
#
# Indices 1 2 3 4 5 6 
#
# 1 0.015824 -0.000802 0.000724 0.000000 0.000000 0.000000
# 2 -0.000802 0.018808 -0.003331 0.000000 0.000000 0.000000
# 3 0.000724 -0.003331 0.008020 0.000000 0.000000 0.000000
# 4 0.000000 0.000000 0.000000 0.027145 0.000000 0.000000
# 5 0.000000 0.000000 0.000000 0.000000 0.251739 0.000000
# 6 0.000000 0.000000 0.000000 0.000000 0.000000 0.141251
#
#
# Mechanical properties :
#
#
# Convention : Reuss Voigt Hill
#
# Bulk Modulus (GPa) = 27.90580 33.00166 30.45373
# Shear Modulus (GPa) = 10.38317 25.27125 17.82721
#
# Velocity S-wave (km/s) = 2.16177 3.37255 2.83261
# Velocity P-wave (km/s) = 4.33485 5.47895 4.94013
#
# Compressibility (1/GPa) = 0.03583485
#
# Stress axis : x y z
#
# Youngs Moduli (GPa) = 63.19505 53.16945 124.69049
#
# Poissons Ratio (x) = 0.04266 -0.09033
# Poissons Ratio (y) = 0.05071 0.41528
# Poissons Ratio (z) = -0.04578 0.17708
#
# Static dielectric constant tensor:
#      x y z
#    x 1.863640 0.000000 0.000000 
#    y 0.000000 1.847960 0.000000 
#    z 0.000000 0.000000 1.821120 
# 
# From -- ./inp_files/19361.got.cif
#   From: 2010.05.17/outbox.cif.g08.bks.cpg/sg24_10_cif.got.tgz:19361.got - 2010.06.04 00:33:39.
