data_PCOD9332365
_publ_section_title
;
Structure prediction by ZEFSAII (Michael W. Deem and Ramdas Pophale) SiO2 
 PCOD9332365
Probable space group: I 2 2 2
;
_chemical_formula_sum "Si O2"
_cell_formula_units_Z 26
_cell_length_a 7.227445
_cell_length_b 5.055234
_cell_length_c 30.459900
_cell_angle_alpha 90.000000
_cell_angle_beta 90.000000
_cell_angle_gamma 90.000000
_cell_volume 1112.895873
_symmetry_space_group_name_H-M "I 2 2 2"
_symmetry_group_IT_number 23
_symmetry_cell_setting 'orthorhombic'
loop_
_space_group_symop_operation_xyz
x,y,z
-x,-y,z
x,-y,-z
-x,y,-z
1/2+x,1/2+y,1/2+z
1/2-x,1/2-y,1/2+z
1/2+x,1/2-y,1/2-z
1/2-x,1/2+y,1/2-z
loop_
_atom_site_type_symbol
_atom_site_label
_atom_site_fract_x
_atom_site_fract_y
_atom_site_fract_z
Si Si1 0.800737 0.601780 0.067671
Si Si2 0.285436 0.910711 0.124011
Si Si3 0.000000 0.000000 0.500000
Si Si4 0.295527 0.117352 0.776679
O O1 0.818810 0.857794 0.098036
O O2 0.644489 0.656506 0.030920
O O3 0.000000 0.500000 0.050758
O O4 0.728782 0.361801 0.097793
O O5 0.500000 0.000000 0.124969
O O6 0.218465 0.873354 0.173966
O O7 0.300798 0.404259 0.754833
O O8 0.500000 0.000000 0.780137
#
# Coordination Sequence:
#
# PCOD9332365 Si02
#       4
#     8   8   2   8
#     4  12  26  44  73 102 132 184 229 280 344 413
#     4  11  23  46  67  96 140 184 223 283 350 401
#     4  12  26  50  72 100 148 170 238 286 356 392
#     4  11  24  40  66  97 137 180 225 278 339 399
#
# _framework density 23.362475
#
# number of rings (size 3 to 8) (size 9 to 14) (size 15 to 20)
#    0.000    0.615    3.077    4.154    0.000   14.769 
#    0.000    3.077    0.000    0.000    0.000    0.000 
#    0.000    0.000    0.000    0.000    0.000    0.000 
#
# Total GULP energy -72779.242151 kJ/mol
# GULP energy per Si atom -5598.403242 kJ/mol
# Density = 2.330930 g / cm^3
# Si number density = 23.362475 Si / 1000 Ang^3
#
#
#
# Elastic Constant Matrix: (Units=GPa)
#
#
# Indices 1 2 3 4 5 6 
#
# 1 122.4698 18.2995 47.4140 0.0000 0.0000 0.0000
# 2 18.2995 142.7346 59.8366 0.0000 0.0000 0.0000
# 3 47.4140 59.8366 170.2578 0.0000 0.0000 0.0000
# 4 0.0000 0.0000 0.0000 2.0699 0.0000 0.0000
# 5 0.0000 0.0000 0.0000 0.0000 22.4323 0.0000
# 6 0.0000 0.0000 0.0000 0.0000 0.0000 41.2079
#
#
#
# Elastic Compliance Matrix: (Units=1/GPa)
#
#
# Indices 1 2 3 4 5 6 
#
# 1 0.009154 -0.000123 -0.002506 0.000000 0.000000 0.000000
# 2 -0.000123 0.008218 -0.002854 0.000000 0.000000 0.000000
# 3 -0.002506 -0.002854 0.007574 0.000000 0.000000 0.000000
# 4 0.000000 0.000000 0.000000 0.483114 0.000000 0.000000
# 5 0.000000 0.000000 0.000000 0.000000 0.044579 0.000000
# 6 0.000000 0.000000 0.000000 0.000000 0.000000 0.024267
#
#
# Mechanical properties :
#
#
# Convention : Reuss Voigt Hill
#
# Bulk Modulus (GPa) = 71.52867 76.28470 73.90669
# Shear Modulus (GPa) = 8.43836 33.80282 21.12059
#
# Velocity S-wave (km/s) = 1.90257 3.80792 3.00999
# Velocity P-wave (km/s) = 5.95900 7.21507 6.61691
#
# Compressibility (1/GPa) = 0.01398041
#
# Stress axis : x y z
#
# Youngs Moduli (GPa) = 109.24381 121.68067 132.02465
#
# Poissons Ratio (x) = 0.01497 0.33085
# Poissons Ratio (y) = 0.01344 0.37680
# Poissons Ratio (z) = 0.27376 0.34728
#
# Static dielectric constant tensor:
#      x y z
#    x 1.963580 0.000000 0.000000 
#    y 0.000000 1.819360 0.000000 
#    z 0.000000 0.000000 1.881100 
# 
# From -- ./inp_files/4686.got.cif
#   From: 2010.05.17/outbox.cif.g08.bks.cpg/sg23_3_cif.got.tgz:4686.got - 2010.06.04 12:02:01.
