data_PCOD9332339
_publ_section_title
;
Structure prediction by ZEFSAII (Michael W. Deem and Ramdas Pophale) SiO2 
 PCOD9332339
Probable space group: I 2 2 2
;
_chemical_formula_sum "Si O2"
_cell_formula_units_Z 34
_cell_length_a 21.187168
_cell_length_b 10.711387
_cell_length_c 6.958344
_cell_angle_alpha 90.000000
_cell_angle_beta 90.000000
_cell_angle_gamma 90.000000
_cell_volume 1579.154114
_symmetry_space_group_name_H-M "I 2 2 2"
_symmetry_group_IT_number 23
_symmetry_cell_setting 'orthorhombic'
loop_
_space_group_symop_operation_xyz
x,y,z
-x,-y,z
x,-y,-z
-x,y,-z
1/2+x,1/2+y,1/2+z
1/2-x,1/2-y,1/2+z
1/2+x,1/2-y,1/2-z
1/2-x,1/2+y,1/2-z
loop_
_atom_site_type_symbol
_atom_site_label
_atom_site_fract_x
_atom_site_fract_y
_atom_site_fract_z
Si Si1 0.000000 0.000000 0.000000
Si Si2 0.429946 0.967145 0.273239
Si Si3 0.657770 0.810234 0.241904
Si Si4 0.398922 0.306513 0.613486
Si Si5 0.794686 0.134023 0.595794
O O1 0.045820 0.908261 0.881107
O O2 0.379106 0.063200 0.189201
O O3 0.500000 0.000000 0.206411
O O4 0.427827 0.000000 0.500000
O O5 0.416803 0.819979 0.272058
O O6 0.614878 0.731429 0.391893
O O7 0.721722 0.842195 0.356686
O O8 0.678385 0.733297 0.056220
O O9 0.335843 0.358463 0.711149
O O10 0.801173 0.000000 0.500000
#
# Coordination Sequence:
#
# PCOD9332339 Si02
#       5
#     2   8   8   8   8
#     4  12  24  44  72 100 144 190 222 278 362 404
#     4   9  19  40  69  93 130 178 229 277 332 403
#     4  11  23  44  69 101 134 178 229 284 343 411
#     4  11  23  44  66 100 138 180 227 280 340 418
#     4  12  25  42  66 102 137 176 228 286 349 404
#
# _framework density 21.530515000000001
#
# number of rings (size 3 to 8) (size 9 to 14) (size 15 to 20)
#    0.000    1.176    2.353    6.353    0.000    0.941 
#    0.000   12.353    0.000    0.000    0.000    0.000 
#    0.000    0.000    0.000    0.000    0.000    0.000 
#
# Total GULP energy -95099.792167 kJ/mol
# GULP energy per Si atom -5594.105422 kJ/mol
# Density = 2.148151 g / cm^3
# Si number density = 21.530515 Si / 1000 Ang^3
#
#
#
# Elastic Constant Matrix: (Units=GPa)
#
#
# Indices 1 2 3 4 5 6 
#
# 1 137.0370 77.1656 23.5469 0.0000 0.0000 0.0000
# 2 77.1656 156.3931 39.5290 0.0000 0.0000 0.0000
# 3 23.5469 39.5290 75.4485 0.0000 0.0000 0.0000
# 4 0.0000 0.0000 0.0000 29.3798 0.0000 0.0000
# 5 0.0000 0.0000 0.0000 0.0000 -2.6994 0.0000
# 6 0.0000 0.0000 0.0000 0.0000 0.0000 50.1938
#
#
#
# Elastic Compliance Matrix: (Units=1/GPa)
#
#
# Indices 1 2 3 4 5 6 
#
# 1 0.010130 -0.004840 -0.000626 0.000000 0.000000 0.000000
# 2 -0.004840 0.009683 -0.003562 0.000000 0.000000 0.000000
# 3 -0.000626 -0.003562 0.015316 0.000000 0.000000 0.000000
# 4 0.000000 0.000000 0.000000 0.034037 0.000000 0.000000
# 5 0.000000 0.000000 0.000000 0.000000 -0.370451 0.000000
# 6 0.000000 0.000000 0.000000 0.000000 0.000000 0.019923
#
#
# Mechanical properties :
#
#
# Convention : Reuss Voigt Hill
#
# Bulk Modulus (GPa) = 58.57475 72.15127 65.36301
# Shear Modulus (GPa) = -19.40878 30.61731 5.60427
#
# Velocity S-wave (km/s) = -3.00568 3.77509 1.61511
# Velocity P-wave (km/s) = 3.90116 7.25160 5.82257
#
# Compressibility (1/GPa) = 0.01707220
#
# Stress axis : x y z
#
# Youngs Moduli (GPa) = 98.71311 103.27618 65.29220
#
# Poissons Ratio (x) = 0.49988 0.04085
# Poissons Ratio (y) = 0.47780 0.23260
# Poissons Ratio (z) = 0.06177 0.36791
#
# Static dielectric constant tensor:
#      x y z
#    x 1.754450 0.000000 0.000000 
#    y 0.000000 1.771250 0.000000 
#    z 0.000000 0.000000 1.774470 
# 
# From -- ./inp_files/12384.got.cif
#   From: 2010.05.17/outbox.cif.g08.bks.cpg/sg23_7_cif.got.tgz:12384.got - 2010.06.04 12:02:01.
