data_PCOD9332248
_publ_section_title
;
Structure prediction by ZEFSAII (Michael W. Deem and Ramdas Pophale) SiO2 
 PCOD9332248
Probable space group: I 2 2 2
;
_chemical_formula_sum "Si O2"
_cell_formula_units_Z 36
_cell_length_a 7.439651
_cell_length_b 13.203646
_cell_length_c 15.949966
_cell_angle_alpha 90.000000
_cell_angle_beta 90.000000
_cell_angle_gamma 90.000000
_cell_volume 1566.773425
_symmetry_space_group_name_H-M "I 2 2 2"
_symmetry_group_IT_number 23
_symmetry_cell_setting 'orthorhombic'
loop_
_space_group_symop_operation_xyz
x,y,z
-x,-y,z
x,-y,-z
-x,y,-z
1/2+x,1/2+y,1/2+z
1/2-x,1/2-y,1/2+z
1/2+x,1/2-y,1/2-z
1/2-x,1/2+y,1/2-z
loop_
_atom_site_type_symbol
_atom_site_label
_atom_site_fract_x
_atom_site_fract_y
_atom_site_fract_z
Si Si1 0.618122 0.379520 0.673894
Si Si2 0.500000 0.685020 0.500000
Si Si3 0.788253 0.506990 0.820224
Si Si4 0.822448 0.167920 0.442576
Si Si5 0.593698 0.714836 0.811345
O O1 0.552313 0.385318 0.578919
O O2 0.675434 0.468299 0.738678
O O3 0.467862 0.309598 0.717965
O O4 0.798754 0.314865 0.673985
O O5 0.331939 0.761277 0.481203
O O6 0.748624 0.436179 0.901006
O O7 0.716455 0.619366 0.838446
O O8 0.000000 0.500000 0.803085
O O9 0.000000 0.151947 0.500000
O O10 0.909766 0.222200 0.362207
#
# Coordination Sequence:
#
# PCOD9332248 Si02
#       5
#     8   4   8   8   8
#     4  11  22  41  70  95 138 176 229 285 342 415
#     4  12  24  42  68 108 130 184 226 286 352 410
#     4  11  25  44  68 101 135 188 235 278 347 423
#     4  11  23  42  64 100 144 172 221 289 348 410
#     4  11  22  44  67  95 134 181 225 279 343 414
#
# _framework density 22.977156999999998
#
# number of rings (size 3 to 8) (size 9 to 14) (size 15 to 20)
#    0.000    0.889    2.222    8.000    0.000    1.778 
#    0.000    2.222    0.000    1.333    0.000    0.000 
#    0.000    0.000    0.000    0.000    0.000    0.000 
#
# Total GULP energy -100599.904556 kJ/mol
# GULP energy per Si atom -5588.883586 kJ/mol
# Density = 2.292486 g / cm^3
# Si number density = 22.977157 Si / 1000 Ang^3
#
#
#
# Elastic Constant Matrix: (Units=GPa)
#
#
# Indices 1 2 3 4 5 6 
#
# 1 163.3322 25.6226 46.4111 0.0000 0.0000 0.0000
# 2 25.6226 50.6995 25.2330 0.0000 0.0000 0.0000
# 3 46.4111 25.2330 139.5929 0.0000 0.0000 0.0000
# 4 0.0000 0.0000 0.0000 -42.0273 0.0000 0.0000
# 5 0.0000 0.0000 0.0000 0.0000 30.3199 0.0000
# 6 0.0000 0.0000 0.0000 0.0000 0.0000 20.2971
#
#
#
# Elastic Compliance Matrix: (Units=1/GPa)
#
#
# Indices 1 2 3 4 5 6 
#
# 1 0.007069 -0.002640 -0.001873 0.000000 0.000000 0.000000
# 2 -0.002640 0.022660 -0.003218 0.000000 0.000000 0.000000
# 3 -0.001873 -0.003218 0.008368 0.000000 0.000000 0.000000
# 4 0.000000 0.000000 0.000000 -0.023794 0.000000 0.000000
# 5 0.000000 0.000000 0.000000 0.000000 0.032982 0.000000
# 6 0.000000 0.000000 0.000000 0.000000 0.000000 0.049268
#
#
# Mechanical properties :
#
#
# Convention : Reuss Voigt Hill
#
# Bulk Modulus (GPa) = 44.18109 60.90646 52.54377
# Shear Modulus (GPa) = 41.81978 18.80846 30.31412
#
# Velocity S-wave (km/s) = 4.27084 2.86417 3.63618
# Velocity P-wave (km/s) = 6.60228 6.12396 6.36762
#
# Compressibility (1/GPa) = 0.02263412
#
# Stress axis : x y z
#
# Youngs Moduli (GPa) = 141.46488 44.13034 119.50100
#
# Poissons Ratio (x) = 0.11652 0.22382
# Poissons Ratio (y) = 0.37351 0.38458
# Poissons Ratio (z) = 0.26496 0.14202
#
# Static dielectric constant tensor:
#      x y z
#    x 1.861480 0.000000 0.000000 
#    y 0.000000 1.885380 0.000000 
#    z 0.000000 0.000000 1.971400 
# 
# From -- ./inp_files/23613.got.cif
#   From: 2010.05.17/outbox.cif.g08.bks.cpg/sg23_12_cif.got.tgz:23613.got - 2010.06.04 12:02:01.
