data_PCOD9332021
_publ_section_title
;
Structure prediction by ZEFSAII (Michael W. Deem and Ramdas Pophale) SiO2 
 PCOD9332021
Probable space group: I 2 2 2
;
_chemical_formula_sum "Si O2"
_cell_formula_units_Z 40
_cell_length_a 6.358466
_cell_length_b 17.906947
_cell_length_c 16.195787
_cell_angle_alpha 90.000000
_cell_angle_beta 90.000000
_cell_angle_gamma 90.000000
_cell_volume 1844.063866
_symmetry_space_group_name_H-M "I 2 2 2"
_symmetry_group_IT_number 23
_symmetry_cell_setting 'orthorhombic'
loop_
_space_group_symop_operation_xyz
x,y,z
-x,-y,z
x,-y,-z
-x,y,-z
1/2+x,1/2+y,1/2+z
1/2-x,1/2-y,1/2+z
1/2+x,1/2-y,1/2-z
1/2-x,1/2+y,1/2-z
loop_
_atom_site_type_symbol
_atom_site_label
_atom_site_fract_x
_atom_site_fract_y
_atom_site_fract_z
Si Si1 0.944134 0.854110 0.278256
Si Si2 0.000000 0.500000 0.000000
Si Si3 0.500000 0.244354 0.500000
Si Si4 0.896411 0.424202 0.340186
Si Si5 0.000000 0.500000 0.500000
Si Si6 0.262301 0.207339 0.853251
Si Si7 0.310001 0.381084 0.066681
O O1 0.791551 0.901388 0.219973
O O2 0.831854 0.791743 0.334684
O O3 0.094770 0.810911 0.216400
O O4 0.089228 0.894562 0.344363
O O5 0.848569 0.447922 0.948352
O O6 0.354858 0.292872 0.440372
O O7 0.337799 0.192377 0.553156
O O8 0.861962 0.450339 0.435982
O O9 0.000000 0.500000 0.304622
O O10 0.052523 0.353283 0.346269
O O11 0.500000 0.379111 0.000000
#
# Coordination Sequence:
#
# PCOD9332021 Si02
#       7
#     8   2   4   8   2   8   8
#     4  12  25  46  77 111 148 199 262 327 385 460
#     4  10  26  48  70 110 150 210 240 316 404 502
#     4  11  26  41  76 113 145 202 260 326 393 472
#     4  10  26  50  73 111 152 202 252 319 393 480
#     4   8  24  52  72 100 164 204 242 316 400 460
#     4  12  25  44  75 112 150 196 261 326 387 463
#     4  11  24  49  70 109 151 197 256 320 404 470
#
# _framework density 21.691223000000001
#
# number of rings (size 3 to 8) (size 9 to 14) (size 15 to 20)
#    0.600    0.400    4.000    1.500    2.800    0.800 
#   10.800    1.000    0.000    0.000    0.000    0.000 
#    0.000    0.000    0.000    0.000    0.000    0.000 
#
# Total GULP energy -111710.268559 kJ/mol
# GULP energy per Si atom -5585.513428 kJ/mol
# Density = 2.164185 g / cm^3
# Si number density = 21.691223 Si / 1000 Ang^3
#
#
#
# Elastic Constant Matrix: (Units=GPa)
#
#
# Indices 1 2 3 4 5 6 
#
# 1 112.1289 39.4001 57.9313 0.0000 0.0000 0.0000
# 2 39.4001 61.0660 36.6370 0.0000 0.0000 0.0000
# 3 57.9313 36.6370 125.3818 0.0001 0.0000 0.0000
# 4 0.0000 0.0000 0.0001 409.6680 0.0000 0.0000
# 5 0.0000 0.0000 0.0000 0.0000 48.8551 0.0000
# 6 0.0000 0.0000 0.0000 0.0000 0.0000 6.2301
#
#
#
# Elastic Compliance Matrix: (Units=1/GPa)
#
#
# Indices 1 2 3 4 5 6 
#
# 1 0.013274 -0.005923 -0.004402 0.000000 0.000000 0.000000
# 2 -0.005923 0.022500 -0.003838 0.000000 0.000000 0.000000
# 3 -0.004402 -0.003838 0.011131 0.000000 0.000000 0.000000
# 4 0.000000 0.000000 0.000000 0.002441 0.000000 0.000000
# 5 0.000000 0.000000 0.000000 0.000000 0.020469 0.000000
# 6 0.000000 0.000000 0.000000 0.000000 0.000000 0.160511
#
#
# Mechanical properties :
#
#
# Convention : Reuss Voigt Hill
#
# Bulk Modulus (GPa) = 53.82611 62.94594 58.38603
# Shear Modulus (GPa) = 18.87893 103.92452 61.40173
#
# Velocity S-wave (km/s) = 2.95337 6.92928 5.32622
# Velocity P-wave (km/s) = 6.04139 9.64893 8.04985
#
# Compressibility (1/GPa) = 0.01857834
#
# Stress axis : x y z
#
# Youngs Moduli (GPa) = 75.33451 44.44449 89.83831
#
# Poissons Ratio (x) = 0.26326 0.39550
# Poissons Ratio (y) = 0.44623 0.34478
# Poissons Ratio (z) = 0.33165 0.17057
#
# Static dielectric constant tensor:
#      x y z
#    x 1.780930 0.000000 0.000000 
#    y 0.000000 1.851950 0.000000 
#    z 0.000000 0.000000 1.751800 
# 
# From -- ./inp_files/23064.got.cif
#   From: 2010.05.17/outbox.cif.g08.bks.cpg/sg23_12_cif.got.tgz:23064.got - 2010.06.04 12:02:01.
