data_PCOD9332373
_publ_section_title
;
Structure prediction by ZEFSAII (Michael W. Deem and Ramdas Pophale) SiO2 
 PCOD9332373
Probable space group: I 2 2 2
;
_chemical_formula_sum "Si O2"
_cell_formula_units_Z 48
_cell_length_a 9.615287
_cell_length_b 16.839244
_cell_length_c 14.002406
_cell_angle_alpha 90.000000
_cell_angle_beta 90.000000
_cell_angle_gamma 90.000000
_cell_volume 2267.187860
_symmetry_space_group_name_H-M "I 2 2 2"
_symmetry_group_IT_number 23
_symmetry_cell_setting 'orthorhombic'
loop_
_space_group_symop_operation_xyz
x,y,z
-x,-y,z
x,-y,-z
-x,y,-z
1/2+x,1/2+y,1/2+z
1/2-x,1/2-y,1/2+z
1/2+x,1/2-y,1/2-z
1/2-x,1/2+y,1/2-z
loop_
_atom_site_type_symbol
_atom_site_label
_atom_site_fract_x
_atom_site_fract_y
_atom_site_fract_z
Si Si1 0.763625 0.894310 0.088471
Si Si2 0.971674 0.826913 0.227545
Si Si3 0.509316 0.145981 0.786661
Si Si4 0.086790 0.581648 0.083444
Si Si5 0.911084 0.918873 0.416545
Si Si6 0.774504 0.921998 0.863420
O O1 0.868225 0.833090 0.138004
O O2 0.612073 0.872058 0.126309
O O3 0.799089 0.983020 0.128895
O O4 0.770710 0.895377 0.974380
O O5 0.912849 0.875701 0.316339
O O6 0.986911 0.738826 0.268102
O O7 0.109922 0.871726 0.192170
O O8 0.577197 0.118470 0.687608
O O9 0.369100 0.098194 0.810380
O O10 0.248841 0.571907 0.057011
O O11 0.000000 0.500000 0.092992
O O12 0.000000 0.626434 0.000000
O O13 0.000000 0.875753 0.500000
O O14 0.000000 0.000000 0.403784
#
# Coordination Sequence:
#
# PCOD9332373 Si02
#       6
#     8   8   8   8   8   8
#     4  11  23  48  69 103 131 175 240 275 346 402
#     4  12  26  44  65 103 138 174 220 280 351 409
#     4  12  26  44  65 103 138 174 220 280 351 409
#     4  11  24  43  69  99 133 177 228 276 331 404
#     4  11  24  43  69  99 133 177 228 276 331 404
#     4  11  25  42  77  97 133 183 224 291 328 412
#
# _framework density 21.171602
#
# number of rings (size 3 to 8) (size 9 to 14) (size 15 to 20)
#    0.000    0.667    1.667    7.000    4.667    5.333 
#    0.000    0.000    0.000    0.000    0.000    0.000 
#    0.000    0.000    0.000    0.000    0.000    0.000 
#
# Total GULP energy -134114.641879 kJ/mol
# GULP energy per Si atom -5588.110078 kJ/mol
# Density = 2.112341 g / cm^3
# Si number density = 21.171602 Si / 1000 Ang^3
#
#
#
# Elastic Constant Matrix: (Units=GPa)
#
#
# Indices 1 2 3 4 5 6 
#
# 1 131.0427 -14.3285 21.1632 0.0000 0.0000 0.0000
# 2 -14.3285 47.5654 18.2777 0.0000 -0.0001 0.0000
# 3 21.1632 18.2777 110.2838 0.0000 -0.0001 0.0000
# 4 0.0000 0.0000 0.0000 2.6580 -0.0001 0.0000
# 5 0.0000 -0.0001 -0.0001 -0.0001 18.5513 0.0000
# 6 0.0000 0.0000 0.0000 0.0000 0.0000 15.8933
#
#
#
# Elastic Compliance Matrix: (Units=1/GPa)
#
#
# Indices 1 2 3 4 5 6 
#
# 1 0.008345 0.003342 -0.002155 0.000000 0.000000 0.000000
# 2 0.003342 0.023792 -0.004584 0.000000 0.000000 0.000000
# 3 -0.002155 -0.004584 0.010241 0.000000 0.000000 0.000000
# 4 0.000000 0.000000 0.000000 0.376227 0.000001 0.000000
# 5 0.000000 0.000000 0.000000 0.000001 0.053905 0.000000
# 6 0.000000 0.000000 0.000000 0.000000 0.000000 0.062920
#
#
# Mechanical properties :
#
#
# Convention : Reuss Voigt Hill
#
# Bulk Modulus (GPa) = 28.10409 37.67962 32.89186
# Shear Modulus (GPa) = 9.02389 25.00581 17.01485
#
# Velocity S-wave (km/s) = 2.06676 3.44044 2.83797
# Velocity P-wave (km/s) = 4.35874 5.79811 5.12917
#
# Compressibility (1/GPa) = 0.03558201
#
# Stress axis : x y z
#
# Youngs Moduli (GPa) = 119.83851 42.03087 97.64784
#
# Poissons Ratio (x) = -0.14046 0.21045
# Poissons Ratio (y) = -0.40048 0.44766
# Poissons Ratio (z) = 0.25827 0.19269
#
# Static dielectric constant tensor:
#      x y z
#    x 1.776410 0.000000 0.000000 
#    y 0.000000 1.751130 0.000000 
#    z 0.000000 0.000000 1.781530 
# 
# From -- ./inp_files/19994.got.cif
#   From: 2010.05.17/outbox.cif.g08.bks.cpg/sg23_10_cif.got.tgz:19994.got - 2010.06.04 12:02:01.
