data_PCOD9332139
_publ_section_title
;
Structure prediction by ZEFSAII (Michael W. Deem and Ramdas Pophale) SiO2 
 PCOD9332139
Probable space group: I 2 2 2
;
_chemical_formula_sum "Si O2"
_cell_formula_units_Z 56
_cell_length_a 9.365453
_cell_length_b 20.663443
_cell_length_c 15.380148
_cell_angle_alpha 90.000000
_cell_angle_beta 90.000000
_cell_angle_gamma 90.000000
_cell_volume 2976.404756
_symmetry_space_group_name_H-M "I 2 2 2"
_symmetry_group_IT_number 23
_symmetry_cell_setting 'orthorhombic'
loop_
_space_group_symop_operation_xyz
x,y,z
-x,-y,z
x,-y,-z
-x,y,-z
1/2+x,1/2+y,1/2+z
1/2-x,1/2-y,1/2+z
1/2+x,1/2-y,1/2-z
1/2-x,1/2+y,1/2-z
loop_
_atom_site_type_symbol
_atom_site_label
_atom_site_fract_x
_atom_site_fract_y
_atom_site_fract_z
Si Si1 0.744209 0.745510 0.412587
Si Si2 0.500000 0.166850 0.000000
Si Si3 0.419352 0.848254 0.815031
Si Si4 0.866980 0.373648 0.833416
Si Si5 0.825892 0.495165 0.103709
Si Si6 0.000000 0.686236 0.000000
Si Si7 0.831917 0.872917 0.307729
Si Si8 0.387922 0.699981 0.765263
O O1 0.632726 0.767950 0.484108
O O2 0.795705 0.812296 0.369577
O O3 0.662009 0.707641 0.335127
O O4 0.872148 0.708457 0.458335
O O5 0.560438 0.132071 0.914510
O O6 0.535410 0.880360 0.751489
O O7 0.264698 0.865271 0.778048
O O8 0.440107 0.770650 0.798108
O O9 0.778336 0.437708 0.853445
O O10 0.967387 0.357021 0.915646
O O11 0.755499 0.316571 0.817483
O O12 0.732411 0.436523 0.143727
O O13 0.000000 0.500000 0.119603
O O14 0.806845 0.500000 0.000000
O O15 0.994993 0.856087 0.281444
#
# Coordination Sequence:
#
# PCOD9332139 Si02
#       8
#     8   4   8   8   8   4   8   8
#     4  11  23  36  61  92 122 167 207 257 328 379
#     4  12  22  38  62  93 123 162 212 270 320 384
#     4  11  21  39  61  89 125 166 209 259 321 379
#     4  12  22  40  62  88 129 166 210 258 310 383
#     4  11  22  40  65  91 124 173 220 254 305 384
#     4  12  22  36  61  92 120 167 212 258 322 382
#     4  11  22  40  60  90 131 169 208 262 320 379
#     4  11  22  40  58  89 134 165 201 266 324 384
#
# _framework density 18.814646
#
# number of rings (size 3 to 8) (size 9 to 14) (size 15 to 20)
#    0.000    0.714    7.143    3.429    2.000    0.571 
#    0.000    0.714    0.000    1.714    0.000    0.000 
#    0.000    0.000    0.000    0.000    0.000    0.000 
#
# Total GULP energy -156156.388704 kJ/mol
# GULP energy per Si atom -5577.013882 kJ/mol
# Density = 1.877182 g / cm^3
# Si number density = 18.814646 Si / 1000 Ang^3
#
#
#
# Elastic Constant Matrix: (Units=GPa)
#
#
# Indices 1 2 3 4 5 6 
#
# 1 69.2530 10.1622 29.9674 0.0000 0.0000 0.0000
# 2 10.1622 53.7102 22.0819 0.0000 0.0000 -0.0001
# 3 29.9674 22.0819 132.5483 0.0000 0.0000 -0.0002
# 4 0.0000 0.0000 0.0000 9.4587 0.0000 -0.0002
# 5 0.0000 0.0000 0.0000 0.0000 31.3337 0.0000
# 6 0.0000 -0.0001 -0.0002 -0.0002 0.0000 -203.5968
#
#
#
# Elastic Compliance Matrix: (Units=1/GPa)
#
#
# Indices 1 2 3 4 5 6 
#
# 1 0.016144 -0.001668 -0.003372 0.000000 0.000000 0.000000
# 2 -0.001668 0.020160 -0.002981 0.000000 0.000000 0.000000
# 3 -0.003372 -0.002981 0.008803 0.000000 0.000000 0.000000
# 4 0.000000 0.000000 0.000000 0.105723 0.000000 0.000000
# 5 0.000000 0.000000 0.000000 0.000000 0.031915 0.000000
# 6 0.000000 0.000000 0.000000 0.000000 0.000000 -0.004912
#
#
# Mechanical properties :
#
#
# Convention : Reuss Voigt Hill
#
# Bulk Modulus (GPa) = 34.40682 42.21492 38.31087
# Shear Modulus (GPa) = 24.56233 -19.67422 2.44406
#
# Velocity S-wave (km/s) = 3.61708 -3.23722 1.14098
# Velocity P-wave (km/s) = 5.98091 2.91774 4.70556
#
# Compressibility (1/GPa) = 0.02906400
#
# Stress axis : x y z
#
# Youngs Moduli (GPa) = 61.94362 49.60369 113.59166
#
# Poissons Ratio (x) = 0.08275 0.38303
# Poissons Ratio (y) = 0.10333 0.33866
# Poissons Ratio (z) = 0.20887 0.14789
#
# Static dielectric constant tensor:
#      x y z
#    x 1.695110 0.000000 0.000000 
#    y 0.000000 1.687300 0.000000 
#    z 0.000000 0.000000 1.668420 
# 
# From -- ./inp_files/20229.got.cif
#   From: 2010.05.17/outbox.cif.g08.bks.cpg/sg23_11_cif.got.tgz:20229.got - 2010.06.04 12:02:01.
