data_PCOD9332409
_publ_section_title
;
Structure prediction by ZEFSAII (Michael W. Deem and Ramdas Pophale) SiO2 
 PCOD9332409
Probable space group: I 2 2 2
;
_chemical_formula_sum "Si O2"
_cell_formula_units_Z 48
_cell_length_a 14.537358
_cell_length_b 8.530940
_cell_length_c 14.451000
_cell_angle_alpha 90.000000
_cell_angle_beta 90.000000
_cell_angle_gamma 90.000000
_cell_volume 1792.174419
_symmetry_space_group_name_H-M "I 2 2 2"
_symmetry_group_IT_number 23
_symmetry_cell_setting 'orthorhombic'
loop_
_space_group_symop_operation_xyz
x,y,z
-x,-y,z
x,-y,-z
-x,y,-z
1/2+x,1/2+y,1/2+z
1/2-x,1/2-y,1/2+z
1/2+x,1/2-y,1/2-z
1/2-x,1/2+y,1/2-z
loop_
_atom_site_type_symbol
_atom_site_label
_atom_site_fract_x
_atom_site_fract_y
_atom_site_fract_z
Si Si1 0.312758 0.162305 0.714713
Si Si2 0.913164 0.611298 0.885254
Si Si3 0.400778 0.253747 0.201766
Si Si4 0.070938 0.410521 0.396983
Si Si5 0.662533 0.670261 0.542668
Si Si6 0.353242 0.663129 0.978856
O O1 0.333229 0.003323 0.655539
O O2 0.208340 0.221491 0.725203
O O3 0.355186 0.114919 0.813145
O O4 0.359023 0.297968 0.650671
O O5 0.938914 0.733660 0.803476
O O6 0.886339 0.294641 0.024230
O O7 0.000000 0.500000 0.896051
O O8 0.405147 0.372069 0.117515
O O9 0.457993 0.109720 0.146412
O O10 0.085501 0.500000 0.500000
O O11 0.085137 0.235322 0.442130
O O12 0.645902 0.500000 0.500000
O O13 0.770722 0.713260 0.537600
O O14 0.307067 0.500000 0.000000
#
# Coordination Sequence:
#
# PCOD9332409 Si02
#       6
#     8   8   8   8   8   8
#     4  11  24  46  77 111 154 203 266 320 392 474
#     4  12  24  50  79 108 154 216 262 319 404 469
#     4  11  24  43  77 109 153 200 263 318 388 461
#     4  12  25  47  79 116 152 209 267 322 399 466
#     4  11  27  47  80 119 152 209 265 330 394 468
#     4  11  27  49  77 116 162 205 261 324 402 480
#
# _framework density 26.783106
#
# number of rings (size 3 to 8) (size 9 to 14) (size 15 to 20)
#    0.000    0.667    3.333    4.000    4.667    8.667 
#    0.000    1.667    3.667    0.000    0.000    0.000 
#    0.000    0.000    0.000    0.000    0.000    0.000 
#
# Total GULP energy -133602.925022 kJ/mol
# GULP energy per Si atom -5566.788543 kJ/mol
# Density = 2.672215 g / cm^3
# Si number density = 26.783106 Si / 1000 Ang^3
#
#
#
# Elastic Constant Matrix: (Units=GPa)
#
#
# Indices 1 2 3 4 5 6 
#
# 1 183.2810 58.4340 78.8902 0.0000 0.0000 0.0000
# 2 58.4340 120.9889 31.9940 0.0000 0.0000 0.0000
# 3 78.8902 31.9940 177.4582 0.0000 0.0000 0.0000
# 4 0.0000 0.0000 0.0000 30.2061 0.0000 0.0000
# 5 0.0000 0.0000 0.0000 0.0000 28.3734 0.0000
# 6 0.0000 0.0000 0.0000 0.0000 0.0000 62.2535
#
#
#
# Elastic Compliance Matrix: (Units=1/GPa)
#
#
# Indices 1 2 3 4 5 6 
#
# 1 0.007619 -0.002924 -0.002860 0.000000 0.000000 0.000000
# 2 -0.002924 0.009801 -0.000467 0.000000 0.000000 0.000000
# 3 -0.002860 -0.000467 0.006991 0.000000 0.000000 0.000000
# 4 0.000000 0.000000 0.000000 0.033106 0.000000 0.000000
# 5 0.000000 0.000000 0.000000 0.000000 0.035244 0.000000
# 6 0.000000 0.000000 0.000000 0.000000 0.000000 0.016063
#
#
# Mechanical properties :
#
#
# Convention : Reuss Voigt Hill
#
# Bulk Modulus (GPa) = 83.97022 91.15159 87.56091
# Shear Modulus (GPa) = 39.90546 44.99392 42.44969
#
# Velocity S-wave (km/s) = 3.86417 4.10315 3.98545
# Velocity P-wave (km/s) = 7.16443 7.52030 7.34452
#
# Compressibility (1/GPa) = 0.01190898
#
# Stress axis : x y z
#
# Youngs Moduli (GPa) = 131.24590 102.03266 143.04395
#
# Poissons Ratio (x) = 0.29830 0.40912
# Poissons Ratio (y) = 0.38371 0.06684
# Poissons Ratio (z) = 0.37538 0.04768
#
# Static dielectric constant tensor:
#      x y z
#    x 2.235810 0.000000 0.000000 
#    y 0.000000 2.173000 0.000000 
#    z 0.000000 0.000000 2.093270 
# 
# From -- ./inp_files/22321.got.cif
#   From: 2010.05.17/outbox.cif.g08.bks.cpg/sg23_12_cif.got.tgz:22321.got - 2010.06.04 12:02:01.
