data_PCOD9332566
_publ_section_title
;
Structure prediction by ZEFSAII (Michael W. Deem and Ramdas Pophale) SiO2 
 PCOD9332566
Probable space group: I 2 2 2
;
_chemical_formula_sum "Si O2"
_cell_formula_units_Z 34
_cell_length_a 27.534566
_cell_length_b 8.712532
_cell_length_c 6.524992
_cell_angle_alpha 90.000000
_cell_angle_beta 90.000000
_cell_angle_gamma 90.000000
_cell_volume 1565.318093
_symmetry_space_group_name_H-M "I 2 2 2"
_symmetry_group_IT_number 23
_symmetry_cell_setting 'orthorhombic'
loop_
_space_group_symop_operation_xyz
x,y,z
-x,-y,z
x,-y,-z
-x,y,-z
1/2+x,1/2+y,1/2+z
1/2-x,1/2-y,1/2+z
1/2+x,1/2-y,1/2-z
1/2-x,1/2+y,1/2-z
loop_
_atom_site_type_symbol
_atom_site_label
_atom_site_fract_x
_atom_site_fract_y
_atom_site_fract_z
Si Si1 0.950825 0.345749 0.381814
Si Si2 0.500000 0.000000 0.500000
Si Si3 0.144638 0.815063 0.482758
Si Si4 0.198528 0.126314 0.140727
Si Si5 0.205920 0.382045 0.842404
O O1 0.932872 0.500000 0.500000
O O2 0.910236 0.218603 0.416698
O O3 0.000000 0.301253 0.500000
O O4 0.966764 0.397034 0.153141
O O5 0.162785 0.779624 0.712183
O O6 0.173888 0.703287 0.328144
O O7 0.153401 0.000000 0.500000
O O8 0.244391 0.048751 0.253119
O O9 0.223126 0.245782 0.989143
O O10 0.172163 0.000000 0.000000
O O11 0.180971 0.500000 0.000000
#
# Coordination Sequence:
#
# PCOD9332566 Si02
#       5
#     8   2   8   8   8
#     4   9  22  43  71  99 134 172 229 290 351 427
#     4   8  18  44  72 104 132 164 230 294 340 422
#     4  12  26  43  65 102 141 184 232 292 361 426
#     4  12  24  45  63  95 147 186 234 294 355 411
#     4  12  26  40  68  98 136 195 240 293 343 424
#
# _framework density 21.720827
#
# number of rings (size 3 to 8) (size 9 to 14) (size 15 to 20)
#    0.000    1.176    4.706    2.118    4.941    2.353 
#    0.000    0.000    0.000    5.647    0.000    0.000 
#    0.000    0.000    0.000    0.000    0.000    0.000 
#
# Total GULP energy -94715.952856 kJ/mol
# GULP energy per Si atom -5571.526639 kJ/mol
# Density = 2.167139 g / cm^3
# Si number density = 21.720827 Si / 1000 Ang^3
#
#
#
# Elastic Constant Matrix: (Units=GPa)
#
#
# Indices 1 2 3 4 5 6 
#
# 1 98.5810 35.0824 52.5553 0.0000 0.0000 0.0000
# 2 35.0824 91.5767 57.1025 0.0000 0.0000 0.0000
# 3 52.5553 57.1025 156.7873 0.0000 0.0000 0.0000
# 4 0.0000 0.0000 0.0000 47.8591 0.0000 0.0000
# 5 0.0000 0.0000 0.0000 0.0000 12.4872 0.0000
# 6 0.0000 0.0000 0.0000 0.0000 0.0000 24.7126
#
#
#
# Elastic Compliance Matrix: (Units=1/GPa)
#
#
# Indices 1 2 3 4 5 6 
#
# 1 0.012924 -0.002911 -0.003272 0.000000 0.000000 0.000000
# 2 -0.002911 0.014784 -0.004409 0.000000 0.000000 0.000000
# 3 -0.003272 -0.004409 0.009081 0.000000 0.000000 0.000000
# 4 0.000000 0.000000 0.000000 0.020895 0.000000 0.000000
# 5 0.000000 0.000000 0.000000 0.000000 0.080082 0.000000
# 6 0.000000 0.000000 0.000000 0.000000 0.000000 0.040465
#
#
# Mechanical properties :
#
#
# Convention : Reuss Voigt Hill
#
# Bulk Modulus (GPa) = 64.07989 70.71392 67.39691
# Shear Modulus (GPa) = 24.43610 30.49210 27.46410
#
# Velocity S-wave (km/s) = 3.35775 3.75082 3.55972
# Velocity P-wave (km/s) = 6.67820 7.16831 6.92759
#
# Compressibility (1/GPa) = 0.01560552
#
# Stress axis : x y z
#
# Youngs Moduli (GPa) = 77.37396 67.64089 110.12600
#
# Poissons Ratio (x) = 0.19690 0.36034
# Poissons Ratio (y) = 0.22523 0.48551
# Poissons Ratio (z) = 0.25317 0.29820
#
# Static dielectric constant tensor:
#      x y z
#    x 1.789630 0.000000 0.000000 
#    y 0.000000 1.915830 0.000000 
#    z 0.000000 0.000000 1.953150 
# 
# From -- ./inp_files/5215.got.cif
#   From: 2010.05.17/outbox.cif.g08.bks.cpg/sg23_3_cif.got.tgz:5215.got - 2010.06.04 12:02:01.
