data_PCOD9332494
_publ_section_title
;
Structure prediction by ZEFSAII (Michael W. Deem and Ramdas Pophale) SiO2 
 PCOD9332494
Probable space group: I 2 2 2
;
_chemical_formula_sum "Si O2"
_cell_formula_units_Z 28
_cell_length_a 7.665039
_cell_length_b 5.103935
_cell_length_c 28.109637
_cell_angle_alpha 90.000000
_cell_angle_beta 90.000000
_cell_angle_gamma 90.000000
_cell_volume 1099.701307
_symmetry_space_group_name_H-M "I 2 2 2"
_symmetry_group_IT_number 23
_symmetry_cell_setting 'orthorhombic'
loop_
_space_group_symop_operation_xyz
x,y,z
-x,-y,z
x,-y,-z
-x,y,-z
1/2+x,1/2+y,1/2+z
1/2-x,1/2-y,1/2+z
1/2+x,1/2-y,1/2-z
1/2-x,1/2+y,1/2-z
loop_
_atom_site_type_symbol
_atom_site_label
_atom_site_fract_x
_atom_site_fract_y
_atom_site_fract_z
Si Si1 0.698682 0.954674 0.612496
Si Si2 0.792324 0.455547 0.553507
Si Si3 0.500000 0.500000 0.275589
Si Si4 0.860024 0.298596 0.687588
O O1 0.748362 0.166939 0.572005
O O2 0.818948 0.040650 0.656603
O O3 0.500000 0.000000 0.627058
O O4 0.717983 0.669920 0.589900
O O5 0.725863 0.500000 0.500000
O O6 0.000000 0.500000 0.552517
O O7 0.670195 0.572874 0.305312
O O8 0.435101 0.723109 0.239128
O O9 0.000000 0.500000 0.665787
#
# Coordination Sequence:
#
# PCOD9332494 Si02
#       4
#     8   8   4   8
#     4  12  29  46  78 116 155 203 260 325 393 474
#     4  11  26  51  79 112 153 203 257 320 403 479
#     4  12  28  50  76 108 152 216 268 328 398 470
#     4  12  29  49  76 112 160 210 272 330 398 469
#
# _framework density 25.461461
#
# number of rings (size 3 to 8) (size 9 to 14) (size 15 to 20)
#    0.000    0.286    2.857    3.429   16.000    5.714 
#    0.000    0.000    0.000    0.000    0.000    0.000 
#    0.000    0.000    0.000    0.000    0.000    0.000 
#
# Total GULP energy -78611.546251 kJ/mol
# GULP energy per Si atom -5615.110446 kJ/mol
# Density = 2.540351 g / cm^3
# Si number density = 25.461461 Si / 1000 Ang^3
#
#
#
# Elastic Constant Matrix: (Units=GPa)
#
#
# Indices 1 2 3 4 5 6 
#
# 1 184.0008 7.2067 25.5503 0.0000 0.0000 0.0000
# 2 7.2067 59.9095 23.0827 0.0000 0.0000 0.0000
# 3 25.5503 23.0827 125.0611 0.0000 0.0000 0.0000
# 4 0.0000 0.0000 0.0000 17.1046 0.0000 0.0000
# 5 0.0000 0.0000 0.0000 0.0000 35.6694 0.0000
# 6 0.0000 0.0000 0.0000 0.0000 0.0000 46.5971
#
#
#
# Elastic Compliance Matrix: (Units=1/GPa)
#
#
# Indices 1 2 3 4 5 6 
#
# 1 0.005597 -0.000251 -0.001097 0.000000 0.000000 0.000000
# 2 -0.000251 0.017981 -0.003268 0.000000 0.000000 0.000000
# 3 -0.001097 -0.003268 0.008823 0.000000 0.000000 0.000000
# 4 0.000000 0.000000 0.000000 0.058464 0.000000 0.000000
# 5 0.000000 0.000000 0.000000 0.000000 0.028035 0.000000
# 6 0.000000 0.000000 0.000000 0.000000 0.000000 0.021461
#
#
# Mechanical properties :
#
#
# Convention : Reuss Voigt Hill
#
# Bulk Modulus (GPa) = 43.15817 53.40564 48.28190
# Shear Modulus (GPa) = 31.78332 40.74966 36.26649
#
# Velocity S-wave (km/s) = 3.53695 4.00490 3.77817
# Velocity P-wave (km/s) = 5.80234 6.51200 6.16739
#
# Compressibility (1/GPa) = 0.02317059
#
# Stress axis : x y z
#
# Youngs Moduli (GPa) = 178.66936 55.61433 113.33545
#
# Poissons Ratio (x) = 0.01393 0.12435
# Poissons Ratio (y) = 0.04476 0.37033
# Poissons Ratio (z) = 0.19604 0.18173
#
# Static dielectric constant tensor:
#      x y z
#    x 1.959500 0.000000 0.000000 
#    y 0.000000 2.001090 0.000000 
#    z 0.000000 0.000000 1.973440 
# 
# From -- ./inp_files/5701.got.cif
#   From: 2010.05.17/outbox.cif.g08.bks.cpg/sg23_3_cif.got.tgz:5701.got - 2010.06.04 12:02:01.
