data_PCOD9332353
_publ_section_title
;
Structure prediction by ZEFSAII (Michael W. Deem and Ramdas Pophale) SiO2 
 PCOD9332353
Probable space group: I 2 2 2
;
_chemical_formula_sum "Si O2"
_cell_formula_units_Z 40
_cell_length_a 8.924050
_cell_length_b 25.640380
_cell_length_c 7.445979
_cell_angle_alpha 90.000000
_cell_angle_beta 90.000000
_cell_angle_gamma 90.000000
_cell_volume 1703.759378
_symmetry_space_group_name_H-M "I 2 2 2"
_symmetry_group_IT_number 23
_symmetry_cell_setting 'orthorhombic'
loop_
_space_group_symop_operation_xyz
x,y,z
-x,-y,z
x,-y,-z
-x,y,-z
1/2+x,1/2+y,1/2+z
1/2-x,1/2-y,1/2+z
1/2+x,1/2-y,1/2-z
1/2-x,1/2+y,1/2-z
loop_
_atom_site_type_symbol
_atom_site_label
_atom_site_fract_x
_atom_site_fract_y
_atom_site_fract_z
Si Si1 0.666218 0.909900 0.478929
Si Si2 0.007108 0.776817 0.299210
Si Si3 0.803979 0.677253 0.690638
Si Si4 0.183033 0.869039 0.160806
Si Si5 0.943053 0.944562 0.296417
O O1 0.500000 0.930383 0.500000
O O2 0.671901 0.855466 0.371145
O O3 0.726056 0.896999 0.678969
O O4 0.767807 0.944600 0.343943
O O5 0.058651 0.717394 0.316940
O O6 0.135578 0.809851 0.202766
O O7 0.000000 0.799345 0.500000
O O8 0.848095 0.788495 0.209013
O O9 0.776221 0.637790 0.523222
O O10 0.022858 0.899826 0.180667
O O11 0.000000 0.936484 0.500000
O O12 0.000000 0.000000 0.228709
#
# Coordination Sequence:
#
# PCOD9332353 Si02
#       5
#     8   8   8   8   8
#     4  11  25  43  67 105 142 176 235 293 356 425
#     4  12  24  43  61  94 138 189 244 281 351 418
#     4  12  27  42  66  96 143 192 235 302 348 419
#     4  11  23  45  66  99 140 181 239 292 351 428
#     4   9  19  44  76 104 138 182 232 296 364 440
#
# _framework density 23.477497
#
# number of rings (size 3 to 8) (size 9 to 14) (size 15 to 20)
#    0.000    1.000    4.000    2.400    5.600    0.000 
#    0.000   10.000    0.000    0.000    0.000   11.200 
#    0.000    0.000    0.000    0.000    0.000    0.000 
#
# Total GULP energy -111677.010978 kJ/mol
# GULP energy per Si atom -5583.850549 kJ/mol
# Density = 2.342406 g / cm^3
# Si number density = 23.477497 Si / 1000 Ang^3
#
#
#
# Elastic Constant Matrix: (Units=GPa)
#
#
# Indices 1 2 3 4 5 6 
#
# 1 119.5325 38.5559 25.1938 -0.0222 0.0002 -0.0004
# 2 38.5559 76.2393 16.9941 -0.0122 0.0002 0.0003
# 3 25.1938 16.9941 128.4732 -0.0825 0.0012 -0.0017
# 4 -0.0222 -0.0122 -0.0825 73.3291 -0.0011 0.0026
# 5 0.0002 0.0002 0.0012 -0.0011 23.9040 0.0001
# 6 -0.0004 0.0003 -0.0017 0.0026 0.0001 22.1659
#
#
#
# Elastic Compliance Matrix: (Units=1/GPa)
#
#
# Indices 1 2 3 4 5 6 
#
# 1 0.010222 -0.004866 -0.001361 0.000001 0.000000 0.000000
# 2 -0.004866 0.015832 -0.001140 0.000000 0.000000 0.000000
# 3 -0.001361 -0.001140 0.008201 0.000009 0.000000 0.000001
# 4 0.000001 0.000000 0.000009 0.013637 0.000001 -0.000002
# 5 0.000000 0.000000 0.000000 0.000001 0.041834 0.000000
# 6 0.000000 0.000000 0.000001 -0.000002 0.000000 0.045114
#
#
# Mechanical properties :
#
#
# Convention : Reuss Voigt Hill
#
# Bulk Modulus (GPa) = 51.22633 53.97029 52.59831
# Shear Modulus (GPa) = 32.03438 40.11323 36.07380
#
# Velocity S-wave (km/s) = 3.69788 4.13798 3.92411
# Velocity P-wave (km/s) = 6.33239 6.77263 6.55621
#
# Compressibility (1/GPa) = 0.01952121
#
# Stress axis : x y z
#
# Youngs Moduli (GPa) = 97.82396 63.16433 121.93053
#
# Poissons Ratio (x) = 0.30738 0.16594
# Poissons Ratio (y) = 0.47605 0.13899
# Poissons Ratio (z) = 0.13313 0.07200
#
# Static dielectric constant tensor:
#      x y z
#    x 1.931660 0.000010 0.000040 
#    y 0.000010 1.893670 0.000000 
#    z 0.000040 0.000000 1.893600 
# 
# From -- ./inp_files/7210.got.cif
#   From: 2010.05.17/outbox.cif.g08.bks.cpg/sg23_4_cif.got.tgz:7210.got - 2010.06.04 12:02:01.
