data_PCOD9332620
_publ_section_title
;
Structure prediction by ZEFSAII (Michael W. Deem and Ramdas Pophale) SiO2 
 PCOD9332620
Probable space group: I 2 2 2
;
_chemical_formula_sum "Si O2"
_cell_formula_units_Z 40
_cell_length_a 7.424561
_cell_length_b 21.498270
_cell_length_c 13.279644
_cell_angle_alpha 90.000000
_cell_angle_beta 90.000000
_cell_angle_gamma 90.000000
_cell_volume 2119.633259
_symmetry_space_group_name_H-M "I 2 2 2"
_symmetry_group_IT_number 23
_symmetry_cell_setting 'orthorhombic'
loop_
_space_group_symop_operation_xyz
x,y,z
-x,-y,z
x,-y,-z
-x,y,-z
1/2+x,1/2+y,1/2+z
1/2-x,1/2-y,1/2+z
1/2+x,1/2-y,1/2-z
1/2-x,1/2+y,1/2-z
loop_
_atom_site_type_symbol
_atom_site_label
_atom_site_fract_x
_atom_site_fract_y
_atom_site_fract_z
Si Si1 0.712936 0.305626 0.889985
Si Si2 0.217743 0.835827 0.172712
Si Si3 0.717743 0.335827 0.327288
Si Si4 0.720254 0.571281 0.500000
Si Si5 0.787064 0.805626 0.389985
O O1 0.784693 0.337192 0.788009
O O2 0.733415 0.231549 0.872430
O O3 0.500000 0.318939 0.892902
O O4 0.788448 0.321748 0.000000
O O5 0.278311 0.890151 0.098444
O O6 0.266587 0.768451 0.127570
O O7 1.000000 0.837651 0.824510
O O8 0.778311 0.390151 0.401556
O O9 0.784692 0.337192 0.211991
O O10 0.778646 0.500000 0.500000
O O11 0.500000 0.571456 0.500000
#
# Coordination Sequence:
#
# PCOD9332620 Si02
#       5
#     8   8   8   8   8
#     4   9  16  25  39  59  83 104 123 160 206 239
#     4   9  16  26  40  58  79 104 134 161 192 235
#     4   9  16  26  40  58  79 104 134 161 192 235
#     4   9  16  26  41  59  79 105 138 169 190 222
#     4   9  16  25  39  59  83 104 123 160 206 239
#
# _framework density 18.871191
#
# number of rings (size 3 to 8) (size 9 to 14) (size 15 to 20)
#    0.000    3.000    2.000    0.000    0.000    0.000 
#    0.000    0.000    0.000    3.600    0.000    8.400 
#    0.000    0.000    0.000   20.000    0.000   20.800 
#
# Total GULP energy -111464.568039 kJ/mol
# GULP energy per Si atom -5573.228402 kJ/mol
# Density = 1.882824 g / cm^3
# Si number density = 18.871191 Si / 1000 Ang^3
#
#
#
# Elastic Constant Matrix: (Units=GPa)
#
#
# Indices 1 2 3 4 5 6 
#
# 1 63.1740 -3.9986 8.0973 0.0000 0.0000 0.0000
# 2 -3.9986 95.7574 79.3388 0.0000 0.0000 0.0000
# 3 8.0973 79.3388 232.7906 0.0000 0.0000 0.0000
# 4 0.0000 0.0000 0.0000 2.8010 0.0000 0.0000
# 5 0.0000 0.0000 0.0000 0.0000 2.4883 0.0000
# 6 0.0000 0.0000 0.0000 0.0000 0.0000 10.2294
#
#
#
# Elastic Compliance Matrix: (Units=1/GPa)
#
#
# Indices 1 2 3 4 5 6 
#
# 1 0.016070 0.001580 -0.001098 0.000000 0.000000 0.000000
# 2 0.001580 0.014708 -0.005068 0.000000 0.000000 0.000000
# 3 -0.001098 -0.005068 0.006061 0.000000 0.000000 0.000000
# 4 0.000000 0.000000 0.000000 0.357015 0.000000 0.000000
# 5 0.000000 0.000000 0.000000 0.000000 0.401888 0.000000
# 6 0.000000 0.000000 0.000000 0.000000 0.000000 0.097758
#
#
# Mechanical properties :
#
#
# Convention : Reuss Voigt Hill
#
# Bulk Modulus (GPa) = 36.14121 62.06636 49.10378
# Shear Modulus (GPa) = 5.48311 23.65602 14.56956
#
# Velocity S-wave (km/s) = 1.70641 3.54439 2.78160
# Velocity P-wave (km/s) = 4.80370 7.05062 6.03269
#
# Compressibility (1/GPa) = 0.02766925
#
# Stress axis : x y z
#
# Youngs Moduli (GPa) = 62.22765 67.99124 164.98888
#
# Poissons Ratio (x) = -0.10746 0.18110
# Poissons Ratio (y) = -0.09835 0.83610
# Poissons Ratio (z) = 0.06830 0.34455
#
# Static dielectric constant tensor:
#      x y z
#    x 1.725560 0.000000 0.000000 
#    y 0.000000 1.586820 0.000000 
#    z 0.000000 0.000000 1.719130 
# 
# From -- ./inp_files/14608.got.cif
#   From: 2010.05.17/outbox.cif.g08.bks.cpg/sg23_8_cif.got.tgz:14608.got - 2010.06.04 12:02:01.
