data_PCOD9332186
_publ_section_title
;
Structure prediction by ZEFSAII (Michael W. Deem and Ramdas Pophale) SiO2 
 PCOD9332186
Probable space group: I 2 2 2
;
_chemical_formula_sum "Si O2"
_cell_formula_units_Z 44
_cell_length_a 16.341043
_cell_length_b 8.642580
_cell_length_c 14.575646
_cell_angle_alpha 90.000000
_cell_angle_beta 90.000000
_cell_angle_gamma 90.000000
_cell_volume 2058.500577
_symmetry_space_group_name_H-M "I 2 2 2"
_symmetry_group_IT_number 23
_symmetry_cell_setting 'orthorhombic'
loop_
_space_group_symop_operation_xyz
x,y,z
-x,-y,z
x,-y,-z
-x,y,-z
1/2+x,1/2+y,1/2+z
1/2-x,1/2-y,1/2+z
1/2+x,1/2-y,1/2-z
1/2-x,1/2+y,1/2-z
loop_
_atom_site_type_symbol
_atom_site_label
_atom_site_fract_x
_atom_site_fract_y
_atom_site_fract_z
Si Si1 0.500000 0.000000 0.250932
Si Si2 0.383816 0.093583 0.590388
Si Si3 0.765246 0.840341 0.835230
Si Si4 0.585347 0.548803 0.605547
Si Si5 0.149121 0.373038 0.679334
Si Si6 0.289954 0.662477 0.979862
O O1 0.574598 0.020938 0.322182
O O2 0.450176 0.123063 0.190122
O O3 0.411674 0.268805 0.598647
O O4 0.286573 0.103759 0.582056
O O5 0.409832 0.000000 0.500000
O O6 0.799485 0.725866 0.755928
O O7 0.838365 0.963559 0.850023
O O8 0.686925 0.952037 0.820115
O O9 0.746490 0.741950 0.927854
O O10 0.500000 0.500000 0.650131
O O11 0.586169 0.500000 0.500000
O O12 0.167102 0.291088 0.581838
O O13 0.335837 0.500000 0.000000
#
# Coordination Sequence:
#
# PCOD9332186 Si02
#       6
#     4   8   8   8   8   8
#     4  12  27  40  63 104 140 184 228 284 346 408
#     4  11  22  39  63  98 139 178 222 284 360 422
#     4  12  23  45  67 103 138 181 232 282 350 418
#     4  11  22  34  58  96 133 174 215 275 348 411
#     4  12  25  43  70 102 143 183 236 285 349 424
#     4  11  23  45  73  99 132 185 234 290 347 415
#
# _framework density 21.374782
#
# number of rings (size 3 to 8) (size 9 to 14) (size 15 to 20)
#    0.000    0.545    3.636    6.273    5.091    0.000 
#    0.000    1.818    0.000    1.091    0.000    0.000 
#    0.000    0.000    0.000    0.000    0.000    0.000 
#
# Total GULP energy -122656.026379 kJ/mol
# GULP energy per Si atom -5575.273926 kJ/mol
# Density = 2.132613 g / cm^3
# Si number density = 21.374782 Si / 1000 Ang^3
#
#
#
# Elastic Constant Matrix: (Units=GPa)
#
#
# Indices 1 2 3 4 5 6 
#
# 1 65.7628 10.1905 32.3375 0.0000 0.0000 0.0000
# 2 10.1905 105.7655 28.8046 0.0000 0.0000 0.0000
# 3 32.3375 28.8046 89.1023 0.0000 0.0000 0.0000
# 4 0.0000 0.0000 0.0000 66.0768 0.0000 0.0000
# 5 0.0000 0.0000 0.0000 0.0000 21.1774 0.0000
# 6 0.0000 0.0000 0.0000 0.0000 0.0000 -30.9092
#
#
#
# Elastic Compliance Matrix: (Units=1/GPa)
#
#
# Indices 1 2 3 4 5 6 
#
# 1 0.018510 0.000051 -0.006734 0.000000 0.000000 0.000000
# 2 0.000051 0.010368 -0.003370 0.000000 0.000000 0.000000
# 3 -0.006734 -0.003370 0.014756 0.000000 0.000000 0.000000
# 4 0.000000 0.000000 0.000000 0.015134 0.000000 0.000000
# 5 0.000000 0.000000 0.000000 0.000000 0.047220 0.000000
# 6 0.000000 0.000000 0.000000 0.000000 0.000000 -0.032353
#
#
# Mechanical properties :
#
#
# Convention : Reuss Voigt Hill
#
# Bulk Modulus (GPa) = 42.50431 44.81065 43.65748
# Shear Modulus (GPa) = 49.22023 23.88887 36.55455
#
# Velocity S-wave (km/s) = 4.80388 3.34671 4.13991
# Velocity P-wave (km/s) = 7.12026 5.99531 6.58186
#
# Compressibility (1/GPa) = 0.02352703
#
# Stress axis : x y z
#
# Youngs Moduli (GPa) = 54.02594 96.45237 67.76706
#
# Poissons Ratio (x) = -0.00488 0.45634
# Poissons Ratio (y) = -0.00273 0.22838
# Poissons Ratio (z) = 0.36381 0.32505
#
# Static dielectric constant tensor:
#      x y z
#    x 1.664530 0.000000 0.000000 
#    y 0.000000 1.832590 0.000000 
#    z 0.000000 0.000000 1.801380 
# 
# From -- ./inp_files/21958.got.cif
#   From: 2010.05.17/outbox.cif.g08.bks.cpg/sg23_11_cif.got.tgz:21958.got - 2010.06.04 12:02:01.
