data_PCOD9332692
_publ_section_title
;
Structure prediction by ZEFSAII (Michael W. Deem and Ramdas Pophale) SiO2 
 PCOD9332692
Probable space group: I 21 21 21
;
_chemical_formula_sum "Si O2"
_cell_formula_units_Z 48
_cell_length_a 12.756103
_cell_length_b 5.630565
_cell_length_c 24.606875
_cell_angle_alpha 90.000000
_cell_angle_beta 90.000000
_cell_angle_gamma 90.000000
_cell_volume 1767.365841
_symmetry_space_group_name_H-M "I 21 21 21"
_symmetry_group_IT_number 24
_symmetry_cell_setting 'orthorhombic'
loop_
_space_group_symop_operation_xyz
x,y,z
-x,1/2-y,z
x,-y,1/2-z
1/2-x,y,-z
1/2+x,1/2+y,1/2+z
1/2-x,-y,1/2+z
1/2+x,1/2-y,-z
-x,1/2+y,1/2-z
loop_
_atom_site_type_symbol
_atom_site_label
_atom_site_fract_x
_atom_site_fract_y
_atom_site_fract_z
Si Si1 0.906304 0.639789 0.681564
Si Si2 0.877599 0.864992 0.873049
Si Si3 0.123252 0.373815 0.499575
Si Si4 0.661369 0.092343 0.690590
Si Si5 0.849073 0.379357 0.040680
Si Si6 0.166228 0.899071 0.332537
O O1 0.917665 0.380161 0.654801
O O2 0.782063 0.625044 0.696196
O O3 0.000000 0.750000 0.721495
O O4 0.910208 0.868814 0.643060
O O5 0.756806 0.873378 0.852027
O O6 0.898531 0.860388 0.936583
O O7 0.250000 0.369082 0.500000
O O8 0.099307 0.623011 0.470061
O O9 0.090781 0.121911 0.473933
O O10 0.615363 0.358338 0.690190
O O11 0.695685 0.000000 0.750000
O O12 0.605275 0.850805 0.672413
O O13 0.813936 0.411069 0.102775
O O14 0.750000 0.376063 0.000000
#
# Coordination Sequence:
#
# PCOD9332692 Si02
#       6
#     8   8   8   8   8   8
#     4  10  18  29  43  56  74 102 129 163 209 244
#     4  10  19  30  42  60  80  97 132 171 200 244
#     4  10  16  25  41  60  79  99 117 150 208 242
#     4  10  18  29  43  56  74 102 129 163 209 244
#     4  10  16  25  41  60  79  99 117 150 208 242
#     4  10  19  30  42  60  80  97 132 171 200 244
#
# _framework density 27.159061999999999
#
# number of rings (size 3 to 8) (size 9 to 14) (size 15 to 20)
#    0.000    2.000    0.000   11.000    0.000    0.000 
#    0.000    0.000    0.000   32.000    0.000    0.000 
#    0.000    0.000    0.000    0.000    0.000    0.000 
#
# Total GULP energy -133780.665203 kJ/mol
# GULP energy per Si atom -5574.194383 kJ/mol
# Density = 2.709725 g / cm^3
# Si number density = 27.159062 Si / 1000 Ang^3
#
#
#
# Elastic Constant Matrix: (Units=GPa)
#
#
# Indices 1 2 3 4 5 6 
#
# 1 83.9633 75.3571 10.2025 0.0000 0.0000 0.0000
# 2 75.3571 354.9483 65.3041 0.0000 0.0000 0.0000
# 3 10.2025 65.3041 148.3702 0.0000 0.0000 0.0000
# 4 0.0000 0.0000 0.0000 73.2590 0.0000 0.0000
# 5 0.0000 0.0000 0.0000 0.0000 -153.6117 0.0000
# 6 0.0000 0.0000 0.0000 0.0000 0.0000 65.8880
#
#
#
# Elastic Compliance Matrix: (Units=1/GPa)
#
#
# Indices 1 2 3 4 5 6 
#
# 1 0.014735 -0.003201 0.000396 0.000000 0.000000 0.000000
# 2 -0.003201 0.003761 -0.001435 0.000000 0.000000 0.000000
# 3 0.000396 -0.001435 0.007344 0.000000 0.000000 0.000000
# 4 0.000000 0.000000 0.000000 0.013650 0.000000 0.000000
# 5 0.000000 0.000000 0.000000 0.000000 -0.006510 0.000000
# 6 0.000000 0.000000 0.000000 0.000000 0.000000 0.015177
#
#
# Mechanical properties :
#
#
# Convention : Reuss Voigt Hill
#
# Bulk Modulus (GPa) = 57.60704 98.77881 78.19292
# Shear Modulus (GPa) = 80.09563 26.20158 53.14861
#
# Velocity S-wave (km/s) = 5.43648 3.10940 4.42853
# Velocity P-wave (km/s) = 7.78872 7.02429 7.41636
#
# Compressibility (1/GPa) = 0.01735899
#
# Stress axis : x y z
#
# Youngs Moduli (GPa) = 67.86627 265.88855 136.15814
#
# Poissons Ratio (x) = 0.85113 -0.05388
# Poissons Ratio (y) = 0.21725 0.19542
# Poissons Ratio (z) = -0.02685 0.38162
#
# Static dielectric constant tensor:
#      x y z
#    x 2.286050 0.000000 0.000000 
#    y 0.000000 2.655610 0.000000 
#    z 0.000000 0.000000 2.180530 
# 
# From -- ./inp_files/36049.got.cif
#   From: 2010.05.17/outbox.cif.g08.bks.cpg/sg24_19_cif.got.tgz:36049.got - 2010.06.04 00:33:39.
