data_PCOD9332414
_publ_section_title
;
Structure prediction by ZEFSAII (Michael W. Deem and Ramdas Pophale) SiO2 
 PCOD9332414
Probable space group: I 2 2 2
;
_chemical_formula_sum "Si O2"
_cell_formula_units_Z 34
_cell_length_a 10.552863
_cell_length_b 11.599933
_cell_length_c 11.316741
_cell_angle_alpha 90.000000
_cell_angle_beta 90.000000
_cell_angle_gamma 90.000000
_cell_volume 1385.310600
_symmetry_space_group_name_H-M "I 2 2 2"
_symmetry_group_IT_number 23
_symmetry_cell_setting 'orthorhombic'
loop_
_space_group_symop_operation_xyz
x,y,z
-x,-y,z
x,-y,-z
-x,y,-z
1/2+x,1/2+y,1/2+z
1/2-x,1/2-y,1/2+z
1/2+x,1/2-y,1/2-z
1/2-x,1/2+y,1/2-z
loop_
_atom_site_type_symbol
_atom_site_label
_atom_site_fract_x
_atom_site_fract_y
_atom_site_fract_z
Si Si1 0.500000 0.500000 0.000000
Si Si2 0.329386 0.531447 0.179645
Si Si3 0.095697 0.185526 0.110832
Si Si4 0.901814 0.595049 0.263838
Si Si5 0.848304 0.262401 0.526243
O O1 0.412528 0.442146 0.101239
O O2 0.384016 0.574877 0.304195
O O3 0.193133 0.477030 0.184206
O O4 0.327580 0.644795 0.098805
O O5 0.048099 0.293681 0.191925
O O6 0.239166 0.218875 0.070151
O O7 0.000000 0.170494 0.000000
O O8 0.824031 0.639931 0.375260
O O9 0.000000 0.500000 0.305950
O O10 0.000000 0.274215 0.500000
#
# Coordination Sequence:
#
# PCOD9332414 Si02
#       5
#     2   8   8   8   8
#     4  12  24  44  68  96 138 188 232 284 352 432
#     4  11  25  43  72 101 137 187 234 288 353 419
#     4  11  26  45  71 107 145 180 240 304 348 409
#     4  11  25  45  72 102 140 190 235 279 357 426
#     4  11  24  45  70 101 146 186 229 291 353 421
#
# _framework density 24.543232
#
# number of rings (size 3 to 8) (size 9 to 14) (size 15 to 20)
#    0.000    0.941    1.176    4.235    3.294    9.412 
#    0.000    0.000    0.000    0.000    0.000    0.000 
#    0.000    0.000    0.000    0.000    0.000    0.000 
#
# Total GULP energy -94876.316040 kJ/mol
# GULP energy per Si atom -5580.959767 kJ/mol
# Density = 2.448737 g / cm^3
# Si number density = 24.543232 Si / 1000 Ang^3
#
#
#
# Elastic Constant Matrix: (Units=GPa)
#
#
# Indices 1 2 3 4 5 6 
#
# 1 47.9490 22.6535 -5.1377 0.0000 0.0000 0.0000
# 2 22.6535 59.8473 32.2268 0.0000 0.0000 0.0000
# 3 -5.1377 32.2268 78.6323 0.0000 0.0000 0.0000
# 4 0.0000 0.0000 0.0000 -3.4005 0.0000 0.0000
# 5 0.0000 0.0000 0.0000 0.0000 51.0698 0.0000
# 6 0.0000 0.0000 0.0000 0.0000 0.0000 35.1882
#
#
#
# Elastic Compliance Matrix: (Units=1/GPa)
#
#
# Indices 1 2 3 4 5 6 
#
# 1 0.029011 -0.015401 0.008207 0.000000 0.000000 0.000000
# 2 -0.015401 0.029617 -0.013144 0.000000 0.000000 0.000000
# 3 0.008207 -0.013144 0.018641 0.000000 0.000000 0.000000
# 4 0.000000 0.000000 0.000000 -0.294071 0.000000 0.000000
# 5 0.000000 0.000000 0.000000 0.000000 0.019581 0.000000
# 6 0.000000 0.000000 0.000000 0.000000 0.000000 0.028419
#
#
# Mechanical properties :
#
#
# Convention : Reuss Voigt Hill
#
# Bulk Modulus (GPa) = 27.32771 31.76820 29.54796
# Shear Modulus (GPa) = -43.12963 25.68389 -8.72287
#
# Velocity S-wave (km/s) = -4.19655 3.23844 -1.88727
# Velocity P-wave (km/s) = 3.51038 5.19184 2.70485
#
# Compressibility (1/GPa) = 0.03659290
#
# Stress axis : x y z
#
# Youngs Moduli (GPa) = 34.46963 33.76462 53.64575
#
# Poissons Ratio (x) = 0.52000 -0.44029
# Poissons Ratio (y) = 0.53086 0.70514
# Poissons Ratio (z) = -0.28291 0.44382
#
# Static dielectric constant tensor:
#      x y z
#    x 2.200920 0.000000 0.000000 
#    y 0.000000 2.185240 0.000000 
#    z 0.000000 0.000000 1.926090 
# 
# From -- ./inp_files/7984.got.cif
#   From: 2010.05.17/outbox.cif.g08.bks.cpg/sg23_4_cif.got.tgz:7984.got - 2010.06.04 12:02:01.
