data_PCOD9332128
_publ_section_title
;
Structure prediction by ZEFSAII (Michael W. Deem and Ramdas Pophale) SiO2 
 PCOD9332128
Probable space group: I 2 2 2
;
_chemical_formula_sum "Si O2"
_cell_formula_units_Z 64
_cell_length_a 9.505505
_cell_length_b 17.139121
_cell_length_c 18.082093
_cell_angle_alpha 90.000000
_cell_angle_beta 90.000000
_cell_angle_gamma 90.000000
_cell_volume 2945.862270
_symmetry_space_group_name_H-M "I 2 2 2"
_symmetry_group_IT_number 23
_symmetry_cell_setting 'orthorhombic'
loop_
_space_group_symop_operation_xyz
x,y,z
-x,-y,z
x,-y,-z
-x,y,-z
1/2+x,1/2+y,1/2+z
1/2-x,1/2-y,1/2+z
1/2+x,1/2-y,1/2-z
1/2-x,1/2+y,1/2-z
loop_
_atom_site_type_symbol
_atom_site_label
_atom_site_fract_x
_atom_site_fract_y
_atom_site_fract_z
Si Si1 0.191640 0.677673 0.050126
Si Si2 0.385866 0.639029 0.562638
Si Si3 0.997453 0.592809 0.835192
Si Si4 0.611821 0.357666 0.321547
Si Si5 0.074686 0.648805 0.572061
Si Si6 0.890641 0.430596 0.316278
Si Si7 0.762658 0.305517 0.878913
Si Si8 0.564277 0.300182 0.155896
O O1 0.140701 0.767531 0.057957
O O2 0.076161 0.627504 0.092236
O O3 0.334598 0.660411 0.095335
O O4 0.216263 0.669121 0.963644
O O5 0.500000 0.616389 0.500000
O O6 0.464907 0.622688 0.639409
O O7 0.224921 0.609008 0.555692
O O8 0.914179 0.617327 0.760435
O O9 0.000000 0.500000 0.844486
O O10 0.148608 0.633639 0.830411
O O11 0.723124 0.428747 0.324571
O O12 0.679429 0.282584 0.364836
O O13 0.593311 0.329105 0.237878
O O14 0.100020 0.709872 0.638493
O O15 0.000000 0.686846 0.500000
O O16 0.952231 0.597128 0.605907
O O17 0.000000 0.500000 0.300844
O O18 0.599657 0.308187 0.860053
#
# Coordination Sequence:
#
# PCOD9332128 Si02
#       8
#     8   8   8   8   8   8   8   8
#     4  11  21  41  60  96 132 172 214 275 337 401
#     4  11  21  37  62 100 132 164 211 280 335 388
#     4  11  24  43  66  93 132 181 222 265 335 421
#     4  12  23  39  65  99 132 171 230 282 346 402
#     4  11  23  39  66  98 133 173 217 271 345 404
#     4  11  25  46  65  89 130 177 224 275 338 418
#     4  12  23  38  65  98 135 165 222 284 335 403
#     4  11  24  36  63  97 131 167 217 282 336 394
#
# _framework density 21.725387000000001
#
# number of rings (size 3 to 8) (size 9 to 14) (size 15 to 20)
#    0.000    0.750    5.000    3.750    5.250    1.250 
#    0.000    1.250    0.000    2.250    0.000    0.000 
#    0.000    0.000    0.000    0.000    0.000    0.000 
#
# Total GULP energy -178493.019215 kJ/mol
# GULP energy per Si atom -5577.906850 kJ/mol
# Density = 2.167594 g / cm^3
# Si number density = 21.725387 Si / 1000 Ang^3
#
#
#
# Elastic Constant Matrix: (Units=GPa)
#
#
# Indices 1 2 3 4 5 6 
#
# 1 152.4997 -8.9167 32.6753 0.0000 0.0000 0.0000
# 2 -8.9167 5.6975 -0.4137 0.0000 0.0000 0.0000
# 3 32.6753 -0.4137 104.3036 0.0000 0.0000 0.0000
# 4 0.0000 0.0000 0.0000 12.9448 0.0000 0.0000
# 5 0.0000 0.0000 0.0000 0.0000 26.5725 0.0000
# 6 0.0000 0.0000 0.0000 0.0000 0.0000 21.1326
#
#
#
# Elastic Compliance Matrix: (Units=1/GPa)
#
#
# Indices 1 2 3 4 5 6 
#
# 1 0.007770 0.011986 -0.002386 0.000000 0.000000 0.000000
# 2 0.011986 0.194059 -0.002985 0.000000 0.000000 0.000000
# 3 -0.002386 -0.002985 0.010323 0.000000 0.000000 0.000000
# 4 0.000000 0.000000 0.000000 0.077251 0.000000 0.000000
# 5 0.000000 0.000000 0.000000 0.000000 0.037633 0.000000
# 6 0.000000 0.000000 0.000000 0.000000 0.000000 0.047320
#
#
# Mechanical properties :
#
#
# Convention : Reuss Voigt Hill
#
# Bulk Modulus (GPa) = 4.43693 34.35451 19.39572
# Shear Modulus (GPa) = 11.46121 28.07368 19.76745
#
# Velocity S-wave (km/s) = 2.29934 3.59863 3.01969
# Velocity P-wave (km/s) = 3.01595 5.75450 4.59403
#
# Compressibility (1/GPa) = 0.22538109
#
# Stress axis : x y z
#
# Youngs Moduli (GPa) = 128.70748 5.15307 96.86962
#
# Poissons Ratio (x) = -0.06177 0.23117
# Poissons Ratio (y) = -1.54272 0.28918
# Poissons Ratio (z) = 0.30715 0.01538
#
# Static dielectric constant tensor:
#      x y z
#    x 1.799690 0.000000 0.000000 
#    y 0.000000 1.845170 0.000000 
#    z 0.000000 0.000000 1.864770 
# 
# From -- ./inp_files/23983.got.cif
#   From: 2010.05.17/outbox.cif.g08.bks.cpg/sg23_12_cif.got.tgz:23983.got - 2010.06.04 12:02:01.
