data_PCOD9332672
_publ_section_title
;
Structure prediction by ZEFSAII (Michael W. Deem and Ramdas Pophale) SiO2 
 PCOD9332672
Probable space group: I 21 21 21
;
_chemical_formula_sum "Si O2"
_cell_formula_units_Z 52
_cell_length_a 12.949763
_cell_length_b 12.879226
_cell_length_c 15.930949
_cell_angle_alpha 90.000000
_cell_angle_beta 90.000000
_cell_angle_gamma 90.000000
_cell_volume 2657.010261
_symmetry_space_group_name_H-M "I 21 21 21"
_symmetry_group_IT_number 24
_symmetry_cell_setting 'orthorhombic'
loop_
_space_group_symop_operation_xyz
x,y,z
-x,1/2-y,z
x,-y,1/2-z
1/2-x,y,-z
1/2+x,1/2+y,1/2+z
1/2-x,-y,1/2+z
1/2+x,1/2-y,-z
-x,1/2+y,1/2-z
loop_
_atom_site_type_symbol
_atom_site_label
_atom_site_fract_x
_atom_site_fract_y
_atom_site_fract_z
Si Si1 0.182251 0.731420 0.183311
Si Si2 0.878858 0.456220 0.344906
Si Si3 0.750000 0.647621 0.500000
Si Si4 0.904090 0.327416 0.713023
Si Si5 0.353787 0.029261 0.126153
Si Si6 0.381282 0.284860 0.876741
Si Si7 0.106594 0.512434 0.147771
O O1 0.129666 0.832816 0.144562
O O2 0.302464 0.760205 0.192546
O O3 0.134799 0.728664 0.277002
O O4 0.160687 0.623611 0.136094
O O5 0.887058 0.500000 0.250000
O O6 0.768005 0.500255 0.369450
O O7 0.988233 0.485568 0.382351
O O8 0.848769 0.584590 0.536837
O O9 0.798949 0.716875 0.426633
O O10 0.912275 0.421540 0.645041
O O11 0.884059 0.390037 0.800315
O O12 0.000000 0.250000 0.717374
O O13 0.500000 0.250000 0.895311
O O14 0.353713 0.405834 0.891610
O O15 0.109657 0.500000 0.250000
#
# Coordination Sequence:
#
# PCOD9332672 Si02
#       7
#     8   8   4   8   8   8   8
#     4  10  17  33  56  86 116 142 186 244 298 346
#     4  10  14  29  56  81 111 139 182 236 285 356
#     4  12  22  38  58  84 118 158 200 248 310 378
#     4  10  20  38  60  86 118 157 211 261 298 357
#     4  10  20  37  59  85 112 155 205 253 305 362
#     4  11  21  35  53  80 116 151 188 237 302 368
#     4   9  18  27  49  85 113 143 174 229 302 349
#
# _framework density 19.570868000000001
#
# number of rings (size 3 to 8) (size 9 to 14) (size 15 to 20)
#    0.000    1.846    4.615    4.154    0.000    0.615 
#    8.308    0.000    0.000   11.077    0.000    0.000 
#    0.000    0.000    0.000    0.000    0.000    0.000 
#
# Total GULP energy -144767.728536 kJ/mol
# GULP energy per Si atom -5567.989559 kJ/mol
# Density = 1.952632 g / cm^3
# Si number density = 19.570868 Si / 1000 Ang^3
#
#
#
# Elastic Constant Matrix: (Units=GPa)
#
#
# Indices 1 2 3 4 5 6 
#
# 1 55.3053 42.1613 4.3060 0.0000 0.0000 0.0000
# 2 42.1613 169.8000 28.7861 0.0000 0.0000 0.0000
# 3 4.3060 28.7861 29.4406 0.0000 0.0000 0.0000
# 4 0.0000 0.0000 0.0000 14.5648 0.0000 0.0000
# 5 0.0000 0.0000 0.0000 0.0000 -1.5960 0.0000
# 6 0.0000 0.0000 0.0000 0.0000 0.0000 37.0805
#
#
#
# Elastic Compliance Matrix: (Units=1/GPa)
#
#
# Indices 1 2 3 4 5 6 
#
# 1 0.022468 -0.006019 0.002599 0.000000 0.000000 0.000000
# 2 -0.006019 0.008672 -0.007599 0.000000 0.000000 0.000000
# 3 0.002599 -0.007599 0.041017 0.000000 0.000000 0.000000
# 4 0.000000 0.000000 0.000000 0.068659 0.000000 0.000000
# 5 0.000000 0.000000 0.000000 0.000000 -0.626565 0.000000
# 6 0.000000 0.000000 0.000000 0.000000 0.000000 0.026968
#
#
# Mechanical properties :
#
#
# Convention : Reuss Voigt Hill
#
# Bulk Modulus (GPa) = 19.95262 45.00586 32.47924
# Shear Modulus (GPa) = -11.90371 21.96267 5.02948
#
# Velocity S-wave (km/s) = -2.46892 3.35358 1.60482
# Velocity P-wave (km/s) = 1.44560 6.16779 4.47947
#
# Compressibility (1/GPa) = 0.05011874
#
# Stress axis : x y z
#
# Youngs Moduli (GPa) = 44.50784 115.31137 24.38037
#
# Poissons Ratio (x) = 0.69411 -0.06338
# Poissons Ratio (y) = 0.26791 0.18527
# Poissons Ratio (z) = -0.11570 0.87625
#
# Static dielectric constant tensor:
#      x y z
#    x 1.675680 0.000000 0.000000 
#    y 0.000000 1.765020 0.000000 
#    z 0.000000 0.000000 1.740910 
# 
# From -- ./inp_files/30831.got.cif
#   From: 2010.05.17/outbox.cif.g08.bks.cpg/sg24_16_cif.got.tgz:30831.got - 2010.06.04 00:33:39.
