data_PCOD9332968
_publ_section_title
;
Structure prediction by ZEFSAII (Michael W. Deem and Ramdas Pophale) SiO2 
 PCOD9332968
Probable space group: I 21 21 21
;
_chemical_formula_sum "Si O2"
_cell_formula_units_Z 52
_cell_length_a 14.243679
_cell_length_b 5.456231
_cell_length_c 28.750176
_cell_angle_alpha 90.000000
_cell_angle_beta 90.000000
_cell_angle_gamma 90.000000
_cell_volume 2234.371762
_symmetry_space_group_name_H-M "I 21 21 21"
_symmetry_group_IT_number 24
_symmetry_cell_setting 'orthorhombic'
loop_
_space_group_symop_operation_xyz
x,y,z
-x,1/2-y,z
x,-y,1/2-z
1/2-x,y,-z
1/2+x,1/2+y,1/2+z
1/2-x,-y,1/2+z
1/2+x,1/2-y,-z
-x,1/2+y,1/2-z
loop_
_atom_site_type_symbol
_atom_site_label
_atom_site_fract_x
_atom_site_fract_y
_atom_site_fract_z
Si Si1 0.718078 0.395836 0.681322
Si Si2 0.088754 0.854429 0.945813
Si Si3 0.554495 0.500000 0.750000
Si Si4 0.304935 0.373165 0.951492
Si Si5 0.169650 0.605499 0.702870
Si Si6 0.884323 0.858798 0.604206
Si Si7 0.694237 0.377692 0.569991
O O1 0.618815 0.421408 0.706463
O O2 0.775007 0.632966 0.702103
O O3 0.710332 0.402946 0.625301
O O4 0.762342 0.128597 0.692253
O O5 0.086420 0.629528 0.909855
O O6 0.201961 0.861612 0.955190
O O7 0.000000 0.750000 0.976215
O O8 0.077570 0.122126 0.923156
O O9 0.500000 0.250000 0.762546
O O10 0.225919 0.357010 0.910996
O O11 0.356113 0.625298 0.942236
O O12 0.357838 0.117170 0.949027
O O13 0.250000 0.382109 0.000000
O O14 0.123565 0.500000 0.750000
O O15 0.103399 0.649872 0.658976
#
# Coordination Sequence:
#
# PCOD9332968 Si02
#       7
#     8   8   4   8   8   8   8
#     4  12  20  37  58  77 114 149 178 248 286 336
#     4  10  18  31  52  77 112 148 182 231 277 326
#     4  12  26  40  56  92 120 144 200 246 298 366
#     4  10  18  30  52  80 116 136 178 249 294 330
#     4  12  19  33  57  84 104 145 191 234 282 330
#     4  10  19  33  48  80 117 133 196 234 279 342
#     4  10  19  34  52  83 111 144 200 225 295 348
#
# _framework density 23.272760000000002
#
# number of rings (size 3 to 8) (size 9 to 14) (size 15 to 20)
#    0.000    1.231    7.692    1.846    0.000    0.000 
#    0.000    0.000    0.000    1.846    0.000   43.077 
#    0.000    0.000    0.000    0.000    0.000    0.000 
#
# Total GULP energy -144746.219256 kJ/mol
# GULP energy per Si atom -5567.162279 kJ/mol
# Density = 2.321979 g / cm^3
# Si number density = 23.272760 Si / 1000 Ang^3
#
#
#
# Elastic Constant Matrix: (Units=GPa)
#
#
# Indices 1 2 3 4 5 6 
#
# 1 57.6071 29.2749 13.5073 0.0000 0.0000 0.0000
# 2 29.2749 234.6898 21.7107 0.0000 0.0000 0.0000
# 3 13.5073 21.7107 103.8527 0.0000 0.0000 0.0000
# 4 0.0000 0.0000 0.0000 20.5641 0.0000 0.0000
# 5 0.0000 0.0000 0.0000 0.0000 -24.1319 0.0000
# 6 0.0000 0.0000 0.0000 0.0000 0.0000 29.3822
#
#
#
# Elastic Compliance Matrix: (Units=1/GPa)
#
#
# Indices 1 2 3 4 5 6 
#
# 1 0.018936 -0.002176 -0.002008 0.000000 0.000000 0.000000
# 2 -0.002176 0.004595 -0.000678 0.000000 0.000000 0.000000
# 3 -0.002008 -0.000678 0.010032 0.000000 0.000000 0.000000
# 4 0.000000 0.000000 0.000000 0.048628 0.000000 0.000000
# 5 0.000000 0.000000 0.000000 0.000000 -0.041439 0.000000
# 6 0.000000 0.000000 0.000000 0.000000 0.000000 0.034034
#
#
# Mechanical properties :
#
#
# Convention : Reuss Voigt Hill
#
# Bulk Modulus (GPa) = 41.94773 58.34839 50.14806
# Shear Modulus (GPa) = 54.07971 27.27332 40.67652
#
# Velocity S-wave (km/s) = 4.82574 3.42701 4.18523
# Velocity P-wave (km/s) = 7.00813 6.38633 6.70444
#
# Compressibility (1/GPa) = 0.02383919
#
# Stress axis : x y z
#
# Youngs Moduli (GPa) = 52.81032 217.62359 99.68285
#
# Poissons Ratio (x) = 0.47361 0.20015
# Poissons Ratio (y) = 0.11493 0.06754
# Poissons Ratio (z) = 0.10604 0.14745
#
# Static dielectric constant tensor:
#      x y z
#    x 2.323130 0.000000 0.000000 
#    y 0.000000 2.000840 0.000000 
#    z 0.000000 0.000000 1.976780 
# 
# From -- ./inp_files/38796.got.cif
#   From: 2010.05.17/outbox.cif.g08.bks.cpg/sg24_20_cif.got.tgz:38796.got - 2010.06.04 00:33:39.
