data_PCOD9332983
_publ_section_title
;
Structure prediction by ZEFSAII (Michael W. Deem and Ramdas Pophale) SiO2 
 PCOD9332983
Probable space group: I 21 21 21
;
_chemical_formula_sum "Si O2"
_cell_formula_units_Z 56
_cell_length_a 11.504203
_cell_length_b 20.688295
_cell_length_c 13.380139
_cell_angle_alpha 90.000000
_cell_angle_beta 90.000000
_cell_angle_gamma 90.000000
_cell_volume 3184.504464
_symmetry_space_group_name_H-M "I 21 21 21"
_symmetry_group_IT_number 24
_symmetry_cell_setting 'orthorhombic'
loop_
_space_group_symop_operation_xyz
x,y,z
-x,1/2-y,z
x,-y,1/2-z
1/2-x,y,-z
1/2+x,1/2+y,1/2+z
1/2-x,-y,1/2+z
1/2+x,1/2-y,-z
-x,1/2+y,1/2-z
loop_
_atom_site_type_symbol
_atom_site_label
_atom_site_fract_x
_atom_site_fract_y
_atom_site_fract_z
Si Si1 0.255820 0.661408 0.160469
Si Si2 0.135700 0.404666 0.163148
Si Si3 0.590865 0.111005 0.482671
Si Si4 0.440694 0.000000 0.750000
Si Si5 0.750000 0.994861 0.500000
Si Si6 0.126539 0.264254 0.059858
Si Si7 0.151316 0.908925 0.085336
Si Si8 0.373279 0.216437 0.724852
O O1 0.225650 0.613090 0.249479
O O2 0.382473 0.653941 0.113640
O O3 0.224603 0.732615 0.193523
O O4 0.163971 0.641965 0.073915
O O5 0.113730 0.336260 0.107997
O O6 0.025085 0.441762 0.210887
O O7 0.194528 0.452318 0.085568
O O8 0.463695 0.101123 0.520096
O O9 0.650099 0.042260 0.460083
O O10 0.366555 0.971039 0.842149
O O11 0.132529 0.214941 0.154530
O O12 0.000000 0.250000 0.008532
O O13 0.250000 0.261757 0.000000
O O14 0.150716 0.848046 0.162343
O O15 0.250000 0.912284 0.000000
O O16 0.500000 0.250000 0.701867
#
# Coordination Sequence:
#
# PCOD9332983 Si02
#       8
#     8   8   8   4   4   8   8   8
#     4   9  18  32  58  88 114 139 180 245 298 340
#     4  11  18  35  63  89 115 151 192 245 293 362
#     4  10  19  34  53  88 115 144 188 242 301 330
#     4  12  20  42  58  80 120 160 198 240 294 340
#     4  10  18  30  62  92 108 142 194 246 294 340
#     4  10  21  38  61  90 118 153 203 245 296 358
#     4  12  25  38  59  83 115 162 203 231 278 362
#     4  10  19  37  60  87 114 151 194 238 295 357
#
# _framework density 17.585153999999999
#
# number of rings (size 3 to 8) (size 9 to 14) (size 15 to 20)
#    0.000    1.714    5.000    2.571    2.000    0.000 
#    0.000    7.143    0.000    0.000    0.000    0.000 
#    0.000    0.000    0.000    0.000    0.000    0.000 
#
# Total GULP energy -155900.044501 kJ/mol
# GULP energy per Si atom -5567.858732 kJ/mol
# Density = 1.754513 g / cm^3
# Si number density = 17.585154 Si / 1000 Ang^3
#
#
#
# Elastic Constant Matrix: (Units=GPa)
#
#
# Indices 1 2 3 4 5 6 
#
# 1 101.7932 27.7053 53.8027 0.0000 0.0000 0.0000
# 2 27.7053 51.8981 33.6805 -0.0001 0.0000 0.0001
# 3 53.8027 33.6805 80.1832 -0.0001 0.0000 0.0001
# 4 0.0000 -0.0001 -0.0001 34.5458 0.0000 0.0000
# 5 0.0000 0.0000 0.0000 0.0000 32.9299 0.0000
# 6 0.0000 0.0001 0.0001 0.0000 0.0000 5.0695
#
#
#
# Elastic Compliance Matrix: (Units=1/GPa)
#
#
# Indices 1 2 3 4 5 6 
#
# 1 0.015384 -0.002081 -0.009449 0.000000 0.000000 0.000000
# 2 -0.002081 0.026771 -0.009849 0.000000 0.000000 0.000000
# 3 -0.009449 -0.009849 0.022949 0.000000 0.000000 0.000000
# 4 0.000000 0.000000 0.000000 0.028947 0.000000 0.000000
# 5 0.000000 0.000000 0.000000 0.000000 0.030368 0.000000
# 6 0.000000 0.000000 0.000000 0.000000 0.000000 0.197260
#
#
# Mechanical properties :
#
#
# Convention : Reuss Voigt Hill
#
# Bulk Modulus (GPa) = 44.74873 51.58352 48.16613
# Shear Modulus (GPa) = 13.44505 22.42142 17.93323
#
# Velocity S-wave (km/s) = 2.76808 3.57462 3.19689
# Velocity P-wave (km/s) = 5.97650 6.81428 6.40909
#
# Compressibility (1/GPa) = 0.02234700
#
# Stress axis : x y z
#
# Youngs Moduli (GPa) = 65.00110 37.35398 43.57579
#
# Poissons Ratio (x) = 0.07772 0.41174
# Poissons Ratio (y) = 0.13525 0.42917
# Poissons Ratio (z) = 0.61419 0.36789
#
# Static dielectric constant tensor:
#      x y z
#    x 1.620730 0.000000 0.000000 
#    y 0.000000 1.633350 0.000000 
#    z 0.000000 0.000000 1.674960 
# 
# From -- ./inp_files/19963.got.cif
#   From: 2010.05.17/outbox.cif.g08.bks.cpg/sg24_10_cif.got.tgz:19963.got - 2010.06.04 00:33:39.
