data_PCOD9332211
_publ_section_title
;
Structure prediction by ZEFSAII (Michael W. Deem and Ramdas Pophale) SiO2 
 PCOD9332211
Probable space group: I 2 2 2
;
_chemical_formula_sum "Si O2"
_cell_formula_units_Z 36
_cell_length_a 15.579872
_cell_length_b 7.768749
_cell_length_c 13.340996
_cell_angle_alpha 90.000000
_cell_angle_beta 90.000000
_cell_angle_gamma 90.000000
_cell_volume 1614.742326
_symmetry_space_group_name_H-M "I 2 2 2"
_symmetry_group_IT_number 23
_symmetry_cell_setting 'orthorhombic'
loop_
_space_group_symop_operation_xyz
x,y,z
-x,-y,z
x,-y,-z
-x,y,-z
1/2+x,1/2+y,1/2+z
1/2-x,1/2-y,1/2+z
1/2+x,1/2-y,1/2-z
1/2-x,1/2+y,1/2-z
loop_
_atom_site_type_symbol
_atom_site_label
_atom_site_fract_x
_atom_site_fract_y
_atom_site_fract_z
Si Si1 0.166270 0.135759 0.345773
Si Si2 0.330143 0.917564 0.310767
Si Si3 0.057119 0.712851 0.100521
Si Si4 0.230721 0.805973 0.996515
Si Si5 0.500000 0.500000 0.754969
O O1 0.150755 0.316531 0.289849
O O2 0.197450 0.182008 0.456719
O O3 0.083241 0.023458 0.323774
O O4 0.248532 0.041458 0.297169
O O5 0.301798 0.776447 0.393373
O O6 0.407633 0.032965 0.354224
O O7 0.146267 0.803418 0.067038
O O8 0.012312 0.835359 0.181891
O O9 0.000000 0.699637 0.000000
O O10 0.262462 0.000000 0.000000
#
# Coordination Sequence:
#
# PCOD9332211 Si02
#       5
#     8   8   8   8   4
#     4  11  23  40  63  91 127 169 211 263 324 394
#     4  11  23  42  66  93 128 170 213 266 333 396
#     4  11  22  38  63  97 131 161 206 273 335 384
#     4  11  23  41  65  92 124 166 216 267 329 393
#     4  12  25  38  61  94 130 168 214 264 318 392
#
# _framework density 22.294578000000001
#
# number of rings (size 3 to 8) (size 9 to 14) (size 15 to 20)
#    0.000    0.889    0.000   11.000    0.000    6.222 
#    0.000    2.222    0.000    1.333    0.000    0.000 
#    0.000    0.000    0.000    0.000    0.000    0.000 
#
# Total GULP energy -100749.057058 kJ/mol
# GULP energy per Si atom -5597.169837 kJ/mol
# Density = 2.224383 g / cm^3
# Si number density = 22.294578 Si / 1000 Ang^3
#
#
#
# Elastic Constant Matrix: (Units=GPa)
#
#
# Indices 1 2 3 4 5 6 
#
# 1 142.7459 27.5707 27.4626 0.0000 0.0000 0.0000
# 2 27.5707 123.8762 24.9584 0.0000 0.0000 0.0000
# 3 27.4626 24.9584 52.1850 0.0000 0.0000 0.0000
# 4 0.0000 0.0000 0.0000 33.0154 0.0000 0.0000
# 5 0.0000 0.0000 0.0000 0.0000 32.9624 0.0000
# 6 0.0000 0.0000 0.0000 0.0000 0.0000 30.1685
#
#
#
# Elastic Compliance Matrix: (Units=1/GPa)
#
#
# Indices 1 2 3 4 5 6 
#
# 1 0.007909 -0.001020 -0.003675 0.000000 0.000000 0.000000
# 2 -0.001020 0.009065 -0.003799 0.000000 0.000000 0.000000
# 3 -0.003675 -0.003799 0.022913 0.000000 0.000000 0.000000
# 4 0.000000 0.000000 0.000000 0.030289 0.000000 0.000000
# 5 0.000000 0.000000 0.000000 0.000000 0.030338 0.000000
# 6 0.000000 0.000000 0.000000 0.000000 0.000000 0.033147
#
#
# Mechanical properties :
#
#
# Convention : Reuss Voigt Hill
#
# Bulk Modulus (GPa) = 43.66620 53.19895 48.43258
# Shear Modulus (GPa) = 31.58933 35.15027 33.36980
#
# Velocity S-wave (km/s) = 3.76827 3.97499 3.87301
# Velocity P-wave (km/s) = 6.20980 6.70679 6.46307
#
# Compressibility (1/GPa) = 0.02290101
#
# Stress axis : x y z
#
# Youngs Moduli (GPa) = 126.43180 110.31493 43.64318
#
# Poissons Ratio (x) = 0.11253 0.16037
# Poissons Ratio (y) = 0.12896 0.16579
# Poissons Ratio (z) = 0.46457 0.41905
#
# Static dielectric constant tensor:
#      x y z
#    x 1.820200 0.000000 0.000000 
#    y 0.000000 1.861550 0.000000 
#    z 0.000000 0.000000 1.825410 
# 
# From -- ./inp_files/21306.got.cif
#   From: 2010.05.17/outbox.cif.g08.bks.cpg/sg23_11_cif.got.tgz:21306.got - 2010.06.04 12:02:01.
