data_PCOD9332378
_publ_section_title
;
Structure prediction by ZEFSAII (Michael W. Deem and Ramdas Pophale) SiO2 
 PCOD9332378
Probable space group: I 2 2 2
;
_chemical_formula_sum "Si O2"
_cell_formula_units_Z 64
_cell_length_a 21.670175
_cell_length_b 18.752291
_cell_length_c 8.816824
_cell_angle_alpha 90.000000
_cell_angle_beta 90.000000
_cell_angle_gamma 90.000000
_cell_volume 3582.852455
_symmetry_space_group_name_H-M "I 2 2 2"
_symmetry_group_IT_number 23
_symmetry_cell_setting 'orthorhombic'
loop_
_space_group_symop_operation_xyz
x,y,z
-x,-y,z
x,-y,-z
-x,y,-z
1/2+x,1/2+y,1/2+z
1/2-x,1/2-y,1/2+z
1/2+x,1/2-y,1/2-z
1/2-x,1/2+y,1/2-z
loop_
_atom_site_type_symbol
_atom_site_label
_atom_site_fract_x
_atom_site_fract_y
_atom_site_fract_z
Si Si1 0.999999 0.918195 0.315004
Si Si2 0.751668 0.829678 0.818326
Si Si3 0.121575 0.833154 0.682766
Si Si4 0.748336 0.329683 0.318306
Si Si5 0.999998 0.582335 0.181402
Si Si6 0.884595 0.665193 0.317853
Si Si7 0.378428 0.333151 0.182773
Si Si8 0.884599 0.334810 0.317859
O O1 0.938186 0.877135 0.267691
O O2 0.000000 0.917396 0.500000
O O3 0.061811 0.877133 0.267688
O O4 0.000000 0.000000 0.265440
O O5 0.750002 0.749997 0.750015
O O6 0.684612 0.861683 0.778569
O O7 0.814619 0.861646 0.753000
O O8 0.755058 0.825644 0.000010
O O9 0.185386 0.861652 0.752982
O O10 0.112748 0.749481 0.722766
O O11 0.126717 0.836272 0.499996
O O12 0.815393 0.361689 0.278566
O O13 0.939268 0.622168 0.241525
O O14 0.000000 0.500000 0.232106
O O15 0.060725 0.622167 0.241537
O O16 0.000000 0.584090 0.000000
O O17 0.891541 0.660928 0.499997
O O18 0.387256 0.249477 0.222765
#
# Coordination Sequence:
#
# PCOD9332378 Si02
#       8
#     8   8   8   8   8   8   8   8
#     4   9  17  30  49  73 102 137 172 202 238 287
#     4   9  17  30  50  77 103 126 159 202 247 293
#     4   9  17  31  52  77 103 130 165 206 242 284
#     4   9  17  30  50  77 103 126 159 202 247 293
#     4  11  24  37  49  71 100 127 162 210 254 291
#     4   9  18  33  53  74  97 129 164 199 244 298
#     4   9  17  31  52  77 103 130 165 206 242 284
#     4   9  18  33  53  74  97 129 164 199 244 298
#
# _framework density 17.862863000000001
#
# number of rings (size 3 to 8) (size 9 to 14) (size 15 to 20)
#    0.000    2.750    0.000    3.375    0.000    8.000 
#    0.000    1.875    0.000    6.000    0.000    0.000 
#    0.000    0.000    0.000    0.000    0.000    0.000 
#
# Total GULP energy -178328.021304 kJ/mol
# GULP energy per Si atom -5572.750666 kJ/mol
# Density = 1.782221 g / cm^3
# Si number density = 17.862863 Si / 1000 Ang^3
#
#
#
# Elastic Constant Matrix: (Units=GPa)
#
#
# Indices 1 2 3 4 5 6 
#
# 1 231.2988 84.1687 52.2397 0.0000 0.0000 0.0000
# 2 84.1687 73.9934 26.2133 0.0000 0.0000 0.0000
# 3 52.2397 26.2133 25.0856 0.0000 0.0000 0.0000
# 4 0.0000 0.0000 0.0000 16.0219 0.0000 0.0000
# 5 0.0000 0.0000 0.0000 0.0000 36.7720 0.0000
# 6 0.0000 0.0000 0.0000 0.0000 0.0000 -5.5247
#
#
#
# Elastic Compliance Matrix: (Units=1/GPa)
#
#
# Indices 1 2 3 4 5 6 
#
# 1 0.009640 -0.006119 -0.013681 0.000000 0.000000 0.000000
# 2 -0.006119 0.025342 -0.013739 0.000000 0.000000 0.000000
# 3 -0.013681 -0.013739 0.082710 0.000000 0.000000 0.000000
# 4 0.000000 0.000000 0.000000 0.062414 0.000000 0.000000
# 5 0.000000 0.000000 0.000000 0.000000 0.027195 0.000000
# 6 0.000000 0.000000 0.000000 0.000000 0.000000 -0.181005
#
#
# Mechanical properties :
#
#
# Convention : Reuss Voigt Hill
#
# Bulk Modulus (GPa) = 19.75723 72.84683 46.30203
# Shear Modulus (GPa) = 45.35328 20.63758 32.99543
#
# Velocity S-wave (km/s) = 5.04429 3.40271 4.30251
# Velocity P-wave (km/s) = 6.70902 7.50384 7.11753
#
# Compressibility (1/GPa) = 0.05061439
#
# Stress axis : x y z
#
# Youngs Moduli (GPa) = 103.73536 39.45942 12.09048
#
# Poissons Ratio (x) = 0.24145 0.16541
# Poissons Ratio (y) = 0.63475 0.16611
# Poissons Ratio (z) = 1.41917 0.54214
#
# Static dielectric constant tensor:
#      x y z
#    x 1.641740 0.000000 0.000000 
#    y 0.000000 1.587060 0.000000 
#    z 0.000000 0.000000 1.601190 
# 
# From -- ./inp_files/12207.got.cif
#   From: 2010.05.17/outbox.cif.g08.bks.cpg/sg23_7_cif.got.tgz:12207.got - 2010.06.04 12:02:01.
