data_PCOD9332831
_publ_section_title
;
Structure prediction by ZEFSAII (Michael W. Deem and Ramdas Pophale) SiO2 
 PCOD9332831
Probable space group: I 21 21 21
;
_chemical_formula_sum "Si O2"
_cell_formula_units_Z 56
_cell_length_a 7.261443
_cell_length_b 21.466678
_cell_length_c 14.614772
_cell_angle_alpha 90.000000
_cell_angle_beta 90.000000
_cell_angle_gamma 90.000000
_cell_volume 2278.136902
_symmetry_space_group_name_H-M "I 21 21 21"
_symmetry_group_IT_number 24
_symmetry_cell_setting 'orthorhombic'
loop_
_space_group_symop_operation_xyz
x,y,z
-x,1/2-y,z
x,-y,1/2-z
1/2-x,y,-z
1/2+x,1/2+y,1/2+z
1/2-x,-y,1/2+z
1/2+x,1/2-y,-z
-x,1/2+y,1/2-z
loop_
_atom_site_type_symbol
_atom_site_label
_atom_site_fract_x
_atom_site_fract_y
_atom_site_fract_z
Si Si1 0.244768 0.649331 0.392176
Si Si2 0.920627 0.466536 0.639750
Si Si3 0.663526 0.701420 0.899124
Si Si4 0.846798 0.015241 0.149758
Si Si5 0.292220 0.228733 0.202192
Si Si6 0.852009 0.596608 0.665209
Si Si7 0.547046 0.094509 0.528955
O O1 0.250000 0.664534 0.500000
O O2 0.128116 0.587222 0.373093
O O3 0.187306 0.709785 0.333353
O O4 0.445752 0.622549 0.362388
O O5 0.814029 0.530642 0.615318
O O6 0.861941 0.430940 0.731507
O O7 0.132889 0.490817 0.651110
O O8 0.929098 0.414823 0.561789
O O9 0.500000 0.750000 0.893283
O O10 0.786085 0.715967 0.810915
O O11 0.554732 0.636330 0.897821
O O12 0.750000 0.707983 0.000000
O O13 0.922707 0.000000 0.250000
O O14 0.929079 0.973223 0.070910
O O15 0.500000 0.250000 0.177545
O O16 0.241162 0.161484 0.158939
O O17 0.750000 0.118940 0.500000
#
# Coordination Sequence:
#
# PCOD9332831 Si02
#       7
#     8   8   8   8   8   8   8
#     4  10  19  35  61  93 125 160 210 265 314 374
#     4   9  15  31  58  93 121 157 205 266 314 385
#     4  12  26  43  63  91 131 174 216 264 330 400
#     4  10  17  31  60  96 123 151 203 272 317 368
#     4  10  23  40  67  93 128 173 220 267 321 393
#     4   9  16  32  60  90 120 154 212 263 320 366
#     4  10  22  36  65  96 127 161 216 269 331 384
#
# _framework density 24.581489000000001
#
# number of rings (size 3 to 8) (size 9 to 14) (size 15 to 20)
#    0.000    2.000    2.857    3.857    2.000    2.286 
#    0.000    2.143    9.429    0.000    0.000    0.000 
#    0.000    0.000    0.000    0.000    0.000    0.000 
#
# Total GULP energy -156394.521019 kJ/mol
# GULP energy per Si atom -5585.518608 kJ/mol
# Density = 2.452554 g / cm^3
# Si number density = 24.581489 Si / 1000 Ang^3
#
#
#
# Elastic Constant Matrix: (Units=GPa)
#
#
# Indices 1 2 3 4 5 6 
#
# 1 60.3688 25.6356 -13.7741 0.0000 0.0000 0.0000
# 2 25.6356 176.5764 31.2297 0.0000 0.0000 0.0001
# 3 -13.7741 31.2297 83.1291 0.0000 0.0000 0.0002
# 4 0.0000 0.0000 0.0000 87.8088 0.0000 0.0002
# 5 0.0000 0.0000 0.0000 0.0000 16.4019 0.0000
# 6 0.0000 0.0001 0.0002 0.0002 0.0000 93.6151
#
#
#
# Elastic Compliance Matrix: (Units=1/GPa)
#
#
# Indices 1 2 3 4 5 6 
#
# 1 0.019110 -0.003572 0.004508 0.000000 0.000000 0.000000
# 2 -0.003572 0.006734 -0.003122 0.000000 0.000000 0.000000
# 3 0.004508 -0.003122 0.013949 0.000000 0.000000 0.000000
# 4 0.000000 0.000000 0.000000 0.011388 0.000000 0.000000
# 5 0.000000 0.000000 0.000000 0.000000 0.060968 0.000000
# 6 0.000000 0.000000 0.000000 0.000000 0.000000 0.010682
#
#
# Mechanical properties :
#
#
# Convention : Reuss Voigt Hill
#
# Bulk Modulus (GPa) = 28.23009 45.13964 36.68486
# Shear Modulus (GPa) = 35.96860 58.03069 46.99965
#
# Velocity S-wave (km/s) = 3.82938 4.86402 4.37738
# Velocity P-wave (km/s) = 5.57328 7.06740 6.36434
#
# Compressibility (1/GPa) = 0.03542320
#
# Stress axis : x y z
#
# Youngs Moduli (GPa) = 52.32794 148.50173 71.68862
#
# Poissons Ratio (x) = 0.53042 -0.32320
# Poissons Ratio (y) = 0.18691 0.22378
# Poissons Ratio (z) = -0.23591 0.46357
#
# Static dielectric constant tensor:
#      x y z
#    x 1.995500 0.000000 0.000000 
#    y 0.000000 1.979130 0.000000 
#    z 0.000000 0.000000 2.001110 
# 
# From -- ./inp_files/25057.got.cif
#   From: 2010.05.17/outbox.cif.g08.bks.cpg/sg24_13_cif.got.tgz:25057.got - 2010.06.04 00:33:39.
