data_PCOD9332491
_publ_section_title
;
Structure prediction by ZEFSAII (Michael W. Deem and Ramdas Pophale) SiO2 
 PCOD9332491
Probable space group: I 2 2 2
;
_chemical_formula_sum "Si O2"
_cell_formula_units_Z 40
_cell_length_a 9.294275
_cell_length_b 25.269795
_cell_length_c 7.713766
_cell_angle_alpha 90.000000
_cell_angle_beta 90.000000
_cell_angle_gamma 90.000000
_cell_volume 1811.689208
_symmetry_space_group_name_H-M "I 2 2 2"
_symmetry_group_IT_number 23
_symmetry_cell_setting 'orthorhombic'
loop_
_space_group_symop_operation_xyz
x,y,z
-x,-y,z
x,-y,-z
-x,y,-z
1/2+x,1/2+y,1/2+z
1/2-x,1/2-y,1/2+z
1/2+x,1/2-y,1/2-z
1/2-x,1/2+y,1/2-z
loop_
_atom_site_type_symbol
_atom_site_label
_atom_site_fract_x
_atom_site_fract_y
_atom_site_fract_z
Si Si1 0.068955 0.445642 0.189671
Si Si2 0.372341 0.412903 0.144627
Si Si3 0.328960 0.184332 0.527259
Si Si4 0.500000 0.862982 0.000000
Si Si5 0.233824 0.802146 0.862368
Si Si6 0.500000 0.382622 0.500000
O O1 0.238737 0.453380 0.151968
O O2 0.032866 0.400591 0.333344
O O3 0.000000 0.500000 0.255084
O O4 0.000000 0.435129 0.000000
O O5 0.439300 0.414161 0.336388
O O6 0.500000 0.417661 0.000000
O O7 0.276796 0.358892 0.116066
O O8 0.500000 0.174250 0.500000
O O9 0.267790 0.189130 0.336067
O O10 0.310064 0.241634 0.612684
O O11 0.630217 0.822911 0.031063
O O12 0.113908 0.842961 0.918479
#
# Coordination Sequence:
#
# PCOD9332491 Si02
#       6
#     8   8   8   4   8   4
#     4  11  26  50  80 109 142 194 256 313 380 447
#     4  12  25  46  75 106 152 190 243 312 376 440
#     4  12  27  43  65 106 151 207 252 300 364 458
#     4  12  25  46  76 106 148 200 248 317 370 448
#     4  12  26  41  68 102 151 202 253 301 368 442
#     4  12  24  46  66 107 146 190 245 300 374 434
#
# _framework density 22.078842999999999
#
# number of rings (size 3 to 8) (size 9 to 14) (size 15 to 20)
#    0.000    0.200    5.000    4.500    4.200    0.000 
#    0.000    2.000    0.000    1.200    0.000    0.000 
#    0.000    0.000    0.000    0.000    0.000    0.000 
#
# Total GULP energy -111772.755446 kJ/mol
# GULP energy per Si atom -5588.637772 kJ/mol
# Density = 2.202859 g / cm^3
# Si number density = 22.078843 Si / 1000 Ang^3
#
#
#
# Elastic Constant Matrix: (Units=GPa)
#
#
# Indices 1 2 3 4 5 6 
#
# 1 160.1335 20.4612 51.6140 -0.0006 0.0051 0.0010
# 2 20.4612 69.1016 6.7605 0.0011 -0.0018 0.0004
# 3 51.6140 6.7605 150.0952 0.0055 0.0196 0.0016
# 4 -0.0006 0.0011 0.0055 135.3683 0.0007 0.0000
# 5 0.0051 -0.0018 0.0196 0.0007 40.8579 0.0015
# 6 0.0010 0.0004 0.0016 0.0000 0.0015 31.0847
#
#
#
# Elastic Compliance Matrix: (Units=1/GPa)
#
#
# Indices 1 2 3 4 5 6 
#
# 1 0.007267 -0.001916 -0.002413 0.000000 0.000000 0.000000
# 2 -0.001916 0.015041 -0.000019 0.000000 0.000001 0.000000
# 3 -0.002413 -0.000019 0.007493 0.000000 -0.000003 0.000000
# 4 0.000000 0.000000 0.000000 0.007387 0.000000 0.000000
# 5 0.000000 0.000001 -0.000003 0.000000 0.024475 -0.000001
# 6 0.000000 0.000000 0.000000 0.000000 -0.000001 0.032170
#
#
# Mechanical properties :
#
#
# Convention : Reuss Voigt Hill
#
# Bulk Modulus (GPa) = 47.37906 59.66686 53.52296
# Shear Modulus (GPa) = 45.63580 61.49516 53.56548
#
# Velocity S-wave (km/s) = 4.55130 5.28327 4.93089
# Velocity P-wave (km/s) = 7.00890 8.01876 7.53078
#
# Compressibility (1/GPa) = 0.02110637
#
# Stress axis : x y z
#
# Youngs Moduli (GPa) = 137.60358 66.48698 133.45860
#
# Poissons Ratio (x) = 0.12738 0.32200
# Poissons Ratio (y) = 0.26362 0.00249
# Poissons Ratio (z) = 0.33200 0.00124
#
# Static dielectric constant tensor:
#      x y z
#    x 1.780180 0.000000 0.000010 
#    y 0.000000 1.878070 0.000000 
#    z 0.000010 0.000000 1.815580 
# 
# From -- ./inp_files/7122.got.cif
#   From: 2010.05.17/outbox.cif.g08.bks.cpg/sg23_4_cif.got.tgz:7122.got - 2010.06.04 12:02:01.
