data_PCOD9332497
_publ_section_title
;
Structure prediction by ZEFSAII (Michael W. Deem and Ramdas Pophale) SiO2 
 PCOD9332497
Probable space group: I 2 2 2
;
_chemical_formula_sum "Si O2"
_cell_formula_units_Z 26
_cell_length_a 18.716186
_cell_length_b 11.032366
_cell_length_c 5.062357
_cell_angle_alpha 90.000000
_cell_angle_beta 90.000000
_cell_angle_gamma 90.000000
_cell_volume 1045.294782
_symmetry_space_group_name_H-M "I 2 2 2"
_symmetry_group_IT_number 23
_symmetry_cell_setting 'orthorhombic'
loop_
_space_group_symop_operation_xyz
x,y,z
-x,-y,z
x,-y,-z
-x,y,-z
1/2+x,1/2+y,1/2+z
1/2-x,1/2-y,1/2+z
1/2+x,1/2-y,1/2-z
1/2-x,1/2+y,1/2-z
loop_
_atom_site_type_symbol
_atom_site_label
_atom_site_fract_x
_atom_site_fract_y
_atom_site_fract_z
Si Si1 0.875841 0.609128 0.698711
Si Si2 0.913752 0.138395 0.566908
Si Si3 0.500000 0.000000 0.500000
Si Si4 0.798469 0.743895 0.100150
O O1 0.857951 0.500000 0.500000
O O2 0.885092 0.744233 0.586675
O O3 0.952993 0.580078 0.812156
O O4 0.755012 0.710213 0.367619
O O5 0.867473 0.169999 0.835976
O O6 0.000000 0.141394 0.500000
O O7 0.893025 0.000000 0.500000
O O8 0.673251 0.874888 0.453896
#
# Coordination Sequence:
#
# PCOD9332497 Si02
#       4
#     8   8   2   8
#     4  12  25  50  80 123 160 215 281 348 416 490
#     4  11  26  53  86 121 165 220 278 343 413 500
#     4  12  26  44  88 120 164 206 294 356 408 482
#     4  12  27  56  82 125 171 223 277 348 422 506
#
# _framework density 24.873365
#
# number of rings (size 3 to 8) (size 9 to 14) (size 15 to 20)
#    0.000    0.308    3.077    6.000    0.000    1.231 
#   13.846    3.077    0.000    0.000    0.000    0.000 
#    0.000    0.000    0.000    0.000    0.000    0.000 
#
# Total GULP energy -72369.518071 kJ/mol
# GULP energy per Si atom -5566.886005 kJ/mol
# Density = 2.481675 g / cm^3
# Si number density = 24.873365 Si / 1000 Ang^3
#
#
#
# Elastic Constant Matrix: (Units=GPa)
#
#
# Indices 1 2 3 4 5 6 
#
# 1 158.2757 71.5261 83.0120 0.0000 0.0000 0.0000
# 2 71.5261 242.8071 98.9863 0.0000 0.0000 0.0000
# 3 83.0120 98.9863 176.8808 0.0000 0.0000 0.0000
# 4 0.0000 0.0000 0.0000 87.5608 0.0000 0.0000
# 5 0.0000 0.0000 0.0000 0.0000 51.5559 0.0000
# 6 0.0000 0.0000 0.0000 0.0000 0.0000 42.8661
#
#
#
# Elastic Compliance Matrix: (Units=1/GPa)
#
#
# Indices 1 2 3 4 5 6 
#
# 1 0.008623 -0.001154 -0.003401 0.000000 0.000000 0.000000
# 2 -0.001154 0.005490 -0.002531 0.000000 0.000000 0.000000
# 3 -0.003401 -0.002531 0.008666 0.000000 0.000000 0.000000
# 4 0.000000 0.000000 0.000000 0.011421 0.000000 0.000000
# 5 0.000000 0.000000 0.000000 0.000000 0.019396 0.000000
# 6 0.000000 0.000000 0.000000 0.000000 0.000000 0.023328
#
#
# Mechanical properties :
#
#
# Convention : Reuss Voigt Hill
#
# Bulk Modulus (GPa) = 116.17540 120.55693 118.36617
# Shear Modulus (GPa) = 53.21032 58.02584 55.61808
#
# Velocity S-wave (km/s) = 4.63022 4.83520 4.73382
# Velocity P-wave (km/s) = 8.68294 8.93005 8.80736
#
# Compressibility (1/GPa) = 0.00860767
#
# Stress axis : x y z
#
# Youngs Moduli (GPa) = 115.96351 182.14441 115.38962
#
# Poissons Ratio (x) = 0.21012 0.39250
# Poissons Ratio (y) = 0.13377 0.29205
# Poissons Ratio (z) = 0.39445 0.46101
#
# Static dielectric constant tensor:
#      x y z
#    x 2.126080 0.000000 0.000000 
#    y 0.000000 1.884980 0.000000 
#    z 0.000000 0.000000 2.192430 
# 
# From -- ./inp_files/3605.got.cif
#   From: 2010.05.17/outbox.cif.g08.bks.cpg/sg23_2_cif.got.tgz:3605.got - 2010.06.04 12:02:01.
