data_PCOD9332801
_publ_section_title
;
Structure prediction by ZEFSAII (Michael W. Deem and Ramdas Pophale) SiO2 
 PCOD9332801
Probable space group: I 21 21 21
;
_chemical_formula_sum "Si O2"
_cell_formula_units_Z 64
_cell_length_a 22.175200
_cell_length_b 9.397304
_cell_length_c 20.183144
_cell_angle_alpha 90.000000
_cell_angle_beta 90.000000
_cell_angle_gamma 90.000000
_cell_volume 4205.906759
_symmetry_space_group_name_H-M "I 21 21 21"
_symmetry_group_IT_number 24
_symmetry_cell_setting 'orthorhombic'
loop_
_space_group_symop_operation_xyz
x,y,z
-x,1/2-y,z
x,-y,1/2-z
1/2-x,y,-z
1/2+x,1/2+y,1/2+z
1/2-x,-y,1/2+z
1/2+x,1/2-y,-z
-x,1/2+y,1/2-z
loop_
_atom_site_type_symbol
_atom_site_label
_atom_site_fract_x
_atom_site_fract_y
_atom_site_fract_z
Si Si1 0.743200 0.665367 0.768903
Si Si2 0.225425 0.676109 0.893953
Si Si3 0.417072 0.971391 0.908716
Si Si4 0.600855 0.777347 0.640703
Si Si5 0.052823 0.435355 0.402606
Si Si6 0.601379 0.722637 0.790500
Si Si7 0.652863 0.227642 0.522323
Si Si8 0.227794 0.589546 0.317316
O O1 0.744616 0.500000 0.750000
O O2 0.779117 0.711354 0.834082
O O3 0.674129 0.713536 0.785028
O O4 0.761341 0.768995 0.708504
O O5 0.288227 0.701103 0.932706
O O6 0.233835 0.518927 0.862091
O O7 0.173357 0.701796 0.947392
O O8 0.484418 0.920463 0.926250
O O9 0.412868 0.917250 0.832483
O O10 0.372011 0.881940 0.955122
O O11 0.401530 0.137105 0.904292
O O12 0.580854 0.737671 0.715369
O O13 0.666850 0.852726 0.647971
O O14 0.558812 0.899302 0.612886
O O15 0.072994 0.347756 0.336176
O O16 0.100851 0.381195 0.455844
O O17 0.212234 0.500000 0.250000
#
# Coordination Sequence:
#
# PCOD9332801 Si02
#       8
#     8   8   8   8   8   8   8   8
#     4  10  17  29  51  74  97 118 147 196 252 283
#     4  10  18  33  53  65  88 125 163 196 233 282
#     4  11  22  31  44  66  95 126 163 206 234 271
#     4  11  19  29  45  65  93 125 162 202 241 266
#     4  11  20  33  45  63  94 126 169 201 229 272
#     4  10  18  29  44  61  93 129 163 198 227 270
#     4  10  20  34  48  63  89 127 170 196 229 272
#     4   9  17  30  49  71  92 121 158 196 238 282
#
# _framework density 15.216695
#
# number of rings (size 3 to 8) (size 9 to 14) (size 15 to 20)
#    0.000    1.750    3.750    5.625    0.000    3.000 
#    0.000    1.250    0.000    0.000    0.000    0.000 
#    0.000   12.000    0.000    0.000    0.000    0.000 
#
# Total GULP energy -178217.547274 kJ/mol
# GULP energy per Si atom -5569.298352 kJ/mol
# Density = 1.518206 g / cm^3
# Si number density = 15.216695 Si / 1000 Ang^3
#
#
#
# Elastic Constant Matrix: (Units=GPa)
#
#
# Indices 1 2 3 4 5 6 
#
# 1 53.7340 23.4555 35.4312 0.0000 0.0000 0.0000
# 2 23.4555 123.4598 32.1734 0.0000 0.0000 0.0000
# 3 35.4312 32.1734 64.0490 0.0000 0.0000 0.0000
# 4 0.0000 0.0000 0.0000 6.4793 0.0000 0.0000
# 5 0.0000 0.0000 0.0000 0.0000 15.7090 0.0000
# 6 0.0000 0.0000 0.0000 0.0000 0.0000 7.2601
#
#
#
# Elastic Compliance Matrix: (Units=1/GPa)
#
#
# Indices 1 2 3 4 5 6 
#
# 1 0.029555 -0.001558 -0.015567 0.000000 0.000000 0.000000
# 2 -0.001558 0.009402 -0.003861 0.000000 0.000000 0.000000
# 3 -0.015567 -0.003861 0.026164 0.000000 0.000000 0.000000
# 4 0.000000 0.000000 0.000000 0.154337 0.000000 0.000000
# 5 0.000000 0.000000 0.000000 0.000000 0.063658 0.000000
# 6 0.000000 0.000000 0.000000 0.000000 0.000000 0.137738
#
#
# Mechanical properties :
#
#
# Convention : Reuss Voigt Hill
#
# Bulk Modulus (GPa) = 43.19841 47.04033 45.11937
# Shear Modulus (GPa) = 10.62607 15.90188 13.26397
#
# Velocity S-wave (km/s) = 2.64543 3.23620 2.95561
# Velocity P-wave (km/s) = 6.14667 6.70408 6.43142
#
# Compressibility (1/GPa) = 0.02314900
#
# Stress axis : x y z
#
# Youngs Moduli (GPa) = 33.83551 106.36056 38.22090
#
# Poissons Ratio (x) = 0.16574 0.59497
# Poissons Ratio (y) = 0.05273 0.14756
# Poissons Ratio (z) = 0.52670 0.41064
#
# Static dielectric constant tensor:
#      x y z
#    x 1.525650 0.000000 0.000000 
#    y 0.000000 1.546420 0.000000 
#    z 0.000000 0.000000 1.522950 
# 
# From -- ./inp_files/34198.got.cif
#   From: 2010.05.17/outbox.cif.g08.bks.cpg/sg24_18_cif.got.tgz:34198.got - 2010.06.04 00:33:39.
