data_PCOD9332933
_publ_section_title
;
Structure prediction by ZEFSAII (Michael W. Deem and Ramdas Pophale) SiO2 
 PCOD9332933
Probable space group: I 21 21 21
;
_chemical_formula_sum "Si O2"
_cell_formula_units_Z 44
_cell_length_a 5.456864
_cell_length_b 16.707464
_cell_length_c 17.984189
_cell_angle_alpha 90.000000
_cell_angle_beta 90.000000
_cell_angle_gamma 90.000000
_cell_volume 1639.624964
_symmetry_space_group_name_H-M "I 21 21 21"
_symmetry_group_IT_number 24
_symmetry_cell_setting 'orthorhombic'
loop_
_space_group_symop_operation_xyz
x,y,z
-x,1/2-y,z
x,-y,1/2-z
1/2-x,y,-z
1/2+x,1/2+y,1/2+z
1/2-x,-y,1/2+z
1/2+x,1/2-y,-z
-x,1/2+y,1/2-z
loop_
_atom_site_type_symbol
_atom_site_label
_atom_site_fract_x
_atom_site_fract_y
_atom_site_fract_z
Si Si1 0.442547 0.906078 0.259455
Si Si2 0.499698 0.425321 0.950945
Si Si3 0.937483 0.155577 0.223924
Si Si4 0.595242 0.095695 0.604141
Si Si5 0.592825 0.339348 0.406804
Si Si6 0.000000 0.250000 0.046624
O O1 0.178393 0.895458 0.295733
O O2 0.399936 0.859950 0.181577
O O3 0.663574 0.865672 0.304591
O O4 0.497577 0.000000 0.250000
O O5 0.482623 0.504022 0.901074
O O6 0.496998 0.336166 0.914906
O O7 0.750000 0.431335 0.000000
O O8 0.250000 0.426849 0.000000
O O9 0.000000 0.250000 0.223013
O O10 0.891384 0.127878 0.311343
O O11 0.866186 0.104658 0.569985
O O12 0.371079 0.145408 0.567986
O O13 0.500000 0.250000 0.418119
O O14 0.750000 0.251839 0.000000
#
# Coordination Sequence:
#
# PCOD9332933 Si02
#       6
#     8   8   8   8   8   4
#     4  10  18  29  48  77  97 118 159 217 245 275
#     4  10  19  32  50  75 100 123 163 205 248 288
#     4  10  19  33  51  72  97 134 173 198 238 294
#     4  10  18  30  51  73  96 130 163 207 234 284
#     4  10  19  33  52  73  95 130 172 197 234 290
#     4   8  16  30  48  70  92 116 152 198 242 286
#
# _framework density 26.835405999999999
#
# number of rings (size 3 to 8) (size 9 to 14) (size 15 to 20)
#    0.000    2.182    0.000    7.091    0.000    0.000 
#    0.000    0.000    0.000   18.545   75.636    0.000 
#    0.000    0.000    0.000    0.000    0.000    0.000 
#
# Total GULP energy -123097.710633 kJ/mol
# GULP energy per Si atom -5595.350483 kJ/mol
# Density = 2.677433 g / cm^3
# Si number density = 26.835406 Si / 1000 Ang^3
#
#
#
# Elastic Constant Matrix: (Units=GPa)
#
#
# Indices 1 2 3 4 5 6 
#
# 1 236.5320 13.7329 20.0181 0.0000 0.0000 0.0000
# 2 13.7329 200.1791 10.2834 0.0000 0.0000 0.0000
# 3 20.0181 10.2834 29.0765 0.0000 0.0000 0.0000
# 4 0.0000 0.0000 0.0000 65.4272 0.0000 0.0000
# 5 0.0000 0.0000 0.0000 0.0000 29.9471 0.0000
# 6 0.0000 0.0000 0.0000 0.0000 0.0000 53.7174
#
#
#
# Elastic Compliance Matrix: (Units=1/GPa)
#
#
# Indices 1 2 3 4 5 6 
#
# 1 0.004494 -0.000152 -0.003040 0.000000 0.000000 0.000000
# 2 -0.000152 0.005093 -0.001697 0.000000 0.000000 0.000000
# 3 -0.003040 -0.001697 0.037085 0.000000 0.000000 0.000000
# 4 0.000000 0.000000 0.000000 0.015284 0.000000 0.000000
# 5 0.000000 0.000000 0.000000 0.000000 0.033392 0.000000
# 6 0.000000 0.000000 0.000000 0.000000 0.000000 0.018616
#
#
# Mechanical properties :
#
#
# Convention : Reuss Voigt Hill
#
# Bulk Modulus (GPa) = 27.10427 61.53960 44.32193
# Shear Modulus (GPa) = 36.75388 57.93520 47.34454
#
# Velocity S-wave (km/s) = 3.70483 4.65145 4.20486
# Velocity P-wave (km/s) = 5.33134 7.19930 6.33455
#
# Compressibility (1/GPa) = 0.03689456
#
# Stress axis : x y z
#
# Youngs Moduli (GPa) = 222.52497 196.34345 26.96506
#
# Poissons Ratio (x) = 0.02987 0.08198
# Poissons Ratio (y) = 0.03385 0.04575
# Poissons Ratio (z) = 0.67649 0.33310
#
# Static dielectric constant tensor:
#      x y z
#    x 2.115770 0.000000 0.000000 
#    y 0.000000 1.996280 0.000000 
#    z 0.000000 0.000000 1.877870 
# 
# From -- ./inp_files/23837.got.cif
#   From: 2010.05.17/outbox.cif.g08.bks.cpg/sg24_12_cif.got.tgz:23837.got - 2010.06.04 00:33:39.
