data_PCOD9332980
_publ_section_title
;
Structure prediction by ZEFSAII (Michael W. Deem and Ramdas Pophale) SiO2 
 PCOD9332980
Probable space group: I 21 21 21
;
_chemical_formula_sum "Si O2"
_cell_formula_units_Z 44
_cell_length_a 17.816127
_cell_length_b 5.659597
_cell_length_c 18.239320
_cell_angle_alpha 90.000000
_cell_angle_beta 90.000000
_cell_angle_gamma 90.000000
_cell_volume 1839.108918
_symmetry_space_group_name_H-M "I 21 21 21"
_symmetry_group_IT_number 24
_symmetry_cell_setting 'orthorhombic'
loop_
_space_group_symop_operation_xyz
x,y,z
-x,1/2-y,z
x,-y,1/2-z
1/2-x,y,-z
1/2+x,1/2+y,1/2+z
1/2-x,-y,1/2+z
1/2+x,1/2-y,-z
-x,1/2+y,1/2-z
loop_
_atom_site_type_symbol
_atom_site_label
_atom_site_fract_x
_atom_site_fract_y
_atom_site_fract_z
Si Si1 0.315077 0.426966 0.892481
Si Si2 0.291228 0.048816 0.140877
Si Si3 0.631482 0.325944 0.684769
Si Si4 0.566243 0.430064 0.948851
Si Si5 0.750000 0.706600 0.000000
Si Si6 0.958088 0.503006 0.878235
O O1 0.237240 0.318530 0.862805
O O2 0.359814 0.543552 0.825414
O O3 0.358579 0.221627 0.934070
O O4 0.302693 0.623664 0.953520
O O5 0.377098 0.012005 0.162271
O O6 0.220310 0.908906 0.176115
O O7 0.291219 0.950899 0.058466
O O8 0.605133 0.500000 0.750000
O O9 0.577761 0.382091 0.615456
O O10 0.500000 0.250000 0.931267
O O11 0.552779 0.510365 0.032330
O O12 0.000000 0.250000 0.864614
O O13 0.000000 0.750000 0.858629
#
# Coordination Sequence:
#
# PCOD9332980 Si02
#       6
#     8   8   8   8   4   8
#     4  10  20  36  61  83 129 161 220 263 322 388
#     4  10  21  36  57  90 117 163 209 267 323 381
#     4  10  23  41  63  86 116 168 226 274 317 379
#     4  10  23  37  56  92 125 170 209 256 329 389
#     4  10  18  30  60  84 118 154 204 252 320 374
#     4  11  25  38  63  97 138 168 205 257 338 411
#
# _framework density 23.924628999999999
#
# number of rings (size 3 to 8) (size 9 to 14) (size 15 to 20)
#    0.000    1.818    0.000    4.909   15.273    2.909 
#    3.273    0.000    0.000    1.091    0.000    0.000 
#    0.000    0.000    0.000    0.000    0.000    0.000 
#
# Total GULP energy -122586.239996 kJ/mol
# GULP energy per Si atom -5572.101818 kJ/mol
# Density = 2.387018 g / cm^3
# Si number density = 23.924629 Si / 1000 Ang^3
#
#
#
# Elastic Constant Matrix: (Units=GPa)
#
#
# Indices 1 2 3 4 5 6 
#
# 1 113.2646 15.2069 -10.8583 0.0000 0.0000 0.0000
# 2 15.2069 95.9374 5.3721 0.0000 0.0000 0.0000
# 3 -10.8583 5.3721 55.4392 0.0000 0.0000 0.0000
# 4 0.0000 0.0000 0.0000 12.6564 0.0000 0.0000
# 5 0.0000 0.0000 0.0000 0.0000 7.3768 0.0000
# 6 0.0000 0.0000 0.0000 0.0000 0.0000 30.9381
#
#
#
# Elastic Compliance Matrix: (Units=1/GPa)
#
#
# Indices 1 2 3 4 5 6 
#
# 1 0.009228 -0.001572 0.001960 0.000000 0.000000 0.000000
# 2 -0.001572 0.010748 -0.001349 0.000000 0.000000 0.000000
# 3 0.001960 -0.001349 0.018552 0.000000 0.000000 0.000000
# 4 0.000000 0.000000 0.000000 0.079011 0.000000 0.000000
# 5 0.000000 0.000000 0.000000 0.000000 0.135560 0.000000
# 6 0.000000 0.000000 0.000000 0.000000 0.000000 0.032323
#
#
# Mechanical properties :
#
#
# Convention : Reuss Voigt Hill
#
# Bulk Modulus (GPa) = 27.31931 31.56473 29.44202
# Shear Modulus (GPa) = 16.69184 27.18896 21.94040
#
# Velocity S-wave (km/s) = 2.64424 3.37477 3.03159
# Velocity P-wave (km/s) = 4.55701 5.32987 4.95852
#
# Compressibility (1/GPa) = 0.03660415
#
# Stress axis : x y z
#
# Youngs Moduli (GPa) = 108.36731 93.03815 53.90142
#
# Poissons Ratio (x) = 0.14630 -0.10563
# Poissons Ratio (y) = 0.17040 0.07274
# Poissons Ratio (z) = -0.21237 0.12555
#
# Static dielectric constant tensor:
#      x y z
#    x 1.976950 0.000000 0.000000 
#    y 0.000000 2.005100 0.000000 
#    z 0.000000 0.000000 1.983490 
# 
# From -- ./inp_files/35946.got.cif
#   From: 2010.05.17/outbox.cif.g08.bks.cpg/sg24_18_cif.got.tgz:35946.got - 2010.06.04 00:33:39.
