data_PCOD9332070
_publ_section_title
;
Structure prediction by ZEFSAII (Michael W. Deem and Ramdas Pophale) SiO2 
 PCOD9332070
Probable space group: I 2 2 2
;
_chemical_formula_sum "Si O2"
_cell_formula_units_Z 58
_cell_length_a 18.367982
_cell_length_b 18.445749
_cell_length_c 8.468789
_cell_angle_alpha 90.000000
_cell_angle_beta 90.000000
_cell_angle_gamma 90.000000
_cell_volume 2869.320442
_symmetry_space_group_name_H-M "I 2 2 2"
_symmetry_group_IT_number 23
_symmetry_cell_setting 'orthorhombic'
loop_
_space_group_symop_operation_xyz
x,y,z
-x,-y,z
x,-y,-z
-x,y,-z
1/2+x,1/2+y,1/2+z
1/2-x,1/2-y,1/2+z
1/2+x,1/2-y,1/2-z
1/2-x,1/2+y,1/2-z
loop_
_atom_site_type_symbol
_atom_site_label
_atom_site_fract_x
_atom_site_fract_y
_atom_site_fract_z
Si Si1 0.720753 0.567132 0.382840
Si Si2 0.614047 0.955849 0.755530
Si Si3 0.154406 0.221682 0.339097
Si Si4 0.227857 0.317686 0.594008
Si Si5 0.179495 0.919938 0.471746
Si Si6 0.500000 0.000000 0.000000
Si Si7 0.578298 0.808535 0.576004
Si Si8 0.663977 0.897584 0.365233
O O1 0.700067 0.500000 0.500000
O O2 0.804996 0.554538 0.327561
O O3 0.715984 0.640262 0.483054
O O4 0.680245 0.583580 0.217964
O O5 0.592500 0.888499 0.647551
O O6 0.613861 0.031880 0.660321
O O7 0.554049 0.955403 0.890702
O O8 0.173316 0.272514 0.487046
O O9 0.226251 0.223499 0.227074
O O10 0.143989 0.142951 0.420187
O O11 0.095131 0.252795 0.217139
O O12 0.187220 0.380872 0.686897
O O13 0.263953 0.917429 0.534080
O O14 0.149491 0.000000 0.500000
O O15 0.500000 0.798386 0.500000
O O16 0.634067 0.820708 0.430530
#
# Coordination Sequence:
#
# PCOD9332070 Si02
#       8
#     8   8   8   8   8   2   8   8
#     4  12  19  33  57  86 120 159 203 263 325 379
#     4  12  21  35  53  79 123 171 227 257 296 354
#     4  11  23  37  57  84 121 164 211 266 332 390
#     4  11  20  34  57  85 118 158 202 264 322 392
#     4  11  20  37  60  87 118 156 200 272 338 399
#     4  12  24  32  46  80 112 176 224 260 270 344
#     4  12  25  40  55  81 124 177 226 262 301 376
#     4  11  20  36  60  83 123 173 216 260 312 365
#
# _framework density 20.213846
#
# number of rings (size 3 to 8) (size 9 to 14) (size 15 to 20)
#    0.000    0.552    6.207    4.552    0.000    0.552 
#    0.000    0.000    0.000    0.000    0.000    0.000 
#    0.000   22.621    0.000    0.000    0.000    0.000 
#
# Total GULP energy -161681.653616 kJ/mol
# GULP energy per Si atom -5575.229435 kJ/mol
# Density = 2.016784 g / cm^3
# Si number density = 20.213846 Si / 1000 Ang^3
#
#
#
# Elastic Constant Matrix: (Units=GPa)
#
#
# Indices 1 2 3 4 5 6 
#
# 1 29.6414 19.0921 21.3609 0.0000 0.0000 0.0000
# 2 19.0921 94.6425 47.1720 0.0000 0.0000 0.0000
# 3 21.3609 47.1720 135.0516 0.0000 0.0000 0.0000
# 4 0.0000 0.0000 0.0000 45.2998 0.0000 0.0000
# 5 0.0000 0.0000 0.0000 0.0000 23.4199 0.0000
# 6 0.0000 0.0000 0.0000 0.0000 0.0000 6.0190
#
#
#
# Elastic Compliance Matrix: (Units=1/GPa)
#
#
# Indices 1 2 3 4 5 6 
#
# 1 0.040763 -0.006065 -0.004329 0.000000 0.000000 0.000000
# 2 -0.006065 0.013696 -0.003824 0.000000 0.000000 0.000000
# 3 -0.004329 -0.003824 0.009425 0.000000 0.000000 0.000000
# 4 0.000000 0.000000 0.000000 0.022075 0.000000 0.000000
# 5 0.000000 0.000000 0.000000 0.000000 0.042699 0.000000
# 6 0.000000 0.000000 0.000000 0.000000 0.000000 0.166141
#
#
# Mechanical properties :
#
#
# Convention : Reuss Voigt Hill
#
# Bulk Modulus (GPa) = 28.21162 48.28728 38.24945
# Shear Modulus (GPa) = 14.92308 26.39511 20.65909
#
# Velocity S-wave (km/s) = 2.72004 3.61750 3.20038
# Velocity P-wave (km/s) = 4.88382 6.43339 5.71140
#
# Compressibility (1/GPa) = 0.03544639
#
# Stress axis : x y z
#
# Youngs Moduli (GPa) = 24.53213 73.01492 106.09972
#
# Poissons Ratio (x) = 0.44287 0.45929
# Poissons Ratio (y) = 0.14880 0.40577
# Poissons Ratio (z) = 0.10620 0.27924
#
# Static dielectric constant tensor:
#      x y z
#    x 1.732710 0.000000 0.000000 
#    y 0.000000 1.779540 0.000000 
#    z 0.000000 0.000000 2.392020 
# 
# From -- ./inp_files/11285.got.cif
#   From: 2010.05.17/outbox.cif.g08.bks.cpg/sg23_6_cif.got.tgz:11285.got - 2010.06.04 12:02:01.
