data_PCOD9332153
_publ_section_title
;
Structure prediction by ZEFSAII (Michael W. Deem and Ramdas Pophale) SiO2 
 PCOD9332153
Probable space group: I 2 2 2
;
_chemical_formula_sum "Si O2"
_cell_formula_units_Z 64
_cell_length_a 21.970949
_cell_length_b 9.706093
_cell_length_c 13.540326
_cell_angle_alpha 90.000000
_cell_angle_beta 90.000000
_cell_angle_gamma 90.000000
_cell_volume 2887.502606
_symmetry_space_group_name_H-M "I 2 2 2"
_symmetry_group_IT_number 23
_symmetry_cell_setting 'orthorhombic'
loop_
_space_group_symop_operation_xyz
x,y,z
-x,-y,z
x,-y,-z
-x,y,-z
1/2+x,1/2+y,1/2+z
1/2-x,1/2-y,1/2+z
1/2+x,1/2-y,1/2-z
1/2-x,1/2+y,1/2-z
loop_
_atom_site_type_symbol
_atom_site_label
_atom_site_fract_x
_atom_site_fract_y
_atom_site_fract_z
Si Si1 0.650975 0.749067 0.586321
Si Si2 0.353037 0.564477 0.832243
Si Si3 0.725257 0.001547 0.635177
Si Si4 0.469835 0.275540 0.109198
Si Si5 0.411025 0.280551 0.782639
Si Si6 0.818131 0.190050 0.117163
Si Si7 0.736652 0.948819 0.134212
Si Si8 0.899536 0.515726 0.612092
O O1 0.672188 0.906997 0.592865
O O2 0.598425 0.729060 0.665813
O O3 0.636726 0.697068 0.476311
O O4 0.711485 0.666767 0.625286
O O5 0.290023 0.565288 0.892264
O O6 0.410088 0.630036 0.888201
O O7 0.366156 0.402697 0.815597
O O8 0.344097 0.641025 0.724111
O O9 0.712650 0.160882 0.616939
O O10 0.727643 0.000390 0.753486
O O11 0.522497 0.324643 0.181953
O O12 0.446353 0.128671 0.151684
O O13 0.500000 0.268865 0.000000
O O14 0.397960 0.131191 0.832973
O O15 0.765581 0.083837 0.085788
O O16 0.667914 0.917561 0.104168
O O17 0.920192 0.500000 0.500000
#
# Coordination Sequence:
#
# PCOD9332153 Si02
#       8
#     8   8   8   8   8   8   8   8
#     4  12  23  41  66 104 145 185 231 299 360 452
#     4  11  26  44  72 100 145 189 240 305 363 431
#     4  11  21  41  65 101 145 183 227 290 369 427
#     4  12  27  50  69  99 142 191 247 300 359 425
#     4  12  25  43  69  97 139 189 241 294 361 417
#     4  11  23  42  68 107 150 183 232 297 372 445
#     4  11  21  39  69 102 140 181 232 287 364 434
#     4  12  23  43  71 103 137 186 238 298 356 434
#
# _framework density 22.164484000000002
#
# number of rings (size 3 to 8) (size 9 to 14) (size 15 to 20)
#    0.000    0.500    5.000    6.000    0.000    1.000 
#    4.500    0.625    0.000    1.500    0.000    0.000 
#    0.000    0.000    0.000    0.000    0.000    0.000 
#
# Total GULP energy -178746.962650 kJ/mol
# GULP energy per Si atom -5585.842583 kJ/mol
# Density = 2.211404 g / cm^3
# Si number density = 22.164484 Si / 1000 Ang^3
#
#
#
# Elastic Constant Matrix: (Units=GPa)
#
#
# Indices 1 2 3 4 5 6 
#
# 1 89.3902 14.6302 20.3735 0.0000 0.0000 0.0000
# 2 14.6302 106.3029 16.7196 0.0000 0.0000 0.0000
# 3 20.3735 16.7196 103.7537 0.0000 0.0000 0.0000
# 4 0.0000 0.0000 0.0000 26.4149 0.0000 0.0000
# 5 0.0000 0.0000 0.0000 0.0000 30.2785 0.0000
# 6 0.0000 0.0000 0.0000 0.0000 0.0000 36.6231
#
#
#
# Elastic Compliance Matrix: (Units=1/GPa)
#
#
# Indices 1 2 3 4 5 6 
#
# 1 0.011884 -0.001302 -0.002124 0.000000 0.000000 0.000000
# 2 -0.001302 0.009794 -0.001323 0.000000 0.000000 0.000000
# 3 -0.002124 -0.001323 0.010268 0.000000 0.000000 0.000000
# 4 0.000000 0.000000 0.000000 0.037857 0.000000 0.000000
# 5 0.000000 0.000000 0.000000 0.000000 0.033027 0.000000
# 6 0.000000 0.000000 0.000000 0.000000 0.000000 0.027305
#
#
# Mechanical properties :
#
#
# Convention : Reuss Voigt Hill
#
# Bulk Modulus (GPa) = 44.54259 44.76594 44.65426
# Shear Modulus (GPa) = 33.98687 35.17821 34.58254
#
# Velocity S-wave (km/s) = 3.92010 3.98822 3.95431
# Velocity P-wave (km/s) = 6.37414 6.43808 6.40619
#
# Compressibility (1/GPa) = 0.02245042
#
# Stress axis : x y z
#
# Youngs Moduli (GPa) = 84.14683 102.10072 97.38606
#
# Poissons Ratio (x) = 0.13289 0.20683
# Poissons Ratio (y) = 0.10952 0.12882
# Poissons Ratio (z) = 0.17872 0.13505
#
# Static dielectric constant tensor:
#      x y z
#    x 1.821750 0.000000 0.000000 
#    y 0.000000 1.904310 0.000000 
#    z 0.000000 0.000000 1.940200 
# 
# From -- ./inp_files/22624.got.cif
#   From: 2010.05.17/outbox.cif.g08.bks.cpg/sg23_12_cif.got.tgz:22624.got - 2010.06.04 12:02:01.
