data_PCOD9332288
_publ_section_title
;
Structure prediction by ZEFSAII (Michael W. Deem and Ramdas Pophale) SiO2 
 PCOD9332288
Probable space group: I 2 2 2
;
_chemical_formula_sum "Si O2"
_cell_formula_units_Z 24
_cell_length_a 12.816208
_cell_length_b 7.308177
_cell_length_c 13.234037
_cell_angle_alpha 90.000000
_cell_angle_beta 90.000000
_cell_angle_gamma 90.000000
_cell_volume 1239.541150
_symmetry_space_group_name_H-M "I 2 2 2"
_symmetry_group_IT_number 23
_symmetry_cell_setting 'orthorhombic'
loop_
_space_group_symop_operation_xyz
x,y,z
-x,-y,z
x,-y,-z
-x,y,-z
1/2+x,1/2+y,1/2+z
1/2-x,1/2-y,1/2+z
1/2+x,1/2-y,1/2-z
1/2-x,1/2+y,1/2-z
loop_
_atom_site_type_symbol
_atom_site_label
_atom_site_fract_x
_atom_site_fract_y
_atom_site_fract_z
Si Si1 0.641707 0.867391 0.190378
Si Si2 0.937036 0.736870 0.394483
Si Si3 0.251069 0.016833 0.612970
O O1 0.528172 0.771714 0.189055
O O2 0.722591 0.724214 0.142789
O O3 0.626881 0.049342 0.122564
O O4 0.678114 0.929691 0.300298
O O5 0.000000 0.740343 0.500000
O O6 0.142424 0.096993 0.388342
O O7 0.294716 0.000000 0.500000
#
# Coordination Sequence:
#
# PCOD9332288 Si02
#       3
#     8   8   8
#     4  11  23  39  61  98 133 160 211 277 317 376
#     4  11  23  40  68  96 124 170 223 266 313 380
#     4  12  24  40  66 100 126 170 217 266 328 383
#
# _framework density 19.362003000000001
#
# number of rings (size 3 to 8) (size 9 to 14) (size 15 to 20)
#    0.000    0.667    6.667    3.000    0.000    0.000 
#    0.000    3.333    0.000    0.000   17.333    0.000 
#    0.000    0.000    0.000    0.000    0.000    0.000 
#
# Total GULP energy -67057.478835 kJ/mol
# GULP energy per Si atom -5588.123236 kJ/mol
# Density = 1.931793 g / cm^3
# Si number density = 19.362003 Si / 1000 Ang^3
#
#
#
# Elastic Constant Matrix: (Units=GPa)
#
#
# Indices 1 2 3 4 5 6 
#
# 1 64.6600 22.4867 69.1301 0.0000 0.0000 0.0000
# 2 22.4867 80.7062 53.5354 0.0000 0.0000 0.0000
# 3 69.1301 53.5354 166.4725 0.0000 0.0000 0.0000
# 4 0.0000 0.0000 0.0000 31.5973 0.0000 0.0000
# 5 0.0000 0.0000 0.0000 0.0000 49.5516 0.0000
# 6 0.0000 0.0000 0.0000 0.0000 0.0000 38.0225
#
#
#
# Elastic Compliance Matrix: (Units=1/GPa)
#
#
# Indices 1 2 3 4 5 6 
#
# 1 0.027815 -0.000112 -0.011515 0.000000 0.000000 0.000000
# 2 -0.000112 0.015751 -0.005019 0.000000 0.000000 0.000000
# 3 -0.011515 -0.005019 0.012403 0.000000 0.000000 0.000000
# 4 0.000000 0.000000 0.000000 0.031648 0.000000 0.000000
# 5 0.000000 0.000000 0.000000 0.000000 0.020181 0.000000
# 6 0.000000 0.000000 0.000000 0.000000 0.000000 0.026300
#
#
# Mechanical properties :
#
#
# Convention : Reuss Voigt Hill
#
# Bulk Modulus (GPa) = 44.09566 66.90480 55.50023
# Shear Modulus (GPa) = 28.57987 34.94671 31.76329
#
# Velocity S-wave (km/s) = 3.84615 4.25303 4.05470
# Velocity P-wave (km/s) = 6.52285 7.66469 7.11671
#
# Compressibility (1/GPa) = 0.02267797
#
# Stress axis : x y z
#
# Youngs Moduli (GPa) = 35.95168 63.48805 80.62800
#
# Poissons Ratio (x) = 0.00710 0.92840
# Poissons Ratio (y) = 0.00402 0.40466
# Poissons Ratio (z) = 0.41397 0.31864
#
# Static dielectric constant tensor:
#      x y z
#    x 1.684020 0.000000 0.000000 
#    y 0.000000 1.730170 0.000000 
#    z 0.000000 0.000000 1.684060 
# 
# From -- ./inp_files/17131.got.cif
#   From: 2010.05.17/outbox.cif.g08.bks.cpg/sg23_9_cif.got.tgz:17131.got - 2010.06.04 12:02:01.
