data_PCOD9332234
_publ_section_title
;
Structure prediction by ZEFSAII (Michael W. Deem and Ramdas Pophale) SiO2 
 PCOD9332234
Probable space group: I 2 2 2
;
_chemical_formula_sum "Si O2"
_cell_formula_units_Z 58
_cell_length_a 18.346531
_cell_length_b 10.142755
_cell_length_c 15.472954
_cell_angle_alpha 90.000000
_cell_angle_beta 90.000000
_cell_angle_gamma 90.000000
_cell_volume 2879.274882
_symmetry_space_group_name_H-M "I 2 2 2"
_symmetry_group_IT_number 23
_symmetry_cell_setting 'orthorhombic'
loop_
_space_group_symop_operation_xyz
x,y,z
-x,-y,z
x,-y,-z
-x,y,-z
1/2+x,1/2+y,1/2+z
1/2-x,1/2-y,1/2+z
1/2+x,1/2-y,1/2-z
1/2-x,1/2+y,1/2-z
loop_
_atom_site_type_symbol
_atom_site_label
_atom_site_fract_x
_atom_site_fract_y
_atom_site_fract_z
Si Si1 0.947669 0.262096 0.278636
Si Si2 0.420589 0.043248 0.098617
Si Si3 0.500000 0.000000 0.500000
Si Si4 0.279515 0.576817 0.089428
Si Si5 0.148046 0.019178 0.770649
Si Si6 0.791029 0.643617 0.346320
Si Si7 0.890298 0.541591 0.866760
Si Si8 0.394296 0.240588 0.705984
O O1 0.921046 0.303899 0.374269
O O2 0.913781 0.126299 0.247045
O O3 0.913639 0.377557 0.217944
O O4 0.034495 0.257803 0.267210
O O5 0.500000 0.000000 0.135511
O O6 0.349641 0.968949 0.133229
O O7 0.422525 0.000000 0.000000
O O8 0.445642 0.084690 0.441134
O O9 0.321149 0.522211 0.175061
O O10 0.293336 0.734958 0.086510
O O11 0.193350 0.562466 0.109438
O O12 0.296369 0.500000 0.000000
O O13 0.212390 0.084523 0.826652
O O14 0.117951 0.890906 0.820624
O O15 0.820822 0.705296 0.257489
O O16 0.903812 0.384693 0.855696
#
# Coordination Sequence:
#
# PCOD9332234 Si02
#       8
#     8   8   2   8   8   8   8   8
#     4  12  21  42  67  94 122 174 213 262 321 380
#     4  11  23  39  64  92 123 164 213 265 311 375
#     4  12  24  36  68 106 118 160 218 258 316 384
#     4  11  24  40  61  94 134 166 208 270 325 375
#     4  11  25  39  67  94 128 169 217 259 321 398
#     4  11  22  42  61  95 123 167 218 263 314 385
#     4  12  21  39  69  92 123 167 217 258 312 390
#     4  11  22  40  63  91 127 164 212 265 309 378
#
# _framework density 20.14396
#
# number of rings (size 3 to 8) (size 9 to 14) (size 15 to 20)
#    0.000    0.690    7.586    0.414    3.862    0.000 
#    0.000    0.000    0.000    1.655    0.000    0.000 
#    0.000    0.000    0.000    0.000    0.000    0.000 
#
# Total GULP energy -161699.300080 kJ/mol
# GULP energy per Si atom -5575.837934 kJ/mol
# Density = 2.009811 g / cm^3
# Si number density = 20.143960 Si / 1000 Ang^3
#
#
#
# Elastic Constant Matrix: (Units=GPa)
#
#
# Indices 1 2 3 4 5 6 
#
# 1 54.4440 27.9230 -9.4097 0.0000 0.0000 0.0000
# 2 27.9230 115.8814 6.1120 0.0000 0.0000 0.0000
# 3 -9.4097 6.1120 40.7536 0.0000 0.0000 0.0000
# 4 0.0000 0.0000 0.0000 16.7805 0.0000 0.0000
# 5 0.0000 0.0000 0.0000 0.0000 20.7124 0.0000
# 6 0.0000 0.0000 0.0000 0.0000 0.0000 27.3731
#
#
#
# Elastic Compliance Matrix: (Units=1/GPa)
#
#
# Indices 1 2 3 4 5 6 
#
# 1 0.022328 -0.005697 0.006010 0.000000 0.000000 0.000000
# 2 -0.005697 0.010152 -0.002838 0.000000 0.000000 0.000000
# 3 0.006010 -0.002838 0.026351 0.000000 0.000000 0.000000
# 4 0.000000 0.000000 0.000000 0.059593 0.000000 0.000000
# 5 0.000000 0.000000 0.000000 0.000000 0.048280 0.000000
# 6 0.000000 0.000000 0.000000 0.000000 0.000000 0.036532
#
#
# Mechanical properties :
#
#
# Convention : Reuss Voigt Hill
#
# Bulk Modulus (GPa) = 18.59413 28.92549 23.75981
# Shear Modulus (GPa) = 22.10296 25.40346 23.75321
#
# Velocity S-wave (km/s) = 3.31607 3.55504 3.43763
# Velocity P-wave (km/s) = 4.89003 5.58942 5.25139
#
# Compressibility (1/GPa) = 0.05378041
#
# Stress axis : x y z
#
# Youngs Moduli (GPa) = 44.78656 98.50277 37.94931
#
# Poissons Ratio (x) = 0.56119 -0.22807
# Poissons Ratio (y) = 0.25516 0.10770
# Poissons Ratio (z) = -0.26916 0.27955
#
# Static dielectric constant tensor:
#      x y z
#    x 1.687580 0.000000 0.000000 
#    y 0.000000 1.778810 0.000000 
#    z 0.000000 0.000000 1.772920 
# 
# From -- ./inp_files/25099.got.cif
#   From: 2010.05.17/outbox.cif.g08.bks.cpg/sg23_13_cif.got.tgz:25099.got - 2010.06.04 12:02:01.
