data_PCOD9332644
_publ_section_title
;
Structure prediction by ZEFSAII (Michael W. Deem and Ramdas Pophale) SiO2 
 PCOD9332644
Probable space group: I 2 2 2
;
_chemical_formula_sum "Si O2"
_cell_formula_units_Z 28
_cell_length_a 15.000000
_cell_length_b 15.000000
_cell_length_c 12.000000
_cell_angle_alpha 90.000000
_cell_angle_beta 90.000000
_cell_angle_gamma 90.000000
_cell_volume 2700.000000
_symmetry_space_group_name_H-M "I 2 2 2"
_symmetry_group_IT_number 23
_symmetry_cell_setting 'orthorhombic'
loop_
_space_group_symop_operation_xyz
x,y,z
-x,-y,z
x,-y,-z
-x,y,-z
1/2+x,1/2+y,1/2+z
1/2-x,1/2-y,1/2+z
1/2+x,1/2-y,1/2-z
1/2-x,1/2+y,1/2-z
loop_
_atom_site_type_symbol
_atom_site_label
_atom_site_fract_x
_atom_site_fract_y
_atom_site_fract_z
Si Si1 0.143837 0.757192 0.749537
Si Si2 0.868009 0.570494 0.588775
Si Si3 0.101803 0.745873 0.498489
Si Si4 0.333351 0.096826 0.454200
Si Si5 0.011567 0.608648 0.197754
Si Si6 0.790214 0.948062 0.244039
Si Si7 0.704831 0.358874 0.840256
O O1 0.122219 0.777256 0.621457
O O2 0.070742 0.680006 0.789873
O O3 0.152666 0.860429 0.794982
O O4 0.240264 0.708480 0.761112
O O5 0.903190 0.500000 0.500000
O O6 0.839351 0.659440 0.525450
O O7 0.782810 0.530238 0.650124
O O8 0.936299 0.602989 0.684276
O O9 0.120133 0.814771 0.399711
O O10 0.000000 0.716775 0.500000
O O11 0.421509 0.140260 0.400670
O O12 0.266985 0.085157 0.350460
O O13 0.275637 0.134170 0.556341
O O14 0.360525 0.000000 0.500000
O O15 0.000000 0.500000 0.178193
O O16 0.822070 0.046094 0.286313
#
# Coordination Sequence:
#
# PCOD9332644 Si02
#       7
#     8   8   8   8   8   8   8
#     4  12  23  39  64  97 134 167 218 268 327 400
#     4  11  22  39  63  97 135 168 210 273 334 390
#     4  12  24  41  65  95 131 171 217 272 332 387
#     4   9  19  37  62  87 124 167 211 260 319 382
#     4  11  22  36  60  97 132 165 205 265 329 388
#     4  10  21  40  63  93 127 171 225 264 319 396
#     4  11  23  42  66  91 127 178 217 268 321 390
#
# _framework density 10.370369999999999
#
# number of rings (size 3 to 8) (size 9 to 14) (size 15 to 20)
#    0.000    1.143    4.286    4.286    0.000    2.000 
#    0.000    1.429    0.000    0.000    0.000    0.000 
#    0.000    0.000    0.000    0.000    0.000    0.000 
#
# Total GULP energy -155907.380770 kJ/mol
# GULP energy per Si atom -5568.120742 kJ/mol
# Density = 1.034677 g / cm^3
# Si number density = 10.370370 Si / 1000 Ang^3
#
#
#
# Elastic Constant Matrix: (Units=GPa)
#
#
# Indices 1 2 3 4 5 6 
#
# 1 25.6172 16.2079 20.1432 0.0000 0.0000 0.0000
# 2 16.2079 118.7248 5.0291 0.0000 0.0000 0.0000
# 3 20.1432 5.0291 46.6552 0.0000 0.0000 0.0000
# 4 0.0000 0.0000 0.0000 31.1519 0.0000 0.0000
# 5 0.0000 0.0000 0.0000 0.0000 27.1100 0.0000
# 6 0.0000 0.0000 0.0000 0.0000 0.0000 30.6621
#
#
#
# Elastic Compliance Matrix: (Units=1/GPa)
#
#
# Indices 1 2 3 4 5 6 
#
# 1 0.065560 -0.007787 -0.027466 0.000000 0.000000 0.000000
# 2 -0.007787 0.009386 0.002350 0.000000 0.000000 0.000000
# 3 -0.027466 0.002350 0.033039 0.000000 0.000000 0.000000
# 4 0.000000 0.000000 0.000000 0.032101 0.000000 0.000000
# 5 0.000000 0.000000 0.000000 0.000000 0.036887 0.000000
# 6 0.000000 0.000000 0.000000 0.000000 0.000000 0.032614
#
#
# Mechanical properties :
#
#
# Convention : Reuss Voigt Hill
#
# Bulk Modulus (GPa) = 23.70788 30.41750 27.06269
# Shear Modulus (GPa) = 17.27411 27.75926 22.51668
#
# Velocity S-wave (km/s) = 2.88906 3.66237 3.29846
# Velocity P-wave (km/s) = 4.75229 5.70801 5.25194
#
# Compressibility (1/GPa) = 0.04218007
#
# Stress axis : x y z
#
# Youngs Moduli (GPa) = 15.25329 106.53840 30.26741
#
# Poissons Ratio (x) = 0.82956 0.83132
# Poissons Ratio (y) = 0.11877 -0.07113
# Poissons Ratio (z) = 0.41894 -0.25037
#
# Static dielectric constant tensor:
#      x y z
#    x 1.779920 0.000000 0.000000 
#    y 0.000000 1.833770 0.000000 
#    z 0.000000 0.000000 1.818930 
# 
# From -- ./inp_files/16804.got.cif
#   From: 2010.05.17/outbox.ucp.g08.bks.cvg/sg23_9_cif.got.tgz:16804.got - 2010.06.11 15:19:07.
