data_PCOD9332861
_publ_section_title
;
Structure prediction by ZEFSAII (Michael W. Deem and Ramdas Pophale) SiO2 
 PCOD9332861
Probable space group: I 21 21 21
;
_chemical_formula_sum "Si O2"
_cell_formula_units_Z 56
_cell_length_a 8.658529
_cell_length_b 16.233272
_cell_length_c 20.565686
_cell_angle_alpha 90.000000
_cell_angle_beta 90.000000
_cell_angle_gamma 90.000000
_cell_volume 2890.635834
_symmetry_space_group_name_H-M "I 21 21 21"
_symmetry_group_IT_number 24
_symmetry_cell_setting 'orthorhombic'
loop_
_space_group_symop_operation_xyz
x,y,z
-x,1/2-y,z
x,-y,1/2-z
1/2-x,y,-z
1/2+x,1/2+y,1/2+z
1/2-x,-y,1/2+z
1/2+x,1/2-y,-z
-x,1/2+y,1/2-z
loop_
_atom_site_type_symbol
_atom_site_label
_atom_site_fract_x
_atom_site_fract_y
_atom_site_fract_z
Si Si1 0.841232 0.484912 0.560612
Si Si2 0.741631 0.901013 0.243130
Si Si3 0.142784 0.706709 0.639777
Si Si4 0.139889 0.144950 0.101625
Si Si5 0.577896 0.599472 0.746861
Si Si6 0.072607 0.392666 0.984570
Si Si7 0.403580 0.082117 0.296993
O O1 0.750000 0.444567 0.500000
O O2 0.747122 0.567897 0.580629
O O3 0.868668 0.439001 0.628014
O O4 0.999266 0.519145 0.530852
O O5 0.719887 0.858692 0.313020
O O6 0.914816 0.875175 0.219659
O O7 0.578238 0.882343 0.207370
O O8 0.748755 0.000000 0.250000
O O9 0.262157 0.772896 0.612159
O O10 0.062563 0.660857 0.580091
O O11 0.000000 0.750000 0.676368
O O12 0.068967 0.124561 0.171583
O O13 0.017081 0.149029 0.043996
O O14 0.584504 0.500000 0.750000
O O15 0.747206 0.628478 0.772235
O O16 0.250000 0.400545 0.000000
O O17 0.410911 0.000000 0.250000
#
# Coordination Sequence:
#
# PCOD9332861 Si02
#       7
#     8   8   8   8   8   8   8
#     4  10  20  36  54  81 112 155 199 238 286 346
#     4  10  22  36  56  79 103 144 207 248 293 336
#     4  12  24  36  54  81 115 162 207 242 281 344
#     4  11  22  37  54  76 116 158 203 237 280 339
#     4  10  19  36  57  78 102 151 203 247 294 329
#     4  11  24  34  49  74 116 162 203 231 275 335
#     4  10  17  34  59  73 104 149 194 242 296 334
#
# _framework density 19.372900999999999
#
# number of rings (size 3 to 8) (size 9 to 14) (size 15 to 20)
#    0.000    1.429    4.286    3.429    2.000    2.857 
#    0.000    0.000    0.000    0.000    0.000    0.000 
#    0.000    0.000   29.143    2.714    0.286    0.571 
#
# Total GULP energy -156138.014867 kJ/mol
# GULP energy per Si atom -5576.357674 kJ/mol
# Density = 1.932881 g / cm^3
# Si number density = 19.372901 Si / 1000 Ang^3
#
#
#
# Elastic Constant Matrix: (Units=GPa)
#
#
# Indices 1 2 3 4 5 6 
#
# 1 164.7901 13.9139 27.5130 0.0000 0.0000 0.0000
# 2 13.9139 5.1592 12.9071 0.0000 0.0000 0.0000
# 3 27.5130 12.9071 89.2421 0.0000 0.0000 0.0000
# 4 0.0000 0.0000 0.0000 -136.9644 0.0000 0.0000
# 5 0.0000 0.0000 0.0000 0.0000 1320.9611 0.0000
# 6 0.0000 0.0000 0.0000 0.0000 0.0000 0.2249
#
#
#
# Elastic Compliance Matrix: (Units=1/GPa)
#
#
# Indices 1 2 3 4 5 6 
#
# 1 0.007916 -0.023885 0.001014 0.000000 0.000000 0.000000
# 2 -0.023885 0.375800 -0.046988 0.000000 0.000000 -0.000001
# 3 0.001014 -0.046988 0.017689 0.000000 0.000000 0.000000
# 4 0.000000 0.000000 0.000000 -0.007301 0.000000 0.000000
# 5 0.000000 0.000000 0.000000 0.000000 0.000757 0.000000
# 6 0.000000 -0.000001 0.000000 0.000000 0.000000 4.445798
#
#
# Mechanical properties :
#
#
# Convention : Reuss Voigt Hill
#
# Bulk Modulus (GPa) = 3.82137 40.87325 22.34731
# Shear Modulus (GPa) = 0.98666 250.50149 125.74407
#
# Velocity S-wave (km/s) = 0.71443 11.38358 8.06524
# Velocity P-wave (km/s) = 1.63014 13.92570 9.91419
#
# Compressibility (1/GPa) = 0.26168596
#
# Stress axis : x y z
#
# Youngs Moduli (GPa) = 126.33076 2.66099 56.53327
#
# Poissons Ratio (x) = 0.06356 -0.05733
# Poissons Ratio (y) = 3.01743 2.65639
# Poissons Ratio (z) = -0.12811 0.12503
#
# Static dielectric constant tensor:
#      x y z
#    x 2.048990 0.000000 0.000000 
#    y 0.000000 0.535240 0.000000 
#    z 0.000000 0.000000 1.676740 
# 
# From -- ./inp_files/29753.got.cif
#   From: 2010.05.17/outbox.cif.g08.bks.cpg/sg24_15_cif.got.tgz:29753.got - 2010.06.04 00:33:39.
