data_PCOD9332394
_publ_section_title
;
Structure prediction by ZEFSAII (Michael W. Deem and Ramdas Pophale) SiO2 
 PCOD9332394
Probable space group: I 2 2 2
;
_chemical_formula_sum "Si O2"
_cell_formula_units_Z 40
_cell_length_a 16.564294
_cell_length_b 12.253358
_cell_length_c 8.494411
_cell_angle_alpha 90.000000
_cell_angle_beta 90.000000
_cell_angle_gamma 90.000000
_cell_volume 1724.095518
_symmetry_space_group_name_H-M "I 2 2 2"
_symmetry_group_IT_number 23
_symmetry_cell_setting 'orthorhombic'
loop_
_space_group_symop_operation_xyz
x,y,z
-x,-y,z
x,-y,-z
-x,y,-z
1/2+x,1/2+y,1/2+z
1/2-x,1/2-y,1/2+z
1/2+x,1/2-y,1/2-z
1/2-x,1/2+y,1/2-z
loop_
_atom_site_type_symbol
_atom_site_label
_atom_site_fract_x
_atom_site_fract_y
_atom_site_fract_z
Si Si1 0.408348 0.199871 0.203725
Si Si2 0.415849 0.388808 0.414656
Si Si3 0.899767 0.269638 0.660219
Si Si4 0.172876 0.517343 0.812008
Si Si5 0.855317 0.026386 0.681995
O O1 0.378487 0.274087 0.353773
O O2 0.505088 0.212284 0.190479
O O3 0.382184 0.076342 0.235618
O O4 0.379085 0.228668 0.026737
O O5 0.380488 0.500000 0.500000
O O6 0.500000 0.366944 0.500000
O O7 0.422670 0.444127 0.244661
O O8 0.854989 0.364811 0.753631
O O9 0.875139 0.150718 0.720480
O O10 0.265348 0.501028 0.759937
O O11 0.167558 0.500000 0.000000
O O12 0.852111 0.000000 0.500000
#
# Coordination Sequence:
#
# PCOD9332394 Si02
#       5
#     8   8   8   8   8
#     4  11  25  46  71 104 145 194 251 297 369 451
#     4  11  24  42  69 108 143 180 242 310 363 425
#     4  11  24  46  75 100 146 202 240 302 371 447
#     4  11  28  44  72 107 148 194 247 306 365 442
#     4  11  25  49  73 107 148 194 243 303 383 450
#
# _framework density 23.200571
#
# number of rings (size 3 to 8) (size 9 to 14) (size 15 to 20)
#    0.000    1.000    2.000    3.600    8.400    4.000 
#    0.000    0.000    0.000    0.000    0.000    0.000 
#    0.000    0.000    0.000    0.000    0.000    0.000 
#
# Total GULP energy -111624.258154 kJ/mol
# GULP energy per Si atom -5581.212908 kJ/mol
# Density = 2.314777 g / cm^3
# Si number density = 23.200571 Si / 1000 Ang^3
#
#
#
# Elastic Constant Matrix: (Units=GPa)
#
#
# Indices 1 2 3 4 5 6 
#
# 1 65.5603 29.5665 27.1041 0.0000 0.0000 0.0000
# 2 29.5665 147.2701 28.8216 0.0000 0.0000 0.0000
# 3 27.1041 28.8216 77.8459 0.0000 0.0000 0.0000
# 4 0.0000 0.0000 0.0000 55.7322 0.0000 0.0000
# 5 0.0000 0.0000 0.0000 0.0000 27.4177 0.0000
# 6 0.0000 0.0000 0.0000 0.0000 0.0000 -43.8553
#
#
#
# Elastic Compliance Matrix: (Units=1/GPa)
#
#
# Indices 1 2 3 4 5 6 
#
# 1 0.018751 -0.002681 -0.005536 0.000000 0.000000 0.000000
# 2 -0.002681 0.007704 -0.001919 0.000000 0.000000 0.000000
# 3 -0.005536 -0.001919 0.015484 0.000000 0.000000 0.000000
# 4 0.000000 0.000000 0.000000 0.017943 0.000000 0.000000
# 5 0.000000 0.000000 0.000000 0.000000 0.036473 0.000000
# 6 0.000000 0.000000 0.000000 0.000000 0.000000 -0.022802
#
#
# Mechanical properties :
#
#
# Convention : Reuss Voigt Hill
#
# Bulk Modulus (GPa) = 46.15322 51.29563 48.72443
# Shear Modulus (GPa) = 49.48218 21.53786 35.51002
#
# Velocity S-wave (km/s) = 4.62324 3.05016 3.91649
# Velocity P-wave (km/s) = 6.95955 5.87897 6.44196
#
# Compressibility (1/GPa) = 0.02166696
#
# Stress axis : x y z
#
# Youngs Moduli (GPa) = 53.33055 129.80205 64.58352
#
# Poissons Ratio (x) = 0.34801 0.35754
# Poissons Ratio (y) = 0.14298 0.12393
# Poissons Ratio (z) = 0.29524 0.24907
#
# Static dielectric constant tensor:
#      x y z
#    x 1.907710 0.000000 0.000000 
#    y 0.000000 1.877250 0.000000 
#    z 0.000000 0.000000 2.042270 
# 
# From -- ./inp_files/10730.got.cif
#   From: 2010.05.17/outbox.cif.g08.bks.cpg/sg23_6_cif.got.tgz:10730.got - 2010.06.04 12:02:01.
