data_PCOD9332703
_publ_section_title
;
Structure prediction by ZEFSAII (Michael W. Deem and Ramdas Pophale) SiO2 
 PCOD9332703
Probable space group: I 21 21 21
;
_chemical_formula_sum "Si O2"
_cell_formula_units_Z 44
_cell_length_a 9.385443
_cell_length_b 14.027714
_cell_length_c 13.394312
_cell_angle_alpha 90.000000
_cell_angle_beta 90.000000
_cell_angle_gamma 90.000000
_cell_volume 1763.445695
_symmetry_space_group_name_H-M "I 21 21 21"
_symmetry_group_IT_number 24
_symmetry_cell_setting 'orthorhombic'
loop_
_space_group_symop_operation_xyz
x,y,z
-x,1/2-y,z
x,-y,1/2-z
1/2-x,y,-z
1/2+x,1/2+y,1/2+z
1/2-x,-y,1/2+z
1/2+x,1/2-y,-z
-x,1/2+y,1/2-z
loop_
_atom_site_type_symbol
_atom_site_label
_atom_site_fract_x
_atom_site_fract_y
_atom_site_fract_z
Si Si1 0.250000 0.720527 0.000000
Si Si2 0.136059 0.824369 0.183730
Si Si3 0.428583 0.401380 0.388710
Si Si4 0.145475 0.275249 0.804094
Si Si5 0.895575 0.503173 0.465202
Si Si6 0.169246 0.546314 0.356146
O O1 0.230758 0.775766 0.099167
O O2 0.392814 0.662124 0.015044
O O3 0.248124 0.812479 0.275219
O O4 0.113200 0.925906 0.127761
O O5 0.000000 0.750000 0.199731
O O6 0.423801 0.337817 0.289901
O O7 0.565711 0.454483 0.427335
O O8 0.293648 0.471841 0.384338
O O9 0.252047 0.353494 0.847581
O O10 0.000000 0.250000 0.861515
O O11 0.750000 0.552911 0.500000
O O12 0.036163 0.557797 0.429466
O O13 0.121187 0.500000 0.250000
#
# Coordination Sequence:
#
# PCOD9332703 Si02
#       6
#     4   8   8   8   8   8
#     4  10  16  26  50  82 126 162 196 242 312 378
#     4  11  19  30  53  90 132 162 203 257 323 378
#     4  10  18  34  56  85 124 166 208 257 317 378
#     4  10  22  37  57  88 125 173 216 260 313 384
#     4  12  21  32  57  94 127 162 209 267 320 378
#     4  10  21  40  56  80 131 180 207 246 328 394
#
# _framework density 24.951152
#
# number of rings (size 3 to 8) (size 9 to 14) (size 15 to 20)
#    0.000    1.455    4.545    3.273    2.545    0.000 
#    0.000    6.364    0.000    0.000    0.000   22.909 
#    0.000    2.909    0.000    0.000    0.000    0.000 
#
# Total GULP energy -122475.198550 kJ/mol
# GULP energy per Si atom -5567.054480 kJ/mol
# Density = 2.489436 g / cm^3
# Si number density = 24.951152 Si / 1000 Ang^3
#
#
#
# Elastic Constant Matrix: (Units=GPa)
#
#
# Indices 1 2 3 4 5 6 
#
# 1 157.6356 29.8370 31.3206 0.0000 0.0000 0.0000
# 2 29.8370 31.6896 14.2740 0.0000 0.0000 0.0000
# 3 31.3206 14.2740 29.3759 0.0000 0.0000 0.0000
# 4 0.0000 0.0000 0.0000 4.5734 0.0000 0.0000
# 5 0.0000 0.0000 0.0000 0.0000 13.0977 0.0000
# 6 0.0000 0.0000 0.0000 0.0000 0.0000 25.6987
#
#
#
# Elastic Compliance Matrix: (Units=1/GPa)
#
#
# Indices 1 2 3 4 5 6 
#
# 1 0.008650 -0.005108 -0.006740 0.000000 0.000000 0.000000
# 2 -0.005108 0.043414 -0.015649 0.000000 0.000000 0.000000
# 3 -0.006740 -0.015649 0.048832 0.000000 0.000000 0.000000
# 4 0.000000 0.000000 0.000000 0.218657 0.000000 0.000000
# 5 0.000000 0.000000 0.000000 0.000000 0.076350 0.000000
# 6 0.000000 0.000000 0.000000 0.000000 0.000000 0.038913
#
#
# Mechanical properties :
#
#
# Convention : Reuss Voigt Hill
#
# Bulk Modulus (GPa) = 21.78596 41.06268 31.42432
# Shear Modulus (GPa) = 9.89879 18.22524 14.06202
#
# Velocity S-wave (km/s) = 1.99396 2.70559 2.37656
# Velocity P-wave (km/s) = 3.74854 5.12379 4.48914
#
# Compressibility (1/GPa) = 0.04590111
#
# Stress axis : x y z
#
# Youngs Moduli (GPa) = 115.60915 23.03379 20.47825
#
# Poissons Ratio (x) = 0.11766 0.13803
# Poissons Ratio (y) = 0.59054 0.32047
# Poissons Ratio (z) = 0.77925 0.36046
#
# Static dielectric constant tensor:
#      x y z
#    x 2.102300 0.000000 0.000000 
#    y 0.000000 2.103810 0.000000 
#    z 0.000000 0.000000 2.108490 
# 
# From -- ./inp_files/24736.got.cif
#   From: 2010.05.17/outbox.cif.g08.bks.cpg/sg24_13_cif.got.tgz:24736.got - 2010.06.04 00:33:39.
