data_PCOD9332309
_publ_section_title
;
Structure prediction by ZEFSAII (Michael W. Deem and Ramdas Pophale) SiO2 
 PCOD9332309
Probable space group: I 2 2 2
;
_chemical_formula_sum "Si O2"
_cell_formula_units_Z 48
_cell_length_a 13.791295
_cell_length_b 18.644064
_cell_length_c 9.269389
_cell_angle_alpha 90.000000
_cell_angle_beta 90.000000
_cell_angle_gamma 90.000000
_cell_volume 2383.398938
_symmetry_space_group_name_H-M "I 2 2 2"
_symmetry_group_IT_number 23
_symmetry_cell_setting 'orthorhombic'
loop_
_space_group_symop_operation_xyz
x,y,z
-x,-y,z
x,-y,-z
-x,y,-z
1/2+x,1/2+y,1/2+z
1/2-x,1/2-y,1/2+z
1/2+x,1/2-y,1/2-z
1/2-x,1/2+y,1/2-z
loop_
_atom_site_type_symbol
_atom_site_label
_atom_site_fract_x
_atom_site_fract_y
_atom_site_fract_z
Si Si1 0.895721 0.529582 0.837360
Si Si2 0.192588 0.674549 0.261510
Si Si3 0.615746 0.678528 0.362007
Si Si4 0.236332 0.550133 0.636473
Si Si5 0.597075 0.303688 0.293775
Si Si6 0.394805 0.175651 0.931065
O O1 0.880415 0.614582 0.804086
O O2 0.798261 0.498529 0.766296
O O3 0.000000 0.500000 0.779881
O O4 0.894674 0.500000 0.000000
O O5 0.170310 0.751165 0.193122
O O6 0.306111 0.654766 0.242092
O O7 0.175269 0.688987 0.431823
O O8 0.678647 0.607058 0.341153
O O9 0.513913 0.670818 0.276253
O O10 0.603024 0.694692 0.532355
O O11 0.257347 0.500000 0.500000
O O12 0.139854 0.597281 0.611787
O O13 0.606151 0.228927 0.205507
O O14 0.500000 0.177813 0.000000
#
# Coordination Sequence:
#
# PCOD9332309 Si02
#       6
#     8   8   8   8   8   8
#     4  11  27  43  66  97 134 179 222 285 354 424
#     4  12  22  44  64 100 133 172 229 285 351 407
#     4  11  25  41  69  98 132 184 226 288 343 415
#     4  12  24  44  66  98 140 181 228 282 352 414
#     4  11  23  41  65  99 129 174 232 276 338 410
#     4  12  23  38  66 101 133 173 219 290 339 405
#
# _framework density 20.139306999999999
#
# number of rings (size 3 to 8) (size 9 to 14) (size 15 to 20)
#    0.000    0.500    6.667    1.000    2.333    2.667 
#    0.000    5.833    0.000    1.000    0.000    0.000 
#    0.000    0.000    0.000    0.000    0.000    0.000 
#
# Total GULP energy -133697.104012 kJ/mol
# GULP energy per Si atom -5570.712667 kJ/mol
# Density = 2.009347 g / cm^3
# Si number density = 20.139307 Si / 1000 Ang^3
#
#
#
# Elastic Constant Matrix: (Units=GPa)
#
#
# Indices 1 2 3 4 5 6 
#
# 1 164.0082 63.1773 22.1551 0.0000 0.0000 0.0000
# 2 63.1773 120.2824 28.1452 0.0000 0.0000 0.0000
# 3 22.1551 28.1452 37.0010 0.0000 0.0000 0.0000
# 4 0.0000 0.0000 0.0000 24.9941 0.0000 0.0000
# 5 0.0000 0.0000 0.0000 0.0000 6.0020 0.0000
# 6 0.0000 0.0000 0.0000 0.0000 0.0000 21.1003
#
#
#
# Elastic Compliance Matrix: (Units=1/GPa)
#
#
# Indices 1 2 3 4 5 6 
#
# 1 0.007750 -0.003631 -0.001878 0.000000 0.000000 0.000000
# 2 -0.003631 0.011815 -0.006813 0.000000 0.000000 0.000000
# 3 -0.001878 -0.006813 0.033334 0.000000 0.000000 0.000000
# 4 0.000000 0.000000 0.000000 0.040009 0.000000 0.000000
# 5 0.000000 0.000000 0.000000 0.000000 0.166610 0.000000
# 6 0.000000 0.000000 0.000000 0.000000 0.000000 0.047393
#
#
# Mechanical properties :
#
#
# Convention : Reuss Voigt Hill
#
# Bulk Modulus (GPa) = 35.39409 60.91633 48.15521
# Shear Modulus (GPa) = 14.66390 24.27356 19.46873
#
# Velocity S-wave (km/s) = 2.70130 3.47548 3.11256
# Velocity P-wave (km/s) = 5.22897 6.81311 6.07292
#
# Compressibility (1/GPa) = 0.02825331
#
# Stress axis : x y z
#
# Youngs Moduli (GPa) = 129.03806 84.63729 29.99984
#
# Poissons Ratio (x) = 0.30731 0.05635
# Poissons Ratio (y) = 0.46853 0.20440
# Poissons Ratio (z) = 0.24238 0.57665
#
# Static dielectric constant tensor:
#      x y z
#    x 1.807110 0.000000 0.000000 
#    y 0.000000 1.785240 0.000000 
#    z 0.000000 0.000000 1.771780 
# 
# From -- ./inp_files/9933.got.cif
#   From: 2010.05.17/outbox.cif.g08.bks.cpg/sg23_5_cif.got.tgz:9933.got - 2010.06.04 12:02:01.
