data_PCOD9332495
_publ_section_title
;
Structure prediction by ZEFSAII (Michael W. Deem and Ramdas Pophale) SiO2 
 PCOD9332495
Probable space group: I 2 2 2
;
_chemical_formula_sum "Si O2"
_cell_formula_units_Z 24
_cell_length_a 7.892012
_cell_length_b 5.465293
_cell_length_c 22.983069
_cell_angle_alpha 90.000000
_cell_angle_beta 90.000000
_cell_angle_gamma 90.000000
_cell_volume 991.309362
_symmetry_space_group_name_H-M "I 2 2 2"
_symmetry_group_IT_number 23
_symmetry_cell_setting 'orthorhombic'
loop_
_space_group_symop_operation_xyz
x,y,z
-x,-y,z
x,-y,-z
-x,y,-z
1/2+x,1/2+y,1/2+z
1/2-x,1/2-y,1/2+z
1/2+x,1/2-y,1/2-z
1/2-x,1/2+y,1/2-z
loop_
_atom_site_type_symbol
_atom_site_label
_atom_site_fract_x
_atom_site_fract_y
_atom_site_fract_z
Si Si1 0.500000 0.500000 0.643949
Si Si2 0.684353 0.111169 0.936877
Si Si3 0.000000 0.000000 0.378197
Si Si4 0.759647 0.284705 0.213633
O O1 0.338344 0.446083 0.604839
O O2 0.438293 0.726510 0.682556
O O3 0.640083 0.391543 0.922670
O O4 0.500000 0.000000 0.922092
O O5 0.723225 0.000000 0.000000
O O6 0.110325 0.163385 0.333035
O O7 0.770088 0.526089 0.253366
#
# Coordination Sequence:
#
# PCOD9332495 Si02
#       4
#     4   8   4   8
#     4  12  26  52  86 116 166 214 278 330 406 494
#     4  11  26  51  81 115 160 209 270 337 409 480
#     4  12  27  51  80 114 166 212 264 340 414 476
#     4  12  29  50  82 124 167 218 276 334 409 487
#
# _framework density 24.210405999999999
#
# number of rings (size 3 to 8) (size 9 to 14) (size 15 to 20)
#    0.000    0.333    3.333    3.500    0.000   16.000 
#    0.000    0.000   14.667    0.000    0.000    0.000 
#    0.000    0.000    0.000    0.000    0.000    0.000 
#
# Total GULP energy -67048.930210 kJ/mol
# GULP energy per Si atom -5587.410851 kJ/mol
# Density = 2.415530 g / cm^3
# Si number density = 24.210406 Si / 1000 Ang^3
#
#
#
# Elastic Constant Matrix: (Units=GPa)
#
#
# Indices 1 2 3 4 5 6 
#
# 1 139.6045 55.1150 65.3425 0.0000 0.0000 0.0000
# 2 55.1150 154.3908 107.9562 0.0000 0.0000 0.0000
# 3 65.3425 107.9562 172.0713 0.0000 0.0000 0.0000
# 4 0.0000 0.0000 0.0000 30.3978 0.0000 0.0000
# 5 0.0000 0.0000 0.0000 0.0000 108.7129 0.0000
# 6 0.0000 0.0000 0.0000 0.0000 0.0000 54.8807
#
#
#
# Elastic Compliance Matrix: (Units=1/GPa)
#
#
# Indices 1 2 3 4 5 6 
#
# 1 0.008890 -0.001448 -0.002467 0.000000 0.000000 0.000000
# 2 -0.001448 0.011775 -0.006838 0.000000 0.000000 0.000000
# 3 -0.002467 -0.006838 0.011038 0.000000 0.000000 0.000000
# 4 0.000000 0.000000 0.000000 0.032897 0.000000 0.000000
# 5 0.000000 0.000000 0.000000 0.000000 0.009199 0.000000
# 6 0.000000 0.000000 0.000000 0.000000 0.000000 0.018221
#
#
# Mechanical properties :
#
#
# Convention : Reuss Voigt Hill
#
# Bulk Modulus (GPa) = 98.06872 102.54379 100.30626
# Shear Modulus (GPa) = 42.76223 54.64181 48.70202
#
# Velocity S-wave (km/s) = 4.20727 4.75590 4.48997
# Velocity P-wave (km/s) = 8.01226 8.52087 8.27047
#
# Compressibility (1/GPa) = 0.01019693
#
# Stress axis : x y z
#
# Youngs Moduli (GPa) = 112.49077 84.92316 90.59341
#
# Poissons Ratio (x) = 0.12300 0.22350
# Poissons Ratio (y) = 0.16293 0.61946
# Poissons Ratio (z) = 0.27752 0.58068
#
# Static dielectric constant tensor:
#      x y z
#    x 1.910720 0.000000 0.000000 
#    y 0.000000 2.240450 0.000000 
#    z 0.000000 0.000000 1.970860 
# 
# From -- ./inp_files/446.got.cif
#   From: 2010.05.17/outbox.cif.g08.bks.cpg/sg23_1_cif.got.tgz:446.got - 2010.06.04 12:02:01.
