data_PCOD9332223
_publ_section_title
;
Structure prediction by ZEFSAII (Michael W. Deem and Ramdas Pophale) SiO2 
 PCOD9332223
Probable space group: I 2 2 2
;
_chemical_formula_sum "Si O2"
_cell_formula_units_Z 64
_cell_length_a 30.150779
_cell_length_b 8.580818
_cell_length_c 11.550849
_cell_angle_alpha 90.000000
_cell_angle_beta 90.000000
_cell_angle_gamma 90.000000
_cell_volume 2988.416562
_symmetry_space_group_name_H-M "I 2 2 2"
_symmetry_group_IT_number 23
_symmetry_cell_setting 'orthorhombic'
loop_
_space_group_symop_operation_xyz
x,y,z
-x,-y,z
x,-y,-z
-x,y,-z
1/2+x,1/2+y,1/2+z
1/2-x,1/2-y,1/2+z
1/2+x,1/2-y,1/2-z
1/2-x,1/2+y,1/2-z
loop_
_atom_site_type_symbol
_atom_site_label
_atom_site_fract_x
_atom_site_fract_y
_atom_site_fract_z
Si Si1 0.034451 0.623291 0.684403
Si Si2 0.030322 0.869821 0.193854
Si Si3 0.181409 0.521769 0.174807
Si Si4 0.255455 0.084003 0.122427
Si Si5 0.913684 0.919701 0.374922
Si Si6 0.234257 0.150334 0.463763
Si Si7 0.583381 0.912748 0.379101
Si Si8 0.676685 0.316332 0.243913
O O1 0.064061 0.746154 0.611636
O O2 0.063563 0.520029 0.774538
O O3 0.000000 0.500000 0.628357
O O4 0.003380 0.742759 0.754247
O O5 0.062884 0.760373 0.121179
O O6 0.056213 0.964134 0.295796
O O7 0.000000 0.000000 0.133668
O O8 0.201532 0.556607 0.300871
O O9 0.220288 0.591850 0.094507
O O10 0.135643 0.601544 0.142786
O O11 0.170550 0.336435 0.176602
O O12 0.209852 0.062387 0.192806
O O13 0.257041 0.261853 0.081680
O O14 0.253754 0.000000 0.000000
O O15 0.868636 0.887415 0.303075
O O16 0.907744 0.000000 0.500000
O O17 0.206137 0.236824 0.366856
O O18 0.206502 0.000000 0.500000
O O19 0.574642 0.000000 0.500000
#
# Coordination Sequence:
#
# PCOD9332223 Si02
#       8
#     8   8   8   8   8   8   8   8
#     4   9  20  42  70  98 134 174 225 280 336 424
#     4   9  22  44  67 103 137 166 225 287 336 414
#     4  11  23  40  65  97 136 169 229 284 315 403
#     4  11  24  42  65  93 133 181 223 274 334 395
#     4  11  23  43  68 100 143 181 220 286 348 398
#     4  11  22  39  63  90 127 183 220 266 339 387
#     4  11  23  42  72 100 136 184 224 277 349 410
#     4  11  23  40  64  96 134 172 230 276 323 402
#
# _framework density 21.416024
#
# number of rings (size 3 to 8) (size 9 to 14) (size 15 to 20)
#    0.000    1.500    3.750    0.750    0.000    7.500 
#    0.000    8.750    0.000    0.000    0.000    0.000 
#    0.000    0.000    0.000    0.000    0.000    0.000 
#
# Total GULP energy -178390.678237 kJ/mol
# GULP energy per Si atom -5574.708695 kJ/mol
# Density = 2.136728 g / cm^3
# Si number density = 21.416024 Si / 1000 Ang^3
#
#
#
# Elastic Constant Matrix: (Units=GPa)
#
#
# Indices 1 2 3 4 5 6 
#
# 1 67.5380 23.6646 5.9073 0.0000 0.0000 0.0000
# 2 23.6646 105.8046 20.5100 0.0000 0.0000 0.0000
# 3 5.9073 20.5100 71.1221 0.0000 0.0000 0.0000
# 4 0.0000 0.0000 0.0000 29.2586 0.0000 0.0000
# 5 0.0000 0.0000 0.0000 0.0000 39.7589 0.0000
# 6 0.0000 0.0000 0.0000 0.0000 0.0000 11.9381
#
#
#
# Elastic Compliance Matrix: (Units=1/GPa)
#
#
# Indices 1 2 3 4 5 6 
#
# 1 0.016072 -0.003534 -0.000316 0.000000 0.000000 0.000000
# 2 -0.003534 0.010788 -0.002817 0.000000 0.000000 0.000000
# 3 -0.000316 -0.002817 0.014899 0.000000 0.000000 0.000000
# 4 0.000000 0.000000 0.000000 0.034178 0.000000 0.000000
# 5 0.000000 0.000000 0.000000 0.000000 0.025152 0.000000
# 6 0.000000 0.000000 0.000000 0.000000 0.000000 0.083766
#
#
# Mechanical properties :
#
#
# Convention : Reuss Voigt Hill
#
# Bulk Modulus (GPa) = 35.17997 38.29203 36.73600
# Shear Modulus (GPa) = 24.07743 29.14996 26.61370
#
# Velocity S-wave (km/s) = 3.35665 3.69335 3.52902
# Velocity P-wave (km/s) = 5.61119 6.00888 5.81344
#
# Compressibility (1/GPa) = 0.02842527
#
# Stress axis : x y z
#
# Youngs Moduli (GPa) = 62.21913 92.69674 67.11827
#
# Poissons Ratio (x) = 0.32755 0.02121
# Poissons Ratio (y) = 0.21985 0.18910
# Poissons Ratio (z) = 0.01966 0.26117
#
# Static dielectric constant tensor:
#      x y z
#    x 1.790270 0.000000 0.000000 
#    y 0.000000 1.132940 0.000000 
#    z 0.000000 0.000000 1.837360 
# 
# From -- ./inp_files/18808.got.cif
#   From: 2010.05.17/outbox.cif.g08.bks.cpg/sg23_10_cif.got.tgz:18808.got - 2010.06.04 12:02:01.
