data_PCOD9332161
_publ_section_title
;
Structure prediction by ZEFSAII (Michael W. Deem and Ramdas Pophale) SiO2 
 PCOD9332161
Probable space group: I 2 2 2
;
_chemical_formula_sum "Si O2"
_cell_formula_units_Z 26
_cell_length_a 18.790670
_cell_length_b 5.085435
_cell_length_c 9.984073
_cell_angle_alpha 90.000000
_cell_angle_beta 90.000000
_cell_angle_gamma 90.000000
_cell_volume 954.065345
_symmetry_space_group_name_H-M "I 2 2 2"
_symmetry_group_IT_number 23
_symmetry_cell_setting 'orthorhombic'
loop_
_space_group_symop_operation_xyz
x,y,z
-x,-y,z
x,-y,-z
-x,y,-z
1/2+x,1/2+y,1/2+z
1/2-x,1/2-y,1/2+z
1/2+x,1/2-y,1/2-z
1/2-x,1/2+y,1/2-z
loop_
_atom_site_type_symbol
_atom_site_label
_atom_site_fract_x
_atom_site_fract_y
_atom_site_fract_z
Si Si1 0.397876 0.777808 0.115030
Si Si2 0.728613 0.250148 0.588776
Si Si3 0.091342 0.240390 0.765228
Si Si4 0.000000 0.000000 0.000000
O O1 0.312630 0.752542 0.113960
O O2 0.422825 0.477960 0.147005
O O3 0.423764 0.954271 0.238315
O O4 0.414751 0.000000 0.000000
O O5 0.711794 0.500000 0.500000
O O6 0.677220 0.263394 0.715704
O O7 0.710177 0.000000 0.500000
O O8 0.051747 0.155801 0.899068
#
# Coordination Sequence:
#
# PCOD9332161 Si02
#       4
#     8   8   8   2
#     4  11  24  44  74 107 145 187 250 316 387 440
#     4  11  21  40  71 111 146 185 239 312 386 442
#     4  12  25  46  70 104 151 197 249 307 363 458
#     4  12  32  50  74 106 152 210 268 290 380 454
#
# _framework density 27.251802000000001
#
# number of rings (size 3 to 8) (size 9 to 14) (size 15 to 20)
#    0.000    0.615    1.538    8.308    0.000    2.462 
#    0.000    4.615    0.000    0.000    0.000    0.000 
#    0.000    0.000    0.000    0.000    0.000    0.000 
#
# Total GULP energy -72758.380543 kJ/mol
# GULP energy per Si atom -5596.798503 kJ/mol
# Density = 2.718978 g / cm^3
# Si number density = 27.251802 Si / 1000 Ang^3
#
#
#
# Elastic Constant Matrix: (Units=GPa)
#
#
# Indices 1 2 3 4 5 6 
#
# 1 116.2137 -19.9377 -8.5205 0.0000 0.0000 0.0000
# 2 -19.9377 243.4686 31.0918 0.0000 0.0000 0.0000
# 3 -8.5205 31.0918 65.2456 0.0000 0.0000 0.0000
# 4 0.0000 0.0000 0.0000 33.7070 0.0000 0.0000
# 5 0.0000 0.0000 0.0000 0.0000 44.2166 0.0000
# 6 0.0000 0.0000 0.0000 0.0000 0.0000 -4.1557
#
#
#
# Elastic Compliance Matrix: (Units=1/GPa)
#
#
# Indices 1 2 3 4 5 6 
#
# 1 0.008772 0.000609 0.000855 0.000000 0.000000 0.000000
# 2 0.000609 0.004416 -0.002025 0.000000 0.000000 0.000000
# 3 0.000855 -0.002025 0.016403 0.000000 0.000000 0.000000
# 4 0.000000 0.000000 0.000000 0.029667 0.000000 0.000000
# 5 0.000000 0.000000 0.000000 0.000000 0.022616 0.000000
# 6 0.000000 0.000000 0.000000 0.000000 0.000000 -0.240632
#
#
# Mechanical properties :
#
#
# Convention : Reuss Voigt Hill
#
# Bulk Modulus (GPa) = 35.12417 47.79946 41.46182
# Shear Modulus (GPa) = -33.75039 42.90651 4.57806
#
# Velocity S-wave (km/s) = -3.52300 3.97223 1.29752
# Velocity P-wave (km/s) = 1.90577 6.21419 4.18236
#
# Compressibility (1/GPa) = 0.02847042
#
# Stress axis : x y z
#
# Youngs Moduli (GPa) = 113.99852 226.46206 60.96357
#
# Poissons Ratio (x) = -0.13794 -0.05214
# Poissons Ratio (y) = -0.06944 0.12343
# Poissons Ratio (z) = -0.09750 0.45852
#
# Static dielectric constant tensor:
#      x y z
#    x 2.198710 0.000000 0.000000 
#    y 0.000000 2.020320 0.000000 
#    z 0.000000 0.000000 2.219920 
# 
# From -- ./inp_files/1219.got.cif
#   From: 2010.05.17/outbox.cif.g08.bks.cpg/sg23_1_cif.got.tgz:1219.got - 2010.06.04 12:02:01.
