data_PCOD9332266
_publ_section_title
;
Structure prediction by ZEFSAII (Michael W. Deem and Ramdas Pophale) SiO2 
 PCOD9332266
Probable space group: I 2 2 2
;
_chemical_formula_sum "Si O2"
_cell_formula_units_Z 42
_cell_length_a 5.698110
_cell_length_b 19.883768
_cell_length_c 17.216360
_cell_angle_alpha 90.000000
_cell_angle_beta 90.000000
_cell_angle_gamma 90.000000
_cell_volume 1950.611820
_symmetry_space_group_name_H-M "I 2 2 2"
_symmetry_group_IT_number 23
_symmetry_cell_setting 'orthorhombic'
loop_
_space_group_symop_operation_xyz
x,y,z
-x,-y,z
x,-y,-z
-x,y,-z
1/2+x,1/2+y,1/2+z
1/2-x,1/2-y,1/2+z
1/2+x,1/2-y,1/2-z
1/2-x,1/2+y,1/2-z
loop_
_atom_site_type_symbol
_atom_site_label
_atom_site_fract_x
_atom_site_fract_y
_atom_site_fract_z
Si Si1 0.559950 0.339505 0.232259
Si Si2 0.680855 0.198041 0.161811
Si Si3 0.000000 0.000000 0.500000
Si Si4 0.951451 0.566917 0.734194
Si Si5 0.000000 0.672682 0.000000
Si Si6 0.218564 0.593291 0.880289
Si Si7 0.000000 0.749686 0.500000
O O1 0.678949 0.269545 0.207018
O O2 0.442639 0.327324 0.316834
O O3 0.697991 0.409921 0.236582
O O4 0.378880 0.350783 0.161092
O O5 0.529454 0.137805 0.197584
O O6 0.574489 0.208702 0.076730
O O7 0.847347 0.047831 0.443729
O O8 0.000000 0.500000 0.684294
O O9 0.127085 0.554479 0.805838
O O10 0.996699 0.627193 0.923076
O O11 0.748061 0.709449 0.009212
#
# Coordination Sequence:
#
# PCOD9332266 Si02
#       7
#     8   8   2   8   4   8   4
#     4  11  22  44  70 100 140 191 248 305 361 459
#     4  11  24  41  71 104 136 188 245 301 371 435
#     4  12  26  46  64 102 150 214 248 314 372 476
#     4  11  25  44  68  98 140 191 247 306 371 448
#     4  12  26  41  68 104 147 184 234 304 378 438
#     4  11  26  40  64  99 148 194 246 293 374 449
#     4  12  27  44  71 111 143 182 240 324 378 435
#
# _framework density 21.531706
#
# number of rings (size 3 to 8) (size 9 to 14) (size 15 to 20)
#    0.000    0.762    3.810    2.857   10.667    2.286 
#    0.000    0.476    0.000    0.000    0.000    0.000 
#    0.000    0.000    0.000    0.000    0.000    0.000 
#
# Total GULP energy -116954.164605 kJ/mol
# GULP energy per Si atom -5569.245934 kJ/mol
# Density = 2.148270 g / cm^3
# Si number density = 21.531706 Si / 1000 Ang^3
#
#
#
# Elastic Constant Matrix: (Units=GPa)
#
#
# Indices 1 2 3 4 5 6 
#
# 1 86.3736 36.3541 35.7371 0.0000 0.0000 0.0000
# 2 36.3541 112.2355 38.8536 0.0000 0.0000 0.0000
# 3 35.7371 38.8536 95.5651 0.0000 0.0000 0.0000
# 4 0.0000 0.0000 0.0000 12.6379 0.0000 0.0000
# 5 0.0000 0.0000 0.0000 0.0000 23.1081 0.0000
# 6 0.0000 0.0000 0.0000 0.0000 0.0000 46.5856
#
#
#
# Elastic Compliance Matrix: (Units=1/GPa)
#
#
# Indices 1 2 3 4 5 6 
#
# 1 0.014691 -0.003325 -0.004142 0.000000 0.000000 0.000000
# 2 -0.003325 0.011122 -0.003278 0.000000 0.000000 0.000000
# 3 -0.004142 -0.003278 0.013346 0.000000 0.000000 0.000000
# 4 0.000000 0.000000 0.000000 0.079127 0.000000 0.000000
# 5 0.000000 0.000000 0.000000 0.000000 0.043275 0.000000
# 6 0.000000 0.000000 0.000000 0.000000 0.000000 0.021466
#
#
# Mechanical properties :
#
#
# Convention : Reuss Voigt Hill
#
# Bulk Modulus (GPa) = 56.59896 57.34042 56.96969
# Shear Modulus (GPa) = 23.76362 28.68160 26.22261
#
# Velocity S-wave (km/s) = 3.32574 3.65370 3.49357
# Velocity P-wave (km/s) = 6.41021 6.66993 6.54136
#
# Compressibility (1/GPa) = 0.01766817
#
# Stress axis : x y z
#
# Youngs Moduli (GPa) = 68.07055 89.91491 74.92944
#
# Poissons Ratio (x) = 0.29893 0.31036
# Poissons Ratio (y) = 0.22630 0.24565
# Poissons Ratio (z) = 0.28195 0.29478
#
# Static dielectric constant tensor:
#      x y z
#    x 1.972660 0.000000 0.000000 
#    y 0.000000 1.936750 0.000000 
#    z 0.000000 0.000000 1.764800 
# 
# From -- ./inp_files/23137.got.cif
#   From: 2010.05.17/outbox.cif.g08.bks.cpg/sg23_12_cif.got.tgz:23137.got - 2010.06.04 12:02:01.
