data_PCOD9332533
_publ_section_title
;
Structure prediction by ZEFSAII (Michael W. Deem and Ramdas Pophale) SiO2 
 PCOD9332533
Probable space group: I 2 2 2
;
_chemical_formula_sum "Si O2"
_cell_formula_units_Z 40
_cell_length_a 13.285541
_cell_length_b 8.872783
_cell_length_c 14.900832
_cell_angle_alpha 90.000000
_cell_angle_beta 90.000000
_cell_angle_gamma 90.000000
_cell_volume 1756.505939
_symmetry_space_group_name_H-M "I 2 2 2"
_symmetry_group_IT_number 23
_symmetry_cell_setting 'orthorhombic'
loop_
_space_group_symop_operation_xyz
x,y,z
-x,-y,z
x,-y,-z
-x,y,-z
1/2+x,1/2+y,1/2+z
1/2-x,1/2-y,1/2+z
1/2+x,1/2-y,1/2-z
1/2-x,1/2+y,1/2-z
loop_
_atom_site_type_symbol
_atom_site_label
_atom_site_fract_x
_atom_site_fract_y
_atom_site_fract_z
Si Si1 0.000000 0.500000 0.500000
Si Si2 0.324759 0.797753 0.582302
Si Si3 0.675241 0.797753 0.082302
Si Si4 0.000000 0.500000 0.000000
Si Si5 0.859311 0.032854 0.848698
Si Si6 0.000000 0.000000 0.000000
Si Si7 0.000000 0.000000 0.500000
Si Si8 0.640689 0.532854 0.848698
O O1 0.077520 0.392808 0.554185
O O2 0.250000 0.750000 0.500000
O O3 0.422480 0.892808 0.554185
O O4 0.354076 0.645749 0.633817
O O5 0.251846 0.902430 0.640762
O O6 0.645924 0.645749 0.133817
O O7 0.748154 0.902430 0.140762
O O8 0.928681 0.089378 0.931136
O O9 0.897897 0.070531 0.750000
O O10 0.071319 0.910622 0.568864
#
# Coordination Sequence:
#
# PCOD9332533 Si02
#       8
#     2   8   8   2   8   2   2   8
#     4  12  24  44  84 102 142 210 240 292 392 442
#     4  12  23  47  73 104 150 193 244 308 369 438
#     4  12  23  47  73 104 150 193 244 308 369 438
#     4  12  24  44  84 102 142 210 240 292 392 442
#     4  12  26  45  72 106 145 194 248 304 369 442
#     4  12  22  44  68  98 146 188 240 306 366 436
#     4  12  22  44  68  98 146 188 240 306 366 436
#     4  12  26  45  72 106 145 194 248 304 369 442
#
# _framework density 22.772480999999999
#
# number of rings (size 3 to 8) (size 9 to 14) (size 15 to 20)
#    0.000    0.000    8.000    3.000    0.000    0.000 
#    0.000    4.000    0.000    0.000    0.000    0.000 
#    0.000    0.000    0.000    0.000    0.000    0.000 
#
# Total GULP energy -111810.964057 kJ/mol
# GULP energy per Si atom -5590.548203 kJ/mol
# Density = 2.272065 g / cm^3
# Si number density = 22.772481 Si / 1000 Ang^3
#
#
#
# Elastic Constant Matrix: (Units=GPa)
#
#
# Indices 1 2 3 4 5 6 
#
# 1 176.2003 42.5684 55.7984 0.0000 0.0000 0.0000
# 2 42.5684 111.0894 14.2675 0.0000 0.0000 0.0000
# 3 55.7984 14.2675 166.5331 0.0000 0.0000 0.0000
# 4 0.0000 0.0000 0.0000 19.5318 0.0000 0.0000
# 5 0.0000 0.0000 0.0000 0.0000 13.0717 0.0000
# 6 0.0000 0.0000 0.0000 0.0000 0.0000 59.7662
#
#
#
# Elastic Compliance Matrix: (Units=1/GPa)
#
#
# Indices 1 2 3 4 5 6 
#
# 1 0.006920 -0.002380 -0.002115 0.000000 0.000000 0.000000
# 2 -0.002380 0.009921 -0.000052 0.000000 0.000000 0.000000
# 3 -0.002115 -0.000052 0.006718 0.000000 0.000000 0.000000
# 4 0.000000 0.000000 0.000000 0.051199 0.000000 0.000000
# 5 0.000000 0.000000 0.000000 0.000000 0.076501 0.000000
# 6 0.000000 0.000000 0.000000 0.000000 0.000000 0.016732
#
#
# Mechanical properties :
#
#
# Convention : Reuss Voigt Hill
#
# Bulk Modulus (GPa) = 69.13763 75.45461 72.29612
# Shear Modulus (GPa) = 27.48672 41.21984 34.35328
#
# Velocity S-wave (km/s) = 3.47798 4.25911 3.88821
# Velocity P-wave (km/s) = 6.82309 7.57580 7.20927
#
# Compressibility (1/GPa) = 0.01446390
#
# Stress axis : x y z
#
# Youngs Moduli (GPa) = 144.50767 100.80111 148.85692
#
# Poissons Ratio (x) = 0.23992 0.31479
# Poissons Ratio (y) = 0.34394 0.00781
# Poissons Ratio (z) = 0.30559 0.00529
#
# Static dielectric constant tensor:
#      x y z
#    x 1.899940 0.000000 0.000000 
#    y 0.000000 1.827190 0.000000 
#    z 0.000000 0.000000 1.889970 
# 
# From -- ./inp_files/21414.got.cif
#   From: 2010.05.17/outbox.cif.g08.bks.cpg/sg23_11_cif.got.tgz:21414.got - 2010.06.04 12:02:01.
