data_PCOD9332923
_publ_section_title
;
Structure prediction by ZEFSAII (Michael W. Deem and Ramdas Pophale) SiO2 
 PCOD9332923
Probable space group: I 21 21 21
;
_chemical_formula_sum "Si O2"
_cell_formula_units_Z 40
_cell_length_a 5.388192
_cell_length_b 29.180039
_cell_length_c 10.150706
_cell_angle_alpha 90.000000
_cell_angle_beta 90.000000
_cell_angle_gamma 90.000000
_cell_volume 1595.971678
_symmetry_space_group_name_H-M "I 21 21 21"
_symmetry_group_IT_number 24
_symmetry_cell_setting 'orthorhombic'
loop_
_space_group_symop_operation_xyz
x,y,z
-x,1/2-y,z
x,-y,1/2-z
1/2-x,y,-z
1/2+x,1/2+y,1/2+z
1/2-x,-y,1/2+z
1/2+x,1/2-y,-z
-x,1/2+y,1/2-z
loop_
_atom_site_type_symbol
_atom_site_label
_atom_site_fract_x
_atom_site_fract_y
_atom_site_fract_z
Si Si1 0.000000 0.250000 0.703849
Si Si2 0.250000 0.171137 0.000000
Si Si3 0.750000 0.906470 0.500000
Si Si4 0.649018 0.648942 0.194462
Si Si5 0.000000 0.750000 0.369746
Si Si6 0.342149 0.397417 0.712414
Si Si7 0.513170 0.500000 0.750000
Si Si8 0.750000 0.535697 0.500000
O O1 0.074588 0.200027 0.644135
O O2 0.255270 0.258230 0.783172
O O3 0.173012 0.150057 0.857413
O O4 0.464459 0.206245 0.959928
O O5 0.824048 0.881750 0.366050
O O6 0.501357 0.935964 0.473151
O O7 0.420714 0.616766 0.154120
O O8 0.914973 0.627664 0.154670
O O9 0.369463 0.452480 0.723865
O O10 0.686535 0.506675 0.625702
#
# Coordination Sequence:
#
# PCOD9332923 Si02
#       8
#     4   4   4   8   4   8   4   4
#     4  10  21  34  42  66 102 140 191 238 283 340
#     4  10  18  29  43  68 102 142 198 240 277 341
#     4  10  20  36  55  84 113 154 201 244 287 350
#     4  11  21  31  49  72 104 150 193 240 291 345
#     4  10  19  28  44  62  98 150 187 234 285 326
#     4  11  22  35  54  78 109 148 194 239 293 347
#     4  10  24  44  62  90 122 156 198 248 294 354
#     4  10  22  39  66  86 119 160 195 242 302 347
#
# _framework density 25.063101
#
# number of rings (size 3 to 8) (size 9 to 14) (size 15 to 20)
#    0.000    1.600    0.000    8.400    0.000   11.200 
#    0.000    0.000    0.000    0.000    0.000    0.000 
#    0.000    3.200    0.000    0.000    0.000    5.100 
#
# Total GULP energy -111678.038096 kJ/mol
# GULP energy per Si atom -5583.901905 kJ/mol
# Density = 2.500606 g / cm^3
# Si number density = 25.063101 Si / 1000 Ang^3
#
#
#
# Elastic Constant Matrix: (Units=GPa)
#
#
# Indices 1 2 3 4 5 6 
#
# 1 233.6928 79.2760 29.3192 0.0000 0.0000 0.0000
# 2 79.2760 136.6060 25.7763 0.0001 0.0000 0.0000
# 3 29.3192 25.7763 56.0717 0.0002 0.0000 0.0000
# 4 0.0000 0.0001 0.0002 8.9128 0.0000 0.0000
# 5 0.0000 0.0000 0.0000 0.0000 17.0505 0.0000
# 6 0.0000 0.0000 0.0000 0.0000 0.0000 29.3634
#
#
#
# Elastic Compliance Matrix: (Units=1/GPa)
#
#
# Indices 1 2 3 4 5 6 
#
# 1 0.005445 -0.002872 -0.001527 0.000000 0.000000 0.000000
# 2 -0.002872 0.009530 -0.002879 0.000000 0.000000 0.000000
# 3 -0.001527 -0.002879 0.019956 0.000000 0.000000 0.000000
# 4 0.000000 0.000000 0.000000 0.112199 0.000000 0.000000
# 5 0.000000 0.000000 0.000000 0.000000 0.058649 0.000000
# 6 0.000000 0.000000 0.000000 0.000000 0.000000 0.034056
#
#
# Mechanical properties :
#
#
# Convention : Reuss Voigt Hill
#
# Bulk Modulus (GPa) = 49.07910 77.23484 63.15697
# Shear Modulus (GPa) = 19.14365 30.53194 24.83780
#
# Velocity S-wave (km/s) = 2.76672 3.49406 3.15145
# Velocity P-wave (km/s) = 5.46178 6.86739 6.20452
#
# Compressibility (1/GPa) = 0.02037527
#
# Stress axis : x y z
#
# Youngs Moduli (GPa) = 183.65959 104.93005 50.10922
#
# Poissons Ratio (x) = 0.30132 0.07651
# Poissons Ratio (y) = 0.52741 0.14429
# Poissons Ratio (z) = 0.28044 0.30214
#
# Static dielectric constant tensor:
#      x y z
#    x 2.007270 0.000000 0.000000 
#    y 0.000000 2.033150 0.000000 
#    z 0.000000 0.000000 2.041280 
# 
# From -- ./inp_files/17775.got.cif
#   From: 2010.05.17/outbox.cif.g08.bks.cpg/sg24_9_cif.got.tgz:17775.got - 2010.06.04 00:33:39.
