data_PCOD9332454
_publ_section_title
;
Structure prediction by ZEFSAII (Michael W. Deem and Ramdas Pophale) SiO2 
 PCOD9332454
Probable space group: I 2 2 2
;
_chemical_formula_sum "Si O2"
_cell_formula_units_Z 20
_cell_length_a 7.521050
_cell_length_b 20.503318
_cell_length_c 4.930222
_cell_angle_alpha 90.000000
_cell_angle_beta 90.000000
_cell_angle_gamma 90.000000
_cell_volume 760.272179
_symmetry_space_group_name_H-M "I 2 2 2"
_symmetry_group_IT_number 23
_symmetry_cell_setting 'orthorhombic'
loop_
_space_group_symop_operation_xyz
x,y,z
-x,-y,z
x,-y,-z
-x,y,-z
1/2+x,1/2+y,1/2+z
1/2-x,1/2-y,1/2+z
1/2+x,1/2-y,1/2-z
1/2-x,1/2+y,1/2-z
loop_
_atom_site_type_symbol
_atom_site_label
_atom_site_fract_x
_atom_site_fract_y
_atom_site_fract_z
Si Si1 0.210129 0.156234 0.886821
Si Si2 0.208564 0.070777 0.413749
Si Si3 0.500000 0.262314 0.000000
O O1 0.292633 0.124342 0.612856
O O2 0.033921 0.189987 0.752772
O O3 0.213118 0.096935 0.105214
O O4 0.333112 0.214941 0.982360
O O5 0.000000 0.067357 0.500000
O O6 0.280830 0.000000 0.500000
#
# Coordination Sequence:
#
# PCOD9332454 Si02
#       3
#     8   8   4
#     4  12  27  48  74 112 150 203 241 321 366 467
#     4  11  25  46  76 107 146 197 259 307 370 444
#     4  12  30  48  78 114 164 194 256 302 404 444
#
# _framework density 26.306370000000001
#
# number of rings (size 3 to 8) (size 9 to 14) (size 15 to 20)
#    0.000    0.400    2.000    4.800    5.600   11.200 
#    0.000    6.000    0.000    0.000    0.000    0.000 
#    0.000    0.000    0.000    0.000    0.000    0.000 
#
# Total GULP energy -55895.527082 kJ/mol
# GULP energy per Si atom -5589.552708 kJ/mol
# Density = 2.624650 g / cm^3
# Si number density = 26.306370 Si / 1000 Ang^3
#
#
#
# Elastic Constant Matrix: (Units=GPa)
#
#
# Indices 1 2 3 4 5 6 
#
# 1 49.7624 16.4166 21.1154 -0.0149 0.0243 -0.0004
# 2 16.4166 174.7034 59.4132 0.0034 -0.0140 -0.0024
# 3 21.1154 59.4132 229.4000 -0.0186 0.0219 0.0022
# 4 -0.0149 0.0034 -0.0186 47.0612 -0.0029 -0.0053
# 5 0.0243 -0.0140 0.0219 -0.0029 18.8076 0.0086
# 6 -0.0004 -0.0024 0.0022 -0.0053 0.0086 6.9673
#
#
#
# Elastic Compliance Matrix: (Units=1/GPa)
#
#
# Indices 1 2 3 4 5 6 
#
# 1 0.021247 -0.001460 -0.001578 0.000006 -0.000027 0.000001
# 2 -0.001460 0.006377 -0.001517 -0.000002 0.000008 0.000003
# 3 -0.001578 -0.001517 0.004897 0.000002 -0.000005 -0.000002
# 4 0.000006 -0.000002 0.000002 0.021249 0.000003 0.000016
# 5 -0.000027 0.000008 -0.000005 0.000003 0.053170 -0.000066
# 6 0.000001 0.000003 -0.000002 0.000016 -0.000066 0.143528
#
#
# Mechanical properties :
#
#
# Convention : Reuss Voigt Hill
#
# Bulk Modulus (GPa) = 42.71407 71.97291 57.34349
# Shear Modulus (GPa) = 18.69990 38.36192 28.53091
#
# Velocity S-wave (km/s) = 2.66907 3.82288 3.29684
# Velocity P-wave (km/s) = 5.07651 6.84871 6.02809
#
# Compressibility (1/GPa) = 0.02341149
#
# Stress axis : x y z
#
# Youngs Moduli (GPa) = 47.06643 156.80926 204.19146
#
# Poissons Ratio (x) = 0.22894 0.32212
# Poissons Ratio (y) = 0.06872 0.30981
# Poissons Ratio (z) = 0.07425 0.23792
#
# Static dielectric constant tensor:
#      x y z
#    x 2.556570 -0.000010 -0.000020 
#    y -0.000010 1.996410 0.000000 
#    z -0.000020 0.000000 2.065600 
# 
# From -- ./inp_files/322.got.cif
#   From: 2010.05.17/outbox.cif.g08.bks.cpg/sg23_1_cif.got.tgz:322.got - 2010.06.04 12:02:01.
