data_PCOD9332074
_publ_section_title
;
Structure prediction by ZEFSAII (Michael W. Deem and Ramdas Pophale) SiO2 
 PCOD9332074
Probable space group: I 2 2 2
;
_chemical_formula_sum "Si O2"
_cell_formula_units_Z 64
_cell_length_a 20.738136
_cell_length_b 9.056669
_cell_length_c 17.881990
_cell_angle_alpha 90.000000
_cell_angle_beta 90.000000
_cell_angle_gamma 90.000000
_cell_volume 3358.567348
_symmetry_space_group_name_H-M "I 2 2 2"
_symmetry_group_IT_number 23
_symmetry_cell_setting 'orthorhombic'
loop_
_space_group_symop_operation_xyz
x,y,z
-x,-y,z
x,-y,-z
-x,y,-z
1/2+x,1/2+y,1/2+z
1/2-x,1/2-y,1/2+z
1/2+x,1/2-y,1/2-z
1/2-x,1/2+y,1/2-z
loop_
_atom_site_type_symbol
_atom_site_label
_atom_site_fract_x
_atom_site_fract_y
_atom_site_fract_z
Si Si1 0.596799 0.407110 0.927852
Si Si2 0.935836 0.417784 0.739454
Si Si3 0.739290 0.929737 0.929014
Si Si4 0.743910 0.348023 0.970985
Si Si5 0.595649 0.064078 0.920328
Si Si6 0.296532 0.473173 0.725976
Si Si7 0.564624 0.566136 0.774610
Si Si8 0.302953 0.854991 0.317846
O O1 0.674094 0.386558 0.936107
O O2 0.576295 0.236234 0.920104
O O3 0.575159 0.503066 0.857725
O O4 0.575767 0.500000 0.000000
O O5 0.925236 0.489894 0.657366
O O6 0.942556 0.242292 0.726909
O O7 0.871449 0.424202 0.791822
O O8 0.000000 0.500000 0.769934
O O9 0.672690 0.024458 0.922105
O O10 0.772191 0.950776 0.849938
O O11 0.730566 0.763690 0.960014
O O12 0.776100 0.000000 0.000000
O O13 0.791238 0.304270 0.903334
O O14 0.772428 0.500000 0.000000
O O15 0.572446 0.000000 0.000000
O O16 0.372513 0.493875 0.733147
O O17 0.290462 0.296547 0.726393
O O18 0.253382 0.535278 0.792700
O O19 0.500000 0.500000 0.741673
#
# Coordination Sequence:
#
# PCOD9332074 Si02
#       8
#     8   8   8   8   8   8   8   8
#     4  11  21  35  59  88 130 162 200 254 308 371
#     4  11  25  42  62  86 124 172 216 260 310 386
#     4  11  20  38  61  94 129 161 197 254 318 375
#     4  11  23  37  60  97 130 159 200 261 317 374
#     4  11  20  35  60  89 124 168 205 242 307 382
#     4  11  23  37  65  94 126 163 206 262 313 381
#     4  11  25  42  59  89 127 168 214 262 319 372
#     4  11  23  39  62  96 125 160 210 257 320 373
#
# _framework density 19.055744000000001
#
# number of rings (size 3 to 8) (size 9 to 14) (size 15 to 20)
#    0.000    1.000    6.250    1.500    3.500    1.500 
#    0.000    2.500    0.000    0.750    0.000    0.000 
#    0.000    0.000    0.000    0.000    0.000    0.000 
#
# Total GULP energy -178387.669127 kJ/mol
# GULP energy per Si atom -5574.614660 kJ/mol
# Density = 1.901237 g / cm^3
# Si number density = 19.055744 Si / 1000 Ang^3
#
#
#
# Elastic Constant Matrix: (Units=GPa)
#
#
# Indices 1 2 3 4 5 6 
#
# 1 107.0179 48.7373 25.0160 0.0000 0.0000 0.0000
# 2 48.7373 92.8071 21.2252 0.0000 0.0000 0.0000
# 3 25.0160 21.2252 43.2123 0.0000 0.0000 0.0000
# 4 0.0000 0.0000 0.0000 27.0458 0.0000 0.0000
# 5 0.0000 0.0000 0.0000 0.0000 17.1565 0.0000
# 6 0.0000 0.0000 0.0000 0.0000 0.0000 24.8366
#
#
#
# Elastic Compliance Matrix: (Units=1/GPa)
#
#
# Indices 1 2 3 4 5 6 
#
# 1 0.013088 -0.005791 -0.004732 0.000000 0.000000 0.000000
# 2 -0.005791 0.014701 -0.003868 0.000000 0.000000 0.000000
# 3 -0.004732 -0.003868 0.027781 0.000000 0.000000 0.000000
# 4 0.000000 0.000000 0.000000 0.036974 0.000000 0.000000
# 5 0.000000 0.000000 0.000000 0.000000 0.058287 0.000000
# 6 0.000000 0.000000 0.000000 0.000000 0.000000 0.040263
#
#
# Mechanical properties :
#
#
# Convention : Reuss Voigt Hill
#
# Bulk Modulus (GPa) = 37.33188 48.11048 42.72118
# Shear Modulus (GPa) = 21.85260 23.67834 22.76547
#
# Velocity S-wave (km/s) = 3.39008 3.52885 3.46016
# Velocity P-wave (km/s) = 5.91244 6.47347 6.19930
#
# Compressibility (1/GPa) = 0.02678676
#
# Stress axis : x y z
#
# Youngs Moduli (GPa) = 76.40857 68.02401 35.99553
#
# Poissons Ratio (x) = 0.39390 0.17034
# Poissons Ratio (y) = 0.44245 0.13925
# Poissons Ratio (z) = 0.36158 0.26315
#
# Static dielectric constant tensor:
#      x y z
#    x 1.717550 0.000000 0.000000 
#    y 0.000000 1.729630 0.000000 
#    z 0.000000 0.000000 1.701260 
# 
# From -- ./inp_files/25276.got.cif
#   From: 2010.05.17/outbox.cif.g08.bks.cpg/sg23_13_cif.got.tgz:25276.got - 2010.06.04 12:02:01.
