data_PCOD9332553
_publ_section_title
;
Structure prediction by ZEFSAII (Michael W. Deem and Ramdas Pophale) SiO2 
 PCOD9332553
Probable space group: I 2 2 2
;
_chemical_formula_sum "Si O2"
_cell_formula_units_Z 34
_cell_length_a 21.701665
_cell_length_b 5.003533
_cell_length_c 14.438105
_cell_angle_alpha 90.000000
_cell_angle_beta 90.000000
_cell_angle_gamma 90.000000
_cell_volume 1567.761588
_symmetry_space_group_name_H-M "I 2 2 2"
_symmetry_group_IT_number 23
_symmetry_cell_setting 'orthorhombic'
loop_
_space_group_symop_operation_xyz
x,y,z
-x,-y,z
x,-y,-z
-x,y,-z
1/2+x,1/2+y,1/2+z
1/2-x,1/2-y,1/2+z
1/2+x,1/2-y,1/2-z
1/2-x,1/2+y,1/2-z
loop_
_atom_site_type_symbol
_atom_site_label
_atom_site_fract_x
_atom_site_fract_y
_atom_site_fract_z
Si Si1 0.000000 0.000000 0.000000
Si Si2 0.900980 0.077747 0.148800
Si Si3 0.848938 0.244070 0.563835
Si Si4 0.763392 0.172380 0.186751
Si Si5 0.569159 0.072639 0.232363
O O1 0.050016 0.851367 0.067361
O O2 0.826998 0.084672 0.136282
O O3 0.906035 0.293371 0.230161
O O4 0.922897 0.789773 0.185807
O O5 0.844533 0.500000 0.500000
O O6 0.783147 0.204756 0.612170
O O7 0.895793 0.304011 0.646165
O O8 0.867730 0.000000 0.500000
O O9 0.766205 0.408437 0.264446
O O10 0.500000 0.000000 0.207614
#
# Coordination Sequence:
#
# PCOD9332553 Si02
#       5
#     2   8   8   8   8
#     4  12  28  46  72 114 150 186 250 302 372 462
#     4  12  25  45  71 107 146 196 242 301 373 455
#     4  12  26  44  71 108 145 185 253 313 362 441
#     4  12  23  46  74 102 142 195 239 293 375 443
#     4  12  24  48  72  98 145 198 240 297 377 443
#
# _framework density 21.686972000000001
#
# number of rings (size 3 to 8) (size 9 to 14) (size 15 to 20)
#    0.000    0.000    7.059    2.824    1.647    2.353 
#    0.000    1.176    0.000    0.000    0.000    0.000 
#    0.000    0.000    0.000    0.000    0.000    0.000 
#
# Total GULP energy -94954.632480 kJ/mol
# GULP energy per Si atom -5585.566616 kJ/mol
# Density = 2.163761 g / cm^3
# Si number density = 21.686972 Si / 1000 Ang^3
#
#
#
# Elastic Constant Matrix: (Units=GPa)
#
#
# Indices 1 2 3 4 5 6 
#
# 1 179.8588 20.7826 74.0247 0.0000 0.0000 0.0000
# 2 20.7826 112.9656 57.0408 0.0000 0.0000 0.0000
# 3 74.0247 57.0408 135.2691 0.0000 0.0000 0.0000
# 4 0.0000 0.0000 0.0000 -4.7782 0.0000 0.0000
# 5 0.0000 0.0000 0.0000 0.0000 33.2817 0.0000
# 6 0.0000 0.0000 0.0000 0.0000 0.0000 19.5238
#
#
#
# Elastic Compliance Matrix: (Units=1/GPa)
#
#
# Indices 1 2 3 4 5 6 
#
# 1 0.007240 0.000849 -0.004320 0.000000 0.000000 0.000000
# 2 0.000849 0.011347 -0.005250 0.000000 0.000000 0.000000
# 3 -0.004320 -0.005250 0.011970 0.000000 0.000000 0.000000
# 4 0.000000 0.000000 0.000000 -0.209285 0.000000 0.000000
# 5 0.000000 0.000000 0.000000 0.000000 0.030047 0.000000
# 6 0.000000 0.000000 0.000000 0.000000 0.000000 0.051220
#
#
# Mechanical properties :
#
#
# Convention : Reuss Voigt Hill
#
# Bulk Modulus (GPa) = 76.23977 81.30997 78.77487
# Shear Modulus (GPa) = -66.09429 28.02182 -19.03623
#
# Velocity S-wave (km/s) = -5.52654 3.59848 -2.96594
# Velocity P-wave (km/s) = 2.34363 7.40536 4.96723
#
# Compressibility (1/GPa) = 0.01311651
#
# Stress axis : x y z
#
# Youngs Moduli (GPa) = 138.12538 88.13133 83.53877
#
# Poissons Ratio (x) = -0.07487 0.36090
# Poissons Ratio (y) = -0.11733 0.43854
# Poissons Ratio (z) = 0.59672 0.46265
#
# Static dielectric constant tensor:
#      x y z
#    x 1.964230 0.000000 0.000000 
#    y 0.000000 1.788090 0.000000 
#    z 0.000000 0.000000 1.727740 
# 
# From -- ./inp_files/22249.got.cif
#   From: 2010.05.17/outbox.cif.g08.bks.cpg/sg23_12_cif.got.tgz:22249.got - 2010.06.04 12:02:01.
