data_PCOD9332937
_publ_section_title
;
Structure prediction by ZEFSAII (Michael W. Deem and Ramdas Pophale) SiO2 
 PCOD9332937
Probable space group: I 21 21 21
;
_chemical_formula_sum "Si O2"
_cell_formula_units_Z 64
_cell_length_a 27.303170
_cell_length_b 14.807328
_cell_length_c 10.311955
_cell_angle_alpha 90.000000
_cell_angle_beta 90.000000
_cell_angle_gamma 90.000000
_cell_volume 4168.989285
_symmetry_space_group_name_H-M "I 21 21 21"
_symmetry_group_IT_number 24
_symmetry_cell_setting 'orthorhombic'
loop_
_space_group_symop_operation_xyz
x,y,z
-x,1/2-y,z
x,-y,1/2-z
1/2-x,y,-z
1/2+x,1/2+y,1/2+z
1/2-x,-y,1/2+z
1/2+x,1/2-y,-z
-x,1/2+y,1/2-z
loop_
_atom_site_type_symbol
_atom_site_label
_atom_site_fract_x
_atom_site_fract_y
_atom_site_fract_z
Si Si1 0.075693 0.502021 0.595041
Si Si2 0.371046 0.671697 0.486260
Si Si3 0.817298 0.108955 0.242662
Si Si4 0.535711 0.489174 0.405361
Si Si5 0.701627 0.109145 0.240147
Si Si6 0.141544 0.341224 0.515587
Si Si7 0.554166 0.290832 0.398827
Si Si8 0.949775 0.695510 0.583691
O O1 0.081669 0.500000 0.750000
O O2 0.085606 0.601493 0.546215
O O3 0.114284 0.436977 0.529867
O O4 0.021222 0.471494 0.566560
O O5 0.347357 0.649283 0.623255
O O6 0.330355 0.650297 0.376670
O O7 0.399690 0.765145 0.475312
O O8 0.759319 0.122632 0.221814
O O9 0.834356 0.157393 0.374734
O O10 0.825165 0.000000 0.250000
O O11 0.540930 0.500000 0.250000
O O12 0.560794 0.395052 0.443489
O O13 0.547085 0.589805 0.453970
O O14 0.682224 0.155533 0.371538
O O15 0.693997 0.000000 0.250000
O O16 0.098940 0.268978 0.547331
O O17 0.500000 0.250000 0.433063
O O18 0.554905 0.292414 0.240768
O O19 0.000000 0.750000 0.548133
#
# Coordination Sequence:
#
# PCOD9332937 Si02
#       8
#     8   8   8   8   8   8   8   8
#     4  11  16  27  50  77 101 131 168 204 245 292
#     4  12  19  33  51  74 105 140 166 202 254 303
#     4  11  24  34  47  75 107 135 169 212 253 305
#     4   9  18  28  47  80 108 127 170 217 241 282
#     4  11  20  34  53  73  99 135 175 210 249 301
#     4  12  19  33  51  74 105 140 166 202 254 303
#     4  10  18  29  51  79 103 132 171 208 247 297
#     4  10  18  29  51  79 103 132 171 208 247 297
#
# _framework density 15.351443
#
# number of rings (size 3 to 8) (size 9 to 14) (size 15 to 20)
#    0.000    1.250    7.500    0.750    0.000    2.000 
#    0.000    0.625    0.000    0.750    0.000    5.250 
#    0.000    0.000    0.000    0.000    0.000    0.000 
#
# Total GULP energy -178292.837974 kJ/mol
# GULP energy per Si atom -5571.651187 kJ/mol
# Density = 1.531650 g / cm^3
# Si number density = 15.351443 Si / 1000 Ang^3
#
#
#
# Elastic Constant Matrix: (Units=GPa)
#
#
# Indices 1 2 3 4 5 6 
#
# 1 76.6397 33.0205 29.6451 0.0000 0.0000 0.0000
# 2 33.0205 72.2275 15.2912 0.0000 0.0000 0.0000
# 3 29.6451 15.2912 77.9058 0.0000 0.0000 0.0000
# 4 0.0000 0.0000 0.0000 12.1497 0.0000 0.0000
# 5 0.0000 0.0000 0.0000 0.0000 -0.5105 0.0000
# 6 0.0000 0.0000 0.0000 0.0000 0.0000 28.3958
#
#
#
# Elastic Compliance Matrix: (Units=1/GPa)
#
#
# Indices 1 2 3 4 5 6 
#
# 1 0.018291 -0.007187 -0.005550 0.000000 0.000000 0.000000
# 2 -0.007187 0.017270 -0.000655 0.000000 0.000000 0.000000
# 3 -0.005550 -0.000655 0.015076 0.000000 0.000000 0.000000
# 4 0.000000 0.000000 0.000000 0.082306 0.000000 0.000000
# 5 0.000000 0.000000 0.000000 0.000000 -1.958713 0.000000
# 6 0.000000 0.000000 0.000000 0.000000 0.000000 0.035216
#
#
# Mechanical properties :
#
#
# Convention : Reuss Voigt Hill
#
# Bulk Modulus (GPa) = 41.92180 42.52074 42.22127
# Shear Modulus (GPa) = -2.84768 17.92808 7.54020
#
# Velocity S-wave (km/s) = -1.36346 3.42108 2.21864
# Velocity P-wave (km/s) = 4.98885 6.58509 5.84175
#
# Compressibility (1/GPa) = 0.02385394
#
# Stress axis : x y z
#
# Youngs Moduli (GPa) = 54.67030 57.90503 66.32933
#
# Poissons Ratio (x) = 0.41619 0.36810
# Poissons Ratio (y) = 0.39294 0.04342
# Poissons Ratio (z) = 0.30340 0.03791
#
# Static dielectric constant tensor:
#      x y z
#    x 1.501030 0.000000 0.000000 
#    y 0.000000 1.526170 0.000000 
#    z 0.000000 0.000000 1.463610 
# 
# From -- ./inp_files/13459.got.cif
#   From: 2010.05.17/outbox.cif.g08.bks.cpg/sg24_7_cif.got.tgz:13459.got - 2010.06.04 00:33:39.
