data_PCOD9332688
_publ_section_title
;
Structure prediction by ZEFSAII (Michael W. Deem and Ramdas Pophale) SiO2 
 PCOD9332688
Probable space group: I 21 21 21
;
_chemical_formula_sum "Si O2"
_cell_formula_units_Z 56
_cell_length_a 27.107315
_cell_length_b 5.329055
_cell_length_c 30.276319
_cell_angle_alpha 90.000000
_cell_angle_beta 90.000000
_cell_angle_gamma 90.000000
_cell_volume 4373.607217
_symmetry_space_group_name_H-M "I 21 21 21"
_symmetry_group_IT_number 24
_symmetry_cell_setting 'orthorhombic'
loop_
_space_group_symop_operation_xyz
x,y,z
-x,1/2-y,z
x,-y,1/2-z
1/2-x,y,-z
1/2+x,1/2+y,1/2+z
1/2-x,-y,1/2+z
1/2+x,1/2-y,-z
-x,1/2+y,1/2-z
loop_
_atom_site_type_symbol
_atom_site_label
_atom_site_fract_x
_atom_site_fract_y
_atom_site_fract_z
Si Si1 0.421180 0.018068 0.699971
Si Si2 0.719893 0.041456 0.046797
Si Si3 0.470031 0.000056 0.892900
Si Si4 0.860136 0.544734 0.427191
Si Si5 0.310513 0.544926 0.890375
Si Si6 0.693224 0.541215 0.018194
Si Si7 0.645460 0.982090 0.700222
O O1 0.392311 0.282765 0.695382
O O2 0.441754 0.000000 0.750000
O O3 0.459082 0.001423 0.659842
O O4 0.383825 0.781180 0.695268
O O5 0.758280 0.986001 0.085569
O O6 0.683731 0.808550 0.040088
O O7 0.694121 0.308600 0.051308
O O8 0.750000 0.063681 0.000000
O O9 0.500000 0.250000 0.903711
O O10 0.417413 0.006680 0.917147
O O11 0.500000 0.750000 0.904008
O O12 0.831621 0.319344 0.402093
O O13 0.842538 0.515713 0.477581
O O14 0.843802 0.820074 0.410719
O O15 0.314318 0.507398 0.838046
O O16 0.750000 0.563609 0.000000
O O17 0.665185 0.000000 0.750000
#
# Coordination Sequence:
#
# PCOD9332688 Si02
#       7
#     8   8   8   8   8   8   8
#     4  10  20  34  48  57  68  91 126 177 222 244
#     4  10  16  24  40  65  86  94 113 145 180 256
#     4  12  24  35  44  58  75  99 136 167 199 249
#     4  12  20  30  47  59  79 103 120 154 205 242
#     4  12  17  28  46  62  78 103 122 148 206 240
#     4  10  16  28  40  66  85  94 113 143 188 251
#     4  10  19  31  45  61  77  98 132 162 199 252
#
# _framework density 12.804076
#
# number of rings (size 3 to 8) (size 9 to 14) (size 15 to 20)
#    0.000    1.143    8.571    1.714    0.000    0.571 
#    0.000    0.000    0.000    0.000    0.000    0.000 
#    0.000    0.000    0.000    0.000    0.000    0.000 
#
# Total GULP energy -156084.704346 kJ/mol
# GULP energy per Si atom -5574.453727 kJ/mol
# Density = 1.277493 g / cm^3
# Si number density = 12.804076 Si / 1000 Ang^3
#
#
#
# Elastic Constant Matrix: (Units=GPa)
#
#
# Indices 1 2 3 4 5 6 
#
# 1 28.2782 -3.0520 18.5021 0.0000 0.0000 0.0000
# 2 -3.0520 60.8214 -1.8550 0.0000 0.0000 0.0000
# 3 18.5021 -1.8550 26.8688 0.0000 0.0000 0.0000
# 4 0.0000 0.0000 0.0000 7.6653 0.0000 0.0000
# 5 0.0000 0.0000 0.0000 0.0000 17.4845 0.0000
# 6 0.0000 0.0000 0.0000 0.0000 0.0000 13.7127
#
#
#
# Elastic Compliance Matrix: (Units=1/GPa)
#
#
# Indices 1 2 3 4 5 6 
#
# 1 0.064577 0.001888 -0.044338 0.000000 0.000000 0.000000
# 2 0.001888 0.016531 -0.000159 0.000000 0.000000 0.000000
# 3 -0.044338 -0.000159 0.067738 0.000000 0.000000 0.000000
# 4 0.000000 0.000000 0.000000 0.130458 0.000000 0.000000
# 5 0.000000 0.000000 0.000000 0.000000 0.057194 0.000000
# 6 0.000000 0.000000 0.000000 0.000000 0.000000 0.072925
#
#
# Mechanical properties :
#
#
# Convention : Reuss Voigt Hill
#
# Bulk Modulus (GPa) = 15.71599 15.90651 15.81125
# Shear Modulus (GPa) = 9.69274 14.59738 12.14506
#
# Velocity S-wave (km/s) = 2.75436 3.38014 3.08316
# Velocity P-wave (km/s) = 4.73457 5.26153 5.00499
#
# Compressibility (1/GPa) = 0.06362948
#
# Stress axis : x y z
#
# Youngs Moduli (GPa) = 15.48550 60.49063 14.76268
#
# Poissons Ratio (x) = -0.11421 0.65454
# Poissons Ratio (y) = -0.02924 0.00234
# Poissons Ratio (z) = 0.68659 0.00961
#
# Static dielectric constant tensor:
#      x y z
#    x 1.406760 0.000000 0.000000 
#    y 0.000000 1.479210 0.000000 
#    z 0.000000 0.000000 1.427000 
# 
# From -- ./inp_files/6641.got.cif
#   From: 2010.05.17/outbox.cif.g08.bks.cpg/sg24_4_cif.got.tgz:6641.got - 2010.06.04 00:33:39.
