data_PCOD9332985
_publ_section_title
;
Structure prediction by ZEFSAII (Michael W. Deem and Ramdas Pophale) SiO2 
 PCOD9332985
Probable space group: I 21 21 21
;
_chemical_formula_sum "Si O2"
_cell_formula_units_Z 60
_cell_length_a 27.328988
_cell_length_b 5.416165
_cell_length_c 21.815270
_cell_angle_alpha 90.000000
_cell_angle_beta 90.000000
_cell_angle_gamma 90.000000
_cell_volume 3229.059360
_symmetry_space_group_name_H-M "I 21 21 21"
_symmetry_group_IT_number 24
_symmetry_cell_setting 'orthorhombic'
loop_
_space_group_symop_operation_xyz
x,y,z
-x,1/2-y,z
x,-y,1/2-z
1/2-x,y,-z
1/2+x,1/2+y,1/2+z
1/2-x,-y,1/2+z
1/2+x,1/2-y,-z
-x,1/2+y,1/2-z
loop_
_atom_site_type_symbol
_atom_site_label
_atom_site_fract_x
_atom_site_fract_y
_atom_site_fract_z
Si Si1 0.395019 0.499047 0.068690
Si Si2 0.307124 0.508357 0.892127
Si Si3 0.031557 0.498802 0.679340
Si Si4 0.587694 0.503242 0.600203
Si Si5 0.650717 0.498387 0.472067
Si Si6 0.750000 0.236466 0.000000
Si Si7 0.922923 0.006288 0.434001
Si Si8 0.680275 0.491057 0.822300
O O1 0.425592 0.517544 0.130151
O O2 0.371229 0.228668 0.065516
O O3 0.358895 0.733077 0.058773
O O4 0.428315 0.510602 0.007128
O O5 0.271381 0.442614 0.947669
O O6 0.363598 0.506645 0.917532
O O7 0.301909 0.272357 0.847669
O O8 0.298563 0.768666 0.858049
O O9 0.048826 0.500000 0.750000
O O10 0.000000 0.250000 0.671719
O O11 0.000000 0.750000 0.669521
O O12 0.622669 0.499124 0.538250
O O13 0.557891 0.254346 0.595383
O O14 0.623059 0.502056 0.658468
O O15 0.558664 0.754145 0.594098
O O16 0.706094 0.580741 0.481761
O O17 0.687566 0.500000 0.750000
#
# Coordination Sequence:
#
# PCOD9332985 Si02
#       8
#     8   8   8   8   8   4   8   8
#     4  10  18  34  50  76 104 133 167 218 288 331
#     4  10  20  30  46  71  91 124 174 220 264 309
#     4  10  21  37  59  85 109 139 183 232 284 358
#     4   8  14  27  39  64  87 112 157 195 240 302
#     4  10  20  30  51  76 101 130 173 224 277 317
#     4  12  20  34  52  76 106 130 188 246 258 322
#     4   8  14  27  42  65  91 114 153 198 247 307
#     4  10  18  31  44  61  89 124 161 205 264 316
#
# _framework density 18.581264000000001
#
# number of rings (size 3 to 8) (size 9 to 14) (size 15 to 20)
#    0.000    2.400    4.000    1.200    0.000    2.133 
#    0.000    0.000    0.000    3.200    0.000    0.933 
#    0.000    0.000    0.000    0.000    0.000 1080.000 
#
# Total GULP energy -167191.169448 kJ/mol
# GULP energy per Si atom -5573.038982 kJ/mol
# Density = 1.853897 g / cm^3
# Si number density = 18.581264 Si / 1000 Ang^3
#
#
#
# Elastic Constant Matrix: (Units=GPa)
#
#
# Indices 1 2 3 4 5 6 
#
# 1 40.3167 18.4307 38.7409 0.0000 0.0000 0.0000
# 2 18.4307 181.4773 47.2132 0.0000 0.0000 0.0000
# 3 38.7409 47.2132 110.2491 0.0000 0.0000 0.0000
# 4 0.0000 0.0000 0.0000 16.8354 0.0000 0.0000
# 5 0.0000 0.0000 0.0000 0.0000 17.6420 0.0000
# 6 0.0000 0.0000 0.0000 0.0000 0.0000 -1.5670
#
#
#
# Elastic Compliance Matrix: (Units=1/GPa)
#
#
# Indices 1 2 3 4 5 6 
#
# 1 0.037478 -0.000428 -0.012986 0.000000 0.000000 0.000000
# 2 -0.000428 0.006206 -0.002507 0.000000 0.000000 0.000000
# 3 -0.012986 -0.002507 0.014707 0.000000 0.000000 0.000000
# 4 0.000000 0.000000 0.000000 0.059398 0.000000 0.000000
# 5 0.000000 0.000000 0.000000 0.000000 0.056683 0.000000
# 6 0.000000 0.000000 0.000000 0.000000 0.000000 -0.638166
#
#
# Mechanical properties :
#
#
# Convention : Reuss Voigt Hill
#
# Bulk Modulus (GPa) = 37.66686 60.09029 48.87857
# Shear Modulus (GPa) = -11.82030 21.75932 4.96951
#
# Velocity S-wave (km/s) = -2.52492 3.42575 1.63716
# Velocity P-wave (km/s) = 3.43732 6.93232 5.47139
#
# Compressibility (1/GPa) = 0.02654854
#
# Stress axis : x y z
#
# Youngs Moduli (GPa) = 26.68242 161.13191 67.99273
#
# Poissons Ratio (x) = 0.06892 0.88298
# Poissons Ratio (y) = 0.01141 0.17049
# Poissons Ratio (z) = 0.34651 0.40402
#
# Static dielectric constant tensor:
#      x y z
#    x 1.648500 0.000000 0.000000 
#    y 0.000000 1.731740 0.000000 
#    z 0.000000 0.000000 1.618260 
# 
# From -- ./inp_files/31734.got.cif
#   From: 2010.05.17/outbox.cif.g08.bks.cpg/sg24_16_cif.got.tgz:31734.got - 2010.06.04 00:33:39.
