data_PCOD9332152
_publ_section_title
;
Structure prediction by ZEFSAII (Michael W. Deem and Ramdas Pophale) SiO2 
 PCOD9332152
Probable space group: I 2 2 2
;
_chemical_formula_sum "Si O2"
_cell_formula_units_Z 40
_cell_length_a 12.204690
_cell_length_b 8.532055
_cell_length_c 18.667922
_cell_angle_alpha 90.000000
_cell_angle_beta 90.000000
_cell_angle_gamma 90.000000
_cell_volume 1943.910998
_symmetry_space_group_name_H-M "I 2 2 2"
_symmetry_group_IT_number 23
_symmetry_cell_setting 'orthorhombic'
loop_
_space_group_symop_operation_xyz
x,y,z
-x,-y,z
x,-y,-z
-x,y,-z
1/2+x,1/2+y,1/2+z
1/2-x,1/2-y,1/2+z
1/2+x,1/2-y,1/2-z
1/2-x,1/2+y,1/2-z
loop_
_atom_site_type_symbol
_atom_site_label
_atom_site_fract_x
_atom_site_fract_y
_atom_site_fract_z
Si Si1 0.388726 0.560521 0.918557
Si Si2 0.376568 0.185536 0.479754
Si Si3 0.631348 0.034922 0.199221
Si Si4 0.233318 0.347363 0.830051
Si Si5 0.311556 0.879339 0.940921
O O1 0.500000 0.500000 0.886690
O O2 0.296579 0.489920 0.868888
O O3 0.397411 0.744454 0.924972
O O4 0.376512 0.500000 0.000000
O O5 0.500000 0.231256 0.500000
O O6 0.343299 0.211496 0.396454
O O7 0.292737 0.287282 0.527297
O O8 0.367248 0.000000 0.500000
O O9 0.680018 0.214919 0.199094
O O10 0.500000 0.000000 0.188028
O O11 0.664584 0.929994 0.267558
O O12 0.701110 0.967213 0.132906
O O13 0.350292 0.000000 0.000000
#
# Coordination Sequence:
#
# PCOD9332152 Si02
#       5
#     8   8   8   8   8
#     4  11  21  39  69 100 136 184 233 294 356 422
#     4  11  24  44  75 102 137 192 244 298 359 429
#     4  12  29  45  71 104 146 193 234 303 371 439
#     4  12  24  48  66 104 145 186 243 294 365 438
#     4  12  22  45  67 105 140 180 246 302 352 430
#
# _framework density 20.577074
#
# number of rings (size 3 to 8) (size 9 to 14) (size 15 to 20)
#    0.000    0.400    6.000    2.400    2.800    2.400 
#    0.000    2.000    0.000    0.000    0.000    0.000 
#    0.000    0.000    0.000    0.000    0.000    0.000 
#
# Total GULP energy -111540.078825 kJ/mol
# GULP energy per Si atom -5577.003941 kJ/mol
# Density = 2.053024 g / cm^3
# Si number density = 20.577074 Si / 1000 Ang^3
#
#
#
# Elastic Constant Matrix: (Units=GPa)
#
#
# Indices 1 2 3 4 5 6 
#
# 1 102.2903 38.2086 46.8999 0.0000 0.0000 0.0000
# 2 38.2086 128.1249 32.3860 0.0000 0.0000 0.0000
# 3 46.8999 32.3860 135.1858 0.0000 0.0000 0.0000
# 4 0.0000 0.0000 0.0000 29.8278 0.0000 0.0000
# 5 0.0000 0.0000 0.0000 0.0000 19.9471 0.0000
# 6 0.0000 0.0000 0.0000 0.0000 0.0000 22.5488
#
#
#
# Elastic Compliance Matrix: (Units=1/GPa)
#
#
# Indices 1 2 3 4 5 6 
#
# 1 0.012504 -0.002802 -0.003667 0.000000 0.000000 0.000000
# 2 -0.002802 0.008936 -0.001169 0.000000 0.000000 0.000000
# 3 -0.003667 -0.001169 0.008949 0.000000 0.000000 0.000000
# 4 0.000000 0.000000 0.000000 0.033526 0.000000 0.000000
# 5 0.000000 0.000000 0.000000 0.000000 0.050133 0.000000
# 6 0.000000 0.000000 0.000000 0.000000 0.000000 0.044348
#
#
# Mechanical properties :
#
#
# Convention : Reuss Voigt Hill
#
# Bulk Modulus (GPa) = 66.16225 66.73225 66.44725
# Shear Modulus (GPa) = 27.97853 31.00518 29.49186
#
# Velocity S-wave (km/s) = 3.69140 3.88594 3.78992
# Velocity P-wave (km/s) = 7.09872 7.25499 7.17728
#
# Compressibility (1/GPa) = 0.01511436
#
# Stress axis : x y z
#
# Youngs Moduli (GPa) = 79.97497 111.90845 111.74084
#
# Poissons Ratio (x) = 0.31357 0.40972
# Poissons Ratio (y) = 0.22409 0.13058
# Poissons Ratio (z) = 0.29324 0.13078
#
# Static dielectric constant tensor:
#      x y z
#    x 1.801860 0.000000 0.000000 
#    y 0.000000 1.818810 0.000000 
#    z 0.000000 0.000000 1.748350 
# 
# From -- ./inp_files/19892.got.cif
#   From: 2010.05.17/outbox.cif.g08.bks.cpg/sg23_10_cif.got.tgz:19892.got - 2010.06.04 12:02:01.
