data_PCOD9332135
_publ_section_title
;
Structure prediction by ZEFSAII (Michael W. Deem and Ramdas Pophale) SiO2 
 PCOD9332135
Probable space group: I 2 2 2
;
_chemical_formula_sum "Si O2"
_cell_formula_units_Z 64
_cell_length_a 16.054540
_cell_length_b 9.844525
_cell_length_c 20.400346
_cell_angle_alpha 90.000000
_cell_angle_beta 90.000000
_cell_angle_gamma 90.000000
_cell_volume 3224.260821
_symmetry_space_group_name_H-M "I 2 2 2"
_symmetry_group_IT_number 23
_symmetry_cell_setting 'orthorhombic'
loop_
_space_group_symop_operation_xyz
x,y,z
-x,-y,z
x,-y,-z
-x,y,-z
1/2+x,1/2+y,1/2+z
1/2-x,1/2-y,1/2+z
1/2+x,1/2-y,1/2-z
1/2-x,1/2+y,1/2-z
loop_
_atom_site_type_symbol
_atom_site_label
_atom_site_fract_x
_atom_site_fract_y
_atom_site_fract_z
Si Si1 0.096260 0.348684 0.506033
Si Si2 0.804720 0.690355 0.624153
Si Si3 0.143662 0.534281 0.796182
Si Si4 0.206494 0.019773 0.804300
Si Si5 0.912847 0.091189 0.591898
Si Si6 0.926582 0.818979 0.257433
Si Si7 0.612160 0.253915 0.739694
Si Si8 0.264504 0.945388 0.428420
O O1 0.137825 0.500000 0.500000
O O2 0.113355 0.315083 0.581294
O O3 0.107361 0.216898 0.458555
O O4 0.000000 0.369716 0.500000
O O5 0.759355 0.548860 0.638498
O O6 0.832846 0.751421 0.693821
O O7 0.744582 0.783780 0.580884
O O8 0.229956 0.521724 0.756337
O O9 0.102754 0.671940 0.769514
O O10 0.092842 0.400925 0.776974
O O11 0.169070 0.521268 0.871956
O O12 0.130742 0.922966 0.782959
O O13 0.169574 0.169405 0.813140
O O14 0.914707 0.154133 0.665021
O O15 0.829643 0.999090 0.586619
O O16 0.000000 0.000000 0.580981
O O17 0.025345 0.830382 0.247245
O O18 0.286905 0.000000 0.500000
#
# Coordination Sequence:
#
# PCOD9332135 Si02
#       8
#     8   8   8   8   8   8   8   8
#     4  11  25  40  56  89 138 183 220 264 330 398
#     4  11  22  41  60  94 131 174 222 268 325 399
#     4  11  23  40  60  92 130 166 209 279 339 386
#     4  11  21  38  64  86 133 165 216 273 329 394
#     4  12  25  38  64  94 133 178 230 266 324 409
#     4  12  22  40  64  94 128 164 221 279 328 400
#     4  11  23  38  64  93 126 170 220 271 343 389
#     4  12  22  39  63  90 124 171 217 263 324 401
#
# _framework density 19.849509999999999
#
# number of rings (size 3 to 8) (size 9 to 14) (size 15 to 20)
#    0.000    0.625    5.000    4.500    3.500    0.000 
#    0.000    0.000    0.000    1.500    0.000    0.000 
#    0.000    0.000    0.000    0.000    0.000    0.000 
#
# Total GULP energy -178324.641276 kJ/mol
# GULP energy per Si atom -5572.645040 kJ/mol
# Density = 1.980433 g / cm^3
# Si number density = 19.849510 Si / 1000 Ang^3
#
#
#
# Elastic Constant Matrix: (Units=GPa)
#
#
# Indices 1 2 3 4 5 6 
#
# 1 32.3503 24.9783 15.9478 0.0000 0.0000 0.0000
# 2 24.9783 99.7431 42.0931 0.0000 0.0000 0.0000
# 3 15.9478 42.0931 109.4537 0.0000 0.0000 0.0000
# 4 0.0000 0.0000 0.0000 37.3348 0.0000 0.0000
# 5 0.0000 0.0000 0.0000 0.0000 28.3904 0.0000
# 6 0.0000 0.0000 0.0000 0.0000 0.0000 58.2461
#
#
#
# Elastic Compliance Matrix: (Units=1/GPa)
#
#
# Indices 1 2 3 4 5 6 
#
# 1 0.038795 -0.008750 -0.002288 0.000000 0.000000 0.000000
# 2 -0.008750 0.013942 -0.004087 0.000000 0.000000 0.000000
# 3 -0.002288 -0.004087 0.011041 0.000000 0.000000 0.000000
# 4 0.000000 0.000000 0.000000 0.026785 0.000000 0.000000
# 5 0.000000 0.000000 0.000000 0.000000 0.035223 0.000000
# 6 0.000000 0.000000 0.000000 0.000000 0.000000 0.017169
#
#
# Mechanical properties :
#
#
# Convention : Reuss Voigt Hill
#
# Bulk Modulus (GPa) = 29.82435 45.28731 37.55583
# Shear Modulus (GPa) = 27.11793 35.36277 31.24035
#
# Velocity S-wave (km/s) = 3.70019 4.22541 3.97149
# Velocity P-wave (km/s) = 5.77175 6.83157 6.32390
#
# Compressibility (1/GPa) = 0.03352965
#
# Stress axis : x y z
#
# Youngs Moduli (GPa) = 25.77625 71.72754 90.56960
#
# Poissons Ratio (x) = 0.62762 0.20719
# Poissons Ratio (y) = 0.22554 0.37013
# Poissons Ratio (z) = 0.05897 0.29313
#
# Static dielectric constant tensor:
#      x y z
#    x 1.695220 0.000000 0.000000 
#    y 0.000000 1.856960 0.000000 
#    z 0.000000 0.000000 1.747640 
# 
# From -- ./inp_files/27181.got.cif
#   From: 2010.05.17/outbox.cif.g08.bks.cpg/sg23_14_cif.got.tgz:27181.got - 2010.06.04 12:02:01.
