data_PCOD9332366
_publ_section_title
;
Structure prediction by ZEFSAII (Michael W. Deem and Ramdas Pophale) SiO2 
 PCOD9332366
Probable space group: I 2 2 2
;
_chemical_formula_sum "Si O2"
_cell_formula_units_Z 56
_cell_length_a 8.518329
_cell_length_b 19.830143
_cell_length_c 13.855397
_cell_angle_alpha 90.000000
_cell_angle_beta 90.000000
_cell_angle_gamma 90.000000
_cell_volume 2340.449258
_symmetry_space_group_name_H-M "I 2 2 2"
_symmetry_group_IT_number 23
_symmetry_cell_setting 'orthorhombic'
loop_
_space_group_symop_operation_xyz
x,y,z
-x,-y,z
x,-y,-z
-x,y,-z
1/2+x,1/2+y,1/2+z
1/2-x,1/2-y,1/2+z
1/2+x,1/2-y,1/2-z
1/2-x,1/2+y,1/2-z
loop_
_atom_site_type_symbol
_atom_site_label
_atom_site_fract_x
_atom_site_fract_y
_atom_site_fract_z
Si Si1 0.357127 0.197239 0.568033
Si Si2 0.281049 0.000000 0.000000
Si Si3 0.692950 0.218072 0.080762
Si Si4 0.377936 0.618950 0.704333
Si Si5 0.136447 0.792912 0.763722
Si Si6 0.399617 0.877346 0.864216
Si Si7 0.918325 0.430054 0.821560
Si Si8 0.000000 0.000000 0.861929
O O1 0.500000 0.218534 0.500000
O O2 0.215671 0.237000 0.515028
O O3 0.383084 0.225024 0.675298
O O4 0.375155 0.117618 0.587490
O O5 0.367501 0.060885 0.058752
O O6 0.153003 0.977201 0.079229
O O7 0.820157 0.159660 0.108705
O O8 0.714807 0.273478 0.164233
O O9 0.533312 0.174906 0.098487
O O10 0.465260 0.678072 0.762402
O O11 0.243739 0.577391 0.759508
O O12 0.522866 0.566874 0.696254
O O13 0.243122 0.837237 0.835562
O O14 0.461250 0.906085 0.762604
O O15 0.000000 0.500000 0.852338
#
# Coordination Sequence:
#
# PCOD9332366 Si02
#       8
#     8   4   8   8   8   8   8   4
#     4  12  25  46  79 110 151 207 267 328 405 489
#     4  11  24  42  67 108 156 208 256 306 392 484
#     4  11  25  45  76 116 152 199 266 330 404 477
#     4  11  23  46  73 105 153 207 248 318 398 479
#     4  12  23  47  76 114 158 199 257 329 410 480
#     4  11  24  46  74 109 162 204 254 330 400 490
#     4  11  26  50  75 106 148 207 270 326 391 471
#     4  11  24  42  66 102 151 210 250 297 386 492
#
# _framework density 23.927030999999999
#
# number of rings (size 3 to 8) (size 9 to 14) (size 15 to 20)
#    0.000    0.714    5.714    2.571    2.000    0.857 
#    5.143    5.714    0.000    0.000    0.000    0.000 
#    0.000    0.000    0.000    0.000    0.000    0.000 
#
# Total GULP energy -155898.627250 kJ/mol
# GULP energy per Si atom -5567.808116 kJ/mol
# Density = 2.387257 g / cm^3
# Si number density = 23.927031 Si / 1000 Ang^3
#
#
#
# Elastic Constant Matrix: (Units=GPa)
#
#
# Indices 1 2 3 4 5 6 
#
# 1 74.7357 67.8496 13.1992 0.0000 0.0000 0.0000
# 2 67.8496 160.1698 41.3041 0.0000 0.0000 0.0000
# 3 13.1992 41.3041 88.0975 0.0000 0.0000 0.0000
# 4 0.0000 0.0000 0.0000 43.2212 0.0000 0.0000
# 5 0.0000 0.0000 0.0000 0.0000 30.9578 0.0000
# 6 0.0000 0.0000 0.0000 0.0000 0.0000 48.1400
#
#
#
# Elastic Compliance Matrix: (Units=1/GPa)
#
#
# Indices 1 2 3 4 5 6 
#
# 1 0.021855 -0.009571 0.001213 0.000000 0.000000 0.000000
# 2 -0.009571 0.011293 -0.003861 0.000000 0.000000 0.000000
# 3 0.001213 -0.003861 0.012979 0.000000 0.000000 0.000000
# 4 0.000000 0.000000 0.000000 0.023137 0.000000 0.000000
# 5 0.000000 0.000000 0.000000 0.000000 0.032302 0.000000
# 6 0.000000 0.000000 0.000000 0.000000 0.000000 0.020773
#
#
# Mechanical properties :
#
#
# Convention : Reuss Voigt Hill
#
# Bulk Modulus (GPa) = 46.10373 63.07875 54.59124
# Shear Modulus (GPa) = 32.46591 37.84048 35.15320
#
# Velocity S-wave (km/s) = 3.68757 3.98112 3.83715
# Velocity P-wave (km/s) = 6.11892 6.89584 6.51896
#
# Compressibility (1/GPa) = 0.02169022
#
# Stress axis : x y z
#
# Youngs Moduli (GPa) = 45.75545 88.54791 77.04462
#
# Poissons Ratio (x) = 0.84748 -0.09344
# Poissons Ratio (y) = 0.43792 0.29746
# Poissons Ratio (z) = -0.05549 0.34187
#
# Static dielectric constant tensor:
#      x y z
#    x 2.070840 0.000000 0.000000 
#    y 0.000000 2.294160 0.000000 
#    z 0.000000 0.000000 2.025430 
# 
# From -- ./inp_files/20237.got.cif
#   From: 2010.05.17/outbox.cif.g08.bks.cpg/sg23_11_cif.got.tgz:20237.got - 2010.06.04 12:02:01.
