data_PCOD9332178
_publ_section_title
;
Structure prediction by ZEFSAII (Michael W. Deem and Ramdas Pophale) SiO2 
 PCOD9332178
Probable space group: I 2 2 2
;
_chemical_formula_sum "Si O2"
_cell_formula_units_Z 56
_cell_length_a 5.510973
_cell_length_b 32.571236
_cell_length_c 14.056378
_cell_angle_alpha 90.000000
_cell_angle_beta 90.000000
_cell_angle_gamma 90.000000
_cell_volume 2523.108636
_symmetry_space_group_name_H-M "I 2 2 2"
_symmetry_group_IT_number 23
_symmetry_cell_setting 'orthorhombic'
loop_
_space_group_symop_operation_xyz
x,y,z
-x,-y,z
x,-y,-z
-x,y,-z
1/2+x,1/2+y,1/2+z
1/2-x,1/2-y,1/2+z
1/2+x,1/2-y,1/2-z
1/2-x,1/2+y,1/2-z
loop_
_atom_site_type_symbol
_atom_site_label
_atom_site_fract_x
_atom_site_fract_y
_atom_site_fract_z
Si Si1 0.740471 0.123258 0.258746
Si Si2 0.796203 0.224779 0.746445
Si Si3 0.376685 0.413740 0.906994
Si Si4 0.749792 0.428437 0.445002
Si Si5 0.394030 0.168815 0.404435
Si Si6 0.899583 0.454744 0.253085
Si Si7 0.911583 0.839451 0.101080
O O1 0.583918 0.155060 0.322140
O O2 0.582644 0.083526 0.230650
O O3 0.939977 0.104895 0.329850
O O4 0.868945 0.144025 0.168398
O O5 0.553534 0.252272 0.744444
O O6 0.792956 0.197931 0.650007
O O7 0.777077 0.193822 0.835363
O O8 0.224757 0.373866 0.938245
O O9 0.218059 0.445468 0.848414
O O10 0.500000 0.431606 0.000000
O O11 0.500000 0.436732 0.500000
O O12 0.727559 0.450830 0.344074
O O13 0.746801 0.379544 0.423611
O O14 0.000000 0.439420 0.500000
O O15 0.500000 0.188525 0.500000
O O16 0.000000 0.500000 0.253097
O O17 0.000000 0.822628 0.000000
#
# Coordination Sequence:
#
# PCOD9332178 Si02
#       7
#     8   8   8   8   8   8   8
#     4  11  21  45  71 103 138 182 257 305 355 435
#     4  12  28  48  69 107 154 187 233 301 376 453
#     4  11  22  42  75 104 130 191 257 307 356 434
#     4  11  24  45  74 108 140 188 256 302 353 437
#     4  11  23  43  76 100 132 189 247 305 358 430
#     4  11  25  43  66 106 156 196 234 311 388 440
#     4  11  23  47  76 103 138 194 243 302 362 433
#
# _framework density 22.194841
#
# number of rings (size 3 to 8) (size 9 to 14) (size 15 to 20)
#    0.000    0.857    4.286    3.429    0.000    3.714 
#    0.000    9.286    0.000    0.000    0.000    0.000 
#    0.000    0.000    0.000    0.000    0.000    0.000 
#
# Total GULP energy -156641.399879 kJ/mol
# GULP energy per Si atom -5594.335710 kJ/mol
# Density = 2.214432 g / cm^3
# Si number density = 22.194841 Si / 1000 Ang^3
#
#
#
# Elastic Constant Matrix: (Units=GPa)
#
#
# Indices 1 2 3 4 5 6 
#
# 1 81.3429 18.3424 20.7846 0.0000 0.0000 0.0000
# 2 18.3424 57.6860 31.9064 -0.0001 0.0000 0.0000
# 3 20.7846 31.9064 121.6864 -0.0001 0.0000 0.0000
# 4 0.0000 -0.0001 -0.0001 5.7423 0.0000 0.0000
# 5 0.0000 0.0000 0.0000 0.0000 50.4465 0.0000
# 6 0.0000 0.0000 0.0000 0.0000 0.0000 1.4813
#
#
#
# Elastic Compliance Matrix: (Units=1/GPa)
#
#
# Indices 1 2 3 4 5 6 
#
# 1 0.013437 -0.003512 -0.001374 0.000000 0.000000 0.000000
# 2 -0.003512 0.021194 -0.004957 0.000000 0.000000 0.000000
# 3 -0.001374 -0.004957 0.009752 0.000000 0.000000 0.000000
# 4 0.000000 0.000000 0.000000 0.174146 0.000000 -0.000001
# 5 0.000000 0.000000 0.000000 0.000000 0.019823 0.000000
# 6 0.000000 0.000000 0.000000 -0.000001 0.000000 0.675062
#
#
# Mechanical properties :
#
#
# Convention : Reuss Voigt Hill
#
# Bulk Modulus (GPa) = 40.49304 44.75358 42.62331
# Shear Modulus (GPa) = 5.31161 24.17949 14.74555
#
# Velocity S-wave (km/s) = 1.54867 3.30422 2.58033
# Velocity P-wave (km/s) = 4.63484 5.89617 5.30314
#
# Compressibility (1/GPa) = 0.02469560
#
# Stress axis : x y z
#
# Youngs Moduli (GPa) = 74.42257 47.18336 102.53970
#
# Poissons Ratio (x) = 0.16573 0.14090
# Poissons Ratio (y) = 0.26141 0.50830
# Poissons Ratio (z) = 0.10226 0.23389
#
# Static dielectric constant tensor:
#      x y z
#    x 1.894210 0.000000 0.000000 
#    y 0.000000 1.792810 0.000000 
#    z 0.000000 0.000000 1.846160 
# 
# From -- ./inp_files/19319.got.cif
#   From: 2010.05.17/outbox.cif.g08.bks.cpg/sg23_10_cif.got.tgz:19319.got - 2010.06.04 12:02:01.
