data_PCOD9332721
_publ_section_title
;
Structure prediction by ZEFSAII (Michael W. Deem and Ramdas Pophale) SiO2 
 PCOD9332721
Probable space group: I 21 21 21
;
_chemical_formula_sum "Si O2"
_cell_formula_units_Z 64
_cell_length_a 8.165210
_cell_length_b 27.961486
_cell_length_c 21.020145
_cell_angle_alpha 90.000000
_cell_angle_beta 90.000000
_cell_angle_gamma 90.000000
_cell_volume 4799.138840
_symmetry_space_group_name_H-M "I 21 21 21"
_symmetry_group_IT_number 24
_symmetry_cell_setting 'orthorhombic'
loop_
_space_group_symop_operation_xyz
x,y,z
-x,1/2-y,z
x,-y,1/2-z
1/2-x,y,-z
1/2+x,1/2+y,1/2+z
1/2-x,-y,1/2+z
1/2+x,1/2-y,-z
-x,1/2+y,1/2-z
loop_
_atom_site_type_symbol
_atom_site_label
_atom_site_fract_x
_atom_site_fract_y
_atom_site_fract_z
Si Si1 0.063398 0.901936 0.621301
Si Si2 0.563399 0.401936 0.878699
Si Si3 0.250000 0.466003 0.313580
Si Si4 0.072387 0.942811 0.762790
Si Si5 0.054979 0.303186 0.075528
Si Si6 0.072387 0.942811 0.237210
Si Si7 0.250000 0.541062 0.427533
Si Si8 0.054979 0.696814 0.575528
O O1 0.914712 0.927844 0.584488
O O2 0.036220 0.845611 0.611668
O O3 0.250000 0.914784 0.601208
O O4 0.047275 0.917670 0.694819
O O5 0.536220 0.345611 0.888332
O O6 0.547275 0.417670 0.805181
O O7 0.414712 0.427844 0.915512
O O8 0.250000 0.500000 0.250000
O O9 0.416035 0.435988 0.307290
O O10 0.250000 0.499411 0.374996
O O11 0.083965 0.435988 0.307290
O O12 0.250000 0.928230 0.788710
O O13 0.081285 0.000000 0.750000
O O14 0.250000 0.308094 0.084139
O O15 0.000000 0.250000 0.094231
O O16 0.019491 0.308516 1.000000
O O17 0.081285 0.000000 0.250000
O O18 0.250000 0.524026 0.500000
O O19 0.000000 0.750000 0.594231
#
# Coordination Sequence:
#
# PCOD9332721 Si02
#       8
#     8   8   8   8   8   8   8   8
#     4  11  20  31  46  62  81 107 142 185 219 249
#     4  11  20  31  46  62  81 107 142 185 219 249
#     4  10  16  30  46  58  82 110 132 172 210 254
#     4   9  16  27  45  63  77 100 136 175 208 254
#     4  10  20  32  43  56  79 110 143 179 216 251
#     4   9  16  27  45  63  77 100 136 175 208 254
#     4  12  22  30  42  66  88 108 142 182 213 248
#     4  10  20  32  43  56  79 110 143 179 216 251
#
# _framework density 13.335725999999999
#
# number of rings (size 3 to 8) (size 9 to 14) (size 15 to 20)
#    0.000    1.750    6.250    1.500    0.000    3.000 
#    0.000    0.000    0.000    0.000    0.000    0.000 
#    0.000    0.000    0.000    0.000    0.000    1.250 
#
# Total GULP energy -178228.022769 kJ/mol
# GULP energy per Si atom -5569.625712 kJ/mol
# Density = 1.330537 g / cm^3
# Si number density = 13.335726 Si / 1000 Ang^3
#
#
#
# Elastic Constant Matrix: (Units=GPa)
#
#
# Indices 1 2 3 4 5 6 
#
# 1 118.5107 27.5533 37.4919 0.0000 0.0000 0.0000
# 2 27.5533 53.8718 39.4998 0.0000 0.0000 0.0000
# 3 37.4919 39.4998 60.1569 0.0000 0.0000 0.0000
# 4 0.0000 0.0000 0.0000 23.1245 0.0000 0.0000
# 5 0.0000 0.0000 0.0000 0.0000 8.1698 0.0000
# 6 0.0000 0.0000 0.0000 0.0000 0.0000 17.5631
#
#
#
# Elastic Compliance Matrix: (Units=1/GPa)
#
#
# Indices 1 2 3 4 5 6 
#
# 1 0.010545 -0.001108 -0.005844 0.000000 0.000000 0.000000
# 2 -0.001108 0.035913 -0.022890 0.000000 0.000000 0.000000
# 3 -0.005844 -0.022890 0.035296 0.000000 0.000000 0.000000
# 4 0.000000 0.000000 0.000000 0.043244 0.000000 0.000000
# 5 0.000000 0.000000 0.000000 0.000000 0.122402 0.000000
# 6 0.000000 0.000000 0.000000 0.000000 0.000000 0.056938
#
#
# Mechanical properties :
#
#
# Convention : Reuss Voigt Hill
#
# Bulk Modulus (GPa) = 45.31459 49.06995 47.19227
# Shear Modulus (GPa) = 13.46339 18.30445 15.88392
#
# Velocity S-wave (km/s) = 3.18082 3.70886 3.45495
# Velocity P-wave (km/s) = 6.89520 7.43079 7.16800
#
# Compressibility (1/GPa) = 0.02206795
#
# Stress axis : x y z
#
# Youngs Moduli (GPa) = 94.83596 27.84509 28.33221
#
# Poissons Ratio (x) = 0.03085 0.16558
# Poissons Ratio (y) = 0.10509 0.64853
# Poissons Ratio (z) = 0.55423 0.63738
#
# Static dielectric constant tensor:
#      x y z
#    x 1.523480 0.000000 0.000000 
#    y 0.000000 1.416560 0.000000 
#    z 0.000000 0.000000 1.613910 
# 
# From -- ./inp_files/33039.got.cif
#   From: 2010.05.17/outbox.cif.g08.bks.cpg/sg24_17_cif.got.tgz:33039.got - 2010.06.04 00:33:39.
