data_PCOD9332965
_publ_section_title
;
Structure prediction by ZEFSAII (Michael W. Deem and Ramdas Pophale) SiO2 
 PCOD9332965
Probable space group: I 21 21 21
;
_chemical_formula_sum "Si O2"
_cell_formula_units_Z 64
_cell_length_a 8.379119
_cell_length_b 28.876459
_cell_length_c 11.975633
_cell_angle_alpha 90.000000
_cell_angle_beta 90.000000
_cell_angle_gamma 90.000000
_cell_volume 2897.615613
_symmetry_space_group_name_H-M "I 21 21 21"
_symmetry_group_IT_number 24
_symmetry_cell_setting 'orthorhombic'
loop_
_space_group_symop_operation_xyz
x,y,z
-x,1/2-y,z
x,-y,1/2-z
1/2-x,y,-z
1/2+x,1/2+y,1/2+z
1/2-x,-y,1/2+z
1/2+x,1/2-y,-z
-x,1/2+y,1/2-z
loop_
_atom_site_type_symbol
_atom_site_label
_atom_site_fract_x
_atom_site_fract_y
_atom_site_fract_z
Si Si1 0.996672 0.525919 0.058873
Si Si2 0.568808 0.073200 0.961129
Si Si3 0.650487 0.958774 0.165354
Si Si4 0.833353 0.775196 0.731768
Si Si5 0.008823 0.325222 0.964468
Si Si6 0.259546 0.636984 0.867455
Si Si7 0.684889 0.312608 0.828254
Si Si8 0.569415 0.600280 0.777143
O O1 0.961591 0.472762 0.029005
O O2 0.172019 0.527112 0.119550
O O3 0.890570 0.556345 0.143677
O O4 0.028265 0.546091 0.937038
O O5 0.530815 0.084382 0.831924
O O6 0.750000 0.061744 0.000000
O O7 0.529680 0.119429 0.029858
O O8 0.674538 0.905461 0.199305
O O9 0.605704 0.000000 0.250000
O O10 0.802641 0.815607 0.818763
O O11 0.701000 0.735222 0.736717
O O12 0.000000 0.750000 0.757412
O O13 0.857304 0.799246 0.608650
O O14 0.844700 0.312924 0.902717
O O15 0.971632 0.311866 0.092776
O O16 0.446125 0.631271 0.845459
O O17 0.250000 0.631247 0.000000
O O18 0.694583 0.361853 0.764778
#
# Coordination Sequence:
#
# PCOD9332965 Si02
#       8
#     8   8   8   8   8   8   8   8
#     4  10  18  30  51  90 119 156 191 242 307 365
#     4  11  19  30  55  98 123 160 201 248 323 383
#     4  10  18  31  54  82 127 154 177 244 314 368
#     4  10  22  42  60  88 119 161 207 266 321 375
#     4   9  20  39  60  92 126 159 202 267 322 383
#     4  11  21  39  56  89 124 154 206 258 304 367
#     4   9  20  42  59  87 120 171 207 253 322 386
#     4  10  20  36  56  86 121 166 200 253 302 379
#
# _framework density 22.087126999999999
#
# number of rings (size 3 to 8) (size 9 to 14) (size 15 to 20)
#    0.000    2.000    3.750    2.625    1.750    0.500 
#   33.750    0.000    0.000    0.000   42.250    0.000 
#    0.000    0.000    0.000    0.000    0.000    0.000 
#
# Total GULP energy -178312.867176 kJ/mol
# GULP energy per Si atom -5572.277099 kJ/mol
# Density = 2.203686 g / cm^3
# Si number density = 22.087127 Si / 1000 Ang^3
#
#
#
# Elastic Constant Matrix: (Units=GPa)
#
#
# Indices 1 2 3 4 5 6 
#
# 1 27.1414 16.1134 4.5447 0.0000 0.0000 0.0000
# 2 16.1134 182.9570 36.9206 0.0000 0.0000 0.0000
# 3 4.5447 36.9206 53.5703 -0.0002 0.0000 0.0000
# 4 0.0000 0.0000 -0.0002 42.0647 0.0000 0.0000
# 5 0.0000 0.0000 0.0000 0.0000 6.9239 0.0000
# 6 0.0000 0.0000 0.0000 0.0000 0.0000 36.0137
#
#
#
# Elastic Compliance Matrix: (Units=1/GPa)
#
#
# Indices 1 2 3 4 5 6 
#
# 1 0.038932 -0.003209 -0.001092 0.000000 0.000000 0.000000
# 2 -0.003209 0.006613 -0.004286 0.000000 0.000000 0.000000
# 3 -0.001092 -0.004286 0.021713 0.000000 0.000000 0.000000
# 4 0.000000 0.000000 0.000000 0.023773 0.000000 0.000000
# 5 0.000000 0.000000 0.000000 0.000000 0.144427 0.000000
# 6 0.000000 0.000000 0.000000 0.000000 0.000000 0.027767
#
#
# Mechanical properties :
#
#
# Convention : Reuss Voigt Hill
#
# Bulk Modulus (GPa) = 19.96530 42.09179 31.02855
# Shear Modulus (GPa) = 16.82977 30.73979 23.78478
#
# Velocity S-wave (km/s) = 2.76338 3.73467 3.28512
# Velocity P-wave (km/s) = 4.38642 6.13967 5.33555
#
# Compressibility (1/GPa) = 0.05008689
#
# Stress axis : x y z
#
# Youngs Moduli (GPa) = 25.68598 151.21335 46.05478
#
# Poissons Ratio (x) = 0.48517 0.05027
# Poissons Ratio (y) = 0.08241 0.19737
# Poissons Ratio (z) = 0.02804 0.64804
#
# Static dielectric constant tensor:
#      x y z
#    x 1.866260 0.000000 0.000000 
#    y 0.000000 1.886720 0.000000 
#    z 0.000000 0.000000 1.880970 
# 
# From -- ./inp_files/18924.got.cif
#   From: 2010.05.17/outbox.cif.g08.bks.cpg/sg24_10_cif.got.tgz:18924.got - 2010.06.04 00:33:39.
