data_PCOD9332752
_publ_section_title
;
Structure prediction by ZEFSAII (Michael W. Deem and Ramdas Pophale) SiO2 
 PCOD9332752
Probable space group: I 21 21 21
;
_chemical_formula_sum "Si O2"
_cell_formula_units_Z 32
_cell_length_a 20.454596
_cell_length_b 13.369262
_cell_length_c 5.367136
_cell_angle_alpha 90.000000
_cell_angle_beta 90.000000
_cell_angle_gamma 90.000000
_cell_volume 1467.712323
_symmetry_space_group_name_H-M "I 21 21 21"
_symmetry_group_IT_number 24
_symmetry_cell_setting 'orthorhombic'
loop_
_space_group_symop_operation_xyz
x,y,z
-x,1/2-y,z
x,-y,1/2-z
1/2-x,y,-z
1/2+x,1/2+y,1/2+z
1/2-x,-y,1/2+z
1/2+x,1/2-y,-z
-x,1/2+y,1/2-z
loop_
_atom_site_type_symbol
_atom_site_label
_atom_site_fract_x
_atom_site_fract_y
_atom_site_fract_z
Si Si1 0.321856 0.716898 0.405042
Si Si2 0.000341 0.626966 0.118946
Si Si3 0.850311 0.902239 0.104877
Si Si4 0.447694 0.156441 0.130432
O O1 0.250000 0.746408 0.500000
O O2 0.349823 0.671342 0.660875
O O3 0.374368 0.802133 0.354325
O O4 0.321169 0.642606 0.157201
O O5 0.969341 0.600320 0.382239
O O6 0.000000 0.750000 0.127942
O O7 0.072478 0.585446 0.059313
O O8 0.957587 0.599526 0.884814
O O9 0.821211 0.000000 0.250000
O O10 0.500000 0.250000 0.138435
#
# Coordination Sequence:
#
# PCOD9332752 Si02
#       4
#     8   8   8   8
#     4  12  23  36  52  77 108 149 186 217 259 327
#     4  10  16  32  57  73  93 132 182 228 279 297
#     4  12  23  36  52  77 108 149 186 217 259 327
#     4  10  16  32  57  73  93 132 182 228 279 297
#
# _framework density 21.80264
#
# number of rings (size 3 to 8) (size 9 to 14) (size 15 to 20)
#    0.000    1.000   10.000    1.500    0.000    2.000 
#    0.000    0.000    0.000    0.000    0.000    0.000 
#    0.000    4.000    0.000    0.000    0.000    0.000 
#
# Total GULP energy -89088.956188 kJ/mol
# GULP energy per Si atom -5568.059762 kJ/mol
# Density = 2.175302 g / cm^3
# Si number density = 21.802640 Si / 1000 Ang^3
#
#
#
# Elastic Constant Matrix: (Units=GPa)
#
#
# Indices 1 2 3 4 5 6 
#
# 1 118.3682 22.5573 63.8504 0.0000 0.0000 0.0000
# 2 22.5573 49.1121 31.2605 0.0000 0.0000 0.0000
# 3 63.8504 31.2605 220.8817 0.0000 0.0000 0.0000
# 4 0.0000 0.0000 0.0000 -38.7892 0.0000 0.0000
# 5 0.0000 0.0000 0.0000 0.0000 45.7060 0.0000
# 6 0.0000 0.0000 0.0000 0.0000 0.0000 9.5827
#
#
#
# Elastic Compliance Matrix: (Units=1/GPa)
#
#
# Indices 1 2 3 4 5 6 
#
# 1 0.010436 -0.003158 -0.002570 0.000000 0.000000 0.000000
# 2 -0.003158 0.023333 -0.002389 0.000000 0.000000 0.000000
# 3 -0.002570 -0.002389 0.005608 0.000000 0.000000 0.000000
# 4 0.000000 0.000000 0.000000 -0.025780 0.000000 0.000000
# 5 0.000000 0.000000 0.000000 0.000000 0.021879 0.000000
# 6 0.000000 0.000000 0.000000 0.000000 0.000000 0.104354
#
#
# Mechanical properties :
#
#
# Convention : Reuss Voigt Hill
#
# Bulk Modulus (GPa) = 43.20873 69.29983 56.25428
# Shear Modulus (GPa) = 30.52899 21.34615 25.93757
#
# Velocity S-wave (km/s) = 3.74604 3.13239 3.45288
# Velocity P-wave (km/s) = 6.21060 6.70348 6.46174
#
# Compressibility (1/GPa) = 0.02314347
#
# Stress axis : x y z
#
# Youngs Moduli (GPa) = 95.82009 42.85819 178.30507
#
# Poissons Ratio (x) = 0.13533 0.45823
# Poissons Ratio (y) = 0.30256 0.42605
# Poissons Ratio (z) = 0.24625 0.10241
#
# Static dielectric constant tensor:
#      x y z
#    x 1.881710 0.000000 0.000000 
#    y 0.000000 1.939230 0.000000 
#    z 0.000000 0.000000 1.873240 
# 
# From -- ./inp_files/3070.got.cif
#   From: 2010.05.17/outbox.cif.g08.bks.cpg/sg24_2_cif.got.tgz:3070.got - 2010.06.04 00:33:39.
