data_PCOD9332588
_publ_section_title
;
Structure prediction by ZEFSAII (Michael W. Deem and Ramdas Pophale) SiO2 
 PCOD9332588
Probable space group: I 2 2 2
;
_chemical_formula_sum "Si O2"
_cell_formula_units_Z 32
_cell_length_a 24.502776
_cell_length_b 11.601527
_cell_length_c 4.835170
_cell_angle_alpha 90.000000
_cell_angle_beta 90.000000
_cell_angle_gamma 90.000000
_cell_volume 1374.491926
_symmetry_space_group_name_H-M "I 2 2 2"
_symmetry_group_IT_number 23
_symmetry_cell_setting 'orthorhombic'
loop_
_space_group_symop_operation_xyz
x,y,z
-x,-y,z
x,-y,-z
-x,y,-z
1/2+x,1/2+y,1/2+z
1/2-x,1/2-y,1/2+z
1/2+x,1/2-y,1/2-z
1/2-x,1/2+y,1/2-z
loop_
_atom_site_type_symbol
_atom_site_label
_atom_site_fract_x
_atom_site_fract_y
_atom_site_fract_z
Si Si1 0.386947 0.500000 0.500000
Si Si2 0.764787 0.680019 0.664338
Si Si3 0.808480 0.000000 0.500000
Si Si4 0.438434 0.253375 0.602479
Si Si5 0.110020 0.628335 0.398806
O O1 0.349797 0.538160 0.759010
O O2 0.421027 0.386232 0.573124
O O3 0.732946 0.717974 0.390178
O O4 0.731082 0.585892 0.834390
O O5 0.824920 0.644318 0.570323
O O6 0.500000 0.239532 0.500000
O O7 0.403335 0.164985 0.413548
O O8 0.424705 0.215151 0.912518
O O9 0.095818 0.500000 0.500000
#
# Coordination Sequence:
#
# PCOD9332588 Si02
#       5
#     4   8   4   8   8
#     4  12  25  48  72 112 142 182 253 302 362 442
#     4  12  26  44  69 104 148 194 236 287 355 437
#     4  12  26  42  71 106 143 190 228 280 372 426
#     4  12  27  49  76 103 141 193 245 312 368 416
#     4  12  28  47  71 108 148 187 246 297 360 443
#
# _framework density 23.281330000000001
#
# number of rings (size 3 to 8) (size 9 to 14) (size 15 to 20)
#    0.000    0.000    0.000   10.875    8.750    3.000 
#    0.000    3.750    0.000    0.000    0.000    0.000 
#    0.000    0.000    0.000    0.000    0.000    0.000 
#
# Total GULP energy -89627.981906 kJ/mol
# GULP energy per Si atom -5601.748869 kJ/mol
# Density = 2.322834 g / cm^3
# Si number density = 23.281330 Si / 1000 Ang^3
#
#
#
# Elastic Constant Matrix: (Units=GPa)
#
#
# Indices 1 2 3 4 5 6 
#
# 1 97.1173 22.0546 2.9244 0.0000 0.0000 0.0000
# 2 22.0546 99.3856 -7.6885 0.0000 0.0000 0.0000
# 3 2.9244 -7.6885 90.9151 0.0000 0.0000 0.0000
# 4 0.0000 0.0000 0.0000 38.6607 0.0000 0.0000
# 5 0.0000 0.0000 0.0000 0.0000 -13.9948 0.0000
# 6 0.0000 0.0000 0.0000 0.0000 0.0000 28.7999
#
#
#
# Elastic Compliance Matrix: (Units=1/GPa)
#
#
# Indices 1 2 3 4 5 6 
#
# 1 0.010871 -0.002456 -0.000557 0.000000 0.000000 0.000000
# 2 -0.002456 0.010683 0.000982 0.000000 0.000000 0.000000
# 3 -0.000557 0.000982 0.011100 0.000000 0.000000 0.000000
# 4 0.000000 0.000000 0.000000 0.025866 0.000000 0.000000
# 5 0.000000 0.000000 0.000000 0.000000 -0.071455 0.000000
# 6 0.000000 0.000000 0.000000 0.000000 0.000000 0.034722
#
#
# Mechanical properties :
#
#
# Convention : Reuss Voigt Hill
#
# Bulk Modulus (GPa) = 34.97327 35.77767 35.37547
# Shear Modulus (GPa) = 141.32511 28.70168 85.01340
#
# Velocity S-wave (km/s) = 7.79968 3.51496 6.04938
# Velocity P-wave (km/s) = 9.80653 5.64572 8.00132
#
# Compressibility (1/GPa) = 0.02859326
#
# Stress axis : x y z
#
# Youngs Moduli (GPa) = 91.98581 93.60909 90.08781
#
# Poissons Ratio (x) = 0.22986 0.05021
# Poissons Ratio (y) = 0.22588 -0.08850
# Poissons Ratio (z) = 0.05127 -0.09196
#
# Static dielectric constant tensor:
#      x y z
#    x 1.809990 0.000000 0.000000 
#    y 0.000000 2.038330 0.000000 
#    z 0.000000 0.000000 1.806050 
# 
# From -- ./inp_files/4253.got.cif
#   From: 2010.05.17/outbox.cif.g08.bks.cpg/sg23_3_cif.got.tgz:4253.got - 2010.06.04 12:02:01.
