data_PCOD9332426
_publ_section_title
;
Structure prediction by ZEFSAII (Michael W. Deem and Ramdas Pophale) SiO2 
 PCOD9332426
Probable space group: I 2 2 2
;
_chemical_formula_sum "Si O2"
_cell_formula_units_Z 28
_cell_length_a 5.084633
_cell_length_b 18.664636
_cell_length_c 11.080913
_cell_angle_alpha 90.000000
_cell_angle_beta 90.000000
_cell_angle_gamma 90.000000
_cell_volume 1051.609938
_symmetry_space_group_name_H-M "I 2 2 2"
_symmetry_group_IT_number 23
_symmetry_cell_setting 'orthorhombic'
loop_
_space_group_symop_operation_xyz
x,y,z
-x,-y,z
x,-y,-z
-x,y,-z
1/2+x,1/2+y,1/2+z
1/2-x,1/2-y,1/2+z
1/2+x,1/2-y,1/2-z
1/2-x,1/2+y,1/2-z
loop_
_atom_site_type_symbol
_atom_site_label
_atom_site_fract_x
_atom_site_fract_y
_atom_site_fract_z
Si Si1 0.500000 0.500000 0.197527
Si Si2 0.500000 0.000000 0.843084
Si Si3 0.000000 0.626394 0.500000
Si Si4 0.113251 0.789072 0.129037
Si Si5 0.861186 0.847124 0.373975
O O1 0.751008 0.530835 0.270832
O O2 0.363206 0.566957 0.130499
O O3 0.361560 0.935562 0.917960
O O4 0.097922 0.679525 0.604628
O O5 0.103622 0.703039 0.127895
O O6 0.997583 0.819918 0.250760
O O7 0.000000 0.815758 0.000000
O O8 0.000000 0.828344 0.500000
#
# Coordination Sequence:
#
# PCOD9332426 Si02
#       5
#     4   4   4   8   8
#     4  12  27  49  74 112 163 212 257 326 411 498
#     4  11  26  46  81 114 156 203 267 336 410 473
#     4  11  24  46  78 113 150 200 270 347 392 464
#     4  12  26  49  79 113 153 205 280 334 401 473
#     4  12  27  48  76 113 158 209 263 330 405 487
#
# _framework density 26.625845999999999
#
# number of rings (size 3 to 8) (size 9 to 14) (size 15 to 20)
#    0.000    0.286    4.286    3.857    4.000    3.429 
#    0.000    1.429    0.000    0.000    0.000    0.000 
#    0.000    0.000    0.000    0.000    0.000    0.000 
#
# Total GULP energy -78009.179496 kJ/mol
# GULP energy per Si atom -5572.084250 kJ/mol
# Density = 2.656524 g / cm^3
# Si number density = 26.625846 Si / 1000 Ang^3
#
#
#
# Elastic Constant Matrix: (Units=GPa)
#
#
# Indices 1 2 3 4 5 6 
#
# 1 44.0800 3.2238 29.3893 0.0000 0.0000 0.0000
# 2 3.2238 191.3286 39.6984 0.0000 0.0000 0.0000
# 3 29.3893 39.6984 180.9469 0.0000 0.0000 0.0000
# 4 0.0000 0.0000 0.0000 8.1472 0.0000 0.0000
# 5 0.0000 0.0000 0.0000 0.0000 34.8859 0.0000
# 6 0.0000 0.0000 0.0000 0.0000 0.0000 20.6663
#
#
#
# Elastic Compliance Matrix: (Units=1/GPa)
#
#
# Indices 1 2 3 4 5 6 
#
# 1 0.025478 0.000450 -0.004237 0.000000 0.000000 0.000000
# 2 0.000450 0.005484 -0.001276 0.000000 0.000000 0.000000
# 3 -0.004237 -0.001276 0.006495 0.000000 0.000000 0.000000
# 4 0.000000 0.000000 0.000000 0.122742 0.000000 0.000000
# 5 0.000000 0.000000 0.000000 0.000000 0.028665 0.000000
# 6 0.000000 0.000000 0.000000 0.000000 0.000000 0.048388
#
#
# Mechanical properties :
#
#
# Convention : Reuss Voigt Hill
#
# Bulk Modulus (GPa) = 36.58981 62.33095 49.46038
# Shear Modulus (GPa) = 19.49414 35.67614 27.58514
#
# Velocity S-wave (km/s) = 2.70876 3.66444 3.22223
# Velocity P-wave (km/s) = 4.85338 6.43156 5.69738
#
# Compressibility (1/GPa) = 0.02733002
#
# Stress axis : x y z
#
# Youngs Moduli (GPa) = 39.24968 182.35464 153.97403
#
# Poissons Ratio (x) = -0.08202 0.65236
# Poissons Ratio (y) = -0.01765 0.19650
# Poissons Ratio (z) = 0.16629 0.23271
#
# Static dielectric constant tensor:
#      x y z
#    x 4.154690 0.000000 0.000000 
#    y 0.000000 2.130380 0.000000 
#    z 0.000000 0.000000 2.226810 
# 
# From -- ./inp_files/1188.got.cif
#   From: 2010.05.17/outbox.cif.g08.bks.cpg/sg23_1_cif.got.tgz:1188.got - 2010.06.04 12:02:01.
