data_PCOD9332359
_publ_section_title
;
Structure prediction by ZEFSAII (Michael W. Deem and Ramdas Pophale) SiO2 
 PCOD9332359
Probable space group: I 2 2 2
;
_chemical_formula_sum "Si O2"
_cell_formula_units_Z 16
_cell_length_a 7.126130
_cell_length_b 9.150278
_cell_length_c 10.025956
_cell_angle_alpha 90.000000
_cell_angle_beta 90.000000
_cell_angle_gamma 90.000000
_cell_volume 653.753194
_symmetry_space_group_name_H-M "I 2 2 2"
_symmetry_group_IT_number 23
_symmetry_cell_setting 'orthorhombic'
loop_
_space_group_symop_operation_xyz
x,y,z
-x,-y,z
x,-y,-z
-x,y,-z
1/2+x,1/2+y,1/2+z
1/2-x,1/2-y,1/2+z
1/2+x,1/2-y,1/2-z
1/2-x,1/2+y,1/2-z
loop_
_atom_site_type_symbol
_atom_site_label
_atom_site_fract_x
_atom_site_fract_y
_atom_site_fract_z
Si Si1 0.219295 0.449817 0.644416
Si Si2 0.185113 0.115745 0.595008
O O1 0.284826 0.500000 0.500000
O O2 0.247934 0.275825 0.639778
O O3 0.318007 0.528381 0.766766
O O4 0.000000 0.500000 0.655446
O O5 0.000000 0.144283 0.500000
O O6 0.293471 0.000000 0.500000
#
# Coordination Sequence:
#
# PCOD9332359 Si02
#       2
#     8   8
#     4  11  23  45  75 110 155 200 254 311 375 454
#     4  11  24  44  74 110 154 198 251 311 376 449
#
# _framework density 24.474067999999999
#
# number of rings (size 3 to 8) (size 9 to 14) (size 15 to 20)
#    0.000    1.000    5.000    3.000    7.000    1.000 
#    0.000    5.000    0.000    0.000    0.000    0.000 
#    0.000    0.000    0.000    0.000    0.000    0.000 
#
# Total GULP energy -44599.819777 kJ/mol
# GULP energy per Si atom -5574.977472 kJ/mol
# Density = 2.441836 g / cm^3
# Si number density = 24.474068 Si / 1000 Ang^3
#
#
#
# Elastic Constant Matrix: (Units=GPa)
#
#
# Indices 1 2 3 4 5 6 
#
# 1 104.6217 22.9836 45.5255 0.0001 0.0000 -0.0001
# 2 22.9836 323.1848 134.2898 0.0005 0.0001 -0.0006
# 3 45.5255 134.2898 300.4348 0.0002 0.0001 -0.0001
# 4 0.0001 0.0005 0.0002 62.5278 0.0001 -0.0002
# 5 0.0000 0.0001 0.0001 0.0001 11.0446 -0.0001
# 6 -0.0001 -0.0006 -0.0001 -0.0002 -0.0001 -124.2257
#
#
#
# Elastic Compliance Matrix: (Units=1/GPa)
#
#
# Indices 1 2 3 4 5 6 
#
# 1 0.010236 -0.000102 -0.001505 0.000000 0.000000 0.000000
# 2 -0.000102 0.003801 -0.001683 0.000000 0.000000 0.000000
# 3 -0.001505 -0.001683 0.004309 0.000000 0.000000 0.000000
# 4 0.000000 0.000000 0.000000 0.015993 0.000000 0.000000
# 5 0.000000 0.000000 0.000000 0.000000 0.090542 0.000000
# 6 0.000000 0.000000 0.000000 0.000000 0.000000 -0.008050
#
#
# Mechanical properties :
#
#
# Convention : Reuss Voigt Hill
#
# Bulk Modulus (GPa) = 85.00877 125.98213 105.49545
# Shear Modulus (GPa) = 39.26678 24.89885 32.08282
#
# Velocity S-wave (km/s) = 4.00987 3.19306 3.62455
# Velocity P-wave (km/s) = 7.49989 8.07352 7.79199
#
# Compressibility (1/GPa) = 0.01176349
#
# Stress axis : x y z
#
# Youngs Moduli (GPa) = 97.69677 263.08830 232.06788
#
# Poissons Ratio (x) = 0.02696 0.34932
# Poissons Ratio (y) = 0.01001 0.39068
# Poissons Ratio (z) = 0.14706 0.44290
#
# Static dielectric constant tensor:
#      x y z
#    x 2.166170 0.000000 0.000000 
#    y 0.000000 1.939590 0.000000 
#    z 0.000000 0.000000 2.075380 
# 
# From -- ./inp_files/5821.got.cif
#   From: 2010.05.17/outbox.cif.g08.bks.cpg/sg23_3_cif.got.tgz:5821.got - 2010.06.04 12:02:01.
