data_PCOD9332867
_publ_section_title
;
Structure prediction by ZEFSAII (Michael W. Deem and Ramdas Pophale) SiO2 
 PCOD9332867
Probable space group: I 21 21 21
;
_chemical_formula_sum "Si O2"
_cell_formula_units_Z 40
_cell_length_a 8.542211
_cell_length_b 13.873354
_cell_length_c 16.503544
_cell_angle_alpha 90.000000
_cell_angle_beta 90.000000
_cell_angle_gamma 90.000000
_cell_volume 1955.820429
_symmetry_space_group_name_H-M "I 21 21 21"
_symmetry_group_IT_number 24
_symmetry_cell_setting 'orthorhombic'
loop_
_space_group_symop_operation_xyz
x,y,z
-x,1/2-y,z
x,-y,1/2-z
1/2-x,y,-z
1/2+x,1/2+y,1/2+z
1/2-x,-y,1/2+z
1/2+x,1/2-y,-z
-x,1/2+y,1/2-z
loop_
_atom_site_type_symbol
_atom_site_label
_atom_site_fract_x
_atom_site_fract_y
_atom_site_fract_z
Si Si1 0.000000 0.250000 0.639238
Si Si2 0.156840 0.314687 0.383498
Si Si3 0.250000 0.515071 0.000000
Si Si4 0.069874 0.650914 0.581568
Si Si5 0.370602 0.891017 0.263837
Si Si6 0.838949 0.219182 0.202098
O O1 0.827477 0.238183 0.599240
O O2 0.986312 0.344136 0.697240
O O3 0.174780 0.413327 0.433554
O O4 0.145301 0.338257 0.286754
O O5 0.000000 0.250000 0.402475
O O6 0.116289 0.440666 0.970882
O O7 0.221952 0.677128 0.636151
O O8 0.000000 0.750000 0.543888
O O9 0.945326 0.619476 0.648388
O O10 0.226932 0.819459 0.262944
O O11 0.331288 0.000000 0.250000
O O12 0.000000 0.250000 0.162691
#
# Coordination Sequence:
#
# PCOD9332867 Si02
#       6
#     4   8   4   8   8   8
#     4  10  18  40  70  88 132 162 204 294 306 362
#     4  10  22  41  64  99 129 165 216 262 323 385
#     4  12  26  38  66  92 132 186 202 252 336 398
#     4  10  21  41  65  89 122 168 219 261 313 383
#     4  10  17  34  63  96 112 159 208 252 327 368
#     4   9  19  40  64  90 126 151 207 288 306 358
#
# _framework density 20.451775999999999
#
# number of rings (size 3 to 8) (size 9 to 14) (size 15 to 20)
#    0.000    2.000    5.000    1.200    1.400    0.800 
#   10.800    0.000   13.200    0.000    0.000    0.000 
#    0.000    0.000    0.000    0.000    0.000    0.000 
#
# Total GULP energy -111359.455703 kJ/mol
# GULP energy per Si atom -5567.972785 kJ/mol
# Density = 2.040523 g / cm^3
# Si number density = 20.451776 Si / 1000 Ang^3
#
#
#
# Elastic Constant Matrix: (Units=GPa)
#
#
# Indices 1 2 3 4 5 6 
#
# 1 91.4019 17.7554 26.7469 0.0000 0.0000 0.0000
# 2 17.7554 128.2038 58.4843 0.0000 0.0000 0.0000
# 3 26.7469 58.4843 65.8307 0.0000 0.0000 0.0000
# 4 0.0000 0.0000 0.0000 47.6545 0.0000 0.0000
# 5 0.0000 0.0000 0.0000 0.0000 38.2343 0.0000
# 6 0.0000 0.0000 0.0000 0.0000 0.0000 21.5963
#
#
#
# Elastic Compliance Matrix: (Units=1/GPa)
#
#
# Indices 1 2 3 4 5 6 
#
# 1 0.012490 0.000984 -0.005949 0.000000 0.000000 0.000000
# 2 0.000984 0.013193 -0.012120 0.000000 0.000000 0.000000
# 3 -0.005949 -0.012120 0.028375 0.000000 0.000000 0.000000
# 4 0.000000 0.000000 0.000000 0.020984 0.000000 0.000000
# 5 0.000000 0.000000 0.000000 0.000000 0.026155 0.000000
# 6 0.000000 0.000000 0.000000 0.000000 0.000000 0.046304
#
#
# Mechanical properties :
#
#
# Convention : Reuss Voigt Hill
#
# Bulk Modulus (GPa) = 50.28208 54.60106 52.44157
# Shear Modulus (GPa) = 26.55307 33.66034 30.10670
#
# Velocity S-wave (km/s) = 3.60714 4.06130 3.84094
# Velocity P-wave (km/s) = 6.47979 6.98195 6.73555
#
# Compressibility (1/GPa) = 0.01988780
#
# Stress axis : x y z
#
# Youngs Moduli (GPa) = 80.06151 75.79817 35.24180
#
# Poissons Ratio (x) = -0.07458 0.20965
# Poissons Ratio (y) = -0.07878 0.42715
# Poissons Ratio (z) = 0.47629 0.91871
#
# Static dielectric constant tensor:
#      x y z
#    x 1.807880 0.000000 0.000000 
#    y 0.000000 1.628360 0.000000 
#    z 0.000000 0.000000 1.797600 
# 
# From -- ./inp_files/29293.got.cif
#   From: 2010.05.17/outbox.cif.g08.bks.cpg/sg24_15_cif.got.tgz:29293.got - 2010.06.04 00:33:39.
