data_PCOD9332395
_publ_section_title
;
Structure prediction by ZEFSAII (Michael W. Deem and Ramdas Pophale) SiO2 
 PCOD9332395
Probable space group: I 2 2 2
;
_chemical_formula_sum "Si O2"
_cell_formula_units_Z 40
_cell_length_a 18.274777
_cell_length_b 11.538884
_cell_length_c 8.400414
_cell_angle_alpha 90.000000
_cell_angle_beta 90.000000
_cell_angle_gamma 90.000000
_cell_volume 1771.399769
_symmetry_space_group_name_H-M "I 2 2 2"
_symmetry_group_IT_number 23
_symmetry_cell_setting 'orthorhombic'
loop_
_space_group_symop_operation_xyz
x,y,z
-x,-y,z
x,-y,-z
-x,y,-z
1/2+x,1/2+y,1/2+z
1/2-x,1/2-y,1/2+z
1/2+x,1/2-y,1/2-z
1/2-x,1/2+y,1/2-z
loop_
_atom_site_type_symbol
_atom_site_label
_atom_site_fract_x
_atom_site_fract_y
_atom_site_fract_z
Si Si1 0.931321 0.198732 0.411733
Si Si2 0.038175 0.376544 0.846857
Si Si3 0.302495 0.872779 0.511571
Si Si4 0.170199 0.766506 0.689123
Si Si5 0.088996 0.996600 0.814342
O O1 0.968242 0.294069 0.300771
O O2 0.878416 0.263858 0.534745
O O3 0.890923 0.106096 0.298158
O O4 0.000000 0.139592 0.500000
O O5 0.122278 0.390649 0.892968
O O6 0.000000 0.500000 0.823300
O O7 0.000000 0.318882 0.000000
O O8 0.249371 0.793493 0.615497
O O9 0.321538 0.819200 0.338746
O O10 0.267263 0.000000 0.500000
O O11 0.128398 0.882544 0.748033
O O12 0.000000 0.000000 0.812689
O O13 0.110630 0.000000 0.000000
#
# Coordination Sequence:
#
# PCOD9332395 Si02
#       5
#     8   8   8   8   8
#     4  12  24  41  71 110 151 191 251 308 380 447
#     4  11  24  46  72 102 143 198 254 309 372 442
#     4  12  26  49  76 105 151 206 248 322 385 455
#     4  12  27  48  73 112 154 192 258 311 387 462
#     4  11  24  42  73 110 150 196 242 307 381 451
#
# _framework density 22.581014
#
# number of rings (size 3 to 8) (size 9 to 14) (size 15 to 20)
#    0.000    0.400    4.000    5.400    2.800    2.000 
#    0.000    2.000    0.000    0.000    0.000    0.000 
#    0.000    0.000    0.000    0.000    0.000    0.000 
#
# Total GULP energy -111914.602533 kJ/mol
# GULP energy per Si atom -5595.730127 kJ/mol
# Density = 2.252962 g / cm^3
# Si number density = 22.581014 Si / 1000 Ang^3
#
#
#
# Elastic Constant Matrix: (Units=GPa)
#
#
# Indices 1 2 3 4 5 6 
#
# 1 95.0403 28.0596 40.3517 0.0000 0.0000 0.0000
# 2 28.0596 102.3010 80.9721 0.0000 0.0000 0.0000
# 3 40.3517 80.9721 158.3221 0.0000 0.0000 0.0000
# 4 0.0000 0.0000 0.0000 28.1679 0.0000 0.0000
# 5 0.0000 0.0000 0.0000 0.0000 38.4896 0.0000
# 6 0.0000 0.0000 0.0000 0.0000 0.0000 -7.3474
#
#
#
# Elastic Compliance Matrix: (Units=1/GPa)
#
#
# Indices 1 2 3 4 5 6 
#
# 1 0.011926 -0.001454 -0.002296 0.000000 0.000000 0.000000
# 2 -0.001454 0.016601 -0.008120 0.000000 0.000000 0.000000
# 3 -0.002296 -0.008120 0.011054 0.000000 0.000000 0.000000
# 4 0.000000 0.000000 0.000000 0.035501 0.000000 0.000000
# 5 0.000000 0.000000 0.000000 0.000000 0.025981 0.000000
# 6 0.000000 0.000000 0.000000 0.000000 0.000000 -0.136103
#
#
# Mechanical properties :
#
#
# Convention : Reuss Voigt Hill
#
# Bulk Modulus (GPa) = 63.12456 72.71448 67.91952
# Shear Modulus (GPa) = -830.56514 25.61401 -402.47556
#
# Velocity S-wave (km/s) = -19.19933 3.37162 -13.36500
# Velocity P-wave (km/s) = 21.52836 6.88684 14.42293
#
# Compressibility (1/GPa) = 0.01584170
#
# Stress axis : x y z
#
# Youngs Moduli (GPa) = 83.85105 60.23869 90.46354
#
# Poissons Ratio (x) = 0.08757 0.20771
# Poissons Ratio (y) = 0.12190 0.73454
# Poissons Ratio (z) = 0.19253 0.48912
#
# Static dielectric constant tensor:
#      x y z
#    x 1.881010 0.000000 0.000000 
#    y 0.000000 1.848720 0.000000 
#    z 0.000000 0.000000 1.919690 
# 
# From -- ./inp_files/10751.got.cif
#   From: 2010.05.17/outbox.cif.g08.bks.cpg/sg23_6_cif.got.tgz:10751.got - 2010.06.04 12:02:01.
