data_PCOD9332102
_publ_section_title
;
Structure prediction by ZEFSAII (Michael W. Deem and Ramdas Pophale) SiO2 
 PCOD9332102
Probable space group: I 2 2 2
;
_chemical_formula_sum "Si O2"
_cell_formula_units_Z 48
_cell_length_a 25.676199
_cell_length_b 6.112821
_cell_length_c 14.987324
_cell_angle_alpha 90.000000
_cell_angle_beta 90.000000
_cell_angle_gamma 90.000000
_cell_volume 2352.320578
_symmetry_space_group_name_H-M "I 2 2 2"
_symmetry_group_IT_number 23
_symmetry_cell_setting 'orthorhombic'
loop_
_space_group_symop_operation_xyz
x,y,z
-x,-y,z
x,-y,-z
-x,y,-z
1/2+x,1/2+y,1/2+z
1/2-x,1/2-y,1/2+z
1/2+x,1/2-y,1/2-z
1/2-x,1/2+y,1/2-z
loop_
_atom_site_type_symbol
_atom_site_label
_atom_site_fract_x
_atom_site_fract_y
_atom_site_fract_z
Si Si1 0.795919 0.746674 0.360377
Si Si2 0.310963 0.110761 0.276432
Si Si3 0.000000 0.000000 0.752921
Si Si4 0.241477 0.000000 0.000000
Si Si5 0.845078 0.233779 0.897839
Si Si6 0.584513 0.000000 0.500000
Si Si7 0.000000 0.500000 0.846323
Si Si8 0.883880 0.998441 0.727724
O O1 0.747558 0.810494 0.296042
O O2 0.812927 0.519537 0.316058
O O3 0.775347 0.695495 0.458777
O O4 0.843942 0.909432 0.346360
O O5 0.356868 0.282016 0.265157
O O6 0.322348 0.959700 0.361251
O O7 0.055693 0.012493 0.703284
O O8 0.001611 0.748314 0.799769
O O9 0.202984 0.919296 0.922331
O O10 0.879717 0.287898 0.983519
O O11 0.878751 0.150761 0.815276
O O12 0.450621 0.017018 0.412491
#
# Coordination Sequence:
#
# PCOD9332102 Si02
#       8
#     8   8   4   4   8   4   4   8
#     4  11  22  38  62  95 128 171 219 282 342 411
#     4  11  20  42  62  89 127 173 218 267 327 410
#     4  12  26  47  64  94 129 186 236 282 326 405
#     4  12  24  38  60  99 141 166 216 286 360 418
#     4  11  23  37  58  90 130 177 213 266 340 411
#     4  11  22  38  54  90 132 178 222 273 322 392
#     4  11  26  40  62  88 134 177 232 277 318 384
#     4  11  24  42  65  87 130 177 231 276 333 411
#
# _framework density 20.405381999999999
#
# number of rings (size 3 to 8) (size 9 to 14) (size 15 to 20)
#    0.000    0.833    5.000    3.000    4.667    1.333 
#    0.000    0.000    0.000    0.000    0.000    3.500 
#    0.000    0.000    0.000    0.000    0.000    0.000 
#
# Total GULP energy -133711.565229 kJ/mol
# GULP energy per Si atom -5571.315218 kJ/mol
# Density = 2.035894 g / cm^3
# Si number density = 20.405382 Si / 1000 Ang^3
#
#
#
# Elastic Constant Matrix: (Units=GPa)
#
#
# Indices 1 2 3 4 5 6 
#
# 1 143.8441 32.4492 12.4324 0.0000 0.0000 0.0000
# 2 32.4492 72.2172 -4.9857 0.0000 0.0000 0.0000
# 3 12.4324 -4.9857 19.4193 0.0000 0.0000 0.0000
# 4 0.0000 0.0000 0.0000 17.6236 0.0000 0.0000
# 5 0.0000 0.0000 0.0000 0.0000 4.0741 0.0000
# 6 0.0000 0.0000 0.0000 0.0000 0.0000 25.2983
#
#
#
# Elastic Compliance Matrix: (Units=1/GPa)
#
#
# Indices 1 2 3 4 5 6 
#
# 1 0.008476 -0.004259 -0.006520 0.000000 0.000000 0.000000
# 2 -0.004259 0.016237 0.006895 0.000000 0.000000 0.000000
# 3 -0.006520 0.006895 0.057439 0.000000 0.000000 0.000000
# 4 0.000000 0.000000 0.000000 0.056742 0.000000 0.000000
# 5 0.000000 0.000000 0.000000 0.000000 0.245455 0.000000
# 6 0.000000 0.000000 0.000000 0.000000 0.000000 0.039528
#
#
# Mechanical properties :
#
#
# Convention : Reuss Voigt Hill
#
# Bulk Modulus (GPa) = 13.44353 35.03024 24.23688
# Shear Modulus (GPa) = 10.95434 22.43818 16.69626
#
# Velocity S-wave (km/s) = 2.31949 3.31965 2.86357
# Velocity P-wave (km/s) = 3.71159 5.64782 4.77879
#
# Compressibility (1/GPa) = 0.07438524
#
# Stress axis : x y z
#
# Youngs Moduli (GPa) = 117.97764 61.58888 17.40965
#
# Poissons Ratio (x) = 0.26229 0.11351
# Poissons Ratio (y) = 0.50243 -0.12004
# Poissons Ratio (z) = 0.76920 -0.42466
#
# Static dielectric constant tensor:
#      x y z
#    x 1.772100 0.000000 0.000000 
#    y 0.000000 1.842760 0.000000 
#    z 0.000000 0.000000 1.736940 
# 
# From -- ./inp_files/4947.got.cif
#   From: 2010.05.17/outbox.cif.g08.bks.cpg/sg23_3_cif.got.tgz:4947.got - 2010.06.04 12:02:01.
