data_PCOD9332660
_publ_section_title
;
Structure prediction by ZEFSAII (Michael W. Deem and Ramdas Pophale) SiO2 
 PCOD9332660
Probable space group: I 2 2 2
;
_chemical_formula_sum "Si O2"
_cell_formula_units_Z 29
_cell_length_a 18.000000
_cell_length_b 18.000000
_cell_length_c 9.000000
_cell_angle_alpha 90.000000
_cell_angle_beta 90.000000
_cell_angle_gamma 90.000000
_cell_volume 2916.000000
_symmetry_space_group_name_H-M "I 2 2 2"
_symmetry_group_IT_number 23
_symmetry_cell_setting 'orthorhombic'
loop_
_space_group_symop_operation_xyz
x,y,z
-x,-y,z
x,-y,-z
-x,y,-z
1/2+x,1/2+y,1/2+z
1/2-x,1/2-y,1/2+z
1/2+x,1/2-y,1/2-z
1/2-x,1/2+y,1/2-z
loop_
_atom_site_type_symbol
_atom_site_label
_atom_site_fract_x
_atom_site_fract_y
_atom_site_fract_z
Si Si1 0.307805 0.757418 0.022289
Si Si2 0.016880 0.303388 0.834703
Si Si3 0.309893 0.166269 0.292264
Si Si4 0.385186 0.103725 0.809376
Si Si5 0.940127 0.825509 0.610240
Si Si6 0.587480 0.480112 0.822970
Si Si7 0.500000 0.000000 0.000000
Si Si8 0.750227 0.492266 0.317475
O O1 0.237912 0.712150 0.086587
O O2 0.342392 0.827060 0.112598
O O3 0.294253 0.787331 0.857334
O O4 0.375986 0.702175 0.997920
O O5 0.101419 0.336482 0.828037
O O6 0.023691 0.239918 0.707745
O O7 0.947602 0.358668 0.798961
O O8 0.000000 0.273707 0.000000
O O9 0.281088 0.084858 0.249657
O O10 0.441622 0.053335 0.910877
O O11 0.313935 0.052299 0.763016
O O12 0.909283 0.891726 0.707228
O O13 0.000000 0.859582 0.500000
O O14 0.500000 0.500000 0.782702
O O15 0.663615 0.505807 0.738671
O O16 0.596942 0.500000 0.000000
O O17 0.751461 0.500000 0.500000
#
# Coordination Sequence:
#
# PCOD9332660 Si02
#       8
#     8   8   8   8   8   8   2   8
#     4  11  24  41  72  98 138 180 238 288 352 421
#     4  11  27  44  69 107 143 179 240 294 361 419
#     4  11  26  45  70 107 138 190 232 298 353 427
#     4  12  23  43  73 103 139 187 235 293 357 438
#     4  11  21  43  70  99 129 188 237 284 354 429
#     4  11  25  46  70 100 140 187 236 293 362 426
#     4  12  20  44  78 100 138 192 240 284 356 464
#     4  12  26  46  71 106 140 185 240 292 364 428
#
# _framework density 9.9451300000000007
#
# number of rings (size 3 to 8) (size 9 to 14) (size 15 to 20)
#    0.000    0.690    4.828    3.310    5.793    1.379 
#    2.483    2.414    0.000    0.000    0.000    0.000 
#    0.000    0.000    0.000    0.000    0.000    0.000 
#
# Total GULP energy -161514.330429 kJ/mol
# GULP energy per Si atom -5569.459670 kJ/mol
# Density = 0.992249 g / cm^3
# Si number density = 9.945130 Si / 1000 Ang^3
#
#
#
# Elastic Constant Matrix: (Units=GPa)
#
#
# Indices 1 2 3 4 5 6 
#
# 1 150.7847 34.6513 41.6735 0.0000 0.0000 0.0000
# 2 34.6513 57.3134 -4.6139 0.0000 0.0000 0.0000
# 3 41.6735 -4.6139 55.9417 0.0000 0.0000 0.0000
# 4 0.0000 0.0000 0.0000 5.2750 0.0000 0.0000
# 5 0.0000 0.0000 0.0000 0.0000 42.6470 0.0000
# 6 0.0000 0.0000 0.0000 0.0000 0.0000 43.9044
#
#
#
# Elastic Compliance Matrix: (Units=1/GPa)
#
#
# Indices 1 2 3 4 5 6 
#
# 1 0.010609 -0.007098 -0.008489 0.000000 0.000000 0.000000
# 2 -0.007098 0.022313 0.007128 0.000000 0.000000 0.000000
# 3 -0.008489 0.007128 0.024787 0.000000 0.000000 0.000000
# 4 0.000000 0.000000 0.000000 0.189574 0.000000 0.000000
# 5 0.000000 0.000000 0.000000 0.000000 0.023448 0.000000
# 6 0.000000 0.000000 0.000000 0.000000 0.000000 0.022777
#
#
# Mechanical properties :
#
#
# Convention : Reuss Voigt Hill
#
# Bulk Modulus (GPa) = 24.51463 45.27351 34.89407
# Shear Modulus (GPa) = 15.43103 31.18720 23.30912
#
# Velocity S-wave (km/s) = 2.78836 3.96405 3.42700
# Velocity P-wave (km/s) = 4.76637 6.61533 5.76545
#
# Compressibility (1/GPa) = 0.04079198
#
# Stress axis : x y z
#
# Youngs Moduli (GPa) = 94.25888 44.81725 40.34349
#
# Poissons Ratio (x) = 0.31809 0.34246
# Poissons Ratio (y) = 0.66900 -0.28755
# Poissons Ratio (z) = 0.80012 -0.31944
#
# Static dielectric constant tensor:
#      x y z
#    x 1.747970 0.000000 0.000000 
#    y 0.000000 1.768430 0.000000 
#    z 0.000000 0.000000 1.714250 
# 
# From -- ./inp_files/11292.got.cif
#   From: 2010.05.17/outbox.ucp.g08.bks.cvg/sg23_6_cif.got.tgz:11292.got - 2010.06.11 15:19:07.
