data_PCOD9332518
_publ_section_title
;
Structure prediction by ZEFSAII (Michael W. Deem and Ramdas Pophale) SiO2 
 PCOD9332518
Probable space group: I 2 2 2
;
_chemical_formula_sum "Si O2"
_cell_formula_units_Z 26
_cell_length_a 13.338306
_cell_length_b 5.040987
_cell_length_c 18.991880
_cell_angle_alpha 90.000000
_cell_angle_beta 90.000000
_cell_angle_gamma 90.000000
_cell_volume 1276.980341
_symmetry_space_group_name_H-M "I 2 2 2"
_symmetry_group_IT_number 23
_symmetry_cell_setting 'orthorhombic'
loop_
_space_group_symop_operation_xyz
x,y,z
-x,-y,z
x,-y,-z
-x,y,-z
1/2+x,1/2+y,1/2+z
1/2-x,1/2-y,1/2+z
1/2+x,1/2-y,1/2-z
1/2-x,1/2+y,1/2-z
loop_
_atom_site_type_symbol
_atom_site_label
_atom_site_fract_x
_atom_site_fract_y
_atom_site_fract_z
Si Si1 0.000000 0.500000 0.838326
Si Si2 0.664062 0.124770 0.571112
Si Si3 0.500000 0.500000 0.500000
Si Si4 0.000000 0.000000 0.256748
Si Si5 0.786640 0.198592 0.706052
O O1 0.095836 0.582501 0.884998
O O2 0.030646 0.248556 0.791902
O O3 0.577223 0.325302 0.545781
O O4 0.742434 0.230724 0.627630
O O5 0.707966 0.000000 0.500000
O O6 0.902360 0.894358 0.297150
O O7 0.770076 0.466494 0.750311
#
# Coordination Sequence:
#
# PCOD9332518 Si02
#       5
#     4   8   2   4   8
#     4  12  21  40  70  94 133 170 212 270 343 380
#     4  12  25  39  65 106 134 177 213 283 338 400
#     4  12  24  40  68  94 152 158 226 278 350 388
#     4  12  23  44  66  98 135 170 222 276 319 394
#     4  12  26  42  68  98 135 177 224 270 329 400
#
# _framework density 20.360531999999999
#
# number of rings (size 3 to 8) (size 9 to 14) (size 15 to 20)
#    0.000    0.000    9.231    0.923    4.308    0.000 
#    0.000    0.769    0.000    0.000    0.000    0.000 
#    0.000    0.000    0.000    0.000    0.000    0.000 
#
# Total GULP energy -72628.487450 kJ/mol
# GULP energy per Si atom -5586.806727 kJ/mol
# Density = 2.031419 g / cm^3
# Si number density = 20.360532 Si / 1000 Ang^3
#
#
#
# Elastic Constant Matrix: (Units=GPa)
#
#
# Indices 1 2 3 4 5 6 
#
# 1 110.0284 10.9526 57.3040 0.0000 0.0000 0.0000
# 2 10.9526 100.7714 35.3615 0.0000 0.0000 0.0000
# 3 57.3040 35.3615 148.9530 0.0000 0.0000 0.0000
# 4 0.0000 0.0000 0.0000 21.1612 0.0000 0.0000
# 5 0.0000 0.0000 0.0000 0.0000 54.0729 0.0000
# 6 0.0000 0.0000 0.0000 0.0000 0.0000 25.9120
#
#
#
# Elastic Compliance Matrix: (Units=1/GPa)
#
#
# Indices 1 2 3 4 5 6 
#
# 1 0.011376 0.000327 -0.004454 0.000000 0.000000 0.000000
# 2 0.000327 0.010835 -0.002698 0.000000 0.000000 0.000000
# 3 -0.004454 -0.002698 0.009067 0.000000 0.000000 0.000000
# 4 0.000000 0.000000 0.000000 0.047256 0.000000 0.000000
# 5 0.000000 0.000000 0.000000 0.000000 0.018494 0.000000
# 6 0.000000 0.000000 0.000000 0.000000 0.000000 0.038592
#
#
# Mechanical properties :
#
#
# Convention : Reuss Voigt Hill
#
# Bulk Modulus (GPa) = 56.72956 62.99879 59.86417
# Shear Modulus (GPa) = 32.22774 37.30487 34.76631
#
# Velocity S-wave (km/s) = 3.98283 4.28508 4.13672
# Velocity P-wave (km/s) = 7.00525 7.44925 7.23066
#
# Compressibility (1/GPa) = 0.01762749
#
# Stress axis : x y z
#
# Youngs Moduli (GPa) = 87.90678 92.29667 110.28479
#
# Poissons Ratio (x) = -0.03014 0.49119
# Poissons Ratio (y) = -0.02870 0.29752
# Poissons Ratio (z) = 0.39153 0.24899
#
# Static dielectric constant tensor:
#      x y z
#    x 1.758680 0.000000 0.000000 
#    y 0.000000 1.765420 0.000000 
#    z 0.000000 0.000000 1.809990 
# 
# From -- ./inp_files/2032.got.cif
#   From: 2010.05.17/outbox.cif.g08.bks.cpg/sg23_2_cif.got.tgz:2032.got - 2010.06.04 12:02:01.
