data_PCOD9332285
_publ_section_title
;
Structure prediction by ZEFSAII (Michael W. Deem and Ramdas Pophale) SiO2 
 PCOD9332285
Probable space group: I 2 2 2
;
_chemical_formula_sum "Si O2"
_cell_formula_units_Z 48
_cell_length_a 14.345067
_cell_length_b 13.989761
_cell_length_c 10.858351
_cell_angle_alpha 90.000000
_cell_angle_beta 90.000000
_cell_angle_gamma 90.000000
_cell_volume 2179.097951
_symmetry_space_group_name_H-M "I 2 2 2"
_symmetry_group_IT_number 23
_symmetry_cell_setting 'orthorhombic'
loop_
_space_group_symop_operation_xyz
x,y,z
-x,-y,z
x,-y,-z
-x,y,-z
1/2+x,1/2+y,1/2+z
1/2-x,1/2-y,1/2+z
1/2+x,1/2-y,1/2-z
1/2-x,1/2+y,1/2-z
loop_
_atom_site_type_symbol
_atom_site_label
_atom_site_fract_x
_atom_site_fract_y
_atom_site_fract_z
Si Si1 0.787520 0.951554 0.251951
Si Si2 0.918300 0.691177 0.357577
Si Si3 0.893590 0.114068 0.976377
Si Si4 0.550404 0.592378 0.870682
Si Si5 0.710253 0.673121 0.290688
Si Si6 0.385956 0.847795 0.850369
O O1 0.853552 0.888656 0.160645
O O2 0.837240 0.921313 0.378727
O O3 0.805469 0.063877 0.247344
O O4 0.842479 0.251994 0.289352
O O5 0.006959 0.628937 0.316390
O O6 0.820987 0.686123 0.288264
O O7 0.892475 0.667100 0.501000
O O8 0.000000 0.908862 0.500000
O O9 0.829155 0.173332 0.069314
O O10 0.000000 0.143003 0.000000
O O11 0.887537 0.000000 0.000000
O O12 0.500000 0.500000 0.803264
O O13 0.539089 0.703145 0.837227
O O14 0.685212 0.927689 0.201951
#
# Coordination Sequence:
#
# PCOD9332285 Si02
#       6
#     8   8   8   8   8   8
#     4  11  23  38  61  92 128 175 210 274 334 389
#     4  11  23  41  62  94 130 174 218 273 331 399
#     4   9  20  33  55  87 124 161 210 264 328 385
#     4  11  23  38  63  95 131 169 219 270 334 389
#     4  11  23  40  61  93 130 170 223 269 331 399
#     4  11  23  40  64  91 133 170 220 271 333 404
#
# _framework density 22.027464999999999
#
# number of rings (size 3 to 8) (size 9 to 14) (size 15 to 20)
#    0.000    1.333    5.000    1.000    9.333    0.667 
#    0.000    1.667    0.000    0.000    0.000    0.000 
#    0.000    0.000    0.000    0.000    0.000    0.000 
#
# Total GULP energy -133619.953739 kJ/mol
# GULP energy per Si atom -5567.498072 kJ/mol
# Density = 2.197733 g / cm^3
# Si number density = 22.027465 Si / 1000 Ang^3
#
#
#
# Elastic Constant Matrix: (Units=GPa)
#
#
# Indices 1 2 3 4 5 6 
#
# 1 150.2382 -14.6259 27.0291 0.0000 0.0000 0.0000
# 2 -14.6259 39.6987 2.4608 0.0000 0.0000 0.0000
# 3 27.0291 2.4608 43.1407 0.0000 0.0000 0.0000
# 4 0.0000 0.0000 0.0000 11.6012 0.0000 0.0000
# 5 0.0000 0.0000 0.0000 0.0000 33.8118 0.0000
# 6 0.0000 0.0000 0.0000 0.0000 0.0000 32.4422
#
#
#
# Elastic Compliance Matrix: (Units=1/GPa)
#
#
# Indices 1 2 3 4 5 6 
#
# 1 0.007893 0.003226 -0.005129 0.000000 0.000000 0.000000
# 2 0.003226 0.026598 -0.003538 0.000000 0.000000 0.000000
# 3 -0.005129 -0.003538 0.026595 0.000000 0.000000 0.000000
# 4 0.000000 0.000000 0.000000 0.086198 0.000000 0.000000
# 5 0.000000 0.000000 0.000000 0.000000 0.029575 0.000000
# 6 0.000000 0.000000 0.000000 0.000000 0.000000 0.030824
#
#
# Mechanical properties :
#
#
# Convention : Reuss Voigt Hill
#
# Bulk Modulus (GPa) = 19.91923 29.20062 24.55993
# Shear Modulus (GPa) = 21.24939 30.11861 25.68400
#
# Velocity S-wave (km/s) = 3.10929 3.70174 3.41838
# Velocity P-wave (km/s) = 4.68538 5.61745 5.17246
#
# Compressibility (1/GPa) = 0.05020273
#
# Stress axis : x y z
#
# Youngs Moduli (GPa) = 126.69572 37.59741 37.60049
#
# Poissons Ratio (x) = -0.12128 0.19286
# Poissons Ratio (y) = -0.40871 0.13304
# Poissons Ratio (z) = 0.64985 0.13303
#
# Static dielectric constant tensor:
#      x y z
#    x 1.903820 0.000000 0.000000 
#    y 0.000000 1.958440 0.000000 
#    z 0.000000 0.000000 1.960290 
# 
# From -- ./inp_files/21654.got.cif
#   From: 2010.05.17/outbox.cif.g08.bks.cpg/sg23_11_cif.got.tgz:21654.got - 2010.06.04 12:02:01.
