data_PCOD9332950
_publ_section_title
;
Structure prediction by ZEFSAII (Michael W. Deem and Ramdas Pophale) SiO2 
 PCOD9332950
Probable space group: I 21 21 21
;
_chemical_formula_sum "Si O2"
_cell_formula_units_Z 64
_cell_length_a 25.036547
_cell_length_b 8.776377
_cell_length_c 11.641390
_cell_angle_alpha 90.000000
_cell_angle_beta 90.000000
_cell_angle_gamma 90.000000
_cell_volume 2557.964665
_symmetry_space_group_name_H-M "I 21 21 21"
_symmetry_group_IT_number 24
_symmetry_cell_setting 'orthorhombic'
loop_
_space_group_symop_operation_xyz
x,y,z
-x,1/2-y,z
x,-y,1/2-z
1/2-x,y,-z
1/2+x,1/2+y,1/2+z
1/2-x,-y,1/2+z
1/2+x,1/2-y,-z
-x,1/2+y,1/2-z
loop_
_atom_site_type_symbol
_atom_site_label
_atom_site_fract_x
_atom_site_fract_y
_atom_site_fract_z
Si Si1 0.451373 0.852236 0.176833
Si Si2 0.787661 0.332319 0.787416
Si Si3 0.863272 0.857363 0.830616
Si Si4 0.031824 0.386022 0.090591
Si Si5 0.212755 0.428403 0.103044
Si Si6 0.620813 0.883178 0.897735
Si Si7 0.626014 0.713396 0.489793
Si Si8 0.922514 0.563641 0.068108
O O1 0.500000 0.750000 0.135201
O O2 0.412955 0.726402 0.231370
O O3 0.418564 0.911458 0.069017
O O4 0.466310 0.000000 0.250000
O O5 0.768203 0.500000 0.750000
O O6 0.814364 0.257457 0.675560
O O7 0.747584 0.202027 0.833807
O O8 0.836813 0.342052 0.881877
O O9 0.849788 0.000000 0.750000
O O10 0.877426 0.891121 0.961632
O O11 0.078676 0.489033 0.137673
O O12 0.000000 0.250000 0.153677
O O13 0.065261 0.291535 0.989061
O O14 0.983873 0.508821 0.076431
O O15 0.179729 0.576030 0.148456
O O16 0.250000 0.487274 0.000000
O O17 0.164878 0.334556 0.046344
O O18 0.597141 0.716131 0.870941
O O19 0.616224 0.579115 0.582453
#
# Coordination Sequence:
#
# PCOD9332950 Si02
#       8
#     8   8   8   8   8   8   8   8
#     4  11  22  30  40  64 102 145 189 228 267 318
#     4  11  21  36  55  76 102 142 197 246 287 338
#     4  11  20  32  48  69  99 138 185 232 277 326
#     4   9  17  29  48  70 100 143 184 221 265 323
#     4   9  19  36  54  71  97 139 187 233 289 339
#     4  10  19  32  49  72 105 142 183 229 276 330
#     4   9  18  33  51  72 103 143 186 235 284 338
#     4  10  18  30  46  70 100 136 182 230 271 322
#
# _framework density 25.019893
#
# number of rings (size 3 to 8) (size 9 to 14) (size 15 to 20)
#    0.000    2.000    0.000    7.125    0.000    3.500 
#    0.000    4.375    0.000    0.000    0.000    0.000 
#    0.000    0.000    0.000  369.000    0.000   90.500 
#
# Total GULP energy -178206.067915 kJ/mol
# GULP energy per Si atom -5568.939622 kJ/mol
# Density = 2.496295 g / cm^3
# Si number density = 25.019893 Si / 1000 Ang^3
#
#
#
# Elastic Constant Matrix: (Units=GPa)
#
#
# Indices 1 2 3 4 5 6 
#
# 1 153.6890 69.1352 16.3389 0.0000 0.0000 0.0000
# 2 69.1352 153.6174 26.2002 0.0000 0.0000 0.0000
# 3 16.3389 26.2002 67.9642 0.0000 0.0000 0.0000
# 4 0.0000 0.0000 0.0000 5.2824 0.0000 0.0000
# 5 0.0000 0.0000 0.0000 0.0000 8.7625 0.0000
# 6 0.0000 0.0000 0.0000 0.0000 0.0000 41.6008
#
#
#
# Elastic Compliance Matrix: (Units=1/GPa)
#
#
# Indices 1 2 3 4 5 6 
#
# 1 0.008180 -0.003581 -0.000586 0.000000 0.000000 0.000000
# 2 -0.003581 0.008536 -0.002430 0.000000 0.000000 0.000000
# 3 -0.000586 -0.002430 0.015791 0.000000 0.000000 0.000000
# 4 0.000000 0.000000 0.000000 0.189308 0.000000 0.000000
# 5 0.000000 0.000000 0.000000 0.000000 0.114122 0.000000
# 6 0.000000 0.000000 0.000000 0.000000 0.000000 0.024038
#
#
# Mechanical properties :
#
#
# Convention : Reuss Voigt Hill
#
# Bulk Modulus (GPa) = 51.77816 66.51324 59.14570
# Shear Modulus (GPa) = 13.17154 28.70224 20.93689
#
# Velocity S-wave (km/s) = 2.29692 3.39067 2.89590
# Velocity P-wave (km/s) = 5.27012 6.47848 5.90529
#
# Compressibility (1/GPa) = 0.01931316
#
# Stress axis : x y z
#
# Youngs Moduli (GPa) = 122.24918 117.15241 63.32687
#
# Poissons Ratio (x) = 0.41958 0.03710
# Poissons Ratio (y) = 0.43783 0.15386
# Poissons Ratio (z) = 0.07162 0.28463
#
# Static dielectric constant tensor:
#      x y z
#    x 2.041840 0.000000 0.000000 
#    y 0.000000 2.304660 0.000000 
#    z 0.000000 0.000000 2.096740 
# 
# From -- ./inp_files/27870.got.cif
#   From: 2010.05.17/outbox.cif.g08.bks.cpg/sg24_14_cif.got.tgz:27870.got - 2010.06.04 00:33:39.
