data_PCOD9332895
_publ_section_title
;
Structure prediction by ZEFSAII (Michael W. Deem and Ramdas Pophale) SiO2 
 PCOD9332895
Probable space group: I 21 21 21
;
_chemical_formula_sum "Si O2"
_cell_formula_units_Z 64
_cell_length_a 19.726612
_cell_length_b 8.652439
_cell_length_c 13.151853
_cell_angle_alpha 90.000000
_cell_angle_beta 90.000000
_cell_angle_gamma 90.000000
_cell_volume 2244.801763
_symmetry_space_group_name_H-M "I 21 21 21"
_symmetry_group_IT_number 24
_symmetry_cell_setting 'orthorhombic'
loop_
_space_group_symop_operation_xyz
x,y,z
-x,1/2-y,z
x,-y,1/2-z
1/2-x,y,-z
1/2+x,1/2+y,1/2+z
1/2-x,-y,1/2+z
1/2+x,1/2-y,-z
-x,1/2+y,1/2-z
loop_
_atom_site_type_symbol
_atom_site_label
_atom_site_fract_x
_atom_site_fract_y
_atom_site_fract_z
Si Si1 0.602066 0.576718 0.566571
Si Si2 0.581577 0.931969 0.139065
Si Si3 0.738231 0.750000 0.876158
Si Si4 0.602067 0.923282 0.566571
Si Si5 0.250220 0.415675 0.123008
Si Si6 0.918423 0.568031 0.860935
Si Si7 0.573736 0.750000 0.845570
Si Si8 0.749780 0.415675 0.123008
O O1 0.572827 0.750000 0.570376
O O2 0.614965 0.537270 0.447819
O O3 0.567618 0.418334 0.601902
O O4 0.668543 0.587311 0.636589
O O5 0.597677 0.750000 0.128225
O O6 0.500000 0.945338 0.123589
O O7 0.594786 0.000000 0.250000
O O8 0.614965 0.037270 0.052181
O O9 0.769523 0.913002 0.841628
O O10 0.769523 0.586997 0.841628
O O11 0.750000 0.750000 0.000000
O O12 0.658407 0.750000 0.844174
O O13 0.668543 0.912689 0.636589
O O14 0.567618 0.081666 0.601901
O O15 0.278157 0.250000 0.156560
O O16 0.250000 0.414564 0.000000
O O17 0.905214 0.500000 0.750000
O O18 0.500000 0.750000 0.783001
O O19 0.750000 0.414564 0.000000
#
# Coordination Sequence:
#
# PCOD9332895 Si02
#       8
#     8   8   8   8   8   8   8   8
#     4  10  18  27  39  52  68  89 111 141 182 223
#     4  10  19  29  38  48  64  87 117 150 181 217
#     4   8  14  24  36  48  64  86 108 132 168 207
#     4  10  18  27  39  52  68  89 111 141 182 223
#     4   8  14  24  37  52  67  83 105 133 169 214
#     4  10  19  29  38  48  64  87 117 150 181 217
#     4  10  18  26  36  52  70  86 110 144 179 213
#     4   8  14  24  37  52  67  83 105 133 169 214
#
# _framework density 28.510314000000001
#
# number of rings (size 3 to 8) (size 9 to 14) (size 15 to 20)
#    0.000    2.750    1.250    1.500    0.000    3.000 
#    0.000    0.000    0.000    0.000    0.000    0.000 
#    0.000    0.000    0.000    0.000    0.000    0.000 
#
# Total GULP energy -178507.265772 kJ/mol
# GULP energy per Si atom -5578.352055 kJ/mol
# Density = 2.844542 g / cm^3
# Si number density = 28.510314 Si / 1000 Ang^3
#
#
#
# Elastic Constant Matrix: (Units=GPa)
#
#
# Indices 1 2 3 4 5 6 
#
# 1 130.8201 42.4344 30.0213 0.0000 0.0000 0.0000
# 2 42.4344 385.3199 80.6518 0.0000 0.0000 0.0000
# 3 30.0213 80.6518 130.5968 0.0000 0.0000 0.0000
# 4 0.0000 0.0000 0.0000 57.9393 0.0000 0.0000
# 5 0.0000 0.0000 0.0000 0.0000 3199.3620 0.0000
# 6 0.0000 0.0000 0.0000 0.0000 0.0000 179.9231
#
#
#
# Elastic Compliance Matrix: (Units=1/GPa)
#
#
# Indices 1 2 3 4 5 6 
#
# 1 0.008182 -0.000583 -0.001521 0.000000 0.000000 0.000000
# 2 -0.000583 0.003022 -0.001732 0.000000 0.000000 0.000000
# 3 -0.001521 -0.001732 0.009077 0.000000 0.000000 0.000000
# 4 0.000000 0.000000 0.000000 0.017259 0.000000 0.000000
# 5 0.000000 0.000000 0.000000 0.000000 0.000313 0.000000
# 6 0.000000 0.000000 0.000000 0.000000 0.000000 0.005558
#
#
# Mechanical properties :
#
#
# Convention : Reuss Voigt Hill
#
# Bulk Modulus (GPa) = 79.31066 105.88353 92.59710
# Shear Modulus (GPa) = 90.43919 720.35351 405.39635
#
# Velocity S-wave (km/s) = 5.63830 15.91266 11.93740
# Velocity P-wave (km/s) = 8.38247 19.36069 14.91814
#
# Compressibility (1/GPa) = 0.01260864
#
# Stress axis : x y z
#
# Youngs Moduli (GPa) = 122.21723 330.90489 110.17299
#
# Poissons Ratio (x) = 0.19282 0.16758
# Poissons Ratio (y) = 0.07122 0.19086
# Poissons Ratio (z) = 0.18590 0.57324
#
# Static dielectric constant tensor:
#      x y z
#    x 2.525470 0.000000 0.000000 
#    y 0.000000 2.080810 0.000000 
#    z 0.000000 0.000000 2.282120 
# 
# From -- ./inp_files/14690.got.cif
#   From: 2010.05.17/outbox.cif.g08.bks.cpg/sg24_8_cif.got.tgz:14690.got - 2010.06.04 00:33:39.
