data_PCOD9332578
_publ_section_title
;
Structure prediction by ZEFSAII (Michael W. Deem and Ramdas Pophale) SiO2 
 PCOD9332578
Probable space group: I 2 2 2
;
_chemical_formula_sum "Si O2"
_cell_formula_units_Z 24
_cell_length_a 10.228067
_cell_length_b 4.670597
_cell_length_c 19.730991
_cell_angle_alpha 90.000000
_cell_angle_beta 90.000000
_cell_angle_gamma 90.000000
_cell_volume 942.572704
_symmetry_space_group_name_H-M "I 2 2 2"
_symmetry_group_IT_number 23
_symmetry_cell_setting 'orthorhombic'
loop_
_space_group_symop_operation_xyz
x,y,z
-x,-y,z
x,-y,-z
-x,y,-z
1/2+x,1/2+y,1/2+z
1/2-x,1/2-y,1/2+z
1/2+x,1/2-y,1/2-z
1/2-x,1/2+y,1/2-z
loop_
_atom_site_type_symbol
_atom_site_label
_atom_site_fract_x
_atom_site_fract_y
_atom_site_fract_z
Si Si1 0.500000 0.000000 0.823638
Si Si2 0.209611 0.333626 0.565171
Si Si3 0.500000 0.500000 0.729125
Si Si4 0.125111 0.691258 0.105709
O O1 0.385508 0.889827 0.871935
O O2 0.557352 0.743842 0.777711
O O3 0.149095 0.500000 0.500000
O O4 0.344333 0.509082 0.571701
O O5 0.254458 0.005615 0.578058
O O6 0.598336 0.312498 0.682148
O O7 0.000000 0.500000 0.090113
#
# Coordination Sequence:
#
# PCOD9332578 Si02
#       4
#     4   8   4   8
#     4  12  27  48  74 110 151 202 244 308 378 450
#     4  12  27  47  76 108 149 197 246 306 371 450
#     4  12  24  50  72 112 148 194 252 308 380 438
#     4  12  24  49  72 111 143 192 247 311 379 430
#
# _framework density 25.462229000000001
#
# number of rings (size 3 to 8) (size 9 to 14) (size 15 to 20)
#    0.000    0.000    5.000    3.500    0.000    9.333 
#    6.000    5.000    0.000    0.000    0.000    0.000 
#    0.000    0.000    0.000    0.000    0.000    0.000 
#
# Total GULP energy -66821.909851 kJ/mol
# GULP energy per Si atom -5568.492488 kJ/mol
# Density = 2.540428 g / cm^3
# Si number density = 25.462229 Si / 1000 Ang^3
#
#
#
# Elastic Constant Matrix: (Units=GPa)
#
#
# Indices 1 2 3 4 5 6 
#
# 1 69.4989 26.5877 26.7773 0.0000 0.0000 0.0000
# 2 26.5877 191.6637 47.5627 0.0000 0.0000 0.0000
# 3 26.7773 47.5627 144.2816 0.0000 0.0000 0.0000
# 4 0.0000 0.0000 0.0000 23.9867 0.0000 0.0000
# 5 0.0000 0.0000 0.0000 0.0000 27.5111 0.0000
# 6 0.0000 0.0000 0.0000 0.0000 0.0000 25.5503
#
#
#
# Elastic Compliance Matrix: (Units=1/GPa)
#
#
# Indices 1 2 3 4 5 6 
#
# 1 0.015940 -0.001609 -0.002428 0.000000 0.000000 0.000000
# 2 -0.001609 0.005845 -0.001628 0.000000 0.000000 0.000000
# 3 -0.002428 -0.001628 0.007918 0.000000 0.000000 0.000000
# 4 0.000000 0.000000 0.000000 0.041690 0.000000 0.000000
# 5 0.000000 0.000000 0.000000 0.000000 0.036349 0.000000
# 6 0.000000 0.000000 0.000000 0.000000 0.000000 0.039138
#
#
# Mechanical properties :
#
#
# Convention : Reuss Voigt Hill
#
# Bulk Modulus (GPa) = 54.42770 67.47772 60.95271
# Shear Modulus (GPa) = 30.42592 35.71072 33.06832
#
# Velocity S-wave (km/s) = 3.46055 3.74906 3.60769
# Velocity P-wave (km/s) = 6.11469 6.73047 6.42995
#
# Compressibility (1/GPa) = 0.01837300
#
# Stress axis : x y z
#
# Youngs Moduli (GPa) = 62.73685 171.09632 126.29106
#
# Poissons Ratio (x) = 0.27523 0.30663
# Poissons Ratio (y) = 0.10092 0.20562
# Poissons Ratio (z) = 0.15232 0.27857
#
# Static dielectric constant tensor:
#      x y z
#    x 2.060810 0.000000 0.000000 
#    y 0.000000 1.974210 0.000000 
#    z 0.000000 0.000000 2.160180 
# 
# From -- ./inp_files/24060.got.cif
#   From: 2010.05.17/outbox.cif.g08.bks.cpg/sg23_13_cif.got.tgz:24060.got - 2010.06.04 12:02:01.
