data_PCOD9332959
_publ_section_title
;
Structure prediction by ZEFSAII (Michael W. Deem and Ramdas Pophale) SiO2 
 PCOD9332959
Probable space group: I 21 21 21
;
_chemical_formula_sum "Si O2"
_cell_formula_units_Z 60
_cell_length_a 29.475129
_cell_length_b 5.284686
_cell_length_c 20.150540
_cell_angle_alpha 90.000000
_cell_angle_beta 90.000000
_cell_angle_gamma 90.000000
_cell_volume 3138.785166
_symmetry_space_group_name_H-M "I 21 21 21"
_symmetry_group_IT_number 24
_symmetry_cell_setting 'orthorhombic'
loop_
_space_group_symop_operation_xyz
x,y,z
-x,1/2-y,z
x,-y,1/2-z
1/2-x,y,-z
1/2+x,1/2+y,1/2+z
1/2-x,-y,1/2+z
1/2+x,1/2-y,-z
-x,1/2+y,1/2-z
loop_
_atom_site_type_symbol
_atom_site_label
_atom_site_fract_x
_atom_site_fract_y
_atom_site_fract_z
Si Si1 0.135136 0.929125 0.870362
Si Si2 0.500000 0.250000 0.467149
Si Si3 0.221319 0.333128 0.685167
Si Si4 0.830698 0.943191 0.435535
Si Si5 0.045081 0.846811 0.632315
Si Si6 0.589753 0.041354 0.471996
Si Si7 0.790509 0.540442 0.117476
Si Si8 0.789084 0.770207 0.569801
O O1 0.172095 0.795648 0.823645
O O2 0.119672 0.748613 0.931618
O O3 0.088401 0.015604 0.835351
O O4 0.163464 0.159603 0.902293
O O5 0.522187 0.458901 0.419090
O O6 0.456255 0.351009 0.504787
O O7 0.222435 0.500000 0.750000
O O8 0.263083 0.137737 0.681647
O O9 0.226748 0.517752 0.621659
O O10 0.879685 0.926763 0.470175
O O11 0.820315 0.715240 0.384259
O O12 0.798329 0.886802 0.498565
O O13 0.819465 0.223266 0.409369
O O14 0.069689 0.637245 0.586234
O O15 0.000000 0.750000 0.671036
O O16 0.746341 0.460700 0.073491
#
# Coordination Sequence:
#
# PCOD9332959 Si02
#       8
#     8   4   8   8   8   8   8   8
#     4  10  18  32  52  77 103 141 191 236 296 344
#     4   8  18  28  44  72 112 148 182 210 286 354
#     4  11  24  41  54  74 112 149 203 249 291 352
#     4  12  22  34  56  81 115 140 189 242 282 358
#     4   9  16  29  46  75 112 135 179 232 283 359
#     4  10  18  30  50  76 114 143 181 233 281 355
#     4  11  26  35  54  80 107 154 187 235 303 331
#     4  11  22  35  54  79 111 142 184 238 292 333
#
# _framework density 19.115677999999999
#
# number of rings (size 3 to 8) (size 9 to 14) (size 15 to 20)
#    0.000    1.600    4.000    1.200    5.600    2.133 
#    0.000    0.000    0.000    0.000    0.000    0.000 
#  322.000    0.000    0.000    0.000   12.667    7.867 
#
# Total GULP energy -167174.560318 kJ/mol
# GULP energy per Si atom -5572.485344 kJ/mol
# Density = 1.907217 g / cm^3
# Si number density = 19.115678 Si / 1000 Ang^3
#
#
#
# Elastic Constant Matrix: (Units=GPa)
#
#
# Indices 1 2 3 4 5 6 
#
# 1 77.3703 16.0626 22.7924 0.0000 0.0000 0.0000
# 2 16.0626 86.0734 17.5917 0.0000 0.0000 0.0000
# 3 22.7924 17.5917 43.7130 0.0000 0.0000 0.0000
# 4 0.0000 0.0000 0.0000 24.3408 0.0000 0.0000
# 5 0.0000 0.0000 0.0000 0.0000 6.3939 0.0000
# 6 0.0000 0.0000 0.0000 0.0000 0.0000 37.8419
#
#
#
# Elastic Compliance Matrix: (Units=1/GPa)
#
#
# Indices 1 2 3 4 5 6 
#
# 1 0.015412 -0.001344 -0.007495 0.000000 0.000000 0.000000
# 2 -0.001344 0.012776 -0.004441 0.000000 0.000000 0.000000
# 3 -0.007495 -0.004441 0.028572 0.000000 0.000000 0.000000
# 4 0.000000 0.000000 0.000000 0.041083 0.000000 0.000000
# 5 0.000000 0.000000 0.000000 0.000000 0.156400 0.000000
# 6 0.000000 0.000000 0.000000 0.000000 0.000000 0.026426
#
#
# Mechanical properties :
#
#
# Convention : Reuss Voigt Hill
#
# Bulk Modulus (GPa) = 33.11269 35.56112 34.33691
# Shear Modulus (GPa) = 15.75818 23.76264 19.76041
#
# Velocity S-wave (km/s) = 2.87428 3.52958 3.21865
# Velocity P-wave (km/s) = 5.32684 5.93752 5.64045
#
# Compressibility (1/GPa) = 0.03019990
#
# Stress axis : x y z
#
# Youngs Moduli (GPa) = 64.88512 78.26891 34.99981
#
# Poissons Ratio (x) = 0.10521 0.26232
# Poissons Ratio (y) = 0.08722 0.15543
# Poissons Ratio (z) = 0.48631 0.34758
#
# Static dielectric constant tensor:
#      x y z
#    x 1.789800 0.000000 0.000000 
#    y 0.000000 1.803240 0.000000 
#    z 0.000000 0.000000 1.655430 
# 
# From -- ./inp_files/34390.got.cif
#   From: 2010.05.17/outbox.cif.g08.bks.cpg/sg24_18_cif.got.tgz:34390.got - 2010.06.04 00:33:39.
