data_PCOD9332693
_publ_section_title
;
Structure prediction by ZEFSAII (Michael W. Deem and Ramdas Pophale) SiO2 
 PCOD9332693
Probable space group: I 21 21 21
;
_chemical_formula_sum "Si O2"
_cell_formula_units_Z 48
_cell_length_a 5.567966
_cell_length_b 9.528438
_cell_length_c 44.667704
_cell_angle_alpha 90.000000
_cell_angle_beta 90.000000
_cell_angle_gamma 90.000000
_cell_volume 2369.801209
_symmetry_space_group_name_H-M "I 21 21 21"
_symmetry_group_IT_number 24
_symmetry_cell_setting 'orthorhombic'
loop_
_space_group_symop_operation_xyz
x,y,z
-x,1/2-y,z
x,-y,1/2-z
1/2-x,y,-z
1/2+x,1/2+y,1/2+z
1/2-x,-y,1/2+z
1/2+x,1/2-y,-z
-x,1/2+y,1/2-z
loop_
_atom_site_type_symbol
_atom_site_label
_atom_site_fract_x
_atom_site_fract_y
_atom_site_fract_z
Si Si1 0.750000 0.751251 0.328504
Si Si2 0.250000 0.922739 0.097954
Si Si3 0.750000 0.102591 0.378664
Si Si4 0.249999 0.430265 0.690639
Si Si5 0.250000 0.839171 0.966447
Si Si6 0.749999 0.521794 0.785284
O O1 0.500000 0.750000 0.345851
O O2 0.749999 0.899481 0.311596
O O3 0.750001 0.622885 0.304836
O O4 0.000000 0.750000 0.345851
O O5 0.500904 0.971483 0.112245
O O6 0.250000 0.754008 0.104982
O O7 0.250000 0.939285 0.062296
O O8 0.999096 0.971483 0.112245
O O9 0.749999 0.125933 0.343166
O O10 0.503689 0.400508 0.706047
O O11 0.996310 0.400508 0.706047
O O12 0.500000 0.750000 0.964110
O O13 0.000000 0.750000 0.964110
O O14 0.250000 0.901013 0.000000
O O15 0.749999 0.500000 0.750000
#
# Coordination Sequence:
#
# PCOD9332693 Si02
#       6
#     8   8   8   8   8   8
#     4   8  16  30  49  65  83 104 129 165 216 265
#     4  10  17  30  43  60  94 125 154 192 220 245
#     4  10  18  28  46  59  87 119 153 182 222 264
#     4  10  19  32  50  67  86 111 144 175 220 284
#     4  10  16  25  41  63  84 121 168 195 221 258
#     4  10  19  33  53  68  87 105 138 179 227 282
#
# _framework density 20.254863
#
# number of rings (size 3 to 8) (size 9 to 14) (size 15 to 20)
#    0.000    2.333    3.333    1.500    0.000    0.000 
#    0.000    0.000   66.000    0.000    0.000    0.000 
#    0.000    0.000    0.000    0.000    0.000  255.000 
#
# Total GULP energy -133672.289179 kJ/mol
# GULP energy per Si atom -5569.678716 kJ/mol
# Density = 2.020876 g / cm^3
# Si number density = 20.254863 Si / 1000 Ang^3
#
#
#
# Elastic Constant Matrix: (Units=GPa)
#
#
# Indices 1 2 3 4 5 6 
#
# 1 250.8741 -4.3407 52.2597 0.0000 0.0000 0.0000
# 2 -4.3407 71.0588 -6.0750 0.0000 0.0000 0.0000
# 3 52.2597 -6.0750 145.7282 0.0000 0.0000 0.0000
# 4 0.0000 0.0000 0.0000 3.7794 0.0000 0.0000
# 5 0.0000 0.0000 0.0000 0.0000 33.3732 0.0000
# 6 0.0000 0.0000 0.0000 0.0000 0.0000 -80.2788
#
#
#
# Elastic Compliance Matrix: (Units=1/GPa)
#
#
# Indices 1 2 3 4 5 6 
#
# 1 0.004309 0.000132 -0.001540 0.000000 0.000000 0.000000
# 2 0.000132 0.014127 0.000542 0.000000 0.000000 0.000000
# 3 -0.001540 0.000542 0.007437 0.000000 0.000000 0.000000
# 4 0.000000 0.000000 0.000000 0.264590 0.000000 0.000000
# 5 0.000000 0.000000 0.000000 0.000000 0.029964 0.000000
# 6 0.000000 0.000000 0.000000 0.000000 0.000000 -0.012457
#
#
# Mechanical properties :
#
#
# Convention : Reuss Voigt Hill
#
# Bulk Modulus (GPa) = 41.42464 61.26099 51.34282
# Shear Modulus (GPa) = 15.73562 19.76256 17.74909
#
# Velocity S-wave (km/s) = 2.79028 3.12700 2.96343
# Velocity P-wave (km/s) = 5.55671 6.58394 6.09201
#
# Compressibility (1/GPa) = 0.02414022
#
# Stress axis : x y z
#
# Youngs Moduli (GPa) = 232.06718 70.78536 134.46524
#
# Poissons Ratio (x) = -0.00931 0.20705
# Poissons Ratio (y) = -0.03054 -0.07285
# Poissons Ratio (z) = 0.35734 -0.03835
#
# Static dielectric constant tensor:
#      x y z
#    x 1.839000 0.000000 0.000000 
#    y 0.000000 1.729410 0.000000 
#    z 0.000000 0.000000 1.681980 
# 
# From -- ./inp_files/37891.got.cif
#   From: 2010.05.17/outbox.cif.g08.bks.cpg/sg24_19_cif.got.tgz:37891.got - 2010.06.04 00:33:39.
