data_PCOD9332118
_publ_section_title
;
Structure prediction by ZEFSAII (Michael W. Deem and Ramdas Pophale) SiO2 
 PCOD9332118
Probable space group: I 2 2 2
;
_chemical_formula_sum "Si O2"
_cell_formula_units_Z 28
_cell_length_a 5.300012
_cell_length_b 18.037187
_cell_length_c 12.268825
_cell_angle_alpha 90.000000
_cell_angle_beta 90.000000
_cell_angle_gamma 90.000000
_cell_volume 1172.866637
_symmetry_space_group_name_H-M "I 2 2 2"
_symmetry_group_IT_number 23
_symmetry_cell_setting 'orthorhombic'
loop_
_space_group_symop_operation_xyz
x,y,z
-x,-y,z
x,-y,-z
-x,y,-z
1/2+x,1/2+y,1/2+z
1/2-x,1/2-y,1/2+z
1/2+x,1/2-y,1/2-z
1/2-x,1/2+y,1/2-z
loop_
_atom_site_type_symbol
_atom_site_label
_atom_site_fract_x
_atom_site_fract_y
_atom_site_fract_z
Si Si1 0.500000 0.700519 0.500000
Si Si2 0.254791 0.042972 0.324917
Si Si3 0.231711 0.220419 0.314573
Si Si4 0.722014 0.071078 0.925159
O O1 0.701729 0.747132 0.433890
O O2 0.403762 0.640622 0.412294
O O3 0.232751 0.131823 0.336988
O O4 0.287410 0.038208 0.194055
O O5 0.500000 0.000000 0.371162
O O6 0.000000 0.000000 0.357005
O O7 0.471359 0.245501 0.236333
O O8 0.500000 0.105023 0.000000
O O9 0.772169 0.000000 0.000000
#
# Coordination Sequence:
#
# PCOD9332118 Si02
#       4
#     4   8   8   8
#     4  12  25  42  69 100 146 182 240 288 361 414
#     4  12  24  44  67 100 141 183 231 289 351 426
#     4  12  27  46  71 106 147 189 240 297 358 430
#     4  11  21  36  66 104 139 176 221 291 369 431
#
# _framework density 23.873134
#
# number of rings (size 3 to 8) (size 9 to 14) (size 15 to 20)
#    0.000    0.286    5.714    5.571    0.000    0.000 
#    0.000    0.714    0.000    1.714    0.000    0.000 
#    0.000    0.000    0.000    0.000    0.000    0.000 
#
# Total GULP energy -77964.652656 kJ/mol
# GULP energy per Si atom -5568.903761 kJ/mol
# Density = 2.381880 g / cm^3
# Si number density = 23.873134 Si / 1000 Ang^3
#
#
#
# Elastic Constant Matrix: (Units=GPa)
#
#
# Indices 1 2 3 4 5 6 
#
# 1 163.8084 86.5126 0.8590 0.0000 0.0000 0.0000
# 2 86.5126 250.6036 19.6126 0.0000 0.0000 0.0000
# 3 0.8590 19.6126 61.1609 0.0000 0.0000 0.0000
# 4 0.0000 0.0000 0.0000 35.0063 0.0000 0.0000
# 5 0.0000 0.0000 0.0000 0.0000 8.7888 0.0000
# 6 0.0000 0.0000 0.0000 0.0000 0.0000 46.1908
#
#
#
# Elastic Compliance Matrix: (Units=1/GPa)
#
#
# Indices 1 2 3 4 5 6 
#
# 1 0.007499 -0.002647 0.000743 0.000000 0.000000 0.000000
# 2 -0.002647 0.005027 -0.001575 0.000000 0.000000 0.000000
# 3 0.000743 -0.001575 0.016845 0.000000 0.000000 0.000000
# 4 0.000000 0.000000 0.000000 0.028566 0.000000 0.000000
# 5 0.000000 0.000000 0.000000 0.000000 0.113782 0.000000
# 6 0.000000 0.000000 0.000000 0.000000 0.000000 0.021649
#
#
# Mechanical properties :
#
#
# Convention : Reuss Voigt Hill
#
# Bulk Modulus (GPa) = 44.61449 76.61570 60.61509
# Shear Modulus (GPa) = 24.06203 42.56974 33.31589
#
# Velocity S-wave (km/s) = 3.17821 4.22734 3.73974
# Velocity P-wave (km/s) = 5.67422 7.48262 6.64027
#
# Compressibility (1/GPa) = 0.02241424
#
# Stress axis : x y z
#
# Youngs Moduli (GPa) = 133.35665 198.91134 59.36506
#
# Poissons Ratio (x) = 0.52649 -0.04414
# Poissons Ratio (y) = 0.35298 0.09350
# Poissons Ratio (z) = -0.09914 0.31328
#
# Static dielectric constant tensor:
#      x y z
#    x 1.999310 0.000000 0.000000 
#    y 0.000000 1.857900 0.000000 
#    z 0.000000 0.000000 2.132150 
# 
# From -- ./inp_files/18957.got.cif
#   From: 2010.05.17/outbox.cif.g08.bks.cpg/sg23_10_cif.got.tgz:18957.got - 2010.06.04 12:02:01.
