data_PCOD9332955
_publ_section_title
;
Structure prediction by ZEFSAII (Michael W. Deem and Ramdas Pophale) SiO2 
 PCOD9332955
Probable space group: I 21 21 21
;
_chemical_formula_sum "Si O2"
_cell_formula_units_Z 52
_cell_length_a 28.638060
_cell_length_b 9.882248
_cell_length_c 7.519965
_cell_angle_alpha 90.000000
_cell_angle_beta 90.000000
_cell_angle_gamma 90.000000
_cell_volume 2128.213347
_symmetry_space_group_name_H-M "I 21 21 21"
_symmetry_group_IT_number 24
_symmetry_cell_setting 'orthorhombic'
loop_
_space_group_symop_operation_xyz
x,y,z
-x,1/2-y,z
x,-y,1/2-z
1/2-x,y,-z
1/2+x,1/2+y,1/2+z
1/2-x,-y,1/2+z
1/2+x,1/2-y,-z
-x,1/2+y,1/2-z
loop_
_atom_site_type_symbol
_atom_site_label
_atom_site_fract_x
_atom_site_fract_y
_atom_site_fract_z
Si Si1 0.901618 0.000000 0.250000
Si Si2 0.042160 0.863466 0.004019
Si Si3 0.966747 0.051782 0.949766
Si Si4 0.592321 0.695988 0.360225
Si Si5 0.289718 0.665285 0.723165
Si Si6 0.125259 0.802065 0.271985
Si Si7 0.812992 0.845041 0.695542
O O1 0.931886 0.029459 0.423572
O O2 0.877433 0.861533 0.297275
O O3 0.065377 0.862231 0.809069
O O4 0.000000 0.750000 0.012139
O O5 0.083088 0.839545 0.143581
O O6 0.016769 0.008915 0.024609
O O7 0.946679 0.201938 0.943390
O O8 0.964402 0.000000 0.750000
O O9 0.615412 0.628725 0.536774
O O10 0.637971 0.769862 0.276187
O O11 0.295357 0.500000 0.750000
O O12 0.321938 0.789872 0.799571
O O13 0.236338 0.691845 0.784736
O O14 0.299134 0.674870 0.510896
O O15 0.822242 0.000000 0.750000
#
# Coordination Sequence:
#
# PCOD9332955 Si02
#       7
#     4   8   8   8   8   8   8
#     4  10  18  30  50  66  92 134 174 210 254 298
#     4  12  23  34  51  75 101 142 194 220 255 314
#     4  11  21  35  50  72  99 138 180 223 256 304
#     4  10  22  36  53  72 106 146 179 222 270 312
#     4   9  17  29  46  72  99 136 173 215 259 320
#     4  10  20  33  49  70 101 137 179 215 260 311
#     4   9  18  29  47  72 101 134 177 209 261 324
#
# _framework density 24.43364
#
# number of rings (size 3 to 8) (size 9 to 14) (size 15 to 20)
#    0.000    1.846    3.846    0.462    2.154    1.846 
#    0.000    0.000    0.000    0.000    0.000    0.000 
#    0.000    0.000   31.385    0.000    1.231    0.000 
#
# Total GULP energy -144883.132478 kJ/mol
# GULP energy per Si atom -5572.428172 kJ/mol
# Density = 2.437803 g / cm^3
# Si number density = 24.433640 Si / 1000 Ang^3
#
#
#
# Elastic Constant Matrix: (Units=GPa)
#
#
# Indices 1 2 3 4 5 6 
#
# 1 159.8943 42.3788 29.7882 0.0000 0.0000 0.0000
# 2 42.3788 51.2747 2.1142 0.0000 0.0000 0.0000
# 3 29.7882 2.1142 76.3672 0.0000 0.0000 0.0000
# 4 0.0000 0.0000 0.0000 10.4339 0.0000 0.0000
# 5 0.0000 0.0000 0.0000 0.0000 33.6213 0.0000
# 6 0.0000 0.0000 0.0000 0.0000 0.0000 -55.9364
#
#
#
# Elastic Compliance Matrix: (Units=1/GPa)
#
#
# Indices 1 2 3 4 5 6 
#
# 1 0.008729 -0.007082 -0.003209 0.000000 0.000000 0.000000
# 2 -0.007082 0.025271 0.002063 0.000000 0.000000 0.000000
# 3 -0.003209 0.002063 0.014289 0.000000 0.000000 0.000000
# 4 0.000000 0.000000 0.000000 0.095842 0.000000 0.000000
# 5 0.000000 0.000000 0.000000 0.000000 0.029743 0.000000
# 6 0.000000 0.000000 0.000000 0.000000 0.000000 -0.017877
#
#
# Mechanical properties :
#
#
# Convention : Reuss Voigt Hill
#
# Bulk Modulus (GPa) = 31.41381 48.45539 39.93460
# Shear Modulus (GPa) = 27.31283 11.84075 19.57679
#
# Velocity S-wave (km/s) = 3.34703 2.20377 2.83366
# Velocity P-wave (km/s) = 5.27461 5.13322 5.20440
#
# Compressibility (1/GPa) = 0.03183313
#
# Stress axis : x y z
#
# Youngs Moduli (GPa) = 114.56014 39.57057 69.98309
#
# Poissons Ratio (x) = 0.28025 0.22456
# Poissons Ratio (y) = 0.81135 -0.14437
# Poissons Ratio (z) = 0.36760 -0.08163
#
# Static dielectric constant tensor:
#      x y z
#    x 2.235030 0.000000 0.000000 
#    y 0.000000 2.000690 0.000000 
#    z 0.000000 0.000000 1.962520 
# 
# From -- ./inp_files/16941.got.cif
#   From: 2010.05.17/outbox.cif.g08.bks.cpg/sg24_9_cif.got.tgz:16941.got - 2010.06.04 00:33:39.
