data_PCOD9332931
_publ_section_title
;
Structure prediction by ZEFSAII (Michael W. Deem and Ramdas Pophale) SiO2 
 PCOD9332931
Probable space group: I 21 21 21
;
_chemical_formula_sum "Si O2"
_cell_formula_units_Z 40
_cell_length_a 13.854773
_cell_length_b 19.496695
_cell_length_c 5.456651
_cell_angle_alpha 90.000000
_cell_angle_beta 90.000000
_cell_angle_gamma 90.000000
_cell_volume 1473.963028
_symmetry_space_group_name_H-M "I 21 21 21"
_symmetry_group_IT_number 24
_symmetry_cell_setting 'orthorhombic'
loop_
_space_group_symop_operation_xyz
x,y,z
-x,1/2-y,z
x,-y,1/2-z
1/2-x,y,-z
1/2+x,1/2+y,1/2+z
1/2-x,-y,1/2+z
1/2+x,1/2-y,-z
-x,1/2+y,1/2-z
loop_
_atom_site_type_symbol
_atom_site_label
_atom_site_fract_x
_atom_site_fract_y
_atom_site_fract_z
Si Si1 0.693543 0.417231 0.758268
Si Si2 0.112526 0.748143 0.948464
Si Si3 0.858141 0.914439 0.917458
Si Si4 0.147695 0.263349 0.050511
Si Si5 0.467122 0.598508 0.595906
O O1 0.698778 0.500000 0.750000
O O2 0.750000 0.397902 0.500000
O O3 0.580016 0.405440 0.836365
O O4 0.750000 0.393615 0.000000
O O5 0.144786 0.669214 0.920640
O O6 0.127020 0.781010 0.686476
O O7 0.000000 0.750000 0.989483
O O8 0.159626 0.775256 0.194176
O O9 0.913901 0.929862 0.656439
O O10 0.750000 0.938211 0.000000
O O11 0.920816 0.930945 0.155567
O O12 0.066734 0.321340 0.080594
O O13 0.250000 0.299365 0.000000
#
# Coordination Sequence:
#
# PCOD9332931 Si02
#       5
#     8   8   8   8   8
#     4  10  21  37  57  81 107 140 181 221 263 314
#     4  10  18  29  48  71 100 135 173 214 252 299
#     4  10  19  33  55  82 106 138 180 217 266 327
#     4  10  19  33  53  77 101 135 178 214 262 322
#     4  10  18  32  56  79 104 138 176 220 262 316
#
# _framework density 27.137723000000001
#
# number of rings (size 3 to 8) (size 9 to 14) (size 15 to 20)
#    0.000    2.000    0.000    7.800    0.000    0.000 
#    0.000    0.000    0.000   66.000    0.000    0.000 
#    0.000    0.000    0.000    0.000    0.000    0.000 
#
# Total GULP energy -111609.967277 kJ/mol
# GULP energy per Si atom -5580.498364 kJ/mol
# Density = 2.707596 g / cm^3
# Si number density = 27.137723 Si / 1000 Ang^3
#
#
#
# Elastic Constant Matrix: (Units=GPa)
#
#
# Indices 1 2 3 4 5 6 
#
# 1 269.4573 27.9638 149.8595 0.0000 0.0000 0.0000
# 2 27.9638 67.7063 55.4569 0.0000 0.0000 0.0000
# 3 149.8595 55.4569 380.5009 0.0000 0.0000 0.0000
# 4 0.0000 0.0000 0.0000 43.3151 0.0000 0.0000
# 5 0.0000 0.0000 0.0000 0.0000 56.8545 0.0000
# 6 0.0000 0.0000 0.0000 0.0000 0.0000 5.7282
#
#
#
# Elastic Compliance Matrix: (Units=1/GPa)
#
#
# Indices 1 2 3 4 5 6 
#
# 1 0.004766 -0.000489 -0.001806 0.000000 0.000000 0.000000
# 2 -0.000489 0.016822 -0.002259 0.000000 0.000000 0.000000
# 3 -0.001806 -0.002259 0.003669 0.000000 0.000000 0.000000
# 4 0.000000 0.000000 0.000000 0.023087 0.000000 0.000000
# 5 0.000000 0.000000 0.000000 0.000000 0.017589 0.000000
# 6 0.000000 0.000000 0.000000 0.000000 0.000000 0.174575
#
#
# Mechanical properties :
#
#
# Convention : Reuss Voigt Hill
#
# Bulk Modulus (GPa) = 61.92553 131.58055 96.75304
# Shear Modulus (GPa) = 19.60796 53.47186 36.53991
#
# Velocity S-wave (km/s) = 2.69092 4.44372 3.67340
# Velocity P-wave (km/s) = 5.70292 8.65565 7.32952
#
# Compressibility (1/GPa) = 0.01614843
#
# Stress axis : x y z
#
# Youngs Moduli (GPa) = 209.80681 59.44548 272.58381
#
# Poissons Ratio (x) = 0.02909 0.49225
# Poissons Ratio (y) = 0.10268 0.61577
# Poissons Ratio (z) = 0.37888 0.13429
#
# Static dielectric constant tensor:
#      x y z
#    x 2.111580 0.000000 0.000000 
#    y 0.000000 2.208290 0.000000 
#    z 0.000000 0.000000 2.239660 
# 
# From -- ./inp_files/2476.got.cif
#   From: 2010.05.17/outbox.cif.g08.bks.cpg/sg24_2_cif.got.tgz:2476.got - 2010.06.04 00:33:39.
