data_PCOD9332242
_publ_section_title
;
Structure prediction by ZEFSAII (Michael W. Deem and Ramdas Pophale) SiO2 
 PCOD9332242
Probable space group: I 2 2 2
;
_chemical_formula_sum "Si O2"
_cell_formula_units_Z 34
_cell_length_a 5.204574
_cell_length_b 11.644492
_cell_length_c 23.232802
_cell_angle_alpha 90.000000
_cell_angle_beta 90.000000
_cell_angle_gamma 90.000000
_cell_volume 1408.015144
_symmetry_space_group_name_H-M "I 2 2 2"
_symmetry_group_IT_number 23
_symmetry_cell_setting 'orthorhombic'
loop_
_space_group_symop_operation_xyz
x,y,z
-x,-y,z
x,-y,-z
-x,y,-z
1/2+x,1/2+y,1/2+z
1/2-x,1/2-y,1/2+z
1/2+x,1/2-y,1/2-z
1/2-x,1/2+y,1/2-z
loop_
_atom_site_type_symbol
_atom_site_label
_atom_site_fract_x
_atom_site_fract_y
_atom_site_fract_z
Si Si1 0.363898 0.619853 0.921017
Si Si2 0.301071 0.897951 0.293540
Si Si3 0.000000 0.500000 0.000000
Si Si4 0.508924 0.128581 0.896799
Si Si5 0.987814 0.843952 0.818685
O O1 0.500000 0.500000 0.940495
O O2 0.357985 0.610877 0.852312
O O3 0.445790 0.752032 0.931829
O O4 0.100074 0.594608 0.953171
O O5 0.129830 0.903454 0.237289
O O6 0.468576 0.783248 0.294980
O O7 0.500000 0.000000 0.296576
O O8 0.236514 0.148594 0.865741
O O9 0.743534 0.121464 0.849492
O O10 0.500000 0.000000 0.924032
#
# Coordination Sequence:
#
# PCOD9332242 Si02
#       5
#     8   8   2   8   8
#     4  11  25  45  75 102 140 188 247 307 372 423
#     4  11  22  41  65 100 143 194 244 287 351 437
#     4  12  26  52  72 112 132 192 254 338 366 418
#     4  11  25  44  71 108 148 194 232 291 368 444
#     4  11  24  40  64 105 152 193 237 286 350 440
#
# _framework density 24.147466000000001
#
# number of rings (size 3 to 8) (size 9 to 14) (size 15 to 20)
#    0.000    0.941    1.176    6.000    3.294    5.647 
#    0.000    0.000    0.000    4.235    0.000    0.000 
#    0.000    0.000    0.000    0.000    0.000    0.000 
#
# Total GULP energy -94813.424275 kJ/mol
# GULP energy per Si atom -5577.260251 kJ/mol
# Density = 2.409251 g / cm^3
# Si number density = 24.147466 Si / 1000 Ang^3
#
#
#
# Elastic Constant Matrix: (Units=GPa)
#
#
# Indices 1 2 3 4 5 6 
#
# 1 61.4822 31.1870 -14.3778 0.0000 0.0000 0.0000
# 2 31.1870 247.9993 4.1436 0.0000 0.0000 0.0000
# 3 -14.3778 4.1436 61.4334 0.0000 0.0000 0.0000
# 4 0.0000 0.0000 0.0000 563.7976 0.0000 0.0000
# 5 0.0000 0.0000 0.0000 0.0000 28.0316 0.0000
# 6 0.0000 0.0000 0.0000 0.0000 0.0000 58.0014
#
#
#
# Elastic Compliance Matrix: (Units=1/GPa)
#
#
# Indices 1 2 3 4 5 6 
#
# 1 0.018538 -0.002406 0.004501 0.000000 0.000000 0.000000
# 2 -0.002406 0.004349 -0.000857 0.000000 0.000000 0.000000
# 3 0.004501 -0.000857 0.017389 0.000000 0.000000 0.000000
# 4 0.000000 0.000000 0.000000 0.001774 0.000000 0.000000
# 5 0.000000 0.000000 0.000000 0.000000 0.035674 0.000000
# 6 0.000000 0.000000 0.000000 0.000000 0.000000 0.017241
#
#
# Mechanical properties :
#
#
# Convention : Reuss Voigt Hill
#
# Bulk Modulus (GPa) = 23.39062 45.86895 34.62979
# Shear Modulus (GPa) = 46.84289 153.29691 100.06990
#
# Velocity S-wave (km/s) = 4.40917 7.97631 6.44446
# Velocity P-wave (km/s) = 5.96897 10.19143 8.35146
#
# Compressibility (1/GPa) = 0.04275218
#
# Stress axis : x y z
#
# Youngs Moduli (GPa) = 53.94295 229.92715 57.50772
#
# Poissons Ratio (x) = 0.55331 -0.25884
# Poissons Ratio (y) = 0.12981 0.04926
# Poissons Ratio (z) = -0.24279 0.19695
#
# Static dielectric constant tensor:
#      x y z
#    x 1.668700 0.000000 0.000000 
#    y 0.000000 1.982570 0.000000 
#    z 0.000000 0.000000 1.847510 
# 
# From -- ./inp_files/4297.got.cif
#   From: 2010.05.17/outbox.cif.g08.bks.cpg/sg23_3_cif.got.tgz:4297.got - 2010.06.04 12:02:01.
