data_PCOD9332199
_publ_section_title
;
Structure prediction by ZEFSAII (Michael W. Deem and Ramdas Pophale) SiO2 
 PCOD9332199
Probable space group: I 2 2 2
;
_chemical_formula_sum "Si O2"
_cell_formula_units_Z 64
_cell_length_a 37.393790
_cell_length_b 17.671921
_cell_length_c 5.290553
_cell_angle_alpha 90.000000
_cell_angle_beta 90.000000
_cell_angle_gamma 90.000000
_cell_volume 3496.103777
_symmetry_space_group_name_H-M "I 2 2 2"
_symmetry_group_IT_number 23
_symmetry_cell_setting 'orthorhombic'
loop_
_space_group_symop_operation_xyz
x,y,z
-x,-y,z
x,-y,-z
-x,y,-z
1/2+x,1/2+y,1/2+z
1/2-x,1/2-y,1/2+z
1/2+x,1/2-y,1/2-z
1/2-x,1/2+y,1/2-z
loop_
_atom_site_type_symbol
_atom_site_label
_atom_site_fract_x
_atom_site_fract_y
_atom_site_fract_z
Si Si1 0.977693 0.714188 0.250478
Si Si2 0.900289 0.091493 0.661047
Si Si3 0.852348 0.262467 0.185799
Si Si4 0.230030 0.225399 0.800956
Si Si5 0.105197 0.275221 0.313338
Si Si6 0.361686 0.419407 0.337446
Si Si7 0.219812 0.954179 0.250117
Si Si8 0.520726 0.602145 0.747917
O O1 0.935385 0.693751 0.274394
O O2 0.977278 0.805991 0.243388
O O3 0.000000 0.691615 0.500000
O O4 0.000000 0.689848 0.000000
O O5 0.898573 0.183512 0.670924
O O6 0.891088 0.067486 0.377908
O O7 0.939718 0.070425 0.743963
O O8 0.872649 0.064701 0.874270
O O9 0.809347 0.264149 0.210858
O O10 0.874147 0.294738 0.426416
O O11 0.858508 0.172113 0.171990
O O12 0.869678 0.293508 0.926926
O O13 0.254025 0.260197 0.578338
O O14 0.229626 0.134576 0.755133
O O15 0.323343 0.450488 0.258012
O O16 0.231030 0.000000 0.500000
O O17 0.231569 0.000000 0.000000
O O18 0.500000 0.579881 0.500000
O O19 0.500000 0.582202 0.000000
#
# Coordination Sequence:
#
# PCOD9332199 Si02
#       8
#     8   8   8   8   8   8   8   8
#     4   9  15  21  30  47  73 107 144 183 232 285
#     4   9  15  24  37  54  79 108 139 180 232 292
#     4   9  17  28  43  62  85 117 154 193 242 295
#     4  11  22  37  56  79 106 137 172 211 260 313
#     4   9  15  24  37  54  79 113 150 189 238 291
#     4   9  17  28  43  62  85 112 143 184 236 296
#     4  11  22  37  56  79 106 132 161 202 254 307
#     4   9  15  21  30  47  73 102 133 174 226 286
#
# _framework density 18.306093000000001
#
# number of rings (size 3 to 8) (size 9 to 14) (size 15 to 20)
#    0.000    2.500    0.000    3.750    0.000   10.000 
#    0.000    0.000    0.000    0.000    0.000    0.000 
#    0.000   35.000    0.000   26.250    0.000   52.500 
#
# Total GULP energy -178510.592773 kJ/mol
# GULP energy per Si atom -5578.456024 kJ/mol
# Density = 1.826443 g / cm^3
# Si number density = 18.306093 Si / 1000 Ang^3
#
#
#
# Elastic Constant Matrix: (Units=GPa)
#
#
# Indices 1 2 3 4 5 6 
#
# 1 85.1938 -4.2144 31.2469 -0.0007 0.0004 0.0004
# 2 -4.2144 16.8516 -4.6401 -0.0003 0.0001 0.0001
# 3 31.2469 -4.6401 127.1621 -0.0006 0.0010 0.0021
# 4 -0.0007 -0.0003 -0.0006 17.0000 0.0000 0.0001
# 5 0.0004 0.0001 0.0010 0.0000 29.6120 -0.0007
# 6 0.0004 0.0001 0.0021 0.0001 -0.0007 10.8935
#
#
#
# Elastic Compliance Matrix: (Units=1/GPa)
#
#
# Indices 1 2 3 4 5 6 
#
# 1 0.012996 0.002395 -0.003106 0.000000 0.000000 0.000000
# 2 0.002395 0.060385 0.001615 0.000001 0.000000 -0.000001
# 3 -0.003106 0.001615 0.008686 0.000000 0.000000 -0.000002
# 4 0.000000 0.000001 0.000000 0.058824 0.000000 0.000000
# 5 0.000000 0.000000 0.000000 0.000000 0.033770 0.000002
# 6 0.000000 -0.000001 -0.000002 0.000000 0.000002 0.091798
#
#
# Mechanical properties :
#
#
# Convention : Reuss Voigt Hill
#
# Bulk Modulus (GPa) = 11.92256 30.44358 21.18307
# Shear Modulus (GPa) = 17.08766 25.28877 21.18821
#
# Velocity S-wave (km/s) = 3.05854 3.72080 3.40581
# Velocity P-wave (km/s) = 4.35889 5.92668 5.20219
#
# Compressibility (1/GPa) = 0.08387462
#
# Stress axis : x y z
#
# Youngs Moduli (GPa) = 76.94911 16.56036 115.12615
#
# Poissons Ratio (x) = -0.03966 0.35758
# Poissons Ratio (y) = -0.18428 -0.18593
# Poissons Ratio (z) = 0.23900 -0.02674
#
# Static dielectric constant tensor:
#      x y z
#    x 1.634940 0.000000 0.000000 
#    y 0.000000 1.663630 0.000000 
#    z 0.000000 0.000000 1.651530 
# 
# From -- ./inp_files/5453.got.cif
#   From: 2010.05.17/outbox.cif.g08.bks.cpg/sg23_3_cif.got.tgz:5453.got - 2010.06.04 12:02:01.
