data_PCOD9332912
_publ_section_title
;
Structure prediction by ZEFSAII (Michael W. Deem and Ramdas Pophale) SiO2 
 PCOD9332912
Probable space group: I 21 21 21
;
_chemical_formula_sum "Si O2"
_cell_formula_units_Z 56
_cell_length_a 8.663007
_cell_length_b 15.024610
_cell_length_c 22.902461
_cell_angle_alpha 90.000000
_cell_angle_beta 90.000000
_cell_angle_gamma 90.000000
_cell_volume 2980.945426
_symmetry_space_group_name_H-M "I 21 21 21"
_symmetry_group_IT_number 24
_symmetry_cell_setting 'orthorhombic'
loop_
_space_group_symop_operation_xyz
x,y,z
-x,1/2-y,z
x,-y,1/2-z
1/2-x,y,-z
1/2+x,1/2+y,1/2+z
1/2-x,-y,1/2+z
1/2+x,1/2-y,-z
-x,1/2+y,1/2-z
loop_
_atom_site_type_symbol
_atom_site_label
_atom_site_fract_x
_atom_site_fract_y
_atom_site_fract_z
Si Si1 0.209314 0.096105 0.660540
Si Si2 0.980455 0.000000 0.750000
Si Si3 0.040367 0.894744 0.258341
Si Si4 0.295724 0.324287 0.243069
Si Si5 0.171592 0.229105 0.874338
Si Si6 0.139668 0.930877 0.389675
Si Si7 0.500000 0.250000 0.345084
Si Si8 0.890063 0.832589 0.456199
O O1 0.329217 0.129856 0.710634
O O2 0.091138 0.035437 0.698470
O O3 0.108121 0.172212 0.628785
O O4 0.306111 0.031460 0.618591
O O5 0.876447 0.081464 0.773679
O O6 0.089117 0.892419 0.326022
O O7 0.885015 0.840150 0.249905
O O8 0.007912 0.000000 0.250000
O O9 0.326173 0.248471 0.194928
O O10 0.379231 0.299316 0.302749
O O11 0.215150 0.133313 0.900259
O O12 0.299960 0.295470 0.899595
O O13 0.000000 0.250000 0.893585
O O14 0.004657 0.910633 0.435563
O O15 0.750000 0.853986 0.500000
O O16 0.000000 0.750000 0.475436
#
# Coordination Sequence:
#
# PCOD9332912 Si02
#       8
#     8   4   8   8   8   8   4   8
#     4  10  19  33  46  66 101 137 187 239 275 317
#     4  10  18  28  44  66 102 132 180 236 262 308
#     4  10  18  30  46  67  96 136 184 232 267 317
#     4  11  19  28  43  68  95 135 186 228 270 316
#     4  11  20  29  48  70  95 131 185 230 269 322
#     4  10  19  33  49  68  95 140 182 236 275 324
#     4  10  22  30  44  68 100 138 182 246 268 320
#     4  10  21  35  51  71  99 134 187 241 282 329
#
# _framework density 18.785986000000001
#
# number of rings (size 3 to 8) (size 9 to 14) (size 15 to 20)
#    0.000    1.714    5.000    2.143    0.000    1.714 
#    0.000    0.000    0.000    0.000    0.000    0.000 
#    0.000    0.000    0.000    0.000    0.000 1640.000 
#
# Total GULP energy -156103.066301 kJ/mol
# GULP energy per Si atom -5575.109511 kJ/mol
# Density = 1.874323 g / cm^3
# Si number density = 18.785986 Si / 1000 Ang^3
#
#
#
# Elastic Constant Matrix: (Units=GPa)
#
#
# Indices 1 2 3 4 5 6 
#
# 1 136.7746 50.5244 24.4695 0.0000 0.0000 0.0000
# 2 50.5244 73.9343 16.9996 0.0000 0.0000 0.0000
# 3 24.4695 16.9996 34.2638 0.0000 0.0000 0.0000
# 4 0.0000 0.0000 0.0000 4.6617 0.0000 0.0000
# 5 0.0000 0.0000 0.0000 0.0000 21.1384 0.0000
# 6 0.0000 0.0000 0.0000 0.0000 0.0000 40.5606
#
#
#
# Elastic Compliance Matrix: (Units=1/GPa)
#
#
# Indices 1 2 3 4 5 6 
#
# 1 0.010330 -0.006054 -0.004374 0.000000 0.000000 0.000000
# 2 -0.006054 0.018815 -0.005012 0.000000 0.000000 0.000000
# 3 -0.004374 -0.005012 0.034795 0.000000 0.000000 0.000000
# 4 0.000000 0.000000 0.000000 0.214512 0.000000 0.000000
# 5 0.000000 0.000000 0.000000 0.000000 0.047307 0.000000
# 6 0.000000 0.000000 0.000000 0.000000 0.000000 0.024654
#
#
# Mechanical properties :
#
#
# Convention : Reuss Voigt Hill
#
# Bulk Modulus (GPa) = 30.24603 47.66218 38.95410
# Shear Modulus (GPa) = 12.74497 23.47076 18.10787
#
# Velocity S-wave (km/s) = 2.60749 3.53849 3.10805
# Velocity P-wave (km/s) = 5.02002 6.49005 5.80178
#
# Compressibility (1/GPa) = 0.03306219
#
# Stress axis : x y z
#
# Youngs Moduli (GPa) = 96.80600 53.15019 28.73959
#
# Poissons Ratio (x) = 0.32175 0.12570
# Poissons Ratio (y) = 0.58602 0.14403
# Poissons Ratio (z) = 0.42340 0.26636
#
# Static dielectric constant tensor:
#      x y z
#    x 1.687720 0.000000 0.000000 
#    y 0.000000 1.733420 0.000000 
#    z 0.000000 0.000000 1.663680 
# 
# From -- ./inp_files/32869.got.cif
#   From: 2010.05.17/outbox.cif.g08.bks.cpg/sg24_17_cif.got.tgz:32869.got - 2010.06.04 00:33:39.
