data_PCOD9332214
_publ_section_title
;
Structure prediction by ZEFSAII (Michael W. Deem and Ramdas Pophale) SiO2 
 PCOD9332214
Probable space group: I 2 2 2
;
_chemical_formula_sum "Si O2"
_cell_formula_units_Z 40
_cell_length_a 12.363883
_cell_length_b 13.220841
_cell_length_c 10.592955
_cell_angle_alpha 90.000000
_cell_angle_beta 90.000000
_cell_angle_gamma 90.000000
_cell_volume 1731.534289
_symmetry_space_group_name_H-M "I 2 2 2"
_symmetry_group_IT_number 23
_symmetry_cell_setting 'orthorhombic'
loop_
_space_group_symop_operation_xyz
x,y,z
-x,-y,z
x,-y,-z
-x,y,-z
1/2+x,1/2+y,1/2+z
1/2-x,1/2-y,1/2+z
1/2+x,1/2-y,1/2-z
1/2-x,1/2+y,1/2-z
loop_
_atom_site_type_symbol
_atom_site_label
_atom_site_fract_x
_atom_site_fract_y
_atom_site_fract_z
Si Si1 0.825908 0.618451 0.489534
Si Si2 0.071824 0.749212 0.722352
Si Si3 0.598066 0.702564 0.400079
Si Si4 0.281932 0.873815 0.727802
Si Si5 0.890767 0.548374 0.139288
O O1 0.851201 0.500000 0.500000
O O2 0.908482 0.680197 0.401004
O O3 0.703153 0.636662 0.435598
O O4 0.823598 0.655551 0.633721
O O5 0.162186 0.834207 0.716032
O O6 0.101559 0.666793 0.833362
O O7 0.963082 0.805558 0.765236
O O8 0.500000 0.689309 0.500000
O O9 0.648984 0.814734 0.378854
O O10 0.293376 0.993438 0.710375
O O11 0.000000 0.500000 0.197534
O O12 0.886821 0.500000 0.000000
#
# Coordination Sequence:
#
# PCOD9332214 Si02
#       5
#     8   8   8   8   8
#     4  11  24  42  65  99 136 173 226 290 339 405
#     4  11  23  40  63  97 135 172 222 276 347 413
#     4  11  22  42  66  91 131 176 223 269 348 413
#     4  11  23  39  63  98 129 175 224 280 344 410
#     4  11  22  38  66  94 128 168 224 274 338 410
#
# _framework density 23.100901
#
# number of rings (size 3 to 8) (size 9 to 14) (size 15 to 20)
#    0.000    1.000    6.000    1.200    2.800    1.200 
#    0.000    2.000    0.000    0.000    0.000    1.400 
#    0.000    0.000    0.000    0.000    0.000    0.000 
#
# Total GULP energy -111544.331423 kJ/mol
# GULP energy per Si atom -5577.216571 kJ/mol
# Density = 2.304832 g / cm^3
# Si number density = 23.100901 Si / 1000 Ang^3
#
#
#
# Elastic Constant Matrix: (Units=GPa)
#
#
# Indices 1 2 3 4 5 6 
#
# 1 82.3409 18.0409 17.6796 0.0000 0.0000 0.0000
# 2 18.0409 59.9002 5.5884 0.0000 0.0000 0.0000
# 3 17.6796 5.5884 111.4644 0.0000 0.0000 0.0000
# 4 0.0000 0.0000 0.0000 29.7240 0.0000 0.0000
# 5 0.0000 0.0000 0.0000 0.0000 40.6377 0.0000
# 6 0.0000 0.0000 0.0000 0.0000 0.0000 20.8156
#
#
#
# Elastic Compliance Matrix: (Units=1/GPa)
#
#
# Indices 1 2 3 4 5 6 
#
# 1 0.013405 -0.003857 -0.001933 0.000000 0.000000 0.000000
# 2 -0.003857 0.017883 -0.000285 0.000000 0.000000 0.000000
# 3 -0.001933 -0.000285 0.009292 0.000000 0.000000 0.000000
# 4 0.000000 0.000000 0.000000 0.033643 0.000000 0.000000
# 5 0.000000 0.000000 0.000000 0.000000 0.024608 0.000000
# 6 0.000000 0.000000 0.000000 0.000000 0.000000 0.048041
#
#
# Mechanical properties :
#
#
# Convention : Reuss Voigt Hill
#
# Bulk Modulus (GPa) = 35.17337 37.36927 36.27132
# Shear Modulus (GPa) = 29.67409 32.39522 31.03465
#
# Velocity S-wave (km/s) = 3.58794 3.74884 3.66927
# Velocity P-wave (km/s) = 5.69416 5.91186 5.80403
#
# Compressibility (1/GPa) = 0.02843060
#
# Stress axis : x y z
#
# Youngs Moduli (GPa) = 74.60081 55.92009 107.61584
#
# Poissons Ratio (x) = 0.21568 0.20800
# Poissons Ratio (y) = 0.28773 0.03065
# Poissons Ratio (z) = 0.14419 0.01593
#
# Static dielectric constant tensor:
#      x y z
#    x 1.903030 0.000000 0.000000 
#    y 0.000000 1.824910 0.000000 
#    z 0.000000 0.000000 1.992530 
# 
# From -- ./inp_files/15541.got.cif
#   From: 2010.05.17/outbox.cif.g08.bks.cpg/sg23_8_cif.got.tgz:15541.got - 2010.06.04 12:02:01.
