data_PCOD9332549
_publ_section_title
;
Structure prediction by ZEFSAII (Michael W. Deem and Ramdas Pophale) SiO2 
 PCOD9332549
Probable space group: I 2 2 2
;
_chemical_formula_sum "Si O2"
_cell_formula_units_Z 36
_cell_length_a 7.651964
_cell_length_b 16.315786
_cell_length_c 11.201699
_cell_angle_alpha 90.000000
_cell_angle_beta 90.000000
_cell_angle_gamma 90.000000
_cell_volume 1398.507556
_symmetry_space_group_name_H-M "I 2 2 2"
_symmetry_group_IT_number 23
_symmetry_cell_setting 'orthorhombic'
loop_
_space_group_symop_operation_xyz
x,y,z
-x,-y,z
x,-y,-z
-x,y,-z
1/2+x,1/2+y,1/2+z
1/2-x,1/2-y,1/2+z
1/2+x,1/2-y,1/2-z
1/2-x,1/2+y,1/2-z
loop_
_atom_site_type_symbol
_atom_site_label
_atom_site_fract_x
_atom_site_fract_y
_atom_site_fract_z
Si Si1 0.841643 0.632849 0.167850
Si Si2 0.854503 0.927383 0.167964
Si Si3 0.681969 0.353345 0.067951
Si Si4 0.500000 0.000000 0.838217
Si Si5 0.902559 0.217956 0.156300
O O1 0.890092 0.560447 0.255025
O O2 0.674891 0.678043 0.224861
O O3 0.992332 0.699390 0.176814
O O4 0.810268 0.609295 0.031820
O O5 0.819256 0.901729 0.306715
O O6 0.665598 0.948574 0.107656
O O7 0.952881 0.847776 0.115704
O O8 0.000000 0.000000 0.160279
O O9 0.739884 0.257549 0.084406
O O10 0.500000 0.359229 0.000000
#
# Coordination Sequence:
#
# PCOD9332549 Si02
#       5
#     8   8   8   4   8
#     4  12  23  42  69 103 138 180 224 290 349 420
#     4  12  25  43  68 104 145 185 226 293 350 423
#     4  12  24  42  69 105 140 185 231 285 353 423
#     4  12  24  41  70 104 143 182 224 289 364 422
#     4  12  23  44  65 101 145 183 233 282 354 421
#
# _framework density 25.741727000000001
#
# number of rings (size 3 to 8) (size 9 to 14) (size 15 to 20)
#    0.000    0.000    8.889    0.667    0.000    4.000 
#    0.000    0.000    0.000    2.667    0.000    0.000 
#    0.000    0.000    0.000    0.000    0.000    0.000 
#
# Total GULP energy -100612.060823 kJ/mol
# GULP energy per Si atom -5589.558935 kJ/mol
# Density = 2.568314 g / cm^3
# Si number density = 25.741727 Si / 1000 Ang^3
#
#
#
# Elastic Constant Matrix: (Units=GPa)
#
#
# Indices 1 2 3 4 5 6 
#
# 1 150.4970 -2.3137 1.0178 0.0000 0.0000 0.0000
# 2 -2.3137 77.3602 -22.0956 0.0000 0.0001 0.0000
# 3 1.0178 -22.0956 74.9958 -0.0001 0.0003 0.0000
# 4 0.0000 0.0000 -0.0001 252.2418 -0.0004 0.0000
# 5 0.0000 0.0001 0.0003 -0.0004 -81.8178 0.0000
# 6 0.0000 0.0000 0.0000 0.0000 0.0000 44.5209
#
#
#
# Elastic Compliance Matrix: (Units=1/GPa)
#
#
# Indices 1 2 3 4 5 6 
#
# 1 0.006648 0.000189 -0.000035 0.000000 0.000000 0.000000
# 2 0.000189 0.014120 0.004157 0.000000 0.000000 0.000000
# 3 -0.000035 0.004157 0.014559 0.000000 0.000000 0.000000
# 4 0.000000 0.000000 0.000000 0.003964 0.000000 0.000000
# 5 0.000000 0.000000 0.000000 0.000000 -0.012222 0.000000
# 6 0.000000 0.000000 0.000000 0.000000 0.000000 0.022461
#
#
# Mechanical properties :
#
#
# Convention : Reuss Voigt Hill
#
# Bulk Modulus (GPa) = 22.75285 28.45221 25.60253
# Shear Modulus (GPa) = 89.99784 64.73861 77.36823
#
# Velocity S-wave (km/s) = 5.91927 5.02035 5.48824
# Velocity P-wave (km/s) = 7.45487 6.68447 7.08016
#
# Compressibility (1/GPa) = 0.04395055
#
# Stress axis : x y z
#
# Youngs Moduli (GPa) = 150.42589 70.82329 68.68400
#
# Poissons Ratio (x) = -0.01338 0.00237
# Poissons Ratio (y) = -0.02842 -0.28555
# Poissons Ratio (z) = 0.00520 -0.29444
#
# Static dielectric constant tensor:
#      x y z
#    x 2.190070 0.000000 0.000000 
#    y 0.000000 2.003980 0.000000 
#    z 0.000000 0.000000 2.039830 
# 
# From -- ./inp_files/19724.got.cif
#   From: 2010.05.17/outbox.cif.g08.bks.cpg/sg23_10_cif.got.tgz:19724.got - 2010.06.04 12:02:01.
