data_PCOD9332934
_publ_section_title
;
Structure prediction by ZEFSAII (Michael W. Deem and Ramdas Pophale) SiO2 
 PCOD9332934
Probable space group: I 21 21 21
;
_chemical_formula_sum "Si O2"
_cell_formula_units_Z 40
_cell_length_a 9.821134
_cell_length_b 21.785755
_cell_length_c 7.611547
_cell_angle_alpha 90.000000
_cell_angle_beta 90.000000
_cell_angle_gamma 90.000000
_cell_volume 1628.572831
_symmetry_space_group_name_H-M "I 21 21 21"
_symmetry_group_IT_number 24
_symmetry_cell_setting 'orthorhombic'
loop_
_space_group_symop_operation_xyz
x,y,z
-x,1/2-y,z
x,-y,1/2-z
1/2-x,y,-z
1/2+x,1/2+y,1/2+z
1/2-x,-y,1/2+z
1/2+x,1/2-y,-z
-x,1/2+y,1/2-z
loop_
_atom_site_type_symbol
_atom_site_label
_atom_site_fract_x
_atom_site_fract_y
_atom_site_fract_z
Si Si1 0.271878 0.812924 0.788378
Si Si2 0.413267 0.969948 0.004479
Si Si3 0.658183 0.821087 0.240694
Si Si4 0.446619 0.642976 0.853762
Si Si5 0.561068 0.597414 0.367166
O O1 0.201251 0.749270 0.735775
O O2 0.433644 0.817363 0.765930
O O3 0.198276 0.866097 0.679455
O O4 0.250000 0.820873 0.000000
O O5 0.463032 0.941375 0.188523
O O6 0.436350 0.042721 0.993659
O O7 0.250000 0.962451 0.000000
O O8 0.490476 0.924639 0.874313
O O9 0.800309 0.857105 0.235112
O O10 0.556290 0.851852 0.377719
O O11 0.586052 0.827994 0.048214
#
# Coordination Sequence:
#
# PCOD9332934 Si02
#       5
#     8   8   8   8   8
#     4  12  17  29  49  80 112 135 173 222 278 323
#     4  10  18  34  53  70 109 145 186 217 252 329
#     4  10  20  27  49  80 114 133 168 220 284 327
#     4  10  18  29  49  76 107 144 161 214 283 318
#     4  10  20  31  51  77 109 141 182 216 264 329
#
# _framework density 24.561382999999999
#
# number of rings (size 3 to 8) (size 9 to 14) (size 15 to 20)
#    0.000    1.600    8.000    1.200    0.000    0.000 
#    0.000    0.000   30.800    0.000    0.000    5.600 
#   18.000    0.000    0.000    0.000    0.000    0.000 
#
# Total GULP energy -111871.634622 kJ/mol
# GULP energy per Si atom -5593.581731 kJ/mol
# Density = 2.450548 g / cm^3
# Si number density = 24.561383 Si / 1000 Ang^3
#
#
#
# Elastic Constant Matrix: (Units=GPa)
#
#
# Indices 1 2 3 4 5 6 
#
# 1 155.1424 88.6664 5.7422 0.0001 0.0000 0.0000
# 2 88.6664 206.9586 42.7008 -0.0005 0.0001 0.0001
# 3 5.7422 42.7008 64.1759 -0.0011 0.0006 0.0004
# 4 0.0001 -0.0005 -0.0011 4.9966 0.0003 0.0003
# 5 0.0000 0.0001 0.0006 0.0003 4.3897 0.0000
# 6 0.0000 0.0001 0.0004 0.0003 0.0000 118.1133
#
#
#
# Elastic Compliance Matrix: (Units=1/GPa)
#
#
# Indices 1 2 3 4 5 6 
#
# 1 0.008748 -0.004157 0.001983 0.000000 0.000000 0.000000
# 2 -0.004157 0.007576 -0.004669 0.000000 0.000000 0.000000
# 3 0.001983 -0.004669 0.018511 0.000004 -0.000003 0.000000
# 4 0.000000 0.000000 0.000004 0.200137 -0.000016 0.000000
# 5 0.000000 0.000000 -0.000003 -0.000016 0.227805 0.000000
# 6 0.000000 0.000000 0.000000 0.000000 0.000000 0.008466
#
#
# Mechanical properties :
#
#
# Convention : Reuss Voigt Hill
#
# Bulk Modulus (GPa) = 47.28139 77.83286 62.55713
# Shear Modulus (GPa) = 10.16302 44.77777 27.47039
#
# Velocity S-wave (km/s) = 2.03637 4.27441 3.34793
# Velocity P-wave (km/s) = 4.98208 7.49124 6.36159
#
# Compressibility (1/GPa) = 0.02114997
#
# Stress axis : x y z
#
# Youngs Moduli (GPa) = 114.30978 131.99131 54.02088
#
# Poissons Ratio (x) = 0.54871 -0.10714
# Poissons Ratio (y) = 0.47520 0.25223
# Poissons Ratio (z) = -0.22671 0.61628
#
# Static dielectric constant tensor:
#      x y z
#    x 1.907020 0.000000 0.000000 
#    y 0.000000 1.969880 0.000000 
#    z 0.000000 0.000000 1.950650 
# 
# From -- ./inp_files/11014.got.cif
#   From: 2010.05.17/outbox.cif.g08.bks.cpg/sg24_6_cif.got.tgz:11014.got - 2010.06.04 00:33:39.
