data_PCOD9332838
_publ_section_title
;
Structure prediction by ZEFSAII (Michael W. Deem and Ramdas Pophale) SiO2 
 PCOD9332838
Probable space group: I 21 21 21
;
_chemical_formula_sum "Si O2"
_cell_formula_units_Z 48
_cell_length_a 13.777756
_cell_length_b 20.323562
_cell_length_c 9.726415
_cell_angle_alpha 90.000000
_cell_angle_beta 90.000000
_cell_angle_gamma 90.000000
_cell_volume 2723.523405
_symmetry_space_group_name_H-M "I 21 21 21"
_symmetry_group_IT_number 24
_symmetry_cell_setting 'orthorhombic'
loop_
_space_group_symop_operation_xyz
x,y,z
-x,1/2-y,z
x,-y,1/2-z
1/2-x,y,-z
1/2+x,1/2+y,1/2+z
1/2-x,-y,1/2+z
1/2+x,1/2-y,-z
-x,1/2+y,1/2-z
loop_
_atom_site_type_symbol
_atom_site_label
_atom_site_fract_x
_atom_site_fract_y
_atom_site_fract_z
Si Si1 0.495509 0.326618 0.701733
Si Si2 0.950933 0.341360 0.979722
Si Si3 0.345314 0.704789 0.404502
Si Si4 0.803887 0.444571 0.860637
Si Si5 0.190562 0.858785 0.137966
Si Si6 0.217608 0.299052 0.347289
O O1 0.500000 0.250000 0.657767
O O2 0.574579 0.368505 0.617578
O O3 0.380446 0.338070 0.693452
O O4 0.537096 0.333245 0.856184
O O5 0.890267 0.277741 0.927197
O O6 0.893278 0.402947 0.920436
O O7 0.062306 0.340357 0.933000
O O8 0.250000 0.698635 0.500000
O O9 0.305788 0.689792 0.254755
O O10 0.831409 0.500000 0.750000
O O11 0.733521 0.397139 0.769284
O O12 0.750000 0.468718 0.000000
O O13 0.200982 0.780157 0.162620
O O14 0.250000 0.874467 0.000000
O O15 0.250000 0.314900 0.500000
#
# Coordination Sequence:
#
# PCOD9332838 Si02
#       6
#     8   8   8   8   8   8
#     4  10  17  32  54  81 115 160 184 220 286 344
#     4  11  20  32  58  83 114 151 195 238 274 353
#     4  11  18  32  57  87 114 149 191 229 285 351
#     4  12  24  39  57  79 112 153 201 246 290 332
#     4  10  20  34  53  78 116 156 189 231 277 342
#     4  10  20  32  50  84 126 152 181 225 285 353
#
# _framework density 17.624230000000001
#
# number of rings (size 3 to 8) (size 9 to 14) (size 15 to 20)
#    0.000    1.333    6.667    2.000    0.000    1.333 
#    6.000    0.000    0.000    0.000    0.000    8.167 
#    0.000    0.000    0.000    0.000    0.000    0.000 
#
# Total GULP energy -133678.971016 kJ/mol
# GULP energy per Si atom -5569.957126 kJ/mol
# Density = 1.758412 g / cm^3
# Si number density = 17.624230 Si / 1000 Ang^3
#
#
#
# Elastic Constant Matrix: (Units=GPa)
#
#
# Indices 1 2 3 4 5 6 
#
# 1 122.2186 28.2590 35.5009 0.0000 0.0000 0.0000
# 2 28.2590 39.2481 10.3398 0.0000 0.0000 0.0000
# 3 35.5009 10.3398 98.0725 -0.0001 0.0000 0.0000
# 4 0.0000 0.0000 -0.0001 21.0033 0.0000 0.0000
# 5 0.0000 0.0000 0.0000 0.0000 35.0427 0.0000
# 6 0.0000 0.0000 0.0000 0.0000 0.0000 9.1182
#
#
#
# Elastic Compliance Matrix: (Units=1/GPa)
#
#
# Indices 1 2 3 4 5 6 
#
# 1 0.010682 -0.006863 -0.003143 0.000000 0.000000 0.000000
# 2 -0.006863 0.030616 -0.000744 0.000000 0.000000 0.000000
# 3 -0.003143 -0.000744 0.011413 0.000000 0.000000 0.000000
# 4 0.000000 0.000000 0.000000 0.047612 0.000000 0.000000
# 5 0.000000 0.000000 0.000000 0.000000 0.028537 0.000000
# 6 0.000000 0.000000 0.000000 0.000000 0.000000 0.109671
#
#
# Mechanical properties :
#
#
# Convention : Reuss Voigt Hill
#
# Bulk Modulus (GPa) = 32.03955 45.30431 38.67193
# Shear Modulus (GPa) = 18.48885 25.39547 21.94216
#
# Velocity S-wave (km/s) = 3.24243 3.80009 3.53228
# Velocity P-wave (km/s) = 5.67772 6.70938 6.21499
#
# Compressibility (1/GPa) = 0.03121142
#
# Stress axis : x y z
#
# Youngs Moduli (GPa) = 93.61634 32.66240 87.62167
#
# Poissons Ratio (x) = 0.22416 0.27541
# Poissons Ratio (y) = 0.64249 0.06515
# Poissons Ratio (z) = 0.29425 0.02429
#
# Static dielectric constant tensor:
#      x y z
#    x 1.638190 0.000000 0.000000 
#    y 0.000000 1.599800 0.000000 
#    z 0.000000 0.000000 1.645340 
# 
# From -- ./inp_files/12975.got.cif
#   From: 2010.05.17/outbox.cif.g08.bks.cpg/sg24_7_cif.got.tgz:12975.got - 2010.06.04 00:33:39.
