data_PCOD9332671
_publ_section_title
;
Structure prediction by ZEFSAII (Michael W. Deem and Ramdas Pophale) SiO2 
 PCOD9332671
Probable space group: I 21 21 21
;
_chemical_formula_sum "Si O2"
_cell_formula_units_Z 56
_cell_length_a 25.836106
_cell_length_b 9.240055
_cell_length_c 11.883441
_cell_angle_alpha 90.000000
_cell_angle_beta 90.000000
_cell_angle_gamma 90.000000
_cell_volume 2836.898700
_symmetry_space_group_name_H-M "I 21 21 21"
_symmetry_group_IT_number 24
_symmetry_cell_setting 'orthorhombic'
loop_
_space_group_symop_operation_xyz
x,y,z
-x,1/2-y,z
x,-y,1/2-z
1/2-x,y,-z
1/2+x,1/2+y,1/2+z
1/2-x,-y,1/2+z
1/2+x,1/2-y,-z
-x,1/2+y,1/2-z
loop_
_atom_site_type_symbol
_atom_site_label
_atom_site_fract_x
_atom_site_fract_y
_atom_site_fract_z
Si Si1 0.677672 0.494651 0.382884
Si Si2 0.874425 0.131018 0.080093
Si Si3 0.287331 0.307416 0.737593
Si Si4 0.294128 0.675335 0.412596
Si Si5 0.593962 0.466987 0.954648
Si Si6 0.012001 0.577732 0.367715
Si Si7 0.164685 0.000000 0.250000
Si Si8 0.750000 0.257805 0.500000
O O1 0.679124 0.500000 0.250000
O O2 0.697100 0.651850 0.424225
O O3 0.619772 0.482727 0.430706
O O4 0.710906 0.365340 0.434966
O O5 0.833801 0.124640 0.185045
O O6 0.892528 0.298325 0.068292
O O7 0.928443 0.050287 0.098974
O O8 0.844982 0.099183 0.962587
O O9 0.232258 0.349034 0.792676
O O10 0.280700 0.322608 0.602380
O O11 0.298631 0.137996 0.763682
O O12 0.250000 0.634631 0.500000
O O13 0.532757 0.483644 0.948294
O O14 0.626793 0.538894 0.853338
O O15 0.002840 0.500000 0.250000
O O16 0.000000 0.750000 0.357001
#
# Coordination Sequence:
#
# PCOD9332671 Si02
#       8
#     8   8   8   8   8   8   4   4
#     4  11  18  23  35  63 102 143 176 205 267 340
#     4   8  18  29  44  69  96 131 175 214 264 319
#     4  10  17  24  39  66 103 137 173 214 263 324
#     4   9  15  25  38  61  98 135 167 213 257 313
#     4   9  17  27  43  66 100 134 169 221 270 327
#     4  10  19  34  55  81 105 137 178 236 288 317
#     4  10  14  24  38  64 100 136 166 212 272 324
#     4  12  18  22  38  66 106 148 178 206 274 340
#
# _framework density 19.739865999999999
#
# number of rings (size 3 to 8) (size 9 to 14) (size 15 to 20)
#    0.000    2.286    4.286    1.714    0.000    0.000 
#    0.000    0.000    0.000    0.000    9.286    1.000 
#    0.000    0.000    0.000    0.000    0.000    0.000 
#
# Total GULP energy -156001.599473 kJ/mol
# GULP energy per Si atom -5571.485695 kJ/mol
# Density = 1.969494 g / cm^3
# Si number density = 19.739866 Si / 1000 Ang^3
#
#
#
# Elastic Constant Matrix: (Units=GPa)
#
#
# Indices 1 2 3 4 5 6 
#
# 1 157.3625 18.5830 66.5903 0.0000 0.0000 0.0000
# 2 18.5830 44.5731 12.1171 0.0000 0.0000 0.0000
# 3 66.5903 12.1171 125.9231 0.0000 0.0000 0.0000
# 4 0.0000 0.0000 0.0000 10.8351 0.0000 0.0000
# 5 0.0000 0.0000 0.0000 0.0000 25.8105 0.0000
# 6 0.0000 0.0000 0.0000 0.0000 0.0000 7.9061
#
#
#
# Elastic Compliance Matrix: (Units=1/GPa)
#
#
# Indices 1 2 3 4 5 6 
#
# 1 0.008422 -0.002362 -0.004227 0.000000 0.000000 0.000000
# 2 -0.002362 0.023700 -0.001031 0.000000 0.000000 0.000000
# 3 -0.004227 -0.001031 0.010276 0.000000 0.000000 0.000000
# 4 0.000000 0.000000 0.000000 0.092292 0.000000 0.000000
# 5 0.000000 0.000000 0.000000 0.000000 0.038744 0.000000
# 6 0.000000 0.000000 0.000000 0.000000 0.000000 0.126485
#
#
# Mechanical properties :
#
#
# Convention : Reuss Voigt Hill
#
# Bulk Modulus (GPa) = 36.82183 58.04882 47.43533
# Shear Modulus (GPa) = 15.42199 24.28157 19.85178
#
# Velocity S-wave (km/s) = 2.79814 3.51105 3.17467
# Velocity P-wave (km/s) = 5.39754 6.77550 6.12539
#
# Compressibility (1/GPa) = 0.02715780
#
# Stress axis : x y z
#
# Youngs Moduli (GPa) = 118.73337 42.19357 97.31750
#
# Poissons Ratio (x) = 0.09968 0.41131
# Poissons Ratio (y) = 0.28049 0.10037
# Poissons Ratio (z) = 0.50183 0.04352
#
# Static dielectric constant tensor:
#      x y z
#    x 1.736660 0.000000 0.000000 
#    y 0.000000 1.732440 0.000000 
#    z 0.000000 0.000000 1.731790 
# 
# From -- ./inp_files/22701.got.cif
#   From: 2010.05.17/outbox.cif.g08.bks.cpg/sg24_12_cif.got.tgz:22701.got - 2010.06.04 00:33:39.
