data_PCOD9332596
_publ_section_title
;
Structure prediction by ZEFSAII (Michael W. Deem and Ramdas Pophale) SiO2 
 PCOD9332596
Probable space group: I 2 2 2
;
_chemical_formula_sum "Si O2"
_cell_formula_units_Z 30
_cell_length_a 31.231563
_cell_length_b 5.055416
_cell_length_c 7.976574
_cell_angle_alpha 90.000000
_cell_angle_beta 90.000000
_cell_angle_gamma 90.000000
_cell_volume 1259.409649
_symmetry_space_group_name_H-M "I 2 2 2"
_symmetry_group_IT_number 23
_symmetry_cell_setting 'orthorhombic'
loop_
_space_group_symop_operation_xyz
x,y,z
-x,-y,z
x,-y,-z
-x,y,-z
1/2+x,1/2+y,1/2+z
1/2-x,1/2-y,1/2+z
1/2+x,1/2-y,1/2-z
1/2-x,1/2+y,1/2-z
loop_
_atom_site_type_symbol
_atom_site_label
_atom_site_fract_x
_atom_site_fract_y
_atom_site_fract_z
Si Si1 0.100115 0.349200 0.342275
Si Si2 0.726953 0.500000 0.500000
Si Si3 0.426843 0.340103 0.338393
Si Si4 0.000000 0.500000 0.000000
Si Si5 0.197422 0.193524 0.341325
O O1 0.079529 0.500000 0.500000
O O2 0.100745 0.583943 0.206187
O O3 0.149331 0.285740 0.377337
O O4 0.075905 0.077601 0.296364
O O5 0.761217 0.624755 0.369183
O O6 0.697293 0.631966 0.641939
O O7 0.411480 0.500000 0.500000
O O8 0.471528 0.197470 0.386804
O O9 0.205058 0.000000 0.500000
#
# Coordination Sequence:
#
# PCOD9332596 Si02
#       5
#     8   4   8   2   8
#     4  12  27  49  80 115 163 206 265 330 404 470
#     4  12  26  46  74 106 156 218 280 326 418 454
#     4  12  26  50  84 115 152 208 253 323 391 490
#     4  12  26  52  88 120 166 188 280 316 402 488
#     4  12  26  48  74 111 159 215 274 347 391 479
#
# _framework density 23.820681
#
# number of rings (size 3 to 8) (size 9 to 14) (size 15 to 20)
#    0.000    0.000    6.667    2.800    1.867    0.000 
#    9.600    0.667    5.867    0.000    0.000    0.000 
#    0.000    0.000    0.000    0.000    0.000    0.000 
#
# Total GULP energy -83553.100100 kJ/mol
# GULP energy per Si atom -5570.206673 kJ/mol
# Density = 2.376646 g / cm^3
# Si number density = 23.820681 Si / 1000 Ang^3
#
#
#
# Elastic Constant Matrix: (Units=GPa)
#
#
# Indices 1 2 3 4 5 6 
#
# 1 46.7676 26.5161 -3.9113 0.0000 0.0000 0.0000
# 2 26.5161 129.6491 21.9344 0.0000 0.0000 0.0000
# 3 -3.9113 21.9344 117.9898 0.0000 0.0000 0.0000
# 4 0.0000 0.0000 0.0000 67.7669 0.0000 0.0000
# 5 0.0000 0.0000 0.0000 0.0000 39.6387 0.0000
# 6 0.0000 0.0000 0.0000 0.0000 0.0000 33.8137
#
#
#
# Elastic Compliance Matrix: (Units=1/GPa)
#
#
# Indices 1 2 3 4 5 6 
#
# 1 0.024553 -0.005327 0.001804 0.000000 0.000000 0.000000
# 2 -0.005327 0.009119 -0.001872 0.000000 0.000000 0.000000
# 3 0.001804 -0.001872 0.008883 0.000000 0.000000 0.000000
# 4 0.000000 0.000000 0.000000 0.014756 0.000000 0.000000
# 5 0.000000 0.000000 0.000000 0.000000 0.025228 0.000000
# 6 0.000000 0.000000 0.000000 0.000000 0.000000 0.029574
#
#
# Mechanical properties :
#
#
# Convention : Reuss Voigt Hill
#
# Bulk Modulus (GPa) = 31.47956 42.60944 37.04450
# Shear Modulus (GPa) = 37.45539 44.90168 41.17854
#
# Velocity S-wave (km/s) = 3.96964 4.34635 4.16226
# Velocity P-wave (km/s) = 5.85274 6.56614 6.21968
#
# Compressibility (1/GPa) = 0.03176665
#
# Stress axis : x y z
#
# Youngs Moduli (GPa) = 40.72742 109.65751 112.57326
#
# Poissons Ratio (x) = 0.58414 -0.20311
# Poissons Ratio (y) = 0.21695 0.21072
# Poissons Ratio (z) = -0.07348 0.20527
#
# Static dielectric constant tensor:
#      x y z
#    x 1.848280 0.000000 0.000000 
#    y 0.000000 1.535350 0.000000 
#    z 0.000000 0.000000 2.160770 
# 
# From -- ./inp_files/13160.got.cif
#   From: 2010.05.17/outbox.cif.g08.bks.cpg/sg23_7_cif.got.tgz:13160.got - 2010.06.04 12:02:01.
