data_PCOD9332806
_publ_section_title
;
Structure prediction by ZEFSAII (Michael W. Deem and Ramdas Pophale) SiO2 
 PCOD9332806
Probable space group: I 21 21 21
;
_chemical_formula_sum "Si O2"
_cell_formula_units_Z 48
_cell_length_a 5.054459
_cell_length_b 30.003655
_cell_length_c 16.266589
_cell_angle_alpha 90.000000
_cell_angle_beta 90.000000
_cell_angle_gamma 90.000000
_cell_volume 2466.864725
_symmetry_space_group_name_H-M "I 21 21 21"
_symmetry_group_IT_number 24
_symmetry_cell_setting 'orthorhombic'
loop_
_space_group_symop_operation_xyz
x,y,z
-x,1/2-y,z
x,-y,1/2-z
1/2-x,y,-z
1/2+x,1/2+y,1/2+z
1/2-x,-y,1/2+z
1/2+x,1/2-y,-z
-x,1/2+y,1/2-z
loop_
_atom_site_type_symbol
_atom_site_label
_atom_site_fract_x
_atom_site_fract_y
_atom_site_fract_z
Si Si1 0.490662 0.203164 0.213518
Si Si2 0.595013 0.023545 0.330254
Si Si3 0.009423 0.298308 0.093375
Si Si4 0.594275 0.493411 0.921632
Si Si5 0.455872 0.107350 0.228371
Si Si6 0.456214 0.604257 0.610387
O O1 0.500000 0.250000 0.260056
O O2 0.236076 0.202667 0.155005
O O3 0.492247 0.157396 0.262014
O O4 0.732862 0.202467 0.150004
O O5 0.509825 0.071989 0.299326
O O6 0.716064 0.000000 0.250000
O O7 0.326614 0.997323 0.353717
O O8 0.827783 0.019180 0.396707
O O9 0.010870 0.349234 0.059275
O O10 0.000000 0.250000 0.046968
O O11 0.511176 0.441916 0.935926
O O12 0.750000 0.511730 0.000000
O O13 0.170663 0.104609 0.184741
O O14 0.671268 0.101754 0.154776
#
# Coordination Sequence:
#
# PCOD9332806 Si02
#       6
#     8   8   8   8   8   8
#     4   8  14  24  38  64  97 120 144 193 252 292
#     4  12  21  36  55  74 100 134 179 218 255 308
#     4   8  14  23  39  62  89 120 156 196 242 287
#     4  12  24  36  50  74 105 138 172 219 265 308
#     4  10  18  28  50  72  93 127 168 205 245 298
#     4  10  17  30  46  69  95 128 166 206 249 296
#
# _framework density 19.457898
#
# number of rings (size 3 to 8) (size 9 to 14) (size 15 to 20)
#    0.000    2.000    3.333    2.000    0.000    0.000 
#    0.000    0.000    0.000    0.000    0.000   14.000 
#    0.000    2.667    0.000    0.167    0.000    0.000 
#
# Total GULP energy -133784.693060 kJ/mol
# GULP energy per Si atom -5574.362211 kJ/mol
# Density = 1.941361 g / cm^3
# Si number density = 19.457898 Si / 1000 Ang^3
#
#
#
# Elastic Constant Matrix: (Units=GPa)
#
#
# Indices 1 2 3 4 5 6 
#
# 1 114.3174 18.2297 11.9758 0.0000 0.0000 0.0000
# 2 18.2297 140.4466 21.5503 0.0000 0.0000 0.0000
# 3 11.9758 21.5503 31.4327 0.0000 0.0000 0.0000
# 4 0.0000 0.0000 0.0000 -18.4907 0.0000 0.0000
# 5 0.0000 0.0000 0.0000 0.0000 23.8304 0.0000
# 6 0.0000 0.0000 0.0000 0.0000 0.0000 20.1550
#
#
#
# Elastic Compliance Matrix: (Units=1/GPa)
#
#
# Indices 1 2 3 4 5 6 
#
# 1 0.009178 -0.000732 -0.002995 0.000000 0.000000 0.000000
# 2 -0.000732 0.008016 -0.005217 0.000000 0.000000 0.000000
# 3 -0.002995 -0.005217 0.036532 0.000000 0.000000 0.000000
# 4 0.000000 0.000000 0.000000 -0.054081 0.000000 0.000000
# 5 0.000000 0.000000 0.000000 0.000000 0.041963 0.000000
# 6 0.000000 0.000000 0.000000 0.000000 0.000000 0.049616
#
#
# Mechanical properties :
#
#
# Convention : Reuss Voigt Hill
#
# Bulk Modulus (GPa) = 27.90319 43.30092 35.60206
# Shear Modulus (GPa) = 41.30324 20.72834 31.01579
#
# Velocity S-wave (km/s) = 4.61227 3.26742 3.99682
# Velocity P-wave (km/s) = 6.53724 6.04456 6.29572
#
# Compressibility (1/GPa) = 0.03583819
#
# Stress axis : x y z
#
# Youngs Moduli (GPa) = 108.95587 124.75717 27.37350
#
# Poissons Ratio (x) = 0.09129 0.08199
# Poissons Ratio (y) = 0.07972 0.14280
# Poissons Ratio (z) = 0.32634 0.65082
#
# Static dielectric constant tensor:
#      x y z
#    x 1.700620 0.000000 0.000000 
#    y 0.000000 1.809530 0.000000 
#    z 0.000000 0.000000 1.697350 
# 
# From -- ./inp_files/24024.got.cif
#   From: 2010.05.17/outbox.cif.g08.bks.cpg/sg24_13_cif.got.tgz:24024.got - 2010.06.04 00:33:39.
