data_PCOD9332192
_publ_section_title
;
Structure prediction by ZEFSAII (Michael W. Deem and Ramdas Pophale) SiO2 
 PCOD9332192
Probable space group: I 2 2 2
;
_chemical_formula_sum "Si O2"
_cell_formula_units_Z 46
_cell_length_a 9.719553
_cell_length_b 30.075262
_cell_length_c 9.719103
_cell_angle_alpha 90.000000
_cell_angle_beta 90.000000
_cell_angle_gamma 90.000000
_cell_volume 2841.069752
_symmetry_space_group_name_H-M "I 2 2 2"
_symmetry_group_IT_number 23
_symmetry_cell_setting 'orthorhombic'
loop_
_space_group_symop_operation_xyz
x,y,z
-x,-y,z
x,-y,-z
-x,y,-z
1/2+x,1/2+y,1/2+z
1/2-x,1/2-y,1/2+z
1/2+x,1/2-y,1/2-z
1/2-x,1/2+y,1/2-z
loop_
_atom_site_type_symbol
_atom_site_label
_atom_site_fract_x
_atom_site_fract_y
_atom_site_fract_z
Si Si1 0.722720 0.313804 0.722708
Si Si2 0.000000 0.194398 0.000000
Si Si3 0.390511 0.086546 0.390521
Si Si4 0.477079 0.851435 0.846647
Si Si5 0.500000 0.000000 0.500000
Si Si6 0.275773 0.287269 0.724227
Si Si7 0.846650 0.148562 0.522911
O O1 0.608352 0.328710 0.608342
O O2 0.724149 0.260291 0.724125
O O3 0.833662 0.184714 0.645878
O O4 0.877194 0.329979 0.693350
O O5 0.106573 0.218029 0.106580
O O6 0.500000 0.106028 0.500000
O O7 0.434563 0.107187 0.247034
O O8 0.247031 0.107181 0.434602
O O9 0.409030 0.033820 0.409027
O O10 0.354132 0.815277 0.833676
O O11 0.500000 0.866935 0.000000
O O12 0.193340 0.170024 0.622815
O O13 0.000000 0.133064 0.500000
#
# Coordination Sequence:
#
# PCOD9332192 Si02
#       7
#     8   4   8   8   2   8   8
#     4  12  22  36  52  72 111 156 203 237 274 321
#     4  12  22  36  49  76  98 145 194 239 289 322
#     4   9  19  38  62  83 104 146 180 241 292 355
#     4  11  22  36  53  82 114 149 191 237 292 334
#     4   8  16  40  70  84 104 136 196 236 302 352
#     4  11  24  34  54  73 108 156 204 236 273 324
#     4  11  22  36  53  82 114 149 191 237 292 334
#
# _framework density 16.191085000000001
#
# number of rings (size 3 to 8) (size 9 to 14) (size 15 to 20)
#    0.522    0.696    5.217    2.087    0.000    1.391 
#    0.000    0.870    0.000    0.000    0.000    0.000 
#    0.000    8.348    0.000    0.000    0.000    0.000 
#
# Total GULP energy -128068.426229 kJ/mol
# GULP energy per Si atom -5568.192445 kJ/mol
# Density = 1.615423 g / cm^3
# Si number density = 16.191085 Si / 1000 Ang^3
#
#
#
# Elastic Constant Matrix: (Units=GPa)
#
#
# Indices 1 2 3 4 5 6 
#
# 1 122.8863 42.1771 58.6312 0.0008 -0.0005 0.0004
# 2 42.1771 108.2076 42.1397 -0.0001 0.0000 0.0000
# 3 58.6312 42.1397 122.7779 0.0037 -0.0026 0.0017
# 4 0.0008 -0.0001 0.0037 17.6343 0.0006 -0.0004
# 5 -0.0005 0.0000 -0.0026 0.0006 39.1799 0.0004
# 6 0.0004 0.0000 0.0017 -0.0004 0.0004 17.6509
#
#
#
# Elastic Compliance Matrix: (Units=1/GPa)
#
#
# Indices 1 2 3 4 5 6 
#
# 1 0.011148 -0.002623 -0.004424 0.000000 0.000000 0.000000
# 2 -0.002623 0.011284 -0.002621 0.000001 0.000000 0.000000
# 3 -0.004424 -0.002621 0.011157 -0.000002 0.000001 -0.000001
# 4 0.000000 0.000001 -0.000002 0.056708 -0.000001 0.000001
# 5 0.000000 0.000000 0.000001 -0.000001 0.025523 -0.000001
# 6 0.000000 0.000000 -0.000001 0.000001 -0.000001 0.056654
#
#
# Mechanical properties :
#
#
# Convention : Reuss Voigt Hill
#
# Bulk Modulus (GPa) = 70.14788 71.08531 70.61660
# Shear Modulus (GPa) = 25.43750 28.95460 27.19605
#
# Velocity S-wave (km/s) = 3.96799 4.23342 4.10285
# Velocity P-wave (km/s) = 8.02573 8.23985 8.13349
#
# Compressibility (1/GPa) = 0.01425560
#
# Stress axis : x y z
#
# Youngs Moduli (GPa) = 89.69934 88.61871 89.63261
#
# Poissons Ratio (x) = 0.23242 0.39650
# Poissons Ratio (y) = 0.23525 0.23489
# Poissons Ratio (z) = 0.39680 0.23223
#
# Static dielectric constant tensor:
#      x y z
#    x 1.563920 0.000000 0.000000 
#    y 0.000000 1.494740 0.000000 
#    z 0.000000 0.000000 1.563890 
# 
# From -- ./inp_files/14932.got.cif
#   From: 2010.05.17/outbox.cif.g08.bks.cpg/sg23_8_cif.got.tgz:14932.got - 2010.06.04 12:02:01.
