data_PCOD9332298
_publ_section_title
;
Structure prediction by ZEFSAII (Michael W. Deem and Ramdas Pophale) SiO2 
 PCOD9332298
Probable space group: I 2 2 2
;
_chemical_formula_sum "Si O2"
_cell_formula_units_Z 32
_cell_length_a 5.389038
_cell_length_b 25.717556
_cell_length_c 9.360683
_cell_angle_alpha 90.000000
_cell_angle_beta 90.000000
_cell_angle_gamma 90.000000
_cell_volume 1297.324077
_symmetry_space_group_name_H-M "I 2 2 2"
_symmetry_group_IT_number 23
_symmetry_cell_setting 'orthorhombic'
loop_
_space_group_symop_operation_xyz
x,y,z
-x,-y,z
x,-y,-z
-x,y,-z
1/2+x,1/2+y,1/2+z
1/2-x,1/2-y,1/2+z
1/2+x,1/2-y,1/2-z
1/2-x,1/2+y,1/2-z
loop_
_atom_site_type_symbol
_atom_site_label
_atom_site_fract_x
_atom_site_fract_y
_atom_site_fract_z
Si Si1 0.254967 0.213272 0.093221
Si Si2 0.056381 0.828055 0.336033
Si Si3 0.067485 0.410798 0.156086
Si Si4 0.253595 0.987979 0.776877
O O1 0.314848 0.271564 0.147336
O O2 0.180879 0.180633 0.234270
O O3 0.500000 0.197903 0.000000
O O4 0.000000 0.213286 0.000000
O O5 0.253672 0.869010 0.273065
O O6 0.000000 0.843897 0.500000
O O7 0.807828 0.430428 0.223131
O O8 0.218741 0.466230 0.155816
O O9 0.000000 0.392242 0.000000
O O10 0.500000 0.000000 0.862242
O O11 0.000000 0.000000 0.847984
#
# Coordination Sequence:
#
# PCOD9332298 Si02
#       4
#     8   8   8   8
#     4  11  25  46  64  92 145 195 240 311 374 417
#     4  11  23  40  68 100 131 189 255 299 350 435
#     4   9  20  30  55  89 130 178 224 277 351 432
#     4   8  18  33  48  80 136 181 201 269 365 435
#
# _framework density 24.666160000000001
#
# number of rings (size 3 to 8) (size 9 to 14) (size 15 to 20)
#    1.500    0.500    0.000    5.250    3.500    3.000 
#    0.000    0.000    0.000    0.000    0.000    0.000 
#    0.000    9.000    2.500    0.000    0.000    4.750 
#
# Total GULP energy -89126.380941 kJ/mol
# GULP energy per Si atom -5570.398809 kJ/mol
# Density = 2.461002 g / cm^3
# Si number density = 24.666160 Si / 1000 Ang^3
#
#
#
# Elastic Constant Matrix: (Units=GPa)
#
#
# Indices 1 2 3 4 5 6 
#
# 1 240.0707 58.7276 68.4000 0.0000 0.0000 0.0000
# 2 58.7276 114.7853 31.6873 0.0000 0.0000 0.0000
# 3 68.4000 31.6873 85.7379 -0.0001 0.0000 0.0000
# 4 0.0000 0.0000 -0.0001 16.0634 0.0000 0.0000
# 5 0.0000 0.0000 0.0000 0.0000 77.8782 0.0000
# 6 0.0000 0.0000 0.0000 0.0000 0.0000 58.8582
#
#
#
# Elastic Compliance Matrix: (Units=1/GPa)
#
#
# Indices 1 2 3 4 5 6 
#
# 1 0.005726 -0.001858 -0.003881 0.000000 0.000000 0.000000
# 2 -0.001858 0.010305 -0.002326 0.000000 0.000000 0.000000
# 3 -0.003881 -0.002326 0.015620 0.000000 0.000000 0.000000
# 4 0.000000 0.000000 0.000000 0.062253 0.000000 0.000000
# 5 0.000000 0.000000 0.000000 0.000000 0.012841 0.000000
# 6 0.000000 0.000000 0.000000 0.000000 0.000000 0.016990
#
#
# Mechanical properties :
#
#
# Convention : Reuss Voigt Hill
#
# Bulk Modulus (GPa) = 64.43630 84.24708 74.34169
# Shear Modulus (GPa) = 34.47381 49.34523 41.90952
#
# Velocity S-wave (km/s) = 3.74253 4.47757 4.12645
# Velocity P-wave (km/s) = 6.69742 7.80773 7.27379
#
# Compressibility (1/GPa) = 0.01551920
#
# Stress axis : x y z
#
# Youngs Moduli (GPa) = 174.64844 97.04309 64.02246
#
# Poissons Ratio (x) = 0.18031 0.24849
# Poissons Ratio (y) = 0.32451 0.14893
# Poissons Ratio (z) = 0.67785 0.22574
#
# Static dielectric constant tensor:
#      x y z
#    x 2.099180 0.000000 0.000000 
#    y 0.000000 1.932260 0.000000 
#    z 0.000000 0.000000 1.944210 
# 
# From -- ./inp_files/5749.got.cif
#   From: 2010.05.17/outbox.cif.g08.bks.cpg/sg23_3_cif.got.tgz:5749.got - 2010.06.04 12:02:01.
