data_PCOD9332517
_publ_section_title
;
Structure prediction by ZEFSAII (Michael W. Deem and Ramdas Pophale) SiO2 
 PCOD9332517
Probable space group: I 2 2 2
;
_chemical_formula_sum "Si O2"
_cell_formula_units_Z 48
_cell_length_a 5.021772
_cell_length_b 27.881695
_cell_length_c 16.755462
_cell_angle_alpha 90.000000
_cell_angle_beta 90.000000
_cell_angle_gamma 90.000000
_cell_volume 2346.024645
_symmetry_space_group_name_H-M "I 2 2 2"
_symmetry_group_IT_number 23
_symmetry_cell_setting 'orthorhombic'
loop_
_space_group_symop_operation_xyz
x,y,z
-x,-y,z
x,-y,-z
-x,y,-z
1/2+x,1/2+y,1/2+z
1/2-x,1/2-y,1/2+z
1/2+x,1/2-y,1/2-z
1/2-x,1/2+y,1/2-z
loop_
_atom_site_type_symbol
_atom_site_label
_atom_site_fract_x
_atom_site_fract_y
_atom_site_fract_z
Si Si1 0.402921 0.600174 0.410162
Si Si2 0.581191 0.751432 0.195198
Si Si3 0.905582 0.643943 0.336166
Si Si4 0.500000 0.500000 0.327679
Si Si5 0.925467 0.605777 0.839028
Si Si6 0.000000 0.500000 0.786345
Si Si7 0.414479 0.344000 0.091282
O O1 0.500000 0.605926 0.500000
O O2 0.601301 0.631559 0.355018
O O3 0.435676 0.545821 0.381049
O O4 0.100758 0.615924 0.395968
O O5 0.864327 0.761081 0.236737
O O6 0.470414 0.800066 0.156859
O O7 0.605268 0.707409 0.134625
O O8 0.986780 0.626129 0.247725
O O9 0.749690 0.510566 0.270726
O O10 0.136553 0.628364 0.899958
O O11 0.938470 0.548251 0.835109
O O12 0.635724 0.624961 0.861836
O O13 0.500000 0.338529 0.000000
#
# Coordination Sequence:
#
# PCOD9332517 Si02
#       7
#     8   8   8   4   8   4   8
#     4  12  25  40  60  95 139 172 212 271 327 380
#     4  12  23  41  71  98 125 171 219 261 318 394
#     4  12  23  42  68  95 129 175 223 261 320 389
#     4  12  21  40  62  94 127 176 220 266 321 386
#     4  12  23  45  69  97 131 170 220 274 321 392
#     4  12  24  38  72  98 120 168 236 272 308 390
#     4  12  26  45  69 100 135 169 211 273 337 385
#
# _framework density 20.460141
#
# number of rings (size 3 to 8) (size 9 to 14) (size 15 to 20)
#    0.000    0.000    6.667    4.250    0.000    1.333 
#    0.000    5.000    0.000    0.000    0.000    0.000 
#    0.000    0.000    0.000    0.000    0.000    0.000 
#
# Total GULP energy -134417.241894 kJ/mol
# GULP energy per Si atom -5600.718412 kJ/mol
# Density = 2.041357 g / cm^3
# Si number density = 20.460141 Si / 1000 Ang^3
#
#
#
# Elastic Constant Matrix: (Units=GPa)
#
#
# Indices 1 2 3 4 5 6 
#
# 1 62.4814 -18.3029 -12.5153 0.0000 0.0000 0.0000
# 2 -18.3029 126.7774 11.0120 0.0000 0.0000 0.0000
# 3 -12.5153 11.0120 73.2680 0.0000 0.0000 0.0000
# 4 0.0000 0.0000 0.0000 19.3146 0.0000 0.0000
# 5 0.0000 0.0000 0.0000 0.0000 30.5681 0.0000
# 6 0.0000 0.0000 0.0000 0.0000 0.0000 34.4252
#
#
#
# Elastic Compliance Matrix: (Units=1/GPa)
#
#
# Indices 1 2 3 4 5 6 
#
# 1 0.017186 0.002256 0.002597 0.000000 0.000000 0.000000
# 2 0.002256 0.008288 -0.000860 0.000000 0.000000 0.000000
# 3 0.002597 -0.000860 0.014221 0.000000 0.000000 0.000000
# 4 0.000000 0.000000 0.000000 0.051774 0.000000 0.000000
# 5 0.000000 0.000000 0.000000 0.000000 0.032714 0.000000
# 6 0.000000 0.000000 0.000000 0.000000 0.000000 0.029049
#
#
# Mechanical properties :
#
#
# Convention : Reuss Voigt Hill
#
# Bulk Modulus (GPa) = 20.97378 24.76826 22.87102
# Shear Modulus (GPa) = 31.02868 35.68378 33.35623
#
# Velocity S-wave (km/s) = 3.89851 4.18073 4.04208
# Velocity P-wave (km/s) = 5.52610 5.95286 5.74344
#
# Compressibility (1/GPa) = 0.04767858
#
# Stress axis : x y z
#
# Youngs Moduli (GPa) = 58.18826 120.65325 70.31672
#
# Poissons Ratio (x) = -0.27214 -0.18258
# Poissons Ratio (y) = -0.13125 0.06050
# Poissons Ratio (z) = -0.15109 0.10381
#
# Static dielectric constant tensor:
#      x y z
#    x 1.703680 0.000000 0.000000 
#    y 0.000000 1.707890 0.000000 
#    z 0.000000 0.000000 1.716690 
# 
# From -- ./inp_files/19243.got.cif
#   From: 2010.05.17/outbox.cif.g08.bks.cpg/sg23_10_cif.got.tgz:19243.got - 2010.06.04 12:02:01.
