data_PCOD9332346
_publ_section_title
;
Structure prediction by ZEFSAII (Michael W. Deem and Ramdas Pophale) SiO2 
 PCOD9332346
Probable space group: I 2 2 2
;
_chemical_formula_sum "Si O2"
_cell_formula_units_Z 24
_cell_length_a 7.546307
_cell_length_b 7.902337
_cell_length_c 15.102681
_cell_angle_alpha 90.000000
_cell_angle_beta 90.000000
_cell_angle_gamma 90.000000
_cell_volume 900.625139
_symmetry_space_group_name_H-M "I 2 2 2"
_symmetry_group_IT_number 23
_symmetry_cell_setting 'orthorhombic'
loop_
_space_group_symop_operation_xyz
x,y,z
-x,-y,z
x,-y,-z
-x,y,-z
1/2+x,1/2+y,1/2+z
1/2-x,1/2-y,1/2+z
1/2+x,1/2-y,1/2-z
1/2-x,1/2+y,1/2-z
loop_
_atom_site_type_symbol
_atom_site_label
_atom_site_fract_x
_atom_site_fract_y
_atom_site_fract_z
Si Si1 0.344540 0.199569 0.377071
Si Si2 0.825301 0.112958 0.298114
Si Si3 0.271732 0.321477 0.551713
O O1 0.277144 0.319259 0.298368
O O2 0.241201 0.196394 0.469627
O O3 0.532280 0.283844 0.407072
O O4 0.320657 0.012929 0.337950
O O5 0.848831 0.270565 0.365364
O O6 0.000000 0.000000 0.291807
O O7 0.256829 0.500000 0.500000
#
# Coordination Sequence:
#
# PCOD9332346 Si02
#       3
#     8   8   8
#     4  11  23  44  71 101 141 191 239 286 351 437
#     4  12  25  43  71 109 146 183 238 306 360 413
#     4  11  24  46  72  98 139 196 244 286 352 439
#
# _framework density 26.648156
#
# number of rings (size 3 to 8) (size 9 to 14) (size 15 to 20)
#    0.000    0.667    0.000   10.000    0.000    5.333 
#    0.000    8.333    0.000    0.000    0.000    0.000 
#    0.000    0.000    0.000    0.000    0.000    0.000 
#
# Total GULP energy -67107.431254 kJ/mol
# GULP energy per Si atom -5592.285938 kJ/mol
# Density = 2.658750 g / cm^3
# Si number density = 26.648156 Si / 1000 Ang^3
#
#
#
# Elastic Constant Matrix: (Units=GPa)
#
#
# Indices 1 2 3 4 5 6 
#
# 1 69.6945 19.1657 20.9841 0.0000 0.0000 0.0000
# 2 19.1657 170.2555 72.1333 0.0000 0.0000 0.0000
# 3 20.9841 72.1333 231.3072 0.0000 0.0000 0.0000
# 4 0.0000 0.0000 0.0000 71.6290 0.0000 0.0000
# 5 0.0000 0.0000 0.0000 0.0000 33.1357 0.0000
# 6 0.0000 0.0000 0.0000 0.0000 0.0000 33.1836
#
#
#
# Elastic Compliance Matrix: (Units=1/GPa)
#
#
# Indices 1 2 3 4 5 6 
#
# 1 0.014990 -0.001280 -0.000961 0.000000 0.000000 0.000000
# 2 -0.001280 0.006877 -0.002028 0.000000 0.000000 0.000000
# 3 -0.000961 -0.002028 0.005043 0.000000 0.000000 0.000000
# 4 0.000000 0.000000 0.000000 0.013961 0.000000 0.000000
# 5 0.000000 0.000000 0.000000 0.000000 0.030179 0.000000
# 6 0.000000 0.000000 0.000000 0.000000 0.000000 0.030135
#
#
# Mechanical properties :
#
#
# Convention : Reuss Voigt Hill
#
# Bulk Modulus (GPa) = 54.43411 77.31370 65.87390
# Shear Modulus (GPa) = 43.16028 51.52128 47.34078
#
# Velocity S-wave (km/s) = 4.02883 4.40180 4.21944
# Velocity P-wave (km/s) = 6.48948 7.41015 6.96504
#
# Compressibility (1/GPa) = 0.01837083
#
# Stress axis : x y z
#
# Youngs Moduli (GPa) = 66.71264 145.41068 198.29576
#
# Poissons Ratio (x) = 0.18619 0.19047
# Poissons Ratio (y) = 0.08542 0.40224
# Poissons Ratio (z) = 0.06408 0.29496
#
# Static dielectric constant tensor:
#      x y z
#    x 2.258460 0.000000 0.000000 
#    y 0.000000 2.162020 0.000000 
#    z 0.000000 0.000000 2.023130 
# 
# From -- ./inp_files/6197.got.cif
#   From: 2010.05.17/outbox.cif.g08.bks.cpg/sg23_4_cif.got.tgz:6197.got - 2010.06.04 12:02:01.
