data_PCOD9332958
_publ_section_title
;
Structure prediction by ZEFSAII (Michael W. Deem and Ramdas Pophale) SiO2 
 PCOD9332958
Probable space group: I 21 21 21
;
_chemical_formula_sum "Si O2"
_cell_formula_units_Z 60
_cell_length_a 24.896929
_cell_length_b 19.421766
_cell_length_c 6.285532
_cell_angle_alpha 90.000000
_cell_angle_beta 90.000000
_cell_angle_gamma 90.000000
_cell_volume 3039.320783
_symmetry_space_group_name_H-M "I 21 21 21"
_symmetry_group_IT_number 24
_symmetry_cell_setting 'orthorhombic'
loop_
_space_group_symop_operation_xyz
x,y,z
-x,1/2-y,z
x,-y,1/2-z
1/2-x,y,-z
1/2+x,1/2+y,1/2+z
1/2-x,-y,1/2+z
1/2+x,1/2-y,-z
-x,1/2+y,1/2-z
loop_
_atom_site_type_symbol
_atom_site_label
_atom_site_fract_x
_atom_site_fract_y
_atom_site_fract_z
Si Si1 0.617648 0.071244 0.628005
Si Si2 0.886319 0.683581 0.858622
Si Si3 0.902781 0.582084 0.227114
Si Si4 0.981737 0.906274 0.429674
Si Si5 0.654123 0.782281 0.775322
Si Si6 0.553803 0.229706 0.035990
Si Si7 0.808654 0.338365 0.032553
Si Si8 0.569465 0.000000 0.250000
O O1 0.560383 0.093320 0.734126
O O2 0.656708 0.136318 0.674615
O O3 0.607808 0.052646 0.380956
O O4 0.633412 0.000000 0.750000
O O5 0.934430 0.719306 0.727923
O O6 0.839367 0.667916 0.691060
O O7 0.904542 0.617040 0.993438
O O8 0.863171 0.741866 0.014357
O O9 0.899150 0.500000 0.250000
O O10 0.849924 0.616323 0.329319
O O11 0.957631 0.601657 0.351919
O O12 0.960468 0.848052 0.591551
O O13 0.969659 0.974020 0.563546
O O14 0.605043 0.771396 0.611666
O O15 0.698535 0.735185 0.657098
O O16 0.500000 0.250000 0.910071
O O17 0.750000 0.369158 0.000000
#
# Coordination Sequence:
#
# PCOD9332958 Si02
#       8
#     8   8   8   8   8   8   8   4
#     4   9  18  31  51  85 124 158 191 229 269 341
#     4  10  21  37  59  80 110 147 191 241 297 350
#     4  11  24  40  55  83 118 156 194 245 305 360
#     4  10  20  33  50  77 118 158 196 229 274 337
#     4   9  19  35  55  82 113 146 186 235 292 344
#     4  10  19  31  50  80 112 147 190 232 270 330
#     4  10  23  43  62  84 102 135 197 258 307 361
#     4  10  18  30  50  74 116 164 196 216 262 336
#
# _framework density 19.741251999999999
#
# number of rings (size 3 to 8) (size 9 to 14) (size 15 to 20)
#    0.000    2.133    0.000    4.400    0.000   10.667 
#    2.400    0.000    0.000    0.000    3.467    0.000 
#    0.000    0.000    0.000    0.000    0.000    0.000 
#
# Total GULP energy -167044.980191 kJ/mol
# GULP energy per Si atom -5568.166006 kJ/mol
# Density = 1.969632 g / cm^3
# Si number density = 19.741252 Si / 1000 Ang^3
#
#
#
# Elastic Constant Matrix: (Units=GPa)
#
#
# Indices 1 2 3 4 5 6 
#
# 1 45.5676 24.7872 18.1767 0.0000 0.0000 0.0000
# 2 24.7872 123.1688 45.4245 0.0000 0.0000 0.0000
# 3 18.1767 45.4245 89.8797 0.0000 0.0000 0.0000
# 4 0.0000 0.0000 0.0000 29.8569 0.0000 0.0000
# 5 0.0000 0.0000 0.0000 0.0000 8.0739 0.0000
# 6 0.0000 0.0000 0.0000 0.0000 0.0000 16.6938
#
#
#
# Elastic Compliance Matrix: (Units=1/GPa)
#
#
# Indices 1 2 3 4 5 6 
#
# 1 0.025340 -0.003945 -0.003131 0.000000 0.000000 0.000000
# 2 -0.003945 0.010593 -0.004556 0.000000 0.000000 0.000000
# 3 -0.003131 -0.004556 0.014062 0.000000 0.000000 0.000000
# 4 0.000000 0.000000 0.000000 0.033493 0.000000 0.000000
# 5 0.000000 0.000000 0.000000 0.000000 0.123856 0.000000
# 6 0.000000 0.000000 0.000000 0.000000 0.000000 0.059903
#
#
# Mechanical properties :
#
#
# Convention : Reuss Voigt Hill
#
# Bulk Modulus (GPa) = 37.40896 48.37696 42.89296
# Shear Modulus (GPa) = 16.69890 22.27343 19.48617
#
# Velocity S-wave (km/s) = 2.91157 3.36261 3.14519
# Velocity P-wave (km/s) = 5.50398 6.29563 5.91307
#
# Compressibility (1/GPa) = 0.02673157
#
# Stress axis : x y z
#
# Youngs Moduli (GPa) = 39.46290 94.40178 71.11548
#
# Poissons Ratio (x) = 0.37241 0.22266
# Poissons Ratio (y) = 0.15568 0.32399
# Poissons Ratio (z) = 0.12355 0.43008
#
# Static dielectric constant tensor:
#      x y z
#    x 1.675840 0.000000 0.000000 
#    y 0.000000 1.849090 0.000000 
#    z 0.000000 0.000000 1.712240 
# 
# From -- ./inp_files/6559.got.cif
#   From: 2010.05.17/outbox.cif.g08.bks.cpg/sg24_4_cif.got.tgz:6559.got - 2010.06.04 00:33:39.
