data_PCOD9332504
_publ_section_title
;
Structure prediction by ZEFSAII (Michael W. Deem and Ramdas Pophale) SiO2 
 PCOD9332504
Probable space group: I 2 2 2
;
_chemical_formula_sum "Si O2"
_cell_formula_units_Z 18
_cell_length_a 7.558396
_cell_length_b 8.857817
_cell_length_c 12.123623
_cell_angle_alpha 90.000000
_cell_angle_beta 90.000000
_cell_angle_gamma 90.000000
_cell_volume 811.687333
_symmetry_space_group_name_H-M "I 2 2 2"
_symmetry_group_IT_number 23
_symmetry_cell_setting 'orthorhombic'
loop_
_space_group_symop_operation_xyz
x,y,z
-x,-y,z
x,-y,-z
-x,y,-z
1/2+x,1/2+y,1/2+z
1/2-x,1/2-y,1/2+z
1/2+x,1/2-y,1/2-z
1/2-x,1/2+y,1/2-z
loop_
_atom_site_type_symbol
_atom_site_label
_atom_site_fract_x
_atom_site_fract_y
_atom_site_fract_z
Si Si1 0.677690 0.092957 0.656709
Si Si2 0.000000 0.000000 0.500000
Si Si3 0.200987 0.049895 0.880780
O O1 0.676822 0.273306 0.645813
O O2 0.500000 0.000000 0.620165
O O3 0.854383 0.061103 0.586710
O O4 0.704472 0.037584 0.781883
O O5 0.000000 0.000000 0.882904
O O6 0.278164 0.000000 0.000000
#
# Coordination Sequence:
#
# PCOD9332504 Si02
#       3
#     8   2   8
#     4  12  28  50  81 111 162 209 260 326 391 463
#     4  12  30  48  76 114 152 208 268 318 380 466
#     4  11  27  49  78 117 159 203 268 315 392 469
#
# _framework density 22.176030000000001
#
# number of rings (size 3 to 8) (size 9 to 14) (size 15 to 20)
#    0.000    0.444    2.222    3.333   18.667    0.889 
#    0.000    0.000    0.000    0.000    0.000    0.000 
#    0.000    0.000    0.000    0.000    0.000    0.000 
#
# Total GULP energy -50135.992556 kJ/mol
# GULP energy per Si atom -5570.665840 kJ/mol
# Density = 2.212556 g / cm^3
# Si number density = 22.176030 Si / 1000 Ang^3
#
#
#
# Elastic Constant Matrix: (Units=GPa)
#
#
# Indices 1 2 3 4 5 6 
#
# 1 135.8273 86.6854 65.5354 0.0000 0.0000 0.0000
# 2 86.6854 229.9905 128.2262 0.0000 0.0000 0.0000
# 3 65.5354 128.2262 212.1363 0.0000 0.0001 0.0000
# 4 0.0000 0.0000 0.0000 77.8308 0.0000 0.0000
# 5 0.0000 0.0000 0.0001 0.0000-3381.3695 0.0000
# 6 0.0000 0.0000 0.0000 0.0000 0.0000 21.3814
#
#
#
# Elastic Compliance Matrix: (Units=1/GPa)
#
#
# Indices 1 2 3 4 5 6 
#
# 1 0.009896 -0.003055 -0.001211 0.000000 0.000000 0.000000
# 2 -0.003055 0.007501 -0.003590 0.000000 0.000000 0.000000
# 3 -0.001211 -0.003590 0.007258 0.000000 0.000000 0.000000
# 4 0.000000 0.000000 0.000000 0.012848 0.000000 0.000000
# 5 0.000000 0.000000 0.000000 0.000000 -0.000296 0.000000
# 6 0.000000 0.000000 0.000000 0.000000 0.000000 0.046770
#
#
# Mechanical properties :
#
#
# Convention : Reuss Voigt Hill
#
# Bulk Modulus (GPa) = 111.81233 126.53868 119.17550
# Shear Modulus (GPa) = 48.69946 -636.59766 -293.94910
#
# Velocity S-wave (km/s) = 4.69128 -16.96139 -11.52564
# Velocity P-wave (km/s) = 8.93722 18.06655 11.10239
#
# Compressibility (1/GPa) = 0.00894356
#
# Stress axis : x y z
#
# Youngs Moduli (GPa) = 101.04995 133.31292 137.77667
#
# Poissons Ratio (x) = 0.40727 0.16680
# Poissons Ratio (y) = 0.30870 0.49466
# Poissons Ratio (z) = 0.12233 0.47864
#
# Static dielectric constant tensor:
#      x y z
#    x 1.768470 0.000000 0.000000 
#    y 0.000000 11.939210 0.000000 
#    z 0.000000 0.000000 1.898030 
# 
# From -- ./inp_files/5915.got.cif
#   From: 2010.05.17/outbox.cif.g08.bks.cpg/sg23_3_cif.got.tgz:5915.got - 2010.06.04 12:02:01.
