data_PCOD9332203
_publ_section_title
;
Structure prediction by ZEFSAII (Michael W. Deem and Ramdas Pophale) SiO2 
 PCOD9332203
Probable space group: I 2 2 2
;
_chemical_formula_sum "Si O2"
_cell_formula_units_Z 56
_cell_length_a 14.255845
_cell_length_b 20.737131
_cell_length_c 8.948659
_cell_angle_alpha 90.000000
_cell_angle_beta 90.000000
_cell_angle_gamma 90.000000
_cell_volume 2645.450228
_symmetry_space_group_name_H-M "I 2 2 2"
_symmetry_group_IT_number 23
_symmetry_cell_setting 'orthorhombic'
loop_
_space_group_symop_operation_xyz
x,y,z
-x,-y,z
x,-y,-z
-x,y,-z
1/2+x,1/2+y,1/2+z
1/2-x,1/2-y,1/2+z
1/2+x,1/2-y,1/2-z
1/2-x,1/2+y,1/2-z
loop_
_atom_site_type_symbol
_atom_site_label
_atom_site_fract_x
_atom_site_fract_y
_atom_site_fract_z
Si Si1 0.432495 0.387363 0.874958
Si Si2 0.110932 0.423159 0.513238
Si Si3 0.155377 0.688834 0.289770
Si Si4 0.614083 0.501570 0.678563
Si Si5 0.950109 0.797228 0.843002
Si Si6 0.222095 0.799117 0.494585
Si Si7 0.768053 0.876979 0.788281
O O1 0.367216 0.435968 0.780764
O O2 0.491053 0.348453 0.751773
O O3 0.374773 0.334622 0.966904
O O4 0.500000 0.419435 0.000000
O O5 0.123983 0.500000 0.500000
O O6 0.140468 0.384531 0.662367
O O7 0.179109 0.393823 0.387957
O O8 0.000000 0.410172 0.500000
O O9 0.063367 0.730641 0.246671
O O10 0.201527 0.729257 0.425569
O O11 0.218716 0.696430 0.143812
O O12 0.500000 0.500000 0.686442
O O13 0.636244 0.500000 0.500000
O O14 0.672362 0.441953 0.743276
O O15 0.847735 0.830506 0.860737
O O16 0.000000 0.786751 0.000000
O O17 0.265221 0.840955 0.360493
#
# Coordination Sequence:
#
# PCOD9332203 Si02
#       7
#     8   8   8   8   8   8   8
#     4  12  23  42  65 104 151 187 229 276 344 437
#     4  11  28  51  74  96 129 184 247 300 348 407
#     4  11  25  46  69  99 136 183 235 292 350 398
#     4  11  22  37  65 103 152 192 217 263 343 434
#     4  11  24  41  68 108 148 182 226 283 355 431
#     4  11  26  42  69 107 139 185 231 287 348 430
#     4  11  23  45  69 103 146 187 225 285 349 418
#
# _framework density 21.168420000000001
#
# number of rings (size 3 to 8) (size 9 to 14) (size 15 to 20)
#    0.000    0.857    4.286    3.000   10.000    3.143 
#    0.000    0.000    0.000    1.714    0.000    0.000 
#    0.000    0.000    0.000    0.000    0.000    0.000 
#
# Total GULP energy -156402.879669 kJ/mol
# GULP energy per Si atom -5585.817131 kJ/mol
# Density = 2.112024 g / cm^3
# Si number density = 21.168420 Si / 1000 Ang^3
#
#
#
# Elastic Constant Matrix: (Units=GPa)
#
#
# Indices 1 2 3 4 5 6 
#
# 1 71.6177 36.3220 33.7217 0.0000 0.0000 0.0000
# 2 36.3220 125.8203 60.6651 0.0000 0.0000 0.0000
# 3 33.7217 60.6651 112.5187 0.0000 0.0000 0.0000
# 4 0.0000 0.0000 0.0000 31.6287 0.0000 0.0000
# 5 0.0000 0.0000 0.0000 0.0000 40.3705 0.0000
# 6 0.0000 0.0000 0.0000 0.0000 0.0000 3.0454
#
#
#
# Elastic Compliance Matrix: (Units=1/GPa)
#
#
# Indices 1 2 3 4 5 6 
#
# 1 0.017248 -0.003360 -0.003357 0.000000 0.000000 0.000000
# 2 -0.003360 0.011394 -0.005136 0.000000 0.000000 0.000000
# 3 -0.003357 -0.005136 0.012663 0.000000 0.000000 0.000000
# 4 0.000000 0.000000 0.000000 0.031617 0.000000 0.000000
# 5 0.000000 0.000000 0.000000 0.000000 0.024771 0.000000
# 6 0.000000 0.000000 0.000000 0.000000 0.000000 0.328369
#
#
# Mechanical properties :
#
#
# Convention : Reuss Voigt Hill
#
# Bulk Modulus (GPa) = 56.82716 63.48602 60.15659
# Shear Modulus (GPa) = 10.97368 26.95876 18.96622
#
# Velocity S-wave (km/s) = 2.27931 3.57254 2.99652
# Velocity P-wave (km/s) = 5.81640 6.86100 6.36018
#
# Compressibility (1/GPa) = 0.01759722
#
# Stress axis : x y z
#
# Youngs Moduli (GPa) = 57.97703 87.76232 78.97096
#
# Poissons Ratio (x) = 0.29492 0.26514
# Poissons Ratio (y) = 0.19483 0.40561
# Poissons Ratio (z) = 0.19466 0.45077
#
# Static dielectric constant tensor:
#      x y z
#    x 1.831290 0.000000 0.000000 
#    y 0.000000 1.844390 0.000000 
#    z 0.000000 0.000000 1.806130 
# 
# From -- ./inp_files/10219.got.cif
#   From: 2010.05.17/outbox.cif.g08.bks.cpg/sg23_6_cif.got.tgz:10219.got - 2010.06.04 12:02:01.
