data_PCOD9332318
_publ_section_title
;
Structure prediction by ZEFSAII (Michael W. Deem and Ramdas Pophale) SiO2 
 PCOD9332318
Probable space group: I 2 2 2
;
_chemical_formula_sum "Si O2"
_cell_formula_units_Z 48
_cell_length_a 8.899275
_cell_length_b 10.284418
_cell_length_c 26.484470
_cell_angle_alpha 90.000000
_cell_angle_beta 90.000000
_cell_angle_gamma 90.000000
_cell_volume 2423.961030
_symmetry_space_group_name_H-M "I 2 2 2"
_symmetry_group_IT_number 23
_symmetry_cell_setting 'orthorhombic'
loop_
_space_group_symop_operation_xyz
x,y,z
-x,-y,z
x,-y,-z
-x,y,-z
1/2+x,1/2+y,1/2+z
1/2-x,1/2-y,1/2+z
1/2+x,1/2-y,1/2-z
1/2-x,1/2+y,1/2-z
loop_
_atom_site_type_symbol
_atom_site_label
_atom_site_fract_x
_atom_site_fract_y
_atom_site_fract_z
Si Si1 0.066297 0.137574 0.654008
Si Si2 0.918219 0.633394 0.286929
Si Si3 0.511730 0.780257 0.055525
Si Si4 0.103507 0.891254 0.156426
Si Si5 0.083329 0.633022 0.834391
Si Si6 0.251977 0.000620 0.943564
O O1 0.994369 0.180923 0.600831
O O2 0.245075 0.132802 0.647919
O O3 0.017705 0.247818 0.693363
O O4 0.000000 0.000000 0.670071
O O5 0.753812 0.637840 0.311900
O O6 0.909772 0.636141 0.226685
O O7 0.000000 0.500000 0.303186
O O8 0.383061 0.890333 0.055640
O O9 0.665558 0.862018 0.063635
O O10 0.500000 0.719579 0.000000
O O11 0.152872 0.957308 0.103638
O O12 0.009598 0.759651 0.148787
O O13 0.000000 0.000000 0.183151
O O14 0.000000 0.500000 0.849462
O O15 0.183644 0.000000 0.000000
#
# Coordination Sequence:
#
# PCOD9332318 Si02
#       6
#     8   8   8   8   8   8
#     4  12  24  40  65  90 123 170 218 262 319 383
#     4  11  23  42  65  88 125 171 224 260 315 386
#     4   9  18  36  63  95 123 157 213 263 304 373
#     4  12  23  37  63  95 130 164 209 270 330 375
#     4  11  26  42  59  93 133 170 209 268 326 390
#     4   9  18  35  63  95 125 159 207 263 316 381
#
# _framework density 19.802299000000001
#
# number of rings (size 3 to 8) (size 9 to 14) (size 15 to 20)
#    0.000    1.333    1.667    6.000    0.000    6.000 
#    0.000    0.000    0.000    0.000    0.000    0.000 
#    0.000    0.000    0.000    0.000    0.000    0.000 
#
# Total GULP energy -134150.737412 kJ/mol
# GULP energy per Si atom -5589.614059 kJ/mol
# Density = 1.975723 g / cm^3
# Si number density = 19.802299 Si / 1000 Ang^3
#
#
#
# Elastic Constant Matrix: (Units=GPa)
#
#
# Indices 1 2 3 4 5 6 
#
# 1 100.6028 30.9538 4.5709 0.0000 0.0000 0.0000
# 2 30.9538 120.6437 10.2148 0.0000 0.0000 0.0000
# 3 4.5709 10.2148 58.3601 0.0000 0.0000 0.0000
# 4 0.0000 0.0000 0.0000 12.2638 0.0000 0.0000
# 5 0.0000 0.0000 0.0000 0.0000 -2.2442 0.0000
# 6 0.0000 0.0000 0.0000 0.0000 0.0000 27.8728
#
#
#
# Elastic Compliance Matrix: (Units=1/GPa)
#
#
# Indices 1 2 3 4 5 6 
#
# 1 0.010800 -0.002740 -0.000366 0.000000 0.000000 0.000000
# 2 -0.002740 0.009109 -0.001380 0.000000 0.000000 0.000000
# 3 -0.000366 -0.001380 0.017405 0.000000 0.000000 0.000000
# 4 0.000000 0.000000 0.000000 0.081541 0.000000 0.000000
# 5 0.000000 0.000000 0.000000 0.000000 -0.445593 0.000000
# 6 0.000000 0.000000 0.000000 0.000000 0.000000 0.035877
#
#
# Mechanical properties :
#
#
# Convention : Reuss Voigt Hill
#
# Bulk Modulus (GPa) = 35.28358 41.23174 38.25766
# Shear Modulus (GPa) = -18.35250 23.16961 2.40856
#
# Velocity S-wave (km/s) = -3.04762 3.42431 1.10406
# Velocity P-wave (km/s) = 2.33936 6.04164 4.58116
#
# Compressibility (1/GPa) = 0.02834179
#
# Stress axis : x y z
#
# Youngs Moduli (GPa) = 92.59474 109.78545 57.45416
#
# Poissons Ratio (x) = 0.30080 0.02105
# Poissons Ratio (y) = 0.25370 0.07927
# Poissons Ratio (z) = 0.03392 0.15147
#
# Static dielectric constant tensor:
#      x y z
#    x 1.711330 0.000000 0.000000 
#    y 0.000000 1.678880 0.000000 
#    z 0.000000 0.000000 1.727310 
# 
# From -- ./inp_files/13353.got.cif
#   From: 2010.05.17/outbox.cif.g08.bks.cpg/sg23_7_cif.got.tgz:13353.got - 2010.06.04 12:02:01.
