data_PCOD9332610
_publ_section_title
;
Structure prediction by ZEFSAII (Michael W. Deem and Ramdas Pophale) SiO2 
 PCOD9332610
Probable space group: I 2 2 2
;
_chemical_formula_sum "Si O2"
_cell_formula_units_Z 18
_cell_length_a 10.768079
_cell_length_b 13.962762
_cell_length_c 5.015448
_cell_angle_alpha 90.000000
_cell_angle_beta 90.000000
_cell_angle_gamma 90.000000
_cell_volume 754.083261
_symmetry_space_group_name_H-M "I 2 2 2"
_symmetry_group_IT_number 23
_symmetry_cell_setting 'orthorhombic'
loop_
_space_group_symop_operation_xyz
x,y,z
-x,-y,z
x,-y,-z
-x,y,-z
1/2+x,1/2+y,1/2+z
1/2-x,1/2-y,1/2+z
1/2+x,1/2-y,1/2-z
1/2-x,1/2+y,1/2-z
loop_
_atom_site_type_symbol
_atom_site_label
_atom_site_fract_x
_atom_site_fract_y
_atom_site_fract_z
Si Si1 0.803779 0.401868 0.604540
Si Si2 0.500000 0.000000 0.500000
Si Si3 0.085727 0.237597 0.738515
O O1 0.744262 0.500000 0.500000
O O2 0.863469 0.339831 0.365439
O O3 0.702813 0.331476 0.727718
O O4 0.909208 0.437961 0.808898
O O5 0.000000 0.200453 0.500000
O O6 0.000000 0.241273 0.000000
#
# Coordination Sequence:
#
# PCOD9332610 Si02
#       3
#     8   2   8
#     4  12  31  53  88 121 168 217 285 335 417 487
#     4  12  30  56  80 128 156 232 274 350 386 524
#     4  12  30  55  85 124 171 218 273 345 417 487
#
# _framework density 23.870041000000001
#
# number of rings (size 3 to 8) (size 9 to 14) (size 15 to 20)
#    0.000    0.000    0.000    6.000   31.111    0.889 
#    0.000    0.000    0.000    0.000    0.000    0.000 
#    0.000    0.000    0.000    0.000    0.000    0.000 
#
# Total GULP energy -50507.378837 kJ/mol
# GULP energy per Si atom -5611.930982 kJ/mol
# Density = 2.381571 g / cm^3
# Si number density = 23.870041 Si / 1000 Ang^3
#
#
#
# Elastic Constant Matrix: (Units=GPa)
#
#
# Indices 1 2 3 4 5 6 
#
# 1 149.7437 106.5106 91.5533 0.0000 0.0000 0.0000
# 2 106.5106 206.4827 90.1816 0.0000 0.0000 0.0000
# 3 91.5533 90.1816 196.7107 0.0000 0.0000 0.0000
# 4 0.0000 0.0000 0.0000 39.9836 0.0000 0.0000
# 5 0.0000 0.0000 0.0000 0.0000 66.5305 0.0000
# 6 0.0000 0.0000 0.0000 0.0000 0.0000 33.5890
#
#
#
# Elastic Compliance Matrix: (Units=1/GPa)
#
#
# Indices 1 2 3 4 5 6 
#
# 1 0.012208 -0.004771 -0.003495 0.000000 0.000000 0.000000
# 2 -0.004771 0.007920 -0.001410 0.000000 0.000000 0.000000
# 3 -0.003495 -0.001410 0.007357 0.000000 0.000000 0.000000
# 4 0.000000 0.000000 0.000000 0.025010 0.000000 0.000000
# 5 0.000000 0.000000 0.000000 0.000000 0.015031 0.000000
# 6 0.000000 0.000000 0.000000 0.000000 0.000000 0.029772
#
#
# Mechanical properties :
#
#
# Convention : Reuss Voigt Hill
#
# Bulk Modulus (GPa) = 122.95992 125.49203 124.22597
# Shear Modulus (GPa) = 41.88960 45.66671 43.77815
#
# Velocity S-wave (km/s) = 4.19370 4.37869 4.28719
# Velocity P-wave (km/s) = 8.66450 8.84596 8.75570
#
# Compressibility (1/GPa) = 0.00813273
#
# Stress axis : x y z
#
# Youngs Moduli (GPa) = 81.91059 126.26046 135.93052
#
# Poissons Ratio (x) = 0.60241 0.47504
# Poissons Ratio (y) = 0.39081 0.19171
# Poissons Ratio (z) = 0.28625 0.17807
#
# Static dielectric constant tensor:
#      x y z
#    x 1.879400 0.000000 0.000000 
#    y 0.000000 1.919590 0.000000 
#    z 0.000000 0.000000 1.953020 
# 
# From -- ./inp_files/982.got.cif
#   From: 2010.05.17/outbox.cif.g08.bks.cpg/sg23_1_cif.got.tgz:982.got - 2010.06.04 12:02:01.
