data_PCOD9332420
_publ_section_title
;
Structure prediction by ZEFSAII (Michael W. Deem and Ramdas Pophale) SiO2 
 PCOD9332420
Probable space group: I 2 2 2
;
_chemical_formula_sum "Si O2"
_cell_formula_units_Z 56
_cell_length_a 13.517830
_cell_length_b 13.112812
_cell_length_c 13.516688
_cell_angle_alpha 90.000000
_cell_angle_beta 90.000000
_cell_angle_gamma 90.000000
_cell_volume 2395.924367
_symmetry_space_group_name_H-M "I 2 2 2"
_symmetry_group_IT_number 23
_symmetry_cell_setting 'orthorhombic'
loop_
_space_group_symop_operation_xyz
x,y,z
-x,-y,z
x,-y,-z
-x,y,-z
1/2+x,1/2+y,1/2+z
1/2-x,1/2-y,1/2+z
1/2+x,1/2-y,1/2-z
1/2-x,1/2+y,1/2-z
loop_
_atom_site_type_symbol
_atom_site_label
_atom_site_fract_x
_atom_site_fract_y
_atom_site_fract_z
Si Si1 0.188890 0.096310 0.310548
Si Si2 0.634375 0.754625 0.274652
Si Si3 0.450310 0.107285 0.751127
Si Si4 0.250527 0.387047 0.127858
Si Si5 0.607465 0.450120 0.401186
Si Si6 0.405804 0.218294 0.935412
Si Si7 0.306450 0.279085 0.491831
O O1 0.289597 0.150905 0.276098
O O2 0.146447 0.047217 0.209865
O O3 0.126761 0.185914 0.364819
O O4 0.208460 0.000239 0.380270
O O5 0.525352 0.800709 0.273935
O O6 0.666943 0.682617 0.183973
O O7 0.654548 0.703740 0.381310
O O8 0.344254 0.114103 0.699956
O O9 0.433703 0.123273 0.867155
O O10 0.500000 0.000000 0.726163
O O11 0.209113 0.337054 0.027392
O O12 0.500000 0.500000 0.398377
O O13 0.657733 0.500000 0.500000
O O14 0.619966 0.332383 0.432110
O O15 0.307836 0.186163 0.995356
O O16 0.500000 0.247472 0.000000
#
# Coordination Sequence:
#
# PCOD9332420 Si02
#       7
#     8   8   8   8   8   8   8
#     4  11  24  47  72 104 149 197 237 308 374 433
#     4  11  24  46  71 103 152 189 241 308 367 435
#     4  12  25  45  75 106 143 197 250 304 374 438
#     4  12  24  46  74 105 147 192 244 306 372 440
#     4  11  25  42  71 107 140 191 251 296 367 436
#     4  11  26  47  74 110 147 196 247 304 373 451
#     4  11  24  46  70 103 150 189 239 308 368 435
#
# _framework density 23.373025999999999
#
# number of rings (size 3 to 8) (size 9 to 14) (size 15 to 20)
#    0.000    0.714    5.714    1.714    0.000   11.143 
#    0.000    2.857    0.000    0.000    0.000    0.000 
#    0.000    0.000    0.000    0.000    0.000    0.000 
#
# Total GULP energy -156479.662081 kJ/mol
# GULP energy per Si atom -5588.559360 kJ/mol
# Density = 2.331983 g / cm^3
# Si number density = 23.373026 Si / 1000 Ang^3
#
#
#
# Elastic Constant Matrix: (Units=GPa)
#
#
# Indices 1 2 3 4 5 6 
#
# 1 114.8751 20.9288 24.8198 0.0000 0.0000 0.0000
# 2 20.9288 62.2465 2.7276 0.0000 0.0000 0.0000
# 3 24.8198 2.7276 77.9416 0.0000 0.0000 0.0000
# 4 0.0000 0.0000 0.0000 36.1169 0.0000 0.0000
# 5 0.0000 0.0000 0.0000 0.0000 34.3296 0.0000
# 6 0.0000 0.0000 0.0000 0.0000 0.0000 35.3607
#
#
#
# Elastic Compliance Matrix: (Units=1/GPa)
#
#
# Indices 1 2 3 4 5 6 
#
# 1 0.009951 -0.003212 -0.003056 0.000000 0.000000 0.000000
# 2 -0.003212 0.017126 0.000423 0.000000 0.000000 0.000000
# 3 -0.003056 0.000423 0.013789 0.000000 0.000000 0.000000
# 4 0.000000 0.000000 0.000000 0.027688 0.000000 0.000000
# 5 0.000000 0.000000 0.000000 0.000000 0.029129 0.000000
# 6 0.000000 0.000000 0.000000 0.000000 0.000000 0.028280
#
#
# Mechanical properties :
#
#
# Convention : Reuss Voigt Hill
#
# Bulk Modulus (GPa) = 34.27429 39.11285 36.69357
# Shear Modulus (GPa) = 33.92649 34.93391 34.43020
#
# Velocity S-wave (km/s) = 3.81402 3.87023 3.84223
# Velocity P-wave (km/s) = 5.83879 6.06153 5.95120
#
# Compressibility (1/GPa) = 0.02917639
#
# Stress axis : x y z
#
# Youngs Moduli (GPa) = 100.49671 58.38920 72.52394
#
# Poissons Ratio (x) = 0.18753 0.22165
# Poissons Ratio (y) = 0.32277 -0.03071
# Poissons Ratio (z) = 0.30715 -0.02472
#
# Static dielectric constant tensor:
#      x y z
#    x 1.885690 0.000000 0.000000 
#    y 0.000000 1.944160 0.000000 
#    z 0.000000 0.000000 1.922750 
# 
# From -- ./inp_files/21609.got.cif
#   From: 2010.05.17/outbox.cif.g08.bks.cpg/sg23_11_cif.got.tgz:21609.got - 2010.06.04 12:02:01.
