data_PCOD9332010
_publ_section_title
;
Structure prediction by ZEFSAII (Michael W. Deem and Ramdas Pophale) SiO2 
 PCOD9332010
Probable space group: I 2 2 2
;
_chemical_formula_sum "Si O2"
_cell_formula_units_Z 40
_cell_length_a 5.191442
_cell_length_b 28.013261
_cell_length_c 11.906963
_cell_angle_alpha 90.000000
_cell_angle_beta 90.000000
_cell_angle_gamma 90.000000
_cell_volume 1731.620338
_symmetry_space_group_name_H-M "I 2 2 2"
_symmetry_group_IT_number 23
_symmetry_cell_setting 'orthorhombic'
loop_
_space_group_symop_operation_xyz
x,y,z
-x,-y,z
x,-y,-z
-x,y,-z
1/2+x,1/2+y,1/2+z
1/2-x,1/2-y,1/2+z
1/2+x,1/2-y,1/2-z
1/2-x,1/2+y,1/2-z
loop_
_atom_site_type_symbol
_atom_site_label
_atom_site_fract_x
_atom_site_fract_y
_atom_site_fract_z
Si Si1 0.000000 0.000000 0.500000
Si Si2 0.099968 0.642089 0.886209
Si Si3 0.500000 0.827983 0.000000
Si Si4 0.735483 0.221778 0.211615
Si Si5 0.500000 0.000000 0.000000
Si Si6 0.193291 0.914529 0.897984
Si Si7 0.591478 0.417396 0.150462
O O1 0.151422 0.033985 0.414596
O O2 0.196433 0.676480 0.790657
O O3 0.338115 0.606313 0.904403
O O4 0.847339 0.613914 0.850915
O O5 0.000000 0.667571 0.000000
O O6 0.327073 0.794714 0.083302
O O7 0.647292 0.865097 0.084110
O O8 0.518117 0.258241 0.259057
O O9 0.353199 0.962759 0.919370
O O10 0.040274 0.921013 0.782786
O O11 0.000000 0.912265 0.000000
#
# Coordination Sequence:
#
# PCOD9332010 Si02
#       7
#     2   8   4   8   2   8   8
#     4  12  28  46  72 114 150 206 250 312 360 454
#     4  12  25  51  73 105 145 197 245 305 382 444
#     4  11  26  49  75 104 150 196 245 311 390 447
#     4  12  29  47  77 112 144 190 250 316 379 463
#     4  10  26  44  64 116 134 192 250 316 380 426
#     4  11  25  46  75 103 148 196 250 314 375 455
#     4  12  27  47  74 106 149 197 254 302 371 451
#
# _framework density 23.099748999999999
#
# number of rings (size 3 to 8) (size 9 to 14) (size 15 to 20)
#    0.000    0.400    4.000    2.700   11.200    1.600 
#    0.000    0.000    0.000    0.000    0.000    0.000 
#    0.000    0.000    0.000    0.000    0.000    0.000 
#
# Total GULP energy -111759.583739 kJ/mol
# GULP energy per Si atom -5587.979187 kJ/mol
# Density = 2.304717 g / cm^3
# Si number density = 23.099749 Si / 1000 Ang^3
#
#
#
# Elastic Constant Matrix: (Units=GPa)
#
#
# Indices 1 2 3 4 5 6 
#
# 1 61.4065 -6.1924 -12.5654 0.0000 0.0000 0.0000
# 2 -6.1924 64.9801 8.4517 0.0000 0.0000 0.0000
# 3 -12.5654 8.4517 124.7883 0.0000 0.0000 0.0000
# 4 0.0000 0.0000 0.0000 52.4454 0.0000 0.0000
# 5 0.0000 0.0000 0.0000 0.0000 25.1054 0.0000
# 6 0.0000 0.0000 0.0000 0.0000 0.0000 35.2199
#
#
#
# Elastic Compliance Matrix: (Units=1/GPa)
#
#
# Indices 1 2 3 4 5 6 
#
# 1 0.016751 0.001389 0.001593 0.000000 0.000000 0.000000
# 2 0.001389 0.015641 -0.000919 0.000000 0.000000 0.000000
# 3 0.001593 -0.000919 0.008236 0.000000 0.000000 0.000000
# 4 0.000000 0.000000 0.000000 0.019067 0.000000 0.000000
# 5 0.000000 0.000000 0.000000 0.000000 0.039832 0.000000
# 6 0.000000 0.000000 0.000000 0.000000 0.000000 0.028393
#
#
# Mechanical properties :
#
#
# Convention : Reuss Voigt Hill
#
# Bulk Modulus (GPa) = 22.34485 25.61807 23.98146
# Shear Modulus (GPa) = 36.04535 39.98619 38.01577
#
# Velocity S-wave (km/s) = 3.95450 4.16507 4.06115
# Velocity P-wave (km/s) = 5.52675 5.85190 5.69165
#
# Compressibility (1/GPa) = 0.04475305
#
# Stress axis : x y z
#
# Youngs Moduli (GPa) = 59.69825 63.93329 121.41501
#
# Poissons Ratio (x) = -0.08881 -0.19337
# Poissons Ratio (y) = -0.08293 0.11164
# Poissons Ratio (z) = -0.09508 0.05879
#
# Static dielectric constant tensor:
#      x y z
#    x 1.820300 0.000000 0.000000 
#    y 0.000000 2.279030 0.000000 
#    z 0.000000 0.000000 1.947900 
# 
# From -- ./inp_files/13929.got.cif
#   From: 2010.05.17/outbox.cif.g08.bks.cpg/sg23_7_cif.got.tgz:13929.got - 2010.06.04 12:02:01.
