data_PCOD9332854
_publ_section_title
;
Structure prediction by ZEFSAII (Michael W. Deem and Ramdas Pophale) SiO2 
 PCOD9332854
Probable space group: I 21 21 21
;
_chemical_formula_sum "Si O2"
_cell_formula_units_Z 64
_cell_length_a 12.883941
_cell_length_b 22.994649
_cell_length_c 11.657821
_cell_angle_alpha 90.000000
_cell_angle_beta 90.000000
_cell_angle_gamma 90.000000
_cell_volume 3453.765880
_symmetry_space_group_name_H-M "I 21 21 21"
_symmetry_group_IT_number 24
_symmetry_cell_setting 'orthorhombic'
loop_
_space_group_symop_operation_xyz
x,y,z
-x,1/2-y,z
x,-y,1/2-z
1/2-x,y,-z
1/2+x,1/2+y,1/2+z
1/2-x,-y,1/2+z
1/2+x,1/2-y,-z
-x,1/2+y,1/2-z
loop_
_atom_site_type_symbol
_atom_site_label
_atom_site_fract_x
_atom_site_fract_y
_atom_site_fract_z
Si Si1 0.773854 0.289651 0.369350
Si Si2 0.090477 0.063408 0.194360
Si Si3 0.344764 0.434224 0.233384
Si Si4 0.546635 0.435214 0.396056
Si Si5 0.280598 0.342959 0.627926
Si Si6 0.475416 0.849778 0.891410
Si Si7 0.189819 0.109594 0.792122
Si Si8 0.488700 0.931435 0.452678
O O1 0.750000 0.309851 0.500000
O O2 0.739091 0.222880 0.357739
O O3 0.898639 0.295909 0.371595
O O4 0.723265 0.329770 0.269971
O O5 0.063334 0.105626 0.296824
O O6 0.208366 0.078636 0.158100
O O7 0.082585 0.000000 0.250000
O O8 0.016105 0.077628 0.087898
O O9 0.303081 0.500000 0.250000
O O10 0.443925 0.430151 0.318261
O O11 0.264268 0.386241 0.276541
O O12 0.399528 0.425832 0.109516
O O13 0.541724 0.383988 0.488892
O O14 0.645081 0.427398 0.314281
O O15 0.545540 0.500823 0.441573
O O16 0.250000 0.364205 0.500000
O O17 0.404174 0.339335 0.627049
O O18 0.096396 0.107859 0.884760
#
# Coordination Sequence:
#
# PCOD9332854 Si02
#       8
#     8   8   8   8   8   8   8   8
#     4  10  21  36  57  88 120 152 190 249 311 370
#     4  11  21  32  53  86 115 158 197 243 294 358
#     4   9  20  38  59  84 115 152 192 248 302 358
#     4  10  17  34  54  83 120 153 185 245 304 357
#     4  11  22  38  61  86 113 152 202 253 311 364
#     4  11  21  35  56  82 124 146 191 250 306 354
#     4  10  20  33  55  83 122 158 192 240 298 368
#     4  10  20  36  55  81 123 159 203 239 295 360
#
# _framework density 18.530498999999999
#
# number of rings (size 3 to 8) (size 9 to 14) (size 15 to 20)
#    0.000    1.750    3.750    2.625    0.000    0.500 
#    0.000    3.125    0.000    9.000    0.000    0.000 
#    0.000    0.000    0.000    0.000    0.000    0.000 
#
# Total GULP energy -178352.974625 kJ/mol
# GULP energy per Si atom -5573.530457 kJ/mol
# Density = 1.848832 g / cm^3
# Si number density = 18.530499 Si / 1000 Ang^3
#
#
#
# Elastic Constant Matrix: (Units=GPa)
#
#
# Indices 1 2 3 4 5 6 
#
# 1 48.3704 11.1018 -11.0099 -0.0001 0.0000 0.0000
# 2 11.1018 66.9615 12.6685 -0.0005 0.0002 -0.0001
# 3 -11.0099 12.6685 43.2703 -0.0007 0.0002 -0.0003
# 4 -0.0001 -0.0005 -0.0007 7.0129 0.0002 -0.0002
# 5 0.0000 0.0002 0.0002 0.0002 19.8571 0.0001
# 6 0.0000 -0.0001 -0.0003 -0.0002 0.0001 33.8199
#
#
#
# Elastic Compliance Matrix: (Units=1/GPa)
#
#
# Indices 1 2 3 4 5 6 
#
# 1 0.023627 -0.005351 0.007578 0.000001 0.000000 0.000000
# 2 -0.005351 0.017022 -0.006345 0.000000 0.000000 0.000000
# 3 0.007578 -0.006345 0.026896 0.000002 0.000000 0.000000
# 4 0.000001 0.000000 0.000002 0.142595 -0.000002 0.000001
# 5 0.000000 0.000000 0.000000 -0.000002 0.050360 0.000000
# 6 0.000000 0.000000 0.000000 0.000001 0.000000 0.029568
#
#
# Mechanical properties :
#
#
# Convention : Reuss Voigt Hill
#
# Bulk Modulus (GPa) = 16.86066 20.45811 18.65939
# Shear Modulus (GPa) = 15.71966 21.86076 18.79021
#
# Velocity S-wave (km/s) = 2.91574 3.43843 3.18782
# Velocity P-wave (km/s) = 4.52261 5.17957 4.86220
#
# Compressibility (1/GPa) = 0.05930965
#
# Stress axis : x y z
#
# Youngs Moduli (GPa) = 42.32465 58.74918 37.17966
#
# Poissons Ratio (x) = 0.31436 -0.28176
# Poissons Ratio (y) = 0.22648 0.23590
# Poissons Ratio (z) = -0.32075 0.37276
#
# Static dielectric constant tensor:
#      x y z
#    x 1.686430 0.000000 0.000000 
#    y 0.000000 1.683090 0.000000 
#    z 0.000000 0.000000 1.633630 
# 
# From -- ./inp_files/20134.got.cif
#   From: 2010.05.17/outbox.cif.g08.bks.cpg/sg24_11_cif.got.tgz:20134.got - 2010.06.04 00:33:39.
