data_PCOD9332407
_publ_section_title
;
Structure prediction by ZEFSAII (Michael W. Deem and Ramdas Pophale) SiO2 
 PCOD9332407
Probable space group: I 2 2 2
;
_chemical_formula_sum "Si O2"
_cell_formula_units_Z 30
_cell_length_a 6.756686
_cell_length_b 7.502850
_cell_length_c 17.718659
_cell_angle_alpha 90.000000
_cell_angle_beta 90.000000
_cell_angle_gamma 90.000000
_cell_volume 898.236814
_symmetry_space_group_name_H-M "I 2 2 2"
_symmetry_group_IT_number 23
_symmetry_cell_setting 'orthorhombic'
loop_
_space_group_symop_operation_xyz
x,y,z
-x,-y,z
x,-y,-z
-x,y,-z
1/2+x,1/2+y,1/2+z
1/2-x,1/2-y,1/2+z
1/2+x,1/2-y,1/2-z
1/2-x,1/2+y,1/2-z
loop_
_atom_site_type_symbol
_atom_site_label
_atom_site_fract_x
_atom_site_fract_y
_atom_site_fract_z
Si Si1 0.500000 0.500000 0.377344
Si Si2 0.378711 0.646259 0.086088
Si Si3 0.131275 0.360701 0.095245
Si Si4 0.500000 0.000000 0.000000
Si Si5 0.658299 0.849656 0.775734
O O1 0.610051 0.347879 0.425161
O O2 0.352797 0.407565 0.318613
O O3 0.391645 0.673802 0.176706
O O4 0.123874 0.594215 0.078819
O O5 0.372148 0.591285 0.931581
O O6 0.389181 0.849314 0.052435
O O7 0.158630 0.342636 0.185944
O O8 0.500000 0.000000 0.792604
#
# Coordination Sequence:
#
# PCOD9332407 Si02
#       5
#     4   8   8   2   8
#     4  12  24  42  68 115 174 213 266 334 430 530
#     4  12  26  49  81 115 163 221 300 349 414 518
#     4  11  25  41  71 121 172 212 265 346 444 518
#     4  12  30  56  84 116 156 248 316 354 404 496
#     4  11  24  43  74 122 171 223 266 344 440 526
#
# _framework density 33.398766999999999
#
# number of rings (size 3 to 8) (size 9 to 14) (size 15 to 20)
#    0.000    0.533    4.000    3.600   11.200    0.000 
#    0.000    0.000    0.000   12.000    0.000    0.000 
#    0.000    0.000    0.000    0.000    0.000    0.000 
#
# Total GULP energy -83986.778608 kJ/mol
# GULP energy per Si atom -5599.118574 kJ/mol
# Density = 3.332275 g / cm^3
# Si number density = 33.398767 Si / 1000 Ang^3
#
#
#
# Elastic Constant Matrix: (Units=GPa)
#
#
# Indices 1 2 3 4 5 6 
#
# 1 297.5378 174.9001 74.7861 0.0000 0.0000 0.0000
# 2 174.9001 401.3433 101.6013 0.0000 0.0000 0.0000
# 3 74.7861 101.6013 192.4673 0.0000 0.0000 0.0000
# 4 0.0000 0.0000 0.0000 70.6801 0.0000 0.0000
# 5 0.0000 0.0000 0.0000 0.0000 67.1578 0.0000
# 6 0.0000 0.0000 0.0000 0.0000 0.0000 148.0633
#
#
#
# Elastic Compliance Matrix: (Units=1/GPa)
#
#
# Indices 1 2 3 4 5 6 
#
# 1 0.004635 -0.001805 -0.000848 0.000000 0.000000 0.000000
# 2 -0.001805 0.003579 -0.001188 0.000000 0.000000 0.000000
# 3 -0.000848 -0.001188 0.006152 0.000000 0.000000 0.000000
# 4 0.000000 0.000000 0.000000 0.014148 0.000000 0.000000
# 5 0.000000 0.000000 0.000000 0.000000 0.014890 0.000000
# 6 0.000000 0.000000 0.000000 0.000000 0.000000 0.006754
#
#
# Mechanical properties :
#
#
# Convention : Reuss Voigt Hill
#
# Bulk Modulus (GPa) = 149.60910 177.10261 163.35585
# Shear Modulus (GPa) = 83.23664 93.18429 88.21047
#
# Velocity S-wave (km/s) = 4.99762 5.28782 5.14477
# Velocity P-wave (km/s) = 8.84271 9.50911 9.18196
#
# Compressibility (1/GPa) = 0.00668409
#
# Stress axis : x y z
#
# Youngs Moduli (GPa) = 215.73626 279.40224 162.54081
#
# Poissons Ratio (x) = 0.50440 0.13785
# Poissons Ratio (y) = 0.38947 0.19308
# Poissons Ratio (z) = 0.18297 0.33189
#
# Static dielectric constant tensor:
#      x y z
#    x 3.007260 0.000000 0.000000 
#    y 0.000000 2.556560 0.000000 
#    z 0.000000 0.000000 2.360710 
# 
# From -- ./inp_files/16300.got.cif
#   From: 2010.05.17/outbox.cif.g08.bks.cpg/sg23_9_cif.got.tgz:16300.got - 2010.06.04 12:02:01.
