data_PCOD9332891
_publ_section_title
;
Structure prediction by ZEFSAII (Michael W. Deem and Ramdas Pophale) SiO2 
 PCOD9332891
Probable space group: I 21 21 21
;
_chemical_formula_sum "Si O2"
_cell_formula_units_Z 64
_cell_length_a 28.797875
_cell_length_b 6.958191
_cell_length_c 12.981112
_cell_angle_alpha 90.000000
_cell_angle_beta 90.000000
_cell_angle_gamma 90.000000
_cell_volume 2601.169692
_symmetry_space_group_name_H-M "I 21 21 21"
_symmetry_group_IT_number 24
_symmetry_cell_setting 'orthorhombic'
loop_
_space_group_symop_operation_xyz
x,y,z
-x,1/2-y,z
x,-y,1/2-z
1/2-x,y,-z
1/2+x,1/2+y,1/2+z
1/2-x,-y,1/2+z
1/2+x,1/2-y,-z
-x,1/2+y,1/2-z
loop_
_atom_site_type_symbol
_atom_site_label
_atom_site_fract_x
_atom_site_fract_y
_atom_site_fract_z
Si Si1 0.786003 0.088315 0.859085
Si Si2 0.094388 0.727485 0.351239
Si Si3 0.296866 0.788550 0.992016
Si Si4 0.879935 0.800621 0.572915
Si Si5 0.809690 0.782331 0.254254
Si Si6 0.553783 0.773143 0.250987
Si Si7 0.895183 0.267067 0.551294
Si Si8 0.053337 0.285297 0.352446
O O1 0.825150 0.221719 0.908152
O O2 0.738200 0.196335 0.821647
O O3 0.803521 0.000000 0.750000
O O4 0.784265 0.906486 0.938792
O O5 0.096811 0.776826 0.470044
O O6 0.145814 0.798818 0.312741
O O7 0.075730 0.501797 0.354593
O O8 0.060988 0.796644 0.261403
O O9 0.343775 0.854817 0.047041
O O10 0.250000 0.910840 0.000000
O O11 0.304270 0.769418 0.867136
O O12 0.908437 0.712811 0.666153
O O13 0.885802 0.034918 0.563372
O O14 0.826384 0.000000 0.250000
O O15 0.500000 0.750000 0.277364
O O16 0.568412 0.690406 0.141039
O O17 0.560157 0.000000 0.250000
O O18 0.917045 0.310404 0.441490
O O19 0.000000 0.250000 0.379271
#
# Coordination Sequence:
#
# PCOD9332891 Si02
#       8
#     8   8   8   8   8   8   8   8
#     4  10  18  22  36  61  88 123 156 176 235 304
#     4  10  19  31  42  59  87 121 155 196 236 286
#     4  11  17  23  38  62  89 123 154 190 232 297
#     4   9  18  29  43  62  94 124 157 190 238 293
#     4  11  16  24  38  57  87 122 153 184 231 296
#     4  10  20  34  52  72  97 136 171 211 254 296
#     4   9  17  30  44  62  90 123 157 196 240 287
#     4  10  18  28  43  59  78 115 161 195 230 272
#
# _framework density 24.604317000000002
#
# number of rings (size 3 to 8) (size 9 to 14) (size 15 to 20)
#    0.000    2.000    5.000    3.750    0.000    0.500 
#    0.000    0.000    0.000    0.000    0.000    0.000 
#    0.000    0.000   21.250    0.750    1.000    0.000 
#
# Total GULP energy -178151.286476 kJ/mol
# GULP energy per Si atom -5567.227702 kJ/mol
# Density = 2.454832 g / cm^3
# Si number density = 24.604317 Si / 1000 Ang^3
#
#
#
# Elastic Constant Matrix: (Units=GPa)
#
#
# Indices 1 2 3 4 5 6 
#
# 1 140.8776 0.0277 11.9680 0.0000 0.0000 0.0000
# 2 0.0277 94.2798 -10.5821 0.0000 0.0000 0.0000
# 3 11.9680 -10.5821 72.9819 0.0000 0.0000 0.0000
# 4 0.0000 0.0000 0.0000 -13.6122 0.0000 0.0000
# 5 0.0000 0.0000 0.0000 0.0000 69.4150 0.0000
# 6 0.0000 0.0000 0.0000 0.0000 0.0000 10.5725
#
#
#
# Elastic Compliance Matrix: (Units=1/GPa)
#
#
# Indices 1 2 3 4 5 6 
#
# 1 0.007200 -0.000137 -0.001201 0.000000 0.000000 0.000000
# 2 -0.000137 0.010785 0.001586 0.000000 0.000000 0.000000
# 3 -0.001201 0.001586 0.014129 0.000000 0.000000 0.000000
# 4 0.000000 0.000000 0.000000 -0.073464 0.000000 0.000000
# 5 0.000000 0.000000 0.000000 0.000000 0.014406 0.000000
# 6 0.000000 0.000000 0.000000 0.000000 0.000000 0.094585
#
#
# Mechanical properties :
#
#
# Convention : Reuss Voigt Hill
#
# Bulk Modulus (GPa) = 30.66402 34.55186 32.60794
# Shear Modulus (GPa) = 64.09019 33.72342 48.90681
#
# Velocity S-wave (km/s) = 5.10930 3.70622 4.46324
# Velocity P-wave (km/s) = 6.87724 5.69107 6.31208
#
# Compressibility (1/GPa) = 0.03261151
#
# Stress axis : x y z
#
# Youngs Moduli (GPa) = 138.88153 92.72308 70.77687
#
# Poissons Ratio (x) = 0.01269 0.08498
# Poissons Ratio (y) = 0.01901 -0.11227
# Poissons Ratio (z) = 0.16674 -0.14708
#
# Static dielectric constant tensor:
#      x y z
#    x 2.014930 0.000000 0.000000 
#    y 0.000000 2.249260 0.000000 
#    z 0.000000 0.000000 1.892940 
# 
# From -- ./inp_files/23017.got.cif
#   From: 2010.05.17/outbox.cif.g08.bks.cpg/sg24_12_cif.got.tgz:23017.got - 2010.06.04 00:33:39.
