data_PCOD9332765
_publ_section_title
;
Structure prediction by ZEFSAII (Michael W. Deem and Ramdas Pophale) SiO2 
 PCOD9332765
Probable space group: I 21 21 21
;
_chemical_formula_sum "Si O2"
_cell_formula_units_Z 60
_cell_length_a 18.693441
_cell_length_b 17.942071
_cell_length_c 9.082689
_cell_angle_alpha 90.000000
_cell_angle_beta 90.000000
_cell_angle_gamma 90.000000
_cell_volume 3046.325223
_symmetry_space_group_name_H-M "I 21 21 21"
_symmetry_group_IT_number 24
_symmetry_cell_setting 'orthorhombic'
loop_
_space_group_symop_operation_xyz
x,y,z
-x,1/2-y,z
x,-y,1/2-z
1/2-x,y,-z
1/2+x,1/2+y,1/2+z
1/2-x,-y,1/2+z
1/2+x,1/2-y,-z
-x,1/2+y,1/2-z
loop_
_atom_site_type_symbol
_atom_site_label
_atom_site_fract_x
_atom_site_fract_y
_atom_site_fract_z
Si Si1 0.459260 0.174208 0.710659
Si Si2 0.417489 0.425999 0.836433
Si Si3 0.599698 0.679140 0.458907
Si Si4 0.520484 0.075288 0.165256
Si Si5 0.632019 0.188367 0.245623
Si Si6 0.290872 0.684310 0.719829
Si Si7 0.250000 0.814984 0.500000
Si Si8 0.330739 0.786992 0.979438
O O1 0.500000 0.250000 0.665000
O O2 0.518758 0.111099 0.738354
O O3 0.392065 0.163993 0.600204
O O4 0.427656 0.185506 0.874565
O O5 0.395721 0.500000 0.750000
O O6 0.350154 0.370246 0.842652
O O7 0.445072 0.439222 0.003045
O O8 0.546139 0.628853 0.367052
O O9 0.606836 0.762198 0.393532
O O10 0.678959 0.643491 0.452442
O O11 0.575455 0.123321 0.263727
O O12 0.502257 0.000000 0.250000
O O13 0.710670 0.152797 0.227266
O O14 0.640183 0.251275 0.370672
O O15 0.277586 0.759384 0.626367
O O16 0.317642 0.715028 0.875403
O O17 0.250000 0.819820 0.000000
#
# Coordination Sequence:
#
# PCOD9332765 Si02
#       8
#     8   8   8   8   8   8   4   8
#     4  11  19  36  64  88 117 155 206 252 294 360
#     4  11  24  39  61  86 121 169 208 247 298 363
#     4  10  20  37  63  89 116 153 209 257 301 370
#     4  11  25  40  55  87 127 161 210 249 307 365
#     4  10  22  37  60  89 124 161 194 249 318 360
#     4  10  19  36  58  89 122 151 202 245 295 368
#     4  10  16  34  70  92 108 150 198 258 316 350
#     4  10  21  35  57  93 125 148 194 259 307 356
#
# _framework density 19.695862000000002
#
# number of rings (size 3 to 8) (size 9 to 14) (size 15 to 20)
#    0.000    1.600    2.667    3.600    1.867    2.667 
#    0.000    0.000    0.000    3.200    6.933    0.000 
#    0.000    0.000    0.000    0.000    0.000    0.000 
#
# Total GULP energy -167391.856145 kJ/mol
# GULP energy per Si atom -5579.728538 kJ/mol
# Density = 1.965103 g / cm^3
# Si number density = 19.695862 Si / 1000 Ang^3
#
#
#
# Elastic Constant Matrix: (Units=GPa)
#
#
# Indices 1 2 3 4 5 6 
#
# 1 146.7348 33.4937 27.4112 0.0000 0.0000 0.0000
# 2 33.4937 31.6022 15.5510 0.0000 0.0000 0.0000
# 3 27.4112 15.5510 64.6807 0.0000 0.0000 0.0000
# 4 0.0000 0.0000 0.0000 21.1173 0.0000 0.0000
# 5 0.0000 0.0000 0.0000 0.0000 29.9465 0.0000
# 6 0.0000 0.0000 0.0000 0.0000 0.0000 5.3438
#
#
#
# Elastic Compliance Matrix: (Units=1/GPa)
#
#
# Indices 1 2 3 4 5 6 
#
# 1 0.009162 -0.008847 -0.001756 0.000000 0.000000 0.000000
# 2 -0.008847 0.044431 -0.006933 0.000000 0.000000 0.000000
# 3 -0.001756 -0.006933 0.017872 0.000000 0.000000 0.000000
# 4 0.000000 0.000000 0.000000 0.047355 0.000000 0.000000
# 5 0.000000 0.000000 0.000000 0.000000 0.033393 0.000000
# 6 0.000000 0.000000 0.000000 0.000000 0.000000 0.187133
#
#
# Mechanical properties :
#
#
# Convention : Reuss Voigt Hill
#
# Bulk Modulus (GPa) = 27.47747 43.99215 35.73481
# Shear Modulus (GPa) = 12.93496 22.38563 17.66029
#
# Velocity S-wave (km/s) = 2.56546 3.37496 2.99766
# Velocity P-wave (km/s) = 4.77039 6.12954 5.49217
#
# Compressibility (1/GPa) = 0.03639345
#
# Stress axis : x y z
#
# Youngs Moduli (GPa) = 109.14174 22.50663 55.95441
#
# Poissons Ratio (x) = 0.19911 0.09825
# Poissons Ratio (y) = 0.96555 0.38795
# Poissons Ratio (z) = 0.19165 0.15605
#
# Static dielectric constant tensor:
#      x y z
#    x 1.793820 0.000000 0.000000 
#    y 0.000000 1.648270 0.000000 
#    z 0.000000 0.000000 1.810190 
# 
# From -- ./inp_files/14457.got.cif
#   From: 2010.05.17/outbox.cif.g08.bks.cpg/sg24_8_cif.got.tgz:14457.got - 2010.06.04 00:33:39.
