data_PCOD9332728
_publ_section_title
;
Structure prediction by ZEFSAII (Michael W. Deem and Ramdas Pophale) SiO2 
 PCOD9332728
Probable space group: I 21 21 21
;
_chemical_formula_sum "Si O2"
_cell_formula_units_Z 64
_cell_length_a 31.863068
_cell_length_b 7.790817
_cell_length_c 14.835576
_cell_angle_alpha 90.000000
_cell_angle_beta 90.000000
_cell_angle_gamma 90.000000
_cell_volume 3682.773474
_symmetry_space_group_name_H-M "I 21 21 21"
_symmetry_group_IT_number 24
_symmetry_cell_setting 'orthorhombic'
loop_
_space_group_symop_operation_xyz
x,y,z
-x,1/2-y,z
x,-y,1/2-z
1/2-x,y,-z
1/2+x,1/2+y,1/2+z
1/2-x,-y,1/2+z
1/2+x,1/2-y,-z
-x,1/2+y,1/2-z
loop_
_atom_site_type_symbol
_atom_site_label
_atom_site_fract_x
_atom_site_fract_y
_atom_site_fract_z
Si Si1 0.452778 0.706805 0.853790
Si Si2 0.707733 0.202927 0.048825
Si Si3 0.131693 0.293216 0.433472
Si Si4 0.452778 0.706805 0.646210
Si Si5 0.724045 0.694074 0.250000
Si Si6 0.318025 0.702933 0.750000
Si Si7 0.131693 0.706785 0.433472
Si Si8 0.707733 0.797073 0.048825
O O1 0.500000 0.750000 0.882214
O O2 0.415606 0.771944 0.918395
O O3 0.447193 0.769076 0.750000
O O4 0.449278 0.500000 0.850082
O O5 0.710444 0.223046 0.155844
O O6 0.707599 0.000000 0.027248
O O7 0.750000 0.273595 0.000000
O O8 0.664275 0.274146 0.008009
O O9 0.155041 0.263751 0.338549
O O10 0.128148 0.500000 0.446677
O O11 0.164275 0.225854 0.508008
O O12 0.500000 0.750000 0.617786
O O13 0.415606 0.771944 0.581605
O O14 0.708731 0.500000 0.250000
O O15 0.774523 0.699215 0.250000
O O16 0.710443 0.776954 0.155844
O O17 0.307153 0.500000 0.750000
O O18 0.344959 0.736249 0.661451
O O19 0.750000 0.726405 0.000000
#
# Coordination Sequence:
#
# PCOD9332728 Si02
#       8
#     8   8   8   8   8   8   8   8
#     4   9  16  27  44  68  98 126 153 187 231 279
#     4  10  19  33  54  72  88 121 170 207 232 271
#     4   9  16  28  50  73  91 121 165 206 230 261
#     4   9  16  27  44  68  98 126 153 187 231 279
#     4  12  24  34  44  67 104 133 153 192 247 293
#     4  10  16  30  51  69  91 125 169 202 228 267
#     4   9  16  28  50  73  91 121 165 206 230 261
#     4  10  19  33  54  72  88 121 170 207 232 271
#
# _framework density 17.378207
#
# number of rings (size 3 to 8) (size 9 to 14) (size 15 to 20)
#    0.000    2.250    3.750    1.125    0.000    0.500 
#    0.000    2.500    0.000    0.000    0.000    0.875 
#    0.000    0.000    0.000    0.000    0.000    0.000 
#
# Total GULP energy -178352.615522 kJ/mol
# GULP energy per Si atom -5573.519235 kJ/mol
# Density = 1.733865 g / cm^3
# Si number density = 17.378207 Si / 1000 Ang^3
#
#
#
# Elastic Constant Matrix: (Units=GPa)
#
#
# Indices 1 2 3 4 5 6 
#
# 1 165.2030 11.9044 60.9299 0.0000 0.0000 0.0000
# 2 11.9044 16.5591 -2.3370 0.0000 0.0000 0.0000
# 3 60.9299 -2.3370 79.9804 0.0000 0.0000 0.0000
# 4 0.0000 0.0000 0.0000 -15.7963 0.0000 0.0000
# 5 0.0000 0.0000 0.0000 0.0000 67.7104 0.0000
# 6 0.0000 0.0000 0.0000 0.0000 0.0000 15.0841
#
#
#
# Elastic Compliance Matrix: (Units=1/GPa)
#
#
# Indices 1 2 3 4 5 6 
#
# 1 0.009308 -0.007725 -0.007317 0.000000 0.000000 0.000000
# 2 -0.007725 0.067050 0.007844 0.000000 0.000000 0.000000
# 3 -0.007317 0.007844 0.018306 0.000000 0.000000 0.000000
# 4 0.000000 0.000000 0.000000 -0.063306 0.000000 0.000000
# 5 0.000000 0.000000 0.000000 0.000000 0.014769 0.000000
# 6 0.000000 0.000000 0.000000 0.000000 0.000000 0.066295
#
#
# Mechanical properties :
#
#
# Convention : Reuss Voigt Hill
#
# Bulk Modulus (GPa) = 12.45804 44.74858 28.60331
# Shear Modulus (GPa) = 32.55750 26.14932 29.35341
#
# Velocity S-wave (km/s) = 4.33305 3.88328 4.11432
# Velocity P-wave (km/s) = 5.67610 6.77585 6.25021
#
# Compressibility (1/GPa) = 0.08026948
#
# Stress axis : x y z
#
# Youngs Moduli (GPa) = 107.42975 14.91425 54.62573
#
# Poissons Ratio (x) = 0.11521 0.39969
# Poissons Ratio (y) = 0.82984 -0.42847
# Poissons Ratio (z) = 0.78606 -0.11698
#
# Static dielectric constant tensor:
#      x y z
#    x 1.621650 0.000000 0.000000 
#    y 0.000000 1.654970 0.000000 
#    z 0.000000 0.000000 1.793220 
# 
# From -- ./inp_files/28283.got.cif
#   From: 2010.05.17/outbox.cif.g08.bks.cpg/sg24_15_cif.got.tgz:28283.got - 2010.06.04 00:33:39.
