data_PCOD9332098
_publ_section_title
;
Structure prediction by ZEFSAII (Michael W. Deem and Ramdas Pophale) SiO2 
 PCOD9332098
Probable space group: I 2 2 2
;
_chemical_formula_sum "Si O2"
_cell_formula_units_Z 40
_cell_length_a 7.675604
_cell_length_b 7.466190
_cell_length_c 28.085173
_cell_angle_alpha 90.000000
_cell_angle_beta 90.000000
_cell_angle_gamma 90.000000
_cell_volume 1609.491552
_symmetry_space_group_name_H-M "I 2 2 2"
_symmetry_group_IT_number 23
_symmetry_cell_setting 'orthorhombic'
loop_
_space_group_symop_operation_xyz
x,y,z
-x,-y,z
x,-y,-z
-x,y,-z
1/2+x,1/2+y,1/2+z
1/2-x,1/2-y,1/2+z
1/2+x,1/2-y,1/2-z
1/2-x,1/2+y,1/2-z
loop_
_atom_site_type_symbol
_atom_site_label
_atom_site_fract_x
_atom_site_fract_y
_atom_site_fract_z
Si Si1 0.299202 0.533083 0.687207
Si Si2 0.056650 0.289359 0.447407
Si Si3 0.534650 0.714017 0.445485
Si Si4 0.221552 0.783577 0.375234
Si Si5 0.202631 0.555882 0.205505
O O1 0.500000 0.500000 0.675609
O O2 0.202442 0.412397 0.648936
O O3 0.269532 0.462469 0.740711
O O4 0.265743 0.743205 0.687924
O O5 0.260137 0.262073 0.436987
O O6 0.000000 0.500000 0.445943
O O7 0.000000 0.229594 0.500000
O O8 0.935898 0.191140 0.410345
O O9 0.500000 0.500000 0.444880
O O10 0.500000 0.775159 0.500000
O O11 0.400685 0.793777 0.406546
O O12 0.217091 0.918623 0.331540
O O13 0.000000 0.500000 0.207177
#
# Coordination Sequence:
#
# PCOD9332098 Si02
#       5
#     8   8   8   8   8
#     4  12  25  51  76 111 159 207 267 335 399 478
#     4  11  21  39  71 119 155 208 279 325 398 486
#     4  11  20  40  71 115 159 206 269 335 401 474
#     4  12  25  44  80 114 159 215 262 331 405 471
#     4  12  26  49  75 110 160 206 271 328 405 477
#
# _framework density 24.852567000000001
#
# number of rings (size 3 to 8) (size 9 to 14) (size 15 to 20)
#    0.000    0.400    8.000    1.800    0.000    0.800 
#    7.200    0.000    0.000    3.000    0.000    1.400 
#    0.000    0.000    0.000    0.000    0.000    0.000 
#
# Total GULP energy -112289.975022 kJ/mol
# GULP energy per Si atom -5614.498751 kJ/mol
# Density = 2.479600 g / cm^3
# Si number density = 24.852567 Si / 1000 Ang^3
#
#
#
# Elastic Constant Matrix: (Units=GPa)
#
#
# Indices 1 2 3 4 5 6 
#
# 1 176.3035 29.2960 69.4150 0.0000 0.0000 0.0000
# 2 29.2960 128.4799 46.0025 0.0000 0.0002 0.0000
# 3 69.4150 46.0025 191.0964 0.0000 0.0001 0.0000
# 4 0.0000 0.0000 0.0000 -59.5299 0.0002 0.0000
# 5 0.0000 0.0002 0.0001 0.0002 -226.1583 0.0000
# 6 0.0000 0.0000 0.0000 0.0000 0.0000 18.4320
#
#
#
# Elastic Compliance Matrix: (Units=1/GPa)
#
#
# Indices 1 2 3 4 5 6 
#
# 1 0.006678 -0.000716 -0.002254 0.000000 0.000000 0.000000
# 2 -0.000716 0.008594 -0.001809 0.000000 0.000000 0.000000
# 3 -0.002254 -0.001809 0.006487 0.000000 0.000000 0.000000
# 4 0.000000 0.000000 0.000000 -0.016798 0.000000 0.000000
# 5 0.000000 0.000000 0.000000 0.000000 -0.004422 0.000000
# 6 0.000000 0.000000 0.000000 0.000000 0.000000 0.054254
#
#
# Mechanical properties :
#
#
# Convention : Reuss Voigt Hill
#
# Bulk Modulus (GPa) = 81.94733 87.25632 84.60182
# Shear Modulus (GPa) = 73.08108 -30.04016 21.52046
#
# Velocity S-wave (km/s) = 5.42860 -3.48046 2.94585
# Velocity P-wave (km/s) = 8.50517 4.36284 6.75915
#
# Compressibility (1/GPa) = 0.01220296
#
# Stress axis : x y z
#
# Youngs Moduli (GPa) = 149.73963 116.35735 154.15501
#
# Poissons Ratio (x) = 0.08330 0.34739
# Poissons Ratio (y) = 0.10720 0.27884
# Poissons Ratio (z) = 0.33744 0.21047
#
# Static dielectric constant tensor:
#      x y z
#    x 1.908030 0.000000 0.000000 
#    y 0.000000 3.217580 0.000000 
#    z 0.000000 0.000000 1.932090 
# 
# From -- ./inp_files/27875.got.cif
#   From: 2010.05.17/outbox.cif.g08.bks.cpg/sg23_14_cif.got.tgz:27875.got - 2010.06.04 12:02:01.
