data_PCOD9332889
_publ_section_title
;
Structure prediction by ZEFSAII (Michael W. Deem and Ramdas Pophale) SiO2 
 PCOD9332889
Probable space group: I 21 21 21
;
_chemical_formula_sum "Si O2"
_cell_formula_units_Z 36
_cell_length_a 14.591741
_cell_length_b 18.761340
_cell_length_c 5.586363
_cell_angle_alpha 90.000000
_cell_angle_beta 90.000000
_cell_angle_gamma 90.000000
_cell_volume 1529.326165
_symmetry_space_group_name_H-M "I 21 21 21"
_symmetry_group_IT_number 24
_symmetry_cell_setting 'orthorhombic'
loop_
_space_group_symop_operation_xyz
x,y,z
-x,1/2-y,z
x,-y,1/2-z
1/2-x,y,-z
1/2+x,1/2+y,1/2+z
1/2-x,-y,1/2+z
1/2+x,1/2-y,-z
-x,1/2+y,1/2-z
loop_
_atom_site_type_symbol
_atom_site_label
_atom_site_fract_x
_atom_site_fract_y
_atom_site_fract_z
Si Si1 0.355361 0.922071 0.638241
Si Si2 0.923613 0.500000 0.750000
Si Si3 0.000000 0.250000 0.395591
Si Si4 0.297188 0.230619 0.753224
Si Si5 0.805332 0.000000 0.250000
Si Si6 0.466214 0.401566 0.597798
O O1 0.299616 0.855548 0.732870
O O2 0.461306 0.900387 0.686399
O O3 0.337050 0.000000 0.750000
O O4 0.357927 0.940100 0.359629
O O5 0.990972 0.462068 0.567435
O O6 0.904647 0.249905 0.250642
O O7 0.983843 0.174797 0.529554
O O8 0.250000 0.252103 0.500000
O O9 0.250000 0.256190 0.000000
O O10 0.750000 0.987667 0.500000
O O11 0.869306 0.069161 0.310524
#
# Coordination Sequence:
#
# PCOD9332889 Si02
#       6
#     8   4   4   8   4   8
#     4   9  20  37  69  97 136 185 230 297 362 442
#     4  10  17  38  76  99 132 186 244 302 349 467
#     4  10  26  50  76 102 152 210 238 332 386 448
#     4  11  27  47  69 107 148 190 251 302 370 460
#     4  12  25  40  70 105 148 194 256 328 379 451
#     4  10  21  43  65 104 136 191 257 297 384 448
#
# _framework density 23.539778999999999
#
# number of rings (size 3 to 8) (size 9 to 14) (size 15 to 20)
#    0.000    1.778    3.333    0.667    9.333    3.556 
#    4.000    0.000    0.000    0.000    0.000    0.000 
#    0.000    0.000    0.000    0.000    0.000    0.000 
#
# Total GULP energy -100229.231409 kJ/mol
# GULP energy per Si atom -5568.290634 kJ/mol
# Density = 2.348620 g / cm^3
# Si number density = 23.539779 Si / 1000 Ang^3
#
#
#
# Elastic Constant Matrix: (Units=GPa)
#
#
# Indices 1 2 3 4 5 6 
#
# 1 151.0777 10.7823 60.6132 0.0000 0.0000 0.0000
# 2 10.7823 67.3661 -0.0946 0.0000 0.0000 0.0000
# 3 60.6132 -0.0946 113.3404 0.0000 0.0000 0.0000
# 4 0.0000 0.0000 0.0000 9.4098 0.0000 0.0000
# 5 0.0000 0.0000 0.0000 0.0000 234.4361 0.0000
# 6 0.0000 0.0000 0.0000 0.0000 0.0000 38.3816
#
#
#
# Elastic Compliance Matrix: (Units=1/GPa)
#
#
# Indices 1 2 3 4 5 6 
#
# 1 0.008553 -0.001375 -0.004575 0.000000 0.000000 0.000000
# 2 -0.001375 0.015065 0.000748 0.000000 0.000000 0.000000
# 3 -0.004575 0.000748 0.011270 0.000000 0.000000 0.000000
# 4 0.000000 0.000000 0.000000 0.106272 0.000000 0.000000
# 5 0.000000 0.000000 0.000000 0.000000 0.004266 0.000000
# 6 0.000000 0.000000 0.000000 0.000000 0.000000 0.026054
#
#
# Mechanical properties :
#
#
# Convention : Reuss Voigt Hill
#
# Bulk Modulus (GPa) = 40.84321 52.70957 46.77639
# Shear Modulus (GPa) = 26.30932 73.81105 50.06019
#
# Velocity S-wave (km/s) = 3.34676 5.60571 4.61653
# Velocity P-wave (km/s) = 5.68531 8.02115 6.95204
#
# Compressibility (1/GPa) = 0.02448387
#
# Stress axis : x y z
#
# Youngs Moduli (GPa) = 116.92042 66.37706 88.72864
#
# Poissons Ratio (x) = 0.09129 0.40594
# Poissons Ratio (y) = 0.16081 -0.06638
# Poissons Ratio (z) = 0.53492 -0.04966
#
# Static dielectric constant tensor:
#      x y z
#    x 1.987280 0.000000 0.000000 
#    y 0.000000 1.963250 0.000000 
#    z 0.000000 0.000000 2.004460 
# 
# From -- ./inp_files/3386.got.cif
#   From: 2010.05.17/outbox.cif.g08.bks.cpg/sg24_2_cif.got.tgz:3386.got - 2010.06.04 00:33:39.
