data_PCOD9332338
_publ_section_title
;
Structure prediction by ZEFSAII (Michael W. Deem and Ramdas Pophale) SiO2 
 PCOD9332338
Probable space group: I 2 2 2
;
_chemical_formula_sum "Si O2"
_cell_formula_units_Z 32
_cell_length_a 13.733675
_cell_length_b 8.703471
_cell_length_c 10.337249
_cell_angle_alpha 90.000000
_cell_angle_beta 90.000000
_cell_angle_gamma 90.000000
_cell_volume 1235.618010
_symmetry_space_group_name_H-M "I 2 2 2"
_symmetry_group_IT_number 23
_symmetry_cell_setting 'orthorhombic'
loop_
_space_group_symop_operation_xyz
x,y,z
-x,-y,z
x,-y,-z
-x,y,-z
1/2+x,1/2+y,1/2+z
1/2-x,1/2-y,1/2+z
1/2+x,1/2-y,1/2-z
1/2-x,1/2+y,1/2-z
loop_
_atom_site_type_symbol
_atom_site_label
_atom_site_fract_x
_atom_site_fract_y
_atom_site_fract_z
Si Si1 0.587077 0.790943 0.398610
Si Si2 0.644487 0.915727 0.777503
Si Si3 0.744253 0.675696 0.598385
Si Si4 0.036229 0.225416 0.629563
O O1 0.500000 0.810759 0.500000
O O2 0.675288 0.723290 0.480817
O O3 0.551400 0.680718 0.280479
O O4 0.616164 0.952951 0.329363
O O5 0.691164 0.764589 0.715847
O O6 0.547253 0.858050 0.850588
O O7 0.726032 0.003345 0.861451
O O8 0.852810 0.741386 0.589266
O O9 0.000000 0.145692 0.500000
#
# Coordination Sequence:
#
# PCOD9332338 Si02
#       4
#     8   8   8   8
#     4  11  23  43  79 115 152 205 272 316 388 479
#     4  11  26  48  78 115 152 212 264 322 395 482
#     4  11  25  43  80 114 155 206 267 327 391 475
#     4  11  27  48  76 113 158 210 265 321 393 488
#
# _framework density 25.897973
#
# number of rings (size 3 to 8) (size 9 to 14) (size 15 to 20)
#    0.000    1.000    2.500    3.750   10.500    8.000 
#    0.000    1.250    0.000    6.000    0.000    0.000 
#    0.000    0.000    0.000    0.000    0.000    0.000 
#
# Total GULP energy -89257.182189 kJ/mol
# GULP energy per Si atom -5578.573887 kJ/mol
# Density = 2.583903 g / cm^3
# Si number density = 25.897973 Si / 1000 Ang^3
#
#
#
# Elastic Constant Matrix: (Units=GPa)
#
#
# Indices 1 2 3 4 5 6 
#
# 1 230.5971 103.2925 99.6746 0.0000 0.0000 0.0000
# 2 103.2925 95.8808 53.3349 0.0000 0.0000 0.0000
# 3 99.6746 53.3349 217.2755 0.0000 0.0000 0.0000
# 4 0.0000 0.0000 0.0000 -13.8999 0.0000 0.0000
# 5 0.0000 0.0000 0.0000 0.0000 88.2237 0.0000
# 6 0.0000 0.0000 0.0000 0.0000 0.0000 -499.2101
#
#
#
# Elastic Compliance Matrix: (Units=1/GPa)
#
#
# Indices 1 2 3 4 5 6 
#
# 1 0.009106 -0.008670 -0.002049 0.000000 0.000000 0.000000
# 2 -0.008670 0.020334 -0.001014 0.000000 0.000000 0.000000
# 3 -0.002049 -0.001014 0.005791 0.000000 0.000000 0.000000
# 4 0.000000 0.000000 0.000000 -0.071943 0.000000 0.000000
# 5 0.000000 0.000000 0.000000 0.000000 0.011335 0.000000
# 6 0.000000 0.000000 0.000000 0.000000 0.000000 -0.002003
#
#
# Mechanical properties :
#
#
# Convention : Reuss Voigt Hill
#
# Bulk Modulus (GPa) = 84.99832 117.37306 101.18569
# Shear Modulus (GPa) = 659321.64302 -65.81384 329627.91459
#
# Velocity S-wave (km/s) = 505.11083 -5.04657 357.14946
# Velocity P-wave (km/s) = 583.27994 3.38563 412.44815
#
# Compressibility (1/GPa) = 0.01176494
#
# Stress axis : x y z
#
# Youngs Moduli (GPa) = 109.82004 49.17923 172.67049
#
# Poissons Ratio (x) = 0.42638 0.35381
# Poissons Ratio (y) = 0.95213 0.17510
# Poissons Ratio (z) = 0.22503 0.04987
#
# Static dielectric constant tensor:
#      x y z
#    x 1.992500 0.000000 0.000000 
#    y 0.000000 2.103250 0.000000 
#    z 0.000000 0.000000 2.260510 
# 
# From -- ./inp_files/16339.got.cif
#   From: 2010.05.17/outbox.cif.g08.bks.cpg/sg23_9_cif.got.tgz:16339.got - 2010.06.04 12:02:01.
