data_PCOD9332632
_publ_section_title
;
Structure prediction by ZEFSAII (Michael W. Deem and Ramdas Pophale) SiO2 
 PCOD9332632
Probable space group: I 2 2 2
;
_chemical_formula_sum "Si O2"
_cell_formula_units_Z 28
_cell_length_a 9.000000
_cell_length_b 15.000000
_cell_length_c 21.000000
_cell_angle_alpha 90.000000
_cell_angle_beta 90.000000
_cell_angle_gamma 90.000000
_cell_volume 2835.000000
_symmetry_space_group_name_H-M "I 2 2 2"
_symmetry_group_IT_number 23
_symmetry_cell_setting 'orthorhombic'
loop_
_space_group_symop_operation_xyz
x,y,z
-x,-y,z
x,-y,-z
-x,y,-z
1/2+x,1/2+y,1/2+z
1/2-x,1/2-y,1/2+z
1/2+x,1/2-y,1/2-z
1/2-x,1/2+y,1/2-z
loop_
_atom_site_type_symbol
_atom_site_label
_atom_site_fract_x
_atom_site_fract_y
_atom_site_fract_z
Si Si1 0.425191 0.675056 0.063879
Si Si2 0.117457 0.078153 0.872305
Si Si3 0.840007 0.534261 0.705243
Si Si4 0.333644 0.698454 0.509131
Si Si5 0.783535 0.851565 0.305858
Si Si6 0.028046 0.756775 0.798831
Si Si7 0.695054 0.791118 0.121562
O O1 0.289525 0.734739 0.036829
O O2 0.347689 0.627558 0.124309
O O3 0.556872 0.734073 0.095847
O O4 0.500000 0.631984 0.000000
O O5 0.153255 0.119838 0.940360
O O6 0.041560 0.153908 0.829175
O O7 0.262824 0.039650 0.838351
O O8 0.000000 0.000000 0.878899
O O9 0.732656 0.560066 0.763376
O O10 0.852956 0.626584 0.665665
O O11 0.000000 0.500000 0.726384
O O12 0.500000 0.737372 0.500000
O O13 0.275981 0.668972 0.440490
O O14 0.897931 0.783733 0.269257
O O15 0.614178 0.809740 0.303424
O O16 0.175733 0.735677 0.841216
#
# Coordination Sequence:
#
# PCOD9332632 Si02
#       7
#     8   8   8   8   8   8   8
#     4  10  21  36  59  85 119 146 200 255 295 350
#     4  12  21  37  51  82 121 159 197 238 280 353
#     4  11  24  37  54  81 124 157 201 242 290 353
#     4  11  19  34  57  81 121 163 198 234 283 349
#     4  11  21  38  57  85 113 156 201 244 300 345
#     4  11  22  36  60  82 118 156 201 244 293 357
#     4  10  20  37  52  86 117 161 199 237 291 349
#
# _framework density 9.8765429999999999
#
# number of rings (size 3 to 8) (size 9 to 14) (size 15 to 20)
#    0.000    1.143    5.714    2.571    2.000    2.000 
#    0.000    0.714    0.000    0.000    0.000    2.000 
#    0.000    0.000    0.000    0.000    0.000    0.000 
#
# Total GULP energy -156224.953017 kJ/mol
# GULP energy per Si atom -5579.462608 kJ/mol
# Density = 0.985406 g / cm^3
# Si number density = 9.876543 Si / 1000 Ang^3
#
#
#
# Elastic Constant Matrix: (Units=GPa)
#
#
# Indices 1 2 3 4 5 6 
#
# 1 97.9056 -0.9233 27.4106 0.0000 0.0000 0.0000
# 2 -0.9233 -2.5238 7.9209 0.0000 0.0000 0.0000
# 3 27.4106 7.9209 137.1997 0.0000 0.0000 0.0000
# 4 0.0000 0.0000 0.0000 19.4394 0.0000 0.0000
# 5 0.0000 0.0000 0.0000 0.0000 38.4118 0.0000
# 6 0.0000 0.0000 0.0000 0.0000 0.0000 25.7749
#
#
#
# Elastic Compliance Matrix: (Units=1/GPa)
#
#
# Indices 1 2 3 4 5 6 
#
# 1 0.010578 -0.008892 -0.001600 0.000000 0.000000 0.000000
# 2 -0.008892 -0.327976 0.020711 0.000000 0.000000 0.000000
# 3 -0.001600 0.020711 0.006413 0.000000 0.000000 0.000000
# 4 0.000000 0.000000 0.000000 0.051442 0.000000 0.000000
# 5 0.000000 0.000000 0.000000 0.000000 0.026034 0.000000
# 6 0.000000 0.000000 0.000000 0.000000 0.000000 0.038797
#
#
# Mechanical properties :
#
#
# Convention : Reuss Voigt Hill
#
# Bulk Modulus (GPa) = -3.44180 33.48866 15.02343
# Shear Modulus (GPa) = -16.02561 29.93678 6.95558
#
# Velocity S-wave (km/s) = -2.85142 3.89723 1.87854
# Velocity P-wave (km/s) = 3.54781 6.10259 3.51103
#
# Compressibility (1/GPa) = -0.29054598
#
# Stress axis : x y z
#
# Youngs Moduli (GPa) = 94.53566 -3.04900 155.94376
#
# Poissons Ratio (x) = -0.02711 0.24951
# Poissons Ratio (y) = 0.84059 -3.22982
# Poissons Ratio (z) = 0.15126 0.06315
#
# Static dielectric constant tensor:
#      x y z
#    x 1.708990 0.000000 0.000000 
#    y 0.000000 1.678120 0.000000 
#    z 0.000000 0.000000 1.745690 
# 
# From -- ./inp_files/10245.got.cif
#   From: 2010.05.17/outbox.ucp.g08.bks.cvg/sg23_6_cif.got.tgz:10245.got - 2010.06.11 15:19:07.
