data_PCOD9332910
_publ_section_title
;
Structure prediction by ZEFSAII (Michael W. Deem and Ramdas Pophale) SiO2 
 PCOD9332910
Probable space group: I 21 21 21
;
_chemical_formula_sum "Si O2"
_cell_formula_units_Z 40
_cell_length_a 4.974762
_cell_length_b 24.348897
_cell_length_c 18.479878
_cell_angle_alpha 90.000000
_cell_angle_beta 90.000000
_cell_angle_gamma 90.000000
_cell_volume 2238.467022
_symmetry_space_group_name_H-M "I 21 21 21"
_symmetry_group_IT_number 24
_symmetry_cell_setting 'orthorhombic'
loop_
_space_group_symop_operation_xyz
x,y,z
-x,1/2-y,z
x,-y,1/2-z
1/2-x,y,-z
1/2+x,1/2+y,1/2+z
1/2-x,-y,1/2+z
1/2+x,1/2-y,-z
-x,1/2+y,1/2-z
loop_
_atom_site_type_symbol
_atom_site_label
_atom_site_fract_x
_atom_site_fract_y
_atom_site_fract_z
Si Si1 0.812109 0.981846 0.577451
Si Si2 0.944896 0.433610 0.733714
Si Si3 0.576308 0.894582 0.685127
Si Si4 0.805298 0.447383 0.420372
Si Si5 0.001483 0.684287 0.448728
O O1 0.750000 0.957249 0.500000
O O2 0.617636 0.035548 0.584705
O O3 0.122653 0.997443 0.577035
O O4 0.716906 0.941192 0.637465
O O5 0.988275 0.500000 0.750000
O O6 0.710902 0.414070 0.787104
O O7 0.817825 0.423513 0.653607
O O8 0.210318 0.396711 0.748223
O O9 0.531473 0.844724 0.629270
O O10 0.750000 0.421099 0.500000
O O11 0.250000 0.671239 0.500000
O O12 0.000000 0.750000 0.436953
O O13 0.750000 0.668872 0.500000
#
# Coordination Sequence:
#
# PCOD9332910 Si02
#       5
#     8   8   8   8   8
#     4  10  18  28  43  65  93 130 174 210 243 301
#     4  12  21  33  49  73 107 139 179 227 271 314
#     4  12  21  32  53  75 101 139 183 223 269 324
#     4  10  20  32  44  63  97 139 172 207 253 306
#     4  10  22  40  58  79 110 144 183 233 281 323
#
# _framework density 17.869371000000001
#
# number of rings (size 3 to 8) (size 9 to 14) (size 15 to 20)
#    0.000    1.200    4.000    3.600    0.000    2.400 
#    0.000    0.000    0.000    0.000    0.000    0.000 
#    0.000    3.200    0.000    0.000    0.000    0.000 
#
# Total GULP energy -111377.358211 kJ/mol
# GULP energy per Si atom -5568.867911 kJ/mol
# Density = 1.782870 g / cm^3
# Si number density = 17.869371 Si / 1000 Ang^3
#
#
#
# Elastic Constant Matrix: (Units=GPa)
#
#
# Indices 1 2 3 4 5 6 
#
# 1 109.0412 28.0093 12.8636 0.0000 0.0000 0.0000
# 2 28.0093 51.6671 36.8149 0.0000 0.0000 0.0000
# 3 12.8636 36.8149 111.3207 0.0000 0.0000 0.0000
# 4 0.0000 0.0000 0.0000 39.3253 0.0000 0.0000
# 5 0.0000 0.0000 0.0000 0.0000 -107.8849 0.0000
# 6 0.0000 0.0000 0.0000 0.0000 0.0000 42.2876
#
#
#
# Elastic Compliance Matrix: (Units=1/GPa)
#
#
# Indices 1 2 3 4 5 6 
#
# 1 0.010722 -0.006450 0.000894 0.000000 0.000000 0.000000
# 2 -0.006450 0.029201 -0.008912 0.000000 0.000000 0.000000
# 3 0.000894 -0.008912 0.011827 0.000000 0.000000 0.000000
# 4 0.000000 0.000000 0.000000 0.025429 0.000000 0.000000
# 5 0.000000 0.000000 0.000000 0.000000 -0.009269 0.000000
# 6 0.000000 0.000000 0.000000 0.000000 0.000000 0.023648
#
#
# Mechanical properties :
#
#
# Convention : Reuss Voigt Hill
#
# Bulk Modulus (GPa) = 43.83019 47.48940 45.65980
# Shear Modulus (GPa) = 39.03277 7.70168 23.36723
#
# Velocity S-wave (km/s) = 4.67876 2.07830 3.62009
# Velocity P-wave (km/s) = 7.33274 5.69146 6.56360
#
# Compressibility (1/GPa) = 0.02281532
#
# Stress axis : x y z
#
# Youngs Moduli (GPa) = 93.26551 34.24528 84.55240
#
# Poissons Ratio (x) = 0.22087 -0.07558
# Poissons Ratio (y) = 0.60152 0.75352
# Poissons Ratio (z) = -0.08337 0.30519
#
# Static dielectric constant tensor:
#      x y z
#    x 1.669050 0.000000 0.000000 
#    y 0.000000 1.794940 0.000000 
#    z 0.000000 0.000000 1.726210 
# 
# From -- ./inp_files/4679.got.cif
#   From: 2010.05.17/outbox.cif.g08.bks.cpg/sg24_3_cif.got.tgz:4679.got - 2010.06.04 00:33:39.
