data_PCOD9332027
_publ_section_title
;
Structure prediction by ZEFSAII (Michael W. Deem and Ramdas Pophale) SiO2 
 PCOD9332027
Probable space group: I 2 2 2
;
_chemical_formula_sum "Si O2"
_cell_formula_units_Z 64
_cell_length_a 14.093276
_cell_length_b 23.527601
_cell_length_c 9.200555
_cell_angle_alpha 90.000000
_cell_angle_beta 90.000000
_cell_angle_gamma 90.000000
_cell_volume 3050.728993
_symmetry_space_group_name_H-M "I 2 2 2"
_symmetry_group_IT_number 23
_symmetry_cell_setting 'orthorhombic'
loop_
_space_group_symop_operation_xyz
x,y,z
-x,-y,z
x,-y,-z
-x,y,-z
1/2+x,1/2+y,1/2+z
1/2-x,1/2-y,1/2+z
1/2+x,1/2-y,1/2-z
1/2-x,1/2+y,1/2-z
loop_
_atom_site_type_symbol
_atom_site_label
_atom_site_fract_x
_atom_site_fract_y
_atom_site_fract_z
Si Si1 0.256616 0.274636 0.055144
Si Si2 0.887603 0.565069 0.016756
Si Si3 0.956593 0.259617 0.340341
Si Si4 0.233260 0.876346 0.667068
Si Si5 0.544271 0.437315 0.145482
Si Si6 0.547749 0.648415 0.351012
Si Si7 0.883807 0.344702 0.740077
Si Si8 0.765435 0.844744 0.992596
O O1 0.343480 0.242289 0.134622
O O2 0.187007 0.303429 0.170217
O O3 0.205256 0.221716 0.981221
O O4 0.289041 0.320860 0.934407
O O5 0.875523 0.596652 0.171291
O O6 0.854755 0.500000 0.000000
O O7 0.833473 0.601915 0.894939
O O8 0.000000 0.565583 0.000000
O O9 0.969904 0.201564 0.253151
O O10 0.000000 0.254371 0.500000
O O11 0.014014 0.312824 0.269802
O O12 0.156101 0.925790 0.636345
O O13 0.230721 0.863763 0.839473
O O14 0.500000 0.500000 0.151801
O O15 0.507548 0.403950 0.283494
O O16 0.500000 0.410240 0.000000
O O17 0.500000 0.664909 0.500000
O O18 0.655003 0.628873 0.386515
O O19 0.837105 0.352326 0.581582
#
# Coordination Sequence:
#
# PCOD9332027 Si02
#       8
#     8   8   8   8   8   8   8   8
#     4  11  23  42  64  97 143 186 224 275 355 430
#     4  10  26  50  76  98 127 181 248 303 352 420
#     4  12  24  39  66  96 142 183 226 284 353 438
#     4  11  25  46  70 101 144 182 232 294 361 424
#     4  11  26  45  71 101 134 187 242 291 349 427
#     4  12  24  41  62  96 141 186 232 279 351 423
#     4  11  25  42  68 101 133 184 234 287 356 419
#     4  12  24  40  63 103 144 179 225 287 349 431
#
# _framework density 20.978591999999999
#
# number of rings (size 3 to 8) (size 9 to 14) (size 15 to 20)
#    0.000    0.750    3.750    3.375    5.250    1.750 
#    0.000    1.875    0.000    1.500    0.000    0.000 
#    0.000    0.000    0.000    0.000    0.000    0.000 
#
# Total GULP energy -178621.685481 kJ/mol
# GULP energy per Si atom -5581.927671 kJ/mol
# Density = 2.093084 g / cm^3
# Si number density = 20.978592 Si / 1000 Ang^3
#
#
#
# Elastic Constant Matrix: (Units=GPa)
#
#
# Indices 1 2 3 4 5 6 
#
# 1 101.5982 35.4872 21.4568 -0.0006 -0.0001 -0.0003
# 2 35.4872 87.6033 43.3027 0.0000 0.0002 0.0003
# 3 21.4568 43.3027 103.3388 0.0005 0.0010 0.0000
# 4 -0.0006 0.0000 0.0005 14.8909 -0.0008 -0.0021
# 5 -0.0001 0.0002 0.0010 -0.0008 30.0506 0.0000
# 6 -0.0003 0.0003 0.0000 -0.0021 0.0000 33.4085
#
#
#
# Elastic Compliance Matrix: (Units=1/GPa)
#
#
# Indices 1 2 3 4 5 6 
#
# 1 0.011490 -0.004383 -0.000549 0.000000 0.000000 0.000000
# 2 -0.004383 0.016069 -0.005824 0.000000 0.000000 0.000000
# 3 -0.000549 -0.005824 0.012231 0.000000 0.000000 0.000000
# 4 0.000000 0.000000 0.000000 0.067155 0.000002 0.000004
# 5 0.000000 0.000000 0.000000 0.000002 0.033277 0.000000
# 6 0.000000 0.000000 0.000000 0.000004 0.000000 0.029932
#
#
# Mechanical properties :
#
#
# Convention : Reuss Voigt Hill
#
# Bulk Modulus (GPa) = 54.70772 54.78152 54.74462
# Shear Modulus (GPa) = 25.28335 28.48957 26.88646
#
# Velocity S-wave (km/s) = 3.47536 3.68914 3.58385
# Velocity P-wave (km/s) = 6.49913 6.65704 6.57856
#
# Compressibility (1/GPa) = 0.01827896
#
# Stress axis : x y z
#
# Youngs Moduli (GPa) = 87.03562 62.23100 81.75832
#
# Poissons Ratio (x) = 0.27275 0.04489
# Poissons Ratio (y) = 0.38147 0.47612
# Poissons Ratio (z) = 0.04779 0.36240
#
# Static dielectric constant tensor:
#      x y z
#    x 1.987600 0.000000 0.000060 
#    y 0.000000 1.785910 0.000000 
#    z 0.000060 0.000000 1.594920 
# 
# From -- ./inp_files/10339.got.cif
#   From: 2010.05.17/outbox.cif.g08.bks.cpg/sg23_6_cif.got.tgz:10339.got - 2010.06.04 12:02:01.
