data_PCOD9332031
_publ_section_title
;
Structure prediction by ZEFSAII (Michael W. Deem and Ramdas Pophale) SiO2 
 PCOD9332031
Probable space group: I 2 2 2
;
_chemical_formula_sum "Si O2"
_cell_formula_units_Z 30
_cell_length_a 29.539582
_cell_length_b 8.252656
_cell_length_c 5.105242
_cell_angle_alpha 90.000000
_cell_angle_beta 90.000000
_cell_angle_gamma 90.000000
_cell_volume 1244.555939
_symmetry_space_group_name_H-M "I 2 2 2"
_symmetry_group_IT_number 23
_symmetry_cell_setting 'orthorhombic'
loop_
_space_group_symop_operation_xyz
x,y,z
-x,-y,z
x,-y,-z
-x,y,-z
1/2+x,1/2+y,1/2+z
1/2-x,1/2-y,1/2+z
1/2+x,1/2-y,1/2-z
1/2-x,1/2+y,1/2-z
loop_
_atom_site_type_symbol
_atom_site_label
_atom_site_fract_x
_atom_site_fract_y
_atom_site_fract_z
Si Si1 0.338435 0.500000 0.000000
Si Si2 0.921078 0.344631 0.816800
Si Si3 0.500000 0.000000 0.000000
Si Si4 0.902054 0.000000 0.000000
Si Si5 0.844392 0.500000 0.500000
Si Si6 0.776493 0.725988 0.734093
O O1 0.370974 0.493659 0.753102
O O2 0.304705 0.641782 0.923767
O O3 0.878418 0.363392 0.616613
O O4 0.967161 0.385402 0.666719
O O5 0.925735 0.176192 0.974034
O O6 0.913289 0.500000 0.000000
O O7 0.809608 0.571255 0.715727
O O8 0.734706 0.713491 0.526654
#
# Coordination Sequence:
#
# PCOD9332031 Si02
#       6
#     4   8   2   4   4   8
#     4  12  24  46  66 109 146 194 270 311 372 460
#     4  11  25  49  82 111 154 199 253 314 389 477
#     4  10  26  52  78 124 152 194 256 320 400 474
#     4  12  26  47  81 111 151 201 253 312 381 469
#     4  11  24  44  70 104 151 209 260 321 383 453
#     4  12  25  41  65 103 151 204 262 324 380 437
#
# _framework density 24.104983000000001
#
# number of rings (size 3 to 8) (size 9 to 14) (size 15 to 20)
#    0.000    0.533    2.667    5.200    7.467    0.000 
#    0.000    4.000    0.000    0.000    0.000    0.000 
#    0.000    0.000    0.000    0.000    0.000    0.000 
#
# Total GULP energy -83840.427288 kJ/mol
# GULP energy per Si atom -5589.361819 kJ/mol
# Density = 2.405012 g / cm^3
# Si number density = 24.104983 Si / 1000 Ang^3
#
#
#
# Elastic Constant Matrix: (Units=GPa)
#
#
# Indices 1 2 3 4 5 6 
#
# 1 87.1403 25.9923 22.8510 0.0000 0.0001 0.0001
# 2 25.9923 155.5510 20.5887 0.0000 0.0000 0.0000
# 3 22.8510 20.5887 122.1696 0.0001 0.0000 -0.0002
# 4 0.0000 0.0000 0.0001 39.7298 -0.0001 -0.0001
# 5 0.0001 0.0000 0.0000 -0.0001 17.9486 -0.0001
# 6 0.0001 0.0000 -0.0002 -0.0001 -0.0001 19.8793
#
#
#
# Elastic Compliance Matrix: (Units=1/GPa)
#
#
# Indices 1 2 3 4 5 6 
#
# 1 0.012556 -0.001828 -0.002040 0.000000 0.000000 0.000000
# 2 -0.001828 0.006842 -0.000811 0.000000 0.000000 0.000000
# 3 -0.002040 -0.000811 0.008704 0.000000 0.000000 0.000000
# 4 0.000000 0.000000 0.000000 0.025170 0.000000 0.000000
# 5 0.000000 0.000000 0.000000 0.000000 0.055715 0.000000
# 6 0.000000 0.000000 0.000000 0.000000 0.000000 0.050304
#
#
# Mechanical properties :
#
#
# Convention : Reuss Voigt Hill
#
# Bulk Modulus (GPa) = 53.35542 55.96945 54.66243
# Shear Modulus (GPa) = 28.58838 35.20679 31.89759
#
# Velocity S-wave (km/s) = 3.44756 3.82587 3.64163
# Velocity P-wave (km/s) = 6.16687 6.54109 6.35673
#
# Compressibility (1/GPa) = 0.01874224
#
# Stress axis : x y z
#
# Youngs Moduli (GPa) = 79.64262 146.16523 114.89391
#
# Poissons Ratio (x) = 0.26719 0.23444
# Poissons Ratio (y) = 0.14559 0.09319
# Poissons Ratio (z) = 0.16251 0.11855
#
# Static dielectric constant tensor:
#      x y z
#    x 2.087010 0.000000 0.000000 
#    y 0.000000 2.107880 0.000000 
#    z 0.000000 0.000000 1.968840 
# 
# From -- ./inp_files/777.got.cif
#   From: 2010.05.17/outbox.cif.g08.bks.cpg/sg23_1_cif.got.tgz:777.got - 2010.06.04 12:02:01.
