data_PCOD9332419
_publ_section_title
;
Structure prediction by ZEFSAII (Michael W. Deem and Ramdas Pophale) SiO2 
 PCOD9332419
Probable space group: I 2 2 2
;
_chemical_formula_sum "Si O2"
_cell_formula_units_Z 52
_cell_length_a 14.523514
_cell_length_b 9.034499
_cell_length_c 20.150346
_cell_angle_alpha 90.000000
_cell_angle_beta 90.000000
_cell_angle_gamma 90.000000
_cell_volume 2643.980755
_symmetry_space_group_name_H-M "I 2 2 2"
_symmetry_group_IT_number 23
_symmetry_cell_setting 'orthorhombic'
loop_
_space_group_symop_operation_xyz
x,y,z
-x,-y,z
x,-y,-z
-x,y,-z
1/2+x,1/2+y,1/2+z
1/2-x,1/2-y,1/2+z
1/2+x,1/2-y,1/2-z
1/2-x,1/2+y,1/2-z
loop_
_atom_site_type_symbol
_atom_site_label
_atom_site_fract_x
_atom_site_fract_y
_atom_site_fract_z
Si Si1 0.794227 0.932599 0.435934
Si Si2 0.631906 0.864362 0.617537
Si Si3 0.095393 0.088409 0.301717
Si Si4 0.714971 0.555293 0.674701
Si Si5 0.402180 0.936922 0.231227
Si Si6 0.689638 0.369272 0.548546
Si Si7 0.000000 0.265406 0.000000
O O1 0.857506 0.936050 0.372067
O O2 0.755958 0.771047 0.453476
O O3 0.842536 0.000000 0.500000
O O4 0.705365 0.033027 0.419371
O O5 0.681692 0.708830 0.639498
O O6 0.607164 0.937335 0.688396
O O7 0.547775 0.842588 0.565018
O O8 0.158456 0.031388 0.241786
O O9 0.095490 0.265160 0.290119
O O10 0.000000 0.000000 0.298288
O O11 0.820843 0.530970 0.696530
O O12 0.690114 0.429147 0.622686
O O13 0.500000 0.000000 0.211960
O O14 0.721695 0.500000 0.500000
O O15 0.586499 0.325641 0.527765
#
# Coordination Sequence:
#
# PCOD9332419 Si02
#       7
#     8   8   8   8   8   8   4
#     4  12  24  45  69  95 136 186 225 289 354 416
#     4  11  26  41  67 109 145 186 228 295 354 434
#     4  11  27  43  69 101 137 182 237 292 349 418
#     4  11  24  46  69 100 145 184 232 287 360 421
#     4  11  26  44  72 104 136 188 238 291 353 428
#     4  12  25  42  68 102 142 180 227 287 354 433
#     4  12  25  41  68 108 144 180 236 288 372 432
#
# _framework density 19.667313
#
# number of rings (size 3 to 8) (size 9 to 14) (size 15 to 20)
#    0.000    0.615    6.154    0.231    8.615    0.923 
#    0.000    0.000    0.000    0.462    0.000    0.000 
#    0.000    0.000    0.000    0.000    0.000    0.000 
#
# Total GULP energy -145245.836207 kJ/mol
# GULP energy per Si atom -5586.378316 kJ/mol
# Density = 1.962255 g / cm^3
# Si number density = 19.667313 Si / 1000 Ang^3
#
#
#
# Elastic Constant Matrix: (Units=GPa)
#
#
# Indices 1 2 3 4 5 6 
#
# 1 114.6353 39.1553 52.9613 0.0000 0.0000 0.0000
# 2 39.1553 63.6346 48.8602 0.0000 0.0000 0.0000
# 3 52.9613 48.8602 161.1047 0.0000 0.0000 0.0000
# 4 0.0000 0.0000 0.0000 18.8585 0.0000 0.0000
# 5 0.0000 0.0000 0.0000 0.0000 34.8592 0.0000
# 6 0.0000 0.0000 0.0000 0.0000 0.0000 29.4852
#
#
#
# Elastic Compliance Matrix: (Units=1/GPa)
#
#
# Indices 1 2 3 4 5 6 
#
# 1 0.011587 -0.005482 -0.002147 0.000000 0.000000 0.000000
# 2 -0.005482 0.023078 -0.005197 0.000000 0.000000 0.000000
# 3 -0.002147 -0.005197 0.008489 0.000000 0.000000 0.000000
# 4 0.000000 0.000000 0.000000 0.053026 0.000000 0.000000
# 5 0.000000 0.000000 0.000000 0.000000 0.028687 0.000000
# 6 0.000000 0.000000 0.000000 0.000000 0.000000 0.033915
#
#
# Mechanical properties :
#
#
# Convention : Reuss Voigt Hill
#
# Bulk Modulus (GPa) = 57.13109 69.03644 63.08376
# Shear Modulus (GPa) = 26.27861 29.86711 28.07286
#
# Velocity S-wave (km/s) = 3.65931 3.90117 3.78218
# Velocity P-wave (km/s) = 6.85317 7.44785 7.15669
#
# Compressibility (1/GPa) = 0.01750360
#
# Stress axis : x y z
#
# Youngs Moduli (GPa) = 86.30041 43.33101 117.79836
#
# Poissons Ratio (x) = 0.23752 0.25289
# Poissons Ratio (y) = 0.47306 0.61222
# Poissons Ratio (z) = 0.18527 0.22520
#
# Static dielectric constant tensor:
#      x y z
#    x 1.668500 0.000000 0.000000 
#    y 0.000000 1.810060 0.000000 
#    z 0.000000 0.000000 1.693390 
# 
# From -- ./inp_files/26954.got.cif
#   From: 2010.05.17/outbox.cif.g08.bks.cpg/sg23_14_cif.got.tgz:26954.got - 2010.06.04 12:02:01.
