data_PCOD9332418
_publ_section_title
;
Structure prediction by ZEFSAII (Michael W. Deem and Ramdas Pophale) SiO2 
 PCOD9332418
Probable space group: I 2 2 2
;
_chemical_formula_sum "Si O2"
_cell_formula_units_Z 18
_cell_length_a 5.517779
_cell_length_b 7.621403
_cell_length_c 17.101796
_cell_angle_alpha 90.000000
_cell_angle_beta 90.000000
_cell_angle_gamma 90.000000
_cell_volume 719.185546
_symmetry_space_group_name_H-M "I 2 2 2"
_symmetry_group_IT_number 23
_symmetry_cell_setting 'orthorhombic'
loop_
_space_group_symop_operation_xyz
x,y,z
-x,-y,z
x,-y,-z
-x,y,-z
1/2+x,1/2+y,1/2+z
1/2-x,1/2-y,1/2+z
1/2+x,1/2-y,1/2-z
1/2-x,1/2+y,1/2-z
loop_
_atom_site_type_symbol
_atom_site_label
_atom_site_fract_x
_atom_site_fract_y
_atom_site_fract_z
Si Si1 0.747198 0.396583 0.722147
Si Si2 0.047792 0.804296 0.385755
Si Si3 0.500000 0.000000 0.000000
O O1 0.500000 0.500000 0.708173
O O2 0.719141 0.326342 0.810289
O O3 0.000000 0.500000 0.719955
O O4 0.793723 0.255763 0.654174
O O5 0.126584 0.645130 0.442990
O O6 0.000000 0.000000 0.417564
#
# Coordination Sequence:
#
# PCOD9332418 Si02
#       3
#     8   8   2
#     4  11  24  48  85 119 152 209 279 326 384 488
#     4  11  24  45  80 114 161 211 264 328 401 480
#     4  12  26  48  74 126 170 198 264 352 406 450
#
# _framework density 25.028307999999999
#
# number of rings (size 3 to 8) (size 9 to 14) (size 15 to 20)
#    0.000    0.889    2.222    6.000    0.000    0.000 
#    0.000    1.111    0.000   10.667    0.000    0.000 
#    0.000    0.000    0.000    0.000    0.000    0.000 
#
# Total GULP energy -50192.796423 kJ/mol
# GULP energy per Si atom -5576.977380 kJ/mol
# Density = 2.497134 g / cm^3
# Si number density = 25.028308 Si / 1000 Ang^3
#
#
#
# Elastic Constant Matrix: (Units=GPa)
#
#
# Indices 1 2 3 4 5 6 
#
# 1 150.2200 70.0395 30.8502 0.0000 0.0000 0.0000
# 2 70.0395 251.8120 79.3559 0.0000 0.0000 0.0000
# 3 30.8502 79.3559 143.9959 0.0000 0.0000 0.0000
# 4 0.0000 0.0000 0.0000 64.1223 0.0000 0.0000
# 5 0.0000 0.0000 0.0000 0.0000 10.6136 0.0000
# 6 0.0000 0.0000 0.0000 0.0000 0.0000 56.8507
#
#
#
# Elastic Compliance Matrix: (Units=1/GPa)
#
#
# Indices 1 2 3 4 5 6 
#
# 1 0.007687 -0.001959 -0.000567 0.000000 0.000000 0.000000
# 2 -0.001959 0.005305 -0.002504 0.000000 0.000000 0.000000
# 3 -0.000567 -0.002504 0.008446 0.000000 0.000000 0.000000
# 4 0.000000 0.000000 0.000000 0.015595 0.000000 0.000000
# 5 0.000000 0.000000 0.000000 0.000000 0.094219 0.000000
# 6 0.000000 0.000000 0.000000 0.000000 0.000000 0.017590
#
#
# Mechanical properties :
#
#
# Convention : Reuss Voigt Hill
#
# Bulk Modulus (GPa) = 87.89283 100.72434 94.30859
# Shear Modulus (GPa) = 30.73228 50.70281 40.71754
#
# Velocity S-wave (km/s) = 3.50794 4.50579 4.03781
# Velocity P-wave (km/s) = 7.18339 8.20982 7.71370
#
# Compressibility (1/GPa) = 0.01137749
#
# Stress axis : x y z
#
# Youngs Moduli (GPa) = 130.09151 188.49118 118.39841
#
# Poissons Ratio (x) = 0.36932 0.06714
# Poissons Ratio (y) = 0.25489 0.29646
# Poissons Ratio (z) = 0.07377 0.47197
#
# Static dielectric constant tensor:
#      x y z
#    x 1.906290 0.000000 0.000000 
#    y 0.000000 2.295190 0.000000 
#    z 0.000000 0.000000 2.052060 
# 
# From -- ./inp_files/2797.got.cif
#   From: 2010.05.17/outbox.cif.g08.bks.cpg/sg23_2_cif.got.tgz:2797.got - 2010.06.04 12:02:01.
