data_PCOD9332695
_publ_section_title
;
Structure prediction by ZEFSAII (Michael W. Deem and Ramdas Pophale) SiO2 
 PCOD9332695
Probable space group: I 21 21 21
;
_chemical_formula_sum "Si O2"
_cell_formula_units_Z 64
_cell_length_a 5.506633
_cell_length_b 35.288364
_cell_length_c 13.573271
_cell_angle_alpha 90.000000
_cell_angle_beta 90.000000
_cell_angle_gamma 90.000000
_cell_volume 2637.558967
_symmetry_space_group_name_H-M "I 21 21 21"
_symmetry_group_IT_number 24
_symmetry_cell_setting 'orthorhombic'
loop_
_space_group_symop_operation_xyz
x,y,z
-x,1/2-y,z
x,-y,1/2-z
1/2-x,y,-z
1/2+x,1/2+y,1/2+z
1/2-x,-y,1/2+z
1/2+x,1/2-y,-z
-x,1/2+y,1/2-z
loop_
_atom_site_type_symbol
_atom_site_label
_atom_site_fract_x
_atom_site_fract_y
_atom_site_fract_z
Si Si1 0.122329 0.016861 0.139323
Si Si2 0.620448 0.393995 0.866448
Si Si3 0.653028 0.640339 0.854063
Si Si4 0.872191 0.013961 0.634633
Si Si5 0.354485 0.604327 0.137999
Si Si6 0.001145 0.707863 0.563342
Si Si7 0.746187 0.729485 0.880724
Si Si8 0.615607 0.130662 0.137153
O O1 0.083081 0.061533 0.144784
O O2 0.132366 0.000000 0.250000
O O3 0.381530 0.005072 0.096416
O O4 0.883034 0.999503 0.092284
O O5 0.647501 0.374338 0.758952
O O6 0.381187 0.374181 0.908739
O O7 0.886637 0.389494 0.912554
O O8 0.394313 0.625070 0.895646
O O9 0.702567 0.685221 0.856459
O O10 0.894222 0.621893 0.900076
O O11 0.868871 0.059297 0.625326
O O12 0.864593 0.000000 0.750000
O O13 0.356724 0.612049 0.255692
O O14 0.750000 0.702596 0.500000
O O15 0.000000 0.750000 0.606596
O O16 0.250000 0.706513 0.500000
O O17 0.036646 0.674365 0.640491
O O18 0.500000 0.750000 0.844158
O O19 0.000000 0.750000 0.848760
O O20 0.750000 0.731904 0.000000
#
# Coordination Sequence:
#
# PCOD9332695 Si02
#       8
#     8   8   8   8   8   8   8   8
#     4  10  16  25  41  64 100 135 161 188 224 281
#     4  10  19  30  46  74 106 131 158 196 244 298
#     4  10  18  32  49  69 101 131 156 200 250 290
#     4  10  16  25  41  65 101 134 161 188 224 281
#     4  10  19  30  47  76 107 131 157 196 244 298
#     4  10  21  37  55  72  91 121 165 211 247 287
#     4  10  21  37  55  73  94 126 170 213 247 287
#     4  10  18  32  49  69 100 129 154 200 251 292
#
# _framework density 24.264859999999999
#
# number of rings (size 3 to 8) (size 9 to 14) (size 15 to 20)
#    0.000    2.000    0.000    9.000    0.000    0.000 
#    0.000    7.500    0.000    0.000    0.000    0.000 
#    0.000  122.000    0.000    0.000    0.000    0.000 
#
# Total GULP energy -178835.288484 kJ/mol
# GULP energy per Si atom -5588.602765 kJ/mol
# Density = 2.420963 g / cm^3
# Si number density = 24.264860 Si / 1000 Ang^3
#
#
#
# Elastic Constant Matrix: (Units=GPa)
#
#
# Indices 1 2 3 4 5 6 
#
# 1 287.0659 93.5401 40.0688 0.0000 0.0000 0.0000
# 2 93.5401 243.5952 3.8043 -0.0002 0.0000 0.0000
# 3 40.0688 3.8043 61.3906 -0.0004 0.0000 0.0000
# 4 0.0000 -0.0002 -0.0004 565.9826 0.0000 -0.0001
# 5 0.0000 0.0000 0.0000 0.0000 35.9456 0.0000
# 6 0.0000 0.0000 0.0000 -0.0001 0.0000 51.1114
#
#
#
# Elastic Compliance Matrix: (Units=1/GPa)
#
#
# Indices 1 2 3 4 5 6 
#
# 1 0.004408 -0.001649 -0.002775 0.000000 0.000000 0.000000
# 2 -0.001649 0.004726 0.000784 0.000000 0.000000 0.000000
# 3 -0.002775 0.000784 0.018052 0.000000 0.000000 0.000000
# 4 0.000000 0.000000 0.000000 0.001767 0.000000 0.000000
# 5 0.000000 0.000000 0.000000 0.000000 0.027820 0.000000
# 6 0.000000 0.000000 0.000000 0.000000 0.000000 0.019565
#
#
# Mechanical properties :
#
#
# Convention : Reuss Voigt Hill
#
# Bulk Modulus (GPa) = 50.23906 96.31982 73.27944
# Shear Modulus (GPa) = 55.39873 160.91716 108.15795
#
# Velocity S-wave (km/s) = 4.78335 8.15236 6.68361
# Velocity P-wave (km/s) = 7.15937 11.33119 9.47767
#
# Compressibility (1/GPa) = 0.01990483
#
# Stress axis : x y z
#
# Youngs Moduli (GPa) = 226.84302 211.58114 55.39615
#
# Poissons Ratio (x) = 0.34899 0.15373
# Poissons Ratio (y) = 0.37417 -0.04341
# Poissons Ratio (z) = 0.62950 -0.16581
#
# Static dielectric constant tensor:
#      x y z
#    x 1.974900 0.000000 0.000000 
#    y 0.000000 1.850710 0.000000 
#    z 0.000000 0.000000 1.883440 
# 
# From -- ./inp_files/32353.got.cif
#   From: 2010.05.17/outbox.cif.g08.bks.cpg/sg24_17_cif.got.tgz:32353.got - 2010.06.04 00:33:39.
