data_PCOD9332022
_publ_section_title
;
Structure prediction by ZEFSAII (Michael W. Deem and Ramdas Pophale) SiO2 
 PCOD9332022
Probable space group: I 2 2 2
;
_chemical_formula_sum "Si O2"
_cell_formula_units_Z 36
_cell_length_a 19.481534
_cell_length_b 8.760451
_cell_length_c 8.353198
_cell_angle_alpha 90.000000
_cell_angle_beta 90.000000
_cell_angle_gamma 90.000000
_cell_volume 1425.615444
_symmetry_space_group_name_H-M "I 2 2 2"
_symmetry_group_IT_number 23
_symmetry_cell_setting 'orthorhombic'
loop_
_space_group_symop_operation_xyz
x,y,z
-x,-y,z
x,-y,-z
-x,y,-z
1/2+x,1/2+y,1/2+z
1/2-x,1/2-y,1/2+z
1/2+x,1/2-y,1/2-z
1/2-x,1/2+y,1/2-z
loop_
_atom_site_type_symbol
_atom_site_label
_atom_site_fract_x
_atom_site_fract_y
_atom_site_fract_z
Si Si1 0.386063 0.201339 0.174576
Si Si2 0.728719 0.000000 0.000000
Si Si3 0.837490 0.012216 0.747476
Si Si4 0.000000 0.500000 0.000000
Si Si5 0.264587 0.000000 0.500000
Si Si6 0.384043 0.205671 0.561355
Si Si7 0.000000 0.500000 0.500000
O O1 0.380558 0.383993 0.155589
O O2 0.387909 0.198150 0.368332
O O3 0.449798 0.113171 0.098325
O O4 0.320109 0.118853 0.093230
O O5 0.783651 0.934225 0.871925
O O6 0.785388 0.086903 0.621215
O O7 0.880628 0.864899 0.152929
O O8 0.950928 0.391501 0.894878
O O9 0.314443 0.113481 0.595584
#
# Coordination Sequence:
#
# PCOD9332022 Si02
#       7
#     8   4   8   2   4   8   2
#     4  11  23  44  76 114 158 215 257 336 395 493
#     4  11  22  41  76 115 162 193 258 326 420 489
#     4  12  24  44  76 120 159 204 263 334 413 479
#     4  10  26  48  74 106 144 214 276 308 388 472
#     4  11  26  41  74 119 164 199 256 334 418 483
#     4  11  23  46  76 112 157 210 267 330 400 488
#     4  10  26  48  76 120 164 218 288 320 400 480
#
# _framework density 25.252251000000001
#
# number of rings (size 3 to 8) (size 9 to 14) (size 15 to 20)
#    0.000    0.889    4.444    2.000    0.000    0.000 
#    8.000    2.222    0.000    0.000    0.000    0.000 
#    0.000    0.000    0.000    0.000    0.000    0.000 
#
# Total GULP energy -100636.917304 kJ/mol
# GULP energy per Si atom -5590.939850 kJ/mol
# Density = 2.519478 g / cm^3
# Si number density = 25.252251 Si / 1000 Ang^3
#
#
#
# Elastic Constant Matrix: (Units=GPa)
#
#
# Indices 1 2 3 4 5 6 
#
# 1 166.5999 105.0690 74.5313 0.0000 0.0000 0.0000
# 2 105.0690 209.0960 71.9311 0.0000 0.0000 0.0000
# 3 74.5313 71.9311 104.8906 0.0000 0.0000 0.0000
# 4 0.0000 0.0000 0.0000 57.6491 0.0000 0.0000
# 5 0.0000 0.0000 0.0000 0.0000 35.6121 0.0000
# 6 0.0000 0.0000 0.0000 0.0000 0.0000 35.8723
#
#
#
# Elastic Compliance Matrix: (Units=1/GPa)
#
#
# Indices 1 2 3 4 5 6 
#
# 1 0.010480 -0.003539 -0.005020 0.000000 0.000000 0.000000
# 2 -0.003539 0.007454 -0.002597 0.000000 0.000000 0.000000
# 3 -0.005020 -0.002597 0.014881 0.000000 0.000000 0.000000
# 4 0.000000 0.000000 0.000000 0.017346 0.000000 0.000000
# 5 0.000000 0.000000 0.000000 0.000000 0.028080 0.000000
# 6 0.000000 0.000000 0.000000 0.000000 0.000000 0.027877
#
#
# Mechanical properties :
#
#
# Convention : Reuss Voigt Hill
#
# Bulk Modulus (GPa) = 95.20237 109.29435 102.24836
# Shear Modulus (GPa) = 37.89805 41.09705 39.49755
#
# Velocity S-wave (km/s) = 3.87819 4.03856 3.95919
# Velocity P-wave (km/s) = 7.60501 8.06979 7.84085
#
# Compressibility (1/GPa) = 0.01050394
#
# Stress axis : x y z
#
# Youngs Moduli (GPa) = 95.41801 134.14825 67.19767
#
# Poissons Ratio (x) = 0.47481 0.33731
# Poissons Ratio (y) = 0.33772 0.17452
# Poissons Ratio (z) = 0.47896 0.34839
#
# Static dielectric constant tensor:
#      x y z
#    x 1.989030 0.000000 0.000000 
#    y 0.000000 2.072330 0.000000 
#    z 0.000000 0.000000 2.123020 
# 
# From -- ./inp_files/17345.got.cif
#   From: 2010.05.17/outbox.cif.g08.bks.cpg/sg23_9_cif.got.tgz:17345.got - 2010.06.04 12:02:01.
