data_PCOD9332001
_publ_section_title
;
Structure prediction by ZEFSAII (Michael W. Deem and Ramdas Pophale) SiO2 
 PCOD9332001
Probable space group: I 2 2 2
;
_chemical_formula_sum "Si O2"
_cell_formula_units_Z 44
_cell_length_a 15.197720
_cell_length_b 5.046353
_cell_length_c 24.328015
_cell_angle_alpha 90.000000
_cell_angle_beta 90.000000
_cell_angle_gamma 90.000000
_cell_volume 1865.789912
_symmetry_space_group_name_H-M "I 2 2 2"
_symmetry_group_IT_number 23
_symmetry_cell_setting 'orthorhombic'
loop_
_space_group_symop_operation_xyz
x,y,z
-x,-y,z
x,-y,-z
-x,y,-z
1/2+x,1/2+y,1/2+z
1/2-x,1/2-y,1/2+z
1/2+x,1/2-y,1/2-z
1/2-x,1/2+y,1/2-z
loop_
_atom_site_type_symbol
_atom_site_label
_atom_site_fract_x
_atom_site_fract_y
_atom_site_fract_z
Si Si1 0.000000 0.500000 0.575845
Si Si2 0.691610 0.870698 0.256840
Si Si3 0.643163 0.695371 0.147145
Si Si4 0.600337 0.087498 0.624443
Si Si5 0.694460 0.408888 0.407952
Si Si6 0.333603 0.298234 0.950100
O O1 0.937001 0.675060 0.614482
O O2 0.930991 0.319122 0.543592
O O3 0.771727 0.659215 0.260953
O O4 0.628609 0.726489 0.211854
O O5 0.643676 0.914507 0.314913
O O6 0.662915 0.434539 0.110671
O O7 0.735493 0.851665 0.140488
O O8 0.650907 0.878428 0.584334
O O9 0.500000 0.000000 0.627163
O O10 0.617543 0.384723 0.604265
O O11 0.760838 0.569246 0.447138
O O12 0.317342 0.500000 0.000000
#
# Coordination Sequence:
#
# PCOD9332001 Si02
#       6
#     4   8   8   8   8   8
#     4  10  26  41  68 108 154 196 242 316 367 444
#     4  12  23  41  69 100 146 196 252 299 370 450
#     4  11  23  42  67 101 150 193 248 303 368 442
#     4  12  24  43  70 110 146 196 246 313 374 443
#     4  11  22  45  71 105 139 189 247 304 372 441
#     4  11  25  48  78 107 146 202 252 312 383 462
#
# _framework density 23.582505000000001
#
# number of rings (size 3 to 8) (size 9 to 14) (size 15 to 20)
#    0.000    0.727    5.455    1.091    3.818    5.091 
#    0.000    1.818    0.000    0.545    4.727    0.000 
#    0.000    0.000    0.000    0.000    0.000    0.000 
#
# Total GULP energy -122814.452991 kJ/mol
# GULP energy per Si atom -5582.475136 kJ/mol
# Density = 2.352883 g / cm^3
# Si number density = 23.582505 Si / 1000 Ang^3
#
#
#
# Elastic Constant Matrix: (Units=GPa)
#
#
# Indices 1 2 3 4 5 6 
#
# 1 98.0600 24.1281 16.6492 0.0000 0.0000 0.0000
# 2 24.1281 121.5776 35.0563 0.0000 0.0000 0.0000
# 3 16.6492 35.0563 93.3686 0.0000 0.0000 0.0000
# 4 0.0000 0.0000 0.0000 37.1262 0.0000 0.0000
# 5 0.0000 0.0000 0.0000 0.0000 1.1655 0.0000
# 6 0.0000 0.0000 0.0000 0.0000 0.0000 45.4814
#
#
#
# Elastic Compliance Matrix: (Units=1/GPa)
#
#
# Indices 1 2 3 4 5 6 
#
# 1 0.010853 -0.001790 -0.001263 0.000000 0.000000 0.000000
# 2 -0.001790 0.009519 -0.003255 0.000000 0.000000 0.000000
# 3 -0.001263 -0.003255 0.012158 0.000000 0.000000 0.000000
# 4 0.000000 0.000000 0.000000 0.026935 0.000000 0.000000
# 5 0.000000 0.000000 0.000000 0.000000 0.858022 0.000000
# 6 0.000000 0.000000 0.000000 0.000000 0.000000 0.021987
#
#
# Mechanical properties :
#
#
# Convention : Reuss Voigt Hill
#
# Bulk Modulus (GPa) = 50.21672 51.63040 50.92356
# Shear Modulus (GPa) = 5.21525 32.56613 18.89069
#
# Velocity S-wave (km/s) = 1.48872 3.72014 2.83335
# Velocity P-wave (km/s) = 4.92903 6.35560 5.68722
#
# Compressibility (1/GPa) = 0.01991369
#
# Stress axis : x y z
#
# Youngs Moduli (GPa) = 92.14337 105.05443 82.25320
#
# Poissons Ratio (x) = 0.18800 0.10391
# Poissons Ratio (y) = 0.16489 0.26772
# Poissons Ratio (z) = 0.11641 0.34194
#
# Static dielectric constant tensor:
#      x y z
#    x 1.865160 0.000000 0.000000 
#    y 0.000000 1.954370 0.000000 
#    z 0.000000 0.000000 2.083980 
# 
# From -- ./inp_files/29550.got.cif
#   From: 2010.05.17/outbox.cif.g08.bks.cpg/sg23_15_cif.got.tgz:29550.got - 2010.06.04 12:02:01.
