data_PCOD9332479
_publ_section_title
;
Structure prediction by ZEFSAII (Michael W. Deem and Ramdas Pophale) SiO2 
 PCOD9332479
Probable space group: I 2 2 2
;
_chemical_formula_sum "Si O2"
_cell_formula_units_Z 32
_cell_length_a 7.518137
_cell_length_b 16.720364
_cell_length_c 10.980962
_cell_angle_alpha 90.000000
_cell_angle_beta 90.000000
_cell_angle_gamma 90.000000
_cell_volume 1380.372669
_symmetry_space_group_name_H-M "I 2 2 2"
_symmetry_group_IT_number 23
_symmetry_cell_setting 'orthorhombic'
loop_
_space_group_symop_operation_xyz
x,y,z
-x,-y,z
x,-y,-z
-x,y,-z
1/2+x,1/2+y,1/2+z
1/2-x,1/2-y,1/2+z
1/2+x,1/2-y,1/2-z
1/2-x,1/2+y,1/2-z
loop_
_atom_site_type_symbol
_atom_site_label
_atom_site_fract_x
_atom_site_fract_y
_atom_site_fract_z
Si Si1 0.700384 0.564669 0.112273
Si Si2 0.711364 0.022090 0.864556
Si Si3 0.503781 0.797851 0.625474
Si Si4 0.869391 0.156978 0.717548
O O1 0.719818 0.477852 0.756243
O O2 0.483330 0.612582 0.864210
O O3 0.708842 0.500000 0.000000
O O4 0.860987 0.628423 0.110730
O O5 0.788373 0.109686 0.834018
O O6 0.500000 0.000000 0.863628
O O7 0.773499 0.000000 0.000000
O O8 0.500000 0.749246 0.500000
O O9 0.306416 0.829756 0.640798
O O10 0.553926 0.740982 0.736366
#
# Coordination Sequence:
#
# PCOD9332479 Si02
#       4
#     8   8   8   8
#     4  12  28  51  83 123 159 211 278 346 410 494
#     4  11  26  47  77 111 155 208 269 330 401 492
#     4  12  28  49  80 114 165 210 271 338 418 497
#     4  12  27  52  76 117 157 216 266 340 414 506
#
# _framework density 23.182145999999999
#
# number of rings (size 3 to 8) (size 9 to 14) (size 15 to 20)
#    0.000    0.250    5.000    2.250    3.500    9.000 
#    0.000    0.000    0.000    0.000    0.000    0.000 
#    0.000    0.000    0.000    0.000    0.000    0.000 
#
# Total GULP energy -89365.885789 kJ/mol
# GULP energy per Si atom -5585.367862 kJ/mol
# Density = 2.312938 g / cm^3
# Si number density = 23.182146 Si / 1000 Ang^3
#
#
#
# Elastic Constant Matrix: (Units=GPa)
#
#
# Indices 1 2 3 4 5 6 
#
# 1 201.2410 61.5960 52.4110 0.0000 0.0000 0.0000
# 2 61.5960 102.4423 61.0091 0.0000 0.0000 0.0000
# 3 52.4110 61.0091 193.5645 0.0000 0.0000 0.0000
# 4 0.0000 0.0000 0.0000 30.0070 0.0000 0.0000
# 5 0.0000 0.0000 0.0000 0.0000 11.4669 0.0000
# 6 0.0000 0.0000 0.0000 0.0000 0.0000 43.9389
#
#
#
# Elastic Compliance Matrix: (Units=1/GPa)
#
#
# Indices 1 2 3 4 5 6 
#
# 1 0.006149 -0.003331 -0.000615 0.000000 0.000000 0.000000
# 2 -0.003331 0.013822 -0.003455 0.000000 0.000000 0.000000
# 3 -0.000615 -0.003455 0.006422 0.000000 0.000000 0.000000
# 4 0.000000 0.000000 0.000000 0.033326 0.000000 0.000000
# 5 0.000000 0.000000 0.000000 0.000000 0.087208 0.000000
# 6 0.000000 0.000000 0.000000 0.000000 0.000000 0.022759
#
#
# Mechanical properties :
#
#
# Convention : Reuss Voigt Hill
#
# Bulk Modulus (GPa) = 86.27209 94.14221 90.20715
# Shear Modulus (GPa) = 26.54648 38.56469 32.55558
#
# Velocity S-wave (km/s) = 3.38764 4.08309 3.75152
# Velocity P-wave (km/s) = 7.25239 7.93264 7.60013
#
# Compressibility (1/GPa) = 0.01159123
#
# Stress axis : x y z
#
# Youngs Moduli (GPa) = 162.63169 72.35014 155.72442
#
# Poissons Ratio (x) = 0.24099 0.09578
# Poissons Ratio (y) = 0.54170 0.53795
# Poissons Ratio (z) = 0.10003 0.24994
#
# Static dielectric constant tensor:
#      x y z
#    x 1.898020 0.000000 0.000000 
#    y 0.000000 1.932660 0.000000 
#    z 0.000000 0.000000 1.948350 
# 
# From -- ./inp_files/7817.got.cif
#   From: 2010.05.17/outbox.cif.g08.bks.cpg/sg23_4_cif.got.tgz:7817.got - 2010.06.04 12:02:01.
