data_PCOD9332401
_publ_section_title
;
Structure prediction by ZEFSAII (Michael W. Deem and Ramdas Pophale) SiO2 
 PCOD9332401
Probable space group: I 2 2 2
;
_chemical_formula_sum "Si O2"
_cell_formula_units_Z 36
_cell_length_a 11.591671
_cell_length_b 12.335791
_cell_length_c 10.671022
_cell_angle_alpha 90.000000
_cell_angle_beta 90.000000
_cell_angle_gamma 90.000000
_cell_volume 1525.875375
_symmetry_space_group_name_H-M "I 2 2 2"
_symmetry_group_IT_number 23
_symmetry_cell_setting 'orthorhombic'
loop_
_space_group_symop_operation_xyz
x,y,z
-x,-y,z
x,-y,-z
-x,y,-z
1/2+x,1/2+y,1/2+z
1/2-x,1/2-y,1/2+z
1/2+x,1/2-y,1/2-z
1/2-x,1/2+y,1/2-z
loop_
_atom_site_type_symbol
_atom_site_label
_atom_site_fract_x
_atom_site_fract_y
_atom_site_fract_z
Si Si1 0.500000 0.818151 0.000000
Si Si2 0.702927 0.548384 0.797411
Si Si3 0.784780 0.831577 0.563549
Si Si4 0.056636 0.192272 0.125200
Si Si5 0.548502 0.895743 0.250829
O O1 0.394385 0.744668 0.956075
O O2 0.526665 0.885637 0.875831
O O3 0.694332 0.421384 0.828642
O O4 0.596458 0.603424 0.726127
O O5 0.819225 0.577195 0.722863
O O6 0.723547 0.605840 0.931471
O O7 0.671238 0.762280 0.592286
O O8 0.969423 0.282924 0.178788
O O9 0.000000 0.145014 0.000000
O O10 0.500000 0.000000 0.325284
#
# Coordination Sequence:
#
# PCOD9332401 Si02
#       5
#     4   8   8   8   8
#     4  12  25  45  72 102 150 196 248 306 378 448
#     4  11  24  43  70 112 145 192 254 313 368 450
#     4  11  24  43  75 104 145 200 250 304 377 447
#     4  12  24  43  76 114 152 193 252 317 379 442
#     4  12  24  42  73 108 146 195 257 313 369 448
#
# _framework density 23.593012999999999
#
# number of rings (size 3 to 8) (size 9 to 14) (size 15 to 20)
#    0.000    0.444    8.889    0.333    0.000    2.222 
#    0.000    0.000    0.000    6.667    0.000    0.000 
#    0.000    0.000    0.000    0.000    0.000    0.000 
#
# Total GULP energy -100742.195173 kJ/mol
# GULP energy per Si atom -5596.788621 kJ/mol
# Density = 2.353931 g / cm^3
# Si number density = 23.593013 Si / 1000 Ang^3
#
#
#
# Elastic Constant Matrix: (Units=GPa)
#
#
# Indices 1 2 3 4 5 6 
#
# 1 85.0946 63.9428 15.9725 0.0000 0.0000 0.0000
# 2 63.9428 114.4617 43.7855 0.0000 0.0000 0.0000
# 3 15.9725 43.7855 100.2268 0.0000 0.0000 0.0000
# 4 0.0000 0.0000 0.0000 28.6258 0.0000 0.0000
# 5 0.0000 0.0000 0.0000 0.0000 36.5620 0.0000
# 6 0.0000 0.0000 0.0000 0.0000 0.0000 34.1098
#
#
#
# Elastic Compliance Matrix: (Units=1/GPa)
#
#
# Indices 1 2 3 4 5 6 
#
# 1 0.020614 -0.012318 0.002096 0.000000 0.000000 0.000000
# 2 -0.012318 0.017850 -0.005835 0.000000 0.000000 0.000000
# 3 0.002096 -0.005835 0.012192 0.000000 0.000000 0.000000
# 4 0.000000 0.000000 0.000000 0.034934 0.000000 0.000000
# 5 0.000000 0.000000 0.000000 0.000000 0.027351 0.000000
# 6 0.000000 0.000000 0.000000 0.000000 0.000000 0.029317
#
#
# Mechanical properties :
#
#
# Convention : Reuss Voigt Hill
#
# Bulk Modulus (GPa) = 53.92840 60.79830 57.36335
# Shear Modulus (GPa) = 27.69289 31.59833 29.64561
#
# Velocity S-wave (km/s) = 3.42976 3.66363 3.54862
# Velocity P-wave (km/s) = 6.21222 6.61225 6.41535
#
# Compressibility (1/GPa) = 0.01854311
#
# Stress axis : x y z
#
# Youngs Moduli (GPa) = 48.51058 56.02329 82.01817
#
# Poissons Ratio (x) = 0.69007 -0.17191
# Poissons Ratio (y) = 0.59754 0.47857
# Poissons Ratio (z) = -0.10168 0.32689
#
# Static dielectric constant tensor:
#      x y z
#    x 1.892660 0.000000 0.000000 
#    y 0.000000 1.908020 0.000000 
#    z 0.000000 0.000000 2.007810 
# 
# From -- ./inp_files/15344.got.cif
#   From: 2010.05.17/outbox.cif.g08.bks.cpg/sg23_8_cif.got.tgz:15344.got - 2010.06.04 12:02:01.
