data_PCOD9332082
_publ_section_title
;
Structure prediction by ZEFSAII (Michael W. Deem and Ramdas Pophale) SiO2 
 PCOD9332082
Probable space group: I 2 2 2
;
_chemical_formula_sum "Si O2"
_cell_formula_units_Z 64
_cell_length_a 8.603682
_cell_length_b 17.799468
_cell_length_c 22.310647
_cell_angle_alpha 90.000000
_cell_angle_beta 90.000000
_cell_angle_gamma 90.000000
_cell_volume 3416.673954
_symmetry_space_group_name_H-M "I 2 2 2"
_symmetry_group_IT_number 23
_symmetry_cell_setting 'orthorhombic'
loop_
_space_group_symop_operation_xyz
x,y,z
-x,-y,z
x,-y,-z
-x,y,-z
1/2+x,1/2+y,1/2+z
1/2-x,1/2-y,1/2+z
1/2+x,1/2-y,1/2-z
1/2-x,1/2+y,1/2-z
loop_
_atom_site_type_symbol
_atom_site_label
_atom_site_fract_x
_atom_site_fract_y
_atom_site_fract_z
Si Si1 0.435615 0.919864 0.064795
Si Si2 0.456387 0.270188 0.570045
Si Si3 0.597761 0.196155 0.681510
Si Si4 0.393232 0.426497 0.394661
Si Si5 0.872459 0.939995 0.761437
Si Si6 0.037039 0.794054 0.718068
Si Si7 0.846562 0.680464 0.638917
Si Si8 0.369861 0.056729 0.237462
O O1 0.253331 0.930221 0.062560
O O2 0.506405 0.856440 0.106276
O O3 0.500000 0.000000 0.084049
O O4 0.500000 0.903107 0.000000
O O5 0.500000 0.256212 0.500000
O O6 0.546077 0.210300 0.613142
O O7 0.518698 0.352271 0.587030
O O8 0.277866 0.283040 0.593084
O O9 0.485989 0.254463 0.717329
O O10 0.569273 0.115135 0.712619
O O11 0.783915 0.208665 0.695097
O O12 0.500000 0.500000 0.400062
O O13 0.322126 0.412828 0.327586
O O14 0.958602 0.875829 0.724537
O O15 0.744697 0.994872 0.733529
O O16 0.000000 0.000000 0.778586
O O17 0.919979 0.746015 0.678118
O O18 0.795836 0.611737 0.685412
O O19 0.500000 0.000000 0.212789
#
# Coordination Sequence:
#
# PCOD9332082 Si02
#       8
#     8   8   8   8   8   8   8   8
#     4  11  22  38  56  82 123 166 217 257 291 361
#     4  12  25  42  62  86 128 179 221 261 306 375
#     4  11  23  42  57  95 127 165 215 259 317 386
#     4  11  22  36  61  87 125 166 212 257 314 378
#     4  11  20  37  58  91 123 157 191 245 330 390
#     4  11  23  37  65  89 130 160 196 267 328 388
#     4  11  23  39  59  92 126 164 207 255 321 377
#     4  11  23  35  63  93 130 159 199 258 326 389
#
# _framework density 18.731666000000001
#
# number of rings (size 3 to 8) (size 9 to 14) (size 15 to 20)
#    0.000    0.875    2.500    7.125    5.250    1.250 
#    0.000    0.000    0.000    0.375    0.000    0.000 
#    0.000    0.000    0.000    0.000    0.000    0.000 
#
# Total GULP energy -178256.155603 kJ/mol
# GULP energy per Si atom -5570.504863 kJ/mol
# Density = 1.868903 g / cm^3
# Si number density = 18.731666 Si / 1000 Ang^3
#
#
#
# Elastic Constant Matrix: (Units=GPa)
#
#
# Indices 1 2 3 4 5 6 
#
# 1 60.5801 16.9597 7.1705 0.0000 0.0000 0.0000
# 2 16.9597 74.1073 44.6723 0.0000 0.0000 0.0000
# 3 7.1705 44.6723 96.8646 0.0000 0.0000 0.0000
# 4 0.0000 0.0000 0.0000 8.1635 0.0000 0.0000
# 5 0.0000 0.0000 0.0000 0.0000 27.0728 0.0000
# 6 0.0000 0.0000 0.0000 0.0000 0.0000 27.8412
#
#
#
# Elastic Compliance Matrix: (Units=1/GPa)
#
#
# Indices 1 2 3 4 5 6 
#
# 1 0.017679 -0.004511 0.000772 0.000000 0.000000 0.000000
# 2 -0.004511 0.019841 -0.008816 0.000000 0.000000 0.000000
# 3 0.000772 -0.008816 0.014333 0.000000 0.000000 0.000000
# 4 0.000000 0.000000 0.000000 0.122496 0.000000 0.000000
# 5 0.000000 0.000000 0.000000 0.000000 0.036937 0.000000
# 6 0.000000 0.000000 0.000000 0.000000 0.000000 0.035918
#
#
# Mechanical properties :
#
#
# Convention : Reuss Voigt Hill
#
# Bulk Modulus (GPa) = 37.39614 41.01746 39.20680
# Shear Modulus (GPa) = 17.77913 23.46546 20.62229
#
# Velocity S-wave (km/s) = 3.08417 3.54321 3.32163
# Velocity P-wave (km/s) = 5.71754 6.21965 5.97387
#
# Compressibility (1/GPa) = 0.02674072
#
# Stress axis : x y z
#
# Youngs Moduli (GPa) = 56.56552 50.40108 69.77148
#
# Poissons Ratio (x) = 0.22736 -0.05385
# Poissons Ratio (y) = 0.25517 0.61513
# Poissons Ratio (z) = -0.04365 0.44435
#
# Static dielectric constant tensor:
#      x y z
#    x 1.764440 0.000000 0.000000 
#    y 0.000000 1.600830 0.000000 
#    z 0.000000 0.000000 1.709590 
# 
# From -- ./inp_files/26364.got.cif
#   From: 2010.05.17/outbox.cif.g08.bks.cpg/sg23_14_cif.got.tgz:26364.got - 2010.06.04 12:02:01.
