data_PCOD9332455
_publ_section_title
;
Structure prediction by ZEFSAII (Michael W. Deem and Ramdas Pophale) SiO2 
 PCOD9332455
Probable space group: I 2 2 2
;
_chemical_formula_sum "Si O2"
_cell_formula_units_Z 34
_cell_length_a 18.052559
_cell_length_b 7.691825
_cell_length_c 9.653774
_cell_angle_alpha 90.000000
_cell_angle_beta 90.000000
_cell_angle_gamma 90.000000
_cell_volume 1340.495299
_symmetry_space_group_name_H-M "I 2 2 2"
_symmetry_group_IT_number 23
_symmetry_cell_setting 'orthorhombic'
loop_
_space_group_symop_operation_xyz
x,y,z
-x,-y,z
x,-y,-z
-x,y,-z
1/2+x,1/2+y,1/2+z
1/2-x,1/2-y,1/2+z
1/2+x,1/2-y,1/2-z
1/2-x,1/2+y,1/2-z
loop_
_atom_site_type_symbol
_atom_site_label
_atom_site_fract_x
_atom_site_fract_y
_atom_site_fract_z
Si Si1 0.920297 0.035037 0.659472
Si Si2 0.000000 0.500000 0.500000
Si Si3 0.671863 0.293120 0.527443
Si Si4 0.887505 0.324482 0.281301
Si Si5 0.188458 0.330692 0.280368
O O1 0.884905 0.220033 0.682347
O O2 0.929570 0.000000 0.500000
O O3 0.866597 0.876811 0.697644
O O4 0.000000 0.000000 0.729645
O O5 0.952168 0.380361 0.390838
O O6 0.655004 0.500000 0.500000
O O7 0.607146 0.189595 0.612765
O O8 0.745005 0.274865 0.622043
O O9 0.692404 0.205071 0.382370
O O10 0.826817 0.468875 0.311394
#
# Coordination Sequence:
#
# PCOD9332455 Si02
#       5
#     8   2   8   8   8
#     4  11  25  46  77 116 157 209 266 329 402 483
#     4  12  28  52  88 124 156 226 264 348 402 488
#     4  12  28  51  78 123 166 218 268 341 413 482
#     4  12  26  50  81 117 161 203 279 326 406 483
#     4  12  28  48  80 120 164 215 270 339 406 483
#
# _framework density 25.363757
#
# number of rings (size 3 to 8) (size 9 to 14) (size 15 to 20)
#    0.000    0.235    2.353    6.353   11.529    0.000 
#    0.000    9.412    0.000    0.000    0.000    0.000 
#    0.000    0.000    0.000    0.000    0.000    0.000 
#
# Total GULP energy -94938.566637 kJ/mol
# GULP energy per Si atom -5584.621567 kJ/mol
# Density = 2.530603 g / cm^3
# Si number density = 25.363757 Si / 1000 Ang^3
#
#
#
# Elastic Constant Matrix: (Units=GPa)
#
#
# Indices 1 2 3 4 5 6 
#
# 1 88.2434 25.6324 63.7470 0.0000 0.0000 0.0000
# 2 25.6324 108.1991 6.1391 0.0000 0.0000 0.0000
# 3 63.7470 6.1391 175.8272 0.0000 0.0000 0.0000
# 4 0.0000 0.0000 0.0000 51.5140 0.0000 0.0000
# 5 0.0000 0.0000 0.0000 0.0000 37.8934 0.0000
# 6 0.0000 0.0000 0.0000 0.0000 0.0000 44.4877
#
#
#
# Elastic Compliance Matrix: (Units=1/GPa)
#
#
# Indices 1 2 3 4 5 6 
#
# 1 0.016651 -0.003609 -0.005911 0.000000 0.000000 0.000000
# 2 -0.003609 0.010043 0.000958 0.000000 0.000000 0.000000
# 3 -0.005911 0.000958 0.007797 0.000000 0.000000 0.000000
# 4 0.000000 0.000000 0.000000 0.019412 0.000000 0.000000
# 5 0.000000 0.000000 0.000000 0.000000 0.026390 0.000000
# 6 0.000000 0.000000 0.000000 0.000000 0.000000 0.022478
#
#
# Mechanical properties :
#
#
# Convention : Reuss Voigt Hill
#
# Bulk Modulus (GPa) = 57.58268 62.58962 60.08615
# Shear Modulus (GPa) = 39.78255 45.22912 42.50584
#
# Velocity S-wave (km/s) = 3.96470 4.22740 4.09816
# Velocity P-wave (km/s) = 6.61139 6.96837 6.79223
#
# Compressibility (1/GPa) = 0.01736633
#
# Stress axis : x y z
#
# Youngs Moduli (GPa) = 60.05806 99.57301 128.25586
#
# Poissons Ratio (x) = 0.35937 0.75808
# Poissons Ratio (y) = 0.21676 -0.12285
# Poissons Ratio (z) = 0.35499 -0.09538
#
# Static dielectric constant tensor:
#      x y z
#    x 2.159920 0.000000 0.000000 
#    y 0.000000 2.018210 0.000000 
#    z 0.000000 0.000000 1.945240 
# 
# From -- ./inp_files/11686.got.cif
#   From: 2010.05.17/outbox.cif.g08.bks.cpg/sg23_6_cif.got.tgz:11686.got - 2010.06.04 12:02:01.
