data_PCOD9332175
_publ_section_title
;
Structure prediction by ZEFSAII (Michael W. Deem and Ramdas Pophale) SiO2 
 PCOD9332175
Probable space group: I 2 2 2
;
_chemical_formula_sum "Si O2"
_cell_formula_units_Z 24
_cell_length_a 15.792959
_cell_length_b 7.383254
_cell_length_c 8.852679
_cell_angle_alpha 90.000000
_cell_angle_beta 90.000000
_cell_angle_gamma 90.000000
_cell_volume 1032.252716
_symmetry_space_group_name_H-M "I 2 2 2"
_symmetry_group_IT_number 23
_symmetry_cell_setting 'orthorhombic'
loop_
_space_group_symop_operation_xyz
x,y,z
-x,-y,z
x,-y,-z
-x,y,-z
1/2+x,1/2+y,1/2+z
1/2-x,1/2-y,1/2+z
1/2+x,1/2-y,1/2-z
1/2-x,1/2+y,1/2-z
loop_
_atom_site_type_symbol
_atom_site_label
_atom_site_fract_x
_atom_site_fract_y
_atom_site_fract_z
Si Si1 0.179991 0.714870 0.146933
Si Si2 0.085119 0.614347 0.833221
Si Si3 0.366998 0.566925 0.161217
O O1 0.146765 0.537682 0.236563
O O2 0.279715 0.679862 0.132884
O O3 0.133177 0.690276 0.984036
O O4 0.154878 0.899267 0.228891
O O5 0.069452 0.791354 0.735756
O O6 0.000000 0.500000 0.853138
O O7 0.396209 0.500000 0.000000
#
# Coordination Sequence:
#
# PCOD9332175 Si02
#       3
#     8   8   8
#     4  11  21  43  73 105 144 191 248 296 359 446
#     4  11  25  46  70 105 150 194 247 300 362 440
#     4  12  23  41  73 111 145 187 247 308 366 425
#
# _framework density 23.250121
#
# number of rings (size 3 to 8) (size 9 to 14) (size 15 to 20)
#    0.000    0.667    6.667    3.000    0.000    2.667 
#    0.000   13.333    0.000    0.000    0.000    0.000 
#    0.000    0.000    0.000    0.000    0.000    0.000 
#
# Total GULP energy -67037.660426 kJ/mol
# GULP energy per Si atom -5586.471702 kJ/mol
# Density = 2.319720 g / cm^3
# Si number density = 23.250121 Si / 1000 Ang^3
#
#
#
# Elastic Constant Matrix: (Units=GPa)
#
#
# Indices 1 2 3 4 5 6 
#
# 1 84.5985 41.5259 33.2133 0.0000 0.0000 0.0000
# 2 41.5259 197.5354 101.9297 0.0000 0.0000 0.0000
# 3 33.2133 101.9297 105.3309 0.0000 0.0000 0.0000
# 4 0.0000 0.0000 0.0000 39.2801 0.0000 0.0000
# 5 0.0000 0.0000 0.0000 0.0000 12.8839 0.0000
# 6 0.0000 0.0000 0.0000 0.0000 0.0000 35.6628
#
#
#
# Elastic Compliance Matrix: (Units=1/GPa)
#
#
# Indices 1 2 3 4 5 6 
#
# 1 0.013655 -0.001296 -0.003052 0.000000 0.000000 0.000000
# 2 -0.001296 0.010234 -0.009495 0.000000 0.000000 0.000000
# 3 -0.003052 -0.009495 0.019645 0.000000 0.000000 0.000000
# 4 0.000000 0.000000 0.000000 0.025458 0.000000 0.000000
# 5 0.000000 0.000000 0.000000 0.000000 0.077617 0.000000
# 6 0.000000 0.000000 0.000000 0.000000 0.000000 0.028040
#
#
# Mechanical properties :
#
#
# Convention : Reuss Voigt Hill
#
# Bulk Modulus (GPa) = 63.09810 82.31138 72.70474
# Shear Modulus (GPa) = 24.08271 31.61840 27.85055
#
# Velocity S-wave (km/s) = 3.22189 3.69172 3.46478
# Velocity P-wave (km/s) = 6.40613 7.32469 6.88076
#
# Compressibility (1/GPa) = 0.01584834
#
# Stress axis : x y z
#
# Youngs Moduli (GPa) = 73.23494 97.70885 50.90365
#
# Poissons Ratio (x) = 0.12661 0.15534
# Poissons Ratio (y) = 0.09490 0.48335
# Poissons Ratio (z) = 0.22349 0.92779
#
# Static dielectric constant tensor:
#      x y z
#    x 1.982090 0.000000 0.000000 
#    y 0.000000 1.871920 0.000000 
#    z 0.000000 0.000000 1.928630 
# 
# From -- ./inp_files/1129.got.cif
#   From: 2010.05.17/outbox.cif.g08.bks.cpg/sg23_1_cif.got.tgz:1129.got - 2010.06.04 12:02:01.
