data_PCOD9332444
_publ_section_title
;
Structure prediction by ZEFSAII (Michael W. Deem and Ramdas Pophale) SiO2 
 PCOD9332444
Probable space group: I 2 2 2
;
_chemical_formula_sum "Si O2"
_cell_formula_units_Z 24
_cell_length_a 4.606462
_cell_length_b 23.624532
_cell_length_c 8.706487
_cell_angle_alpha 90.000000
_cell_angle_beta 90.000000
_cell_angle_gamma 90.000000
_cell_volume 947.487879
_symmetry_space_group_name_H-M "I 2 2 2"
_symmetry_group_IT_number 23
_symmetry_cell_setting 'orthorhombic'
loop_
_space_group_symop_operation_xyz
x,y,z
-x,-y,z
x,-y,-z
-x,y,-z
1/2+x,1/2+y,1/2+z
1/2-x,1/2-y,1/2+z
1/2+x,1/2-y,1/2-z
1/2-x,1/2+y,1/2-z
loop_
_atom_site_type_symbol
_atom_site_label
_atom_site_fract_x
_atom_site_fract_y
_atom_site_fract_z
Si Si1 0.558974 0.889244 0.665477
Si Si2 0.823324 0.774884 0.337946
Si Si3 0.930312 0.065647 0.828048
O O1 0.500000 0.915618 0.500000
O O2 0.389614 0.829400 0.661843
O O3 0.894028 0.895638 0.706636
O O4 0.405873 0.924978 0.797154
O O5 0.578786 0.727911 0.291143
O O6 0.000000 0.768683 0.500000
O O7 0.000000 0.000000 0.805568
O O8 0.000000 0.083252 0.000000
#
# Coordination Sequence:
#
# PCOD9332444 Si02
#       3
#     8   8   8
#     4  12  25  45  70 100 139 180 230 288 346 413
#     4  12  26  47  72 102 141 185 235 291 350 417
#     4  11  25  45  70 102 139 180 230 286 345 414
#
# _framework density 25.330138000000002
#
# number of rings (size 3 to 8) (size 9 to 14) (size 15 to 20)
#    0.000    0.333    0.000   10.000    0.000   12.000 
#    0.000    5.000    0.000    0.000    0.000    0.000 
#    0.000    0.000    0.000    0.000    0.000    0.000 
#
# Total GULP energy -67078.810085 kJ/mol
# GULP energy per Si atom -5589.900840 kJ/mol
# Density = 2.527249 g / cm^3
# Si number density = 25.330138 Si / 1000 Ang^3
#
#
#
# Elastic Constant Matrix: (Units=GPa)
#
#
# Indices 1 2 3 4 5 6 
#
# 1 125.3712 10.4047 24.1105 0.0000 0.0000 0.0000
# 2 10.4047 41.4792 30.1856 0.0000 0.0000 0.0000
# 3 24.1105 30.1856 112.4125 0.0000 0.0000 0.0000
# 4 0.0000 0.0000 0.0000 18.4892 0.0000 0.0000
# 5 0.0000 0.0000 0.0000 0.0000 66.4820 0.0000
# 6 0.0000 0.0000 0.0000 0.0000 0.0000 40.3810
#
#
#
# Elastic Compliance Matrix: (Units=1/GPa)
#
#
# Indices 1 2 3 4 5 6 
#
# 1 0.008352 -0.000984 -0.001527 0.000000 0.000000 0.000000
# 2 -0.000984 0.030080 -0.007866 0.000000 0.000000 0.000000
# 3 -0.001527 -0.007866 0.011336 0.000000 0.000000 0.000000
# 4 0.000000 0.000000 0.000000 0.054086 0.000000 0.000000
# 5 0.000000 0.000000 0.000000 0.000000 0.015042 0.000000
# 6 0.000000 0.000000 0.000000 0.000000 0.000000 0.024764
#
#
# Mechanical properties :
#
#
# Convention : Reuss Voigt Hill
#
# Bulk Modulus (GPa) = 34.46726 45.40716 39.93721
# Shear Modulus (GPa) = 28.72188 39.37455 34.04822
#
# Velocity S-wave (km/s) = 3.37100 3.94693 3.67028
# Velocity P-wave (km/s) = 5.36547 6.22383 5.81052
#
# Compressibility (1/GPa) = 0.02901304
#
# Stress axis : x y z
#
# Youngs Moduli (GPa) = 119.73702 33.24511 88.21747
#
# Poissons Ratio (x) = 0.03270 0.13472
# Poissons Ratio (y) = 0.11777 0.69393
# Poissons Ratio (z) = 0.18286 0.26151
#
# Static dielectric constant tensor:
#      x y z
#    x 1.893070 0.000000 0.000000 
#    y 0.000000 2.042260 0.000000 
#    z 0.000000 0.000000 1.988340 
# 
# From -- ./inp_files/4159.got.cif
#   From: 2010.05.17/outbox.cif.g08.bks.cpg/sg23_3_cif.got.tgz:4159.got - 2010.06.04 12:02:01.
