data_PCOD9332633
_publ_section_title
;
Structure prediction by ZEFSAII (Michael W. Deem and Ramdas Pophale) SiO2 
 PCOD9332633
Probable space group: I 2 2 2
;
_chemical_formula_sum "Si O2"
_cell_formula_units_Z 25
_cell_length_a 30.000000
_cell_length_b 9.000000
_cell_length_c 9.000000
_cell_angle_alpha 90.000000
_cell_angle_beta 90.000000
_cell_angle_gamma 90.000000
_cell_volume 2430.000000
_symmetry_space_group_name_H-M "I 2 2 2"
_symmetry_group_IT_number 23
_symmetry_cell_setting 'orthorhombic'
loop_
_space_group_symop_operation_xyz
x,y,z
-x,-y,z
x,-y,-z
-x,y,-z
1/2+x,1/2+y,1/2+z
1/2-x,1/2-y,1/2+z
1/2+x,1/2-y,1/2-z
1/2-x,1/2+y,1/2-z
loop_
_atom_site_type_symbol
_atom_site_label
_atom_site_fract_x
_atom_site_fract_y
_atom_site_fract_z
Si Si1 0.000000 0.500000 0.500000
Si Si2 0.403096 0.000000 0.500000
Si Si3 0.714230 0.375778 0.107973
Si Si4 0.356978 0.000000 0.000000
Si Si5 0.852952 0.791542 0.906947
Si Si6 0.429099 0.842299 0.199100
Si Si7 0.625808 0.423149 0.276810
Si Si8 0.288691 0.175950 0.170011
O O1 0.028347 0.606834 0.607373
O O2 0.373166 0.869669 0.568909
O O3 0.427955 0.929922 0.356951
O O4 0.663378 0.410250 0.150483
O O5 0.742789 0.370720 0.256661
O O6 0.734086 0.500000 0.000000
O O7 0.717041 0.238600 0.995907
O O8 0.389217 0.114101 0.915333
O O9 0.325966 0.945088 0.865446
O O10 0.810109 0.780598 0.798974
O O11 0.884043 0.907020 0.817772
O O12 0.850611 0.854873 0.074467
O O13 0.417474 0.672902 0.239635
#
# Coordination Sequence:
#
# PCOD9332633 Si02
#       8
#     2   4   8   4   8   8   8   8
#     4  10  24  42  72 110 136 166 220 286 340 440
#     4  10  20  37  68 102 128 176 216 274 332 425
#     4  12  26  38  55  83 123 178 228 289 348 400
#     4  11  22  37  62  86 124 176 222 282 339 409
#     4  10  21  38  64  92 124 172 228 270 336 398
#     4  10  21  41  68  98 132 167 221 274 348 417
#     4  10  21  41  62  90 128 173 219 278 342 411
#     4  12  25  38  56  86 125 174 232 293 332 400
#
# _framework density 10.288066000000001
#
# number of rings (size 3 to 8) (size 9 to 14) (size 15 to 20)
#    0.000    1.280    4.800    0.960    3.360    1.600 
#    0.000    0.000    0.000    1.920    0.000    4.480 
#    0.000    0.000    0.000    0.000    0.000    0.000 
#
# Total GULP energy -139233.247656 kJ/mol
# GULP energy per Si atom -5569.329906 kJ/mol
# Density = 1.026465 g / cm^3
# Si number density = 10.288066 Si / 1000 Ang^3
#
#
#
# Elastic Constant Matrix: (Units=GPa)
#
#
# Indices 1 2 3 4 5 6 
#
# 1 77.0945 42.7593 40.3901 0.0000 0.0000 0.0000
# 2 42.7593 103.9144 30.5587 0.0000 0.0000 0.0000
# 3 40.3901 30.5587 119.9829 0.0000 0.0000 0.0000
# 4 0.0000 0.0000 0.0000 30.4404 0.0000 0.0000
# 5 0.0000 0.0000 0.0000 0.0000 37.4504 0.0000
# 6 0.0000 0.0000 0.0000 0.0000 0.0000 7.3623
#
#
#
# Elastic Compliance Matrix: (Units=1/GPa)
#
#
# Indices 1 2 3 4 5 6 
#
# 1 0.019037 -0.006431 -0.004771 0.000000 0.000000 0.000000
# 2 -0.006431 0.012575 -0.001038 0.000000 0.000000 0.000000
# 3 -0.004771 -0.001038 0.010205 0.000000 0.000000 0.000000
# 4 0.000000 0.000000 0.000000 0.032851 0.000000 0.000000
# 5 0.000000 0.000000 0.000000 0.000000 0.026702 0.000000
# 6 0.000000 0.000000 0.000000 0.000000 0.000000 0.135827
#
#
# Mechanical properties :
#
#
# Convention : Reuss Voigt Hill
#
# Bulk Modulus (GPa) = 57.67606 58.71200 58.19403
# Shear Modulus (GPa) = 18.69477 27.53620 23.11548
#
# Velocity S-wave (km/s) = 3.01751 3.66219 3.35537
# Velocity P-wave (km/s) = 6.34286 6.81749 6.58446
#
# Compressibility (1/GPa) = 0.01733822
#
# Stress axis : x y z
#
# Youngs Moduli (GPa) = 52.52913 79.52539 97.99277
#
# Poissons Ratio (x) = 0.51139 0.46749
# Poissons Ratio (y) = 0.33779 0.10171
# Poissons Ratio (z) = 0.25060 0.08254
#
# Static dielectric constant tensor:
#      x y z
#    x 1.720540 0.000000 0.000000 
#    y 0.000000 1.782420 0.000000 
#    z 0.000000 0.000000 1.601660 
# 
# From -- ./inp_files/13424.got.cif
#   From: 2010.05.17/outbox.ucp.g08.bks.cvg/sg23_7_cif.got.tgz:13424.got - 2010.06.11 15:19:07.
