data_PCOD9332415
_publ_section_title
;
Structure prediction by ZEFSAII (Michael W. Deem and Ramdas Pophale) SiO2 
 PCOD9332415
Probable space group: I 2 2 2
;
_chemical_formula_sum "Si O2"
_cell_formula_units_Z 40
_cell_length_a 17.141826
_cell_length_b 13.301770
_cell_length_c 7.955537
_cell_angle_alpha 90.000000
_cell_angle_beta 90.000000
_cell_angle_gamma 90.000000
_cell_volume 1813.994711
_symmetry_space_group_name_H-M "I 2 2 2"
_symmetry_group_IT_number 23
_symmetry_cell_setting 'orthorhombic'
loop_
_space_group_symop_operation_xyz
x,y,z
-x,-y,z
x,-y,-z
-x,y,-z
1/2+x,1/2+y,1/2+z
1/2-x,1/2-y,1/2+z
1/2+x,1/2-y,1/2-z
1/2-x,1/2+y,1/2-z
loop_
_atom_site_type_symbol
_atom_site_label
_atom_site_fract_x
_atom_site_fract_y
_atom_site_fract_z
Si Si1 0.933586 0.799096 0.375951
Si Si2 0.657736 0.542701 0.684130
Si Si3 0.299406 0.652091 0.876786
Si Si4 0.197864 0.658546 0.177554
Si Si5 0.982757 0.613815 0.801220
O O1 0.908835 0.878087 0.233673
O O2 0.856946 0.792255 0.492300
O O3 0.000000 0.839734 0.500000
O O4 0.966435 0.696189 0.298327
O O5 0.647260 0.500000 0.500000
O O6 0.662284 0.450820 0.815496
O O7 0.740945 0.598015 0.707747
O O8 0.288763 0.724372 0.718977
O O9 0.221100 0.635205 0.984573
O O10 0.109114 0.633890 0.217393
O O11 0.000000 0.500000 0.747017
O O12 0.000000 0.622750 0.000000
#
# Coordination Sequence:
#
# PCOD9332415 Si02
#       5
#     8   8   8   8   8
#     4  11  24  49  70 107 145 187 242 303 366 435
#     4  11  27  46  77 109 142 197 248 301 368 436
#     4  11  25  44  73 104 144 191 243 299 365 428
#     4  11  24  45  70 102 144 189 240 302 355 439
#     4  11  28  45  73 107 145 190 238 301 373 436
#
# _framework density 22.050781000000001
#
# number of rings (size 3 to 8) (size 9 to 14) (size 15 to 20)
#    0.000    1.000    2.000    3.600   14.000    3.600 
#    0.000    1.000    0.000    0.000    0.000    0.000 
#    0.000    0.000    0.000    0.000    0.000    0.000 
#
# Total GULP energy -111910.684468 kJ/mol
# GULP energy per Si atom -5595.534223 kJ/mol
# Density = 2.200059 g / cm^3
# Si number density = 22.050781 Si / 1000 Ang^3
#
#
#
# Elastic Constant Matrix: (Units=GPa)
#
#
# Indices 1 2 3 4 5 6 
#
# 1 104.0941 75.9097 25.7701 0.0000 0.0000 0.0000
# 2 75.9097 163.7189 60.1248 0.0000 0.0000 0.0000
# 3 25.7701 60.1248 80.5114 0.0000 0.0000 0.0000
# 4 0.0000 0.0000 0.0000 18.8655 0.0000 0.0000
# 5 0.0000 0.0000 0.0000 0.0000 21.0111 0.0000
# 6 0.0000 0.0000 0.0000 0.0000 0.0000 30.1302
#
#
#
# Elastic Compliance Matrix: (Units=1/GPa)
#
#
# Indices 1 2 3 4 5 6 
#
# 1 0.014530 -0.006930 0.000524 0.000000 0.000000 0.000000
# 2 -0.006930 0.011721 -0.006535 0.000000 0.000000 0.000000
# 3 0.000524 -0.006535 0.017133 0.000000 0.000000 0.000000
# 4 0.000000 0.000000 0.000000 0.053007 0.000000 0.000000
# 5 0.000000 0.000000 0.000000 0.000000 0.047594 0.000000
# 6 0.000000 0.000000 0.000000 0.000000 0.000000 0.033189
#
#
# Mechanical properties :
#
#
# Convention : Reuss Voigt Hill
#
# Bulk Modulus (GPa) = 57.13217 74.65931 65.89574
# Shear Modulus (GPa) = 23.93607 26.43601 25.18604
#
# Velocity S-wave (km/s) = 3.29826 3.46623 3.38329
# Velocity P-wave (km/s) = 6.36163 7.06760 6.72389
#
# Compressibility (1/GPa) = 0.01750327
#
# Stress axis : x y z
#
# Youngs Moduli (GPa) = 68.82183 85.31751 58.36648
#
# Poissons Ratio (x) = 0.59121 -0.03059
# Poissons Ratio (y) = 0.47690 0.38143
# Poissons Ratio (z) = -0.03607 0.55755
#
# Static dielectric constant tensor:
#      x y z
#    x 1.809650 0.000000 0.000000 
#    y 0.000000 1.821520 0.000000 
#    z 0.000000 0.000000 1.840740 
# 
# From -- ./inp_files/8216.got.cif
#   From: 2010.05.17/outbox.cif.g08.bks.cpg/sg23_5_cif.got.tgz:8216.got - 2010.06.04 12:02:01.
