data_PCOD9332635
_publ_section_title
;
Structure prediction by ZEFSAII (Michael W. Deem and Ramdas Pophale) SiO2 
 PCOD9332635
Probable space group: I 2 2 2
;
_chemical_formula_sum "Si O2"
_cell_formula_units_Z 24
_cell_length_a 9.000000
_cell_length_b 18.000000
_cell_length_c 15.000000
_cell_angle_alpha 90.000000
_cell_angle_beta 90.000000
_cell_angle_gamma 90.000000
_cell_volume 2430.000000
_symmetry_space_group_name_H-M "I 2 2 2"
_symmetry_group_IT_number 23
_symmetry_cell_setting 'orthorhombic'
loop_
_space_group_symop_operation_xyz
x,y,z
-x,-y,z
x,-y,-z
-x,y,-z
1/2+x,1/2+y,1/2+z
1/2-x,1/2-y,1/2+z
1/2+x,1/2-y,1/2-z
1/2-x,1/2+y,1/2-z
loop_
_atom_site_type_symbol
_atom_site_label
_atom_site_fract_x
_atom_site_fract_y
_atom_site_fract_z
Si Si1 0.288144 0.649596 0.447302
Si Si2 0.950633 0.295778 0.313247
Si Si3 0.731820 0.153191 0.286035
Si Si4 0.581407 0.581815 0.377220
Si Si5 0.153795 0.213828 0.449917
Si Si6 0.823587 0.586020 0.016084
O O1 0.145267 0.648701 0.379099
O O2 0.440890 0.638507 0.391705
O O3 0.316997 0.593779 0.532521
O O4 0.257987 0.728607 0.495534
O O5 0.830050 0.230569 0.289689
O O6 0.055545 0.334502 0.238618
O O7 0.086892 0.256068 0.365817
O O8 0.818340 0.104115 0.209231
O O9 0.727406 0.115455 0.385179
O O10 0.500000 0.500000 0.372448
O O11 0.242811 0.138196 0.443421
O O12 0.000000 0.196741 0.500000
O O13 0.784793 0.500000 0.000000
O O14 0.000000 0.593814 0.000000
#
# Coordination Sequence:
#
# PCOD9332635 Si02
#       6
#     8   8   8   8   8   8
#     4  10  20  43  69  99 137 182 227 286 363 428
#     4  11  24  41  69 114 131 179 241 303 355 410
#     4  12  25  43  70 108 141 179 243 302 350 420
#     4  11  25  43  70 104 145 186 229 287 370 437
#     4  10  20  40  69  97 127 176 235 280 348 412
#     4  11  27  47  66  94 140 197 225 278 356 425
#
# _framework density 9.8765429999999999
#
# number of rings (size 3 to 8) (size 9 to 14) (size 15 to 20)
#    0.000    1.167    5.000    2.000    4.667    1.667 
#    6.000    0.000    7.333    0.000    0.000    0.000 
#    0.000    0.000    0.000    0.000    0.000    0.000 
#
# Total GULP energy -133724.849951 kJ/mol
# GULP energy per Si atom -5571.868748 kJ/mol
# Density = 0.985406 g / cm^3
# Si number density = 9.876543 Si / 1000 Ang^3
#
#
#
# Elastic Constant Matrix: (Units=GPa)
#
#
# Indices 1 2 3 4 5 6 
#
# 1 110.4768 58.1286 39.4970 0.0000 0.0000 0.0000
# 2 58.1286 91.4864 13.3182 0.0000 0.0000 0.0000
# 3 39.4970 13.3182 92.1042 0.0000 0.0000 0.0000
# 4 0.0000 0.0000 0.0000 27.5397 0.0000 0.0000
# 5 0.0000 0.0000 0.0000 0.0000 49.0560 0.0000
# 6 0.0000 0.0000 0.0000 0.0000 0.0000 45.1131
#
#
#
# Elastic Compliance Matrix: (Units=1/GPa)
#
#
# Indices 1 2 3 4 5 6 
#
# 1 0.015908 -0.009311 -0.005476 0.000000 0.000000 0.000000
# 2 -0.009311 0.016615 0.001590 0.000000 0.000000 0.000000
# 3 -0.005476 0.001590 0.012975 0.000000 0.000000 0.000000
# 4 0.000000 0.000000 0.000000 0.036311 0.000000 0.000000
# 5 0.000000 0.000000 0.000000 0.000000 0.020385 0.000000
# 6 0.000000 0.000000 0.000000 0.000000 0.000000 0.022167
#
#
# Mechanical properties :
#
#
# Convention : Reuss Voigt Hill
#
# Bulk Modulus (GPa) = 52.33846 57.32832 54.83339
# Shear Modulus (GPa) = 31.82244 36.55001 34.18623
#
# Velocity S-wave (km/s) = 4.01809 4.30623 4.16465
# Velocity P-wave (km/s) = 6.93402 7.33555 7.13761
#
# Compressibility (1/GPa) = 0.01910641
#
# Stress axis : x y z
#
# Youngs Moduli (GPa) = 62.86087 60.18707 77.06880
#
# Poissons Ratio (x) = 0.56038 0.42200
# Poissons Ratio (y) = 0.58527 -0.12255
# Poissons Ratio (z) = 0.34420 -0.09571
#
# Static dielectric constant tensor:
#      x y z
#    x 1.682010 0.000000 0.000000 
#    y 0.000000 1.729070 0.000000 
#    z 0.000000 0.000000 1.801620 
# 
# From -- ./inp_files/19996.got.cif
#   From: 2010.05.17/outbox.ucp.g08.bks.cvg/sg23_10_cif.got.tgz:19996.got - 2010.06.11 15:19:07.
