data_PCOD9332992
_publ_section_title
;
Structure prediction by ZEFSAII (Michael W. Deem and Ramdas Pophale) SiO2 
 PCOD9332992
Probable space group: I 21 21 21
;
_chemical_formula_sum "Si O2"
_cell_formula_units_Z 64
_cell_length_a 23.927294
_cell_length_b 8.620466
_cell_length_c 19.687609
_cell_angle_alpha 90.000000
_cell_angle_beta 90.000000
_cell_angle_gamma 90.000000
_cell_volume 4060.853338
_symmetry_space_group_name_H-M "I 21 21 21"
_symmetry_group_IT_number 24
_symmetry_cell_setting 'orthorhombic'
loop_
_space_group_symop_operation_xyz
x,y,z
-x,1/2-y,z
x,-y,1/2-z
1/2-x,y,-z
1/2+x,1/2+y,1/2+z
1/2-x,-y,1/2+z
1/2+x,1/2-y,-z
-x,1/2+y,1/2-z
loop_
_atom_site_type_symbol
_atom_site_label
_atom_site_fract_x
_atom_site_fract_y
_atom_site_fract_z
Si Si1 0.333249 0.685506 0.023013
Si Si2 0.113954 0.813475 0.750000
Si Si3 0.333249 0.314494 0.023013
Si Si4 0.561321 0.185698 0.111428
Si Si5 0.938679 0.814302 0.888572
Si Si6 0.725822 0.686053 0.601700
Si Si7 0.755862 0.688683 0.750000
Si Si8 0.274178 0.813947 0.898300
O O1 0.326322 0.500000 0.026921
O O2 0.393149 0.727497 0.054018
O O3 0.285055 0.763553 0.068936
O O4 0.321057 0.740717 0.946630
O O5 0.083709 0.751871 0.682800
O O6 0.083709 0.751871 0.817200
O O7 0.179021 0.762713 0.750000
O O8 0.112497 0.000000 0.750000
O O9 0.393149 0.272503 0.054017
O O10 0.285055 0.236447 0.068936
O O11 0.321057 0.259283 0.946630
O O12 0.500000 0.250000 0.097123
O O13 0.559086 1.000000 0.116371
O O14 0.000000 0.750000 0.902877
O O15 0.726829 0.737666 0.680011
O O16 0.721764 0.500000 0.598697
O O17 0.756367 0.500000 0.750000
O O18 0.726829 0.737666 0.819989
#
# Coordination Sequence:
#
# PCOD9332992 Si02
#       8
#     8   8   8   8   8   8   8   8
#     4  10  20  33  47  70  98 125 160 203 244 285
#     4  11  20  34  51  69 100 133 169 205 236 282
#     4  10  20  33  47  70  98 125 160 203 244 285
#     4  11  23  36  50  69  97 132 171 206 243 287
#     4  11  23  36  50  69  97 132 171 206 243 287
#     4  10  18  31  51  72  96 127 161 196 239 289
#     4   9  18  30  48  75 100 127 162 197 233 286
#     4  10  18  31  51  72  96 127 161 196 239 289
#
# _framework density 15.760234000000001
#
# number of rings (size 3 to 8) (size 9 to 14) (size 15 to 20)
#    0.000    1.750    2.500    4.500    0.000    3.000 
#    0.000    2.500    0.000    0.000    0.000    0.875 
#    0.000    0.000    0.000    0.000    0.000    0.000 
#
# Total GULP energy -178612.055940 kJ/mol
# GULP energy per Si atom -5581.626748 kJ/mol
# Density = 1.572436 g / cm^3
# Si number density = 15.760234 Si / 1000 Ang^3
#
#
#
# Elastic Constant Matrix: (Units=GPa)
#
#
# Indices 1 2 3 4 5 6 
#
# 1 111.5292 34.7996 75.5224 0.0000 0.0000 0.0000
# 2 34.7996 46.0561 27.7049 0.0000 0.0000 0.0000
# 3 75.5224 27.7049 137.3517 0.0000 0.0000 0.0000
# 4 0.0000 0.0000 0.0000 6.6366 0.0000 0.0000
# 5 0.0000 0.0000 0.0000 0.0000 13.8182 0.0000
# 6 0.0000 0.0000 0.0000 0.0000 0.0000 23.5083
#
#
#
# Elastic Compliance Matrix: (Units=1/GPa)
#
#
# Indices 1 2 3 4 5 6 
#
# 1 0.016517 -0.007986 -0.007471 0.000000 0.000000 0.000000
# 2 -0.007986 0.028572 -0.001372 0.000000 0.000000 0.000000
# 3 -0.007471 -0.001372 0.011665 0.000000 0.000000 0.000000
# 4 0.000000 0.000000 0.000000 0.150680 0.000000 0.000000
# 5 0.000000 0.000000 0.000000 0.000000 0.072368 0.000000
# 6 0.000000 0.000000 0.000000 0.000000 0.000000 0.042538
#
#
# Mechanical properties :
#
#
# Convention : Reuss Voigt Hill
#
# Bulk Modulus (GPa) = 43.29714 63.44341 53.37027
# Shear Modulus (GPa) = 13.74767 19.25329 16.50048
#
# Velocity S-wave (km/s) = 2.95668 3.49898 3.23920
# Velocity P-wave (km/s) = 6.26003 7.52772 6.92295
#
# Compressibility (1/GPa) = 0.02309622
#
# Stress axis : x y z
#
# Youngs Moduli (GPa) = 60.54333 34.99900 85.72448
#
# Poissons Ratio (x) = 0.27950 0.64045
# Poissons Ratio (y) = 0.48350 0.11763
# Poissons Ratio (z) = 0.45232 0.04802
#
# Static dielectric constant tensor:
#      x y z
#    x 1.506090 0.000000 0.000000 
#    y 0.000000 1.532340 0.000000 
#    z 0.000000 0.000000 1.533980 
# 
# From -- ./inp_files/31586.got.cif
#   From: 2010.05.17/outbox.cif.g08.bks.cpg/sg24_16_cif.got.tgz:31586.got - 2010.06.04 00:33:39.
