data_PCOD9332108
_publ_section_title
;
Structure prediction by ZEFSAII (Michael W. Deem and Ramdas Pophale) SiO2 
 PCOD9332108
Probable space group: I 2 2 2
;
_chemical_formula_sum "Si O2"
_cell_formula_units_Z 64
_cell_length_a 27.406847
_cell_length_b 14.786534
_cell_length_c 8.822019
_cell_angle_alpha 90.000000
_cell_angle_beta 90.000000
_cell_angle_gamma 90.000000
_cell_volume 3575.143270
_symmetry_space_group_name_H-M "I 2 2 2"
_symmetry_group_IT_number 23
_symmetry_cell_setting 'orthorhombic'
loop_
_space_group_symop_operation_xyz
x,y,z
-x,-y,z
x,-y,-z
-x,y,-z
1/2+x,1/2+y,1/2+z
1/2-x,1/2-y,1/2+z
1/2+x,1/2-y,1/2-z
1/2-x,1/2+y,1/2-z
loop_
_atom_site_type_symbol
_atom_site_label
_atom_site_fract_x
_atom_site_fract_y
_atom_site_fract_z
Si Si1 0.200113 0.912644 0.561050
Si Si2 0.944445 0.337953 0.017620
Si Si3 0.178517 0.272110 0.579440
Si Si4 0.147402 0.425731 0.401131
Si Si5 0.848203 0.764442 0.925954
Si Si6 0.444677 0.004012 0.737409
Si Si7 0.724016 0.402319 0.416945
Si Si8 0.695777 0.089692 0.419091
O O1 0.179254 0.814142 0.529730
O O2 0.215321 0.918521 0.736882
O O3 0.246835 0.913439 0.447406
O O4 0.170721 0.000000 0.500000
O O5 0.904693 0.258403 0.032996
O O6 0.937279 0.406828 0.158317
O O7 0.940159 0.411581 0.880946
O O8 0.000000 0.304048 0.000000
O O9 0.139697 0.340098 0.506340
O O10 0.164246 0.239566 0.747184
O O11 0.229267 0.331751 0.574669
O O12 0.174639 0.500000 0.500000
O O13 0.098271 0.473082 0.348980
O O14 0.179241 0.404611 0.253240
O O15 0.821702 0.848854 0.006389
O O16 0.822510 0.676048 0.993632
O O17 0.500000 0.000000 0.796078
O O18 0.726866 0.500000 0.500000
O O19 0.674678 0.000000 0.500000
#
# Coordination Sequence:
#
# PCOD9332108 Si02
#       8
#     8   8   8   8   8   8   8   8
#     4  11  25  40  57  83 118 157 195 250 297 350
#     4   9  18  34  59  86 115 154 202 248 298 356
#     4  12  24  38  56  88 120 159 203 244 295 365
#     4  12  24  33  52  83 118 160 203 242 291 353
#     4  12  22  39  61  84 117 156 204 249 300 354
#     4   9  18  34  55  84 120 159 197 245 300 350
#     4  12  25  40  59  85 118 158 204 248 295 356
#     4  11  21  34  55  79 111 155 200 239 293 344
#
# _framework density 17.901382000000002
#
# number of rings (size 3 to 8) (size 9 to 14) (size 15 to 20)
#    0.000    1.000    3.750    4.875    7.000    0.250 
#    0.000    0.000    0.000    0.375    0.000    0.000 
#    0.000    0.000    0.000    0.000    0.000    0.000 
#
# Total GULP energy -178409.023969 kJ/mol
# GULP energy per Si atom -5575.281999 kJ/mol
# Density = 1.786064 g / cm^3
# Si number density = 17.901382 Si / 1000 Ang^3
#
#
#
# Elastic Constant Matrix: (Units=GPa)
#
#
# Indices 1 2 3 4 5 6 
#
# 1 101.4962 32.9245 18.5040 0.0000 0.0000 0.0000
# 2 32.9245 106.8820 26.6111 0.0000 0.0000 0.0000
# 3 18.5040 26.6111 99.2573 0.0000 0.0000 0.0000
# 4 0.0000 0.0000 0.0000 32.1690 0.0000 0.0000
# 5 0.0000 0.0000 0.0000 0.0000 34.3679 0.0000
# 6 0.0000 0.0000 0.0000 0.0000 0.0000 14.2818
#
#
#
# Elastic Compliance Matrix: (Units=1/GPa)
#
#
# Indices 1 2 3 4 5 6 
#
# 1 0.011086 -0.003108 -0.001233 0.000000 0.000000 0.000000
# 2 -0.003108 0.010897 -0.002342 0.000000 0.000000 0.000000
# 3 -0.001233 -0.002342 0.010933 0.000000 0.000000 0.000000
# 4 0.000000 0.000000 0.000000 0.031086 0.000000 0.000000
# 5 0.000000 0.000000 0.000000 0.000000 0.029097 0.000000
# 6 0.000000 0.000000 0.000000 0.000000 0.000000 0.070019
#
#
# Mechanical properties :
#
#
# Convention : Reuss Voigt Hill
#
# Bulk Modulus (GPa) = 51.15516 51.52385 51.33951
# Shear Modulus (GPa) = 27.32251 31.47012 29.39632
#
# Velocity S-wave (km/s) = 3.91100 4.19737 4.05671
# Velocity P-wave (km/s) = 7.00234 7.23430 7.11926
#
# Compressibility (1/GPa) = 0.01954837
#
# Stress axis : x y z
#
# Youngs Moduli (GPa) = 90.20720 91.77213 91.46893
#
# Poissons Ratio (x) = 0.28521 0.11282
# Poissons Ratio (y) = 0.28034 0.21422
# Poissons Ratio (z) = 0.11126 0.21493
#
# Static dielectric constant tensor:
#      x y z
#    x 1.688130 0.000000 0.000000 
#    y 0.000000 1.688310 0.000000 
#    z 0.000000 0.000000 1.540150 
# 
# From -- ./inp_files/13528.got.cif
#   From: 2010.05.17/outbox.cif.g08.bks.cpg/sg23_7_cif.got.tgz:13528.got - 2010.06.04 12:02:01.
