data_PCOD9333576
_publ_section_title
;
Structure prediction by ZEFSAII (Michael W. Deem and Ramdas Pophale) SiO2 
 PCOD9333576
Probable space group: I 21 21 21
;
_chemical_formula_sum "Si O2"
_cell_formula_units_Z 48
_cell_length_a 23.420806
_cell_length_b 5.719081
_cell_length_c 13.601065
_cell_angle_alpha 90.000000
_cell_angle_beta 90.000000
_cell_angle_gamma 90.000000
_cell_volume 1821.801270
_symmetry_space_group_name_H-M "I 21 21 21"
_symmetry_group_IT_number 24
_symmetry_cell_setting 'orthorhombic'
loop_
_space_group_symop_operation_xyz
x,y,z
-x,1/2-y,z
x,-y,1/2-z
1/2-x,y,-z
1/2+x,1/2+y,1/2+z
1/2-x,-y,1/2+z
1/2+x,1/2-y,-z
-x,1/2+y,1/2-z
loop_
_atom_site_type_symbol
_atom_site_label
_atom_site_fract_x
_atom_site_fract_y
_atom_site_fract_z
Si Si1 0.882010 0.363937 0.401228
Si Si2 0.000000 0.250000 0.486176
Si Si3 0.875395 0.143047 0.113388
Si Si4 0.544818 0.926382 0.355203
Si Si5 0.330311 0.652952 0.387595
Si Si6 0.299609 0.849825 0.079840
Si Si7 0.000000 0.250000 0.188085
O O1 0.950140 0.361752 0.420049
O O2 0.858711 0.598677 0.350716
O O3 0.855305 0.367512 0.510611
O O4 0.865173 0.120280 0.349289
O O5 0.041827 0.376294 0.564297
O O6 0.944222 0.173344 0.124441
O O7 0.846583 0.137619 0.004549
O O8 0.500000 0.750000 0.399508
O O9 0.607562 0.827292 0.338607
O O10 0.521409 0.000000 0.250000
O O11 0.303409 0.398214 0.363203
O O12 0.296442 0.894203 0.369651
O O13 0.250000 0.828151 0.000000
O O14 0.991361 0.500000 0.250000
#
# Coordination Sequence:
#
# PCOD9333576 Si02
#       7
#     8   4   8   8   8   8   4
#     4  10  20  32  58  83 110 151 187 233 296 339
#     4  12  20  35  49  80 124 160 194 242 280 357
#     4  10  19  35  53  74 109 144 186 225 281 353
#     4  12  24  35  53  84 130 176 208 242 293 365
#     4  10  22  37  58  88 116 157 200 247 303 349
#     4  10  19  36  59  88 114 140 196 264 308 334
#     4  12  24  35  49  80 114 146 186 228 288 351
#
# _framework density 26.347549999999998
#
# number of rings (size 3 to 8) (size 9 to 14) (size 15 to 20)
#    0.000    1.333    4.167    4.500    1.167    0.000 
#    0.000    0.000    0.000    0.000    0.000   46.667 
#    0.000    0.000    0.000    0.000    0.000    0.000 
#
# Total GULP energy -133737.585229 kJ/mol
# GULP energy per Si atom -5572.399385 kJ/mol
# Density = 2.628758 g / cm^3
# Si number density = 26.347550 Si / 1000 Ang^3
#
#
#
# Elastic Constant Matrix: (Units=GPa)
#
#
# Indices 1 2 3 4 5 6 
#
# 1 62.0221 8.1560 -18.1610 0.0000 0.0000 0.0000
# 2 8.1560 284.0420 26.7603 0.0000 0.0000 0.0000
# 3 -18.1610 26.7603 74.2981 0.0000 0.0000 0.0000
# 4 0.0000 0.0000 0.0000 25.3560 0.0000 0.0000
# 5 0.0000 0.0000 0.0000 0.0000 -19.5195 0.0000
# 6 0.0000 0.0000 0.0000 0.0000 0.0000 16.1609
#
#
#
# Elastic Compliance Matrix: (Units=1/GPa)
#
#
# Indices 1 2 3 4 5 6 
#
# 1 0.017607 -0.000943 0.004643 0.000000 0.000000 0.000000
# 2 -0.000943 0.003695 -0.001561 0.000000 0.000000 0.000000
# 3 0.004643 -0.001561 0.015157 0.000000 0.000000 0.000000
# 4 0.000000 0.000000 0.000000 0.039438 0.000000 0.000000
# 5 0.000000 0.000000 0.000000 0.000000 -0.051231 0.000000
# 6 0.000000 0.000000 0.000000 0.000000 0.000000 0.061878
#
#
# Mechanical properties :
#
#
# Convention : Reuss Voigt Hill
#
# Bulk Modulus (GPa) = 24.54797 50.43029 37.48913
# Shear Modulus (GPa) = 52.16789 31.30660 41.73724
#
# Velocity S-wave (km/s) = 4.45454 3.45079 3.98440
# Velocity P-wave (km/s) = 5.98284 5.92109 5.95204
#
# Compressibility (1/GPa) = 0.04073657
#
# Stress axis : x y z
#
# Youngs Moduli (GPa) = 56.79575 270.65237 65.97767
#
# Poissons Ratio (x) = 0.25523 -0.30636
# Poissons Ratio (y) = 0.05356 0.10301
# Poissons Ratio (z) = -0.26373 0.42256
#
# Static dielectric constant tensor:
#      x y z
#    x 2.321520 0.000000 0.000000 
#    y 0.000000 2.423680 0.000000 
#    z 0.000000 0.000000 2.053780 
# 
# From -- ./inp_files/31531.got.cif
#   From: 2010.05.17/outbox.cif.g08.bks.cpg/sg24_16_cif.got.tgz:31531.got - 2010.06.04 00:33:39.
