data_PCOD9333756
_publ_section_title
;
Structure prediction by ZEFSAII (Michael W. Deem and Ramdas Pophale) SiO2 
 PCOD9333756
Probable space group: I 21 21 21
;
_chemical_formula_sum "Si O2"
_cell_formula_units_Z 48
_cell_length_a 19.101594
_cell_length_b 15.518700
_cell_length_c 7.519431
_cell_angle_alpha 90.000000
_cell_angle_beta 90.000000
_cell_angle_gamma 90.000000
_cell_volume 2228.999269
_symmetry_space_group_name_H-M "I 21 21 21"
_symmetry_group_IT_number 24
_symmetry_cell_setting 'orthorhombic'
loop_
_space_group_symop_operation_xyz
x,y,z
-x,1/2-y,z
x,-y,1/2-z
1/2-x,y,-z
1/2+x,1/2+y,1/2+z
1/2-x,-y,1/2+z
1/2+x,1/2-y,-z
-x,1/2+y,1/2-z
loop_
_atom_site_type_symbol
_atom_site_label
_atom_site_fract_x
_atom_site_fract_y
_atom_site_fract_z
Si Si1 0.737133 0.594183 0.714427
Si Si2 0.198452 0.277641 0.169658
Si Si3 0.682578 0.065784 0.598006
Si Si4 0.046820 0.591263 0.855452
Si Si5 0.107003 0.100089 0.699465
Si Si6 0.574232 0.763678 0.437603
O O1 0.705643 0.500000 0.750000
O O2 0.750000 0.593465 0.500000
O O3 0.694469 0.681149 0.745801
O O4 0.808834 0.605378 0.830382
O O5 0.214913 0.347804 0.315651
O O6 0.250000 0.278554 0.000000
O O7 0.125479 0.300850 0.081999
O O8 0.750000 0.024568 0.500000
O O9 0.612507 0.086417 0.488210
O O10 0.661113 0.000000 0.750000
O O11 0.046609 0.500000 0.750000
O O12 0.064698 0.668855 0.721235
O O13 0.965410 0.610220 0.915364
O O14 0.098495 0.172502 0.853834
O O15 0.102125 0.000000 0.750000
O O16 0.500000 0.750000 0.525450
#
# Coordination Sequence:
#
# PCOD9333756 Si02
#       6
#     8   8   8   8   8   8
#     4  10  20  37  64  94 122 158 207 253 310 371
#     4  11  21  39  64  89 126 165 208 258 320 373
#     4  12  25  40  62  94 127 164 211 271 322 375
#     4  10  21  39  64  91 122 165 213 256 317 382
#     4   9  18  36  65  91 115 162 207 247 303 378
#     4  10  19  37  65  90 122 166 210 253 312 384
#
# _framework density 21.534327000000001
#
# number of rings (size 3 to 8) (size 9 to 14) (size 15 to 20)
#    0.000    1.667    3.333    3.000    0.000    0.667 
#    3.000    2.500    3.667    0.000    0.000    0.000 
#    0.000    0.000    0.000    0.000    0.000    0.000 
#
# Total GULP energy -133647.811897 kJ/mol
# GULP energy per Si atom -5568.658829 kJ/mol
# Density = 2.148531 g / cm^3
# Si number density = 21.534327 Si / 1000 Ang^3
#
#
#
# Elastic Constant Matrix: (Units=GPa)
#
#
# Indices 1 2 3 4 5 6 
#
# 1 109.7971 -18.6634 29.5964 0.0000 0.0000 0.0000
# 2 -18.6634 95.5049 8.4096 0.0000 0.0000 0.0000
# 3 29.5964 8.4096 44.0510 0.0000 0.0000 0.0000
# 4 0.0000 0.0000 0.0000 27.5817 0.0000 0.0000
# 5 0.0000 0.0000 0.0000 0.0000 29.0854 0.0000
# 6 0.0000 0.0000 0.0000 0.0000 0.0000 17.9665
#
#
#
# Elastic Compliance Matrix: (Units=1/GPa)
#
#
# Indices 1 2 3 4 5 6 
#
# 1 0.011959 0.003097 -0.008626 0.000000 0.000000 0.000000
# 2 0.003097 0.011452 -0.004267 0.000000 0.000000 0.000000
# 3 -0.008626 -0.004267 0.029311 0.000000 0.000000 0.000000
# 4 0.000000 0.000000 0.000000 0.036256 0.000000 0.000000
# 5 0.000000 0.000000 0.000000 0.000000 0.034381 0.000000
# 6 0.000000 0.000000 0.000000 0.000000 0.000000 0.055659
#
#
# Mechanical properties :
#
#
# Convention : Reuss Voigt Hill
#
# Bulk Modulus (GPa) = 30.18466 32.00425 31.09445
# Shear Modulus (GPa) = 23.84878 30.26076 27.05477
#
# Velocity S-wave (km/s) = 3.33149 3.75271 3.54836
# Velocity P-wave (km/s) = 5.37083 5.80270 5.59094
#
# Compressibility (1/GPa) = 0.03312941
#
# Stress axis : x y z
#
# Youngs Moduli (GPa) = 83.61664 87.32470 34.11668
#
# Poissons Ratio (x) = -0.27041 0.29430
# Poissons Ratio (y) = -0.25893 0.14557
# Poissons Ratio (z) = 0.72130 0.37259
#
# Static dielectric constant tensor:
#      x y z
#    x 1.813520 0.000000 0.000000 
#    y 0.000000 1.774460 0.000000 
#    z 0.000000 0.000000 1.837670 
# 
# From -- ./inp_files/14174.got.cif
#   From: 2010.05.17/outbox.cif.g08.bks.cpg/sg24_8_cif.got.tgz:14174.got - 2010.06.04 00:33:39.
