data_PCOD9333337
_publ_section_title
;
Structure prediction by ZEFSAII (Michael W. Deem and Ramdas Pophale) SiO2 
 PCOD9333337
Probable space group: I 21 21 21
;
_chemical_formula_sum "Si O2"
_cell_formula_units_Z 64
_cell_length_a 5.575985
_cell_length_b 21.037912
_cell_length_c 23.721049
_cell_angle_alpha 90.000000
_cell_angle_beta 90.000000
_cell_angle_gamma 90.000000
_cell_volume 2782.647034
_symmetry_space_group_name_H-M "I 21 21 21"
_symmetry_group_IT_number 24
_symmetry_cell_setting 'orthorhombic'
loop_
_space_group_symop_operation_xyz
x,y,z
-x,1/2-y,z
x,-y,1/2-z
1/2-x,y,-z
1/2+x,1/2+y,1/2+z
1/2-x,-y,1/2+z
1/2+x,1/2-y,-z
-x,1/2+y,1/2-z
loop_
_atom_site_type_symbol
_atom_site_label
_atom_site_fract_x
_atom_site_fract_y
_atom_site_fract_z
Si Si1 0.837012 0.163484 0.436486
Si Si2 0.639437 0.010242 0.576967
Si Si3 0.819148 0.050022 0.201689
Si Si4 0.677458 0.411907 0.175079
Si Si5 0.251323 0.785817 0.779563
Si Si6 0.138335 0.007381 0.580014
Si Si7 0.838573 0.654863 0.889827
Si Si8 0.249258 0.215673 0.143603
O O1 0.750000 0.175889 0.500000
O O2 0.605726 0.183005 0.399270
O O3 0.108372 0.185756 0.421860
O O4 0.859358 0.086730 0.427713
O O5 0.650632 0.985944 0.641851
O O6 0.387745 0.987786 0.553780
O O7 0.890137 0.987272 0.553087
O O8 0.590888 0.098030 0.200111
O O9 0.080605 0.081290 0.211682
O O10 0.766643 0.000000 0.250000
O O11 0.644410 0.478477 0.142916
O O12 0.732082 0.358382 0.127926
O O13 0.500000 0.750000 0.793981
O O14 0.230749 0.843475 0.823909
O O15 0.257739 0.792960 0.711959
O O16 0.000000 0.750000 0.789018
O O17 0.139819 0.083496 0.586231
O O18 0.500000 0.250000 0.128896
O O19 0.000000 0.250000 0.127080
#
# Coordination Sequence:
#
# PCOD9333337 Si02
#       8
#     8   8   8   8   8   8   8   8
#     4  10  19  31  49  71  94 121 152 188 239 295
#     4   8  16  28  41  62  93 119 144 174 214 274
#     4  10  19  29  44  69  97 122 153 187 234 289
#     4  10  19  31  46  65  94 123 153 192 235 273
#     4  10  21  36  52  67  86 119 159 198 243 288
#     4   8  16  29  45  68  89 114 143 177 233 278
#     4  10  19  33  52  70  92 115 151 195 234 288
#     4  10  21  35  49  68  93 127 170 205 236 281
#
# _framework density 22.999683000000001
#
# number of rings (size 3 to 8) (size 9 to 14) (size 15 to 20)
#    0.000    2.500    0.000    2.250    0.000    6.000 
#    0.000    0.000    0.000    7.500    0.000    0.000 
#    0.000    0.000    0.000    0.000    0.000 1012.500 
#
# Total GULP energy -178242.620496 kJ/mol
# GULP energy per Si atom -5570.081890 kJ/mol
# Density = 2.294734 g / cm^3
# Si number density = 22.999683 Si / 1000 Ang^3
#
#
#
# Elastic Constant Matrix: (Units=GPa)
#
#
# Indices 1 2 3 4 5 6 
#
# 1 257.7032 21.0494 16.6985 0.0000 0.0000 0.0000
# 2 21.0494 42.5873 -12.3869 0.0000 0.0000 0.0000
# 3 16.6985 -12.3869 48.5989 0.0000 0.0000 0.0000
# 4 0.0000 0.0000 0.0000 13.7501 0.0000 0.0000
# 5 0.0000 0.0000 0.0000 0.0000 13.1639 0.0000
# 6 0.0000 0.0000 0.0000 0.0000 0.0000 25.8097
#
#
#
# Elastic Compliance Matrix: (Units=1/GPa)
#
#
# Indices 1 2 3 4 5 6 
#
# 1 0.004242 -0.002723 -0.002152 0.000000 0.000000 0.000000
# 2 -0.002723 0.027109 0.007845 0.000000 0.000000 0.000000
# 3 -0.002152 0.007845 0.023315 0.000000 0.000000 0.000000
# 4 0.000000 0.000000 0.000000 0.072727 0.000000 0.000000
# 5 0.000000 0.000000 0.000000 0.000000 0.075966 0.000000
# 6 0.000000 0.000000 0.000000 0.000000 0.000000 0.038745
#
#
# Mechanical properties :
#
#
# Convention : Reuss Voigt Hill
#
# Bulk Modulus (GPa) = 16.49953 44.40128 30.45040
# Shear Modulus (GPa) = 19.50346 32.11328 25.80837
#
# Velocity S-wave (km/s) = 2.91518 3.74069 3.35344
# Velocity P-wave (km/s) = 4.30354 6.16475 5.31623
#
# Compressibility (1/GPa) = 0.06060781
#
# Stress axis : x y z
#
# Youngs Moduli (GPa) = 235.72503 36.88860 42.89015
#
# Poissons Ratio (x) = 0.10043 0.09228
# Poissons Ratio (y) = 0.64178 -0.33647
# Poissons Ratio (z) = 0.50718 -0.28939
#
# Static dielectric constant tensor:
#      x y z
#    x 2.028520 0.000000 0.000000 
#    y 0.000000 1.955960 0.000000 
#    z 0.000000 0.000000 1.661710 
# 
# From -- ./inp_files/5916.got.cif
#   From: 2010.05.17/outbox.cif.g08.bks.cpg/sg24_3_cif.got.tgz:5916.got - 2010.06.04 00:33:39.
