data_PCOD9333467
_publ_section_title
;
Structure prediction by ZEFSAII (Michael W. Deem and Ramdas Pophale) SiO2 
 PCOD9333467
Probable space group: I 21 21 21
;
_chemical_formula_sum "Si O2"
_cell_formula_units_Z 64
_cell_length_a 14.533567
_cell_length_b 7.469892
_cell_length_c 24.455870
_cell_angle_alpha 90.000000
_cell_angle_beta 90.000000
_cell_angle_gamma 90.000000
_cell_volume 2655.031372
_symmetry_space_group_name_H-M "I 21 21 21"
_symmetry_group_IT_number 24
_symmetry_cell_setting 'orthorhombic'
loop_
_space_group_symop_operation_xyz
x,y,z
-x,1/2-y,z
x,-y,1/2-z
1/2-x,y,-z
1/2+x,1/2+y,1/2+z
1/2-x,-y,1/2+z
1/2+x,1/2-y,-z
-x,1/2+y,1/2-z
loop_
_atom_site_type_symbol
_atom_site_label
_atom_site_fract_x
_atom_site_fract_y
_atom_site_fract_z
Si Si1 0.853794 0.442570 0.497735
Si Si2 0.644945 0.993524 0.001594
Si Si3 0.394422 0.693330 0.275742
Si Si4 0.583832 0.997628 0.377907
Si Si5 0.619262 0.579202 0.121489
Si Si6 0.996480 0.968968 0.087533
Si Si7 0.236763 0.880441 0.204699
Si Si8 0.579254 0.112155 0.698127
O O1 0.750000 0.505256 0.500000
O O2 0.854775 0.224470 0.496636
O O3 0.889533 0.478966 0.558619
O O4 0.910757 0.512938 0.445991
O O5 0.583514 0.047264 0.950534
O O6 0.750000 0.053142 0.000000
O O7 0.598270 0.046978 0.058653
O O8 0.500000 0.750000 0.267278
O O9 0.385327 0.500000 0.250000
O O10 0.372618 0.652374 0.339319
O O11 0.320776 0.808041 0.242404
O O12 0.620670 0.202411 0.374530
O O13 0.478800 0.014331 0.356239
O O14 0.710639 0.526520 0.154134
O O15 0.966848 0.004853 0.149684
O O16 0.000000 0.750000 0.087611
O O17 0.167854 0.730857 0.180988
O O18 0.183829 0.000000 0.250000
O O19 0.500000 0.250000 0.715141
O O20 0.609618 0.000000 0.750000
#
# Coordination Sequence:
#
# PCOD9333467 Si02
#       8
#     8   8   8   8   8   8   8   8
#     4   9  17  29  53  88 121 155 197 269 334 374
#     4   9  17  27  49  82 119 153 202 264 330 376
#     4  12  23  38  60  89 132 176 223 267 334 402
#     4  10  19  33  53  85 126 168 208 264 330 397
#     4  10  19  33  56  87 131 164 207 269 328 389
#     4   9  18  34  55  88 127 156 208 272 326 382
#     4  12  26  42  62  95 135 179 226 279 328 395
#     4  11  26  45  69  95 132 176 228 278 330 391
#
# _framework density 24.105177999999999
#
# number of rings (size 3 to 8) (size 9 to 14) (size 15 to 20)
#    0.000    1.750    2.500    2.625    8.750    0.000 
#    0.000    0.000    0.000    0.750    0.000    8.750 
#    0.000    0.000    0.000    0.000    0.000    0.000 
#
# Total GULP energy -178685.967427 kJ/mol
# GULP energy per Si atom -5583.936482 kJ/mol
# Density = 2.405031 g / cm^3
# Si number density = 24.105178 Si / 1000 Ang^3
#
#
#
# Elastic Constant Matrix: (Units=GPa)
#
#
# Indices 1 2 3 4 5 6 
#
# 1 124.8011 8.8177 39.8965 0.0000 0.0000 0.0000
# 2 8.8177 60.4214 14.6290 0.0000 0.0000 0.0000
# 3 39.8965 14.6290 125.9473 0.0000 0.0000 0.0000
# 4 0.0000 0.0000 0.0000 5.8122 0.0000 0.0000
# 5 0.0000 0.0000 0.0000 0.0000 17.7217 0.0000
# 6 0.0000 0.0000 0.0000 0.0000 0.0000 8.7374
#
#
#
# Elastic Compliance Matrix: (Units=1/GPa)
#
#
# Indices 1 2 3 4 5 6 
#
# 1 0.008939 -0.000637 -0.002758 0.000000 0.000000 0.000000
# 2 -0.000637 0.017075 -0.001782 0.000000 0.000000 0.000000
# 3 -0.002758 -0.001782 0.009020 0.000000 0.000000 0.000000
# 4 0.000000 0.000000 0.000000 0.172052 0.000000 0.000000
# 5 0.000000 0.000000 0.000000 0.000000 0.056428 0.000000
# 6 0.000000 0.000000 0.000000 0.000000 0.000000 0.114450
#
#
# Mechanical properties :
#
#
# Convention : Reuss Voigt Hill
#
# Bulk Modulus (GPa) = 40.51520 48.65069 44.58295
# Shear Modulus (GPa) = 12.60893 22.97603 17.79248
#
# Velocity S-wave (km/s) = 2.28958 3.09067 2.71978
# Velocity P-wave (km/s) = 4.88198 5.74133 5.32900
#
# Compressibility (1/GPa) = 0.02468209
#
# Stress axis : x y z
#
# Youngs Moduli (GPa) = 111.86497 58.56613 110.86061
#
# Poissons Ratio (x) = 0.03730 0.30573
# Poissons Ratio (y) = 0.07124 0.19750
# Poissons Ratio (z) = 0.30850 0.10434
#
# Static dielectric constant tensor:
#      x y z
#    x 1.958260 0.000000 0.000000 
#    y 0.000000 1.981760 0.000000 
#    z 0.000000 0.000000 2.067100 
# 
# From -- ./inp_files/35844.got.cif
#   From: 2010.05.17/outbox.cif.g08.bks.cpg/sg24_18_cif.got.tgz:35844.got - 2010.06.04 00:33:39.
