data_PCOD9333398
_publ_section_title
;
Structure prediction by ZEFSAII (Michael W. Deem and Ramdas Pophale) SiO2 
 PCOD9333398
Probable space group: I 21 21 21
;
_chemical_formula_sum "Si O2"
_cell_formula_units_Z 48
_cell_length_a 5.408521
_cell_length_b 27.058590
_cell_length_c 19.748538
_cell_angle_alpha 90.000000
_cell_angle_beta 90.000000
_cell_angle_gamma 90.000000
_cell_volume 2890.138348
_symmetry_space_group_name_H-M "I 21 21 21"
_symmetry_group_IT_number 24
_symmetry_cell_setting 'orthorhombic'
loop_
_space_group_symop_operation_xyz
x,y,z
-x,1/2-y,z
x,-y,1/2-z
1/2-x,y,-z
1/2+x,1/2+y,1/2+z
1/2-x,-y,1/2+z
1/2+x,1/2-y,-z
-x,1/2+y,1/2-z
loop_
_atom_site_type_symbol
_atom_site_label
_atom_site_fract_x
_atom_site_fract_y
_atom_site_fract_z
Si Si1 0.981696 0.625778 0.668255
Si Si2 0.911784 0.662270 0.437218
Si Si3 0.475097 0.478680 0.673140
Si Si4 0.531664 0.447497 0.289957
Si Si5 0.258995 0.279874 0.847406
Si Si6 0.183317 0.438446 0.070714
O O1 0.180949 0.668204 0.686894
O O2 0.098411 0.587187 0.614266
O O3 0.758203 0.652786 0.629163
O O4 0.920873 0.594548 0.734440
O O5 0.750000 0.679558 0.500000
O O6 0.132063 0.699417 0.418501
O O7 0.018739 0.608189 0.451975
O O8 0.489607 0.500000 0.750000
O O9 0.732801 0.451361 0.661829
O O10 0.445012 0.523962 0.621873
O O11 0.231448 0.444721 0.672947
O O12 0.514851 0.500000 0.250000
O O13 0.500000 0.250000 0.819384
O O14 0.000000 0.250000 0.852078
O O15 0.250000 0.463951 0.000000
#
# Coordination Sequence:
#
# PCOD9333398 Si02
#       6
#     8   8   8   8   8   8
#     4  11  21  37  54  73  97 136 175 226 268 309
#     4  11  22  36  54  71  96 131 181 226 272 313
#     4  10  19  32  49  72 101 129 164 215 255 304
#     4  10  19  32  53  72  97 123 166 215 255 304
#     4  11  24  42  53  71  96 130 175 229 279 326
#     4  11  21  32  51  78 106 136 174 225 271 307
#
# _framework density 16.608201000000001
#
# number of rings (size 3 to 8) (size 9 to 14) (size 15 to 20)
#    0.000    1.333    6.667    2.000    2.333    0.000 
#    3.000    0.000    0.000    0.000    0.000    0.000 
#    0.000    0.000    0.000    0.000    0.000    5.000 
#
# Total GULP energy -133715.719521 kJ/mol
# GULP energy per Si atom -5571.488313 kJ/mol
# Density = 1.657040 g / cm^3
# Si number density = 16.608201 Si / 1000 Ang^3
#
#
#
# Elastic Constant Matrix: (Units=GPa)
#
#
# Indices 1 2 3 4 5 6 
#
# 1 93.2215 11.0229 -3.8448 0.0000 0.0000 0.0000
# 2 11.0229 55.8307 24.8413 0.0000 0.0000 0.0000
# 3 -3.8448 24.8413 29.5591 0.0000 0.0001 0.0000
# 4 0.0000 0.0000 0.0000 3.6119 0.0000 0.0000
# 5 0.0000 0.0000 0.0001 0.0000 -88.5267 0.0000
# 6 0.0000 0.0000 0.0000 0.0000 0.0000 47.8531
#
#
#
# Elastic Compliance Matrix: (Units=1/GPa)
#
#
# Indices 1 2 3 4 5 6 
#
# 1 0.011506 -0.004692 0.005440 0.000000 0.000000 0.000000
# 2 -0.004692 0.030522 -0.026261 0.000000 0.000000 0.000000
# 3 0.005440 -0.026261 0.056608 0.000000 0.000000 0.000000
# 4 0.000000 0.000000 0.000000 0.276861 0.000000 0.000000
# 5 0.000000 0.000000 0.000000 0.000000 -0.011296 0.000000
# 6 0.000000 0.000000 0.000000 0.000000 0.000000 0.020897
#
#
# Mechanical properties :
#
#
# Convention : Reuss Voigt Hill
#
# Bulk Modulus (GPa) = 21.00415 26.96116 23.98266
# Shear Modulus (GPa) = 11.06207 2.36046 6.71127
#
# Velocity S-wave (km/s) = 2.58362 1.19346 2.01239
# Velocity P-wave (km/s) = 4.64483 4.26240 4.45771
#
# Compressibility (1/GPa) = 0.04760964
#
# Stress axis : x y z
#
# Youngs Moduli (GPa) = 86.90878 32.76293 17.66543
#
# Poissons Ratio (x) = 0.15373 -0.09610
# Poissons Ratio (y) = 0.40779 0.46391
# Poissons Ratio (z) = -0.47278 0.86039
#
# Static dielectric constant tensor:
#      x y z
#    x 1.719650 0.000000 0.000000 
#    y 0.000000 1.595350 0.000000 
#    z 0.000000 0.000000 1.527050 
# 
# From -- ./inp_files/4921.got.cif
#   From: 2010.05.17/outbox.cif.g08.bks.cpg/sg24_3_cif.got.tgz:4921.got - 2010.06.04 00:33:39.
