data_PCOD9333281
_publ_section_title
;
Structure prediction by ZEFSAII (Michael W. Deem and Ramdas Pophale) SiO2 
 PCOD9333281
Probable space group: I 21 21 21
;
_chemical_formula_sum "Si O2"
_cell_formula_units_Z 52
_cell_length_a 10.477180
_cell_length_b 9.786897
_cell_length_c 25.775558
_cell_angle_alpha 90.000000
_cell_angle_beta 90.000000
_cell_angle_gamma 90.000000
_cell_volume 2643.002043
_symmetry_space_group_name_H-M "I 21 21 21"
_symmetry_group_IT_number 24
_symmetry_cell_setting 'orthorhombic'
loop_
_space_group_symop_operation_xyz
x,y,z
-x,1/2-y,z
x,-y,1/2-z
1/2-x,y,-z
1/2+x,1/2+y,1/2+z
1/2-x,-y,1/2+z
1/2+x,1/2-y,-z
-x,1/2+y,1/2-z
loop_
_atom_site_type_symbol
_atom_site_label
_atom_site_fract_x
_atom_site_fract_y
_atom_site_fract_z
Si Si1 0.000000 0.750000 0.235483
Si Si2 0.891616 0.865199 0.522446
Si Si3 0.156345 0.942877 0.161850
Si Si4 0.979026 0.914133 0.415733
Si Si5 0.258933 0.782816 0.289108
Si Si6 0.205501 0.441206 0.867880
Si Si7 0.857815 0.226242 0.677576
O O1 0.950922 0.626895 0.198817
O O2 0.878173 0.781167 0.271413
O O3 0.750000 0.818052 0.500000
O O4 0.948832 0.953032 0.475007
O O5 0.866889 0.937471 0.577128
O O6 0.000000 0.750000 0.530759
O O7 0.254991 0.822487 0.149556
O O8 0.227226 0.064102 0.192853
O O9 0.094809 0.009842 0.111425
O O10 0.854003 0.945185 0.382562
O O11 0.000000 0.750000 0.414825
O O12 0.316723 0.697192 0.335976
O O13 0.343434 0.769637 0.237748
O O14 0.173778 0.569168 0.832114
O O15 0.000000 0.250000 0.659084
#
# Coordination Sequence:
#
# PCOD9333281 Si02
#       7
#     4   8   8   8   8   8   8
#     4  10  20  34  56  98 140 158 208 264 324 396
#     4   9  21  39  65  97 129 159 218 285 337 387
#     4  11  22  38  63  95 129 173 217 270 331 395
#     4  10  18  38  67  99 121 149 210 282 329 383
#     4  11  22  37  62  94 123 176 221 262 321 395
#     4  11  22  39  63  91 128 168 208 271 331 381
#     4  11  26  42  56  85 138 177 217 257 320 405
#
# _framework density 19.674598
#
# number of rings (size 3 to 8) (size 9 to 14) (size 15 to 20)
#    0.000    1.538    1.538    5.077    0.000    6.769 
#    0.000    0.000   11.846    0.000    0.000    0.000 
#    0.000    0.000    0.000    0.000    0.000    0.000 
#
# Total GULP energy -145142.260431 kJ/mol
# GULP energy per Si atom -5582.394632 kJ/mol
# Density = 1.962982 g / cm^3
# Si number density = 19.674598 Si / 1000 Ang^3
#
#
#
# Elastic Constant Matrix: (Units=GPa)
#
#
# Indices 1 2 3 4 5 6 
#
# 1 35.1978 -6.2060 3.9525 0.0000 0.0000 0.0000
# 2 -6.2060 81.1997 25.2113 0.0000 0.0000 0.0000
# 3 3.9525 25.2113 92.3619 0.0000 0.0000 0.0000
# 4 0.0000 0.0000 0.0000 11.3432 0.0000 0.0000
# 5 0.0000 0.0000 0.0000 0.0000 173.6076 0.0000
# 6 0.0000 0.0000 0.0000 0.0000 0.0000 27.8063
#
#
#
# Elastic Compliance Matrix: (Units=1/GPa)
#
#
# Indices 1 2 3 4 5 6 
#
# 1 0.029142 0.002857 -0.002027 0.000000 0.000000 0.000000
# 2 0.002857 0.013736 -0.003872 0.000000 0.000000 0.000000
# 3 -0.002027 -0.003872 0.011970 0.000000 0.000000 0.000000
# 4 0.000000 0.000000 0.000000 0.088159 0.000000 0.000000
# 5 0.000000 0.000000 0.000000 0.000000 0.005760 0.000000
# 6 0.000000 0.000000 0.000000 0.000000 0.000000 0.035963
#
#
# Mechanical properties :
#
#
# Convention : Reuss Voigt Hill
#
# Bulk Modulus (GPa) = 20.50661 28.29722 24.40191
# Shear Modulus (GPa) = 24.14658 54.93819 39.54239
#
# Velocity S-wave (km/s) = 3.50708 5.28999 4.48796
# Velocity P-wave (km/s) = 5.18122 7.19207 6.26781
#
# Compressibility (1/GPa) = 0.04876477
#
# Stress axis : x y z
#
# Youngs Moduli (GPa) = 34.31455 72.80296 83.53872
#
# Poissons Ratio (x) = -0.20797 0.16932
# Poissons Ratio (y) = -0.09802 0.32343
# Poissons Ratio (z) = 0.06955 0.28186
#
# Static dielectric constant tensor:
#      x y z
#    x 1.713270 0.000000 0.000000 
#    y 0.000000 1.415570 0.000000 
#    z 0.000000 0.000000 1.707830 
# 
# From -- ./inp_files/37176.got.cif
#   From: 2010.05.17/outbox.cif.g08.bks.cpg/sg24_19_cif.got.tgz:37176.got - 2010.06.04 00:33:39.
