data_PCOD9333790
_publ_section_title
;
Structure prediction by ZEFSAII (Michael W. Deem and Ramdas Pophale) SiO2 
 PCOD9333790
Probable space group: I 21 21 21
;
_chemical_formula_sum "Si O2"
_cell_formula_units_Z 64
_cell_length_a 8.697008
_cell_length_b 10.550236
_cell_length_c 35.339119
_cell_angle_alpha 90.000000
_cell_angle_beta 90.000000
_cell_angle_gamma 90.000000
_cell_volume 3242.558070
_symmetry_space_group_name_H-M "I 21 21 21"
_symmetry_group_IT_number 24
_symmetry_cell_setting 'orthorhombic'
loop_
_space_group_symop_operation_xyz
x,y,z
-x,1/2-y,z
x,-y,1/2-z
1/2-x,y,-z
1/2+x,1/2+y,1/2+z
1/2-x,-y,1/2+z
1/2+x,1/2-y,-z
-x,1/2+y,1/2-z
loop_
_atom_site_type_symbol
_atom_site_label
_atom_site_fract_x
_atom_site_fract_y
_atom_site_fract_z
Si Si1 0.319471 0.978248 0.588286
Si Si2 0.319174 0.768861 0.110641
Si Si3 0.816381 0.255361 0.307956
Si Si4 0.381355 0.871922 0.669267
Si Si5 0.683759 0.993912 0.596419
Si Si6 0.319142 0.762457 0.269780
Si Si7 0.313874 0.262730 0.958233
Si Si8 0.184794 0.472217 0.185184
O O1 0.225350 0.108097 0.586313
O O2 0.502198 0.008870 0.587075
O O3 0.315189 0.908541 0.628942
O O4 0.264459 0.873129 0.558613
O O5 0.500000 0.750000 0.115026
O O6 0.243286 0.800707 0.151509
O O7 0.253910 0.635119 0.095046
O O8 0.752627 0.311358 0.269308
O O9 0.000000 0.250000 0.308068
O O10 0.754479 0.110509 0.306050
O O11 0.500000 0.750000 0.666640
O O12 0.240914 0.852183 0.697020
O O13 0.499021 0.973508 0.686551
O O14 0.734504 0.880744 0.568566
O O15 0.712411 0.949027 0.640086
O O16 0.500000 0.750000 0.266819
O O17 0.249315 0.629064 0.285361
O O18 0.500000 0.250000 0.958091
O O19 0.250000 0.282263 0.000000
#
# Coordination Sequence:
#
# PCOD9333790 Si02
#       8
#     8   8   8   8   8   8   8   8
#     4  10  19  38  63  85 114 153 196 231 274 343
#     4  11  23  37  57  88 119 148 187 239 292 337
#     4  11  21  37  56  73 103 148 195 236 279 338
#     4   9  17  33  56  78 101 141 196 240 278 335
#     4   9  19  39  63  85 113 154 195 232 276 342
#     4  11  22  33  47  75 112 144 181 239 300 339
#     4  10  21  38  64  95 123 151 188 232 279 333
#     4   9  18  35  56  75  98 141 195 235 275 333
#
# _framework density 19.737504000000001
#
# number of rings (size 3 to 8) (size 9 to 14) (size 15 to 20)
#    0.000    2.000    0.000    7.125    0.000    3.000 
#    0.000    7.500    0.000    0.000    0.000    0.000 
#    0.000    0.000    0.000    0.000    0.000    0.000 
#
# Total GULP energy -178447.721124 kJ/mol
# GULP energy per Si atom -5576.491285 kJ/mol
# Density = 1.969258 g / cm^3
# Si number density = 19.737504 Si / 1000 Ang^3
#
#
#
# Elastic Constant Matrix: (Units=GPa)
#
#
# Indices 1 2 3 4 5 6 
#
# 1 72.1238 25.6383 46.6648 0.0000 0.0000 0.0000
# 2 25.6383 93.3172 49.1018 0.0000 0.0000 0.0000
# 3 46.6648 49.1018 86.6565 0.0000 0.0000 0.0000
# 4 0.0000 0.0000 0.0000 8.6437 0.0000 0.0000
# 5 0.0000 0.0000 0.0000 0.0000 26.1812 0.0000
# 6 0.0000 0.0000 0.0000 0.0000 0.0000 14.6573
#
#
#
# Elastic Compliance Matrix: (Units=1/GPa)
#
#
# Indices 1 2 3 4 5 6 
#
# 1 0.021283 0.000261 -0.011609 0.000000 0.000000 0.000000
# 2 0.000261 0.015272 -0.008794 0.000000 0.000000 0.000000
# 3 -0.011609 -0.008794 0.022774 0.000000 0.000000 0.000000
# 4 0.000000 0.000000 0.000000 0.115691 0.000000 0.000000
# 5 0.000000 0.000000 0.000000 0.000000 0.038195 0.000000
# 6 0.000000 0.000000 0.000000 0.000000 0.000000 0.068226
#
#
# Mechanical properties :
#
#
# Convention : Reuss Voigt Hill
#
# Bulk Modulus (GPa) = 52.50623 54.98970 53.74796
# Shear Modulus (GPa) = 15.24052 18.60929 16.92490
#
# Velocity S-wave (km/s) = 2.78179 3.07390 2.93149
# Velocity P-wave (km/s) = 6.08094 6.36549 6.22484
#
# Compressibility (1/GPa) = 0.01904536
#
# Stress axis : x y z
#
# Youngs Moduli (GPa) = 46.98487 65.48112 43.90948
#
# Poissons Ratio (x) = -0.01709 0.50975
# Poissons Ratio (y) = -0.01226 0.38613
# Poissons Ratio (z) = 0.54545 0.57583
#
# Static dielectric constant tensor:
#      x y z
#    x 1.681050 0.000000 0.000000 
#    y 0.000000 1.794790 0.000000 
#    z 0.000000 0.000000 1.681520 
# 
# From -- ./inp_files/38437.got.cif
#   From: 2010.05.17/outbox.cif.g08.bks.cpg/sg24_20_cif.got.tgz:38437.got - 2010.06.04 00:33:39.
