data_PCOD9333726
_publ_section_title
;
Structure prediction by ZEFSAII (Michael W. Deem and Ramdas Pophale) SiO2 
 PCOD9333726
Probable space group: I 21 21 21
;
_chemical_formula_sum "Si O2"
_cell_formula_units_Z 44
_cell_length_a 13.967214
_cell_length_b 15.032289
_cell_length_c 9.802353
_cell_angle_alpha 90.000000
_cell_angle_beta 90.000000
_cell_angle_gamma 90.000000
_cell_volume 2058.094168
_symmetry_space_group_name_H-M "I 21 21 21"
_symmetry_group_IT_number 24
_symmetry_cell_setting 'orthorhombic'
loop_
_space_group_symop_operation_xyz
x,y,z
-x,1/2-y,z
x,-y,1/2-z
1/2-x,y,-z
1/2+x,1/2+y,1/2+z
1/2-x,-y,1/2+z
1/2+x,1/2-y,-z
-x,1/2+y,1/2-z
loop_
_atom_site_type_symbol
_atom_site_label
_atom_site_fract_x
_atom_site_fract_y
_atom_site_fract_z
Si Si1 0.541741 0.411889 0.584260
Si Si2 0.659970 0.830301 0.420570
Si Si3 0.019537 0.354005 0.699709
Si Si4 0.750000 0.524855 0.000000
Si Si5 0.842954 0.369609 0.873973
Si Si6 0.488406 0.880813 0.612232
O O1 0.482616 0.370576 0.459709
O O2 0.654621 0.420640 0.540962
O O3 0.502120 0.512220 0.599998
O O4 0.527839 0.362839 0.728403
O O5 0.750000 0.870007 0.500000
O O6 0.611576 0.878534 0.290189
O O7 0.691453 0.732460 0.362318
O O8 0.575161 0.832244 0.534204
O O9 0.000000 0.250000 0.726311
O O10 0.924686 0.394861 0.766384
O O11 0.726908 0.452721 0.118261
O O12 0.896163 0.363635 0.019685
#
# Coordination Sequence:
#
# PCOD9333726 Si02
#       6
#     8   8   8   4   8   8
#     4  10  21  37  54  84 121 150 192 232 300 355
#     4  10  19  37  58  82 108 154 206 239 272 340
#     4   9  20  36  57  81 117 156 189 242 297 339
#     4  10  20  34  60  92 116 146 180 246 294 352
#     4   9  18  33  56  85 112 143 191 238 291 348
#     4   9  20  35  54  80 115 156 186 230 296 345
#
# _framework density 21.379003000000001
#
# number of rings (size 3 to 8) (size 9 to 14) (size 15 to 20)
#    0.000    2.545    0.909    1.636    0.000   13.818 
#    0.000    4.545    0.000    0.000    0.000    0.000 
#    0.000    0.000    0.000    0.000    0.000    0.000 
#
# Total GULP energy -122554.051997 kJ/mol
# GULP energy per Si atom -5570.638727 kJ/mol
# Density = 2.133034 g / cm^3
# Si number density = 21.379003 Si / 1000 Ang^3
#
#
#
# Elastic Constant Matrix: (Units=GPa)
#
#
# Indices 1 2 3 4 5 6 
#
# 1 85.0683 -0.2211 35.4312 0.0000 0.0000 0.0000
# 2 -0.2211 35.3038 1.0882 0.0000 0.0000 0.0000
# 3 35.4312 1.0882 152.3471 0.0000 0.0000 0.0000
# 4 0.0000 0.0000 0.0000 26.5099 0.0000 0.0000
# 5 0.0000 0.0000 0.0000 0.0000 -0.0174 0.0000
# 6 0.0000 0.0000 0.0000 0.0000 0.0000 21.5142
#
#
#
# Elastic Compliance Matrix: (Units=1/GPa)
#
#
# Indices 1 2 3 4 5 6 
#
# 1 0.013017 0.000175 -0.003029 0.000000 0.000000 0.000000
# 2 0.000175 0.028334 -0.000243 0.000000 0.000000 0.000000
# 3 -0.003029 -0.000243 0.007270 0.000000 0.000000 0.000000
# 4 0.000000 0.000000 0.000000 0.037722 0.000000 0.000000
# 5 0.000000 0.000000 0.000000 0.000000-57.415440 0.000000
# 6 0.000000 0.000000 0.000000 0.000000 0.000000 0.046481
#
#
# Mechanical properties :
#
#
# Convention : Reuss Voigt Hill
#
# Bulk Modulus (GPa) = 23.56952 38.36845 30.96899
# Shear Modulus (GPa) = -0.08732 25.36273 12.63770
#
# Velocity S-wave (km/s) = -0.20231 3.44806 2.43395
# Velocity P-wave (km/s) = 3.31572 5.81704 4.73455
#
# Compressibility (1/GPa) = 0.04242767
#
# Stress axis : x y z
#
# Youngs Moduli (GPa) = 76.82168 35.29312 137.55040
#
# Poissons Ratio (x) = -0.00617 0.41659
# Poissons Ratio (y) = -0.01343 0.03343
# Poissons Ratio (z) = 0.23267 0.00858
#
# Static dielectric constant tensor:
#      x y z
#    x 1.884020 0.000000 0.000000 
#    y 0.000000 1.846410 0.000000 
#    z 0.000000 0.000000 1.817630 
# 
# From -- ./inp_files/12659.got.cif
#   From: 2010.05.17/outbox.cif.g08.bks.cpg/sg24_7_cif.got.tgz:12659.got - 2010.06.04 00:33:39.
