data_PCOD9333812
_publ_section_title
;
Structure prediction by ZEFSAII (Michael W. Deem and Ramdas Pophale) SiO2 
 PCOD9333812
Probable space group: I 21 21 21
;
_chemical_formula_sum "Si O2"
_cell_formula_units_Z 64
_cell_length_a 27.297544
_cell_length_b 13.505327
_cell_length_c 8.249292
_cell_angle_alpha 90.000000
_cell_angle_beta 90.000000
_cell_angle_gamma 90.000000
_cell_volume 3041.202616
_symmetry_space_group_name_H-M "I 21 21 21"
_symmetry_group_IT_number 24
_symmetry_cell_setting 'orthorhombic'
loop_
_space_group_symop_operation_xyz
x,y,z
-x,1/2-y,z
x,-y,1/2-z
1/2-x,y,-z
1/2+x,1/2+y,1/2+z
1/2-x,-y,1/2+z
1/2+x,1/2-y,-z
-x,1/2+y,1/2-z
loop_
_atom_site_type_symbol
_atom_site_label
_atom_site_fract_x
_atom_site_fract_y
_atom_site_fract_z
Si Si1 0.125973 0.715833 0.648908
Si Si2 0.693692 0.610682 0.703503
Si Si3 0.021814 0.496608 0.440311
Si Si4 0.546951 0.802655 0.121418
Si Si5 0.308174 0.110682 0.187741
Si Si6 0.875133 0.913318 0.361367
Si Si7 0.042477 0.168845 0.044820
Si Si8 0.896739 0.281802 0.335262
O O1 0.161957 0.791638 0.739787
O O2 0.150177 0.647341 0.508893
O O3 0.085647 0.786743 0.563496
O O4 0.090232 0.655177 0.766811
O O5 0.680045 0.500000 0.750000
O O6 0.751397 0.623470 0.736559
O O7 0.687605 0.617599 0.508750
O O8 0.658260 0.679345 0.809343
O O9 0.010134 0.500000 0.250000
O O10 0.023690 0.389151 0.515099
O O11 0.076832 0.539863 0.443876
O O12 0.983400 0.571050 0.521503
O O13 0.500000 0.750000 0.203254
O O14 0.576522 0.726836 0.005925
O O15 0.323261 0.000000 0.250000
O O16 0.894498 0.829203 0.238628
O O17 0.851559 0.000000 0.250000
O O18 0.000000 0.250000 0.072018
O O19 0.069368 0.153766 0.216461
#
# Coordination Sequence:
#
# PCOD9333812 Si02
#       8
#     8   8   8   8   8   8   8   8
#     4  11  24  41  59  90 130 172 206 270 333 391
#     4  10  22  40  69  99 123 169 215 263 322 401
#     4  11  20  37  60  81 111 168 211 264 305 366
#     4  12  26  38  56  93 128 166 218 266 321 391
#     4  10  22  43  65  97 136 164 206 267 340 397
#     4  10  19  39  63  86 111 167 222 261 313 376
#     4  11  19  37  60  80 123 163 210 256 311 375
#     4  11  20  38  63  91 119 167 219 265 312 383
#
# _framework density 21.044305999999999
#
# number of rings (size 3 to 8) (size 9 to 14) (size 15 to 20)
#    0.000    1.250    7.500    1.500    1.750    3.000 
#    0.000    0.000    0.000    0.000    6.500    0.000 
#    0.000    0.000    0.000    0.000    0.000    0.000 
#
# Total GULP energy -178461.637509 kJ/mol
# GULP energy per Si atom -5576.926172 kJ/mol
# Density = 2.099641 g / cm^3
# Si number density = 21.044306 Si / 1000 Ang^3
#
#
#
# Elastic Constant Matrix: (Units=GPa)
#
#
# Indices 1 2 3 4 5 6 
#
# 1 66.5379 40.7835 15.6948 0.0000 0.0000 0.0000
# 2 40.7835 88.1873 15.6443 0.0000 0.0000 0.0000
# 3 15.6948 15.6443 48.0283 0.0000 0.0000 0.0000
# 4 0.0000 0.0000 0.0000 31.7148 0.0000 0.0000
# 5 0.0000 0.0000 0.0000 0.0000 24.6579 0.0000
# 6 0.0000 0.0000 0.0000 0.0000 0.0000 30.3693
#
#
#
# Elastic Compliance Matrix: (Units=1/GPa)
#
#
# Indices 1 2 3 4 5 6 
#
# 1 0.021694 -0.009313 -0.004056 0.000000 0.000000 0.000000
# 2 -0.009313 0.016033 -0.002179 0.000000 0.000000 0.000000
# 3 -0.004056 -0.002179 0.022856 0.000000 0.000000 0.000000
# 4 0.000000 0.000000 0.000000 0.031531 0.000000 0.000000
# 5 0.000000 0.000000 0.000000 0.000000 0.040555 0.000000
# 6 0.000000 0.000000 0.000000 0.000000 0.000000 0.032928
#
#
# Mechanical properties :
#
#
# Convention : Reuss Voigt Hill
#
# Bulk Modulus (GPa) = 33.91276 38.55542 36.23409
# Shear Modulus (GPa) = 24.21042 26.05711 25.13376
#
# Velocity S-wave (km/s) = 3.39551 3.52263 3.45965
# Velocity P-wave (km/s) = 5.61449 5.90813 5.76318
#
# Compressibility (1/GPa) = 0.02948743
#
# Stress axis : x y z
#
# Youngs Moduli (GPa) = 46.09542 62.37087 43.75186
#
# Poissons Ratio (x) = 0.58088 0.17744
# Poissons Ratio (y) = 0.42930 0.09534
# Poissons Ratio (z) = 0.18695 0.13591
#
# Static dielectric constant tensor:
#      x y z
#    x 1.748240 0.000000 0.000000 
#    y 0.000000 1.797900 0.000000 
#    z 0.000000 0.000000 1.896040 
# 
# From -- ./inp_files/17020.got.cif
#   From: 2010.05.17/outbox.cif.g08.bks.cpg/sg24_9_cif.got.tgz:17020.got - 2010.06.04 00:33:39.
