data_PCOD9333434
_publ_section_title
;
Structure prediction by ZEFSAII (Michael W. Deem and Ramdas Pophale) SiO2 
 PCOD9333434
Probable space group: I 21 21 21
;
_chemical_formula_sum "Si O2"
_cell_formula_units_Z 64
_cell_length_a 19.918245
_cell_length_b 10.083467
_cell_length_c 18.735917
_cell_angle_alpha 90.000000
_cell_angle_beta 90.000000
_cell_angle_gamma 90.000000
_cell_volume 3763.014616
_symmetry_space_group_name_H-M "I 21 21 21"
_symmetry_group_IT_number 24
_symmetry_cell_setting 'orthorhombic'
loop_
_space_group_symop_operation_xyz
x,y,z
-x,1/2-y,z
x,-y,1/2-z
1/2-x,y,-z
1/2+x,1/2+y,1/2+z
1/2-x,-y,1/2+z
1/2+x,1/2-y,-z
-x,1/2+y,1/2-z
loop_
_atom_site_type_symbol
_atom_site_label
_atom_site_fract_x
_atom_site_fract_y
_atom_site_fract_z
Si Si1 0.072211 0.311120 0.815405
Si Si2 0.914161 0.633354 0.083991
Si Si3 0.328707 0.067012 0.172262
Si Si4 0.414161 0.133354 0.416009
Si Si5 0.572211 0.811120 0.684595
Si Si6 0.561809 0.102257 0.649593
Si Si7 0.828707 0.432988 0.172262
Si Si8 0.438191 0.397743 0.350407
O O1 0.128434 0.201459 0.828586
O O2 0.067122 0.347550 0.731238
O O3 0.085741 0.451006 0.853790
O O4 0.000000 0.250000 0.836379
O O5 0.900941 0.787683 0.102286
O O6 0.858402 0.536120 0.115232
O O7 0.984041 0.602267 0.124912
O O8 0.923581 0.616381 0.000000
O O9 0.250000 0.090991 0.161486
O O10 0.338228 0.000000 0.250000
O O11 0.358402 0.963880 0.115232
O O12 0.400941 0.287683 0.397714
O O13 0.484041 0.102267 0.375088
O O14 0.500000 0.750000 0.663621
O O15 0.567122 0.847550 0.768762
O O16 0.628434 0.701459 0.671414
O O17 0.585741 0.951006 0.646210
O O18 0.838228 0.500000 0.250000
#
# Coordination Sequence:
#
# PCOD9333434 Si02
#       8
#     8   8   8   8   8   8   8   8
#     4  11  18  33  60  87 116 145 193 246 289 333
#     4  11  21  36  57  85 118 152 192 237 291 351
#     4  11  22  39  59  84 116 155 197 240 289 349
#     4  11  21  36  57  85 118 152 192 237 291 351
#     4  11  18  33  60  87 116 145 193 246 289 333
#     4  10  19  32  57  87 116 144 186 240 295 336
#     4  11  22  39  59  84 116 155 197 240 289 349
#     4  10  19  32  57  87 116 144 186 240 295 336
#
# _framework density 17.007641
#
# number of rings (size 3 to 8) (size 9 to 14) (size 15 to 20)
#    0.000    1.250    7.500    1.500    0.000    0.500 
#    0.000    7.500    0.000    0.000    0.000    0.000 
#    0.000    0.000    0.000    0.000    0.000    0.000 
#
# Total GULP energy -178566.897262 kJ/mol
# GULP energy per Si atom -5580.215539 kJ/mol
# Density = 1.696893 g / cm^3
# Si number density = 17.007641 Si / 1000 Ang^3
#
#
#
# Elastic Constant Matrix: (Units=GPa)
#
#
# Indices 1 2 3 4 5 6 
#
# 1 101.1873 87.7663 32.4998 0.0000 0.0000 0.0000
# 2 87.7663 175.4100 33.1740 0.0000 0.0000 0.0000
# 3 32.4998 33.1740 61.9024 0.0000 0.0000 0.0000
# 4 0.0000 0.0000 0.0000 19.0518 0.0000 0.0000
# 5 0.0000 0.0000 0.0000 0.0000 -12.3279 0.0000
# 6 0.0000 0.0000 0.0000 0.0000 0.0000 27.0852
#
#
#
# Elastic Compliance Matrix: (Units=1/GPa)
#
#
# Indices 1 2 3 4 5 6 
#
# 1 0.018965 -0.008464 -0.005421 0.000000 0.000000 0.000000
# 2 -0.008464 0.010121 -0.000980 0.000000 0.000000 0.000000
# 3 -0.005421 -0.000980 0.019526 0.000000 0.000000 0.000000
# 4 0.000000 0.000000 0.000000 0.052489 0.000000 0.000000
# 5 0.000000 0.000000 0.000000 0.000000 -0.081117 0.000000
# 6 0.000000 0.000000 0.000000 0.000000 0.000000 0.036920
#
#
# Mechanical properties :
#
#
# Convention : Reuss Voigt Hill
#
# Bulk Modulus (GPa) = 52.96163 71.70887 62.33525
# Shear Modulus (GPa) = 53.80417 19.09912 36.45165
#
# Velocity S-wave (km/s) = 5.63063 3.35471 4.63455
# Velocity P-wave (km/s) = 8.57202 7.56702 8.08515
#
# Compressibility (1/GPa) = 0.01888160
#
# Stress axis : x y z
#
# Youngs Moduli (GPa) = 52.72814 98.80168 51.21370
#
# Poissons Ratio (x) = 0.83625 0.27764
# Poissons Ratio (y) = 0.44629 0.05021
# Poissons Ratio (z) = 0.28585 0.09686
#
# Static dielectric constant tensor:
#      x y z
#    x 1.550710 0.000000 0.000000 
#    y 0.000000 1.601200 0.000000 
#    z 0.000000 0.000000 1.562920 
# 
# From -- ./inp_files/31431.got.cif
#   From: 2010.05.17/outbox.cif.g08.bks.cpg/sg24_16_cif.got.tgz:31431.got - 2010.06.04 00:33:39.
