data_PCOD9333846
_publ_section_title
;
Structure prediction by ZEFSAII (Michael W. Deem and Ramdas Pophale) SiO2 
 PCOD9333846
Probable space group: I 21 21 21
;
_chemical_formula_sum "Si O2"
_cell_formula_units_Z 60
_cell_length_a 7.894022
_cell_length_b 26.706692
_cell_length_c 12.038681
_cell_angle_alpha 90.000000
_cell_angle_beta 90.000000
_cell_angle_gamma 90.000000
_cell_volume 2538.033423
_symmetry_space_group_name_H-M "I 21 21 21"
_symmetry_group_IT_number 24
_symmetry_cell_setting 'orthorhombic'
loop_
_space_group_symop_operation_xyz
x,y,z
-x,1/2-y,z
x,-y,1/2-z
1/2-x,y,-z
1/2+x,1/2+y,1/2+z
1/2-x,-y,1/2+z
1/2+x,1/2-y,-z
-x,1/2+y,1/2-z
loop_
_atom_site_type_symbol
_atom_site_label
_atom_site_fract_x
_atom_site_fract_y
_atom_site_fract_z
Si Si1 0.554498 0.307130 0.542441
Si Si2 0.250000 0.455139 0.500000
Si Si3 0.482409 0.191445 0.187536
Si Si4 0.116190 0.859101 0.265894
Si Si5 0.007916 0.020791 0.871559
Si Si6 0.118052 0.376201 0.638788
Si Si7 0.777026 0.437733 0.626522
Si Si8 0.449424 0.377292 0.003702
O O1 0.500000 0.250000 0.532337
O O2 0.750000 0.311748 0.500000
O O3 0.531637 0.325828 0.668745
O O4 0.438893 0.340533 0.461937
O O5 0.403618 0.491217 0.467474
O O6 0.261200 0.415713 0.602481
O O7 0.500000 0.250000 0.210229
O O8 0.295624 0.170107 0.216236
O O9 0.623739 0.160232 0.256789
O O10 0.513724 0.175652 0.061817
O O11 0.145857 0.912324 0.206270
O O12 0.028102 0.871860 0.381807
O O13 0.938098 0.000000 0.750000
O O14 0.014519 0.077845 0.914140
O O15 0.194690 0.996760 0.870299
O O16 0.954658 0.411663 0.659064
O O17 0.750000 0.422979 0.500000
O O18 0.250000 0.386395 0.000000
#
# Coordination Sequence:
#
# PCOD9333846 Si02
#       8
#     8   4   8   8   8   8   8   8
#     4  12  24  41  69 108 149 185 242 307 368 445
#     4  10  22  38  68 100 130 188 230 292 372 436
#     4  11  25  46  75  99 141 195 252 314 373 445
#     4  11  24  46  73 104 147 194 243 314 378 451
#     4  11  24  45  69  98 141 190 246 304 374 451
#     4  10  20  40  67 102 138 179 239 298 372 433
#     4  10  19  41  70 100 138 181 241 300 361 445
#     4  12  28  50  69 107 156 194 253 313 375 473
#
# _framework density 23.640349000000001
#
# number of rings (size 3 to 8) (size 9 to 14) (size 15 to 20)
#    0.000    1.067    4.667    3.200    0.933    6.933 
#    0.000    0.000    0.000    0.000    0.000    0.000 
#    0.000    0.000    0.000    0.000    0.000    0.000 
#
# Total GULP energy -167462.675979 kJ/mol
# GULP energy per Si atom -5582.089199 kJ/mol
# Density = 2.358654 g / cm^3
# Si number density = 23.640349 Si / 1000 Ang^3
#
#
#
# Elastic Constant Matrix: (Units=GPa)
#
#
# Indices 1 2 3 4 5 6 
#
# 1 57.9598 25.2906 34.6747 0.0000 0.0000 0.0000
# 2 25.2906 126.1370 30.9075 0.0000 0.0000 0.0000
# 3 34.6747 30.9075 168.0378 0.0001 0.0000 0.0001
# 4 0.0000 0.0000 0.0001 28.3871 0.0000 0.0000
# 5 0.0000 0.0000 0.0000 0.0000 28.5504 0.0000
# 6 0.0000 0.0000 0.0001 0.0000 0.0000 17.8218
#
#
#
# Elastic Compliance Matrix: (Units=1/GPa)
#
#
# Indices 1 2 3 4 5 6 
#
# 1 0.020905 -0.003282 -0.003710 0.000000 0.000000 0.000000
# 2 -0.003282 0.008817 -0.000944 0.000000 0.000000 0.000000
# 3 -0.003710 -0.000944 0.006890 0.000000 0.000000 0.000000
# 4 0.000000 0.000000 0.000000 0.035227 0.000000 0.000000
# 5 0.000000 0.000000 0.000000 0.000000 0.035026 0.000000
# 6 0.000000 0.000000 0.000000 0.000000 0.000000 0.056111
#
#
# Mechanical properties :
#
#
# Convention : Reuss Voigt Hill
#
# Bulk Modulus (GPa) = 48.21823 59.32001 53.76912
# Shear Modulus (GPa) = 26.91585 32.36930 29.64258
#
# Velocity S-wave (km/s) = 3.37791 3.70434 3.54488
# Velocity P-wave (km/s) = 5.97114 6.59116 6.28880
#
# Compressibility (1/GPa) = 0.02073905
#
# Stress axis : x y z
#
# Youngs Moduli (GPa) = 47.83501 113.41155 145.13080
#
# Poissons Ratio (x) = 0.37226 0.53844
# Poissons Ratio (y) = 0.15701 0.13707
# Poissons Ratio (z) = 0.17747 0.10711
#
# Static dielectric constant tensor:
#      x y z
#    x 1.977340 0.000000 0.000000 
#    y 0.000000 1.895790 0.000000 
#    z 0.000000 0.000000 1.961080 
# 
# From -- ./inp_files/18803.got.cif
#   From: 2010.05.17/outbox.cif.g08.bks.cpg/sg24_10_cif.got.tgz:18803.got - 2010.06.04 00:33:39.
