data_PCOD9333941
_publ_section_title
;
Structure prediction by ZEFSAII (Michael W. Deem and Ramdas Pophale) SiO2 
 PCOD9333941
Probable space group: I 21 21 21
;
_chemical_formula_sum "Si O2"
_cell_formula_units_Z 64
_cell_length_a 9.422190
_cell_length_b 25.482091
_cell_length_c 15.632950
_cell_angle_alpha 90.000000
_cell_angle_beta 90.000000
_cell_angle_gamma 90.000000
_cell_volume 3753.426006
_symmetry_space_group_name_H-M "I 21 21 21"
_symmetry_group_IT_number 24
_symmetry_cell_setting 'orthorhombic'
loop_
_space_group_symop_operation_xyz
x,y,z
-x,1/2-y,z
x,-y,1/2-z
1/2-x,y,-z
1/2+x,1/2+y,1/2+z
1/2-x,-y,1/2+z
1/2+x,1/2-y,-z
-x,1/2+y,1/2-z
loop_
_atom_site_type_symbol
_atom_site_label
_atom_site_fract_x
_atom_site_fract_y
_atom_site_fract_z
Si Si1 0.898170 0.481337 0.044002
Si Si2 0.364024 0.428893 0.066847
Si Si3 0.506161 0.084434 0.630467
Si Si4 0.400889 0.698177 0.125536
Si Si5 0.513670 0.105834 0.244713
Si Si6 0.780882 0.970237 0.831205
Si Si7 0.577761 0.804898 0.922637
Si Si8 0.713036 0.557694 0.721839
O O1 0.966421 0.537987 0.064520
O O2 0.861070 0.450506 0.130766
O O3 0.750000 0.492519 0.000000
O O4 0.995944 0.445402 0.984638
O O5 0.403733 0.396872 0.153053
O O6 0.301682 0.484717 0.099671
O O7 0.250000 0.405542 0.000000
O O8 0.673546 0.075057 0.643366
O O9 0.490511 0.145054 0.609282
O O10 0.408631 0.073227 0.711807
O O11 0.500000 0.750000 0.137634
O O12 0.453027 0.655649 0.195341
O O13 0.228738 0.702175 0.126299
O O14 0.415142 0.683862 0.024823
O O15 0.574935 0.056225 0.298642
O O16 0.347897 0.096048 0.225694
O O17 0.713316 0.000000 0.750000
O O18 0.500000 0.750000 0.912373
O O19 0.766616 0.500000 0.750000
#
# Coordination Sequence:
#
# PCOD9333941 Si02
#       8
#     8   8   8   8   8   8   8   8
#     4  11  22  36  51  83 125 154 192 230 280 345
#     4  11  22  34  57  86 115 154 191 238 283 336
#     4  11  22  35  57  80 115 161 190 232 287 339
#     4  10  23  41  63  82 113 147 192 245 289 344
#     4  11  22  37  58  83 113 154 192 236 288 341
#     4  10  20  33  52  80 116 148 192 230 272 336
#     4  10  23  41  57  87 115 145 195 244 287 334
#     4  10  22  36  52  83 125 159 190 227 280 347
#
# _framework density 17.051089999999999
#
# number of rings (size 3 to 8) (size 9 to 14) (size 15 to 20)
#    0.000    1.500    3.750    2.250    7.000    0.000 
#    2.250    0.000    0.000    0.000    3.250    0.000 
#    0.000    0.000    0.000    0.000    0.000    0.000 
#
# Total GULP energy -178300.293958 kJ/mol
# GULP energy per Si atom -5571.884186 kJ/mol
# Density = 1.701228 g / cm^3
# Si number density = 17.051090 Si / 1000 Ang^3
#
#
#
# Elastic Constant Matrix: (Units=GPa)
#
#
# Indices 1 2 3 4 5 6 
#
# 1 79.6514 32.0382 32.3814 0.0000 0.0000 0.0000
# 2 32.0382 84.2464 51.4950 0.0000 0.0000 0.0000
# 3 32.3814 51.4950 81.1110 0.0000 0.0000 0.0000
# 4 0.0000 0.0000 0.0000 29.3054 0.0000 0.0000
# 5 0.0000 0.0000 0.0000 0.0000 10.6850 0.0000
# 6 0.0000 0.0000 0.0000 0.0000 0.0000 17.6517
#
#
#
# Elastic Compliance Matrix: (Units=1/GPa)
#
#
# Indices 1 2 3 4 5 6 
#
# 1 0.015584 -0.003470 -0.004018 0.000000 0.000000 0.000000
# 2 -0.003470 0.020170 -0.011420 0.000000 0.000000 0.000000
# 3 -0.004018 -0.011420 0.021183 0.000000 0.000000 0.000000
# 4 0.000000 0.000000 0.000000 0.034123 0.000000 0.000000
# 5 0.000000 0.000000 0.000000 0.000000 0.093589 0.000000
# 6 0.000000 0.000000 0.000000 0.000000 0.000000 0.056652
#
#
# Mechanical properties :
#
#
# Convention : Reuss Voigt Hill
#
# Bulk Modulus (GPa) = 52.30079 52.98199 52.64139
# Shear Modulus (GPa) = 17.51359 20.13470 18.82414
#
# Velocity S-wave (km/s) = 3.20836 3.44007 3.32623
# Velocity P-wave (km/s) = 6.66816 6.84973 6.75955
#
# Compressibility (1/GPa) = 0.01912017
#
# Stress axis : x y z
#
# Youngs Moduli (GPa) = 64.16759 49.57841 47.20720
#
# Poissons Ratio (x) = 0.17205 0.18969
# Poissons Ratio (y) = 0.22268 0.53910
# Poissons Ratio (z) = 0.25785 0.56618
#
# Static dielectric constant tensor:
#      x y z
#    x 1.600750 0.000000 0.000000 
#    y 0.000000 1.557560 0.000000 
#    z 0.000000 0.000000 1.592490 
# 
# From -- ./inp_files/13368.got.cif
#   From: 2010.05.17/outbox.cif.g08.bks.cpg/sg24_7_cif.got.tgz:13368.got - 2010.06.04 00:33:39.
