data_PCOD9333836
_publ_section_title
;
Structure prediction by ZEFSAII (Michael W. Deem and Ramdas Pophale) SiO2 
 PCOD9333836
Probable space group: I 21 21 21
;
_chemical_formula_sum "Si O2"
_cell_formula_units_Z 60
_cell_length_a 8.946747
_cell_length_b 10.984580
_cell_length_c 28.952298
_cell_angle_alpha 90.000000
_cell_angle_beta 90.000000
_cell_angle_gamma 90.000000
_cell_volume 2845.323513
_symmetry_space_group_name_H-M "I 21 21 21"
_symmetry_group_IT_number 24
_symmetry_cell_setting 'orthorhombic'
loop_
_space_group_symop_operation_xyz
x,y,z
-x,1/2-y,z
x,-y,1/2-z
1/2-x,y,-z
1/2+x,1/2+y,1/2+z
1/2-x,-y,1/2+z
1/2+x,1/2-y,-z
-x,1/2+y,1/2-z
loop_
_atom_site_type_symbol
_atom_site_label
_atom_site_fract_x
_atom_site_fract_y
_atom_site_fract_z
Si Si1 0.155539 0.709160 0.648594
Si Si2 0.348670 0.631247 0.247014
Si Si3 0.617416 0.510009 0.464897
Si Si4 0.688553 0.608046 0.214592
Si Si5 0.203636 0.961970 0.371157
Si Si6 0.000000 0.250000 0.012520
Si Si7 0.602686 0.149045 0.519381
Si Si8 0.625464 0.926095 0.585037
O O1 0.118434 0.662212 0.699609
O O2 0.254542 0.830913 0.650476
O O3 0.244968 0.608302 0.620258
O O4 0.000000 0.750000 0.626120
O O5 0.268636 0.500000 0.250000
O O6 0.505561 0.611573 0.219265
O O7 0.269720 0.752456 0.227337
O O8 0.750000 0.480753 0.500000
O O9 0.687121 0.513809 0.414460
O O10 0.563144 0.642908 0.481298
O O11 0.487684 0.415161 0.477622
O O12 0.733701 0.500000 0.250000
O O13 0.757856 0.564872 0.166341
O O14 0.034260 0.947704 0.389802
O O15 0.886237 0.185117 0.048294
O O16 0.500000 0.250000 0.542321
O O17 0.750000 0.209153 0.500000
O O18 0.649783 0.044964 0.554690
#
# Coordination Sequence:
#
# PCOD9333836 Si02
#       8
#     8   8   8   8   8   4   8   8
#     4  12  22  39  72 103 139 188 234 302 378 450
#     4  10  20  42  63  99 145 176 238 322 363 434
#     4  11  22  42  68  98 142 190 234 297 373 435
#     4  10  19  40  67  98 132 188 237 308 374 438
#     4  12  23  41  71 102 139 191 243 295 389 451
#     4  10  20  40  64  96 150 182 220 300 366 430
#     4  11  26  48  68  93 142 195 248 302 366 437
#     4  11  24  45  67 106 146 183 238 315 360 454
#
# _framework density 21.087233000000001
#
# number of rings (size 3 to 8) (size 9 to 14) (size 15 to 20)
#    0.000    1.067    6.667    1.200    2.800    3.200 
#    4.800    0.667    0.000    0.000    0.000    0.000 
#    0.000    0.000    0.000    0.000    0.000    0.000 
#
# Total GULP energy -167558.662067 kJ/mol
# GULP energy per Si atom -5585.288736 kJ/mol
# Density = 2.103924 g / cm^3
# Si number density = 21.087233 Si / 1000 Ang^3
#
#
#
# Elastic Constant Matrix: (Units=GPa)
#
#
# Indices 1 2 3 4 5 6 
#
# 1 82.9329 13.7117 31.1135 0.0000 0.0000 0.0000
# 2 13.7117 130.4613 28.5582 0.0000 0.0000 0.0000
# 3 31.1135 28.5582 106.5534 0.0000 0.0000 0.0000
# 4 0.0000 0.0000 0.0000 23.4935 0.0000 0.0000
# 5 0.0000 0.0000 0.0000 0.0000 8.3301 0.0000
# 6 0.0000 0.0000 0.0000 0.0000 0.0000 20.6898
#
#
#
# Elastic Compliance Matrix: (Units=1/GPa)
#
#
# Indices 1 2 3 4 5 6 
#
# 1 0.013585 -0.000594 -0.003807 0.000000 0.000000 0.000000
# 2 -0.000594 0.008169 -0.002016 0.000000 0.000000 0.000000
# 3 -0.003807 -0.002016 0.011037 0.000000 0.000000 0.000000
# 4 0.000000 0.000000 0.000000 0.042565 0.000000 0.000000
# 5 0.000000 0.000000 0.000000 0.000000 0.120047 0.000000
# 6 0.000000 0.000000 0.000000 0.000000 0.000000 0.048333
#
#
# Mechanical properties :
#
#
# Convention : Reuss Voigt Hill
#
# Bulk Modulus (GPa) = 50.11198 51.85715 50.98456
# Shear Modulus (GPa) = 18.99537 26.94030 22.96783
#
# Velocity S-wave (km/s) = 3.00459 3.57818 3.30386
# Velocity P-wave (km/s) = 5.98769 6.45881 6.22771
#
# Compressibility (1/GPa) = 0.01995531
#
# Stress axis : x y z
#
# Youngs Moduli (GPa) = 73.61275 122.41627 90.60423
#
# Poissons Ratio (x) = 0.07275 0.34497
# Poissons Ratio (y) = 0.04375 0.18265
# Poissons Ratio (z) = 0.28027 0.24677
#
# Static dielectric constant tensor:
#      x y z
#    x 1.833660 0.000000 0.000000 
#    y 0.000000 1.802760 0.000000 
#    z 0.000000 0.000000 1.766180 
# 
# From -- ./inp_files/36929.got.cif
#   From: 2010.05.17/outbox.cif.g08.bks.cpg/sg24_19_cif.got.tgz:36929.got - 2010.06.04 00:33:39.
