data_PCOD9333362
_publ_section_title
;
Structure prediction by ZEFSAII (Michael W. Deem and Ramdas Pophale) SiO2 
 PCOD9333362
Probable space group: I 21 21 21
;
_chemical_formula_sum "Si O2"
_cell_formula_units_Z 48
_cell_length_a 5.679343
_cell_length_b 20.602317
_cell_length_c 14.540837
_cell_angle_alpha 90.000000
_cell_angle_beta 90.000000
_cell_angle_gamma 90.000000
_cell_volume 1701.388801
_symmetry_space_group_name_H-M "I 21 21 21"
_symmetry_group_IT_number 24
_symmetry_cell_setting 'orthorhombic'
loop_
_space_group_symop_operation_xyz
x,y,z
-x,1/2-y,z
x,-y,1/2-z
1/2-x,y,-z
1/2+x,1/2+y,1/2+z
1/2-x,-y,1/2+z
1/2+x,1/2-y,-z
-x,1/2+y,1/2-z
loop_
_atom_site_type_symbol
_atom_site_label
_atom_site_fract_x
_atom_site_fract_y
_atom_site_fract_z
Si Si1 0.606941 0.338620 0.158946
Si Si2 0.679738 0.515501 0.397940
Si Si3 0.820904 0.003447 0.142907
Si Si4 0.967224 0.677007 0.877980
Si Si5 0.526224 0.171269 0.646621
Si Si6 0.101885 0.652731 0.364496
O O1 0.631802 0.417642 0.157875
O O2 0.574103 0.319141 0.265971
O O3 0.358461 0.318756 0.114258
O O4 0.849324 0.317927 0.109490
O O5 0.750000 0.534399 0.500000
O O6 0.424820 0.481593 0.402370
O O7 0.910398 0.477700 0.361874
O O8 0.865343 0.077492 0.109269
O O9 0.761059 0.000000 0.250000
O O10 0.225898 0.649002 0.895031
O O11 0.000000 0.750000 0.914664
O O12 0.712372 0.649885 0.903298
O O13 0.500000 0.250000 0.646960
O O14 0.562460 0.152534 0.753462
#
# Coordination Sequence:
#
# PCOD9333362 Si02
#       6
#     8   8   8   8   8   8
#     4   8  14  23  35  52  72  96 127 165 204 238
#     4  10  19  31  46  64  84 109 142 179 218 259
#     4  10  19  31  46  64  86 111 141 178 218 259
#     4   8  12  18  29  46  66  90 121 158 199 235
#     4   8  12  18  29  46  68  92 121 157 194 233
#     4   8  14  23  35  52  74  98 128 163 200 242
#
# _framework density 28.212243000000001
#
# number of rings (size 3 to 8) (size 9 to 14) (size 15 to 20)
#    0.000    3.333    0.000    1.000    0.000    0.000 
#    0.000    0.000    0.000    0.000    0.000   24.500 
#    0.000    0.000    0.000    0.000    0.000    3.333 
#
# Total GULP energy -133909.402941 kJ/mol
# GULP energy per Si atom -5579.558456 kJ/mol
# Density = 2.814803 g / cm^3
# Si number density = 28.212243 Si / 1000 Ang^3
#
#
#
# Elastic Constant Matrix: (Units=GPa)
#
#
# Indices 1 2 3 4 5 6 
#
# 1 429.6516 39.4216 22.1574 0.0000 0.0000 0.0000
# 2 39.4216 99.0278 13.9410 0.0000 0.0000 0.0000
# 3 22.1574 13.9410 82.6955 0.0000 -0.0001 0.0000
# 4 0.0000 0.0000 0.0000 -20.4318 0.0000 0.0000
# 5 0.0000 0.0000 -0.0001 0.0000 103.0651 0.0000
# 6 0.0000 0.0000 0.0000 0.0000 0.0000 -1.8582
#
#
#
# Elastic Compliance Matrix: (Units=1/GPa)
#
#
# Indices 1 2 3 4 5 6 
#
# 1 0.002436 -0.000899 -0.000501 0.000000 0.000000 0.000000
# 2 -0.000899 0.010676 -0.001559 0.000000 0.000000 0.000000
# 3 -0.000501 -0.001559 0.012490 0.000000 0.000000 0.000000
# 4 0.000000 0.000000 0.000000 -0.048943 0.000000 0.000000
# 5 0.000000 0.000000 0.000000 0.000000 0.009703 0.000000
# 6 0.000000 0.000000 0.000000 0.000000 0.000000 -0.538158
#
#
# Mechanical properties :
#
#
# Convention : Reuss Voigt Hill
#
# Bulk Modulus (GPa) = 50.80533 84.71276 67.75904
# Shear Modulus (GPa) = -9.27095 51.87868 21.30386
#
# Velocity S-wave (km/s) = -1.81474 4.29286 2.75094
# Velocity P-wave (km/s) = 3.69544 7.39349 5.84465
#
# Compressibility (1/GPa) = 0.01968297
#
# Stress axis : x y z
#
# Youngs Moduli (GPa) = 410.54206 93.67200 80.06662
#
# Poissons Ratio (x) = 0.08422 0.04012
# Poissons Ratio (y) = 0.36913 0.12481
# Poissons Ratio (z) = 0.20571 0.14602
#
# Static dielectric constant tensor:
#      x y z
#    x 2.293530 0.000000 0.000000 
#    y 0.000000 1.499210 0.000000 
#    z 0.000000 0.000000 2.101680 
# 
# From -- ./inp_files/24021.got.cif
#   From: 2010.05.17/outbox.cif.g08.bks.cpg/sg24_13_cif.got.tgz:24021.got - 2010.06.04 00:33:39.
