data_PCOD9333647
_publ_section_title
;
Structure prediction by ZEFSAII (Michael W. Deem and Ramdas Pophale) SiO2 
 PCOD9333647
Probable space group: I 21 21 21
;
_chemical_formula_sum "Si O2"
_cell_formula_units_Z 40
_cell_length_a 8.549741
_cell_length_b 14.455774
_cell_length_c 13.413427
_cell_angle_alpha 90.000000
_cell_angle_beta 90.000000
_cell_angle_gamma 90.000000
_cell_volume 1657.807342
_symmetry_space_group_name_H-M "I 21 21 21"
_symmetry_group_IT_number 24
_symmetry_cell_setting 'orthorhombic'
loop_
_space_group_symop_operation_xyz
x,y,z
-x,1/2-y,z
x,-y,1/2-z
1/2-x,y,-z
1/2+x,1/2+y,1/2+z
1/2-x,-y,1/2+z
1/2+x,1/2-y,-z
-x,1/2+y,1/2-z
loop_
_atom_site_type_symbol
_atom_site_label
_atom_site_fract_x
_atom_site_fract_y
_atom_site_fract_z
Si Si1 0.806551 0.646229 0.113602
Si Si2 0.085627 0.149652 0.781406
Si Si3 0.672803 0.860441 0.889389
Si Si4 0.677827 0.232220 0.891739
Si Si5 0.197133 0.548088 0.618043
O O1 0.668084 0.606665 0.183669
O O2 0.814961 0.754741 0.146724
O O3 0.987892 0.613290 0.115177
O O4 0.750000 0.639165 0.000000
O O5 0.233124 0.182320 0.845130
O O6 0.000000 0.250000 0.759216
O O7 0.972657 0.087035 0.849928
O O8 0.772616 0.944661 0.844246
O O9 0.750000 0.850642 0.000000
O O10 0.500000 0.250000 0.900525
O O11 0.696723 0.132029 0.841613
O O12 0.750000 0.222047 0.000000
O O13 0.250000 0.540351 0.500000
#
# Coordination Sequence:
#
# PCOD9333647 Si02
#       5
#     8   8   8   8   8
#     4  10  22  40  70 104 142 191 241 295 364 444
#     4  10  22  38  68 103 133 188 240 289 364 440
#     4   9  20  39  71 101 136 188 246 301 368 426
#     4  10  19  35  63  92 134 180 231 293 365 435
#     4   9  18  40  68  97 133 179 237 302 368 427
#
# _framework density 24.128256
#
# number of rings (size 3 to 8) (size 9 to 14) (size 15 to 20)
#    0.000    2.400    0.000    3.000    8.400    0.000 
#    0.000    9.000   13.200    0.000    0.000    0.000 
#    0.000    0.000    0.000    0.000    0.000    0.000 
#
# Total GULP energy -111575.344285 kJ/mol
# GULP energy per Si atom -5578.767214 kJ/mol
# Density = 2.407334 g / cm^3
# Si number density = 24.128256 Si / 1000 Ang^3
#
#
#
# Elastic Constant Matrix: (Units=GPa)
#
#
# Indices 1 2 3 4 5 6 
#
# 1 200.7541 41.8114 40.7929 0.0000 0.0000 0.0000
# 2 41.8114 91.6450 25.0068 0.0000 0.0000 0.0000
# 3 40.7929 25.0068 111.7057 0.0000 0.0000 0.0000
# 4 0.0000 0.0000 0.0000 40.9972 0.0000 0.0000
# 5 0.0000 0.0000 0.0000 0.0000 46.6385 0.0000
# 6 0.0000 0.0000 0.0000 0.0000 0.0000 34.0827
#
#
#
# Elastic Compliance Matrix: (Units=1/GPa)
#
#
# Indices 1 2 3 4 5 6 
#
# 1 0.005765 -0.002190 -0.001615 0.000000 0.000000 0.000000
# 2 -0.002190 0.012453 -0.001988 0.000000 0.000000 0.000000
# 3 -0.001615 -0.001988 0.009987 0.000000 0.000000 0.000000
# 4 0.000000 0.000000 0.000000 0.024392 0.000000 0.000000
# 5 0.000000 0.000000 0.000000 0.000000 0.021442 0.000000
# 6 0.000000 0.000000 0.000000 0.000000 0.000000 0.029340
#
#
# Mechanical properties :
#
#
# Convention : Reuss Voigt Hill
#
# Bulk Modulus (GPa) = 60.17035 68.81412 64.49224
# Shear Modulus (GPa) = 41.49187 44.10993 42.80090
#
# Velocity S-wave (km/s) = 4.15135 4.28032 4.21633
# Velocity P-wave (km/s) = 6.92605 7.28081 7.10564
#
# Compressibility (1/GPa) = 0.01661948
#
# Stress axis : x y z
#
# Youngs Moduli (GPa) = 173.44616 80.30090 100.12978
#
# Poissons Ratio (x) = 0.17583 0.16174
# Poissons Ratio (y) = 0.37979 0.19908
# Poissons Ratio (z) = 0.28016 0.15965
#
# Static dielectric constant tensor:
#      x y z
#    x 1.897900 0.000000 0.000000 
#    y 0.000000 1.971970 0.000000 
#    z 0.000000 0.000000 2.134410 
# 
# From -- ./inp_files/24509.got.cif
#   From: 2010.05.17/outbox.cif.g08.bks.cpg/sg24_13_cif.got.tgz:24509.got - 2010.06.04 00:33:39.
