data_PCOD9333161
_publ_section_title
;
Structure prediction by ZEFSAII (Michael W. Deem and Ramdas Pophale) SiO2 
 PCOD9333161
Probable space group: I 21 21 21
;
_chemical_formula_sum "Si O2"
_cell_formula_units_Z 60
_cell_length_a 29.619240
_cell_length_b 7.564923
_cell_length_c 11.915379
_cell_angle_alpha 90.000000
_cell_angle_beta 90.000000
_cell_angle_gamma 90.000000
_cell_volume 2669.846443
_symmetry_space_group_name_H-M "I 21 21 21"
_symmetry_group_IT_number 24
_symmetry_cell_setting 'orthorhombic'
loop_
_space_group_symop_operation_xyz
x,y,z
-x,1/2-y,z
x,-y,1/2-z
1/2-x,y,-z
1/2+x,1/2+y,1/2+z
1/2-x,-y,1/2+z
1/2+x,1/2-y,-z
-x,1/2+y,1/2-z
loop_
_atom_site_type_symbol
_atom_site_label
_atom_site_fract_x
_atom_site_fract_y
_atom_site_fract_z
Si Si1 0.257164 0.259646 0.858196
Si Si2 0.450777 0.205241 0.735340
Si Si3 0.174887 0.103195 0.973323
Si Si4 0.725017 0.178414 0.610425
Si Si5 0.372928 0.000000 0.250000
Si Si6 0.086840 0.296548 0.029247
Si Si7 0.129577 0.392386 0.368179
Si Si8 0.948408 0.799158 0.712970
O O1 0.206503 0.242231 0.904038
O O2 0.256651 0.243399 0.724987
O O3 0.273065 0.462366 0.882191
O O4 0.290621 0.115450 0.917188
O O5 0.500000 0.250000 0.693567
O O6 0.441422 0.292767 0.856409
O O7 0.413359 0.274993 0.653049
O O8 0.446341 0.000000 0.750000
O O9 0.157926 0.989668 0.863543
O O10 0.126207 0.150839 0.025371
O O11 0.750000 0.239446 0.500000
O O12 0.672533 0.222034 0.602690
O O13 0.407969 0.166976 0.250292
O O14 0.117054 0.472664 0.034708
O O15 0.055558 0.288753 0.921977
O O16 0.138340 0.500000 0.250000
O O17 0.000000 0.750000 0.747902
O O18 0.939569 0.000000 0.750000
#
# Coordination Sequence:
#
# PCOD9333161 Si02
#       8
#     8   8   8   8   4   8   8   8
#     4  10  18  34  66  95 141 190 233 293 364 418
#     4  11  23  41  65  99 134 180 232 293 362 430
#     4  10  19  40  66  96 136 194 235 296 365 421
#     4  11  18  33  61 106 138 186 245 290 357 447
#     4  10  24  44  70 102 142 188 252 306 360 440
#     4  10  20  39  66  95 133 181 226 287 361 423
#     4  10  18  37  64  94 138 177 233 294 350 430
#     4  11  23  45  70 100 142 189 237 295 364 435
#
# _framework density 22.473203000000002
#
# number of rings (size 3 to 8) (size 9 to 14) (size 15 to 20)
#    0.000    1.600    4.667    2.400    0.000    0.000 
#   19.200    0.667   16.133    0.000    0.000    0.000 
#    0.000    0.000    0.000    0.000    0.000    0.000 
#
# Total GULP energy -167269.605485 kJ/mol
# GULP energy per Si atom -5575.653516 kJ/mol
# Density = 2.242205 g / cm^3
# Si number density = 22.473203 Si / 1000 Ang^3
#
#
#
# Elastic Constant Matrix: (Units=GPa)
#
#
# Indices 1 2 3 4 5 6 
#
# 1 120.5553 10.7849 42.4120 0.0000 0.0000 0.0000
# 2 10.7849 60.8951 17.9812 0.0000 0.0000 0.0000
# 3 42.4120 17.9812 108.8373 0.0000 0.0000 0.0000
# 4 0.0000 0.0000 0.0000 32.1711 0.0000 0.0000
# 5 0.0000 0.0000 0.0000 0.0000 42.7406 0.0000
# 6 0.0000 0.0000 0.0000 0.0000 0.0000 146.8032
#
#
#
# Elastic Compliance Matrix: (Units=1/GPa)
#
#
# Indices 1 2 3 4 5 6 
#
# 1 0.009636 -0.000628 -0.003651 0.000000 0.000000 0.000000
# 2 -0.000628 0.017305 -0.002614 0.000000 0.000000 0.000000
# 3 -0.003651 -0.002614 0.011043 0.000000 0.000000 0.000000
# 4 0.000000 0.000000 0.000000 0.031084 0.000000 0.000000
# 5 0.000000 0.000000 0.000000 0.000000 0.023397 0.000000
# 6 0.000000 0.000000 0.000000 0.000000 0.000000 0.006812
#
#
# Mechanical properties :
#
#
# Convention : Reuss Voigt Hill
#
# Bulk Modulus (GPa) = 41.32903 48.07153 44.70028
# Shear Modulus (GPa) = 41.27861 58.95028 50.11445
#
# Velocity S-wave (km/s) = 4.29043 5.12721 4.72737
# Velocity P-wave (km/s) = 6.55546 7.51586 7.05203
#
# Compressibility (1/GPa) = 0.02419607
#
# Stress axis : x y z
#
# Youngs Moduli (GPa) = 103.78167 57.78719 90.55811
#
# Poissons Ratio (x) = 0.03632 0.33063
# Poissons Ratio (y) = 0.06522 0.23672
# Poissons Ratio (z) = 0.37891 0.15106
#
# Static dielectric constant tensor:
#      x y z
#    x 1.809700 0.000000 0.000000 
#    y 0.000000 1.884710 0.000000 
#    z 0.000000 0.000000 1.473980 
# 
# From -- ./inp_files/22981.got.cif
#   From: 2010.05.17/outbox.cif.g08.bks.cpg/sg24_12_cif.got.tgz:22981.got - 2010.06.04 00:33:39.
