data_PCOD9333186
_publ_section_title
;
Structure prediction by ZEFSAII (Michael W. Deem and Ramdas Pophale) SiO2 
 PCOD9333186
Probable space group: I 21 21 21
;
_chemical_formula_sum "Si O2"
_cell_formula_units_Z 40
_cell_length_a 9.485284
_cell_length_b 6.980792
_cell_length_c 24.031558
_cell_angle_alpha 90.000000
_cell_angle_beta 90.000000
_cell_angle_gamma 90.000000
_cell_volume 1591.244678
_symmetry_space_group_name_H-M "I 21 21 21"
_symmetry_group_IT_number 24
_symmetry_cell_setting 'orthorhombic'
loop_
_space_group_symop_operation_xyz
x,y,z
-x,1/2-y,z
x,-y,1/2-z
1/2-x,y,-z
1/2+x,1/2+y,1/2+z
1/2-x,-y,1/2+z
1/2+x,1/2-y,-z
-x,1/2+y,1/2-z
loop_
_atom_site_type_symbol
_atom_site_label
_atom_site_fract_x
_atom_site_fract_y
_atom_site_fract_z
Si Si1 0.765790 0.288430 0.566477
Si Si2 0.233365 0.342181 0.069682
Si Si3 0.000000 0.250000 0.986608
Si Si4 0.370393 0.636332 0.687492
Si Si5 0.500000 0.250000 0.638464
Si Si6 0.375314 0.500000 0.250000
Si Si7 0.500000 0.750000 0.152285
O O1 0.750000 0.334928 0.500000
O O2 0.619279 0.333302 0.597159
O O3 0.887405 0.344451 0.610149
O O4 0.791519 0.057213 0.570415
O O5 0.362802 0.204297 0.051355
O O6 0.174658 0.280346 0.128336
O O7 0.096588 0.367092 0.030084
O O8 0.500000 0.750000 0.711493
O O9 0.423901 0.420022 0.672989
O O10 0.234409 0.653698 0.725702
O O11 0.450345 0.587032 0.196222
#
# Coordination Sequence:
#
# PCOD9333186 Si02
#       7
#     8   8   4   8   4   4   4
#     4  11  22  46  72 110 158 201 261 332 401 484
#     4  10  20  39  66 104 151 195 258 312 387 475
#     4  10  18  35  67 100 148 196 246 316 382 474
#     4  11  25  48  75 104 150 203 259 330 387 467
#     4  10  23  46  73 110 149 201 272 312 392 484
#     4  12  28  50  74 114 160 202 272 332 392 506
#     4  12  27  49  78 114 159 209 266 332 416 472
#
# _framework density 25.137554000000002
#
# number of rings (size 3 to 8) (size 9 to 14) (size 15 to 20)
#    0.000    1.200    7.000    0.600    1.400    2.400 
#    3.600    0.000    0.000    0.000    0.000    0.000 
#    0.000    0.000    0.000    0.000    0.000    0.000 
#
# Total GULP energy -111446.904510 kJ/mol
# GULP energy per Si atom -5572.345226 kJ/mol
# Density = 2.508034 g / cm^3
# Si number density = 25.137554 Si / 1000 Ang^3
#
#
#
# Elastic Constant Matrix: (Units=GPa)
#
#
# Indices 1 2 3 4 5 6 
#
# 1 155.9460 31.9152 78.1233 0.0000 0.0000 0.0000
# 2 31.9152 73.0419 45.6425 0.0000 0.0000 0.0000
# 3 78.1233 45.6425 176.4807 0.0000 0.0000 0.0000
# 4 0.0000 0.0000 0.0000 27.7668 0.0000 0.0000
# 5 0.0000 0.0000 0.0000 0.0000 -30.7922 0.0000
# 6 0.0000 0.0000 0.0000 0.0000 0.0000 35.2062
#
#
#
# Elastic Compliance Matrix: (Units=1/GPa)
#
#
# Indices 1 2 3 4 5 6 
#
# 1 0.008395 -0.001605 -0.003301 0.000000 0.000000 0.000000
# 2 -0.001605 0.016637 -0.003592 0.000000 0.000000 0.000000
# 3 -0.003301 -0.003592 0.008057 0.000000 0.000000 0.000000
# 4 0.000000 0.000000 0.000000 0.036014 0.000000 0.000000
# 5 0.000000 0.000000 0.000000 0.000000 -0.032476 0.000000
# 6 0.000000 0.000000 0.000000 0.000000 0.000000 0.028404
#
#
# Mechanical properties :
#
#
# Convention : Reuss Voigt Hill
#
# Bulk Modulus (GPa) = 62.14488 79.64784 70.89636
# Shear Modulus (GPa) = 57.21408 23.08866 40.15137
#
# Velocity S-wave (km/s) = 4.77596 3.03395 4.00092
# Velocity P-wave (km/s) = 7.42891 6.63526 7.04327
#
# Compressibility (1/GPa) = 0.01609143
#
# Stress axis : x y z
#
# Youngs Moduli (GPa) = 119.12352 60.10759 124.12220
#
# Poissons Ratio (x) = 0.09649 0.40972
# Poissons Ratio (y) = 0.19123 0.44586
# Poissons Ratio (z) = 0.39322 0.21591
#
# Static dielectric constant tensor:
#      x y z
#    x 2.028700 0.000000 0.000000 
#    y 0.000000 2.157230 0.000000 
#    z 0.000000 0.000000 2.022680 
# 
# From -- ./inp_files/35054.got.cif
#   From: 2010.05.17/outbox.cif.g08.bks.cpg/sg24_18_cif.got.tgz:35054.got - 2010.06.04 00:33:39.
