data_PCOD9333026
_publ_section_title
;
Structure prediction by ZEFSAII (Michael W. Deem and Ramdas Pophale) SiO2 
 PCOD9333026
Probable space group: I 21 21 21
;
_chemical_formula_sum "Si O2"
_cell_formula_units_Z 64
_cell_length_a 27.588605
_cell_length_b 5.235569
_cell_length_c 23.523033
_cell_angle_alpha 90.000000
_cell_angle_beta 90.000000
_cell_angle_gamma 90.000000
_cell_volume 3397.714993
_symmetry_space_group_name_H-M "I 21 21 21"
_symmetry_group_IT_number 24
_symmetry_cell_setting 'orthorhombic'
loop_
_space_group_symop_operation_xyz
x,y,z
-x,1/2-y,z
x,-y,1/2-z
1/2-x,y,-z
1/2+x,1/2+y,1/2+z
1/2-x,-y,1/2+z
1/2+x,1/2-y,-z
-x,1/2+y,1/2-z
loop_
_atom_site_type_symbol
_atom_site_label
_atom_site_fract_x
_atom_site_fract_y
_atom_site_fract_z
Si Si1 0.444581 0.778453 0.972772
Si Si2 0.792805 0.183464 0.028094
Si Si3 0.272898 0.026361 0.393404
Si Si4 0.755920 0.752946 0.287425
Si Si5 0.944057 0.221327 0.105839
Si Si6 0.148440 0.077415 0.523064
Si Si7 0.864561 0.397446 0.188326
Si Si8 0.678145 0.791983 0.897700
O O1 0.500000 0.750000 0.992209
O O2 0.436133 0.533450 0.931901
O O3 0.406140 0.824522 0.022935
O O4 0.438077 0.033449 0.935079
O O5 0.755269 0.385622 0.055256
O O6 0.835470 0.280894 0.986889
O O7 0.821036 0.084555 0.083706
O O8 0.750000 0.006145 0.000000
O O9 0.275119 0.816956 0.343616
O O10 0.320952 0.142622 0.420947
O O11 0.233015 0.236816 0.376727
O O12 0.749596 0.500000 0.250000
O O13 0.813661 0.752099 0.302231
O O14 0.743722 0.000000 0.250000
O O15 0.906530 0.239077 0.157436
O O16 0.000000 0.250000 0.125460
O O17 0.166557 0.185632 0.461627
O O18 0.879677 0.500000 0.250000
O O19 0.853500 0.642344 0.147647
#
# Coordination Sequence:
#
# PCOD9333026 Si02
#       8
#     8   8   8   8   8   8   8   8
#     4  10  22  38  59  80 107 143 182 232 308 358
#     4   9  18  30  49  77 109 142 176 231 277 331
#     4   9  20  32  50  78 108 141 189 220 272 336
#     4  10  23  39  53  74 112 150 181 223 276 330
#     4  10  22  42  58  75 103 142 189 251 308 355
#     4  10  19  32  52  80 104 139 183 231 281 339
#     4  10  22  37  56  78 101 143 199 243 294 342
#     4  10  18  32  51  74 111 138 179 234 290 336
#
# _framework density 18.836188
#
# number of rings (size 3 to 8) (size 9 to 14) (size 15 to 20)
#    0.000    2.250    1.250    1.875    7.000    2.000 
#    0.000    2.500    0.000    0.000    0.000    0.000 
#    0.000    0.000    0.000    4.500    0.000    4.875 
#
# Total GULP energy -178168.214837 kJ/mol
# GULP energy per Si atom -5567.756714 kJ/mol
# Density = 1.879332 g / cm^3
# Si number density = 18.836188 Si / 1000 Ang^3
#
#
#
# Elastic Constant Matrix: (Units=GPa)
#
#
# Indices 1 2 3 4 5 6 
#
# 1 127.9108 30.0883 50.5339 0.0000 0.0000 0.0000
# 2 30.0883 70.8012 18.7092 0.0000 0.0000 0.0000
# 3 50.5339 18.7092 77.0867 0.0000 0.0000 0.0000
# 4 0.0000 0.0000 0.0000 27.3902 0.0000 0.0000
# 5 0.0000 0.0000 0.0000 0.0000 27.8752 0.0000
# 6 0.0000 0.0000 0.0000 0.0000 0.0000 19.5874
#
#
#
# Elastic Compliance Matrix: (Units=1/GPa)
#
#
# Indices 1 2 3 4 5 6 
#
# 1 0.011112 -0.002989 -0.006559 0.000000 0.000000 0.000000
# 2 -0.002989 0.015896 -0.001898 0.000000 0.000000 0.000000
# 3 -0.006559 -0.001898 0.017733 0.000000 0.000000 0.000000
# 4 0.000000 0.000000 0.000000 0.036509 0.000000 0.000000
# 5 0.000000 0.000000 0.000000 0.000000 0.035874 0.000000
# 6 0.000000 0.000000 0.000000 0.000000 0.000000 0.051053
#
#
# Mechanical properties :
#
#
# Convention : Reuss Voigt Hill
#
# Bulk Modulus (GPa) = 45.77128 52.71794 49.24461
# Shear Modulus (GPa) = 25.20737 26.73505 25.97121
#
# Velocity S-wave (km/s) = 3.66217 3.77151 3.71724
# Velocity P-wave (km/s) = 6.49880 6.85668 6.68013
#
# Compressibility (1/GPa) = 0.02184776
#
# Stress axis : x y z
#
# Youngs Moduli (GPa) = 89.98911 62.90873 56.39184
#
# Poissons Ratio (x) = 0.18804 0.36989
# Poissons Ratio (y) = 0.26899 0.10706
# Poissons Ratio (z) = 0.59026 0.11943
#
# Static dielectric constant tensor:
#      x y z
#    x 1.781140 0.000000 0.000000 
#    y 0.000000 1.987110 0.000000 
#    z 0.000000 0.000000 1.773610 
# 
# From -- ./inp_files/36171.got.cif
#   From: 2010.05.17/outbox.cif.g08.bks.cpg/sg24_19_cif.got.tgz:36171.got - 2010.06.04 00:33:39.
