data_PCOD9333136
_publ_section_title
;
Structure prediction by ZEFSAII (Michael W. Deem and Ramdas Pophale) SiO2 
 PCOD9333136
Probable space group: I 21 21 21
;
_chemical_formula_sum "Si O2"
_cell_formula_units_Z 36
_cell_length_a 8.980562
_cell_length_b 8.721997
_cell_length_c 20.861719
_cell_angle_alpha 90.000000
_cell_angle_beta 90.000000
_cell_angle_gamma 90.000000
_cell_volume 1634.065797
_symmetry_space_group_name_H-M "I 21 21 21"
_symmetry_group_IT_number 24
_symmetry_cell_setting 'orthorhombic'
loop_
_space_group_symop_operation_xyz
x,y,z
-x,1/2-y,z
x,-y,1/2-z
1/2-x,y,-z
1/2+x,1/2+y,1/2+z
1/2-x,-y,1/2+z
1/2+x,1/2-y,-z
-x,1/2+y,1/2-z
loop_
_atom_site_type_symbol
_atom_site_label
_atom_site_fract_x
_atom_site_fract_y
_atom_site_fract_z
Si Si1 0.266572 0.178439 0.423993
Si Si2 0.934924 0.009197 0.583811
Si Si3 0.918155 0.511568 0.325578
Si Si4 0.500000 0.750000 0.517665
Si Si5 0.705675 0.802572 0.630768
O O1 0.250000 0.138057 0.500000
O O2 0.414099 0.093251 0.398661
O O3 0.309798 0.358778 0.425320
O O4 0.138404 0.122241 0.374254
O O5 0.860147 0.888348 0.631126
O O6 0.975159 0.903341 0.522982
O O7 0.942078 0.500000 0.250000
O O8 0.798846 0.649805 0.328662
O O9 0.073440 0.581099 0.351134
O O10 0.647830 0.741374 0.561676
#
# Coordination Sequence:
#
# PCOD9333136 Si02
#       5
#     8   8   8   4   8
#     4  11  23  40  63  95 131 164 206 264 318 372
#     4  11  23  38  61  95 127 165 210 259 321 376
#     4  10  23  43  64  91 124 165 213 262 313 376
#     4  10  18  34  58  88 124 158 200 248 306 372
#     4  10  22  39  63  90 122 168 212 257 314 381
#
# _framework density 22.030936000000001
#
# number of rings (size 3 to 8) (size 9 to 14) (size 15 to 20)
#    0.000    1.778    0.000    6.000    0.000    8.000 
#    0.000    5.556    0.000    0.000    0.000    0.000 
#    0.000    0.000    0.000    0.000    0.000    0.000 
#
# Total GULP energy -100333.235129 kJ/mol
# GULP energy per Si atom -5574.068618 kJ/mol
# Density = 2.198079 g / cm^3
# Si number density = 22.030936 Si / 1000 Ang^3
#
#
#
# Elastic Constant Matrix: (Units=GPa)
#
#
# Indices 1 2 3 4 5 6 
#
# 1 59.2223 39.9291 28.5065 0.0000 0.0000 0.0000
# 2 39.9291 97.6517 33.4384 0.0000 0.0000 0.0000
# 3 28.5065 33.4384 97.8584 0.0000 0.0000 0.0000
# 4 0.0000 0.0000 0.0000 0.4993 0.0000 0.0000
# 5 0.0000 0.0000 0.0000 0.0000 -1.0488 0.0000
# 6 0.0000 0.0000 0.0000 0.0000 0.0000 45.4218
#
#
#
# Elastic Compliance Matrix: (Units=1/GPa)
#
#
# Indices 1 2 3 4 5 6 
#
# 1 0.024784 -0.008677 -0.004255 0.000000 0.000000 0.000000
# 2 -0.008677 0.014635 -0.002473 0.000000 0.000000 0.000000
# 3 -0.004255 -0.002473 0.012303 0.000000 0.000000 0.000000
# 4 0.000000 0.000000 0.000000 2.002658 0.000000 0.000000
# 5 0.000000 0.000000 0.000000 0.000000 -0.953508 0.000000
# 6 0.000000 0.000000 0.000000 0.000000 0.000000 0.022016
#
#
# Mechanical properties :
#
#
# Convention : Reuss Voigt Hill
#
# Bulk Modulus (GPa) = 47.81807 50.94226 49.38017
# Shear Modulus (GPa) = 4.30786 19.16502 11.73644
#
# Velocity S-wave (km/s) = 1.39986 2.95263 2.31059
# Velocity P-wave (km/s) = 4.93608 5.89892 5.43885
#
# Compressibility (1/GPa) = 0.02091260
#
# Stress axis : x y z
#
# Youngs Moduli (GPa) = 40.34898 68.32766 81.27855
#
# Poissons Ratio (x) = 0.59288 0.34581
# Poissons Ratio (y) = 0.35011 0.20102
# Poissons Ratio (z) = 0.17167 0.16899
#
# Static dielectric constant tensor:
#      x y z
#    x 1.833070 0.000000 0.000000 
#    y 0.000000 1.877930 0.000000 
#    z 0.000000 0.000000 1.873540 
# 
# From -- ./inp_files/32493.got.cif
#   From: 2010.05.17/outbox.cif.g08.bks.cpg/sg24_17_cif.got.tgz:32493.got - 2010.06.04 00:33:39.
