data_PCOD9333168
_publ_section_title
;
Structure prediction by ZEFSAII (Michael W. Deem and Ramdas Pophale) SiO2 
 PCOD9333168
Probable space group: I 21 21 21
;
_chemical_formula_sum "Si O2"
_cell_formula_units_Z 64
_cell_length_a 18.328060
_cell_length_b 20.985707
_cell_length_c 8.881672
_cell_angle_alpha 90.000000
_cell_angle_beta 90.000000
_cell_angle_gamma 90.000000
_cell_volume 3416.133495
_symmetry_space_group_name_H-M "I 21 21 21"
_symmetry_group_IT_number 24
_symmetry_cell_setting 'orthorhombic'
loop_
_space_group_symop_operation_xyz
x,y,z
-x,1/2-y,z
x,-y,1/2-z
1/2-x,y,-z
1/2+x,1/2+y,1/2+z
1/2-x,-y,1/2+z
1/2+x,1/2-y,-z
-x,1/2+y,1/2-z
loop_
_atom_site_type_symbol
_atom_site_label
_atom_site_fract_x
_atom_site_fract_y
_atom_site_fract_z
Si Si1 0.943740 0.050293 0.001990
Si Si2 0.530218 0.094979 0.513015
Si Si3 0.693853 0.321839 0.871918
Si Si4 0.145482 0.387053 0.237304
Si Si5 0.575546 0.157594 0.231253
Si Si6 0.421220 0.925004 0.721719
Si Si7 0.765834 0.794436 0.821919
Si Si8 0.570603 0.772274 0.561190
O O1 0.879089 0.055075 0.128415
O O2 0.017720 0.076729 0.086429
O O3 0.963570 0.978266 0.961982
O O4 0.917179 0.090454 0.858723
O O5 0.605032 0.106498 0.604390
O O6 0.526307 0.142895 0.374736
O O7 0.465147 0.099669 0.632290
O O8 0.650096 0.381587 0.801693
O O9 0.733446 0.269059 0.762516
O O10 0.629639 0.282255 0.952792
O O11 0.750000 0.342993 0.000000
O O12 0.225540 0.359176 0.262784
O O13 0.107782 0.329048 0.149278
O O14 0.650055 0.191355 0.284387
O O15 0.545450 0.200301 0.097479
O O16 0.404839 0.000000 0.750000
O O17 0.750000 0.788042 0.000000
O O18 0.500000 0.750000 0.650418
#
# Coordination Sequence:
#
# PCOD9333168 Si02
#       8
#     8   8   8   8   8   8   8   8
#     4   9  19  34  58  85 112 150 202 252 287 351
#     4  10  18  35  55  84 116 152 190 247 306 340
#     4  11  21  39  65  86 115 160 202 244 301 362
#     4   9  18  32  55  71 107 155 196 239 291 345
#     4  11  20  34  53  81 121 155 191 241 302 348
#     4   9  20  41  66  89 115 149 200 249 300 360
#     4  11  22  38  51  78 123 163 189 243 304 362
#     4  10  20  35  55  83 110 147 205 249 288 352
#
# _framework density 18.734631
#
# number of rings (size 3 to 8) (size 9 to 14) (size 15 to 20)
#    0.000    2.000    2.500    3.750    0.000    0.000 
#    2.250    5.000    0.000    3.000    0.000    0.000 
#    0.000    0.000    0.000    0.000    0.000    0.000 
#
# Total GULP energy -178139.611475 kJ/mol
# GULP energy per Si atom -5566.862859 kJ/mol
# Density = 1.869199 g / cm^3
# Si number density = 18.734631 Si / 1000 Ang^3
#
#
#
# Elastic Constant Matrix: (Units=GPa)
#
#
# Indices 1 2 3 4 5 6 
#
# 1 57.1712 44.2465 12.5531 0.0000 0.0000 0.0000
# 2 44.2465 76.8263 27.9001 0.0000 0.0000 0.0000
# 3 12.5531 27.9001 74.6658 0.0000 0.0000 0.0000
# 4 0.0000 0.0000 0.0000 -88.7491 0.0000 0.0000
# 5 0.0000 0.0000 0.0000 0.0000 27.6458 0.0000
# 6 0.0000 0.0000 0.0000 0.0000 0.0000 26.5088
#
#
#
# Elastic Compliance Matrix: (Units=1/GPa)
#
#
# Indices 1 2 3 4 5 6 
#
# 1 0.031749 -0.018913 0.001729 0.000000 0.000000 0.000000
# 2 -0.018913 0.026327 -0.006658 0.000000 0.000000 0.000000
# 3 0.001729 -0.006658 0.015590 0.000000 0.000000 0.000000
# 4 0.000000 0.000000 0.000000 -0.011268 0.000000 0.000000
# 5 0.000000 0.000000 0.000000 0.000000 0.036172 0.000000
# 6 0.000000 0.000000 0.000000 0.000000 0.000000 0.037723
#
#
# Mechanical properties :
#
#
# Convention : Reuss Voigt Hill
#
# Bulk Modulus (GPa) = 38.48673 42.00697 40.24685
# Shear Modulus (GPa) = 25.95543 1.34535 13.65039
#
# Velocity S-wave (km/s) = 3.72617 0.84833 2.70222
# Velocity P-wave (km/s) = 6.25301 4.84049 5.59153
#
# Compressibility (1/GPa) = 0.02598298
#
# Stress axis : x y z
#
# Youngs Moduli (GPa) = 31.49677 37.98385 64.14366
#
# Poissons Ratio (x) = 0.71840 -0.11093
# Poissons Ratio (y) = 0.59571 0.42705
# Poissons Ratio (z) = -0.05447 0.25288
#
# Static dielectric constant tensor:
#      x y z
#    x 1.695720 0.000000 0.000000 
#    y 0.000000 1.680320 0.000000 
#    z 0.000000 0.000000 1.668970 
# 
# From -- ./inp_files/14604.got.cif
#   From: 2010.05.17/outbox.cif.g08.bks.cpg/sg24_8_cif.got.tgz:14604.got - 2010.06.04 00:33:39.
