data_PCOD9333622
_publ_section_title
;
Structure prediction by ZEFSAII (Michael W. Deem and Ramdas Pophale) SiO2 
 PCOD9333622
Probable space group: I 21 21 21
;
_chemical_formula_sum "Si O2"
_cell_formula_units_Z 60
_cell_length_a 15.501268
_cell_length_b 9.539048
_cell_length_c 17.836387
_cell_angle_alpha 90.000000
_cell_angle_beta 90.000000
_cell_angle_gamma 90.000000
_cell_volume 2637.419092
_symmetry_space_group_name_H-M "I 21 21 21"
_symmetry_group_IT_number 24
_symmetry_cell_setting 'orthorhombic'
loop_
_space_group_symop_operation_xyz
x,y,z
-x,1/2-y,z
x,-y,1/2-z
1/2-x,y,-z
1/2+x,1/2+y,1/2+z
1/2-x,-y,1/2+z
1/2+x,1/2-y,-z
-x,1/2+y,1/2-z
loop_
_atom_site_type_symbol
_atom_site_label
_atom_site_fract_x
_atom_site_fract_y
_atom_site_fract_z
Si Si1 0.768883 0.983615 0.662003
Si Si2 0.837479 0.758556 0.113908
Si Si3 0.328620 0.326358 0.950889
Si Si4 0.000000 0.750000 0.734267
Si Si5 0.146896 0.970313 0.409724
Si Si6 0.467770 0.449481 0.521829
Si Si7 0.427596 0.148626 0.766373
Si Si8 0.535688 0.010712 0.352562
O O1 0.737314 0.129052 0.626305
O O2 0.867313 0.948685 0.642033
O O3 0.762190 0.000000 0.750000
O O4 0.701908 0.869256 0.632006
O O5 0.797822 0.610568 0.087628
O O6 0.905506 0.830811 0.056908
O O7 0.886334 0.721381 0.192865
O O8 0.335517 0.161326 0.961510
O O9 0.415025 0.405993 0.970252
O O10 0.250000 0.384123 0.000000
O O11 0.044508 0.642356 0.794778
O O12 0.976200 0.619522 0.677397
O O13 0.142013 0.904436 0.326626
O O14 0.052922 0.030866 0.429703
O O15 0.489525 0.433723 0.434322
O O16 0.500000 0.250000 0.799821
O O17 0.474154 0.000000 0.750000
#
# Coordination Sequence:
#
# PCOD9333622 Si02
#       8
#     8   8   8   4   8   8   8   8
#     4  11  22  44  69  91 131 178 219 262 342 413
#     4  10  23  39  63  99 132 177 221 265 330 408
#     4  11  23  40  61  96 130 171 222 270 331 409
#     4  10  24  46  70 104 126 162 232 288 342 400
#     4  11  23  39  59  98 134 174 221 272 337 383
#     4  11  23  41  69  96 135 182 226 276 341 403
#     4  10  19  35  59  88 134 169 217 264 303 392
#     4  11  24  45  74  99 131 169 228 291 340 408
#
# _framework density 22.749513
#
# number of rings (size 3 to 8) (size 9 to 14) (size 15 to 20)
#    0.000    1.333    2.667    4.000    3.733    2.667 
#    2.400    2.667    2.933    0.000    0.000    0.000 
#    0.000    0.000    0.000    0.000    0.000    0.000 
#
# Total GULP energy -167257.239527 kJ/mol
# GULP energy per Si atom -5575.241318 kJ/mol
# Density = 2.269773 g / cm^3
# Si number density = 22.749513 Si / 1000 Ang^3
#
#
#
# Elastic Constant Matrix: (Units=GPa)
#
#
# Indices 1 2 3 4 5 6 
#
# 1 14.5824 14.2084 -4.5942 0.0000 0.0000 0.0000
# 2 14.2084 167.5199 7.4769 0.0000 0.0000 0.0000
# 3 -4.5942 7.4769 116.3018 0.0000 0.0000 0.0000
# 4 0.0000 0.0000 0.0000 16.6348 0.0000 0.0000
# 5 0.0000 0.0000 0.0000 0.0000 21.6281 0.0000
# 6 0.0000 0.0000 0.0000 0.0000 0.0000 16.0074
#
#
#
# Elastic Compliance Matrix: (Units=1/GPa)
#
#
# Indices 1 2 3 4 5 6 
#
# 1 0.076095 -0.006607 0.003431 0.000000 0.000000 0.000000
# 2 -0.006607 0.006560 -0.000683 0.000000 0.000000 0.000000
# 3 0.003431 -0.000683 0.008778 0.000000 0.000000 0.000000
# 4 0.000000 0.000000 0.000000 0.060115 0.000000 0.000000
# 5 0.000000 0.000000 0.000000 0.000000 0.046236 0.000000
# 6 0.000000 0.000000 0.000000 0.000000 0.000000 0.062471
#
#
# Mechanical properties :
#
#
# Convention : Reuss Voigt Hill
#
# Bulk Modulus (GPa) = 11.94541 36.95402 24.44971
# Shear Modulus (GPa) = 16.89887 29.60828 23.25358
#
# Velocity S-wave (km/s) = 2.72844 3.61153 3.20059
# Velocity P-wave (km/s) = 3.89719 5.80259 4.94257
#
# Compressibility (1/GPa) = 0.08371419
#
# Stress axis : x y z
#
# Youngs Moduli (GPa) = 13.14154 152.43181 113.92462
#
# Poissons Ratio (x) = 1.00714 -0.39084
# Poissons Ratio (y) = 0.08683 0.07778
# Poissons Ratio (z) = -0.04508 0.10407
#
# Static dielectric constant tensor:
#      x y z
#    x 1.805730 0.000000 0.000000 
#    y 0.000000 1.876370 0.000000 
#    z 0.000000 0.000000 1.958310 
# 
# From -- ./inp_files/31190.got.cif
#   From: 2010.05.17/outbox.cif.g08.bks.cpg/sg24_16_cif.got.tgz:31190.got - 2010.06.04 00:33:39.
