data_PCOD9333833
_publ_section_title
;
Structure prediction by ZEFSAII (Michael W. Deem and Ramdas Pophale) SiO2 
 PCOD9333833
Probable space group: I 21 21 21
;
_chemical_formula_sum "Si O2"
_cell_formula_units_Z 44
_cell_length_a 23.712988
_cell_length_b 5.221257
_cell_length_c 13.905445
_cell_angle_alpha 90.000000
_cell_angle_beta 90.000000
_cell_angle_gamma 90.000000
_cell_volume 1721.655458
_symmetry_space_group_name_H-M "I 21 21 21"
_symmetry_group_IT_number 24
_symmetry_cell_setting 'orthorhombic'
loop_
_space_group_symop_operation_xyz
x,y,z
-x,1/2-y,z
x,-y,1/2-z
1/2-x,y,-z
1/2+x,1/2+y,1/2+z
1/2-x,-y,1/2+z
1/2+x,1/2-y,-z
-x,1/2+y,1/2-z
loop_
_atom_site_type_symbol
_atom_site_label
_atom_site_fract_x
_atom_site_fract_y
_atom_site_fract_z
Si Si1 0.461266 0.000000 0.750000
Si Si2 0.561529 0.731462 0.489923
Si Si3 0.561551 0.216897 0.367235
Si Si4 0.687637 0.752724 0.149928
Si Si5 0.261891 0.757586 0.362566
Si Si6 0.869305 0.810015 0.343134
O O1 0.500000 0.750000 0.770521
O O2 0.414714 0.920258 0.670740
O O3 0.500000 0.750000 0.538860
O O4 0.566147 0.439213 0.451240
O O5 0.606084 0.890987 0.554889
O O6 0.559472 0.921425 0.399396
O O7 0.500000 0.250000 0.320367
O O8 0.622575 0.247757 0.320355
O O9 0.721372 0.748020 0.249947
O O10 0.706442 0.500414 0.093900
O O11 0.710210 0.002160 0.096171
O O12 0.194745 0.769574 0.359693
O O13 0.872712 0.000000 0.250000
#
# Coordination Sequence:
#
# PCOD9333833 Si02
#       6
#     4   8   8   8   8   8
#     4  12  26  38  58  92 122 162 216 264 316 360
#     4  10  24  41  61  90 125 164 216 256 313 381
#     4  10  22  43  65  89 126 170 205 260 320 389
#     4  10  19  40  64  90 126 164 204 264 320 371
#     4  10  22  38  64  94 125 163 209 265 315 379
#     4  12  25  42  66  89 130 172 211 266 321 370
#
# _framework density 25.556797
#
# number of rings (size 3 to 8) (size 9 to 14) (size 15 to 20)
#    0.000    1.455    2.727    2.727    2.545    0.727 
#    0.000    9.091    0.000    0.000    0.000    0.000 
#    0.000    0.000    0.000    0.000    0.000    0.000 
#
# Total GULP energy -122679.819740 kJ/mol
# GULP energy per Si atom -5576.355443 kJ/mol
# Density = 2.549863 g / cm^3
# Si number density = 25.556797 Si / 1000 Ang^3
#
#
#
# Elastic Constant Matrix: (Units=GPa)
#
#
# Indices 1 2 3 4 5 6 
#
# 1 274.3731 55.4605 29.9890 0.0000 0.0000 0.0000
# 2 55.4605 206.3198 4.9461 0.0000 0.0000 0.0000
# 3 29.9890 4.9461 43.7101 0.0000 0.0000 0.0000
# 4 0.0000 0.0000 0.0000 19.8001 0.0000 0.0000
# 5 0.0000 0.0000 0.0000 0.0000 66.7117 0.0000
# 6 0.0000 0.0000 0.0000 0.0000 0.0000 14.8480
#
#
#
# Elastic Compliance Matrix: (Units=1/GPa)
#
#
# Indices 1 2 3 4 5 6 
#
# 1 0.004156 -0.001052 -0.002732 0.000000 0.000000 0.000000
# 2 -0.001052 0.005126 0.000141 0.000000 0.000000 0.000000
# 3 -0.002732 0.000141 0.024737 0.000000 0.000000 0.000000
# 4 0.000000 0.000000 0.000000 0.050505 0.000000 0.000000
# 5 0.000000 0.000000 0.000000 0.000000 0.014990 0.000000
# 6 0.000000 0.000000 0.000000 0.000000 0.000000 0.067349
#
#
# Mechanical properties :
#
#
# Convention : Reuss Voigt Hill
#
# Bulk Modulus (GPa) = 37.40600 78.35492 57.88046
# Shear Modulus (GPa) = 27.31368 49.20580 38.25974
#
# Velocity S-wave (km/s) = 3.27271 4.39264 3.87337
# Velocity P-wave (km/s) = 5.38043 7.51351 6.53459
#
# Compressibility (1/GPa) = 0.02673368
#
# Stress axis : x y z
#
# Youngs Moduli (GPa) = 240.62260 195.07846 40.42588
#
# Poissons Ratio (x) = 0.20515 0.11046
# Poissons Ratio (y) = 0.25305 -0.00572
# Poissons Ratio (z) = 0.65745 -0.02759
#
# Static dielectric constant tensor:
#      x y z
#    x 2.000820 0.000000 0.000000 
#    y 0.000000 2.048660 0.000000 
#    z 0.000000 0.000000 4.605010 
# 
# From -- ./inp_files/34051.got.cif
#   From: 2010.05.17/outbox.cif.g08.bks.cpg/sg24_18_cif.got.tgz:34051.got - 2010.06.04 00:33:39.
