data_PCOD9333914
_publ_section_title
;
Structure prediction by ZEFSAII (Michael W. Deem and Ramdas Pophale) SiO2 
 PCOD9333914
Probable space group: I 21 21 21
;
_chemical_formula_sum "Si O2"
_cell_formula_units_Z 64
_cell_length_a 12.131498
_cell_length_b 15.228058
_cell_length_c 19.814289
_cell_angle_alpha 90.000000
_cell_angle_beta 90.000000
_cell_angle_gamma 90.000000
_cell_volume 3660.475010
_symmetry_space_group_name_H-M "I 21 21 21"
_symmetry_group_IT_number 24
_symmetry_cell_setting 'orthorhombic'
loop_
_space_group_symop_operation_xyz
x,y,z
-x,1/2-y,z
x,-y,1/2-z
1/2-x,y,-z
1/2+x,1/2+y,1/2+z
1/2-x,-y,1/2+z
1/2+x,1/2-y,-z
-x,1/2+y,1/2-z
loop_
_atom_site_type_symbol
_atom_site_label
_atom_site_fract_x
_atom_site_fract_y
_atom_site_fract_z
Si Si1 0.112390 1.000000 0.828800
Si Si2 0.316834 1.000000 0.929475
Si Si3 0.999579 0.855478 0.448480
Si Si4 0.465198 0.650405 0.108331
Si Si5 0.262261 0.397090 0.924103
Si Si6 0.762261 0.897089 0.075897
Si Si7 0.499579 0.355478 0.551519
Si Si8 0.534802 0.150405 0.108331
O O1 0.038243 0.083866 0.849113
O O2 0.136055 0.000000 0.750000
O O3 0.224690 1.000000 0.871749
O O4 0.038242 0.916134 0.849112
O O5 0.395324 0.913476 0.927144
O O6 0.395324 0.086523 0.927143
O O7 0.250000 0.000000 0.000000
O O8 0.000000 0.750000 0.441137
O O9 0.890366 0.886201 0.408704
O O10 0.984396 0.873682 0.528928
O O11 0.500000 0.750000 0.118235
O O12 0.334091 0.643095 0.120614
O O13 0.484396 0.626318 0.028928
O O14 0.236190 0.500000 0.927553
O O15 0.165909 0.356906 0.879387
O O16 0.250000 0.358213 0.000000
O O17 0.890366 0.886201 0.091295
O O18 0.750000 0.858212 0.000000
O O19 0.500000 0.250000 0.558862
O O20 0.500000 0.250000 0.118234
#
# Coordination Sequence:
#
# PCOD9333914 Si02
#       8
#     8   8   8   8   8   8   8   8
#     4  12  26  41  57  81 121 165 200 243 293 350
#     4  12  22  37  61  86 121 157 201 247 294 352
#     4  10  20  32  57  93 119 147 185 245 302 345
#     4  10  20  35  58  87 118 148 190 240 297 354
#     4   9  16  29  51  80 116 144 177 228 287 346
#     4   9  16  29  51  80 116 144 177 228 287 346
#     4  10  20  32  57  93 119 147 185 245 302 345
#     4  10  20  35  58  87 118 148 190 240 297 354
#
# _framework density 17.484069999999999
#
# number of rings (size 3 to 8) (size 9 to 14) (size 15 to 20)
#    0.000    1.750    5.000    0.000    3.500    1.500 
#    0.000    0.000    0.000    3.750    0.000    0.000 
#    0.000    0.000    0.000    0.000    0.000    0.000 
#
# Total GULP energy -178335.595260 kJ/mol
# GULP energy per Si atom -5572.987352 kJ/mol
# Density = 1.744428 g / cm^3
# Si number density = 17.484070 Si / 1000 Ang^3
#
#
#
# Elastic Constant Matrix: (Units=GPa)
#
#
# Indices 1 2 3 4 5 6 
#
# 1 171.8839 64.9513 56.2072 0.0000 0.0000 0.0000
# 2 64.9513 96.5598 36.1881 0.0000 0.0000 0.0000
# 3 56.2072 36.1881 70.4264 0.0000 0.0000 0.0000
# 4 0.0000 0.0000 0.0000 8.2329 0.0000 0.0000
# 5 0.0000 0.0000 0.0000 0.0000 13.9878 0.0000
# 6 0.0000 0.0000 0.0000 0.0000 0.0000 21.5600
#
#
#
# Elastic Compliance Matrix: (Units=1/GPa)
#
#
# Indices 1 2 3 4 5 6 
#
# 1 0.009063 -0.004193 -0.005079 0.000000 0.000000 0.000000
# 2 -0.004193 0.014766 -0.004241 0.000000 0.000000 0.000000
# 3 -0.005079 -0.004241 0.020432 0.000000 0.000000 0.000000
# 4 0.000000 0.000000 0.000000 0.121464 0.000000 0.000000
# 5 0.000000 0.000000 0.000000 0.000000 0.071491 0.000000
# 6 0.000000 0.000000 0.000000 0.000000 0.000000 0.046382
#
#
# Mechanical properties :
#
#
# Convention : Reuss Voigt Hill
#
# Bulk Modulus (GPa) = 58.01980 72.61818 65.31899
# Shear Modulus (GPa) = 15.80432 20.85769 18.33101
#
# Velocity S-wave (km/s) = 3.00980 3.45766 3.24148
# Velocity P-wave (km/s) = 6.73312 7.58714 7.17285
#
# Compressibility (1/GPa) = 0.01723550
#
# Stress axis : x y z
#
# Youngs Moduli (GPa) = 110.33777 67.72258 48.94330
#
# Poissons Ratio (x) = 0.28396 0.24857
# Poissons Ratio (y) = 0.46264 0.20757
# Poissons Ratio (z) = 0.56037 0.28722
#
# Static dielectric constant tensor:
#      x y z
#    x 1.638590 0.000000 0.000000 
#    y 0.000000 1.646840 0.000000 
#    z 0.000000 0.000000 1.573660 
# 
# From -- ./inp_files/30375.got.cif
#   From: 2010.05.17/outbox.cif.g08.bks.cpg/sg24_16_cif.got.tgz:30375.got - 2010.06.04 00:33:39.
