data_PCOD9333888
_publ_section_title
;
Structure prediction by ZEFSAII (Michael W. Deem and Ramdas Pophale) SiO2 
 PCOD9333888
Probable space group: I 21 21 21
;
_chemical_formula_sum "Si O2"
_cell_formula_units_Z 52
_cell_length_a 12.650226
_cell_length_b 7.449093
_cell_length_c 28.810125
_cell_angle_alpha 90.000000
_cell_angle_beta 90.000000
_cell_angle_gamma 90.000000
_cell_volume 2714.856153
_symmetry_space_group_name_H-M "I 21 21 21"
_symmetry_group_IT_number 24
_symmetry_cell_setting 'orthorhombic'
loop_
_space_group_symop_operation_xyz
x,y,z
-x,1/2-y,z
x,-y,1/2-z
1/2-x,y,-z
1/2+x,1/2+y,1/2+z
1/2-x,-y,1/2+z
1/2+x,1/2-y,-z
-x,1/2+y,1/2-z
loop_
_atom_site_type_symbol
_atom_site_label
_atom_site_fract_x
_atom_site_fract_y
_atom_site_fract_z
Si Si1 0.484631 0.467019 0.942051
Si Si2 0.738487 0.385816 0.355138
Si Si3 0.500000 0.750000 0.765978
Si Si4 0.538369 0.449809 0.839602
Si Si5 0.080618 0.902382 0.704198
Si Si6 0.822101 0.268122 0.455288
Si Si7 0.767029 0.206516 0.258541
O O1 0.500000 0.250000 0.949037
O O2 0.483420 0.508163 0.887213
O O3 0.380188 0.573133 0.958521
O O4 0.586836 0.578825 0.958677
O O5 0.836830 0.523402 0.348282
O O6 0.628245 0.479045 0.338239
O O7 0.757926 0.303388 0.406536
O O8 0.755932 0.245150 0.313301
O O9 0.497129 0.576145 0.799043
O O10 0.384560 0.763446 0.744045
O O11 0.500000 0.250000 0.833652
O O12 0.182686 0.815053 0.728863
O O13 0.000000 0.750000 0.687837
O O14 0.029529 0.000000 0.750000
O O15 0.750000 0.287455 0.500000
O O16 0.751624 0.000000 0.250000
#
# Coordination Sequence:
#
# PCOD9333888 Si02
#       7
#     8   8   4   8   8   8   8
#     4   9  18  35  60  88 120 162 199 238 310 385
#     4   9  20  38  57  87 114 153 211 249 307 380
#     4  10  20  32  48  86 126 144 188 244 300 360
#     4   9  17  31  55  83 118 153 185 236 299 365
#     4  10  21  39  60  80 115 164 215 258 306 369
#     4  10  20  38  64  89 125 159 198 259 316 374
#     4  10  21  35  56  81 116 158 200 252 310 367
#
# _framework density 19.153869
#
# number of rings (size 3 to 8) (size 9 to 14) (size 15 to 20)
#    0.000    2.462    0.000    3.231    2.154    3.692 
#    2.769    0.769   20.308    0.000    0.000    0.000 
#    0.000    0.000    0.000    0.000    0.000    0.000 
#
# Total GULP energy -144911.906936 kJ/mol
# GULP energy per Si atom -5573.534882 kJ/mol
# Density = 1.911027 g / cm^3
# Si number density = 19.153869 Si / 1000 Ang^3
#
#
#
# Elastic Constant Matrix: (Units=GPa)
#
#
# Indices 1 2 3 4 5 6 
#
# 1 80.0330 27.9483 52.1201 0.0000 0.0000 0.0000
# 2 27.9483 101.9130 32.6371 0.0000 0.0000 0.0000
# 3 52.1201 32.6371 124.8154 0.0000 0.0000 0.0000
# 4 0.0000 0.0000 0.0000 6.6730 0.0000 0.0000
# 5 0.0000 0.0000 0.0000 0.0000 17.0057 0.0000
# 6 0.0000 0.0000 0.0000 0.0000 0.0000 33.8818
#
#
#
# Elastic Compliance Matrix: (Units=1/GPa)
#
#
# Indices 1 2 3 4 5 6 
#
# 1 0.017834 -0.002735 -0.006732 0.000000 0.000000 0.000000
# 2 -0.002735 0.011128 -0.001768 0.000000 0.000000 0.000000
# 3 -0.006732 -0.001768 0.011285 0.000000 0.000000 0.000000
# 4 0.000000 0.000000 0.000000 0.149857 0.000000 0.000000
# 5 0.000000 0.000000 0.000000 0.000000 0.058804 0.000000
# 6 0.000000 0.000000 0.000000 0.000000 0.000000 0.029514
#
#
# Mechanical properties :
#
#
# Convention : Reuss Voigt Hill
#
# Bulk Modulus (GPa) = 56.24855 59.13029 57.68942
# Shear Modulus (GPa) = 16.29629 24.44916 20.37273
#
# Velocity S-wave (km/s) = 2.92003 3.57663 3.26488
# Velocity P-wave (km/s) = 6.38742 6.92782 6.66310
#
# Compressibility (1/GPa) = 0.01777824
#
# Stress axis : x y z
#
# Youngs Moduli (GPa) = 56.07284 89.85982 88.61151
#
# Poissons Ratio (x) = 0.24575 0.59653
# Poissons Ratio (y) = 0.15335 0.15666
# Poissons Ratio (z) = 0.37748 0.15886
#
# Static dielectric constant tensor:
#      x y z
#    x 1.694380 0.000000 0.000000 
#    y 0.000000 1.838930 0.000000 
#    z 0.000000 0.000000 1.752500 
# 
# From -- ./inp_files/37164.got.cif
#   From: 2010.05.17/outbox.cif.g08.bks.cpg/sg24_19_cif.got.tgz:37164.got - 2010.06.04 00:33:39.
