data_PCOD9333373
_publ_section_title
;
Structure prediction by ZEFSAII (Michael W. Deem and Ramdas Pophale) SiO2 
 PCOD9333373
Probable space group: I 21 21 21
;
_chemical_formula_sum "Si O2"
_cell_formula_units_Z 44
_cell_length_a 16.325638
_cell_length_b 5.582444
_cell_length_c 19.296427
_cell_angle_alpha 90.000000
_cell_angle_beta 90.000000
_cell_angle_gamma 90.000000
_cell_volume 1758.617694
_symmetry_space_group_name_H-M "I 21 21 21"
_symmetry_group_IT_number 24
_symmetry_cell_setting 'orthorhombic'
loop_
_space_group_symop_operation_xyz
x,y,z
-x,1/2-y,z
x,-y,1/2-z
1/2-x,y,-z
1/2+x,1/2+y,1/2+z
1/2-x,-y,1/2+z
1/2+x,1/2-y,-z
-x,1/2+y,1/2-z
loop_
_atom_site_type_symbol
_atom_site_label
_atom_site_fract_x
_atom_site_fract_y
_atom_site_fract_z
Si Si1 0.820945 0.750177 0.706770
Si Si2 0.150605 0.373038 0.994680
Si Si3 0.349970 0.350823 0.845255
Si Si4 0.500000 0.250000 0.206853
Si Si5 0.591414 0.651658 0.842267
Si Si6 0.349105 0.129678 0.498307
O O1 0.811672 0.500000 0.750000
O O2 0.743993 0.766526 0.656012
O O3 0.910638 0.750561 0.673355
O O4 0.816738 0.000000 0.750000
O O5 0.121754 0.379491 0.075074
O O6 0.124325 0.624458 0.962327
O O7 0.123207 0.119000 0.966643
O O8 0.250000 0.375300 0.000000
O O9 0.356212 0.620484 0.814985
O O10 0.398688 0.121194 0.815070
O O11 0.501053 0.500000 0.250000
O O12 0.500000 0.750000 0.837420
O O13 0.619820 0.627909 0.922546
O O14 0.250000 0.129873 0.500000
#
# Coordination Sequence:
#
# PCOD9333373 Si02
#       6
#     8   8   8   4   8   8
#     4  10  19  33  53  77 103 130 169 209 252 313
#     4   8  14  25  42  67  89 117 157 191 235 286
#     4  10  19  31  50  74  97 135 168 213 252 299
#     4   8  16  30  50  76 100 124 158 200 244 296
#     4  10  19  31  48  72  97 129 177 213 245 299
#     4   8  14  25  42  65  86 117 152 200 243 280
#
# _framework density 25.019653000000002
#
# number of rings (size 3 to 8) (size 9 to 14) (size 15 to 20)
#    0.000    2.909    0.000    1.636    0.000    0.000 
#    0.000    0.000    0.000   10.909   75.636    0.000 
#    5.455    0.000    0.000    0.000    0.000    0.000 
#
# Total GULP energy -122655.786771 kJ/mol
# GULP energy per Si atom -5575.263035 kJ/mol
# Density = 2.496271 g / cm^3
# Si number density = 25.019653 Si / 1000 Ang^3
#
#
#
# Elastic Constant Matrix: (Units=GPa)
#
#
# Indices 1 2 3 4 5 6 
#
# 1 102.0552 14.6363 8.3034 0.0000 0.0000 0.0000
# 2 14.6363 320.9848 38.4295 0.0000 0.0000 0.0000
# 3 8.3034 38.4295 61.6052 0.0000 0.0000 0.0000
# 4 0.0000 0.0000 0.0000 19.8269 0.0000 0.0000
# 5 0.0000 0.0000 0.0000 0.0000 17.5499 0.0000
# 6 0.0000 0.0000 0.0000 0.0000 0.0000 36.6792
#
#
#
# Elastic Compliance Matrix: (Units=1/GPa)
#
#
# Indices 1 2 3 4 5 6 
#
# 1 0.009937 -0.000316 -0.001142 0.000000 0.000000 0.000000
# 2 -0.000316 0.003377 -0.002064 0.000000 0.000000 0.000000
# 3 -0.001142 -0.002064 0.017674 0.000000 0.000000 0.000000
# 4 0.000000 0.000000 0.000000 0.050437 0.000000 0.000000
# 5 0.000000 0.000000 0.000000 0.000000 0.056980 0.000000
# 6 0.000000 0.000000 0.000000 0.000000 0.000000 0.027263
#
#
# Mechanical properties :
#
#
# Convention : Reuss Voigt Hill
#
# Bulk Modulus (GPa) = 41.76566 67.48707 54.62636
# Shear Modulus (GPa) = 27.67114 43.02959 35.35036
#
# Velocity S-wave (km/s) = 3.32923 4.15158 3.76294
# Velocity P-wave (km/s) = 5.61318 7.07199 6.38439
#
# Compressibility (1/GPa) = 0.02394312
#
# Stress axis : x y z
#
# Youngs Moduli (GPa) = 100.63496 296.12634 56.58093
#
# Poissons Ratio (x) = 0.09369 0.06461
# Poissons Ratio (y) = 0.03184 0.11678
# Poissons Ratio (z) = 0.11492 0.61118
#
# Static dielectric constant tensor:
#      x y z
#    x 1.923080 0.000000 0.000000 
#    y 0.000000 2.091260 0.000000 
#    z 0.000000 0.000000 1.899500 
# 
# From -- ./inp_files/3673.got.cif
#   From: 2010.05.17/outbox.cif.g08.bks.cpg/sg24_2_cif.got.tgz:3673.got - 2010.06.04 00:33:39.
