data_PCOD9333420
_publ_section_title
;
Structure prediction by ZEFSAII (Michael W. Deem and Ramdas Pophale) SiO2 
 PCOD9333420
Probable space group: I 21 21 21
;
_chemical_formula_sum "Si O2"
_cell_formula_units_Z 56
_cell_length_a 14.623943
_cell_length_b 21.943988
_cell_length_c 9.001135
_cell_angle_alpha 90.000000
_cell_angle_beta 90.000000
_cell_angle_gamma 90.000000
_cell_volume 2888.532898
_symmetry_space_group_name_H-M "I 21 21 21"
_symmetry_group_IT_number 24
_symmetry_cell_setting 'orthorhombic'
loop_
_space_group_symop_operation_xyz
x,y,z
-x,1/2-y,z
x,-y,1/2-z
1/2-x,y,-z
1/2+x,1/2+y,1/2+z
1/2-x,-y,1/2+z
1/2+x,1/2-y,-z
-x,1/2+y,1/2-z
loop_
_atom_site_type_symbol
_atom_site_label
_atom_site_fract_x
_atom_site_fract_y
_atom_site_fract_z
Si Si1 0.150077 0.500125 0.569521
Si Si2 0.667953 0.777923 0.911178
Si Si3 0.340598 0.709707 0.582689
Si Si4 0.957868 0.890700 0.065422
Si Si5 0.928377 0.691946 0.868913
Si Si6 0.478856 0.402953 0.904149
Si Si7 0.644994 0.662192 0.450553
O O1 0.153023 0.500000 0.750000
O O2 0.250000 0.513713 0.500000
O O3 0.115860 0.435084 0.508199
O O4 0.075897 0.546612 0.498859
O O5 0.694156 0.767642 0.742990
O O6 0.585735 0.824916 0.901189
O O7 0.750000 0.808266 0.000000
O O8 0.637206 0.720278 0.005432
O O9 0.250000 0.687124 0.500000
O O10 0.414686 0.656935 0.585068
O O11 0.379220 0.770426 0.510306
O O12 0.987810 0.916404 0.226731
O O13 0.028898 0.869252 0.940438
O O14 0.875046 0.670251 0.723520
O O15 0.000000 0.750000 0.837713
O O16 0.575798 0.386036 0.976339
O O17 0.750000 0.650951 0.500000
#
# Coordination Sequence:
#
# PCOD9333420 Si02
#       7
#     8   8   8   8   8   8   8
#     4  12  25  41  63  90 119 152 191 234 287 348
#     4  10  19  32  53  82 118 152 189 236 285 345
#     4  10  20  33  54  86 118 153 191 233 291 350
#     4  10  22  38  58  84 115 153 194 239 294 345
#     4  10  20  35  56  83 116 155 194 238 292 343
#     4  11  22  39  60  83 118 154 194 244 292 343
#     4  11  22  36  57  84 116 153 196 242 289 346
#
# _framework density 19.387004999999998
#
# number of rings (size 3 to 8) (size 9 to 14) (size 15 to 20)
#    0.000    1.429    0.000    6.857    0.000    8.000 
#    0.000    0.000    0.000    6.000    0.000    0.000 
#    0.000    0.000    0.000    0.000    0.000    0.000 
#
# Total GULP energy -156114.897702 kJ/mol
# GULP energy per Si atom -5575.532061 kJ/mol
# Density = 1.934288 g / cm^3
# Si number density = 19.387005 Si / 1000 Ang^3
#
#
#
# Elastic Constant Matrix: (Units=GPa)
#
#
# Indices 1 2 3 4 5 6 
#
# 1 95.1748 21.5025 50.9959 0.0000 0.0000 0.0000
# 2 21.5025 41.3455 6.1813 0.0000 0.0000 0.0000
# 3 50.9959 6.1813 121.5121 0.0000 0.0000 0.0000
# 4 0.0000 0.0000 0.0000 38.8475 0.0000 0.0000
# 5 0.0000 0.0000 0.0000 0.0000 31.0639 0.0000
# 6 0.0000 0.0000 0.0000 0.0000 0.0000 36.7864
#
#
#
# Elastic Compliance Matrix: (Units=1/GPa)
#
#
# Indices 1 2 3 4 5 6 
#
# 1 0.015371 -0.007083 -0.006090 0.000000 0.000000 0.000000
# 2 -0.007083 0.027636 0.001567 0.000000 0.000000 0.000000
# 3 -0.006090 0.001567 0.010706 0.000000 0.000000 0.000000
# 4 0.000000 0.000000 0.000000 0.025742 0.000000 0.000000
# 5 0.000000 0.000000 0.000000 0.000000 0.032192 0.000000
# 6 0.000000 0.000000 0.000000 0.000000 0.000000 0.027184
#
#
# Mechanical properties :
#
#
# Convention : Reuss Voigt Hill
#
# Bulk Modulus (GPa) = 32.78804 46.15466 39.47135
# Shear Modulus (GPa) = 29.03437 33.29639 31.16538
#
# Velocity S-wave (km/s) = 3.87411 4.14872 4.01376
# Velocity P-wave (km/s) = 6.07953 6.84163 6.47181
#
# Compressibility (1/GPa) = 0.03049892
#
# Stress axis : x y z
#
# Youngs Moduli (GPa) = 65.05935 36.18473 93.40630
#
# Poissons Ratio (x) = 0.25630 0.56888
# Poissons Ratio (y) = 0.46083 -0.14635
# Poissons Ratio (z) = 0.39624 -0.05670
#
# Static dielectric constant tensor:
#      x y z
#    x 1.702590 0.000000 0.000000 
#    y 0.000000 1.667980 0.000000 
#    z 0.000000 0.000000 1.696930 
# 
# From -- ./inp_files/13144.got.cif
#   From: 2010.05.17/outbox.cif.g08.bks.cpg/sg24_7_cif.got.tgz:13144.got - 2010.06.04 00:33:39.
