data_PCOD9333740
_publ_section_title
;
Structure prediction by ZEFSAII (Michael W. Deem and Ramdas Pophale) SiO2 
 PCOD9333740
Probable space group: I 21 21 21
;
_chemical_formula_sum "Si O2"
_cell_formula_units_Z 48
_cell_length_a 11.627740
_cell_length_b 17.282063
_cell_length_c 11.473255
_cell_angle_alpha 90.000000
_cell_angle_beta 90.000000
_cell_angle_gamma 90.000000
_cell_volume 2305.565912
_symmetry_space_group_name_H-M "I 21 21 21"
_symmetry_group_IT_number 24
_symmetry_cell_setting 'orthorhombic'
loop_
_space_group_symop_operation_xyz
x,y,z
-x,1/2-y,z
x,-y,1/2-z
1/2-x,y,-z
1/2+x,1/2+y,1/2+z
1/2-x,-y,1/2+z
1/2+x,1/2-y,-z
-x,1/2+y,1/2-z
loop_
_atom_site_type_symbol
_atom_site_label
_atom_site_fract_x
_atom_site_fract_y
_atom_site_fract_z
Si Si1 0.608862 0.908599 0.752802
Si Si2 0.887121 0.081473 0.511442
Si Si3 0.426599 0.172460 0.896043
Si Si4 0.150652 0.675937 0.756221
Si Si5 0.482807 0.551310 0.352049
Si Si6 0.332758 0.839431 0.338579
O O1 0.512681 0.891271 0.656677
O O2 0.719030 0.853158 0.736892
O O3 0.640163 0.000000 0.750000
O O4 0.571425 0.889940 0.885711
O O5 0.750000 0.061490 0.500000
O O6 0.890927 0.142803 0.618347
O O7 0.961505 0.005508 0.542001
O O8 0.500000 0.250000 0.876822
O O9 0.304386 0.162476 0.832985
O O10 0.382867 0.171750 0.030082
O O11 0.085344 0.631469 0.651795
O O12 0.132327 0.766810 0.740892
O O13 0.427557 0.500000 0.250000
O O14 0.608756 0.578377 0.311609
#
# Coordination Sequence:
#
# PCOD9333740 Si02
#       6
#     8   8   8   8   8   8
#     4  11  21  37  64  94 129 164 213 271 334 382
#     4   9  19  36  62  96 128 169 215 275 335 385
#     4  11  23  41  58  89 125 164 212 267 322 382
#     4  10  19  37  62  90 127 163 218 273 318 381
#     4  10  20  36  58  88 123 159 213 260 314 391
#     4  11  23  38  62  86 123 168 212 265 323 381
#
# _framework density 20.819182000000001
#
# number of rings (size 3 to 8) (size 9 to 14) (size 15 to 20)
#    0.000    1.667    1.667    5.000    0.000    0.667 
#    3.000    3.333    0.000    0.000    0.000    0.000 
#    0.000    0.000    0.000    0.000    0.000    0.000 
#
# Total GULP energy -133654.794621 kJ/mol
# GULP energy per Si atom -5568.949776 kJ/mol
# Density = 2.077180 g / cm^3
# Si number density = 20.819182 Si / 1000 Ang^3
#
#
#
# Elastic Constant Matrix: (Units=GPa)
#
#
# Indices 1 2 3 4 5 6 
#
# 1 102.5348 38.0748 31.8753 -0.0001 0.0000 0.0000
# 2 38.0748 104.1996 31.1949 0.0000 0.0000 0.0000
# 3 31.8753 31.1949 65.9113 0.0002 -0.0001 0.0001
# 4 -0.0001 0.0000 0.0002 29.7212 0.0000 0.0000
# 5 0.0000 0.0000 -0.0001 0.0000 27.5363 0.0000
# 6 0.0000 0.0000 0.0001 0.0000 0.0000 33.5425
#
#
#
# Elastic Compliance Matrix: (Units=1/GPa)
#
#
# Indices 1 2 3 4 5 6 
#
# 1 0.012314 -0.003165 -0.004457 0.000000 0.000000 0.000000
# 2 -0.003165 0.011995 -0.004146 0.000000 0.000000 0.000000
# 3 -0.004457 -0.004146 0.019290 0.000000 0.000000 0.000000
# 4 0.000000 0.000000 0.000000 0.033646 0.000000 0.000000
# 5 0.000000 0.000000 0.000000 0.000000 0.036316 0.000000
# 6 0.000000 0.000000 0.000000 0.000000 0.000000 0.029813
#
#
# Mechanical properties :
#
#
# Convention : Reuss Voigt Hill
#
# Bulk Modulus (GPa) = 49.84700 52.77063 51.30881
# Shear Modulus (GPa) = 28.80239 29.59339 29.19789
#
# Velocity S-wave (km/s) = 3.72352 3.77430 3.74899
# Velocity P-wave (km/s) = 6.51774 6.66303 6.59078
#
# Compressibility (1/GPa) = 0.02006139
#
# Stress axis : x y z
#
# Youngs Moduli (GPa) = 81.21059 83.36943 51.84107
#
# Poissons Ratio (x) = 0.26387 0.23106
# Poissons Ratio (y) = 0.25704 0.21495
# Poissons Ratio (z) = 0.36196 0.34567
#
# Static dielectric constant tensor:
#      x y z
#    x 1.817120 0.000000 0.000000 
#    y 0.000000 1.784160 0.000000 
#    z 0.000000 0.000000 1.819890 
# 
# From -- ./inp_files/19700.got.cif
#   From: 2010.05.17/outbox.cif.g08.bks.cpg/sg24_10_cif.got.tgz:19700.got - 2010.06.04 00:33:39.
