data_PCOD9333258
_publ_section_title
;
Structure prediction by ZEFSAII (Michael W. Deem and Ramdas Pophale) SiO2 
 PCOD9333258
Probable space group: I 21 21 21
;
_chemical_formula_sum "Si O2"
_cell_formula_units_Z 56
_cell_length_a 12.257255
_cell_length_b 16.493697
_cell_length_c 13.216201
_cell_angle_alpha 90.000000
_cell_angle_beta 90.000000
_cell_angle_gamma 90.000000
_cell_volume 2671.885655
_symmetry_space_group_name_H-M "I 21 21 21"
_symmetry_group_IT_number 24
_symmetry_cell_setting 'orthorhombic'
loop_
_space_group_symop_operation_xyz
x,y,z
-x,1/2-y,z
x,-y,1/2-z
1/2-x,y,-z
1/2+x,1/2+y,1/2+z
1/2-x,-y,1/2+z
1/2+x,1/2-y,-z
-x,1/2+y,1/2-z
loop_
_atom_site_type_symbol
_atom_site_label
_atom_site_fract_x
_atom_site_fract_y
_atom_site_fract_z
Si Si1 0.223435 0.544528 0.382471
Si Si2 0.760526 0.500000 0.250000
Si Si3 0.359769 0.965875 0.456655
Si Si4 0.500000 0.750000 0.191279
Si Si5 0.632674 0.120928 0.707690
Si Si6 0.895317 0.394442 0.375611
Si Si7 0.263280 0.252604 0.395974
Si Si8 0.037017 0.583188 0.686950
O O1 0.250000 0.549204 0.500000
O O2 0.128468 0.595605 0.325757
O O3 0.193331 0.453433 0.349266
O O4 0.335247 0.576737 0.334063
O O5 0.689035 0.500244 0.350861
O O6 0.841683 0.425957 0.270766
O O7 0.250000 0.922723 0.500000
O O8 0.465441 0.919152 0.416155
O O9 0.393381 0.034547 0.538628
O O10 0.389514 0.760790 0.127057
O O11 0.488980 0.666336 0.254387
O O12 0.517053 0.131800 0.652480
O O13 0.706976 0.199023 0.694157
O O14 0.814135 0.324793 0.411608
O O15 0.250000 0.302129 0.500000
O O16 0.014733 0.500000 0.750000
#
# Coordination Sequence:
#
# PCOD9333258 Si02
#       8
#     8   4   8   4   8   8   8   8
#     4  11  22  43  71  99 133 189 250 290 359 446
#     4  10  18  38  58  94 134 170 230 284 344 424
#     4  10  22  38  65 101 134 188 240 290 368 439
#     4  12  28  46  72 108 146 194 252 306 384 460
#     4  11  23  44  65 103 139 187 232 297 370 433
#     4  11  24  40  69 103 142 186 236 301 368 443
#     4  12  26  43  66 104 147 182 231 302 380 445
#     4  12  23  44  72  99 145 196 240 306 372 451
#
# _framework density 20.958981000000001
#
# number of rings (size 3 to 8) (size 9 to 14) (size 15 to 20)
#    0.000    0.857    3.571    4.714    6.000    1.143 
#    0.000    0.714    6.286    0.000    0.000    0.000 
#    0.000    0.000    0.000    0.000    0.000    0.000 
#
# Total GULP energy -156085.001453 kJ/mol
# GULP energy per Si atom -5574.464338 kJ/mol
# Density = 2.091128 g / cm^3
# Si number density = 20.958981 Si / 1000 Ang^3
#
#
#
# Elastic Constant Matrix: (Units=GPa)
#
#
# Indices 1 2 3 4 5 6 
#
# 1 160.0194 26.8984 36.0274 0.0000 0.0000 0.0000
# 2 26.8984 76.9862 28.8503 0.0000 0.0000 0.0000
# 3 36.0274 28.8503 103.7116 0.0000 0.0000 0.0001
# 4 0.0000 0.0000 0.0000 25.0328 0.0000 0.0000
# 5 0.0000 0.0000 0.0000 0.0000 58.8159 0.0001
# 6 0.0000 0.0000 0.0001 0.0000 0.0001 -6.8611
#
#
#
# Elastic Compliance Matrix: (Units=1/GPa)
#
#
# Indices 1 2 3 4 5 6 
#
# 1 0.006975 -0.001707 -0.001948 0.000000 0.000000 0.000000
# 2 -0.001707 0.014919 -0.003557 0.000000 0.000000 0.000000
# 3 -0.001948 -0.003557 0.011308 0.000000 0.000000 0.000000
# 4 0.000000 0.000000 0.000000 0.039948 0.000000 0.000000
# 5 0.000000 0.000000 0.000000 0.000000 0.017002 0.000000
# 6 0.000000 0.000000 0.000000 0.000000 0.000000 -0.145749
#
#
# Mechanical properties :
#
#
# Convention : Reuss Voigt Hill
#
# Bulk Modulus (GPa) = 53.25476 58.25216 55.75346
# Shear Modulus (GPa) = -143.20832 31.99358 -55.60737
#
# Velocity S-wave (km/s) = -8.27504 3.91127 -5.15646
# Velocity P-wave (km/s) = 8.11403 6.94630 2.96533
#
# Compressibility (1/GPa) = 0.01877766
#
# Stress axis : x y z
#
# Youngs Moduli (GPa) = 143.37412 67.02978 88.43013
#
# Poissons Ratio (x) = 0.11441 0.17227
# Poissons Ratio (y) = 0.24472 0.31456
# Poissons Ratio (z) = 0.27930 0.23843
#
# Static dielectric constant tensor:
#      x y z
#    x 1.827660 0.000000 0.000000 
#    y 0.000000 1.708810 0.000000 
#    z 0.000000 0.000000 1.997330 
# 
# From -- ./inp_files/25853.got.cif
#   From: 2010.05.17/outbox.cif.g08.bks.cpg/sg24_13_cif.got.tgz:25853.got - 2010.06.04 00:33:39.
