data_PCOD9333903
_publ_section_title
;
Structure prediction by ZEFSAII (Michael W. Deem and Ramdas Pophale) SiO2 
 PCOD9333903
Probable space group: I 21 21 21
;
_chemical_formula_sum "Si O2"
_cell_formula_units_Z 44
_cell_length_a 6.652147
_cell_length_b 24.032159
_cell_length_c 14.366086
_cell_angle_alpha 90.000000
_cell_angle_beta 90.000000
_cell_angle_gamma 90.000000
_cell_volume 2296.640866
_symmetry_space_group_name_H-M "I 21 21 21"
_symmetry_group_IT_number 24
_symmetry_cell_setting 'orthorhombic'
loop_
_space_group_symop_operation_xyz
x,y,z
-x,1/2-y,z
x,-y,1/2-z
1/2-x,y,-z
1/2+x,1/2+y,1/2+z
1/2-x,-y,1/2+z
1/2+x,1/2-y,-z
-x,1/2+y,1/2-z
loop_
_atom_site_type_symbol
_atom_site_label
_atom_site_fract_x
_atom_site_fract_y
_atom_site_fract_z
Si Si1 0.618390 0.196716 0.764424
Si Si2 0.618372 0.091390 0.262506
Si Si3 0.243053 0.875840 0.342636
Si Si4 0.363889 0.507848 0.403364
Si Si5 0.094627 0.696173 0.568361
Si Si6 0.750000 0.457368 0.000000
O O1 0.500000 0.250000 0.720155
O O2 0.761466 0.148862 0.718349
O O3 0.436758 0.161552 0.807716
O O4 0.773000 0.217363 0.844334
O O5 0.378770 0.100439 0.243032
O O6 0.665090 0.047447 0.342901
O O7 0.678875 0.060089 0.165460
O O8 0.414284 0.841698 0.397971
O O9 0.157444 0.918844 0.418469
O O10 0.250000 0.510144 0.500000
O O11 0.592486 0.509089 0.439233
O O12 0.250000 0.666782 0.500000
O O13 0.000000 0.750000 0.519451
#
# Coordination Sequence:
#
# PCOD9333903 Si02
#       6
#     8   8   8   8   8   4
#     4  11  20  34  53  77 110 154 192 233 287 343
#     4   9  22  36  56  87 117 147 192 248 289 348
#     4  10  20  34  49  76 112 148 196 230 281 346
#     4  10  20  39  59  84 116 150 192 241 297 348
#     4  11  21  29  43  71 110 152 193 229 269 341
#     4  10  20  32  54  76 108 152 186 234 282 338
#
# _framework density 19.158417
#
# number of rings (size 3 to 8) (size 9 to 14) (size 15 to 20)
#    0.000    1.818    1.818    2.727    1.273    6.545 
#    0.000    3.636    0.000    0.000    4.727    0.000 
#    0.000    0.000    0.000    0.000    0.000    0.000 
#
# Total GULP energy -122501.144163 kJ/mol
# GULP energy per Si atom -5568.233826 kJ/mol
# Density = 1.911481 g / cm^3
# Si number density = 19.158417 Si / 1000 Ang^3
#
#
#
# Elastic Constant Matrix: (Units=GPa)
#
#
# Indices 1 2 3 4 5 6 
#
# 1 66.7050 15.1877 14.5447 0.0000 0.0000 0.0000
# 2 15.1877 80.4013 24.2440 0.0000 0.0000 0.0000
# 3 14.5447 24.2440 54.2718 -0.0001 0.0000 0.0000
# 4 0.0000 0.0000 -0.0001 21.3635 0.0000 0.0000
# 5 0.0000 0.0000 0.0000 0.0000 15.1554 0.0000
# 6 0.0000 0.0000 0.0000 0.0000 0.0000 21.5100
#
#
#
# Elastic Compliance Matrix: (Units=1/GPa)
#
#
# Indices 1 2 3 4 5 6 
#
# 1 0.016202 -0.002024 -0.003438 0.000000 0.000000 0.000000
# 2 -0.002024 0.014627 -0.005992 0.000000 0.000000 0.000000
# 3 -0.003438 -0.005992 0.022024 0.000000 0.000000 0.000000
# 4 0.000000 0.000000 0.000000 0.046809 0.000000 0.000000
# 5 0.000000 0.000000 0.000000 0.000000 0.065983 0.000000
# 6 0.000000 0.000000 0.000000 0.000000 0.000000 0.046490
#
#
# Mechanical properties :
#
#
# Convention : Reuss Voigt Hill
#
# Bulk Modulus (GPa) = 33.39413 34.37010 33.88211
# Shear Modulus (GPa) = 20.40629 21.43256 20.91943
#
# Velocity S-wave (km/s) = 3.26718 3.34833 3.30800
# Velocity P-wave (km/s) = 5.63036 5.73823 5.68455
#
# Compressibility (1/GPa) = 0.02994539
#
# Stress axis : x y z
#
# Youngs Moduli (GPa) = 61.72157 68.36865 45.40575
#
# Poissons Ratio (x) = 0.13837 0.15610
# Poissons Ratio (y) = 0.12491 0.27205
# Poissons Ratio (z) = 0.21220 0.40963
#
# Static dielectric constant tensor:
#      x y z
#    x 1.760430 0.000000 0.000000 
#    y 0.000000 1.722990 0.000000 
#    z 0.000000 0.000000 1.672000 
# 
# From -- ./inp_files/23843.got.cif
#   From: 2010.05.17/outbox.cif.g08.bks.cpg/sg24_12_cif.got.tgz:23843.got - 2010.06.04 00:33:39.
