data_PCOD9333371
_publ_section_title
;
Structure prediction by ZEFSAII (Michael W. Deem and Ramdas Pophale) SiO2 
 PCOD9333371
Probable space group: I 21 21 21
;
_chemical_formula_sum "Si O2"
_cell_formula_units_Z 48
_cell_length_a 28.285287
_cell_length_b 5.251727
_cell_length_c 17.713603
_cell_angle_alpha 90.000000
_cell_angle_beta 90.000000
_cell_angle_gamma 90.000000
_cell_volume 2631.295596
_symmetry_space_group_name_H-M "I 21 21 21"
_symmetry_group_IT_number 24
_symmetry_cell_setting 'orthorhombic'
loop_
_space_group_symop_operation_xyz
x,y,z
-x,1/2-y,z
x,-y,1/2-z
1/2-x,y,-z
1/2+x,1/2+y,1/2+z
1/2-x,-y,1/2+z
1/2+x,1/2-y,-z
-x,1/2+y,1/2-z
loop_
_atom_site_type_symbol
_atom_site_label
_atom_site_fract_x
_atom_site_fract_y
_atom_site_fract_z
Si Si1 0.164296 0.591437 0.331699
Si Si2 0.291033 0.680312 0.063716
Si Si3 0.244879 0.179055 0.909586
Si Si4 0.433684 0.241195 0.795908
Si Si5 0.384166 0.702469 0.968084
Si Si6 0.053018 0.781441 0.468129
O O1 0.181931 0.500000 0.250000
O O2 0.205491 0.729042 0.377043
O O3 0.122268 0.783766 0.311146
O O4 0.139347 0.377758 0.386308
O O5 0.292056 0.406365 0.102852
O O6 0.273082 0.905802 0.117216
O O7 0.250000 0.644656 0.000000
O O8 0.339499 0.748860 0.022332
O O9 0.250000 0.142199 0.000000
O O10 0.439886 0.500000 0.750000
O O11 0.453077 0.267311 0.879015
O O12 0.451649 0.000000 0.750000
O O13 0.412575 0.448552 0.993256
O O14 0.419664 0.945080 0.970965
O O15 0.000000 0.750000 0.501748
#
# Coordination Sequence:
#
# PCOD9333371 Si02
#       6
#     8   8   8   8   8   8
#     4  10  20  33  50  75 102 133 169 218 259 295
#     4  10  19  31  52  72  93 124 163 212 244 298
#     4  10  19  31  48  71 100 123 165 209 241 299
#     4  10  21  34  47  66  90 125 168 216 260 297
#     4  11  21  36  53  71  99 130 170 221 255 295
#     4  11  23  35  51  69  93 127 172 216 268 302
#
# _framework density 18.241962999999998
#
# number of rings (size 3 to 8) (size 9 to 14) (size 15 to 20)
#    0.000    1.667    3.333    4.500    7.000    3.333 
#    0.000    0.000    0.000    0.000    0.000    0.000 
#    0.000    0.000    0.000    0.000    0.000   46.667 
#
# Total GULP energy -133725.997990 kJ/mol
# GULP energy per Si atom -5571.916583 kJ/mol
# Density = 1.820044 g / cm^3
# Si number density = 18.241963 Si / 1000 Ang^3
#
#
#
# Elastic Constant Matrix: (Units=GPa)
#
#
# Indices 1 2 3 4 5 6 
#
# 1 99.3245 17.0570 18.5613 0.0000 0.0000 0.0000
# 2 17.0570 111.8378 -3.0500 0.0000 0.0000 0.0000
# 3 18.5613 -3.0500 13.5296 0.0000 0.0000 0.0000
# 4 0.0000 0.0000 0.0000 98.6296 0.0000 0.0000
# 5 0.0000 0.0000 0.0000 0.0000 0.9036 0.0000
# 6 0.0000 0.0000 0.0000 0.0000 0.0000-1262.5464
#
#
#
# Elastic Compliance Matrix: (Units=1/GPa)
#
#
# Indices 1 2 3 4 5 6 
#
# 1 0.014326 -0.002738 -0.020272 0.000000 0.000000 0.000000
# 2 -0.002738 0.009520 0.005902 0.000000 0.000000 0.000000
# 3 -0.020272 0.005902 0.103054 0.000000 0.000000 0.000000
# 4 0.000000 0.000000 0.000000 0.010139 0.000000 0.000000
# 5 0.000000 0.000000 0.000000 0.000000 1.106738 0.000000
# 6 0.000000 0.000000 0.000000 0.000000 0.000000 -0.000792
#
#
# Mechanical properties :
#
#
# Convention : Reuss Voigt Hill
#
# Bulk Modulus (GPa) = 10.78919 32.20317 21.49618
# Shear Modulus (GPa) = 3.82235 -219.79442 -107.98603
#
# Velocity S-wave (km/s) = 1.44911 -10.98863 -7.70227
# Velocity P-wave (km/s) = 2.95419 11.97114 8.20308
#
# Compressibility (1/GPa) = 0.09268534
#
# Stress axis : x y z
#
# Youngs Moduli (GPa) = 69.80083 105.04147 9.70368
#
# Poissons Ratio (x) = 0.28759 0.19671
# Poissons Ratio (y) = 0.19110 -0.05727
# Poissons Ratio (z) = 1.41499 -0.61998
#
# Static dielectric constant tensor:
#      x y z
#    x 1.597860 0.000000 0.000000 
#    y 0.000000 1.776200 0.000000 
#    z 0.000000 0.000000 1.738780 
# 
# From -- ./inp_files/34238.got.cif
#   From: 2010.05.17/outbox.cif.g08.bks.cpg/sg24_18_cif.got.tgz:34238.got - 2010.06.04 00:33:39.
