data_PCOD9333654
_publ_section_title
;
Structure prediction by ZEFSAII (Michael W. Deem and Ramdas Pophale) SiO2 
 PCOD9333654
Probable space group: I 21 21 21
;
_chemical_formula_sum "Si O2"
_cell_formula_units_Z 44
_cell_length_a 9.941826
_cell_length_b 9.447724
_cell_length_c 24.371530
_cell_angle_alpha 90.000000
_cell_angle_beta 90.000000
_cell_angle_gamma 90.000000
_cell_volume 2289.160006
_symmetry_space_group_name_H-M "I 21 21 21"
_symmetry_group_IT_number 24
_symmetry_cell_setting 'orthorhombic'
loop_
_space_group_symop_operation_xyz
x,y,z
-x,1/2-y,z
x,-y,1/2-z
1/2-x,y,-z
1/2+x,1/2+y,1/2+z
1/2-x,-y,1/2+z
1/2+x,1/2-y,-z
-x,1/2+y,1/2-z
loop_
_atom_site_type_symbol
_atom_site_label
_atom_site_fract_x
_atom_site_fract_y
_atom_site_fract_z
Si Si1 0.500000 0.750000 0.243524
Si Si2 0.791765 0.519030 0.873680
Si Si3 0.266951 0.248698 0.181782
Si Si4 0.395031 0.454835 0.348079
Si Si5 0.161167 0.739252 0.949363
Si Si6 0.395674 0.145783 0.720893
O O1 0.392153 0.819163 0.283944
O O2 0.419218 0.641110 0.205690
O O3 0.740150 0.358117 0.868198
O O4 0.775785 0.611802 0.928207
O O5 0.719051 0.597764 0.822306
O O6 0.952952 0.515374 0.867469
O O7 0.312529 0.404005 0.164575
O O8 0.154217 0.240991 0.227949
O O9 0.330071 0.362554 0.396319
O O10 0.000000 0.750000 0.961705
O O11 0.250000 0.688162 0.000000
O O12 0.500000 0.250000 0.691273
O O13 0.443721 0.000000 0.750000
#
# Coordination Sequence:
#
# PCOD9333654 Si02
#       6
#     4   8   8   8   8   8
#     4  12  18  28  56  94 126 144 178 230 300 350
#     4  10  19  36  54  83 113 148 193 241 290 353
#     4  11  21  31  57  87 123 153 184 234 305 347
#     4  11  19  33  56  88 117 143 194 246 288 358
#     4  10  22  40  60  81 108 144 202 259 306 351
#     4  10  22  36  51  80 126 166 195 223 283 372
#
# _framework density 19.221025000000001
#
# number of rings (size 3 to 8) (size 9 to 14) (size 15 to 20)
#    0.000    1.455    6.364    0.545    0.000    3.636 
#    0.000    2.727    0.000    0.000    0.000    0.000 
#    0.000    0.000    0.000    0.000    0.000    0.000 
#
# Total GULP energy -122607.680153 kJ/mol
# GULP energy per Si atom -5573.076371 kJ/mol
# Density = 1.917728 g / cm^3
# Si number density = 19.221025 Si / 1000 Ang^3
#
#
#
# Elastic Constant Matrix: (Units=GPa)
#
#
# Indices 1 2 3 4 5 6 
#
# 1 46.9187 36.6647 18.9985 0.0000 0.0000 0.0000
# 2 36.6647 109.3164 38.2908 0.0000 0.0000 0.0000
# 3 18.9985 38.2908 73.0842 0.0000 0.0000 0.0000
# 4 0.0000 0.0000 0.0000 18.1546 0.0000 0.0000
# 5 0.0000 0.0000 0.0000 0.0000 21.6818 0.0000
# 6 0.0000 0.0000 0.0000 0.0000 0.0000 30.3585
#
#
#
# Elastic Compliance Matrix: (Units=1/GPa)
#
#
# Indices 1 2 3 4 5 6 
#
# 1 0.029424 -0.008805 -0.003035 0.000000 0.000000 0.000000
# 2 -0.008805 0.013839 -0.004962 0.000000 0.000000 0.000000
# 3 -0.003035 -0.004962 0.017071 0.000000 0.000000 0.000000
# 4 0.000000 0.000000 0.000000 0.055083 0.000000 0.000000
# 5 0.000000 0.000000 0.000000 0.000000 0.046122 0.000000
# 6 0.000000 0.000000 0.000000 0.000000 0.000000 0.032940
#
#
# Mechanical properties :
#
#
# Convention : Reuss Voigt Hill
#
# Bulk Modulus (GPa) = 37.41230 46.35858 41.88544
# Shear Modulus (GPa) = 21.09770 23.06333 22.08052
#
# Velocity S-wave (km/s) = 3.31665 3.46772 3.39303
# Velocity P-wave (km/s) = 5.84581 6.34070 6.09827
#
# Compressibility (1/GPa) = 0.02672918
#
# Stress axis : x y z
#
# Youngs Moduli (GPa) = 33.98633 72.25940 58.57744
#
# Poissons Ratio (x) = 0.63628 0.17780
# Poissons Ratio (y) = 0.29926 0.29064
# Poissons Ratio (z) = 0.10316 0.35852
#
# Static dielectric constant tensor:
#      x y z
#    x 1.773130 0.000000 0.000000 
#    y 0.000000 1.736790 0.000000 
#    z 0.000000 0.000000 1.646840 
# 
# From -- ./inp_files/35508.got.cif
#   From: 2010.05.17/outbox.cif.g08.bks.cpg/sg24_18_cif.got.tgz:35508.got - 2010.06.04 00:33:39.
