data_PCOD9333967
_publ_section_title
;
Structure prediction by ZEFSAII (Michael W. Deem and Ramdas Pophale) SiO2 
 PCOD9333967
Probable space group: I 21 21 21
;
_chemical_formula_sum "Si O2"
_cell_formula_units_Z 56
_cell_length_a 14.898824
_cell_length_b 7.390369
_cell_length_c 23.332891
_cell_angle_alpha 90.000000
_cell_angle_beta 90.000000
_cell_angle_gamma 90.000000
_cell_volume 2569.133460
_symmetry_space_group_name_H-M "I 21 21 21"
_symmetry_group_IT_number 24
_symmetry_cell_setting 'orthorhombic'
loop_
_space_group_symop_operation_xyz
x,y,z
-x,1/2-y,z
x,-y,1/2-z
1/2-x,y,-z
1/2+x,1/2+y,1/2+z
1/2-x,-y,1/2+z
1/2+x,1/2-y,-z
-x,1/2+y,1/2-z
loop_
_atom_site_type_symbol
_atom_site_label
_atom_site_fract_x
_atom_site_fract_y
_atom_site_fract_z
Si Si1 0.400815 0.268466 0.602144
Si Si2 0.293072 0.256113 0.360268
Si Si3 0.353278 0.281407 0.480825
Si Si4 0.713775 0.800919 0.363452
Si Si5 0.400404 0.299732 0.900769
Si Si6 0.402777 0.692588 0.468787
Si Si7 0.105903 0.716207 0.746918
O O1 0.500000 0.250000 0.627722
O O2 0.311931 0.202182 0.634886
O O3 0.397655 0.191430 0.536793
O O4 0.391133 0.484056 0.596086
O O5 0.344359 0.193451 0.418219
O O6 0.291926 0.478054 0.361960
O O7 0.344811 0.204555 0.302795
O O8 0.250000 0.317225 0.500000
O O9 0.399859 0.474645 0.471603
O O10 0.817047 0.740515 0.362282
O O11 0.673159 0.748535 0.424790
O O12 0.654759 0.727505 0.311572
O O13 0.500000 0.250000 0.880770
O O14 0.390450 0.236652 0.966620
O O15 0.500000 0.750000 0.447225
O O16 0.117594 0.500000 0.750000
O O17 0.000000 0.750000 0.746718
#
# Coordination Sequence:
#
# PCOD9333967 Si02
#       7
#     8   8   8   8   8   8   8
#     4   9  16  28  48  69  90 117 150 185 221 263
#     4   8  16  30  47  66  88 120 154 182 216 268
#     4   8  14  26  43  63  88 119 152 182 217 266
#     4   9  16  29  47  65  89 121 154 181 215 268
#     4   9  17  29  46  68  92 118 148 183 223 265
#     4   9  14  22  42  68  90 114 149 185 218 258
#     4  10  20  34  51  69  90 117 151 186 220 262
#
# _framework density 21.797232999999999
#
# number of rings (size 3 to 8) (size 9 to 14) (size 15 to 20)
#    0.000    3.143    0.000    3.429    0.000    0.571 
#    0.000    2.143    0.000   15.429    0.000    0.000 
#    0.000    0.000    0.000    0.000    0.000    0.000 
#
# Total GULP energy -156200.476616 kJ/mol
# GULP energy per Si atom -5578.588451 kJ/mol
# Density = 2.174762 g / cm^3
# Si number density = 21.797233 Si / 1000 Ang^3
#
#
#
# Elastic Constant Matrix: (Units=GPa)
#
#
# Indices 1 2 3 4 5 6 
#
# 1 167.4767 -8.1812 69.7004 0.0000 0.0000 0.0000
# 2 -8.1812 63.5001 -0.8187 0.0000 0.0000 0.0000
# 3 69.7004 -0.8187 88.5170 0.0000 0.0000 0.0000
# 4 0.0000 0.0000 0.0000 -0.4025 0.0000 0.0000
# 5 0.0000 0.0000 0.0000 0.0000 32.3655 0.0000
# 6 0.0000 0.0000 0.0000 0.0000 0.0000 21.3698
#
#
#
# Elastic Compliance Matrix: (Units=1/GPa)
#
#
# Indices 1 2 3 4 5 6 
#
# 1 0.008953 0.001063 -0.007040 0.000000 0.000000 0.000000
# 2 0.001063 0.015876 -0.000690 0.000000 0.000000 0.000000
# 3 -0.007040 -0.000690 0.016834 0.000000 0.000000 0.000000
# 4 0.000000 0.000000 0.000000 -2.484479 0.000000 0.000000
# 5 0.000000 0.000000 0.000000 0.000000 0.030897 0.000000
# 6 0.000000 0.000000 0.000000 0.000000 0.000000 0.046795
#
#
# Mechanical properties :
#
#
# Convention : Reuss Voigt Hill
#
# Bulk Modulus (GPa) = 35.29972 48.98832 42.14402
# Shear Modulus (GPa) = -2.13461 27.91944 12.89241
#
# Velocity S-wave (km/s) = -0.99067 3.58281 2.43465
# Velocity P-wave (km/s) = 3.86279 6.29593 5.22302
#
# Compressibility (1/GPa) = 0.02832884
#
# Stress axis : x y z
#
# Youngs Moduli (GPa) = 111.69837 62.98810 59.40314
#
# Poissons Ratio (x) = -0.06694 0.41818
# Poissons Ratio (y) = -0.11870 0.04099
# Poissons Ratio (z) = 0.78633 0.04346
#
# Static dielectric constant tensor:
#      x y z
#    x 1.793510 0.000000 0.000000 
#    y 0.000000 1.865770 0.000000 
#    z 0.000000 0.000000 1.788190 
# 
# From -- ./inp_files/22681.got.cif
#   From: 2010.05.17/outbox.cif.g08.bks.cpg/sg24_12_cif.got.tgz:22681.got - 2010.06.04 00:33:39.
