data_PCOD9333256
_publ_section_title
;
Structure prediction by ZEFSAII (Michael W. Deem and Ramdas Pophale) SiO2 
 PCOD9333256
Probable space group: I 21 21 21
;
_chemical_formula_sum "Si O2"
_cell_formula_units_Z 60
_cell_length_a 20.711924
_cell_length_b 5.290651
_cell_length_c 26.777511
_cell_angle_alpha 90.000000
_cell_angle_beta 90.000000
_cell_angle_gamma 90.000000
_cell_volume 2934.267911
_symmetry_space_group_name_H-M "I 21 21 21"
_symmetry_group_IT_number 24
_symmetry_cell_setting 'orthorhombic'
loop_
_space_group_symop_operation_xyz
x,y,z
-x,1/2-y,z
x,-y,1/2-z
1/2-x,y,-z
1/2+x,1/2+y,1/2+z
1/2-x,-y,1/2+z
1/2+x,1/2-y,-z
-x,1/2+y,1/2-z
loop_
_atom_site_type_symbol
_atom_site_label
_atom_site_fract_x
_atom_site_fract_y
_atom_site_fract_z
Si Si1 0.674346 0.501594 0.177620
Si Si2 0.318618 0.266232 0.427478
Si Si3 0.370048 0.231594 0.943216
Si Si4 0.728005 0.902888 0.633669
Si Si5 0.750000 0.606017 0.500000
Si Si6 0.213015 0.751075 0.220231
Si Si7 0.574456 0.218811 0.512905
Si Si8 0.027114 0.993262 0.692818
O O1 0.662442 0.633355 0.124210
O O2 0.727213 0.279122 0.168119
O O3 0.710323 0.695916 0.214502
O O4 0.603152 0.445941 0.195624
O O5 0.277379 0.507114 0.409535
O O6 0.269006 0.080106 0.455118
O O7 0.378868 0.299713 0.464433
O O8 0.332490 0.260024 0.890815
O O9 0.416287 0.466838 0.954107
O O10 0.402067 0.962906 0.955303
O O11 0.312467 0.258164 0.983939
O O12 0.701624 0.152203 0.663084
O O13 0.196016 0.500000 0.250000
O O14 0.186887 0.000000 0.250000
O O15 0.500000 0.250000 0.498633
O O16 0.000000 0.250000 0.669579
O O17 0.001004 0.000000 0.750000
O O18 0.000000 0.750000 0.665243
#
# Coordination Sequence:
#
# PCOD9333256 Si02
#       8
#     8   8   8   8   4   8   8   8
#     4  11  23  38  60  88 118 156 204 262 310 361
#     4  10  22  36  58  88 120 159 208 256 306 364
#     4  11  22  39  64  87 122 158 204 260 301 379
#     4  11  22  38  63  96 122 159 208 257 327 367
#     4  10  18  38  58  90 118 160 204 250 318 362
#     4  11  23  37  59  89 126 164 188 243 319 386
#     4  11  25  42  61  86 123 171 210 253 307 362
#     4  10  24  41  57  75 106 157 210 247 294 356
#
# _framework density 20.448029999999999
#
# number of rings (size 3 to 8) (size 9 to 14) (size 15 to 20)
#    0.000    1.333    2.667    3.200    7.467    1.600 
#    0.000    0.000    0.000    0.000    0.000    0.000 
#    0.000    3.200    0.800    0.000    0.000    0.000 
#
# Total GULP energy -167244.642774 kJ/mol
# GULP energy per Si atom -5574.821426 kJ/mol
# Density = 2.040149 g / cm^3
# Si number density = 20.448030 Si / 1000 Ang^3
#
#
#
# Elastic Constant Matrix: (Units=GPa)
#
#
# Indices 1 2 3 4 5 6 
#
# 1 59.6498 20.7578 18.7823 0.0000 0.0000 0.0000
# 2 20.7578 120.4930 28.4240 0.0000 0.0000 0.0000
# 3 18.7823 28.4240 66.1161 0.0000 0.0000 0.0000
# 4 0.0000 0.0000 0.0000 37.1401 0.0000 0.0000
# 5 0.0000 0.0000 0.0000 0.0000 20.0465 0.0000
# 6 0.0000 0.0000 0.0000 0.0000 0.0000 23.9632
#
#
#
# Elastic Compliance Matrix: (Units=1/GPa)
#
#
# Indices 1 2 3 4 5 6 
#
# 1 0.018929 -0.002217 -0.004424 0.000000 0.000000 0.000000
# 2 -0.002217 0.009496 -0.003452 0.000000 0.000000 0.000000
# 3 -0.004424 -0.003452 0.017866 0.000000 0.000000 0.000000
# 4 0.000000 0.000000 0.000000 0.026925 0.000000 0.000000
# 5 0.000000 0.000000 0.000000 0.000000 0.049884 0.000000
# 6 0.000000 0.000000 0.000000 0.000000 0.000000 0.041731
#
#
# Mechanical properties :
#
#
# Convention : Reuss Voigt Hill
#
# Bulk Modulus (GPa) = 38.30973 42.46522 40.38747
# Shear Modulus (GPa) = 25.81056 28.11629 26.96343
#
# Velocity S-wave (km/s) = 3.55667 3.71214 3.63524
# Velocity P-wave (km/s) = 5.97013 6.25985 6.11671
#
# Compressibility (1/GPa) = 0.02610303
#
# Stress axis : x y z
#
# Youngs Moduli (GPa) = 52.82840 105.31161 55.97247
#
# Poissons Ratio (x) = 0.23351 0.24763
# Poissons Ratio (y) = 0.11714 0.19324
# Poissons Ratio (z) = 0.23372 0.36357
#
# Static dielectric constant tensor:
#      x y z
#    x 1.691230 0.000000 0.000000 
#    y 0.000000 1.806480 0.000000 
#    z 0.000000 0.000000 1.817980 
# 
# From -- ./inp_files/37544.got.cif
#   From: 2010.05.17/outbox.cif.g08.bks.cpg/sg24_19_cif.got.tgz:37544.got - 2010.06.04 00:33:39.
