data_PCOD9333718
_publ_section_title
;
Structure prediction by ZEFSAII (Michael W. Deem and Ramdas Pophale) SiO2 
 PCOD9333718
Probable space group: I 21 21 21
;
_chemical_formula_sum "Si O2"
_cell_formula_units_Z 64
_cell_length_a 8.584960
_cell_length_b 22.492991
_cell_length_c 14.002446
_cell_angle_alpha 90.000000
_cell_angle_beta 90.000000
_cell_angle_gamma 90.000000
_cell_volume 2703.892318
_symmetry_space_group_name_H-M "I 21 21 21"
_symmetry_group_IT_number 24
_symmetry_cell_setting 'orthorhombic'
loop_
_space_group_symop_operation_xyz
x,y,z
-x,1/2-y,z
x,-y,1/2-z
1/2-x,y,-z
1/2+x,1/2+y,1/2+z
1/2-x,-y,1/2+z
1/2+x,1/2-y,-z
-x,1/2+y,1/2-z
loop_
_atom_site_type_symbol
_atom_site_label
_atom_site_fract_x
_atom_site_fract_y
_atom_site_fract_z
Si Si1 0.200912 0.130887 0.105747
Si Si2 0.839163 0.359449 0.710575
Si Si3 0.686290 0.166584 0.290537
Si Si4 0.173358 0.229556 0.404854
Si Si5 0.299756 0.471540 0.354514
Si Si6 0.521240 0.524255 0.640122
Si Si7 0.141480 0.017674 0.637376
Si Si8 0.682524 0.768629 0.602448
O O1 0.310238 0.108195 0.189432
O O2 0.241484 0.201027 0.115624
O O3 0.038544 0.096419 0.128723
O O4 0.250000 0.115922 0.000000
O O5 0.696714 0.317716 0.679861
O O6 0.851043 0.410825 0.633440
O O7 0.001185 0.326224 0.720058
O O8 0.738112 0.211703 0.371855
O O9 0.712518 0.099280 0.329625
O O10 0.769321 0.189293 0.191704
O O11 0.250000 0.204805 0.500000
O O12 0.000000 0.250000 0.420884
O O13 0.303647 0.500000 0.250000
O O14 0.464818 0.493009 0.399797
O O15 0.139445 0.496805 0.398672
O O16 0.525487 0.500000 0.750000
O O17 0.689115 0.503066 0.599731
O O18 0.134772 0.000000 0.750000
O O19 0.500000 0.750000 0.595907
O O20 0.750000 0.790674 0.500000
#
# Coordination Sequence:
#
# PCOD9333718 Si02
#       8
#     8   8   8   8   8   8   8   8
#     4  11  24  40  67  99 142 186 237 287 349 429
#     4  11  22  42  70  97 137 185 227 287 360 412
#     4  11  24  42  72  97 137 184 228 292 358 422
#     4  12  27  45  71 102 137 174 229 284 353 434
#     4   9  21  35  63 100 126 169 231 279 339 419
#     4  10  19  36  66  86 131 175 225 284 344 395
#     4   9  17  35  62  95 125 170 223 280 334 405
#     4  11  27  42  64  99 141 181 241 289 353 427
#
# _framework density 23.669581000000001
#
# number of rings (size 3 to 8) (size 9 to 14) (size 15 to 20)
#    0.000    1.500    3.750    1.500    8.750    0.000 
#    0.000    0.625    5.500    0.750    0.000    0.000 
#    0.000    0.000    0.000    0.000    0.000    0.000 
#
# Total GULP energy -178213.954523 kJ/mol
# GULP energy per Si atom -5569.186079 kJ/mol
# Density = 2.361571 g / cm^3
# Si number density = 23.669581 Si / 1000 Ang^3
#
#
#
# Elastic Constant Matrix: (Units=GPa)
#
#
# Indices 1 2 3 4 5 6 
#
# 1 190.9780 15.3284 27.2358 0.0000 0.0001 0.0000
# 2 15.3284 72.7300 -12.0001 0.0000 0.0000 0.0000
# 3 27.2358 -12.0001 66.5280 0.0000 -0.0002 0.0002
# 4 0.0000 0.0000 0.0000 -9.5408 -0.0003 0.0000
# 5 0.0001 0.0000 -0.0002 -0.0003 92.1925 0.0001
# 6 0.0000 0.0000 0.0002 0.0000 0.0001 31.5370
#
#
#
# Elastic Compliance Matrix: (Units=1/GPa)
#
#
# Indices 1 2 3 4 5 6 
#
# 1 0.005746 -0.001648 -0.002650 0.000000 0.000000 0.000000
# 2 -0.001648 0.014644 0.003316 0.000000 0.000000 0.000000
# 3 -0.002650 0.003316 0.016714 0.000000 0.000000 0.000000
# 4 0.000000 0.000000 0.000000 -0.104814 0.000000 0.000000
# 5 0.000000 0.000000 0.000000 0.000000 0.010847 0.000000
# 6 0.000000 0.000000 0.000000 0.000000 0.000000 0.031709
#
#
# Mechanical properties :
#
#
# Convention : Reuss Voigt Hill
#
# Bulk Modulus (GPa) = 28.45685 43.48490 35.97088
# Shear Modulus (GPa) = -435.70062 42.81588 -196.44237
#
# Velocity S-wave (km/s) = -13.58219 4.25773 -9.11997
# Velocity P-wave (km/s) = 15.29441 6.52553 9.78102
#
# Compressibility (1/GPa) = 0.03514092
#
# Stress axis : x y z
#
# Youngs Moduli (GPa) = 174.02208 68.28716 59.82922
#
# Poissons Ratio (x) = 0.11256 0.15854
# Poissons Ratio (y) = 0.28684 -0.19841
# Poissons Ratio (z) = 0.46113 -0.22646
#
# Static dielectric constant tensor:
#      x y z
#    x 2.124760 0.000000 0.000000 
#    y 0.000000 1.287070 0.000000 
#    z 0.000000 0.000000 1.888210 
# 
# From -- ./inp_files/25228.got.cif
#   From: 2010.05.17/outbox.cif.g08.bks.cpg/sg24_13_cif.got.tgz:25228.got - 2010.06.04 00:33:39.
