data_PCOD9333000
_publ_section_title
;
Structure prediction by ZEFSAII (Michael W. Deem and Ramdas Pophale) SiO2 
 PCOD9333000
Probable space group: I 21 21 21
;
_chemical_formula_sum "Si O2"
_cell_formula_units_Z 48
_cell_length_a 9.697668
_cell_length_b 11.831872
_cell_length_c 19.114173
_cell_angle_alpha 90.000000
_cell_angle_beta 90.000000
_cell_angle_gamma 90.000000
_cell_volume 2193.190152
_symmetry_space_group_name_H-M "I 21 21 21"
_symmetry_group_IT_number 24
_symmetry_cell_setting 'orthorhombic'
loop_
_space_group_symop_operation_xyz
x,y,z
-x,1/2-y,z
x,-y,1/2-z
1/2-x,y,-z
1/2+x,1/2+y,1/2+z
1/2-x,-y,1/2+z
1/2+x,1/2-y,-z
-x,1/2+y,1/2-z
loop_
_atom_site_type_symbol
_atom_site_label
_atom_site_fract_x
_atom_site_fract_y
_atom_site_fract_z
Si Si1 0.608211 0.584361 0.686399
Si Si2 0.520630 0.878632 0.071831
Si Si3 0.895035 0.421234 0.438384
Si Si4 0.688548 0.820691 0.895669
Si Si5 0.481048 0.618437 0.238016
Si Si6 0.693201 0.828455 0.726685
O O1 0.637853 0.500000 0.750000
O O2 0.639245 0.523131 0.613370
O O3 0.689105 0.701696 0.696303
O O4 0.444090 0.612914 0.696462
O O5 0.500000 0.750000 0.046530
O O6 0.685988 0.892194 0.072294
O O7 0.496674 0.878077 0.154252
O O8 0.422818 0.949607 0.020118
O O9 0.805093 0.308974 0.422526
O O10 0.046616 0.378774 0.415241
O O11 0.688498 0.815746 0.811278
O O12 0.500000 0.750000 0.257781
O O13 0.557894 0.500000 0.250000
O O14 0.335232 0.603532 0.280885
#
# Coordination Sequence:
#
# PCOD9333000 Si02
#       6
#     8   8   8   8   8   8
#     4  11  18  31  54  87 116 154 191 248 323 364
#     4  10  21  35  54  86 114 151 202 251 310 368
#     4  11  19  30  53  83 118 149 190 254 315 368
#     4  10  18  31  52  80 116 148 190 253 307 358
#     4  10  23  43  65  88 117 164 212 258 307 372
#     4  10  20  34  54  86 119 147 203 250 301 381
#
# _framework density 21.885926999999999
#
# number of rings (size 3 to 8) (size 9 to 14) (size 15 to 20)
#    0.000    1.667    5.000    2.000    2.333    0.667 
#    3.000    0.000    3.667    0.000    0.000    0.000 
#    0.000    0.000    0.000    0.000    0.000    0.000 
#
# Total GULP energy -133709.252205 kJ/mol
# GULP energy per Si atom -5571.218842 kJ/mol
# Density = 2.183611 g / cm^3
# Si number density = 21.885927 Si / 1000 Ang^3
#
#
#
# Elastic Constant Matrix: (Units=GPa)
#
#
# Indices 1 2 3 4 5 6 
#
# 1 35.9056 10.6956 3.7698 0.0000 0.0000 0.0000
# 2 10.6956 120.6589 22.1917 0.0000 0.0000 0.0000
# 3 3.7698 22.1917 87.5740 0.0000 0.0000 0.0000
# 4 0.0000 0.0000 0.0000 35.4321 0.0000 0.0000
# 5 0.0000 0.0000 0.0000 0.0000 18.3129 0.0000
# 6 0.0000 0.0000 0.0000 0.0000 0.0000 8.9415
#
#
#
# Elastic Compliance Matrix: (Units=1/GPa)
#
#
# Indices 1 2 3 4 5 6 
#
# 1 0.028638 -0.002425 -0.000618 0.000000 0.000000 0.000000
# 2 -0.002425 0.008898 -0.002150 0.000000 0.000000 0.000000
# 3 -0.000618 -0.002150 0.011990 0.000000 0.000000 0.000000
# 4 0.000000 0.000000 0.000000 0.028223 0.000000 0.000000
# 5 0.000000 0.000000 0.000000 0.000000 0.054606 0.000000
# 6 0.000000 0.000000 0.000000 0.000000 0.000000 0.111838
#
#
# Mechanical properties :
#
#
# Convention : Reuss Voigt Hill
#
# Bulk Modulus (GPa) = 25.54963 35.27253 30.41108
# Shear Modulus (GPa) = 18.68266 26.36940 22.52603
#
# Velocity S-wave (km/s) = 2.92488 3.47487 3.21167
# Velocity P-wave (km/s) = 4.80686 5.67901 5.26104
#
# Compressibility (1/GPa) = 0.03913951
#
# Stress axis : x y z
#
# Youngs Moduli (GPa) = 34.91856 112.38105 83.39950
#
# Poissons Ratio (x) = 0.27251 0.05157
# Poissons Ratio (y) = 0.08467 0.17935
# Poissons Ratio (z) = 0.02159 0.24167
#
# Static dielectric constant tensor:
#      x y z
#    x 1.978800 0.000000 0.000000 
#    y 0.000000 1.849710 0.000000 
#    z 0.000000 0.000000 1.870390 
# 
# From -- ./inp_files/21523.got.cif
#   From: 2010.05.17/outbox.cif.g08.bks.cpg/sg24_11_cif.got.tgz:21523.got - 2010.06.04 00:33:39.
