data_PCOD9333393
_publ_section_title
;
Structure prediction by ZEFSAII (Michael W. Deem and Ramdas Pophale) SiO2 
 PCOD9333393
Probable space group: I 21 21 21
;
_chemical_formula_sum "Si O2"
_cell_formula_units_Z 36
_cell_length_a 6.921972
_cell_length_b 19.924581
_cell_length_c 9.559396
_cell_angle_alpha 90.000000
_cell_angle_beta 90.000000
_cell_angle_gamma 90.000000
_cell_volume 1318.406963
_symmetry_space_group_name_H-M "I 21 21 21"
_symmetry_group_IT_number 24
_symmetry_cell_setting 'orthorhombic'
loop_
_space_group_symop_operation_xyz
x,y,z
-x,1/2-y,z
x,-y,1/2-z
1/2-x,y,-z
1/2+x,1/2+y,1/2+z
1/2-x,-y,1/2+z
1/2+x,1/2-y,-z
-x,1/2+y,1/2-z
loop_
_atom_site_type_symbol
_atom_site_label
_atom_site_fract_x
_atom_site_fract_y
_atom_site_fract_z
Si Si1 0.975276 0.000000 0.750000
Si Si2 0.250000 0.012205 0.000000
Si Si3 0.076199 0.644453 0.738541
Si Si4 0.025979 0.173249 0.457673
Si Si5 0.881246 0.369838 0.173139
Si Si6 0.000000 0.250000 0.968270
O O1 0.112795 0.020674 0.617259
O O2 0.863061 0.932304 0.709500
O O3 0.111683 0.060790 0.090239
O O4 0.844851 0.640965 0.707877
O O5 0.136194 0.706618 0.640056
O O6 0.094928 0.661467 0.901649
O O7 0.250000 0.164267 0.500000
O O8 0.001069 0.130535 0.317124
O O9 0.000000 0.250000 0.414257
O O10 0.935035 0.309502 0.070940
#
# Coordination Sequence:
#
# PCOD9333393 Si02
#       6
#     4   4   8   8   8   4
#     4  10  20  32  46  72 106 146 174 220 288 330
#     4  10  20  32  46  74 108 146 172 220 280 338
#     4  10  21  33  49  76 110 139 179 223 279 328
#     4  10  20  33  51  76 110 139 174 223 275 326
#     4  10  19  32  47  75 105 140 176 217 272 328
#     4  12  16  32  52  70 108 130 186 218 258 332
#
# _framework density 27.305681
#
# number of rings (size 3 to 8) (size 9 to 14) (size 15 to 20)
#    0.000    1.778    6.667    0.000    7.778    0.000 
#    0.000    0.000    0.000    0.000    0.000    3.111 
#    0.000    2.222    0.000    0.000    0.000    0.000 
#
# Total GULP energy -100748.451945 kJ/mol
# GULP energy per Si atom -5597.136219 kJ/mol
# Density = 2.724353 g / cm^3
# Si number density = 27.305681 Si / 1000 Ang^3
#
#
#
# Elastic Constant Matrix: (Units=GPa)
#
#
# Indices 1 2 3 4 5 6 
#
# 1 78.3011 11.6607 34.3343 0.0000 0.0000 0.0000
# 2 11.6607 137.6644 25.0704 0.0002 0.0000 0.0000
# 3 34.3343 25.0704 201.9123 0.0011 0.0000 0.0000
# 4 0.0000 0.0002 0.0011 52.9149 0.0000 0.0000
# 5 0.0000 0.0000 0.0000 0.0000 42.4933 0.0000
# 6 0.0000 0.0000 0.0000 0.0000 0.0000 24.0485
#
#
#
# Elastic Compliance Matrix: (Units=1/GPa)
#
#
# Indices 1 2 3 4 5 6 
#
# 1 0.013878 -0.000763 -0.002265 0.000000 0.000000 0.000000
# 2 -0.000763 0.007474 -0.000798 0.000000 0.000000 0.000000
# 3 -0.002265 -0.000798 0.005437 0.000000 0.000000 0.000000
# 4 0.000000 0.000000 0.000000 0.018898 0.000000 0.000000
# 5 0.000000 0.000000 0.000000 0.000000 0.023533 0.000000
# 6 0.000000 0.000000 0.000000 0.000000 0.000000 0.041583
#
#
# Mechanical properties :
#
#
# Convention : Reuss Voigt Hill
#
# Bulk Modulus (GPa) = 52.25702 62.22320 57.24011
# Shear Modulus (GPa) = 40.05294 47.01216 43.53255
#
# Velocity S-wave (km/s) = 3.83408 4.15384 3.99716
# Velocity P-wave (km/s) = 6.22733 6.77074 6.50471
#
# Compressibility (1/GPa) = 0.01913618
#
# Stress axis : x y z
#
# Youngs Moduli (GPa) = 72.05596 133.79636 183.92683
#
# Poissons Ratio (x) = 0.10209 0.41663
# Poissons Ratio (y) = 0.05498 0.14682
# Poissons Ratio (z) = 0.16322 0.10680
#
# Static dielectric constant tensor:
#      x y z
#    x 2.277210 0.000000 0.000000 
#    y 0.000000 2.097320 0.000000 
#    z 0.000000 0.000000 2.089410 
# 
# From -- ./inp_files/10970.got.cif
#   From: 2010.05.17/outbox.cif.g08.bks.cpg/sg24_6_cif.got.tgz:10970.got - 2010.06.04 00:33:39.
