data_PCOD9333454
_publ_section_title
;
Structure prediction by ZEFSAII (Michael W. Deem and Ramdas Pophale) SiO2 
 PCOD9333454
Probable space group: I 21 21 21
;
_chemical_formula_sum "Si O2"
_cell_formula_units_Z 48
_cell_length_a 7.849895
_cell_length_b 16.359394
_cell_length_c 16.513285
_cell_angle_alpha 90.000000
_cell_angle_beta 90.000000
_cell_angle_gamma 90.000000
_cell_volume 2120.628219
_symmetry_space_group_name_H-M "I 21 21 21"
_symmetry_group_IT_number 24
_symmetry_cell_setting 'orthorhombic'
loop_
_space_group_symop_operation_xyz
x,y,z
-x,1/2-y,z
x,-y,1/2-z
1/2-x,y,-z
1/2+x,1/2+y,1/2+z
1/2-x,-y,1/2+z
1/2+x,1/2-y,-z
-x,1/2+y,1/2-z
loop_
_atom_site_type_symbol
_atom_site_label
_atom_site_fract_x
_atom_site_fract_y
_atom_site_fract_z
Si Si1 0.352830 0.011017 0.652138
Si Si2 0.842453 0.149015 0.703529
Si Si3 0.278923 0.335901 0.884080
Si Si4 0.765193 0.678702 0.807620
Si Si5 0.239208 0.489874 0.411354
Si Si6 0.826287 0.662139 0.373609
O O1 0.284478 0.102168 0.637022
O O2 0.545664 0.007416 0.620801
O O3 0.347781 0.000000 0.750000
O O4 0.260234 0.930486 0.615802
O O5 0.745778 0.147220 0.788464
O O6 0.764726 0.229109 0.658577
O O7 0.831414 0.066537 0.653447
O O8 0.040592 0.164147 0.720010
O O9 0.193136 0.417116 0.918911
O O10 0.224193 0.242508 0.902356
O O11 0.479817 0.336418 0.904796
O O12 0.659982 0.675543 0.724006
O O13 0.250000 0.451934 0.500000
#
# Coordination Sequence:
#
# PCOD9333454 Si02
#       6
#     8   8   8   8   8   8
#     4   9  17  33  57  82 103 132 170 209 255 311
#     4  10  19  33  52  78 104 130 166 214 262 302
#     4   9  17  32  55  76 100 133 170 213 256 301
#     4   9  18  31  53  81 105 127 165 213 260 310
#     4  11  22  34  49  73 103 139 178 212 248 297
#     4   8  15  29  53  80 101 127 164 205 253 307
#
# _framework density 22.634802000000001
#
# number of rings (size 3 to 8) (size 9 to 14) (size 15 to 20)
#    0.000    2.667    0.000    3.500    0.000    6.000 
#    0.000    4.167    0.000   24.000    0.000    0.000 
#    0.000    0.000    0.000    0.000    0.000    0.000 
#
# Total GULP energy -133701.908241 kJ/mol
# GULP energy per Si atom -5570.912843 kJ/mol
# Density = 2.258328 g / cm^3
# Si number density = 22.634802 Si / 1000 Ang^3
#
#
#
# Elastic Constant Matrix: (Units=GPa)
#
#
# Indices 1 2 3 4 5 6 
#
# 1 36.1907 5.0338 -5.1406 0.0000 0.0000 0.0000
# 2 5.0338 139.7668 25.8367 0.0000 0.0000 0.0000
# 3 -5.1406 25.8367 47.4483 0.0000 0.0000 0.0000
# 4 0.0000 0.0000 0.0000 -10.7121 0.0000 0.0000
# 5 0.0000 0.0000 0.0000 0.0000 -11.4591 0.0000
# 6 0.0000 0.0000 0.0000 0.0000 0.0000 8.5997
#
#
#
# Elastic Compliance Matrix: (Units=1/GPa)
#
#
# Indices 1 2 3 4 5 6 
#
# 1 0.028453 -0.001773 0.004048 0.000000 0.000000 0.000000
# 2 -0.001773 0.008066 -0.004584 0.000000 0.000000 0.000000
# 3 0.004048 -0.004584 0.024010 0.000000 0.000000 0.000000
# 4 0.000000 0.000000 0.000000 -0.093353 0.000000 0.000000
# 5 0.000000 0.000000 0.000000 0.000000 -0.087267 0.000000
# 6 0.000000 0.000000 0.000000 0.000000 0.000000 0.116283
#
#
# Mechanical properties :
#
#
# Convention : Reuss Voigt Hill
#
# Bulk Modulus (GPa) = 17.88554 30.54061 24.21308
# Shear Modulus (GPa) = 257.09509 10.46411 133.77960
#
# Velocity S-wave (km/s) = 10.66914 2.15245 7.69622
# Velocity P-wave (km/s) = 12.63697 4.43841 9.47081
#
# Compressibility (1/GPa) = 0.05591108
#
# Stress axis : x y z
#
# Youngs Moduli (GPa) = 35.14562 123.97632 41.64867
#
# Poissons Ratio (x) = 0.21982 -0.16860
# Poissons Ratio (y) = 0.06232 0.19093
# Poissons Ratio (z) = -0.14227 0.56834
#
# Static dielectric constant tensor:
#      x y z
#    x 1.827530 0.000000 0.000000 
#    y 0.000000 1.978080 0.000000 
#    z 0.000000 0.000000 1.836660 
# 
# From -- ./inp_files/29471.got.cif
#   From: 2010.05.17/outbox.cif.g08.bks.cpg/sg24_15_cif.got.tgz:29471.got - 2010.06.04 00:33:39.
