data_PCOD9333153
_publ_section_title
;
Structure prediction by ZEFSAII (Michael W. Deem and Ramdas Pophale) SiO2 
 PCOD9333153
Probable space group: I 21 21 21
;
_chemical_formula_sum "Si O2"
_cell_formula_units_Z 60
_cell_length_a 9.680577
_cell_length_b 14.635302
_cell_length_c 17.652607
_cell_angle_alpha 90.000000
_cell_angle_beta 90.000000
_cell_angle_gamma 90.000000
_cell_volume 2500.989019
_symmetry_space_group_name_H-M "I 21 21 21"
_symmetry_group_IT_number 24
_symmetry_cell_setting 'orthorhombic'
loop_
_space_group_symop_operation_xyz
x,y,z
-x,1/2-y,z
x,-y,1/2-z
1/2-x,y,-z
1/2+x,1/2+y,1/2+z
1/2-x,-y,1/2+z
1/2+x,1/2-y,-z
-x,1/2+y,1/2-z
loop_
_atom_site_type_symbol
_atom_site_label
_atom_site_fract_x
_atom_site_fract_y
_atom_site_fract_z
Si Si1 0.509538 0.358232 0.400000
Si Si2 0.159336 0.874483 0.398574
Si Si3 0.977033 0.621087 0.549210
Si Si4 0.000000 0.750000 0.678348
Si Si5 0.204758 0.227873 0.247819
Si Si6 0.733616 0.923161 0.813888
Si Si7 0.897738 0.054794 0.470181
Si Si8 0.780539 0.446593 0.329567
O O1 0.500000 0.250000 0.387868
O O2 0.381916 0.400636 0.352066
O O3 0.503084 0.375172 0.490917
O O4 0.642597 0.413713 0.371612
O O5 0.073882 0.838453 0.469235
O O6 0.323408 0.887667 0.414938
O O7 0.140837 0.805118 0.330609
O O8 0.130766 0.980346 0.377019
O O9 0.053222 0.674335 0.617049
O O10 0.065708 0.536784 0.518119
O O11 0.871052 0.720091 0.729578
O O12 0.181845 0.329436 0.275619
O O13 0.156542 0.150914 0.306794
O O14 0.632987 0.952530 0.881822
O O15 0.746048 0.000000 0.750000
O O16 0.750000 0.089833 0.500000
O O17 0.750224 0.500000 0.250000
#
# Coordination Sequence:
#
# PCOD9333153 Si02
#       8
#     8   8   8   4   8   8   8   8
#     4  11  20  38  62  93 119 159 209 268 309 356
#     4   9  20  37  66  93 124 157 204 267 310 370
#     4  10  20  41  60  94 123 160 209 253 320 362
#     4  10  22  34  64  96 120 160 202 278 310 360
#     4  10  20  36  59  96 125 156 208 254 320 363
#     4  11  24  39  60  89 131 170 205 249 309 384
#     4  10  24  41  60  89 126 166 209 250 306 380
#     4  10  18  34  62  94 123 155 197 262 321 359
#
# _framework density 23.990507999999998
#
# number of rings (size 3 to 8) (size 9 to 14) (size 15 to 20)
#    0.000    1.867    2.667    1.200    3.733    1.067 
#    4.800    2.000    0.000    0.000    0.000    0.000 
#    0.000    0.000    0.000    0.000    0.000    0.000 
#
# Total GULP energy -167318.148814 kJ/mol
# GULP energy per Si atom -5577.271627 kJ/mol
# Density = 2.393590 g / cm^3
# Si number density = 23.990508 Si / 1000 Ang^3
#
#
#
# Elastic Constant Matrix: (Units=GPa)
#
#
# Indices 1 2 3 4 5 6 
#
# 1 61.5515 7.7573 12.9134 0.0000 0.0000 0.0000
# 2 7.7573 111.2032 36.4604 0.0000 0.0000 0.0000
# 3 12.9134 36.4604 108.1280 0.0000 0.0000 0.0000
# 4 0.0000 0.0000 0.0000 35.9283 0.0000 0.0000
# 5 0.0000 0.0000 0.0000 0.0000 7.8448 0.0000
# 6 0.0000 0.0000 0.0000 0.0000 0.0000 17.1595
#
#
#
# Elastic Compliance Matrix: (Units=1/GPa)
#
#
# Indices 1 2 3 4 5 6 
#
# 1 0.016697 -0.000574 -0.001800 0.000000 0.000000 0.000000
# 2 -0.000574 0.010130 -0.003347 0.000000 0.000000 0.000000
# 3 -0.001800 -0.003347 0.010592 0.000000 0.000000 0.000000
# 4 0.000000 0.000000 0.000000 0.027833 0.000000 0.000000
# 5 0.000000 0.000000 0.000000 0.000000 0.127473 0.000000
# 6 0.000000 0.000000 0.000000 0.000000 0.000000 0.058277
#
#
# Mechanical properties :
#
#
# Convention : Reuss Voigt Hill
#
# Bulk Modulus (GPa) = 38.49897 43.90498 41.20198
# Shear Modulus (GPa) = 18.44313 27.10330 22.77321
#
# Velocity S-wave (km/s) = 2.77567 3.36482 3.08435
# Velocity P-wave (km/s) = 5.13370 5.78245 5.46771
#
# Compressibility (1/GPa) = 0.02597472
#
# Stress axis : x y z
#
# Youngs Moduli (GPa) = 59.89218 98.71593 94.41113
#
# Poissons Ratio (x) = 0.05671 0.16997
# Poissons Ratio (y) = 0.03441 0.31601
# Poissons Ratio (z) = 0.10783 0.33042
#
# Static dielectric constant tensor:
#      x y z
#    x 1.995300 0.000000 0.000000 
#    y 0.000000 1.963290 0.000000 
#    z 0.000000 0.000000 1.963040 
# 
# From -- ./inp_files/30339.got.cif
#   From: 2010.05.17/outbox.cif.g08.bks.cpg/sg24_16_cif.got.tgz:30339.got - 2010.06.04 00:33:39.
