data_PCOD9333505
_publ_section_title
;
Structure prediction by ZEFSAII (Michael W. Deem and Ramdas Pophale) SiO2 
 PCOD9333505
Probable space group: I 21 21 21
;
_chemical_formula_sum "Si O2"
_cell_formula_units_Z 40
_cell_length_a 11.425236
_cell_length_b 13.920200
_cell_length_c 13.796604
_cell_angle_alpha 90.000000
_cell_angle_beta 90.000000
_cell_angle_gamma 90.000000
_cell_volume 2194.233563
_symmetry_space_group_name_H-M "I 21 21 21"
_symmetry_group_IT_number 24
_symmetry_cell_setting 'orthorhombic'
loop_
_space_group_symop_operation_xyz
x,y,z
-x,1/2-y,z
x,-y,1/2-z
1/2-x,y,-z
1/2+x,1/2+y,1/2+z
1/2-x,-y,1/2+z
1/2+x,1/2-y,-z
-x,1/2+y,1/2-z
loop_
_atom_site_type_symbol
_atom_site_label
_atom_site_fract_x
_atom_site_fract_y
_atom_site_fract_z
Si Si1 0.108651 0.679522 0.331849
Si Si2 0.847558 0.574298 0.060490
Si Si3 0.750000 0.925762 0.500000
Si Si4 0.405671 0.606466 0.027599
Si Si5 0.267825 0.278412 0.637933
Si Si6 0.469535 0.000000 0.750000
O O1 0.184662 0.639332 0.420739
O O2 0.192700 0.722746 0.248869
O O3 0.000000 0.750000 0.357392
O O4 0.049731 0.589202 0.278306
O O5 0.787791 0.672417 0.097300
O O6 0.894195 0.521897 0.155230
O O7 0.750000 0.518332 0.000000
O O8 0.957749 0.598016 0.991919
O O9 0.847345 0.001342 0.540463
O O10 0.358265 0.675901 0.112475
O O11 0.352551 0.653646 0.928504
#
# Coordination Sequence:
#
# PCOD9333505 Si02
#       6
#     8   8   4   8   8   4
#     4  12  21  40  66  88 123 165 214 257 310 393
#     4  12  22  37  63  93 130 159 208 260 315 377
#     4  10  22  38  60  90 118 166 216 256 294 376
#     4  10  19  35  60  95 122 153 208 263 315 358
#     4  10  19  33  64  93 113 154 206 263 317 358
#     4  12  22  40  62  92 122 166 212 250 310 382
#
# _framework density 18.229600999999999
#
# number of rings (size 3 to 8) (size 9 to 14) (size 15 to 20)
#    0.000    1.200    8.000    1.800    0.000    0.000 
#    1.800    2.000    4.400    0.000    0.000    0.000 
#    0.000    0.000    0.000    0.000    0.000    0.000 
#
# Total GULP energy -111538.991300 kJ/mol
# GULP energy per Si atom -5576.949565 kJ/mol
# Density = 1.818811 g / cm^3
# Si number density = 18.229601 Si / 1000 Ang^3
#
#
#
# Elastic Constant Matrix: (Units=GPa)
#
#
# Indices 1 2 3 4 5 6 
#
# 1 87.3434 2.0852 36.7525 0.0000 0.0000 0.0000
# 2 2.0852 47.2446 15.0172 0.0000 0.0000 0.0000
# 3 36.7525 15.0172 84.1393 0.0000 0.0000 0.0000
# 4 0.0000 0.0000 0.0000 29.1708 0.0000 0.0000
# 5 0.0000 0.0000 0.0000 0.0000 63.8916 0.0000
# 6 0.0000 0.0000 0.0000 0.0000 0.0000 -40.4309
#
#
#
# Elastic Compliance Matrix: (Units=1/GPa)
#
#
# Indices 1 2 3 4 5 6 
#
# 1 0.014116 0.001417 -0.006419 0.000000 0.000000 0.000000
# 2 0.001417 0.022582 -0.004649 0.000000 0.000000 0.000000
# 3 -0.006419 -0.004649 0.015519 0.000000 0.000000 0.000000
# 4 0.000000 0.000000 0.000000 0.034281 0.000000 0.000000
# 5 0.000000 0.000000 0.000000 0.000000 0.015652 0.000000
# 6 0.000000 0.000000 0.000000 0.000000 0.000000 -0.024734
#
#
# Mechanical properties :
#
#
# Convention : Reuss Voigt Hill
#
# Bulk Modulus (GPa) = 30.38184 36.27078 33.32631
# Shear Modulus (GPa) = 46.42980 21.51778 33.97379
#
# Velocity S-wave (km/s) = 5.05220 3.43939 4.32170
# Velocity P-wave (km/s) = 7.12288 5.97598 6.57449
#
# Compressibility (1/GPa) = 0.03291440
#
# Stress axis : x y z
#
# Youngs Moduli (GPa) = 70.84044 44.28345 64.43816
#
# Poissons Ratio (x) = -0.06276 0.41363
# Poissons Ratio (y) = -0.10040 0.29960
# Poissons Ratio (z) = 0.45473 0.20590
#
# Static dielectric constant tensor:
#      x y z
#    x 1.682720 0.000000 0.000000 
#    y 0.000000 1.634450 0.000000 
#    z 0.000000 0.000000 1.667680 
# 
# From -- ./inp_files/25596.got.cif
#   From: 2010.05.17/outbox.cif.g08.bks.cpg/sg24_13_cif.got.tgz:25596.got - 2010.06.04 00:33:39.
