data_PCOD9333741
_publ_section_title
;
Structure prediction by ZEFSAII (Michael W. Deem and Ramdas Pophale) SiO2 
 PCOD9333741
Probable space group: I 21 21 21
;
_chemical_formula_sum "Si O2"
_cell_formula_units_Z 56
_cell_length_a 15.918946
_cell_length_b 21.258035
_cell_length_c 8.647106
_cell_angle_alpha 90.000000
_cell_angle_beta 90.000000
_cell_angle_gamma 90.000000
_cell_volume 2926.228327
_symmetry_space_group_name_H-M "I 21 21 21"
_symmetry_group_IT_number 24
_symmetry_cell_setting 'orthorhombic'
loop_
_space_group_symop_operation_xyz
x,y,z
-x,1/2-y,z
x,-y,1/2-z
1/2-x,y,-z
1/2+x,1/2+y,1/2+z
1/2-x,-y,1/2+z
1/2+x,1/2-y,-z
-x,1/2+y,1/2-z
loop_
_atom_site_type_symbol
_atom_site_label
_atom_site_fract_x
_atom_site_fract_y
_atom_site_fract_z
Si Si1 0.923923 0.098249 0.557327
Si Si2 0.589550 0.570009 0.236584
Si Si3 0.914744 0.788330 0.713816
Si Si4 0.163866 0.520829 0.427395
Si Si5 0.021937 0.820952 0.168270
Si Si6 0.166294 0.813765 0.905466
Si Si7 0.516572 0.122340 0.975936
O O1 0.899396 0.148406 0.687798
O O2 0.011874 0.068361 0.614858
O O3 0.944765 0.141207 0.409645
O O4 0.861023 0.042164 0.522355
O O5 0.622771 0.500000 0.250000
O O6 0.657754 0.619156 0.177349
O O7 0.545737 0.596936 0.391263
O O8 0.846381 0.738682 0.772193
O O9 0.934497 0.816205 0.544701
O O10 0.000000 0.750000 0.758293
O O11 0.174995 0.500000 0.250000
O O12 0.250000 0.546712 0.500000
O O13 0.086967 0.569803 0.440925
O O14 0.000000 0.750000 0.209019
O O15 0.037012 0.858631 0.325934
O O16 0.092415 0.815166 0.035222
O O17 0.250000 0.803514 0.000000
#
# Coordination Sequence:
#
# PCOD9333741 Si02
#       7
#     8   8   8   8   8   8   8
#     4  10  19  37  63  85 120 168 212 241 304 387
#     4  10  20  38  68  88 115 164 216 253 310 379
#     4  11  19  39  66  91 118 166 216 250 313 379
#     4  12  27  41  58  96 136 166 210 265 321 378
#     4  11  20  40  63  92 119 163 219 257 298 388
#     4  11  23  42  64  93 128 167 206 265 326 379
#     4  11  23  38  68  92 121 170 216 261 305 374
#
# _framework density 19.137263000000001
#
# number of rings (size 3 to 8) (size 9 to 14) (size 15 to 20)
#    0.000    1.143    8.571    0.429    4.000    0.571 
#    2.571    2.143    0.000    0.000    0.000    0.000 
#    0.000    0.000    0.000    0.000    0.000    0.000 
#
# Total GULP energy -156100.133931 kJ/mol
# GULP energy per Si atom -5575.004783 kJ/mol
# Density = 1.909371 g / cm^3
# Si number density = 19.137263 Si / 1000 Ang^3
#
#
#
# Elastic Constant Matrix: (Units=GPa)
#
#
# Indices 1 2 3 4 5 6 
#
# 1 20.1653 1.7768 -10.0850 0.0000 0.0000 0.0000
# 2 1.7768 102.2705 11.2868 0.0000 0.0000 0.0000
# 3 -10.0850 11.2868 71.7572 0.0000 0.0000 0.0000
# 4 0.0000 0.0000 0.0000 25.7872 0.0000 0.0000
# 5 0.0000 0.0000 0.0000 0.0000 16.7633 0.0000
# 6 0.0000 0.0000 0.0000 0.0000 0.0000 16.7474
#
#
#
# Elastic Compliance Matrix: (Units=1/GPa)
#
#
# Indices 1 2 3 4 5 6 
#
# 1 0.053662 -0.001796 0.007824 0.000000 0.000000 0.000000
# 2 -0.001796 0.010011 -0.001827 0.000000 0.000000 0.000000
# 3 0.007824 -0.001827 0.015323 0.000000 0.000000 0.000000
# 4 0.000000 0.000000 0.000000 0.038779 0.000000 0.000000
# 5 0.000000 0.000000 0.000000 0.000000 0.059654 0.000000
# 6 0.000000 0.000000 0.000000 0.000000 0.000000 0.059711
#
#
# Mechanical properties :
#
#
# Convention : Reuss Voigt Hill
#
# Bulk Modulus (GPa) = 11.44191 22.23893 16.84042
# Shear Modulus (GPa) = 19.38972 24.60722 21.99847
#
# Velocity S-wave (km/s) = 3.18652 3.58973 3.39412
# Velocity P-wave (km/s) = 4.41932 5.36913 4.91721
#
# Compressibility (1/GPa) = 0.08739802
#
# Stress axis : x y z
#
# Youngs Moduli (GPa) = 18.63533 99.89184 65.26182
#
# Poissons Ratio (x) = 0.17939 -0.51062
# Poissons Ratio (y) = 0.03347 0.11923
# Poissons Ratio (z) = -0.14581 0.18250
#
# Static dielectric constant tensor:
#      x y z
#    x 1.651030 0.000000 0.000000 
#    y 0.000000 1.677470 0.000000 
#    z 0.000000 0.000000 1.706070 
# 
# From -- ./inp_files/13121.got.cif
#   From: 2010.05.17/outbox.cif.g08.bks.cpg/sg24_7_cif.got.tgz:13121.got - 2010.06.04 00:33:39.
