data_PCOD9333330
_publ_section_title
;
Structure prediction by ZEFSAII (Michael W. Deem and Ramdas Pophale) SiO2 
 PCOD9333330
Probable space group: I 21 21 21
;
_chemical_formula_sum "Si O2"
_cell_formula_units_Z 64
_cell_length_a 9.036574
_cell_length_b 35.218876
_cell_length_c 14.166920
_cell_angle_alpha 90.000000
_cell_angle_beta 90.000000
_cell_angle_gamma 90.000000
_cell_volume 4508.735330
_symmetry_space_group_name_H-M "I 21 21 21"
_symmetry_group_IT_number 24
_symmetry_cell_setting 'orthorhombic'
loop_
_space_group_symop_operation_xyz
x,y,z
-x,1/2-y,z
x,-y,1/2-z
1/2-x,y,-z
1/2+x,1/2+y,1/2+z
1/2-x,-y,1/2+z
1/2+x,1/2-y,-z
-x,1/2+y,1/2-z
loop_
_atom_site_type_symbol
_atom_site_label
_atom_site_fract_x
_atom_site_fract_y
_atom_site_fract_z
Si Si1 0.079480 0.788573 0.885186
Si Si2 0.929690 0.518320 0.605853
Si Si3 0.429690 0.981680 0.605853
Si Si4 0.579480 0.288573 0.614814
Si Si5 0.571095 0.560160 0.206656
Si Si6 0.426566 0.367364 0.388231
Si Si7 0.926566 0.132636 0.388231
Si Si8 0.071095 0.060160 0.293344
O O1 0.250000 0.789624 0.855018
O O2 0.000000 0.750000 0.852974
O O3 0.994874 0.826964 0.858159
O O4 0.078082 0.787676 0.000000
O O5 0.750000 0.519142 0.604527
O O6 0.983318 0.525818 0.500000
O O7 0.974005 0.547777 0.687431
O O8 0.969030 0.475952 0.640828
O O9 0.474005 0.952223 0.687431
O O10 0.469030 0.024048 0.640828
O O11 0.500000 0.250000 0.647027
O O12 0.494874 0.326964 0.641841
O O13 0.496523 0.598058 0.169187
O O14 0.750000 0.564027 0.203900
O O15 0.250000 0.366541 0.378178
O O16 0.460756 0.372591 0.500000
O O17 0.996523 0.098058 0.330813
#
# Coordination Sequence:
#
# PCOD9333330 Si02
#       8
#     8   8   8   8   8   8   8   8
#     4   9  16  26  40  57  78 105 135 164 195 234
#     4   8  14  25  41  60  81 104 132 168 207 244
#     4   8  14  25  41  60  81 104 132 168 207 244
#     4   9  16  26  40  57  78 105 135 164 195 234
#     4   9  16  26  42  61  78 102 137 171 202 239
#     4  10  19  28  38  55  81 110 137 167 202 237
#     4  10  19  28  38  55  81 110 137 167 202 237
#     4   9  16  26  42  61  78 102 137 171 202 239
#
# _framework density 14.194668
#
# number of rings (size 3 to 8) (size 9 to 14) (size 15 to 20)
#    0.000    3.000    0.000    3.750    0.000    5.500 
#    0.000    2.500    0.000    2.250    0.000    0.000 
#    0.000    1.000    0.000    2.750    0.000    4.000 
#
# Total GULP energy -178205.388499 kJ/mol
# GULP energy per Si atom -5568.918391 kJ/mol
# Density = 1.416236 g / cm^3
# Si number density = 14.194668 Si / 1000 Ang^3
#
#
#
# Elastic Constant Matrix: (Units=GPa)
#
#
# Indices 1 2 3 4 5 6 
#
# 1 50.0728 59.3073 33.3007 0.0000 0.0000 0.0000
# 2 59.3073 155.0981 62.2252 0.0000 0.0000 0.0000
# 3 33.3007 62.2252 82.4060 0.0002 0.0000 0.0000
# 4 0.0000 0.0000 0.0002 20.0183 0.0000 0.0000
# 5 0.0000 0.0000 0.0000 0.0000 10.8466 0.0000
# 6 0.0000 0.0000 0.0000 0.0000 0.0000 26.8518
#
#
#
# Elastic Compliance Matrix: (Units=1/GPa)
#
#
# Indices 1 2 3 4 5 6 
#
# 1 0.038728 -0.012238 -0.006410 0.000000 0.000000 0.000000
# 2 -0.012238 0.013117 -0.004959 0.000000 0.000000 0.000000
# 3 -0.006410 -0.004959 0.018470 0.000000 0.000000 0.000000
# 4 0.000000 0.000000 0.000000 0.049954 0.000000 0.000000
# 5 0.000000 0.000000 0.000000 0.000000 0.092195 0.000000
# 6 0.000000 0.000000 0.000000 0.000000 0.000000 0.037241
#
#
# Mechanical properties :
#
#
# Convention : Reuss Voigt Hill
#
# Bulk Modulus (GPa) = 43.28636 66.36036 54.82336
# Shear Modulus (GPa) = 16.41401 20.39292 18.40347
#
# Velocity S-wave (km/s) = 3.40420 3.79444 3.60461
# Velocity P-wave (km/s) = 6.78325 8.12704 7.48536
#
# Compressibility (1/GPa) = 0.02310196
#
# Stress axis : x y z
#
# Youngs Moduli (GPa) = 25.82112 76.23917 54.14222
#
# Poissons Ratio (x) = 0.93298 0.34703
# Poissons Ratio (y) = 0.31599 0.26850
# Poissons Ratio (z) = 0.16550 0.37808
#
# Static dielectric constant tensor:
#      x y z
#    x 1.472270 0.000000 0.000000 
#    y 0.000000 1.450020 0.000000 
#    z 0.000000 0.000000 1.462180 
# 
# From -- ./inp_files/25290.got.cif
#   From: 2010.05.17/outbox.cif.g08.bks.cpg/sg24_13_cif.got.tgz:25290.got - 2010.06.04 00:33:39.
