data_PCOD9333814
_publ_section_title
;
Structure prediction by ZEFSAII (Michael W. Deem and Ramdas Pophale) SiO2 
 PCOD9333814
Probable space group: I 21 21 21
;
_chemical_formula_sum "Si O2"
_cell_formula_units_Z 44
_cell_length_a 14.325973
_cell_length_b 11.526754
_cell_length_c 11.241633
_cell_angle_alpha 90.000000
_cell_angle_beta 90.000000
_cell_angle_gamma 90.000000
_cell_volume 1856.352965
_symmetry_space_group_name_H-M "I 21 21 21"
_symmetry_group_IT_number 24
_symmetry_cell_setting 'orthorhombic'
loop_
_space_group_symop_operation_xyz
x,y,z
-x,1/2-y,z
x,-y,1/2-z
1/2-x,y,-z
1/2+x,1/2+y,1/2+z
1/2-x,-y,1/2+z
1/2+x,1/2-y,-z
-x,1/2+y,1/2-z
loop_
_atom_site_type_symbol
_atom_site_label
_atom_site_fract_x
_atom_site_fract_y
_atom_site_fract_z
Si Si1 0.628286 0.400311 0.062828
Si Si2 0.750000 0.399765 0.500000
Si Si3 0.602632 0.760829 0.656812
Si Si4 0.695132 0.815446 0.284491
Si Si5 0.923249 0.045352 0.955402
Si Si6 0.649467 0.816908 0.017735
O O1 0.667208 0.292833 0.134454
O O2 0.523450 0.428365 0.100471
O O3 0.693953 0.511123 0.081689
O O4 0.623718 0.354639 0.924138
O O5 0.669160 0.308750 0.539960
O O6 0.500000 0.750000 0.716031
O O7 0.693057 0.803821 0.728933
O O8 0.590349 0.862096 0.559325
O O9 0.656906 0.925814 0.358376
O O10 0.644138 0.799084 0.159414
O O11 0.923864 0.915892 0.009261
O O12 0.750000 0.878199 0.000000
#
# Coordination Sequence:
#
# PCOD9333814 Si02
#       6
#     8   4   8   8   8   8
#     4  10  19  39  63  89 118 155 201 245 302 361
#     4  10  22  42  54  78 122 170 184 238 306 356
#     4   9  18  34  67  93 111 150 204 252 296 354
#     4  11  19  38  65  89 120 153 205 255 298 357
#     4  10  20  37  63  94 120 151 197 253 308 365
#     4  10  24  40  53  84 126 165 196 237 313 355
#
# _framework density 23.702390000000001
#
# number of rings (size 3 to 8) (size 9 to 14) (size 15 to 20)
#    0.545    1.455    1.818    4.909    0.000    1.455 
#    9.818    1.818    0.000    4.364    0.000    0.000 
#    0.000    0.000    0.000    0.000    0.000    0.000 
#
# Total GULP energy -122559.704828 kJ/mol
# GULP energy per Si atom -5570.895674 kJ/mol
# Density = 2.364844 g / cm^3
# Si number density = 23.702390 Si / 1000 Ang^3
#
#
#
# Elastic Constant Matrix: (Units=GPa)
#
#
# Indices 1 2 3 4 5 6 
#
# 1 82.7512 31.4238 -2.6179 0.0000 0.0000 0.0000
# 2 31.4238 142.5166 9.1117 0.0000 0.0000 0.0000
# 3 -2.6179 9.1117 22.4831 0.0000 0.0000 0.0000
# 4 0.0000 0.0000 0.0000 2.5038 0.0000 0.0000
# 5 0.0000 0.0000 0.0000 0.0000 -11.7700 0.0000
# 6 0.0000 0.0000 0.0000 0.0000 0.0000 11.6212
#
#
#
# Elastic Compliance Matrix: (Units=1/GPa)
#
#
# Indices 1 2 3 4 5 6 
#
# 1 0.013361 -0.003126 0.002823 0.000000 0.000000 0.000000
# 2 -0.003126 0.007935 -0.003580 0.000000 0.000000 0.000000
# 3 0.002823 -0.003580 0.046257 0.000000 0.000000 0.000000
# 4 0.000000 0.000000 0.000000 0.399390 0.000000 0.000000
# 5 0.000000 0.000000 0.000000 0.000000 -0.084962 0.000000
# 6 0.000000 0.000000 0.000000 0.000000 0.000000 0.086049
#
#
# Mechanical properties :
#
#
# Convention : Reuss Voigt Hill
#
# Bulk Modulus (GPa) = 16.72628 35.95402 26.34015
# Shear Modulus (GPa) = 10.08622 14.45990 12.27306
#
# Velocity S-wave (km/s) = 2.06509 2.47262 2.27799
# Velocity P-wave (km/s) = 3.57187 4.83256 4.24923
#
# Compressibility (1/GPa) = 0.05978615
#
# Stress axis : x y z
#
# Youngs Moduli (GPa) = 74.84492 126.02453 21.61824
#
# Poissons Ratio (x) = 0.39401 -0.06102
# Poissons Ratio (y) = 0.23400 0.07739
# Poissons Ratio (z) = -0.21127 0.45115
#
# Static dielectric constant tensor:
#      x y z
#    x 1.930670 0.000000 0.000000 
#    y 0.000000 1.912520 0.000000 
#    z 0.000000 0.000000 1.957690 
# 
# From -- ./inp_files/20687.got.cif
#   From: 2010.05.17/outbox.cif.g08.bks.cpg/sg24_11_cif.got.tgz:20687.got - 2010.06.04 00:33:39.
