data_PCOD9333236
_publ_section_title
;
Structure prediction by ZEFSAII (Michael W. Deem and Ramdas Pophale) SiO2 
 PCOD9333236
Probable space group: I 21 21 21
;
_chemical_formula_sum "Si O2"
_cell_formula_units_Z 56
_cell_length_a 15.585438
_cell_length_b 9.289249
_cell_length_c 18.303737
_cell_angle_alpha 90.000000
_cell_angle_beta 90.000000
_cell_angle_gamma 90.000000
_cell_volume 2649.960394
_symmetry_space_group_name_H-M "I 21 21 21"
_symmetry_group_IT_number 24
_symmetry_cell_setting 'orthorhombic'
loop_
_space_group_symop_operation_xyz
x,y,z
-x,1/2-y,z
x,-y,1/2-z
1/2-x,y,-z
1/2+x,1/2+y,1/2+z
1/2-x,-y,1/2+z
1/2+x,1/2-y,-z
-x,1/2+y,1/2-z
loop_
_atom_site_type_symbol
_atom_site_label
_atom_site_fract_x
_atom_site_fract_y
_atom_site_fract_z
Si Si1 0.624016 0.978047 0.521447
Si Si2 0.236386 0.665920 0.220161
Si Si3 0.691309 0.242072 0.878892
Si Si4 0.087986 0.823010 0.755444
Si Si5 0.431794 0.944138 0.545724
Si Si6 0.895527 0.249556 0.409625
Si Si7 0.874601 0.723139 0.588805
O O1 0.691254 0.909500 0.578006
O O2 0.531513 0.961459 0.559272
O O3 0.622062 0.879303 0.450033
O O4 0.629352 0.148892 0.520883
O O5 0.251283 0.500000 0.250000
O O6 0.196345 0.734669 0.293130
O O7 0.326910 0.750856 0.207526
O O8 0.166394 0.693934 0.155967
O O9 0.607594 0.320091 0.905809
O O10 0.775341 0.321639 0.908116
O O11 0.094430 0.772181 0.671037
O O12 0.000000 0.750000 0.785333
O O13 0.087821 0.000000 0.750000
O O14 0.422155 0.889888 0.462621
O O15 0.381426 0.087252 0.566362
O O16 0.000000 0.250000 0.393150
#
# Coordination Sequence:
#
# PCOD9333236 Si02
#       7
#     8   8   8   8   8   8   8
#     4  10  18  37  59  88 123 166 208 260 312 384
#     4  11  23  42  62  88 135 176 216 269 319 386
#     4  10  20  35  59  84 119 166 215 259 315 378
#     4  11  25  46  73  97 126 166 220 276 332 393
#     4  10  20  35  59  89 126 159 210 266 320 380
#     4  10  23  38  59  97 137 170 215 264 322 384
#     4  10  21  39  65  93 119 162 216 259 327 396
#
# _framework density 21.132390999999998
#
# number of rings (size 3 to 8) (size 9 to 14) (size 15 to 20)
#    0.000    1.714    1.429    4.714    4.000    1.143 
#    0.000    9.286    0.000    0.000    0.000    0.000 
#    0.000    0.000    0.000    0.000    0.000    0.000 
#
# Total GULP energy -155897.427682 kJ/mol
# GULP energy per Si atom -5567.765274 kJ/mol
# Density = 2.108429 g / cm^3
# Si number density = 21.132391 Si / 1000 Ang^3
#
#
#
# Elastic Constant Matrix: (Units=GPa)
#
#
# Indices 1 2 3 4 5 6 
#
# 1 93.2002 24.3858 11.0505 0.0000 0.0000 0.0000
# 2 24.3858 130.4967 11.6028 0.0000 0.0000 0.0000
# 3 11.0505 11.6028 54.4693 0.0000 0.0000 0.0000
# 4 0.0000 0.0000 0.0000 0.1418 0.0000 0.0000
# 5 0.0000 0.0000 0.0000 0.0000 11.7001 0.0000
# 6 0.0000 0.0000 0.0000 0.0000 0.0000 22.2787
#
#
#
# Elastic Compliance Matrix: (Units=1/GPa)
#
#
# Indices 1 2 3 4 5 6 
#
# 1 0.011472 -0.001974 -0.001907 0.000000 0.000000 0.000000
# 2 -0.001974 0.008151 -0.001336 0.000000 0.000000 0.000000
# 3 -0.001907 -0.001336 0.019030 0.000000 0.000000 0.000000
# 4 0.000000 0.000000 0.000000 7.053527 0.000000 0.000000
# 5 0.000000 0.000000 0.000000 0.000000 0.085469 0.000000
# 6 0.000000 0.000000 0.000000 0.000000 0.000000 0.044886
#
#
# Mechanical properties :
#
#
# Convention : Reuss Voigt Hill
#
# Bulk Modulus (GPa) = 35.43635 41.36049 38.39842
# Shear Modulus (GPa) = 0.69038 22.23259 11.46149
#
# Velocity S-wave (km/s) = 0.57219 3.24707 2.33140
# Velocity P-wave (km/s) = 4.15231 5.80280 5.04550
#
# Compressibility (1/GPa) = 0.02821961
#
# Stress axis : x y z
#
# Youngs Moduli (GPa) = 87.16681 122.68855 52.54769
#
# Poissons Ratio (x) = 0.24222 0.10020
# Poissons Ratio (y) = 0.17209 0.07019
# Poissons Ratio (z) = 0.16622 0.16387
#
# Static dielectric constant tensor:
#      x y z
#    x 1.832830 0.000000 0.000000 
#    y 0.000000 1.833340 0.000000 
#    z 0.000000 0.000000 1.741630 
# 
# From -- ./inp_files/33741.got.cif
#   From: 2010.05.17/outbox.cif.g08.bks.cpg/sg24_17_cif.got.tgz:33741.got - 2010.06.04 00:33:39.
