data_PCOD9333565
_publ_section_title
;
Structure prediction by ZEFSAII (Michael W. Deem and Ramdas Pophale) SiO2 
 PCOD9333565
Probable space group: I 21 21 21
;
_chemical_formula_sum "Si O2"
_cell_formula_units_Z 40
_cell_length_a 15.336546
_cell_length_b 21.545143
_cell_length_c 5.997671
_cell_angle_alpha 90.000000
_cell_angle_beta 90.000000
_cell_angle_gamma 90.000000
_cell_volume 1981.798893
_symmetry_space_group_name_H-M "I 21 21 21"
_symmetry_group_IT_number 24
_symmetry_cell_setting 'orthorhombic'
loop_
_space_group_symop_operation_xyz
x,y,z
-x,1/2-y,z
x,-y,1/2-z
1/2-x,y,-z
1/2+x,1/2+y,1/2+z
1/2-x,-y,1/2+z
1/2+x,1/2-y,-z
-x,1/2+y,1/2-z
loop_
_atom_site_type_symbol
_atom_site_label
_atom_site_fract_x
_atom_site_fract_y
_atom_site_fract_z
Si Si1 0.538973 0.648293 0.898432
Si Si2 0.941485 0.939758 0.411692
Si Si3 0.750000 0.966942 0.500000
Si Si4 0.000000 0.750000 0.761472
Si Si5 0.606626 0.433600 0.228717
Si Si6 0.847895 0.307115 0.017080
O O1 0.470540 0.620172 0.727065
O O2 0.612573 0.685514 0.763428
O O3 0.492257 0.690592 0.080018
O O4 0.585825 0.592503 0.027533
O O5 0.843511 0.933399 0.499639
O O6 0.015025 0.945679 0.600981
O O7 0.945416 0.000000 0.250000
O O8 0.750013 0.000000 0.750000
O O9 0.915688 0.735862 0.614416
O O10 0.653314 0.500000 0.250000
O O11 0.649778 0.376361 0.095096
O O12 0.750000 0.283924 0.000000
#
# Coordination Sequence:
#
# PCOD9333565 Si02
#       6
#     8   8   4   4   8   8
#     4  10  21  39  69  87 124 172 217 275 333 414
#     4  10  19  34  61  88 131 172 215 269 337 403
#     4  10  22  34  58  92 136 180 218 274 334 406
#     4  10  22  42  72  88 126 174 232 270 340 406
#     4  10  19  35  60  95 128 171 211 261 343 412
#     4  10  23  42  66  97 128 172 219 283 343 403
#
# _framework density 20.183682999999998
#
# number of rings (size 3 to 8) (size 9 to 14) (size 15 to 20)
#    0.000    2.000    2.000    1.200    2.800    3.200 
#    3.600    0.000   52.800    0.000    0.000    0.000 
#    0.000    0.000    0.000    0.000    0.000    0.000 
#
# Total GULP energy -111547.194460 kJ/mol
# GULP energy per Si atom -5577.359723 kJ/mol
# Density = 2.013774 g / cm^3
# Si number density = 20.183683 Si / 1000 Ang^3
#
#
#
# Elastic Constant Matrix: (Units=GPa)
#
#
# Indices 1 2 3 4 5 6 
#
# 1 133.9250 20.6257 43.1909 0.0000 0.0000 0.0000
# 2 20.6257 65.3313 21.4854 0.0000 0.0000 0.0000
# 3 43.1909 21.4854 103.6199 0.0000 0.0000 0.0000
# 4 0.0000 0.0000 0.0000 34.4750 0.0000 0.0000
# 5 0.0000 0.0000 0.0000 0.0000 -2.0140 0.0000
# 6 0.0000 0.0000 0.0000 0.0000 0.0000 16.2383
#
#
#
# Elastic Compliance Matrix: (Units=1/GPa)
#
#
# Indices 1 2 3 4 5 6 
#
# 1 0.008796 -0.001686 -0.003317 0.000000 0.000000 0.000000
# 2 -0.001686 0.016750 -0.002770 0.000000 0.000000 0.000000
# 3 -0.003317 -0.002770 0.011608 0.000000 0.000000 0.000000
# 4 0.000000 0.000000 0.000000 0.029007 0.000000 0.000000
# 5 0.000000 0.000000 0.000000 0.000000 -0.496512 0.000000
# 6 0.000000 0.000000 0.000000 0.000000 0.000000 0.061583
#
#
# Mechanical properties :
#
#
# Convention : Reuss Voigt Hill
#
# Bulk Modulus (GPa) = 46.28077 52.60890 49.44484
# Shear Modulus (GPa) = -14.45002 24.24481 4.89739
#
# Velocity S-wave (km/s) = -2.67858 3.46961 1.55938
# Velocity P-wave (km/s) = 3.66240 6.49404 5.27189
#
# Compressibility (1/GPa) = 0.02160725
#
# Stress axis : x y z
#
# Youngs Moduli (GPa) = 113.68497 59.70150 86.15069
#
# Poissons Ratio (x) = 0.10067 0.28575
# Poissons Ratio (y) = 0.19170 0.23866
# Poissons Ratio (z) = 0.37707 0.16539
#
# Static dielectric constant tensor:
#      x y z
#    x 1.683690 0.000000 0.000000 
#    y 0.000000 1.766770 0.000000 
#    z 0.000000 0.000000 1.751690 
# 
# From -- ./inp_files/3535.got.cif
#   From: 2010.05.17/outbox.cif.g08.bks.cpg/sg24_2_cif.got.tgz:3535.got - 2010.06.04 00:33:39.
