data_PCOD9333410
_publ_section_title
;
Structure prediction by ZEFSAII (Michael W. Deem and Ramdas Pophale) SiO2 
 PCOD9333410
Probable space group: I 21 21 21
;
_chemical_formula_sum "Si O2"
_cell_formula_units_Z 48
_cell_length_a 20.532542
_cell_length_b 18.418952
_cell_length_c 5.184530
_cell_angle_alpha 90.000000
_cell_angle_beta 90.000000
_cell_angle_gamma 90.000000
_cell_volume 1960.726542
_symmetry_space_group_name_H-M "I 21 21 21"
_symmetry_group_IT_number 24
_symmetry_cell_setting 'orthorhombic'
loop_
_space_group_symop_operation_xyz
x,y,z
-x,1/2-y,z
x,-y,1/2-z
1/2-x,y,-z
1/2+x,1/2+y,1/2+z
1/2-x,-y,1/2+z
1/2+x,1/2-y,-z
-x,1/2+y,1/2-z
loop_
_atom_site_type_symbol
_atom_site_label
_atom_site_fract_x
_atom_site_fract_y
_atom_site_fract_z
Si Si1 0.839274 0.842148 0.672882
Si Si2 0.335342 0.419509 0.667272
Si Si3 0.170327 0.956044 0.509327
Si Si4 0.494325 0.582039 0.825803
Si Si5 0.993922 0.164015 0.828311
Si Si6 0.293453 0.812286 0.253835
O O1 0.815918 0.860547 0.384386
O O2 0.916817 0.850710 0.657472
O O3 0.828491 0.763255 0.799031
O O4 0.813886 0.899610 0.880300
O O5 0.316633 0.500000 0.750000
O O6 0.415141 0.417770 0.659776
O O7 0.250000 0.958348 0.500000
O O8 0.161282 0.873578 0.613454
O O9 0.151413 0.000000 0.250000
O O10 0.144642 0.000000 0.750000
O O11 0.511560 0.500000 0.750000
O O12 0.519142 0.635466 0.601763
O O13 0.519124 0.614854 0.093858
O O14 0.000000 0.250000 0.787809
O O15 0.250000 0.792644 0.500000
O O16 0.250000 0.835445 0.000000
#
# Coordination Sequence:
#
# PCOD9333410 Si02
#       6
#     8   8   8   8   8   8
#     4  10  20  33  52  77 104 133 167 209 255 302
#     4   9  17  31  52  75  99 131 174 216 246 285
#     4   9  16  28  47  70  91 116 158 204 238 275
#     4   9  17  30  50  76 101 131 174 214 246 288
#     4  10  19  32  52  78 105 133 166 209 256 302
#     4  11  21  34  53  76 103 134 167 208 255 302
#
# _framework density 24.480720000000002
#
# number of rings (size 3 to 8) (size 9 to 14) (size 15 to 20)
#    0.000    2.333    0.000    5.000    0.000    4.000 
#    0.000    0.000    0.000   13.000    0.000    5.833 
#    0.000    0.000    0.000    0.000    0.000    0.000 
#
# Total GULP energy -133969.889585 kJ/mol
# GULP energy per Si atom -5582.078733 kJ/mol
# Density = 2.442500 g / cm^3
# Si number density = 24.480720 Si / 1000 Ang^3
#
#
#
# Elastic Constant Matrix: (Units=GPa)
#
#
# Indices 1 2 3 4 5 6 
#
# 1 63.2645 -17.7460 11.2725 0.0000 0.0000 0.0000
# 2 -17.7460 131.6799 35.5908 0.0000 0.0000 0.0000
# 3 11.2725 35.5908 160.8832 0.0000 0.0000 0.0000
# 4 0.0000 0.0000 0.0000 46.8313 0.0000 0.0000
# 5 0.0000 0.0000 0.0000 0.0000 24.5690 0.0000
# 6 0.0000 0.0000 0.0000 0.0000 0.0000 2.4849
#
#
#
# Elastic Compliance Matrix: (Units=1/GPa)
#
#
# Indices 1 2 3 4 5 6 
#
# 1 0.016902 0.002763 -0.001795 0.000000 0.000000 0.000000
# 2 0.002763 0.008529 -0.002080 0.000000 0.000000 0.000000
# 3 -0.001795 -0.002080 0.006802 0.000000 0.000000 0.000000
# 4 0.000000 0.000000 0.000000 0.021353 0.000000 0.000000
# 5 0.000000 0.000000 0.000000 0.000000 0.040702 0.000000
# 6 0.000000 0.000000 0.000000 0.000000 0.000000 0.402425
#
#
# Mechanical properties :
#
#
# Convention : Reuss Voigt Hill
#
# Bulk Modulus (GPa) = 33.32599 46.00690 39.66644
# Shear Modulus (GPa) = 9.82434 36.55775 23.19105
#
# Velocity S-wave (km/s) = 2.00544 3.86855 3.08119
# Velocity P-wave (km/s) = 4.35949 6.22802 5.37556
#
# Compressibility (1/GPa) = 0.03000661
#
# Stress axis : x y z
#
# Youngs Moduli (GPa) = 59.16587 117.24948 147.02185
#
# Poissons Ratio (x) = -0.32397 0.26398
# Poissons Ratio (y) = -0.16348 0.30586
# Poissons Ratio (z) = 0.10623 0.24392
#
# Static dielectric constant tensor:
#      x y z
#    x 2.035690 0.000000 0.000000 
#    y 0.000000 1.970220 0.000000 
#    z 0.000000 0.000000 1.855320 
# 
# From -- ./inp_files/7112.got.cif
#   From: 2010.05.17/outbox.cif.g08.bks.cpg/sg24_4_cif.got.tgz:7112.got - 2010.06.04 00:33:39.
