data_PCOD9333255
_publ_section_title
;
Structure prediction by ZEFSAII (Michael W. Deem and Ramdas Pophale) SiO2 
 PCOD9333255
Probable space group: I 21 21 21
;
_chemical_formula_sum "Si O2"
_cell_formula_units_Z 48
_cell_length_a 20.880280
_cell_length_b 13.651978
_cell_length_c 7.147973
_cell_angle_alpha 90.000000
_cell_angle_beta 90.000000
_cell_angle_gamma 90.000000
_cell_volume 2037.580620
_symmetry_space_group_name_H-M "I 21 21 21"
_symmetry_group_IT_number 24
_symmetry_cell_setting 'orthorhombic'
loop_
_space_group_symop_operation_xyz
x,y,z
-x,1/2-y,z
x,-y,1/2-z
1/2-x,y,-z
1/2+x,1/2+y,1/2+z
1/2-x,-y,1/2+z
1/2+x,1/2-y,-z
-x,1/2+y,1/2-z
loop_
_atom_site_type_symbol
_atom_site_label
_atom_site_fract_x
_atom_site_fract_y
_atom_site_fract_z
Si Si1 0.311705 0.074908 0.099974
Si Si2 0.562448 0.634304 0.572341
Si Si3 0.040684 0.500000 0.250000
Si Si4 0.887702 0.884144 0.732945
Si Si5 0.116096 0.320215 0.214870
Si Si6 0.000000 0.750000 0.756534
Si Si7 0.239542 0.711959 0.713042
O O1 0.287847 0.177362 0.191129
O O2 0.337836 0.000000 0.250000
O O3 0.250000 0.030072 0.000000
O O4 0.366345 0.094585 0.950103
O O5 0.509227 0.555324 0.617273
O O6 0.570823 0.724437 0.716587
O O7 0.541396 0.678054 0.374540
O O8 0.087347 0.414059 0.317292
O O9 0.886271 0.852219 0.509066
O O10 0.943914 0.820523 0.831862
O O11 0.816613 0.852934 0.800203
O O12 0.897954 0.000000 0.750000
O O13 0.187420 0.292912 0.282288
O O14 0.250000 0.676145 0.500000
#
# Coordination Sequence:
#
# PCOD9333255 Si02
#       7
#     8   8   4   8   8   4   8
#     4  11  22  39  68  97 124 173 219 264 325 400
#     4  11  20  38  61  89 122 162 213 262 320 395
#     4  12  22  34  66  92 116 166 220 268 316 402
#     4  10  19  34  61  86 112 155 210 253 314 386
#     4  10  20  39  61  87 117 164 213 255 325 391
#     4  10  18  38  56  78 118 164 204 248 310 402
#     4   9  17  37  62  85 116 161 209 256 306 388
#
# _framework density 23.55735
#
# number of rings (size 3 to 8) (size 9 to 14) (size 15 to 20)
#    0.000    1.667   10.000    0.000    2.333    0.667 
#    0.000    0.000   14.667    0.000    0.000    0.000 
#    0.000    0.000    0.000    0.000    0.000    0.000 
#
# Total GULP energy -133900.289702 kJ/mol
# GULP energy per Si atom -5579.178738 kJ/mol
# Density = 2.350373 g / cm^3
# Si number density = 23.557350 Si / 1000 Ang^3
#
#
#
# Elastic Constant Matrix: (Units=GPa)
#
#
# Indices 1 2 3 4 5 6 
#
# 1 198.9614 66.5554 -0.1447 0.0000 0.0000 0.0000
# 2 66.5554 87.2112 15.4197 0.0000 0.0000 0.0000
# 3 -0.1447 15.4197 31.7028 0.0000 0.0000 0.0000
# 4 0.0000 0.0000 0.0000 28.7633 0.0000 0.0000
# 5 0.0000 0.0000 0.0000 0.0000 0.5947 0.0000
# 6 0.0000 0.0000 0.0000 0.0000 0.0000 44.2661
#
#
#
# Elastic Compliance Matrix: (Units=1/GPa)
#
#
# Indices 1 2 3 4 5 6 
#
# 1 0.006980 -0.005834 0.002869 0.000000 0.000000 0.000000
# 2 -0.005834 0.017421 -0.008500 0.000000 0.000000 0.000000
# 3 0.002869 -0.008500 0.035690 0.000000 0.000000 0.000000
# 4 0.000000 0.000000 0.000000 0.034766 0.000000 0.000000
# 5 0.000000 0.000000 0.000000 0.000000 1.681464 0.000000
# 6 0.000000 0.000000 0.000000 0.000000 0.000000 0.022591
#
#
# Mechanical properties :
#
#
# Convention : Reuss Voigt Hill
#
# Bulk Modulus (GPa) = 26.90907 53.50401 40.20654
# Shear Modulus (GPa) = 2.72594 30.46118 16.59356
#
# Velocity S-wave (km/s) = 1.07688 3.59982 2.65691
# Velocity P-wave (km/s) = 3.60469 6.32770 5.14945
#
# Compressibility (1/GPa) = 0.03716219
#
# Stress axis : x y z
#
# Youngs Moduli (GPa) = 143.27236 57.40047 28.01881
#
# Poissons Ratio (x) = 0.33487 -0.08040
# Poissons Ratio (y) = 0.83584 0.23816
# Poissons Ratio (z) = -0.41110 0.48791
#
# Static dielectric constant tensor:
#      x y z
#    x 1.966760 0.000000 0.000000 
#    y 0.000000 1.872740 0.000000 
#    z 0.000000 0.000000 2.008040 
# 
# From -- ./inp_files/15130.got.cif
#   From: 2010.05.17/outbox.cif.g08.bks.cpg/sg24_8_cif.got.tgz:15130.got - 2010.06.04 00:33:39.
