data_PCOD9333490
_publ_section_title
;
Structure prediction by ZEFSAII (Michael W. Deem and Ramdas Pophale) SiO2 
 PCOD9333490
Probable space group: I 21 21 21
;
_chemical_formula_sum "Si O2"
_cell_formula_units_Z 64
_cell_length_a 9.460518
_cell_length_b 19.278307
_cell_length_c 18.528849
_cell_angle_alpha 90.000000
_cell_angle_beta 90.000000
_cell_angle_gamma 90.000000
_cell_volume 3379.342813
_symmetry_space_group_name_H-M "I 21 21 21"
_symmetry_group_IT_number 24
_symmetry_cell_setting 'orthorhombic'
loop_
_space_group_symop_operation_xyz
x,y,z
-x,1/2-y,z
x,-y,1/2-z
1/2-x,y,-z
1/2+x,1/2+y,1/2+z
1/2-x,-y,1/2+z
1/2+x,1/2-y,-z
-x,1/2+y,1/2-z
loop_
_atom_site_type_symbol
_atom_site_label
_atom_site_fract_x
_atom_site_fract_y
_atom_site_fract_z
Si Si1 0.039177 0.328057 0.757500
Si Si2 0.130679 0.503578 0.144635
Si Si3 0.509358 0.892203 0.760241
Si Si4 0.830360 0.200035 0.165870
Si Si5 0.744565 0.357714 0.826071
Si Si6 0.043412 0.535676 0.826764
Si Si7 0.905739 0.105591 0.032287
Si Si8 0.352339 0.955454 0.439678
O O1 0.175033 0.327638 0.810496
O O2 0.052853 0.382790 0.692617
O O3 0.000000 0.250000 0.733418
O O4 0.906160 0.351263 0.804273
O O5 0.077902 0.446198 0.202561
O O6 0.052299 0.574834 0.164340
O O7 0.298164 0.511826 0.153218
O O8 0.094639 0.470344 0.068749
O O9 0.580369 0.820346 0.736977
O O10 0.345919 0.886278 0.740957
O O11 0.812052 0.281590 0.153951
O O12 0.903171 0.162454 0.097211
O O13 0.742959 0.411248 0.891032
O O14 0.005617 0.500000 0.750000
O O15 0.937270 0.508709 0.888387
O O16 0.750000 0.116176 0.000000
O O17 0.033444 0.098756 0.975264
O O18 0.250000 0.987972 0.500000
#
# Coordination Sequence:
#
# PCOD9333490 Si02
#       8
#     8   8   8   8   8   8   8   8
#     4  10  21  37  63  96 118 153 208 256 314 370
#     4  10  19  34  60  84 107 149 207 254 288 345
#     4  10  19  33  58  82 111 146 204 251 295 332
#     4  10  20  38  58  81 119 167 207 236 289 360
#     4  11  23  37  54  87 129 159 194 250 297 361
#     4  12  19  39  67  87 114 161 206 258 304 351
#     4  11  21  37  59  80 116 165 209 240 279 357
#     4  12  26  39  56  90 129 160 206 244 303 368
#
# _framework density 18.938593999999998
#
# number of rings (size 3 to 8) (size 9 to 14) (size 15 to 20)
#    0.000    1.250    5.000    3.375    0.000    3.500 
#    0.000    2.500    0.000    0.000    3.250    0.000 
#    0.000    0.000    0.000    0.000    0.000    0.000 
#
# Total GULP energy -178448.632084 kJ/mol
# GULP energy per Si atom -5576.519753 kJ/mol
# Density = 1.889549 g / cm^3
# Si number density = 18.938594 Si / 1000 Ang^3
#
#
#
# Elastic Constant Matrix: (Units=GPa)
#
#
# Indices 1 2 3 4 5 6 
#
# 1 104.3629 20.0114 30.1014 0.0000 0.0000 0.0000
# 2 20.0114 72.3090 31.1782 0.0000 0.0000 0.0000
# 3 30.1014 31.1782 51.9432 0.0000 0.0000 0.0000
# 4 0.0000 0.0000 0.0000 17.9765 0.0000 0.0000
# 5 0.0000 0.0000 0.0000 0.0000 31.2006 0.0000
# 6 0.0000 0.0000 0.0000 0.0000 0.0000 21.7097
#
#
#
# Elastic Compliance Matrix: (Units=1/GPa)
#
#
# Indices 1 2 3 4 5 6 
#
# 1 0.011514 -0.000418 -0.006422 0.000000 0.000000 0.000000
# 2 -0.000418 0.018674 -0.010967 0.000000 0.000000 0.000000
# 3 -0.006422 -0.010967 0.029556 0.000000 0.000000 0.000000
# 4 0.000000 0.000000 0.000000 0.055628 0.000000 0.000000
# 5 0.000000 0.000000 0.000000 0.000000 0.032051 0.000000
# 6 0.000000 0.000000 0.000000 0.000000 0.000000 0.046062
#
#
# Mechanical properties :
#
#
# Convention : Reuss Voigt Hill
#
# Bulk Modulus (GPa) = 41.43948 43.46636 42.45292
# Shear Modulus (GPa) = 21.08445 23.99896 22.54170
#
# Velocity S-wave (km/s) = 3.34024 3.56364 3.45375
# Velocity P-wave (km/s) = 6.06669 6.31931 6.19429
#
# Compressibility (1/GPa) = 0.02413158
#
# Stress axis : x y z
#
# Youngs Moduli (GPa) = 86.84848 53.55121 33.83406
#
# Poissons Ratio (x) = 0.02236 0.21728
# Poissons Ratio (y) = 0.03626 0.37105
# Poissons Ratio (z) = 0.55774 0.58728
#
# Static dielectric constant tensor:
#      x y z
#    x 1.703570 0.000000 0.000000 
#    y 0.000000 1.724500 0.000000 
#    z 0.000000 0.000000 1.701730 
# 
# From -- ./inp_files/29797.got.cif
#   From: 2010.05.17/outbox.cif.g08.bks.cpg/sg24_15_cif.got.tgz:29797.got - 2010.06.04 00:33:39.
