data_PCOD9333514
_publ_section_title
;
Structure prediction by ZEFSAII (Michael W. Deem and Ramdas Pophale) SiO2 
 PCOD9333514
Probable space group: I 21 21 21
;
_chemical_formula_sum "Si O2"
_cell_formula_units_Z 60
_cell_length_a 5.598724
_cell_length_b 19.070985
_cell_length_c 27.035875
_cell_angle_alpha 90.000000
_cell_angle_beta 90.000000
_cell_angle_gamma 90.000000
_cell_volume 2886.706386
_symmetry_space_group_name_H-M "I 21 21 21"
_symmetry_group_IT_number 24
_symmetry_cell_setting 'orthorhombic'
loop_
_space_group_symop_operation_xyz
x,y,z
-x,1/2-y,z
x,-y,1/2-z
1/2-x,y,-z
1/2+x,1/2+y,1/2+z
1/2-x,-y,1/2+z
1/2+x,1/2-y,-z
-x,1/2+y,1/2-z
loop_
_atom_site_type_symbol
_atom_site_label
_atom_site_fract_x
_atom_site_fract_y
_atom_site_fract_z
Si Si1 0.500000 0.750000 0.471090
Si Si2 0.406870 0.469355 0.882107
Si Si3 0.248062 0.706790 0.055984
Si Si4 0.232041 0.038311 0.553983
Si Si5 0.884818 0.086302 0.746691
Si Si6 0.593584 0.098989 0.365743
Si Si7 0.596148 0.101077 0.050129
Si Si8 0.875050 0.570266 0.283875
O O1 0.250000 0.741153 0.500000
O O2 0.462358 0.825327 0.445657
O O3 0.515754 0.509267 0.928874
O O4 0.220522 0.523870 0.860248
O O5 0.272382 0.403236 0.903417
O O6 0.597350 0.452180 0.840659
O O7 0.500000 0.750000 0.059993
O O8 0.252549 0.652264 0.101258
O O9 0.000000 0.750000 0.059112
O O10 0.250000 0.675259 0.000000
O O11 0.250000 0.072504 0.500000
O O12 0.067824 0.968428 0.550096
O O13 0.132996 0.085958 0.598417
O O14 0.121448 0.107221 0.776823
O O15 0.935103 0.116653 0.691665
O O16 0.622826 0.107107 0.767032
O O17 0.877962 0.000000 0.750000
O O18 0.750000 0.098220 0.000000
O O19 0.865298 0.500000 0.250000
#
# Coordination Sequence:
#
# PCOD9333514 Si02
#       8
#     4   8   8   8   8   8   8   8
#     4  10  22  38  62  80 114 174 220 246 282 348
#     4  11  22  35  56  91 128 159 198 252 324 378
#     4  10  25  45  63  88 127 170 219 267 310 377
#     4  11  22  33  55  88 129 156 195 254 317 382
#     4  10  19  36  55  88 121 144 194 245 297 371
#     4  11  24  36  63  91 119 167 209 253 326 386
#     4  10  21  37  53  86 124 163 207 255 299 364
#     4  10  19  34  54  81 125 151 188 241 304 361
#
# _framework density 20.784934
#
# number of rings (size 3 to 8) (size 9 to 14) (size 15 to 20)
#    0.000    1.600    4.000    2.000    7.467    0.533 
#    0.000    0.000    0.000    0.000    1.733    0.000 
#    0.000    0.000    0.000    0.000    0.000    0.000 
#
# Total GULP energy -167187.380049 kJ/mol
# GULP energy per Si atom -5572.912668 kJ/mol
# Density = 2.073763 g / cm^3
# Si number density = 20.784934 Si / 1000 Ang^3
#
#
#
# Elastic Constant Matrix: (Units=GPa)
#
#
# Indices 1 2 3 4 5 6 
#
# 1 102.0808 6.4411 4.1059 0.0000 0.0000 0.0000
# 2 6.4411 35.4691 11.3109 0.0000 0.0000 0.0000
# 3 4.1059 11.3109 96.9877 0.0000 0.0000 0.0000
# 4 0.0000 0.0000 0.0000 15.4274 0.0000 0.0000
# 5 0.0000 0.0000 0.0000 0.0000 -111.4301 0.0000
# 6 0.0000 0.0000 0.0000 0.0000 0.0000 20.6754
#
#
#
# Elastic Compliance Matrix: (Units=1/GPa)
#
#
# Indices 1 2 3 4 5 6 
#
# 1 0.009914 -0.001731 -0.000218 0.000000 0.000000 0.000000
# 2 -0.001731 0.029585 -0.003377 0.000000 0.000000 0.000000
# 3 -0.000218 -0.003377 0.010714 0.000000 0.000000 0.000000
# 4 0.000000 0.000000 0.000000 0.064820 0.000000 0.000000
# 5 0.000000 0.000000 0.000000 0.000000 -0.008974 0.000000
# 6 0.000000 0.000000 0.000000 0.000000 0.000000 0.048367
#
#
# Mechanical properties :
#
#
# Convention : Reuss Voigt Hill
#
# Bulk Modulus (GPa) = 25.27732 30.91704 28.09718
# Shear Modulus (GPa) = 28.04841 -0.88682 13.58080
#
# Velocity S-wave (km/s) = 3.67748 -0.65390 2.55893
# Velocity P-wave (km/s) = 5.49724 3.78641 4.71999
#
# Compressibility (1/GPa) = 0.03956115
#
# Stress axis : x y z
#
# Youngs Moduli (GPa) = 100.86606 33.80114 93.33899
#
# Poissons Ratio (x) = 0.05851 0.02033
# Poissons Ratio (y) = 0.17459 0.31520
# Poissons Ratio (z) = 0.02197 0.11414
#
# Static dielectric constant tensor:
#      x y z
#    x 1.810710 0.000000 0.000000 
#    y 0.000000 1.791730 0.000000 
#    z 0.000000 0.000000 1.774120 
# 
# From -- ./inp_files/34804.got.cif
#   From: 2010.05.17/outbox.cif.g08.bks.cpg/sg24_18_cif.got.tgz:34804.got - 2010.06.04 00:33:39.
