data_PCOD9333789
_publ_section_title
;
Structure prediction by ZEFSAII (Michael W. Deem and Ramdas Pophale) SiO2 
 PCOD9333789
Probable space group: I 21 21 21
;
_chemical_formula_sum "Si O2"
_cell_formula_units_Z 56
_cell_length_a 12.631221
_cell_length_b 16.017100
_cell_length_c 14.188226
_cell_angle_alpha 90.000000
_cell_angle_beta 90.000000
_cell_angle_gamma 90.000000
_cell_volume 2870.498461
_symmetry_space_group_name_H-M "I 21 21 21"
_symmetry_group_IT_number 24
_symmetry_cell_setting 'orthorhombic'
loop_
_space_group_symop_operation_xyz
x,y,z
-x,1/2-y,z
x,-y,1/2-z
1/2-x,y,-z
1/2+x,1/2+y,1/2+z
1/2-x,-y,1/2+z
1/2+x,1/2-y,-z
-x,1/2+y,1/2-z
loop_
_atom_site_type_symbol
_atom_site_label
_atom_site_fract_x
_atom_site_fract_y
_atom_site_fract_z
Si Si1 0.788208 0.108497 0.108170
Si Si2 0.476534 0.845206 0.103357
Si Si3 0.014594 0.923190 0.453951
Si Si4 0.191589 0.798036 0.400338
Si Si5 0.353995 0.911956 0.936480
Si Si6 0.282158 0.901273 0.233595
Si Si7 0.080210 0.509173 0.644009
O O1 0.804743 0.203970 0.140625
O O2 0.904367 0.069219 0.101775
O O3 0.695090 0.053060 0.153094
O O4 0.750000 0.114394 0.000000
O O5 0.500000 0.750000 0.124957
O O6 0.386929 0.874169 0.177587
O O7 0.571217 0.913447 0.107362
O O8 0.427532 0.852717 0.998848
O O9 0.077552 0.839691 0.424103
O O10 0.088921 0.999828 0.426986
O O11 0.985808 0.936606 0.566013
O O12 0.250000 0.796384 0.500000
O O13 0.259242 0.855528 0.330630
O O14 0.315043 0.879938 0.836487
O O15 0.250000 0.926553 0.000000
O O16 0.283781 0.000000 0.250000
O O17 0.037424 0.500000 0.750000
#
# Coordination Sequence:
#
# PCOD9333789 Si02
#       7
#     8   8   8   8   8   8   8
#     4   9  21  41  57  87 126 168 206 251 319 380
#     4  10  23  40  65  96 124 166 217 266 324 384
#     4  10  19  38  63  83 125 169 209 257 319 388
#     4  11  23  36  62  94 128 165 213 270 319 382
#     4   9  19  39  62  88 124 159 209 261 317 375
#     4  11  22  38  63  94 127 163 210 269 323 387
#     4  10  22  39  64  91 130 163 213 265 328 384
#
# _framework density 19.508806
#
# number of rings (size 3 to 8) (size 9 to 14) (size 15 to 20)
#    0.000    2.000    1.429    1.286    8.000    0.000 
#    2.571   12.143    0.000    0.000    0.000    0.000 
#    0.000    0.000    0.000    0.000    0.000    0.000 
#
# Total GULP energy -156049.685289 kJ/mol
# GULP energy per Si atom -5573.203046 kJ/mol
# Density = 1.946440 g / cm^3
# Si number density = 19.508806 Si / 1000 Ang^3
#
#
#
# Elastic Constant Matrix: (Units=GPa)
#
#
# Indices 1 2 3 4 5 6 
#
# 1 64.9675 23.7082 11.4535 0.0000 0.0000 0.0000
# 2 23.7082 97.8175 36.5213 0.0000 0.0000 0.0000
# 3 11.4535 36.5213 75.6406 0.0000 0.0000 0.0000
# 4 0.0000 0.0000 0.0000 19.0966 0.0000 0.0000
# 5 0.0000 0.0000 0.0000 0.0000 -1.5388 0.0000
# 6 0.0000 0.0000 0.0000 0.0000 0.0000 2.4133
#
#
#
# Elastic Compliance Matrix: (Units=1/GPa)
#
#
# Indices 1 2 3 4 5 6 
#
# 1 0.016917 -0.003835 -0.000710 0.000000 0.000000 0.000000
# 2 -0.003835 0.013341 -0.005861 0.000000 0.000000 0.000000
# 3 -0.000710 -0.005861 0.016158 0.000000 0.000000 0.000000
# 4 0.000000 0.000000 0.000000 0.052365 0.000000 0.000000
# 5 0.000000 0.000000 0.000000 0.000000 -0.649858 -0.000001
# 6 0.000000 0.000000 0.000000 0.000000 -0.000001 0.414366
#
#
# Mechanical properties :
#
#
# Convention : Reuss Voigt Hill
#
# Bulk Modulus (GPa) = 39.05617 42.42128 40.73872
# Shear Modulus (GPa) = -46.56972 15.11040 -15.72966
#
# Velocity S-wave (km/s) = -4.89111 2.78608 -2.84260
# Velocity P-wave (km/s) = 3.44006 5.66935 3.18650
#
# Compressibility (1/GPa) = 0.02560415
#
# Stress axis : x y z
#
# Youngs Moduli (GPa) = 59.11209 74.95818 61.89063
#
# Poissons Ratio (x) = 0.28748 0.04393
# Poissons Ratio (y) = 0.22670 0.36271
# Poissons Ratio (z) = 0.04196 0.43930
#
# Static dielectric constant tensor:
#      x y z
#    x 1.714330 0.000000 0.000000 
#    y 0.000000 1.688560 0.000000 
#    z 0.000000 0.000000 1.762000 
# 
# From -- ./inp_files/25812.got.cif
#   From: 2010.05.17/outbox.cif.g08.bks.cpg/sg24_13_cif.got.tgz:25812.got - 2010.06.04 00:33:39.
