data_PCOD9333196
_publ_section_title
;
Structure prediction by ZEFSAII (Michael W. Deem and Ramdas Pophale) SiO2 
 PCOD9333196
Probable space group: I 21 21 21
;
_chemical_formula_sum "Si O2"
_cell_formula_units_Z 40
_cell_length_a 12.944904
_cell_length_b 7.577218
_cell_length_c 17.522550
_cell_angle_alpha 90.000000
_cell_angle_beta 90.000000
_cell_angle_gamma 90.000000
_cell_volume 1718.723140
_symmetry_space_group_name_H-M "I 21 21 21"
_symmetry_group_IT_number 24
_symmetry_cell_setting 'orthorhombic'
loop_
_space_group_symop_operation_xyz
x,y,z
-x,1/2-y,z
x,-y,1/2-z
1/2-x,y,-z
1/2+x,1/2+y,1/2+z
1/2-x,-y,1/2+z
1/2+x,1/2-y,-z
-x,1/2+y,1/2-z
loop_
_atom_site_type_symbol
_atom_site_label
_atom_site_fract_x
_atom_site_fract_y
_atom_site_fract_z
Si Si1 0.086021 0.398692 0.172578
Si Si2 0.345365 0.180628 0.057406
Si Si3 0.473276 0.067958 0.545841
Si Si4 0.315963 0.471740 0.166711
Si Si5 0.758377 0.665677 0.092175
O O1 0.060796 0.500000 0.250000
O O2 0.207810 0.362838 0.177881
O O3 0.000000 0.250000 0.165461
O O4 0.069844 0.509656 0.095545
O O5 0.375236 0.350176 0.106487
O O6 0.304942 0.013873 0.107386
O O7 0.250000 0.228203 0.000000
O O8 0.431227 0.088841 0.005179
O O9 0.500000 0.250000 0.502966
O O10 0.378945 0.117439 0.603462
O O11 0.363941 0.500000 0.250000
O O12 0.284399 0.663073 0.134018
O O13 0.750000 0.693001 0.000000
#
# Coordination Sequence:
#
# PCOD9333196 Si02
#       5
#     8   8   8   8   8
#     4  11  22  32  51  86 129 170 198 245 309 387
#     4   9  20  37  55  81 119 164 208 250 291 366
#     4  10  18  36  57  82 120 158 205 257 307 359
#     4  11  22  35  55  84 123 169 203 245 309 374
#     4   9  19  35  56  78 120 158 196 252 293 370
#
# _framework density 23.273091999999998
#
# number of rings (size 3 to 8) (size 9 to 14) (size 15 to 20)
#    0.000    2.400    2.000    3.600    2.800    0.800 
#    0.000    0.000    0.000    0.000    0.000    0.000 
#   48.000    4.000    0.000    0.000    0.000    0.000 
#
# Total GULP energy -111730.369613 kJ/mol
# GULP energy per Si atom -5586.518481 kJ/mol
# Density = 2.322012 g / cm^3
# Si number density = 23.273092 Si / 1000 Ang^3
#
#
#
# Elastic Constant Matrix: (Units=GPa)
#
#
# Indices 1 2 3 4 5 6 
#
# 1 33.4526 6.6155 10.4218 0.0000 0.0000 0.0000
# 2 6.6155 135.0548 54.6758 0.0000 0.0000 0.0000
# 3 10.4218 54.6758 92.7645 0.0000 0.0000 0.0000
# 4 0.0000 0.0000 0.0000 34.6529 0.0000 0.0000
# 5 0.0000 0.0000 0.0000 0.0000 23.5112 0.0000
# 6 0.0000 0.0000 0.0000 0.0000 0.0000 32.0959
#
#
#
# Elastic Compliance Matrix: (Units=1/GPa)
#
#
# Indices 1 2 3 4 5 6 
#
# 1 0.030979 -0.000142 -0.003396 0.000000 0.000000 0.000000
# 2 -0.000142 0.009726 -0.005716 0.000000 0.000000 0.000000
# 3 -0.003396 -0.005716 0.014531 0.000000 0.000000 0.000000
# 4 0.000000 0.000000 0.000000 0.028858 0.000000 0.000000
# 5 0.000000 0.000000 0.000000 0.000000 0.042533 0.000000
# 6 0.000000 0.000000 0.000000 0.000000 0.000000 0.031157
#
#
# Mechanical properties :
#
#
# Convention : Reuss Voigt Hill
#
# Bulk Modulus (GPa) = 27.22919 44.96646 36.09783
# Shear Modulus (GPa) = 26.52027 30.68925 28.60476
#
# Velocity S-wave (km/s) = 3.37935 3.63527 3.50964
# Velocity P-wave (km/s) = 5.19152 6.08140 5.65400
#
# Compressibility (1/GPa) = 0.03672530
#
# Stress axis : x y z
#
# Youngs Moduli (GPa) = 32.27954 102.82172 68.81947
#
# Poissons Ratio (x) = 0.01465 0.23374
# Poissons Ratio (y) = 0.00460 0.39339
# Poissons Ratio (z) = 0.10964 0.58776
#
# Static dielectric constant tensor:
#      x y z
#    x 1.951740 0.000000 0.000000 
#    y 0.000000 1.943260 0.000000 
#    z 0.000000 0.000000 1.925820 
# 
# From -- ./inp_files/26298.got.cif
#   From: 2010.05.17/outbox.cif.g08.bks.cpg/sg24_14_cif.got.tgz:26298.got - 2010.06.04 00:33:39.
