data_PCOD9333200
_publ_section_title
;
Structure prediction by ZEFSAII (Michael W. Deem and Ramdas Pophale) SiO2 
 PCOD9333200
Probable space group: I 21 21 21
;
_chemical_formula_sum "Si O2"
_cell_formula_units_Z 60
_cell_length_a 27.887576
_cell_length_b 5.166954
_cell_length_c 21.997636
_cell_angle_alpha 90.000000
_cell_angle_beta 90.000000
_cell_angle_gamma 90.000000
_cell_volume 3169.723454
_symmetry_space_group_name_H-M "I 21 21 21"
_symmetry_group_IT_number 24
_symmetry_cell_setting 'orthorhombic'
loop_
_space_group_symop_operation_xyz
x,y,z
-x,1/2-y,z
x,-y,1/2-z
1/2-x,y,-z
1/2+x,1/2+y,1/2+z
1/2-x,-y,1/2+z
1/2+x,1/2-y,-z
-x,1/2+y,1/2-z
loop_
_atom_site_type_symbol
_atom_site_label
_atom_site_fract_x
_atom_site_fract_y
_atom_site_fract_z
Si Si1 0.829710 0.507310 0.622840
Si Si2 0.967618 0.998347 0.971180
Si Si3 0.834995 0.420983 0.020345
Si Si4 0.393519 0.502374 0.138672
Si Si5 0.609572 0.081870 0.561568
Si Si6 0.033632 0.500000 0.750000
Si Si7 0.779515 0.444868 0.141120
Si Si8 0.336648 0.557983 0.818132
O O1 0.823606 0.541079 0.550007
O O2 0.863713 0.738701 0.645333
O O3 0.776839 0.524441 0.650723
O O4 0.856435 0.238994 0.635777
O O5 0.924150 0.007728 0.923325
O O6 0.000000 0.250000 0.965334
O O7 0.000000 0.750000 0.958450
O O8 0.943120 0.976477 0.037177
O O9 0.874805 0.634714 0.038522
O O10 0.792698 0.466429 0.069140
O O11 0.855537 0.134425 0.031838
O O12 0.431864 0.535229 0.192224
O O13 0.620435 0.062379 0.632948
O O14 0.000000 0.750000 0.741859
O O15 0.799966 0.169623 0.162497
O O16 0.808798 0.671293 0.174638
O O17 0.352413 0.500000 0.750000
#
# Coordination Sequence:
#
# PCOD9333200 Si02
#       8
#     8   8   8   8   8   4   8   8
#     4  12  21  39  58  90 125 152 194 240 295 350
#     4  12  22  37  61  90 115 142 185 243 300 352
#     4  10  18  36  58  84 124 151 194 230 288 349
#     4  12  25  41  63  87 115 158 193 244 305 343
#     4  10  20  36  59  87 117 153 188 245 290 344
#     4  12  26  50  66  82 112 156 214 254 296 368
#     4  10  22  35  59  89 117 165 193 238 280 337
#     4  10  21  40  59  84 118 159 209 231 277 340
#
# _framework density 18.929096000000001
#
# number of rings (size 3 to 8) (size 9 to 14) (size 15 to 20)
#    0.000    1.067    2.667    4.800    0.000    0.000 
#    7.200    5.333    0.000    0.800    0.000    0.000 
#    0.000    0.000    0.000    0.000    0.000    0.000 
#
# Total GULP energy -167709.465952 kJ/mol
# GULP energy per Si atom -5590.315532 kJ/mol
# Density = 1.888601 g / cm^3
# Si number density = 18.929096 Si / 1000 Ang^3
#
#
#
# Elastic Constant Matrix: (Units=GPa)
#
#
# Indices 1 2 3 4 5 6 
#
# 1 61.0989 13.6923 -6.1516 0.0000 0.0000 0.0000
# 2 13.6923 60.5779 -26.3959 0.0000 0.0000 0.0000
# 3 -6.1516 -26.3959 62.2135 0.0000 0.0000 0.0000
# 4 0.0000 0.0000 0.0000 18.7933 0.0000 0.0000
# 5 0.0000 0.0000 0.0000 0.0000 10.2861 0.0000
# 6 0.0000 0.0000 0.0000 0.0000 0.0000 36.1437
#
#
#
# Elastic Compliance Matrix: (Units=1/GPa)
#
#
# Indices 1 2 3 4 5 6 
#
# 1 0.017240 -0.003869 0.000063 0.000000 0.000000 0.000000
# 2 -0.003869 0.021120 0.008578 0.000000 0.000000 0.000000
# 3 0.000063 0.008578 0.019719 0.000000 0.000000 0.000000
# 4 0.000000 0.000000 0.000000 0.053211 0.000000 0.000000
# 5 0.000000 0.000000 0.000000 0.000000 0.097219 0.000000
# 6 0.000000 0.000000 0.000000 0.000000 0.000000 0.027667
#
#
# Mechanical properties :
#
#
# Convention : Reuss Voigt Hill
#
# Bulk Modulus (GPa) = 14.78770 16.24220 15.51495
# Shear Modulus (GPa) = 20.06630 26.56098 23.31364
#
# Velocity S-wave (km/s) = 3.25941 3.74997 3.51327
# Velocity P-wave (km/s) = 4.68979 5.22962 4.96704
#
# Compressibility (1/GPa) = 0.06762379
#
# Stress axis : x y z
#
# Youngs Moduli (GPa) = 58.00343 47.34834 50.71125
#
# Poissons Ratio (x) = 0.18321 -0.00320
# Poissons Ratio (y) = 0.22443 -0.43501
# Poissons Ratio (z) = -0.00366 -0.40616
#
# Static dielectric constant tensor:
#      x y z
#    x 1.625020 0.000000 0.000000 
#    y 0.000000 1.634650 0.000000 
#    z 0.000000 0.000000 1.672430 
# 
# From -- ./inp_files/5835.got.cif
#   From: 2010.05.17/outbox.cif.g08.bks.cpg/sg24_3_cif.got.tgz:5835.got - 2010.06.04 00:33:39.
