data_PCOD9333646
_publ_section_title
;
Structure prediction by ZEFSAII (Michael W. Deem and Ramdas Pophale) SiO2 
 PCOD9333646
Probable space group: I 21 21 21
;
_chemical_formula_sum "Si O2"
_cell_formula_units_Z 64
_cell_length_a 16.774675
_cell_length_b 5.422167
_cell_length_c 32.028640
_cell_angle_alpha 90.000000
_cell_angle_beta 90.000000
_cell_angle_gamma 90.000000
_cell_volume 2913.167809
_symmetry_space_group_name_H-M "I 21 21 21"
_symmetry_group_IT_number 24
_symmetry_cell_setting 'orthorhombic'
loop_
_space_group_symop_operation_xyz
x,y,z
-x,1/2-y,z
x,-y,1/2-z
1/2-x,y,-z
1/2+x,1/2+y,1/2+z
1/2-x,-y,1/2+z
1/2+x,1/2-y,-z
-x,1/2+y,1/2-z
loop_
_atom_site_type_symbol
_atom_site_label
_atom_site_fract_x
_atom_site_fract_y
_atom_site_fract_z
Si Si1 0.085394 0.129967 0.360141
Si Si2 0.406691 0.732276 0.135114
Si Si3 0.197048 0.094761 0.709066
Si Si4 0.097279 0.240627 0.003799
Si Si5 0.200724 0.259883 0.145588
Si Si6 0.152036 0.762353 0.590754
Si Si7 0.097427 0.738702 0.051752
Si Si8 0.650380 0.147928 0.713616
O O1 0.128206 0.255476 0.400481
O O2 0.101420 0.148430 0.310446
O O3 0.000000 0.250000 0.363328
O O4 0.115015 0.852546 0.367302
O O5 0.500000 0.750000 0.143595
O O6 0.356890 0.745307 0.178132
O O7 0.390965 0.475027 0.111540
O O8 0.379599 0.974522 0.108671
O O9 0.268271 0.244411 0.731354
O O10 0.150508 0.000000 0.750000
O O11 0.244849 0.911593 0.677198
O O12 0.120324 0.488547 0.028513
O O13 0.000000 0.250000 0.999387
O O14 0.120371 0.989418 0.027787
O O15 0.136119 0.241257 0.958237
O O16 0.257100 0.275709 0.105689
O O17 0.178903 0.491036 0.173772
O O18 0.000000 0.750000 0.052339
O O19 0.608388 0.000000 0.750000
#
# Coordination Sequence:
#
# PCOD9333646 Si02
#       8
#     8   8   8   8   8   8   8   8
#     4  10  24  43  64  94 127 166 212 274 339 405
#     4  11  22  37  60  94 133 175 223 280 337 376
#     4  10  20  38  59  86 121 170 220 263 317 401
#     4  10  19  35  62  93 126 170 220 267 315 382
#     4  10  22  39  65  87 124 168 212 257 335 401
#     4  11  22  39  63  95 134 175 223 278 327 393
#     4   9  20  38  62  91 126 169 213 257 327 399
#     4  11  21  40  67  91 120 164 215 266 329 403
#
# _framework density 21.969211000000001
#
# number of rings (size 3 to 8) (size 9 to 14) (size 15 to 20)
#    0.000    1.750    2.500    1.875    1.750    1.500 
#    2.250    3.750    0.000    0.000    0.000    0.000 
#    0.000    0.000    0.000    0.000    0.000    0.000 
#
# Total GULP energy -178274.661270 kJ/mol
# GULP energy per Si atom -5571.083165 kJ/mol
# Density = 2.191921 g / cm^3
# Si number density = 21.969211 Si / 1000 Ang^3
#
#
#
# Elastic Constant Matrix: (Units=GPa)
#
#
# Indices 1 2 3 4 5 6 
#
# 1 36.0205 1.7569 1.3219 0.0000 0.0000 0.0000
# 2 1.7569 90.0211 33.5785 0.0000 0.0000 0.0000
# 3 1.3219 33.5785 150.7850 0.0000 0.0000 0.0000
# 4 0.0000 0.0000 0.0000 50.1391 0.0000 0.0000
# 5 0.0000 0.0000 0.0000 0.0000 9.4477 0.0000
# 6 0.0000 0.0000 0.0000 0.0000 0.0000 13.8018
#
#
#
# Elastic Compliance Matrix: (Units=1/GPa)
#
#
# Indices 1 2 3 4 5 6 
#
# 1 0.027791 -0.000492 -0.000134 0.000000 0.000000 0.000000
# 2 -0.000492 0.012124 -0.002695 0.000000 0.000000 0.000000
# 3 -0.000134 -0.002695 0.007233 0.000000 0.000000 0.000000
# 4 0.000000 0.000000 0.000000 0.019945 0.000000 0.000000
# 5 0.000000 0.000000 0.000000 0.000000 0.105846 0.000000
# 6 0.000000 0.000000 0.000000 0.000000 0.000000 0.072455
#
#
# Mechanical properties :
#
#
# Convention : Reuss Voigt Hill
#
# Bulk Modulus (GPa) = 24.68887 38.90458 31.79672
# Shear Modulus (GPa) = 18.82970 30.68900 24.75935
#
# Velocity S-wave (km/s) = 2.93079 3.74158 3.36073
# Velocity P-wave (km/s) = 4.76603 6.03432 5.43728
#
# Compressibility (1/GPa) = 0.04050408
#
# Stress axis : x y z
#
# Youngs Moduli (GPa) = 35.98304 82.48409 138.24760
#
# Poissons Ratio (x) = 0.04061 0.01852
# Poissons Ratio (y) = 0.01772 0.37265
# Poissons Ratio (z) = 0.00482 0.22234
#
# Static dielectric constant tensor:
#      x y z
#    x 1.844860 0.000000 0.000000 
#    y 0.000000 1.968560 0.000000 
#    z 0.000000 0.000000 1.835930 
# 
# From -- ./inp_files/38826.got.cif
#   From: 2010.05.17/outbox.cif.g08.bks.cpg/sg24_20_cif.got.tgz:38826.got - 2010.06.04 00:33:39.
