data_PCOD9333517
_publ_section_title
;
Structure prediction by ZEFSAII (Michael W. Deem and Ramdas Pophale) SiO2 
 PCOD9333517
Probable space group: I 21 21 21
;
_chemical_formula_sum "Si O2"
_cell_formula_units_Z 32
_cell_length_a 7.454297
_cell_length_b 12.576569
_cell_length_c 13.389599
_cell_angle_alpha 90.000000
_cell_angle_beta 90.000000
_cell_angle_gamma 90.000000
_cell_volume 1255.267951
_symmetry_space_group_name_H-M "I 21 21 21"
_symmetry_group_IT_number 24
_symmetry_cell_setting 'orthorhombic'
loop_
_space_group_symop_operation_xyz
x,y,z
-x,1/2-y,z
x,-y,1/2-z
1/2-x,y,-z
1/2+x,1/2+y,1/2+z
1/2-x,-y,1/2+z
1/2+x,1/2-y,-z
-x,1/2+y,1/2-z
loop_
_atom_site_type_symbol
_atom_site_label
_atom_site_fract_x
_atom_site_fract_y
_atom_site_fract_z
Si Si1 0.250000 0.220659 0.000000
Si Si2 0.592392 0.910813 0.632255
Si Si3 0.708986 0.209565 0.684930
Si Si4 0.750000 0.907974 0.000000
Si Si5 0.822407 0.400207 0.813965
O O1 0.349264 0.304012 0.927053
O O2 0.127428 0.145968 0.925098
O O3 0.693375 0.886754 0.736020
O O4 0.386019 0.921930 0.661221
O O5 0.628833 0.011078 0.562524
O O6 0.500000 0.250000 0.666083
O O7 0.809884 0.170219 0.587201
O O8 0.814980 0.303324 0.737815
O O9 0.897324 0.500000 0.750000
#
# Coordination Sequence:
#
# PCOD9333517 Si02
#       5
#     4   8   8   4   8
#     4   9  18  31  54  78 104 137 178 219 262 308
#     4   9  18  33  54  78 103 142 183 211 254 326
#     4   9  18  32  51  78 105 134 176 221 256 304
#     4  11  18  29  56  82 104 133 180 227 260 296
#     4  10  19  34  55  77 105 140 181 217 256 314
#
# _framework density 25.492564999999999
#
# number of rings (size 3 to 8) (size 9 to 14) (size 15 to 20)
#    0.000    2.500    0.000    6.000    0.000    1.000 
#    0.000    0.000    0.000   39.000    0.000    0.000 
#    0.000    0.000    0.000    0.000    0.000    0.000 
#
# Total GULP energy -89234.247679 kJ/mol
# GULP energy per Si atom -5577.140480 kJ/mol
# Density = 2.543454 g / cm^3
# Si number density = 25.492565 Si / 1000 Ang^3
#
#
#
# Elastic Constant Matrix: (Units=GPa)
#
#
# Indices 1 2 3 4 5 6 
#
# 1 50.6781 23.4496 28.1198 0.0000 0.0000 0.0000
# 2 23.4496 151.6903 85.4767 0.0000 0.0000 0.0000
# 3 28.1198 85.4767 218.2464 0.0000 0.0000 0.0000
# 4 0.0000 0.0000 0.0000 65.4131 0.0000 0.0000
# 5 0.0000 0.0000 0.0000 0.0000 15.1553 0.0000
# 6 0.0000 0.0000 0.0000 0.0000 0.0000 21.8691
#
#
#
# Elastic Compliance Matrix: (Units=1/GPa)
#
#
# Indices 1 2 3 4 5 6 
#
# 1 0.021859 -0.002300 -0.001916 0.000000 0.000000 0.000000
# 2 -0.002300 0.008701 -0.003112 0.000000 0.000000 0.000000
# 3 -0.001916 -0.003112 0.006047 0.000000 0.000000 0.000000
# 4 0.000000 0.000000 0.000000 0.015287 0.000000 0.000000
# 5 0.000000 0.000000 0.000000 0.000000 0.065983 0.000000
# 6 0.000000 0.000000 0.000000 0.000000 0.000000 0.045727
#
#
# Mechanical properties :
#
#
# Convention : Reuss Voigt Hill
#
# Bulk Modulus (GPa) = 45.54955 77.18966 61.36960
# Shear Modulus (GPa) = 26.94289 39.39209 33.16749
#
# Velocity S-wave (km/s) = 3.25451 3.93522 3.61094
# Velocity P-wave (km/s) = 5.65942 7.14093 6.44290
#
# Compressibility (1/GPa) = 0.02195411
#
# Stress axis : x y z
#
# Youngs Moduli (GPa) = 45.74671 114.92627 165.35863
#
# Poissons Ratio (x) = 0.26430 0.31679
# Poissons Ratio (y) = 0.10520 0.51452
# Poissons Ratio (z) = 0.08764 0.35760
#
# Static dielectric constant tensor:
#      x y z
#    x 2.052970 0.000000 0.000000 
#    y 0.000000 2.093700 0.000000 
#    z 0.000000 0.000000 2.067500 
# 
# From -- ./inp_files/19153.got.cif
#   From: 2010.05.17/outbox.cif.g08.bks.cpg/sg24_10_cif.got.tgz:19153.got - 2010.06.04 00:33:39.
