data_PCOD9333293
_publ_section_title
;
Structure prediction by ZEFSAII (Michael W. Deem and Ramdas Pophale) SiO2 
 PCOD9333293
Probable space group: I 21 21 21
;
_chemical_formula_sum "Si O2"
_cell_formula_units_Z 52
_cell_length_a 7.347697
_cell_length_b 25.699559
_cell_length_c 11.674044
_cell_angle_alpha 90.000000
_cell_angle_beta 90.000000
_cell_angle_gamma 90.000000
_cell_volume 2204.439761
_symmetry_space_group_name_H-M "I 21 21 21"
_symmetry_group_IT_number 24
_symmetry_cell_setting 'orthorhombic'
loop_
_space_group_symop_operation_xyz
x,y,z
-x,1/2-y,z
x,-y,1/2-z
1/2-x,y,-z
1/2+x,1/2+y,1/2+z
1/2-x,-y,1/2+z
1/2+x,1/2-y,-z
-x,1/2+y,1/2-z
loop_
_atom_site_type_symbol
_atom_site_label
_atom_site_fract_x
_atom_site_fract_y
_atom_site_fract_z
Si Si1 0.112566 0.165104 0.159515
Si Si2 0.000000 0.750000 0.524374
Si Si3 0.000000 0.250000 0.326892
Si Si4 0.101721 0.513236 0.890701
Si Si5 0.420831 0.367374 0.416912
Si Si6 0.459911 0.085146 0.995413
Si Si7 0.250000 0.794896 0.000000
Si Si8 0.446868 0.335595 0.170983
O O1 0.009835 0.197017 0.256296
O O2 0.329651 0.164704 0.186455
O O3 0.078614 0.203849 0.051891
O O4 0.015063 0.109273 0.132186
O O5 0.876535 0.782761 0.612892
O O6 0.178491 0.243484 0.403006
O O7 0.140881 0.500000 0.750000
O O8 0.028348 0.571926 0.895050
O O9 0.965758 0.471096 0.946322
O O10 0.250000 0.510566 0.000000
O O11 0.250000 0.366818 0.500000
O O12 0.584722 0.332301 0.464071
O O13 0.369564 0.346032 0.293307
O O14 0.583563 0.118039 0.081762
O O15 0.250000 0.102131 0.000000
#
# Coordination Sequence:
#
# PCOD9333293 Si02
#       8
#     8   4   4   8   8   8   4   8
#     4   9  19  40  65 107 141 183 243 320 385 466
#     4   9  18  29  64 100 138 177 235 302 386 444
#     4  11  24  45  70  96 154 197 257 312 386 458
#     4  11  24  48  73 106 153 203 259 329 398 469
#     4  11  26  47  71 102 153 202 260 313 383 462
#     4   9  19  39  73 109 139 182 251 316 398 464
#     4  12  28  48  72 108 148 210 262 318 378 482
#     4  10  18  39  66  96 147 190 241 315 376 464
#
# _framework density 23.588761000000002
#
# number of rings (size 3 to 8) (size 9 to 14) (size 15 to 20)
#    0.000    1.846    3.077    1.385    2.154    1.846 
#    5.538   10.000    0.000    0.000    0.000    0.000 
#    0.000    0.000    0.000    0.000    0.000    0.000 
#
# Total GULP energy -144769.402853 kJ/mol
# GULP energy per Si atom -5568.053956 kJ/mol
# Density = 2.353507 g / cm^3
# Si number density = 23.588761 Si / 1000 Ang^3
#
#
#
# Elastic Constant Matrix: (Units=GPa)
#
#
# Indices 1 2 3 4 5 6 
#
# 1 88.6220 24.4279 34.6096 0.0000 0.0000 0.0000
# 2 24.4279 112.2807 54.3972 0.0000 0.0000 0.0000
# 3 34.6096 54.3972 149.9488 0.0008 0.0002 -0.0004
# 4 0.0000 0.0000 0.0008 240.4178 -0.0001 -0.0001
# 5 0.0000 0.0000 0.0002 -0.0001 28.8150 -0.0001
# 6 0.0000 0.0000 -0.0004 -0.0001 -0.0001 27.8485
#
#
#
# Elastic Compliance Matrix: (Units=1/GPa)
#
#
# Indices 1 2 3 4 5 6 
#
# 1 0.012641 -0.001622 -0.002329 0.000000 0.000000 0.000000
# 2 -0.001622 0.011013 -0.003621 0.000000 0.000000 0.000000
# 3 -0.002329 -0.003621 0.008520 0.000000 0.000000 0.000000
# 4 0.000000 0.000000 0.000000 0.004159 0.000000 0.000000
# 5 0.000000 0.000000 0.000000 0.000000 0.034704 0.000000
# 6 0.000000 0.000000 0.000000 0.000000 0.000000 0.035909
#
#
# Mechanical properties :
#
#
# Convention : Reuss Voigt Hill
#
# Bulk Modulus (GPa) = 58.71928 64.19119 61.45524
# Shear Modulus (GPa) = 39.13380 75.24404 57.18892
#
# Velocity S-wave (km/s) = 4.07750 5.65398 4.92918
# Velocity P-wave (km/s) = 6.86404 8.36033 7.64886
#
# Compressibility (1/GPa) = 0.01703018
#
# Stress axis : x y z
#
# Youngs Moduli (GPa) = 79.11071 90.79889 117.36843
#
# Poissons Ratio (x) = 0.14724 0.27338
# Poissons Ratio (y) = 0.12829 0.42500
# Poissons Ratio (z) = 0.18427 0.32879
#
# Static dielectric constant tensor:
#      x y z
#    x 1.596280 0.000000 0.000000 
#    y 0.000000 1.930820 0.000000 
#    z 0.000000 0.000000 2.043480 
# 
# From -- ./inp_files/18788.got.cif
#   From: 2010.05.17/outbox.cif.g08.bks.cpg/sg24_10_cif.got.tgz:18788.got - 2010.06.04 00:33:39.
