data_PCOD9333358
_publ_section_title
;
Structure prediction by ZEFSAII (Michael W. Deem and Ramdas Pophale) SiO2 
 PCOD9333358
Probable space group: I 21 21 21
;
_chemical_formula_sum "Si O2"
_cell_formula_units_Z 64
_cell_length_a 31.280395
_cell_length_b 12.022885
_cell_length_c 7.614257
_cell_angle_alpha 90.000000
_cell_angle_beta 90.000000
_cell_angle_gamma 90.000000
_cell_volume 2863.574279
_symmetry_space_group_name_H-M "I 21 21 21"
_symmetry_group_IT_number 24
_symmetry_cell_setting 'orthorhombic'
loop_
_space_group_symop_operation_xyz
x,y,z
-x,1/2-y,z
x,-y,1/2-z
1/2-x,y,-z
1/2+x,1/2+y,1/2+z
1/2-x,-y,1/2+z
1/2+x,1/2-y,-z
-x,1/2+y,1/2-z
loop_
_atom_site_type_symbol
_atom_site_label
_atom_site_fract_x
_atom_site_fract_y
_atom_site_fract_z
Si Si1 0.573972 0.596511 0.622933
Si Si2 0.570483 0.185292 0.289211
Si Si3 0.800478 0.759597 0.955413
Si Si4 0.977003 0.381282 0.792130
Si Si5 0.377429 0.301950 0.928513
Si Si6 0.837290 0.479344 0.452781
Si Si7 0.297599 0.806631 0.437646
Si Si8 0.860583 0.958661 0.953292
O O1 0.556696 0.500000 0.750000
O O2 0.537501 0.637315 0.490803
O O3 0.594884 0.714311 0.687564
O O4 0.614343 0.528676 0.535306
O O5 0.548079 0.300221 0.339561
O O6 0.527802 0.123376 0.223439
O O7 0.596874 0.116025 0.428526
O O8 0.601465 0.210811 0.124320
O O9 0.803362 0.754754 0.745300
O O10 0.823487 0.874083 0.014015
O O11 0.750000 0.752102 0.000000
O O12 0.826828 0.648895 0.010911
O O13 0.960234 0.500000 0.750000
O O14 0.330519 0.249505 0.928732
O O15 0.371070 0.434878 0.925229
O O16 0.824873 0.500000 0.250000
O O17 0.809590 0.563393 0.570180
O O18 0.250000 0.794313 0.500000
O O19 0.851554 0.000000 0.750000
#
# Coordination Sequence:
#
# PCOD9333358 Si02
#       8
#     8   8   8   8   8   8   8   8
#     4   9  20  36  60  91 126 160 198 253 322 383
#     4   9  18  34  56  91 126 156 202 254 314 366
#     4  12  24  37  60  93 121 168 219 270 328 385
#     4  10  19  30  59 100 120 153 204 264 302 374
#     4   9  18  36  60  83 113 171 201 243 323 364
#     4  10  22  40  60  86 129 169 208 266 330 393
#     4  11  21  36  59  87 121 160 211 273 328 380
#     4  10  19  38  58  86 124 164 208 262 312 370
#
# _framework density 22.349689000000001
#
# number of rings (size 3 to 8) (size 9 to 14) (size 15 to 20)
#    0.000    2.000    2.500    2.625    1.750    0.500 
#    0.000    0.000    0.000    6.000   39.000    0.000 
#    0.000    0.000    0.000    0.000    0.000    0.000 
#
# Total GULP energy -178316.202771 kJ/mol
# GULP energy per Si atom -5572.381337 kJ/mol
# Density = 2.229882 g / cm^3
# Si number density = 22.349689 Si / 1000 Ang^3
#
#
#
# Elastic Constant Matrix: (Units=GPa)
#
#
# Indices 1 2 3 4 5 6 
#
# 1 85.6158 40.6255 -0.4011 0.0000 0.0000 0.0000
# 2 40.6255 151.9718 8.2493 0.0000 0.0000 0.0000
# 3 -0.4011 8.2493 20.7645 0.0001 0.0000 0.0000
# 4 0.0000 0.0000 0.0001 32.2208 0.0000 0.0000
# 5 0.0000 0.0000 0.0000 0.0000 6.4110 0.0000
# 6 0.0000 0.0000 0.0000 0.0000 0.0000 -43.5035
#
#
#
# Elastic Compliance Matrix: (Units=1/GPa)
#
#
# Indices 1 2 3 4 5 6 
#
# 1 0.013437 -0.003686 0.001724 0.000000 0.000000 0.000000
# 2 -0.003686 0.007736 -0.003145 0.000000 0.000000 0.000000
# 3 0.001724 -0.003145 0.049442 0.000000 0.000000 0.000000
# 4 0.000000 0.000000 0.000000 0.031036 0.000000 0.000000
# 5 0.000000 0.000000 0.000000 0.000000 0.155982 0.000000
# 6 0.000000 0.000000 0.000000 0.000000 0.000000 -0.022987
#
#
# Mechanical properties :
#
#
# Convention : Reuss Voigt Hill
#
# Bulk Modulus (GPa) = 16.55575 39.47774 28.01675
# Shear Modulus (GPa) = 18.86846 13.01755 15.94301
#
# Velocity S-wave (km/s) = 2.90873 2.41602 2.67375
# Velocity P-wave (km/s) = 4.32488 5.04825 4.70050
#
# Compressibility (1/GPa) = 0.06040196
#
# Stress axis : x y z
#
# Youngs Moduli (GPa) = 74.42136 129.26401 20.22584
#
# Poissons Ratio (x) = 0.47641 -0.03486
# Poissons Ratio (y) = 0.27429 0.06360
# Poissons Ratio (z) = -0.12828 0.40648
#
# Static dielectric constant tensor:
#      x y z
#    x 1.814270 0.000000 0.000000 
#    y 0.000000 1.916830 0.000000 
#    z 0.000000 0.000000 1.996050 
# 
# From -- ./inp_files/17010.got.cif
#   From: 2010.05.17/outbox.cif.g08.bks.cpg/sg24_9_cif.got.tgz:17010.got - 2010.06.04 00:33:39.
