data_PCOD9333163
_publ_section_title
;
Structure prediction by ZEFSAII (Michael W. Deem and Ramdas Pophale) SiO2 
 PCOD9333163
Probable space group: I 21 21 21
;
_chemical_formula_sum "Si O2"
_cell_formula_units_Z 36
_cell_length_a 10.056691
_cell_length_b 8.837753
_cell_length_c 20.363115
_cell_angle_alpha 90.000000
_cell_angle_beta 90.000000
_cell_angle_gamma 90.000000
_cell_volume 1809.844156
_symmetry_space_group_name_H-M "I 21 21 21"
_symmetry_group_IT_number 24
_symmetry_cell_setting 'orthorhombic'
loop_
_space_group_symop_operation_xyz
x,y,z
-x,1/2-y,z
x,-y,1/2-z
1/2-x,y,-z
1/2+x,1/2+y,1/2+z
1/2-x,-y,1/2+z
1/2+x,1/2-y,-z
-x,1/2+y,1/2-z
loop_
_atom_site_type_symbol
_atom_site_label
_atom_site_fract_x
_atom_site_fract_y
_atom_site_fract_z
Si Si1 0.246169 0.153832 0.187038
Si Si2 0.117077 0.637344 0.880984
Si Si3 0.495292 0.000000 0.250000
Si Si4 0.649740 0.181871 0.059459
Si Si5 0.357154 0.186028 0.674664
O O1 0.275931 0.252240 0.123784
O O2 0.169242 0.226295 0.248378
O O3 0.391881 0.115001 0.216201
O O4 0.171980 0.994648 0.170951
O O5 0.077623 0.571688 0.808941
O O6 0.132780 0.496814 0.928965
O O7 0.248963 0.733136 0.870318
O O8 0.000000 0.750000 0.901452
O O9 0.500000 0.250000 0.052778
O O10 0.750000 0.213988 0.000000
O O11 0.500000 0.250000 0.656717
#
# Coordination Sequence:
#
# PCOD9333163 Si02
#       5
#     8   8   4   8   8
#     4  10  21  40  64  98 135 164 220 278 342 399
#     4  12  21  39  69  98 125 167 228 277 338 405
#     4  10  18  34  72 102 120 156 216 302 322 384
#     4  12  27  45  65  92 131 184 230 271 325 404
#     4  10  22  37  64 103 136 163 202 288 366 387
#
# _framework density 19.891216
#
# number of rings (size 3 to 8) (size 9 to 14) (size 15 to 20)
#    0.000    1.333    6.667    1.333    0.000    8.000 
#    0.000    5.556    0.000    0.000    0.000    0.000 
#    0.000    0.000    0.000    0.000    0.000    0.000 
#
# Total GULP energy -100562.159085 kJ/mol
# GULP energy per Si atom -5586.786616 kJ/mol
# Density = 1.984594 g / cm^3
# Si number density = 19.891216 Si / 1000 Ang^3
#
#
#
# Elastic Constant Matrix: (Units=GPa)
#
#
# Indices 1 2 3 4 5 6 
#
# 1 145.1692 46.8805 12.8340 0.0000 0.0000 0.0000
# 2 46.8805 59.2805 22.9363 0.0000 0.0000 0.0000
# 3 12.8340 22.9363 50.8085 0.0000 0.0000 0.0000
# 4 0.0000 0.0000 0.0000 18.6079 0.0000 0.0000
# 5 0.0000 0.0000 0.0000 0.0000 1.6717 0.0000
# 6 0.0000 0.0000 0.0000 0.0000 0.0000 18.5159
#
#
#
# Elastic Compliance Matrix: (Units=1/GPa)
#
#
# Indices 1 2 3 4 5 6 
#
# 1 0.009309 -0.007817 0.001178 0.000000 0.000000 0.000000
# 2 -0.007817 0.027004 -0.010216 0.000000 0.000000 0.000000
# 3 0.001178 -0.010216 0.023996 0.000000 0.000000 0.000000
# 4 0.000000 0.000000 0.000000 0.053741 0.000000 0.000000
# 5 0.000000 0.000000 0.000000 0.000000 0.598187 0.000000
# 6 0.000000 0.000000 0.000000 0.000000 0.000000 0.054008
#
#
# Mechanical properties :
#
#
# Convention : Reuss Voigt Hill
#
# Bulk Modulus (GPa) = 37.59713 46.72888 42.16301
# Shear Modulus (GPa) = 6.18184 19.26626 12.72405
#
# Velocity S-wave (km/s) = 1.76482 3.11558 2.53194
# Velocity P-wave (km/s) = 4.80574 6.04034 5.45806
#
# Compressibility (1/GPa) = 0.02659777
#
# Stress axis : x y z
#
# Youngs Moduli (GPa) = 107.42387 37.03208 41.67385
#
# Poissons Ratio (x) = 0.28949 -0.04907
# Poissons Ratio (y) = 0.83977 0.42572
# Poissons Ratio (z) = -0.12650 0.37830
#
# Static dielectric constant tensor:
#      x y z
#    x 1.702810 0.000000 0.000000 
#    y 0.000000 1.746110 0.000000 
#    z 0.000000 0.000000 1.695170 
# 
# From -- ./inp_files/32492.got.cif
#   From: 2010.05.17/outbox.cif.g08.bks.cpg/sg24_17_cif.got.tgz:32492.got - 2010.06.04 00:33:39.
