data_PCOD9333419
_publ_section_title
;
Structure prediction by ZEFSAII (Michael W. Deem and Ramdas Pophale) SiO2 
 PCOD9333419
Probable space group: I 21 21 21
;
_chemical_formula_sum "Si O2"
_cell_formula_units_Z 64
_cell_length_a 22.601439
_cell_length_b 9.091243
_cell_length_c 17.670210
_cell_angle_alpha 90.000000
_cell_angle_beta 90.000000
_cell_angle_gamma 90.000000
_cell_volume 3630.789476
_symmetry_space_group_name_H-M "I 21 21 21"
_symmetry_group_IT_number 24
_symmetry_cell_setting 'orthorhombic'
loop_
_space_group_symop_operation_xyz
x,y,z
-x,1/2-y,z
x,-y,1/2-z
1/2-x,y,-z
1/2+x,1/2+y,1/2+z
1/2-x,-y,1/2+z
1/2+x,1/2-y,-z
-x,1/2+y,1/2-z
loop_
_atom_site_type_symbol
_atom_site_label
_atom_site_fract_x
_atom_site_fract_y
_atom_site_fract_z
Si Si1 0.029508 0.410968 0.826025
Si Si2 0.622167 0.425082 0.537430
Si Si3 0.705639 0.391460 0.067198
Si Si4 0.791112 0.579216 0.170032
Si Si5 0.495074 0.576785 0.017972
Si Si6 0.864822 0.921461 0.027792
Si Si7 0.665735 0.084596 0.126915
Si Si8 0.214665 0.429286 0.326060
O O1 0.013618 0.500000 0.750000
O O2 0.101393 0.412929 0.833541
O O3 0.000000 0.250000 0.822118
O O4 0.007110 0.488076 0.903451
O O5 0.652488 0.529360 0.475984
O O6 0.650405 0.448825 0.619633
O O7 0.552836 0.452811 0.531541
O O8 0.638596 0.255554 0.517685
O O9 0.738986 0.508551 0.119838
O O10 0.685544 0.251909 0.114502
O O11 0.750000 0.343231 0.000000
O O12 0.794067 0.500000 0.250000
O O13 0.782074 0.753102 0.179879
O O14 0.500000 0.750000 0.037652
O O15 0.435098 0.547634 0.971293
O O16 0.826432 0.962464 0.101078
O O17 0.841818 0.006901 0.954645
O O18 0.719890 0.997348 0.164515
O O19 0.188669 0.500000 0.250000
#
# Coordination Sequence:
#
# PCOD9333419 Si02
#       8
#     8   8   8   8   8   8   8   8
#     4  11  23  38  54  77 108 140 174 216 263 310
#     4   9  18  35  56  78 104 139 179 216 259 315
#     4  10  19  32  53  79 107 137 172 215 264 316
#     4  10  21  35  52  77 109 142 175 218 269 315
#     4   9  18  36  59  79 101 136 179 216 257 312
#     4   9  19  34  56  79 104 138 175 218 263 313
#     4  11  21  35  56  80 105 137 177 216 263 318
#     4  11  21  35  53  77 109 139 174 219 267 317
#
# _framework density 17.627020000000002
#
# number of rings (size 3 to 8) (size 9 to 14) (size 15 to 20)
#    0.000    2.000    0.000    4.125    0.000    3.000 
#    0.000    6.875    0.000    0.000    0.000    0.000 
#    0.000    0.000    0.000    0.000    0.000    0.000 
#
# Total GULP energy -178546.403501 kJ/mol
# GULP energy per Si atom -5579.575109 kJ/mol
# Density = 1.758690 g / cm^3
# Si number density = 17.627020 Si / 1000 Ang^3
#
#
#
# Elastic Constant Matrix: (Units=GPa)
#
#
# Indices 1 2 3 4 5 6 
#
# 1 93.1676 40.1123 47.7140 0.0000 0.0000 0.0000
# 2 40.1123 62.8687 48.9425 0.0000 0.0000 0.0000
# 3 47.7140 48.9425 93.0051 0.0000 0.0000 0.0000
# 4 0.0000 0.0000 0.0000 29.5164 0.0000 0.0000
# 5 0.0000 0.0000 0.0000 0.0000 12.0495 0.0000
# 6 0.0000 0.0000 0.0000 0.0000 0.0000 25.2591
#
#
#
# Elastic Compliance Matrix: (Units=1/GPa)
#
#
# Indices 1 2 3 4 5 6 
#
# 1 0.015968 -0.006455 -0.004795 0.000000 0.000000 0.000000
# 2 -0.006455 0.029554 -0.012241 0.000000 0.000000 0.000000
# 3 -0.004795 -0.012241 0.019654 0.000000 0.000000 0.000000
# 4 0.000000 0.000000 0.000000 0.033880 0.000000 0.000000
# 5 0.000000 0.000000 0.000000 0.000000 0.082991 0.000000
# 6 0.000000 0.000000 0.000000 0.000000 0.000000 0.039590
#
#
# Mechanical properties :
#
#
# Convention : Reuss Voigt Hill
#
# Bulk Modulus (GPa) = 54.96388 58.06431 56.51410
# Shear Modulus (GPa) = 18.20279 20.84982 19.52631
#
# Velocity S-wave (km/s) = 3.21700 3.44297 3.33190
# Velocity P-wave (km/s) = 6.71178 6.98694 6.85075
#
# Compressibility (1/GPa) = 0.01819377
#
# Stress axis : x y z
#
# Youngs Moduli (GPa) = 62.62375 33.83630 50.88143
#
# Poissons Ratio (x) = 0.21843 0.24398
# Poissons Ratio (y) = 0.40426 0.62282
# Poissons Ratio (z) = 0.30029 0.41418
#
# Static dielectric constant tensor:
#      x y z
#    x 1.606610 0.000000 0.000000 
#    y 0.000000 1.591470 0.000000 
#    z 0.000000 0.000000 1.566310 
# 
# From -- ./inp_files/15428.got.cif
#   From: 2010.05.17/outbox.cif.g08.bks.cpg/sg24_8_cif.got.tgz:15428.got - 2010.06.04 00:33:39.
