data_PCOD9333083
_publ_section_title
;
Structure prediction by ZEFSAII (Michael W. Deem and Ramdas Pophale) SiO2 
 PCOD9333083
Probable space group: I 21 21 21
;
_chemical_formula_sum "Si O2"
_cell_formula_units_Z 56
_cell_length_a 21.122102
_cell_length_b 13.007914
_cell_length_c 10.733396
_cell_angle_alpha 90.000000
_cell_angle_beta 90.000000
_cell_angle_gamma 90.000000
_cell_volume 2949.048704
_symmetry_space_group_name_H-M "I 21 21 21"
_symmetry_group_IT_number 24
_symmetry_cell_setting 'orthorhombic'
loop_
_space_group_symop_operation_xyz
x,y,z
-x,1/2-y,z
x,-y,1/2-z
1/2-x,y,-z
1/2+x,1/2+y,1/2+z
1/2-x,-y,1/2+z
1/2+x,1/2-y,-z
-x,1/2+y,1/2-z
loop_
_atom_site_type_symbol
_atom_site_label
_atom_site_fract_x
_atom_site_fract_y
_atom_site_fract_z
Si Si1 0.067378 0.089676 0.822856
Si Si2 0.656492 0.823075 0.752321
Si Si3 0.455908 0.541063 0.492747
Si Si4 0.699069 0.120046 0.235238
Si Si5 0.377649 0.343371 0.476033
Si Si6 0.873187 0.237477 0.984408
Si Si7 0.500000 0.750000 0.139947
Si Si8 0.948781 0.000000 0.250000
O O1 0.106533 0.155371 0.922966
O O2 0.007840 0.032367 0.887022
O O3 0.037440 0.171957 0.728689
O O4 0.104114 0.000000 0.750000
O O5 0.725376 0.873361 0.739850
O O6 0.649500 0.753867 0.627933
O O7 0.598617 0.903583 0.743485
O O8 0.649623 0.793120 0.898044
O O9 0.394346 0.465986 0.488440
O O10 0.432574 0.658485 0.487260
O O11 0.487152 0.509048 0.623636
O O12 0.667405 0.171488 0.357198
O O13 0.674147 0.177601 0.111077
O O14 0.680859 0.000000 0.250000
O O15 0.446685 0.300878 0.444501
#
# Coordination Sequence:
#
# PCOD9333083 Si02
#       8
#     8   8   8   8   8   8   4   4
#     4  12  22  36  59  86 115 161 217 254 301 366
#     4  10  22  37  54  87 128 159 197 241 308 367
#     4  10  18  33  54  81 125 157 197 244 294 360
#     4  12  21  34  62  94 126 161 197 246 303 375
#     4  11  22  37  58  90 125 160 199 248 304 368
#     4  11  22  37  55  87 122 161 204 246 301 364
#     4  12  22  38  58  86 116 158 200 258 306 358
#     4   8  18  32  48  82 126 162 190 234 300 362
#
# _framework density 18.989173999999998
#
# number of rings (size 3 to 8) (size 9 to 14) (size 15 to 20)
#    0.000    1.143    6.429    0.857    0.000    1.143 
#    7.714    0.000    0.000    0.000    7.429    0.000 
#    0.000    0.000    0.000    0.000    0.000    0.000 
#
# Total GULP energy -155954.607308 kJ/mol
# GULP energy per Si atom -5569.807404 kJ/mol
# Density = 1.894595 g / cm^3
# Si number density = 18.989174 Si / 1000 Ang^3
#
#
#
# Elastic Constant Matrix: (Units=GPa)
#
#
# Indices 1 2 3 4 5 6 
#
# 1 31.6378 12.3500 33.4220 0.0000 0.0000 0.0000
# 2 12.3500 66.0985 39.6094 0.0000 0.0000 0.0000
# 3 33.4220 39.6094 147.7875 0.0000 0.0000 0.0000
# 4 0.0000 0.0000 0.0000 25.5860 0.0000 0.0000
# 5 0.0000 0.0000 0.0000 0.0000 5.7686 0.0000
# 6 0.0000 0.0000 0.0000 0.0000 0.0000 18.6811
#
#
#
# Elastic Compliance Matrix: (Units=1/GPa)
#
#
# Indices 1 2 3 4 5 6 
#
# 1 0.041890 -0.002561 -0.008787 0.000000 0.000000 0.000000
# 2 -0.002561 0.018180 -0.004293 0.000000 0.000000 0.000000
# 3 -0.008787 -0.004293 0.009904 0.000000 0.000000 0.000000
# 4 0.000000 0.000000 0.000000 0.039084 0.000000 0.000000
# 5 0.000000 0.000000 0.000000 0.000000 0.173351 0.000000
# 6 0.000000 0.000000 0.000000 0.000000 0.000000 0.053530
#
#
# Mechanical properties :
#
#
# Convention : Reuss Voigt Hill
#
# Bulk Modulus (GPa) = 25.84550 46.25406 36.04978
# Shear Modulus (GPa) = 13.15375 20.68331 16.91853
#
# Velocity S-wave (km/s) = 2.63477 3.30391 2.98813
# Velocity P-wave (km/s) = 4.78500 6.24223 5.56155
#
# Compressibility (1/GPa) = 0.03869145
#
# Stress axis : x y z
#
# Youngs Moduli (GPa) = 23.87205 55.00459 100.96604
#
# Poissons Ratio (x) = 0.14088 0.88718
# Poissons Ratio (y) = 0.06114 0.43349
# Poissons Ratio (z) = 0.20976 0.23616
#
# Static dielectric constant tensor:
#      x y z
#    x 1.630700 0.000000 0.000000 
#    y 0.000000 1.705580 0.000000 
#    z 0.000000 0.000000 1.752350 
# 
# From -- ./inp_files/22220.got.cif
#   From: 2010.05.17/outbox.cif.g08.bks.cpg/sg24_12_cif.got.tgz:22220.got - 2010.06.04 00:33:39.
