data_PCOD9333954
_publ_section_title
;
Structure prediction by ZEFSAII (Michael W. Deem and Ramdas Pophale) SiO2 
 PCOD9333954
Probable space group: I 21 21 21
;
_chemical_formula_sum "Si O2"
_cell_formula_units_Z 56
_cell_length_a 23.503202
_cell_length_b 11.590539
_cell_length_c 10.839184
_cell_angle_alpha 90.000000
_cell_angle_beta 90.000000
_cell_angle_gamma 90.000000
_cell_volume 2952.753918
_symmetry_space_group_name_H-M "I 21 21 21"
_symmetry_group_IT_number 24
_symmetry_cell_setting 'orthorhombic'
loop_
_space_group_symop_operation_xyz
x,y,z
-x,1/2-y,z
x,-y,1/2-z
1/2-x,y,-z
1/2+x,1/2+y,1/2+z
1/2-x,-y,1/2+z
1/2+x,1/2-y,-z
-x,1/2+y,1/2-z
loop_
_atom_site_type_symbol
_atom_site_label
_atom_site_fract_x
_atom_site_fract_y
_atom_site_fract_z
Si Si1 0.364668 0.377178 0.813263
Si Si2 0.904458 0.330022 0.336582
Si Si3 0.553466 0.191659 0.436736
Si Si4 0.414645 0.082708 0.927904
Si Si5 0.312137 0.242531 0.018413
Si Si6 0.539833 0.078078 0.010947
Si Si7 0.628587 0.866690 0.277531
O O1 0.355727 0.500000 0.750000
O O2 0.362835 0.270972 0.715946
O O3 0.320149 0.347027 0.920684
O O4 0.425353 0.384758 0.887694
O O5 0.939077 0.263400 0.439365
O O6 0.892014 0.452365 0.403790
O O7 0.931570 0.370595 0.207902
O O8 0.500000 0.250000 0.369582
O O9 0.607543 0.192310 0.347478
O O10 0.544111 0.059696 0.473527
O O11 0.362891 0.155216 0.984100
O O12 0.472507 0.099596 0.004784
O O13 0.250000 0.191149 0.000000
O O14 0.323369 0.295415 0.152440
O O15 0.574870 0.128507 0.126860
O O16 0.643873 0.000000 0.250000
#
# Coordination Sequence:
#
# PCOD9333954 Si02
#       7
#     8   8   8   8   8   8   8
#     4  10  20  34  62  92 119 146 195 251 313 364
#     4  10  21  33  55  87 120 157 189 239 298 354
#     4  11  20  32  55  85 130 156 188 235 297 378
#     4  10  22  35  58  85 124 157 200 243 292 360
#     4  10  23  43  64  81 111 165 216 253 294 347
#     4  10  20  33  55  91 124 155 188 239 307 373
#     4   9  22  39  57  88 122 154 195 251 307 368
#
# _framework density 18.965344999999999
#
# number of rings (size 3 to 8) (size 9 to 14) (size 15 to 20)
#    0.000    2.000    2.857    0.000    6.000    4.571 
#    0.000    0.714   12.571    0.000    0.000    0.000 
#    0.000    0.000    0.000    0.000    0.000    0.000 
#
# Total GULP energy -155916.114625 kJ/mol
# GULP energy per Si atom -5568.432665 kJ/mol
# Density = 1.892218 g / cm^3
# Si number density = 18.965345 Si / 1000 Ang^3
#
#
#
# Elastic Constant Matrix: (Units=GPa)
#
#
# Indices 1 2 3 4 5 6 
#
# 1 74.8698 17.0172 23.2287 0.0000 0.0000 0.0000
# 2 17.0172 69.5196 17.8033 0.0000 0.0000 0.0000
# 3 23.2287 17.8033 49.0377 0.0000 0.0000 0.0000
# 4 0.0000 0.0000 0.0000 19.8246 0.0000 0.0000
# 5 0.0000 0.0000 0.0000 0.0000 12.4503 0.0000
# 6 0.0000 0.0000 0.0000 0.0000 0.0000 13.3558
#
#
#
# Elastic Compliance Matrix: (Units=1/GPa)
#
#
# Indices 1 2 3 4 5 6 
#
# 1 0.015949 -0.002171 -0.006767 0.000000 0.000000 0.000000
# 2 -0.002171 0.016154 -0.004836 0.000000 0.000000 0.000000
# 3 -0.006767 -0.004836 0.025354 0.000000 0.000000 0.000000
# 4 0.000000 0.000000 0.000000 0.050442 0.000000 0.000000
# 5 0.000000 0.000000 0.000000 0.000000 0.080319 0.000000
# 6 0.000000 0.000000 0.000000 0.000000 0.000000 0.074874
#
#
# Mechanical properties :
#
#
# Convention : Reuss Voigt Hill
#
# Bulk Modulus (GPa) = 33.43515 34.39173 33.91344
# Shear Modulus (GPa) = 16.63276 18.15134 17.39205
#
# Velocity S-wave (km/s) = 2.96465 3.09703 3.03156
# Velocity P-wave (km/s) = 5.42095 5.56436 5.49312
#
# Compressibility (1/GPa) = 0.02990865
#
# Stress axis : x y z
#
# Youngs Moduli (GPa) = 62.69796 61.90233 39.44186
#
# Poissons Ratio (x) = 0.13440 0.26690
# Poissons Ratio (y) = 0.13613 0.19076
# Poissons Ratio (z) = 0.42427 0.29939
#
# Static dielectric constant tensor:
#      x y z
#    x 1.662040 0.000000 0.000000 
#    y 0.000000 1.700170 0.000000 
#    z 0.000000 0.000000 1.699530 
# 
# From -- ./inp_files/22208.got.cif
#   From: 2010.05.17/outbox.cif.g08.bks.cpg/sg24_12_cif.got.tgz:22208.got - 2010.06.04 00:33:39.
