data_PCOD9333313
_publ_section_title
;
Structure prediction by ZEFSAII (Michael W. Deem and Ramdas Pophale) SiO2 
 PCOD9333313
Probable space group: I 21 21 21
;
_chemical_formula_sum "Si O2"
_cell_formula_units_Z 48
_cell_length_a 9.208476
_cell_length_b 29.628490
_cell_length_c 8.634653
_cell_angle_alpha 90.000000
_cell_angle_beta 90.000000
_cell_angle_gamma 90.000000
_cell_volume 2355.820346
_symmetry_space_group_name_H-M "I 21 21 21"
_symmetry_group_IT_number 24
_symmetry_cell_setting 'orthorhombic'
loop_
_space_group_symop_operation_xyz
x,y,z
-x,1/2-y,z
x,-y,1/2-z
1/2-x,y,-z
1/2+x,1/2+y,1/2+z
1/2-x,-y,1/2+z
1/2+x,1/2-y,-z
-x,1/2+y,1/2-z
loop_
_atom_site_type_symbol
_atom_site_label
_atom_site_fract_x
_atom_site_fract_y
_atom_site_fract_z
Si Si1 0.235506 0.681935 0.660254
Si Si2 0.916652 0.911159 0.377061
Si Si3 0.024572 0.701227 0.121085
Si Si4 0.486540 0.862985 0.164095
Si Si5 0.137064 0.551609 0.721773
Si Si6 0.186223 0.852871 0.327945
O O1 0.250000 0.708491 0.500000
O O2 0.331037 0.636609 0.630732
O O3 0.316796 0.703838 0.803199
O O4 0.076572 0.666313 0.709037
O O5 0.908932 0.932686 0.548101
O O6 0.812240 0.941729 0.270542
O O7 0.078690 0.896331 0.335428
O O8 0.908922 0.688080 0.255895
O O9 0.000000 0.750000 0.048293
O O10 0.011590 0.661401 0.998037
O O11 0.557486 0.912542 0.168111
O O12 0.320573 0.862729 0.215224
O O13 0.099280 0.500000 0.750000
O O14 0.250000 0.844504 0.500000
#
# Coordination Sequence:
#
# PCOD9333313 Si02
#       6
#     8   8   8   8   8   8
#     4  10  18  40  67  86 121 170 219 262 319 387
#     4   9  18  39  61  93 122 165 220 269 305 383
#     4  11  26  42  61  97 133 168 219 278 338 400
#     4  11  21  39  66  92 132 171 206 275 340 388
#     4  10  19  38  65  95 129 166 223 273 324 391
#     4  11  21  41  71  86 126 181 216 266 330 393
#
# _framework density 20.375069
#
# number of rings (size 3 to 8) (size 9 to 14) (size 15 to 20)
#    0.000    1.667    5.000    2.000    0.000    3.333 
#   18.000    2.500    3.667    0.000    0.000    0.000 
#    0.000    0.000    0.000    0.000    0.000    0.000 
#
# Total GULP energy -133885.773974 kJ/mol
# GULP energy per Si atom -5578.573916 kJ/mol
# Density = 2.032869 g / cm^3
# Si number density = 20.375069 Si / 1000 Ang^3
#
#
#
# Elastic Constant Matrix: (Units=GPa)
#
#
# Indices 1 2 3 4 5 6 
#
# 1 122.5141 16.3833 10.0993 0.0007 0.0000 0.0000
# 2 16.3833 98.6876 18.0594 0.0012 0.0001 0.0002
# 3 10.0993 18.0594 45.4493 0.0036 -0.0018 0.0006
# 4 0.0007 0.0012 0.0036 15.1278 0.0006 0.0002
# 5 0.0000 0.0001 -0.0018 0.0006 24.9642 0.0002
# 6 0.0000 0.0002 0.0006 0.0002 0.0002 14.0474
#
#
#
# Elastic Compliance Matrix: (Units=1/GPa)
#
#
# Indices 1 2 3 4 5 6 
#
# 1 0.008432 -0.001140 -0.001421 0.000000 0.000000 0.000000
# 2 -0.001140 0.011082 -0.004150 0.000000 0.000000 0.000000
# 3 -0.001421 -0.004150 0.023967 -0.000005 0.000002 -0.000001
# 4 0.000000 0.000000 -0.000005 0.066103 -0.000001 -0.000001
# 5 0.000000 0.000000 0.000002 -0.000001 0.040057 0.000000
# 6 0.000000 0.000000 -0.000001 -0.000001 0.000000 0.071188
#
#
# Mechanical properties :
#
#
# Convention : Reuss Voigt Hill
#
# Bulk Modulus (GPa) = 33.26724 39.52612 36.39668
# Shear Modulus (GPa) = 20.46914 25.63515 23.05215
#
# Velocity S-wave (km/s) = 3.17301 3.55091 3.36726
# Velocity P-wave (km/s) = 5.45773 6.02107 5.74631
#
# Compressibility (1/GPa) = 0.03005961
#
# Stress axis : x y z
#
# Youngs Moduli (GPa) = 118.59776 90.23929 41.72353
#
# Poissons Ratio (x) = 0.10285 0.05928
# Poissons Ratio (y) = 0.13518 0.17315
# Poissons Ratio (z) = 0.16850 0.37450
#
# Static dielectric constant tensor:
#      x y z
#    x 1.772640 0.000000 0.000000 
#    y 0.000000 1.719290 0.000000 
#    z 0.000000 0.000000 1.797720 
# 
# From -- ./inp_files/9735.got.cif
#   From: 2010.05.17/outbox.cif.g08.bks.cpg/sg24_5_cif.got.tgz:9735.got - 2010.06.04 00:33:39.
