data_PCOD9333488
_publ_section_title
;
Structure prediction by ZEFSAII (Michael W. Deem and Ramdas Pophale) SiO2 
 PCOD9333488
Probable space group: I 21 21 21
;
_chemical_formula_sum "Si O2"
_cell_formula_units_Z 36
_cell_length_a 15.353311
_cell_length_b 22.965401
_cell_length_c 5.259969
_cell_angle_alpha 90.000000
_cell_angle_beta 90.000000
_cell_angle_gamma 90.000000
_cell_volume 1854.638474
_symmetry_space_group_name_H-M "I 21 21 21"
_symmetry_group_IT_number 24
_symmetry_cell_setting 'orthorhombic'
loop_
_space_group_symop_operation_xyz
x,y,z
-x,1/2-y,z
x,-y,1/2-z
1/2-x,y,-z
1/2+x,1/2+y,1/2+z
1/2-x,-y,1/2+z
1/2+x,1/2-y,-z
-x,1/2+y,1/2-z
loop_
_atom_site_type_symbol
_atom_site_label
_atom_site_fract_x
_atom_site_fract_y
_atom_site_fract_z
Si Si1 0.500000 0.250000 0.409376
Si Si2 0.967509 0.036433 0.991244
Si Si3 0.329080 0.588827 0.165383
Si Si4 0.461944 0.643451 0.784710
Si Si5 0.662951 0.790319 0.417825
O O1 0.517997 0.308208 0.573068
O O2 0.586670 0.239361 0.243689
O O3 0.002495 0.100725 0.071703
O O4 0.972387 0.000000 0.250000
O O5 0.868470 0.052094 0.899289
O O6 0.004597 0.000000 0.750000
O O7 0.303707 0.652670 0.265417
O O8 0.250000 0.564654 0.000000
O O9 0.412343 0.602434 0.986706
O O10 0.388051 0.682862 0.655460
O O11 0.750000 0.756719 0.500000
#
# Coordination Sequence:
#
# PCOD9333488 Si02
#       5
#     4   8   8   8   8
#     4  10  22  34  56  84 112 158 218 260 306 364
#     4  11  22  38  52  76 110 155 206 256 297 346
#     4  10  19  34  53  73 107 154 203 255 288 343
#     4  10  20  37  52  77 111 150 216 248 301 357
#     4  10  19  33  57  81 112 156 212 253 304 361
#
# _framework density 19.410793000000002
#
# number of rings (size 3 to 8) (size 9 to 14) (size 15 to 20)
#    0.000    1.778    4.444    0.667    0.000    0.000 
#    4.000    0.000    0.000    0.000    0.000    0.000 
#    0.000    0.000    0.000    0.000  954.222    9.778 
#
# Total GULP energy -100261.297198 kJ/mol
# GULP energy per Si atom -5570.072067 kJ/mol
# Density = 1.936661 g / cm^3
# Si number density = 19.410793 Si / 1000 Ang^3
#
#
#
# Elastic Constant Matrix: (Units=GPa)
#
#
# Indices 1 2 3 4 5 6 
#
# 1 46.6715 35.8485 27.0328 0.0000 0.0000 0.0000
# 2 35.8485 72.0155 35.9502 0.0000 0.0000 0.0000
# 3 27.0328 35.9502 109.6484 0.0000 0.0000 0.0000
# 4 0.0000 0.0000 0.0000 35.1073 0.0000 0.0000
# 5 0.0000 0.0000 0.0000 0.0000 19.7581 0.0000
# 6 0.0000 0.0000 0.0000 0.0000 0.0000 16.9162
#
#
#
# Elastic Compliance Matrix: (Units=1/GPa)
#
#
# Indices 1 2 3 4 5 6 
#
# 1 0.035822 -0.016050 -0.003569 0.000000 0.000000 0.000000
# 2 -0.016050 0.023794 -0.003845 0.000000 0.000000 0.000000
# 3 -0.003569 -0.003845 0.011261 0.000000 0.000000 0.000000
# 4 0.000000 0.000000 0.000000 0.028484 0.000000 0.000000
# 5 0.000000 0.000000 0.000000 0.000000 0.050612 0.000000
# 6 0.000000 0.000000 0.000000 0.000000 0.000000 0.059115
#
#
# Mechanical properties :
#
#
# Convention : Reuss Voigt Hill
#
# Bulk Modulus (GPa) = 41.75462 47.33314 44.54388
# Shear Modulus (GPa) = 18.93953 22.98992 20.96472
#
# Velocity S-wave (km/s) = 3.12704 3.44523 3.28998
# Velocity P-wave (km/s) = 5.88180 6.34539 6.11799
#
# Compressibility (1/GPa) = 0.02394944
#
# Stress axis : x y z
#
# Youngs Moduli (GPa) = 27.91611 42.02652 88.80588
#
# Poissons Ratio (x) = 0.67452 0.31697
# Poissons Ratio (y) = 0.44805 0.34142
# Poissons Ratio (z) = 0.09964 0.16157
#
# Static dielectric constant tensor:
#      x y z
#    x 1.704360 0.000000 0.000000 
#    y 0.000000 1.802520 0.000000 
#    z 0.000000 0.000000 1.821760 
# 
# From -- ./inp_files/3362.got.cif
#   From: 2010.05.17/outbox.cif.g08.bks.cpg/sg24_2_cif.got.tgz:3362.got - 2010.06.04 00:33:39.
