data_PCOD9333060
_publ_section_title
;
Structure prediction by ZEFSAII (Michael W. Deem and Ramdas Pophale) SiO2 
 PCOD9333060
Probable space group: I 21 21 21
;
_chemical_formula_sum "Si O2"
_cell_formula_units_Z 24
_cell_length_a 26.738323
_cell_length_b 7.226892
_cell_length_c 5.050045
_cell_angle_alpha 90.000000
_cell_angle_beta 90.000000
_cell_angle_gamma 90.000000
_cell_volume 975.845307
_symmetry_space_group_name_H-M "I 21 21 21"
_symmetry_group_IT_number 24
_symmetry_cell_setting 'orthorhombic'
loop_
_space_group_symop_operation_xyz
x,y,z
-x,1/2-y,z
x,-y,1/2-z
1/2-x,y,-z
1/2+x,1/2+y,1/2+z
1/2-x,-y,1/2+z
1/2+x,1/2-y,-z
-x,1/2+y,1/2-z
loop_
_atom_site_type_symbol
_atom_site_label
_atom_site_fract_x
_atom_site_fract_y
_atom_site_fract_z
Si Si1 0.547515 0.874265 0.999514
Si Si2 0.296475 0.777356 0.694435
Si Si3 0.349677 0.219332 0.295351
O O1 0.500000 0.750000 0.930416
O O2 0.596205 0.760217 0.089036
O O3 0.533342 0.000000 0.250000
O O4 0.559550 0.000000 0.750000
O O5 0.250000 0.735686 0.500000
O O6 0.294139 0.000000 0.750000
O O7 0.341550 0.711919 0.502901
O O8 0.308683 0.709239 0.990796
O O9 0.343005 0.000000 0.250000
#
# Coordination Sequence:
#
# PCOD9333060 Si02
#       3
#     8   8   8
#     4  12  26  45  68  94 127 165 211 263 322 386
#     4  10  18  32  57  92 127 163 209 258 302 356
#     4  10  21  37  62  92 126 164 208 259 311 366
#
# _framework density 24.594062999999998
#
# number of rings (size 3 to 8) (size 9 to 14) (size 15 to 20)
#    0.000    1.333    0.000    8.000    0.000    4.000 
#    0.000    0.000    0.000   20.000    0.000    0.000 
#    0.000    0.000    0.000    0.000    0.000    0.000 
#
# Total GULP energy -67059.872323 kJ/mol
# GULP energy per Si atom -5588.322694 kJ/mol
# Density = 2.453809 g / cm^3
# Si number density = 24.594063 Si / 1000 Ang^3
#
#
#
# Elastic Constant Matrix: (Units=GPa)
#
#
# Indices 1 2 3 4 5 6 
#
# 1 151.5380 27.4024 52.3406 0.0000 0.0000 0.0000
# 2 27.4024 67.4865 53.3440 0.0000 0.0000 0.0000
# 3 52.3406 53.3440 182.3359 0.0001 0.0000 0.0000
# 4 0.0000 0.0000 0.0001 13.2928 0.0000 0.0000
# 5 0.0000 0.0000 0.0000 0.0000 51.0150 0.0000
# 6 0.0000 0.0000 0.0000 0.0000 0.0000 24.8752
#
#
#
# Elastic Compliance Matrix: (Units=1/GPa)
#
#
# Indices 1 2 3 4 5 6 
#
# 1 0.007480 -0.001743 -0.001637 0.000000 0.000000 0.000000
# 2 -0.001743 0.019681 -0.005258 0.000000 0.000000 0.000000
# 3 -0.001637 -0.005258 0.007492 0.000000 0.000000 0.000000
# 4 0.000000 0.000000 0.000000 0.075229 0.000000 0.000000
# 5 0.000000 0.000000 0.000000 0.000000 0.019602 0.000000
# 6 0.000000 0.000000 0.000000 0.000000 0.000000 0.040201
#
#
# Mechanical properties :
#
#
# Convention : Reuss Voigt Hill
#
# Bulk Modulus (GPa) = 57.54411 74.17048 65.85730
# Shear Modulus (GPa) = 25.93993 35.72150 30.83072
#
# Velocity S-wave (km/s) = 3.25117 3.81523 3.54444
# Velocity P-wave (km/s) = 6.12714 7.04495 6.60201
#
# Compressibility (1/GPa) = 0.01737797
#
# Stress axis : x y z
#
# Youngs Moduli (GPa) = 133.69603 50.80955 133.46685
#
# Poissons Ratio (x) = 0.08856 0.21850
# Poissons Ratio (y) = 0.23303 0.70172
# Poissons Ratio (z) = 0.21888 0.26714
#
# Static dielectric constant tensor:
#      x y z
#    x 2.010090 0.000000 0.000000 
#    y 0.000000 1.995490 0.000000 
#    z 0.000000 0.000000 1.899600 
# 
# From -- ./inp_files/6023.got.cif
#   From: 2010.05.17/outbox.cif.g08.bks.cpg/sg24_4_cif.got.tgz:6023.got - 2010.06.04 00:33:39.
