data_PCOD9333288
_publ_section_title
;
Structure prediction by ZEFSAII (Michael W. Deem and Ramdas Pophale) SiO2 
 PCOD9333288
Probable space group: I 21 21 21
;
_chemical_formula_sum "Si O2"
_cell_formula_units_Z 36
_cell_length_a 19.479725
_cell_length_b 9.703281
_cell_length_c 7.788783
_cell_angle_alpha 90.000000
_cell_angle_beta 90.000000
_cell_angle_gamma 90.000000
_cell_volume 1472.214308
_symmetry_space_group_name_H-M "I 21 21 21"
_symmetry_group_IT_number 24
_symmetry_cell_setting 'orthorhombic'
loop_
_space_group_symop_operation_xyz
x,y,z
-x,1/2-y,z
x,-y,1/2-z
1/2-x,y,-z
1/2+x,1/2+y,1/2+z
1/2-x,-y,1/2+z
1/2+x,1/2-y,-z
-x,1/2+y,1/2-z
loop_
_atom_site_type_symbol
_atom_site_label
_atom_site_fract_x
_atom_site_fract_y
_atom_site_fract_z
Si Si1 0.036254 0.881383 0.992033
Si Si2 0.846267 0.727015 0.250664
Si Si3 0.859730 0.405061 0.893557
Si Si4 0.425685 0.500000 0.750000
Si Si5 0.212573 0.349098 0.812378
O O1 0.101386 0.828886 0.107528
O O2 0.000000 0.750000 0.900479
O O3 0.975421 0.936769 0.109584
O O4 0.067943 0.019377 0.912093
O O5 0.836698 0.620424 0.409231
O O6 0.771019 0.776289 0.196171
O O7 0.880930 0.871153 0.313923
O O8 0.822053 0.500000 0.750000
O O9 0.852090 0.252400 0.817826
O O10 0.195653 0.500000 0.750000
O O11 0.250000 0.356076 0.000000
#
# Coordination Sequence:
#
# PCOD9333288 Si02
#       5
#     8   8   8   4   8
#     4  10  21  40  67  99 128 181 237 293 335 409
#     4  10  20  39  71  96 127 176 240 285 332 410
#     4  11  24  42  61  99 145 175 217 285 372 427
#     4  10  18  38  72  94 124 168 256 288 318 390
#     4  10  23  42  66  97 136 185 233 283 344 423
#
# _framework density 24.452963
#
# number of rings (size 3 to 8) (size 9 to 14) (size 15 to 20)
#    0.000    1.778    3.333    0.000    0.000    7.111 
#    8.000    0.000    0.000    0.000    0.000    0.000 
#    0.000    0.000    0.000    0.000    0.000    0.000 
#
# Total GULP energy -100291.797452 kJ/mol
# GULP energy per Si atom -5571.766525 kJ/mol
# Density = 2.439731 g / cm^3
# Si number density = 24.452963 Si / 1000 Ang^3
#
#
#
# Elastic Constant Matrix: (Units=GPa)
#
#
# Indices 1 2 3 4 5 6 
#
# 1 114.3604 77.9098 27.0449 0.0000 0.0000 0.0000
# 2 77.9098 176.2307 29.3859 0.0000 0.0000 0.0000
# 3 27.0449 29.3859 69.2413 0.0000 0.0000 0.0000
# 4 0.0000 0.0000 0.0000 39.7699 0.0000 0.0000
# 5 0.0000 0.0000 0.0000 0.0000 9.2710 0.0000
# 6 0.0000 0.0000 0.0000 0.0000 0.0000 55.7212
#
#
#
# Elastic Compliance Matrix: (Units=1/GPa)
#
#
# Indices 1 2 3 4 5 6 
#
# 1 0.013013 -0.005279 -0.002842 0.000000 0.000000 0.000000
# 2 -0.005279 0.008248 -0.001439 0.000000 0.000000 0.000000
# 3 -0.002842 -0.001439 0.016163 0.000000 0.000000 0.000000
# 4 0.000000 0.000000 0.000000 0.025145 0.000000 0.000000
# 5 0.000000 0.000000 0.000000 0.000000 0.107863 0.000000
# 6 0.000000 0.000000 0.000000 0.000000 0.000000 0.017946
#
#
# Mechanical properties :
#
#
# Convention : Reuss Voigt Hill
#
# Bulk Modulus (GPa) = 54.63220 69.83487 62.23353
# Shear Modulus (GPa) = 23.40836 35.98522 29.69679
#
# Velocity S-wave (km/s) = 3.09735 3.84032 3.48867
# Velocity P-wave (km/s) = 5.93142 6.94873 6.46013
#
# Compressibility (1/GPa) = 0.01830422
#
# Stress axis : x y z
#
# Youngs Moduli (GPa) = 76.84757 121.24165 61.86989
#
# Poissons Ratio (x) = 0.64002 0.17585
# Poissons Ratio (y) = 0.40567 0.08900
# Poissons Ratio (z) = 0.21842 0.17441
#
# Static dielectric constant tensor:
#      x y z
#    x 1.916140 0.000000 0.000000 
#    y 0.000000 2.095390 0.000000 
#    z 0.000000 0.000000 2.103270 
# 
# From -- ./inp_files/9060.got.cif
#   From: 2010.05.17/outbox.cif.g08.bks.cpg/sg24_5_cif.got.tgz:9060.got - 2010.06.04 00:33:39.
