data_PCOD9333519
_publ_section_title
;
Structure prediction by ZEFSAII (Michael W. Deem and Ramdas Pophale) SiO2 
 PCOD9333519
Probable space group: I 21 21 21
;
_chemical_formula_sum "Si O2"
_cell_formula_units_Z 32
_cell_length_a 5.106045
_cell_length_b 7.269639
_cell_length_c 35.554402
_cell_angle_alpha 90.000000
_cell_angle_beta 90.000000
_cell_angle_gamma 90.000000
_cell_volume 1319.747541
_symmetry_space_group_name_H-M "I 21 21 21"
_symmetry_group_IT_number 24
_symmetry_cell_setting 'orthorhombic'
loop_
_space_group_symop_operation_xyz
x,y,z
-x,1/2-y,z
x,-y,1/2-z
1/2-x,y,-z
1/2+x,1/2+y,1/2+z
1/2-x,-y,1/2+z
1/2+x,1/2-y,-z
-x,1/2+y,1/2-z
loop_
_atom_site_type_symbol
_atom_site_label
_atom_site_fract_x
_atom_site_fract_y
_atom_site_fract_z
Si Si1 0.527600 0.973603 0.666347
Si Si2 0.024840 0.968860 0.706991
Si Si3 0.889275 0.447057 0.535886
Si Si4 0.404026 0.460810 0.918351
O O1 0.500000 0.750000 0.667328
O O2 0.241222 0.040547 0.677984
O O3 0.629762 0.019662 0.624833
O O4 0.737337 0.039151 0.696909
O O5 0.000000 0.750000 0.701832
O O6 0.101026 0.000000 0.750000
O O7 0.750000 0.542817 0.500000
O O8 0.649164 0.428679 0.564578
O O9 0.000000 0.250000 0.522745
O O10 0.139545 0.531942 0.557032
O O11 0.500000 0.250000 0.918258
#
# Coordination Sequence:
#
# PCOD9333519 Si02
#       4
#     8   8   8   8
#     4   9  19  36  58  83 115 153 191 243 305 350
#     4  10  19  34  55  81 115 154 193 236 293 354
#     4  12  25  44  64  89 128 168 197 242 318 381
#     4  11  23  42  69  95 119 157 214 263 298 355
#
# _framework density 24.247064999999999
#
# number of rings (size 3 to 8) (size 9 to 14) (size 15 to 20)
#    0.000    1.500    0.000    6.000    0.000    6.000 
#    0.000    8.750    0.000    0.000    0.000    0.000 
#    0.000    0.000    0.000    0.000    0.000    0.000 
#
# Total GULP energy -89467.467512 kJ/mol
# GULP energy per Si atom -5591.716720 kJ/mol
# Density = 2.419188 g / cm^3
# Si number density = 24.247065 Si / 1000 Ang^3
#
#
#
# Elastic Constant Matrix: (Units=GPa)
#
#
# Indices 1 2 3 4 5 6 
#
# 1 183.4922 10.7120 66.5219 0.0000 0.0000 0.0000
# 2 10.7120 56.6215 -5.9285 0.0000 0.0000 0.0000
# 3 66.5219 -5.9285 134.6468 0.0000 0.0000 0.0000
# 4 0.0000 0.0000 0.0000 22.2473 0.0000 0.0000
# 5 0.0000 0.0000 0.0000 0.0000 45.8147 0.0000
# 6 0.0000 0.0000 0.0000 0.0000 0.0000 17.6228
#
#
#
# Elastic Compliance Matrix: (Units=1/GPa)
#
#
# Indices 1 2 3 4 5 6 
#
# 1 0.006788 -0.001643 -0.003426 0.000000 0.000000 0.000000
# 2 -0.001643 0.018141 0.001610 0.000000 0.000000 0.000000
# 3 -0.003426 0.001610 0.009190 0.000000 0.000000 0.000000
# 4 0.000000 0.000000 0.000000 0.044949 0.000000 0.000000
# 5 0.000000 0.000000 0.000000 0.000000 0.021827 0.000000
# 6 0.000000 0.000000 0.000000 0.000000 0.000000 0.056745
#
#
# Mechanical properties :
#
#
# Convention : Reuss Voigt Hill
#
# Bulk Modulus (GPa) = 36.76202 57.48572 47.12387
# Shear Modulus (GPa) = 28.79801 37.36731 33.08266
#
# Velocity S-wave (km/s) = 3.45003 3.92995 3.69778
# Velocity P-wave (km/s) = 5.57356 6.65977 6.14073
#
# Compressibility (1/GPa) = 0.02720199
#
# Stress axis : x y z
#
# Youngs Moduli (GPa) = 147.32566 55.12514 108.81111
#
# Poissons Ratio (x) = 0.09056 0.37276
# Poissons Ratio (y) = 0.24203 -0.17523
# Poissons Ratio (z) = 0.50470 -0.08877
#
# Static dielectric constant tensor:
#      x y z
#    x 1.863960 0.000000 0.000000 
#    y 0.000000 2.016420 0.000000 
#    z 0.000000 0.000000 1.899640 
# 
# From -- ./inp_files/37713.got.cif
#   From: 2010.05.17/outbox.cif.g08.bks.cpg/sg24_19_cif.got.tgz:37713.got - 2010.06.04 00:33:39.
