data_PCOD9333520
_publ_section_title
;
Structure prediction by ZEFSAII (Michael W. Deem and Ramdas Pophale) SiO2 
 PCOD9333520
Probable space group: I 21 21 21
;
_chemical_formula_sum "Si O2"
_cell_formula_units_Z 52
_cell_length_a 7.980363
_cell_length_b 11.121221
_cell_length_c 29.078411
_cell_angle_alpha 90.000000
_cell_angle_beta 90.000000
_cell_angle_gamma 90.000000
_cell_volume 2580.749121
_symmetry_space_group_name_H-M "I 21 21 21"
_symmetry_group_IT_number 24
_symmetry_cell_setting 'orthorhombic'
loop_
_space_group_symop_operation_xyz
x,y,z
-x,1/2-y,z
x,-y,1/2-z
1/2-x,y,-z
1/2+x,1/2+y,1/2+z
1/2-x,-y,1/2+z
1/2+x,1/2-y,-z
-x,1/2+y,1/2-z
loop_
_atom_site_type_symbol
_atom_site_label
_atom_site_fract_x
_atom_site_fract_y
_atom_site_fract_z
Si Si1 0.558875 0.628480 0.482785
Si Si2 0.677012 0.000000 0.250000
Si Si3 0.109447 0.566978 0.160125
Si Si4 0.945375 0.987471 0.061580
Si Si5 0.500000 0.250000 0.259644
Si Si6 0.248046 0.828949 0.163457
Si Si7 0.164822 0.906629 0.930310
Si Si8 0.250000 0.295482 0.500000
O O1 0.500000 0.750000 0.459794
O O2 0.750000 0.637953 0.500000
O O3 0.447103 0.601004 0.527742
O O4 0.552075 0.513019 0.450017
O O5 0.790041 0.976117 0.204680
O O6 0.574600 0.875537 0.261033
O O7 0.125296 0.493746 0.112605
O O8 0.176185 0.700181 0.147644
O O9 0.911953 0.585287 0.171148
O O10 0.140095 0.948803 0.067723
O O11 0.857644 0.880565 0.033407
O O12 0.351806 0.197277 0.291291
O O13 0.365721 0.876319 0.122579
O O14 0.159392 0.795282 0.964793
#
# Coordination Sequence:
#
# PCOD9333520 Si02
#       8
#     8   4   8   8   4   8   8   4
#     4  10  22  38  53  74 115 169 204 232 277 341
#     4  10  22  42  66  92 122 156 202 260 320 384
#     4   9  18  36  63  89 117 156 204 245 306 383
#     4  10  20  33  56  85 120 155 201 251 288 355
#     4  10  22  40  66  94 126 152 188 266 326 368
#     4   9  18  34  61  95 125 152 190 253 311 362
#     4  10  19  34  55  87 126 155 196 244 289 359
#     4  12  18  28  56  96 120 148 188 250 308 332
#
# _framework density 20.149189
#
# number of rings (size 3 to 8) (size 9 to 14) (size 15 to 20)
#    0.000    2.154    3.846    0.462    1.077    1.846 
#    0.000    0.000   18.615    0.000    0.000    0.000 
#    0.000    0.000    0.000    0.000    0.000    0.000 
#
# Total GULP energy -145018.560832 kJ/mol
# GULP energy per Si atom -5577.636955 kJ/mol
# Density = 2.010333 g / cm^3
# Si number density = 20.149189 Si / 1000 Ang^3
#
#
#
# Elastic Constant Matrix: (Units=GPa)
#
#
# Indices 1 2 3 4 5 6 
#
# 1 38.8929 30.1711 28.0971 0.0000 0.0000 0.0000
# 2 30.1711 103.2859 44.2583 0.0000 0.0000 0.0000
# 3 28.0971 44.2583 90.2944 0.0000 0.0000 0.0000
# 4 0.0000 0.0000 0.0000 14.0140 0.0000 0.0000
# 5 0.0000 0.0000 0.0000 0.0000 15.4576 0.0000
# 6 0.0000 0.0000 0.0000 0.0000 0.0000 32.9223
#
#
#
# Elastic Compliance Matrix: (Units=1/GPa)
#
#
# Indices 1 2 3 4 5 6 
#
# 1 0.037239 -0.007485 -0.007919 0.000000 0.000000 0.000000
# 2 -0.007485 0.013760 -0.004416 0.000000 0.000000 0.000000
# 3 -0.007919 -0.004416 0.015703 0.000000 0.000000 0.000000
# 4 0.000000 0.000000 0.000000 0.071357 0.000000 0.000000
# 5 0.000000 0.000000 0.000000 0.000000 0.064693 0.000000
# 6 0.000000 0.000000 0.000000 0.000000 0.000000 0.030375
#
#
# Mechanical properties :
#
#
# Convention : Reuss Voigt Hill
#
# Bulk Modulus (GPa) = 36.94965 48.61402 42.78183
# Shear Modulus (GPa) = 17.74388 21.14189 19.44289
#
# Velocity S-wave (km/s) = 2.97075 3.24275 3.10973
# Velocity P-wave (km/s) = 5.49045 6.18062 5.84573
#
# Compressibility (1/GPa) = 0.02706385
#
# Stress axis : x y z
#
# Youngs Moduli (GPa) = 26.85379 72.67259 63.68019
#
# Poissons Ratio (x) = 0.54392 0.50429
# Poissons Ratio (y) = 0.20099 0.28119
# Poissons Ratio (z) = 0.21266 0.32090
#
# Static dielectric constant tensor:
#      x y z
#    x 1.796920 0.000000 0.000000 
#    y 0.000000 1.730580 0.000000 
#    z 0.000000 0.000000 1.705680 
# 
# From -- ./inp_files/38374.got.cif
#   From: 2010.05.17/outbox.cif.g08.bks.cpg/sg24_20_cif.got.tgz:38374.got - 2010.06.04 00:33:39.
