data_PCOD9333338
_publ_section_title
;
Structure prediction by ZEFSAII (Michael W. Deem and Ramdas Pophale) SiO2 
 PCOD9333338
Probable space group: I 21 21 21
;
_chemical_formula_sum "Si O2"
_cell_formula_units_Z 64
_cell_length_a 30.236588
_cell_length_b 14.773953
_cell_length_c 7.103443
_cell_angle_alpha 90.000000
_cell_angle_beta 90.000000
_cell_angle_gamma 90.000000
_cell_volume 3173.206939
_symmetry_space_group_name_H-M "I 21 21 21"
_symmetry_group_IT_number 24
_symmetry_cell_setting 'orthorhombic'
loop_
_space_group_symop_operation_xyz
x,y,z
-x,1/2-y,z
x,-y,1/2-z
1/2-x,y,-z
1/2+x,1/2+y,1/2+z
1/2-x,-y,1/2+z
1/2+x,1/2-y,-z
-x,1/2+y,1/2-z
loop_
_atom_site_type_symbol
_atom_site_label
_atom_site_fract_x
_atom_site_fract_y
_atom_site_fract_z
Si Si1 0.039216 0.516791 0.543654
Si Si2 0.894795 0.335397 0.537919
Si Si3 0.288569 0.890985 0.749284
Si Si4 0.191379 0.893695 0.808224
Si Si5 0.878179 0.646508 0.397346
Si Si6 0.459482 0.687411 0.049372
Si Si7 0.452910 0.707378 0.500988
Si Si8 0.943823 0.499790 0.024694
O O1 0.059746 0.500000 0.750000
O O2 0.987506 0.543671 0.560759
O O3 0.037525 0.413867 0.470959
O O4 0.058232 0.603925 0.438599
O O5 0.856689 0.345202 0.694232
O O6 0.883078 0.369003 0.328323
O O7 0.913347 0.235961 0.504526
O O8 0.934959 0.404663 0.576354
O O9 0.237617 0.865022 0.713115
O O10 0.324788 0.851160 0.603029
O O11 0.291386 0.000000 0.750000
O O12 0.298398 0.874078 0.969975
O O13 0.186126 0.000000 0.750000
O O14 0.911634 0.727242 0.452665
O O15 0.899503 0.558625 0.493584
O O16 0.500000 0.750000 0.982789
O O17 0.459019 0.693920 0.276471
O O18 0.500000 0.750000 0.568333
O O19 0.953290 0.500000 0.250000
#
# Coordination Sequence:
#
# PCOD9333338 Si02
#       8
#     8   8   8   8   8   8   8   8
#     4  10  20  34  47  66  96 129 170 215 256 293
#     4  10  20  31  46  72  99 131 173 208 248 304
#     4   9  17  32  49  69 104 134 166 212 257 303
#     4   9  18  31  48  72 100 136 169 205 258 312
#     4  10  19  31  48  70  98 133 173 206 249 306
#     4  10  20  33  48  68  97 131 169 215 252 294
#     4  10  20  33  49  69  93 132 175 209 252 301
#     4  10  19  29  45  68  96 129 167 205 246 296
#
# _framework density 20.168870999999999
#
# number of rings (size 3 to 8) (size 9 to 14) (size 15 to 20)
#    0.000    2.250    2.500    1.875    0.000    4.000 
#    0.000    0.000    0.000    0.000    0.000    0.000 
#    0.000   24.000    0.000    0.625    0.000   13.750 
#
# Total GULP energy -178204.890202 kJ/mol
# GULP energy per Si atom -5568.902819 kJ/mol
# Density = 2.012297 g / cm^3
# Si number density = 20.168871 Si / 1000 Ang^3
#
#
#
# Elastic Constant Matrix: (Units=GPa)
#
#
# Indices 1 2 3 4 5 6 
#
# 1 122.3569 50.8403 12.8479 0.0000 0.0000 0.0000
# 2 50.8403 129.2830 4.8814 0.0000 0.0000 0.0000
# 3 12.8479 4.8814 71.7014 0.0000 0.0000 0.0000
# 4 0.0000 0.0000 0.0000 12.5809 0.0000 0.0000
# 5 0.0000 0.0000 0.0000 0.0000 23.1285 0.0000
# 6 0.0000 0.0000 0.0000 0.0000 0.0000 22.9113
#
#
#
# Elastic Compliance Matrix: (Units=1/GPa)
#
#
# Indices 1 2 3 4 5 6 
#
# 1 0.009931 -0.003848 -0.001518 0.000000 0.000000 0.000000
# 2 -0.003848 0.009246 0.000060 0.000000 0.000000 0.000000
# 3 -0.001518 0.000060 0.014215 0.000000 0.000000 0.000000
# 4 0.000000 0.000000 0.000000 0.079486 0.000000 0.000000
# 5 0.000000 0.000000 0.000000 0.000000 0.043237 0.000000
# 6 0.000000 0.000000 0.000000 0.000000 0.000000 0.043647
#
#
# Mechanical properties :
#
#
# Convention : Reuss Voigt Hill
#
# Bulk Modulus (GPa) = 43.89724 51.16451 47.53088
# Shear Modulus (GPa) = 22.93946 28.70892 25.82419
#
# Velocity S-wave (km/s) = 3.37615 3.77693 3.58215
# Velocity P-wave (km/s) = 6.08358 6.66659 6.38174
#
# Compressibility (1/GPa) = 0.02278047
#
# Stress axis : x y z
#
# Youngs Moduli (GPa) = 100.69413 108.15545 70.35045
#
# Poissons Ratio (x) = 0.41619 0.10676
# Poissons Ratio (y) = 0.38748 -0.00422
# Poissons Ratio (z) = 0.15281 -0.00650
#
# Static dielectric constant tensor:
#      x y z
#    x 1.793960 0.000000 0.000000 
#    y 0.000000 1.773620 0.000000 
#    z 0.000000 0.000000 1.856690 
# 
# From -- ./inp_files/17058.got.cif
#   From: 2010.05.17/outbox.cif.g08.bks.cpg/sg24_9_cif.got.tgz:17058.got - 2010.06.04 00:33:39.
