data_PCOD9333332
_publ_section_title
;
Structure prediction by ZEFSAII (Michael W. Deem and Ramdas Pophale) SiO2 
 PCOD9333332
Probable space group: I 21 21 21
;
_chemical_formula_sum "Si O2"
_cell_formula_units_Z 40
_cell_length_a 10.914216
_cell_length_b 24.059333
_cell_length_c 7.649040
_cell_angle_alpha 90.000000
_cell_angle_beta 90.000000
_cell_angle_gamma 90.000000
_cell_volume 2008.551907
_symmetry_space_group_name_H-M "I 21 21 21"
_symmetry_group_IT_number 24
_symmetry_cell_setting 'orthorhombic'
loop_
_space_group_symop_operation_xyz
x,y,z
-x,1/2-y,z
x,-y,1/2-z
1/2-x,y,-z
1/2+x,1/2+y,1/2+z
1/2-x,-y,1/2+z
1/2+x,1/2-y,-z
-x,1/2+y,1/2-z
loop_
_atom_site_type_symbol
_atom_site_label
_atom_site_fract_x
_atom_site_fract_y
_atom_site_fract_z
Si Si1 0.034936 0.848460 0.779240
Si Si2 0.751131 0.738089 0.811775
Si Si3 0.450465 0.860882 0.819900
Si Si4 0.598980 0.199318 0.962225
Si Si5 0.740143 0.564177 0.209091
O O1 0.121027 0.793406 0.785530
O O2 0.129459 0.897409 0.721464
O O3 0.927367 0.833858 0.644399
O O4 0.002460 0.864186 0.979907
O O5 0.650010 0.689142 0.826083
O O6 0.713875 0.774892 0.648221
O O7 0.750000 0.767395 0.000000
O O8 0.552350 0.844071 0.684252
O O9 0.372890 0.912014 0.740428
O O10 0.500000 0.250000 0.964751
O O11 0.722532 0.500000 0.250000
O O12 0.750000 0.572482 0.000000
#
# Coordination Sequence:
#
# PCOD9333332 Si02
#       5
#     8   8   8   8   8
#     4   9  18  32  45  66 104 132 172 214 251 314
#     4   8  16  31  47  66  96 137 176 210 255 306
#     4   8  17  31  42  63  98 131 169 212 249 302
#     4  10  19  28  47  70  92 141 176 207 257 295
#     4   9  18  29  46  69  94 139 177 208 262 310
#
# _framework density 19.914847000000002
#
# number of rings (size 3 to 8) (size 9 to 14) (size 15 to 20)
#    0.000    3.200    0.000    2.400    2.800   10.400 
#    0.000    2.000    0.000    0.000    0.000    0.000 
#    0.000    0.000   20.400   12.400   36.800    0.000 
#
# Total GULP energy -111344.297455 kJ/mol
# GULP energy per Si atom -5567.214873 kJ/mol
# Density = 1.986952 g / cm^3
# Si number density = 19.914847 Si / 1000 Ang^3
#
#
#
# Elastic Constant Matrix: (Units=GPa)
#
#
# Indices 1 2 3 4 5 6 
#
# 1 19.9451 29.4039 31.3251 0.0001 -0.0016 -0.0001
# 2 29.4039 92.3683 34.6025 0.0004 -0.0022 -0.0001
# 3 31.3251 34.6025 137.2731 0.0021 0.0016 -0.0008
# 4 0.0001 0.0004 0.0021 20.3730 -0.0008 -0.0004
# 5 -0.0016 -0.0022 0.0016 -0.0008 89.7560 -0.0004
# 6 -0.0001 -0.0001 -0.0008 -0.0004 -0.0004 16.7361
#
#
#
# Elastic Compliance Matrix: (Units=1/GPa)
#
#
# Indices 1 2 3 4 5 6 
#
# 1 0.137617 -0.035385 -0.022484 0.000003 0.000002 -0.000001
# 2 -0.035385 0.021054 0.002768 -0.000001 0.000000 0.000000
# 3 -0.022484 0.002768 0.011718 -0.000001 -0.000001 0.000000
# 4 0.000003 -0.000001 -0.000001 0.049085 0.000000 0.000001
# 5 0.000002 0.000000 -0.000001 0.000000 0.011141 0.000000
# 6 -0.000001 0.000000 0.000000 0.000001 0.000000 0.059751
#
#
# Mechanical properties :
#
#
# Convention : Reuss Voigt Hill
#
# Bulk Modulus (GPa) = 16.61532 48.91661 32.76596
# Shear Modulus (GPa) = 11.88693 35.65669 23.77181
#
# Velocity S-wave (km/s) = 2.44578 4.23597 3.45871
# Velocity P-wave (km/s) = 4.04191 6.96712 5.69552
#
# Compressibility (1/GPa) = 0.06018542
#
# Stress axis : x y z
#
# Youngs Moduli (GPa) = 7.26655 47.49765 85.34005
#
# Poissons Ratio (x) = 1.68071 1.91878
# Poissons Ratio (y) = 0.25713 -0.23620
# Poissons Ratio (z) = 0.16338 -0.13146
#
# Static dielectric constant tensor:
#      x y z
#    x 2.452270 0.000010 0.000000 
#    y 0.000010 1.665620 0.000000 
#    z 0.000000 0.000000 1.791490 
# 
# From -- ./inp_files/11008.got.cif
#   From: 2010.05.17/outbox.cif.g08.bks.cpg/sg24_6_cif.got.tgz:11008.got - 2010.06.04 00:33:39.
