data_PCOD9333247
_publ_section_title
;
Structure prediction by ZEFSAII (Michael W. Deem and Ramdas Pophale) SiO2 
 PCOD9333247
Probable space group: I 21 21 21
;
_chemical_formula_sum "Si O2"
_cell_formula_units_Z 60
_cell_length_a 30.413179
_cell_length_b 11.101311
_cell_length_c 7.833536
_cell_angle_alpha 90.000000
_cell_angle_beta 90.000000
_cell_angle_gamma 90.000000
_cell_volume 2644.806668
_symmetry_space_group_name_H-M "I 21 21 21"
_symmetry_group_IT_number 24
_symmetry_cell_setting 'orthorhombic'
loop_
_space_group_symop_operation_xyz
x,y,z
-x,1/2-y,z
x,-y,1/2-z
1/2-x,y,-z
1/2+x,1/2+y,1/2+z
1/2-x,-y,1/2+z
1/2+x,1/2-y,-z
-x,1/2+y,1/2-z
loop_
_atom_site_type_symbol
_atom_site_label
_atom_site_fract_x
_atom_site_fract_y
_atom_site_fract_z
Si Si1 0.933027 0.497416 0.551544
Si Si2 0.049026 0.730165 0.911852
Si Si3 0.351654 0.747485 0.188822
Si Si4 0.844248 0.000000 0.750000
Si Si5 0.297631 0.952345 0.053702
Si Si6 0.022284 0.524878 0.437188
Si Si7 0.854322 0.648456 0.433403
Si Si8 0.614692 0.100147 0.896268
O O1 0.917339 0.500000 0.750000
O O2 0.942191 0.359298 0.497222
O O3 0.898248 0.567802 0.438363
O O4 0.980959 0.558591 0.551037
O O5 0.096514 0.715848 0.824293
O O6 0.000000 0.750000 0.832294
O O7 0.042855 0.603182 0.006200
O O8 0.323499 0.624722 0.184495
O O9 0.347862 0.804117 0.374053
O O10 0.334084 0.846644 0.057533
O O11 0.868108 0.952505 0.576648
O O12 0.295039 0.000000 0.250000
O O13 0.250000 0.907602 0.000000
O O14 0.313656 0.057138 0.924040
O O15 0.003929 0.500000 0.250000
O O16 0.062315 0.617684 0.425209
O O17 0.862696 0.774624 0.339135
O O18 0.619813 0.000000 0.750000
#
# Coordination Sequence:
#
# PCOD9333247 Si02
#       8
#     8   8   8   4   8   8   8   8
#     4  11  20  36  61  91 117 160 225 276 323 402
#     4  10  19  34  59  88 126 164 220 273 319 393
#     4  10  18  37  64  94 128 168 217 273 334 406
#     4  10  20  36  66  88 120 180 216 256 344 388
#     4  10  21  42  68  99 131 166 217 280 351 419
#     4  10  23  40  51  78 127 176 211 268 327 376
#     4  10  20  38  64  91 128 168 209 276 349 396
#     4  10  22  39  58  92 129 173 221 275 326 407
#
# _framework density 22.685967000000002
#
# number of rings (size 3 to 8) (size 9 to 14) (size 15 to 20)
#    0.000    1.867    4.000    0.400    0.933    1.600 
#   16.800    0.667    0.000    7.200    3.467    0.000 
#    0.000    0.000    0.000    0.000    0.000    0.000 
#
# Total GULP energy -167106.109094 kJ/mol
# GULP energy per Si atom -5570.203636 kJ/mol
# Density = 2.263433 g / cm^3
# Si number density = 22.685967 Si / 1000 Ang^3
#
#
#
# Elastic Constant Matrix: (Units=GPa)
#
#
# Indices 1 2 3 4 5 6 
#
# 1 72.5214 37.4765 16.9470 0.0000 0.0000 0.0000
# 2 37.4765 104.8842 13.4890 0.0000 0.0000 0.0000
# 3 16.9470 13.4890 52.7596 -0.0001 0.0000 0.0000
# 4 0.0000 0.0000 -0.0001 29.6602 0.0000 0.0000
# 5 0.0000 0.0000 0.0000 0.0000 6.9740 0.0000
# 6 0.0000 0.0000 0.0000 0.0000 0.0000 17.6127
#
#
#
# Elastic Compliance Matrix: (Units=1/GPa)
#
#
# Indices 1 2 3 4 5 6 
#
# 1 0.017778 -0.005809 -0.004225 0.000000 0.000000 0.000000
# 2 -0.005809 0.011757 -0.001140 0.000000 0.000000 0.000000
# 3 -0.004225 -0.001140 0.020603 0.000000 0.000000 0.000000
# 4 0.000000 0.000000 0.000000 0.033715 0.000000 0.000000
# 5 0.000000 0.000000 0.000000 0.000000 0.143389 0.000000
# 6 0.000000 0.000000 0.000000 0.000000 0.000000 0.056777
#
#
# Mechanical properties :
#
#
# Convention : Reuss Voigt Hill
#
# Bulk Modulus (GPa) = 35.98560 40.66555 38.32557
# Shear Modulus (GPa) = 15.84132 21.66624 18.75378
#
# Velocity S-wave (km/s) = 2.64538 3.09374 2.87830
# Velocity P-wave (km/s) = 5.02271 5.54310 5.28931
#
# Compressibility (1/GPa) = 0.02778890
#
# Stress axis : x y z
#
# Youngs Moduli (GPa) = 56.24824 85.05896 48.53757
#
# Poissons Ratio (x) = 0.49411 0.20509
# Poissons Ratio (y) = 0.32675 0.05533
# Poissons Ratio (z) = 0.23767 0.09696
#
# Static dielectric constant tensor:
#      x y z
#    x 1.850150 0.000000 0.000000 
#    y 0.000000 1.961890 0.000000 
#    z 0.000000 0.000000 1.878860 
# 
# From -- ./inp_files/16962.got.cif
#   From: 2010.05.17/outbox.cif.g08.bks.cpg/sg24_9_cif.got.tgz:16962.got - 2010.06.04 00:33:39.
