data_PCOD9333650
_publ_section_title
;
Structure prediction by ZEFSAII (Michael W. Deem and Ramdas Pophale) SiO2 
 PCOD9333650
Probable space group: I 21 21 21
;
_chemical_formula_sum "Si O2"
_cell_formula_units_Z 56
_cell_length_a 14.796244
_cell_length_b 13.243208
_cell_length_c 11.822729
_cell_angle_alpha 90.000000
_cell_angle_beta 90.000000
_cell_angle_gamma 90.000000
_cell_volume 2316.660637
_symmetry_space_group_name_H-M "I 21 21 21"
_symmetry_group_IT_number 24
_symmetry_cell_setting 'orthorhombic'
loop_
_space_group_symop_operation_xyz
x,y,z
-x,1/2-y,z
x,-y,1/2-z
1/2-x,y,-z
1/2+x,1/2+y,1/2+z
1/2-x,-y,1/2+z
1/2+x,1/2-y,-z
-x,1/2+y,1/2-z
loop_
_atom_site_type_symbol
_atom_site_label
_atom_site_fract_x
_atom_site_fract_y
_atom_site_fract_z
Si Si1 0.047582 0.531047 0.012111
Si Si2 0.026666 0.637002 0.249293
Si Si3 0.901685 0.782717 0.880394
Si Si4 0.710037 0.187425 0.873552
Si Si5 0.345827 0.904591 0.001480
Si Si6 0.668895 0.387982 0.755155
Si Si7 0.615065 0.906782 0.325116
O O1 0.051947 0.564699 0.143619
O O2 0.112731 0.614404 0.950122
O O3 0.079925 0.428227 0.950816
O O4 0.941370 0.541867 0.977334
O O5 0.110023 0.654534 0.333794
O O6 0.000000 0.750000 0.208063
O O7 0.932549 0.601623 0.307795
O O8 0.838856 0.689505 0.912499
O O9 0.909917 0.808869 0.748367
O O10 0.000000 0.750000 0.922462
O O11 0.719355 0.298636 0.817713
O O12 0.777070 0.102888 0.824142
O O13 0.750000 0.197702 0.000000
O O14 0.250000 0.963125 0.000000
O O15 0.351695 0.861675 0.874819
O O16 0.710870 0.500000 0.750000
O O17 0.580858 0.000000 0.250000
#
# Coordination Sequence:
#
# PCOD9333650 Si02
#       7
#     8   8   8   8   8   8   8
#     4   9  18  35  61  92 127 169 222 279 343 412
#     4   9  19  40  68  95 128 174 228 285 346 416
#     4   9  17  34  57  84 123 170 216 269 332 399
#     4  11  24  41  61  93 133 171 221 284 347 414
#     4  10  19  35  64  96 127 172 232 289 344 413
#     4  10  22  41  65  95 131 174 228 291 355 418
#     4  10  22  38  58  91 132 174 220 273 339 412
#
# _framework density 24.172723999999999
#
# number of rings (size 3 to 8) (size 9 to 14) (size 15 to 20)
#    0.000    2.286    0.000    3.857    0.000    4.571 
#    0.000   12.857    0.000    0.000    0.000    0.000 
#    0.000    0.000    0.000    0.000    0.000    0.000 
#
# Total GULP energy -155986.244561 kJ/mol
# GULP energy per Si atom -5570.937306 kJ/mol
# Density = 2.411771 g / cm^3
# Si number density = 24.172724 Si / 1000 Ang^3
#
#
#
# Elastic Constant Matrix: (Units=GPa)
#
#
# Indices 1 2 3 4 5 6 
#
# 1 118.6362 22.4425 30.6453 0.0000 0.0000 0.0000
# 2 22.4425 93.9127 55.7711 0.0000 0.0000 0.0000
# 3 30.6453 55.7711 144.3497 0.0000 0.0000 0.0000
# 4 0.0000 0.0000 0.0000 47.7379 0.0000 0.0000
# 5 0.0000 0.0000 0.0000 0.0000 21.6117 0.0000
# 6 0.0000 0.0000 0.0000 0.0000 0.0000 34.2727
#
#
#
# Elastic Compliance Matrix: (Units=1/GPa)
#
#
# Indices 1 2 3 4 5 6 
#
# 1 0.009043 -0.001325 -0.001408 0.000000 0.000000 0.000000
# 2 -0.001325 0.014013 -0.005133 0.000000 0.000000 0.000000
# 3 -0.001408 -0.005133 0.009210 0.000000 0.000000 0.000000
# 4 0.000000 0.000000 0.000000 0.020948 0.000000 0.000000
# 5 0.000000 0.000000 0.000000 0.000000 0.046271 0.000000
# 6 0.000000 0.000000 0.000000 0.000000 0.000000 0.029178
#
#
# Mechanical properties :
#
#
# Convention : Reuss Voigt Hill
#
# Bulk Modulus (GPa) = 60.47928 63.84627 62.16278
# Shear Modulus (GPa) = 33.35428 37.26045 35.30737
#
# Velocity S-wave (km/s) = 3.71864 3.93036 3.82596
# Velocity P-wave (km/s) = 6.59634 6.86053 6.72973
#
# Compressibility (1/GPa) = 0.01653459
#
# Stress axis : x y z
#
# Youngs Moduli (GPa) = 110.57688 71.36240 108.58183
#
# Poissons Ratio (x) = 0.09455 0.15288
# Poissons Ratio (y) = 0.14651 0.55733
# Poissons Ratio (z) = 0.15569 0.36629
#
# Static dielectric constant tensor:
#      x y z
#    x 1.973700 0.000000 0.000000 
#    y 0.000000 2.035110 0.000000 
#    z 0.000000 0.000000 2.015870 
# 
# From -- ./inp_files/20833.got.cif
#   From: 2010.05.17/outbox.cif.g08.bks.cpg/sg24_11_cif.got.tgz:20833.got - 2010.06.04 00:33:39.
