data_PCOD9333307
_publ_section_title
;
Structure prediction by ZEFSAII (Michael W. Deem and Ramdas Pophale) SiO2 
 PCOD9333307
Probable space group: I 21 21 21
;
_chemical_formula_sum "Si O2"
_cell_formula_units_Z 56
_cell_length_a 31.179357
_cell_length_b 15.967663
_cell_length_c 5.381553
_cell_angle_alpha 90.000000
_cell_angle_beta 90.000000
_cell_angle_gamma 90.000000
_cell_volume 2679.267861
_symmetry_space_group_name_H-M "I 21 21 21"
_symmetry_group_IT_number 24
_symmetry_cell_setting 'orthorhombic'
loop_
_space_group_symop_operation_xyz
x,y,z
-x,1/2-y,z
x,-y,1/2-z
1/2-x,y,-z
1/2+x,1/2+y,1/2+z
1/2-x,-y,1/2+z
1/2+x,1/2-y,-z
-x,1/2+y,1/2-z
loop_
_atom_site_type_symbol
_atom_site_label
_atom_site_fract_x
_atom_site_fract_y
_atom_site_fract_z
Si Si1 0.311145 0.681209 0.662275
Si Si2 0.394200 0.913697 0.597547
Si Si3 0.250000 0.205515 0.500000
Si Si4 0.514597 0.414485 0.134928
Si Si5 0.670542 0.317503 0.210405
Si Si6 0.016782 0.336874 0.367729
Si Si7 0.395589 0.748549 0.911339
Si Si8 0.776267 0.000000 0.250000
O O1 0.312098 0.730415 0.403856
O O2 0.357673 0.699911 0.772631
O O3 0.301411 0.583562 0.669233
O O4 0.276475 0.733654 0.818250
O O5 0.434633 0.923236 0.414858
O O6 0.348655 0.886245 0.477392
O O7 0.407464 0.832201 0.758744
O O8 0.390300 0.000000 0.750000
O O9 0.288579 0.153256 0.370823
O O10 0.496878 0.500000 0.250000
O O11 0.506727 0.353224 0.369121
O O12 0.492587 0.397816 0.865785
O O13 0.627770 0.287458 0.350897
O O14 0.065786 0.316049 0.437159
O O15 0.000000 0.250000 0.257894
O O16 0.750000 0.022920 0.500000
#
# Coordination Sequence:
#
# PCOD9333307 Si02
#       8
#     8   8   4   8   8   8   8   4
#     4  10  22  40  66 101 140 180 232 285 345 414
#     4  11  24  43  68 106 134 177 237 303 359 424
#     4  10  18  40  64 102 132 182 230 284 346 426
#     4  12  27  45  70 102 145 185 239 298 358 418
#     4  10  22  39  69 103 135 182 232 292 355 432
#     4  12  24  44  71 101 142 189 237 291 352 431
#     4  10  24  43  67 105 135 181 238 280 357 426
#     4  12  24  40  68 102 136 178 236 284 336 400
#
# _framework density 20.901232
#
# number of rings (size 3 to 8) (size 9 to 14) (size 15 to 20)
#    0.000    1.143    2.143    3.857    8.000    0.000 
#    2.571    0.000    0.000    0.000  133.714    0.000 
#    0.000    0.000    0.000    0.000    0.000    0.000 
#
# Total GULP energy -156102.187084 kJ/mol
# GULP energy per Si atom -5575.078110 kJ/mol
# Density = 2.085366 g / cm^3
# Si number density = 20.901232 Si / 1000 Ang^3
#
#
#
# Elastic Constant Matrix: (Units=GPa)
#
#
# Indices 1 2 3 4 5 6 
#
# 1 122.6600 46.7161 46.3296 0.0000 0.0000 0.0000
# 2 46.7161 101.1835 43.4031 0.0000 0.0000 0.0000
# 3 46.3296 43.4031 105.5674 -0.0004 -0.0004 -0.0001
# 4 0.0000 0.0000 -0.0004 18.9809 -0.0002 0.0000
# 5 0.0000 0.0000 -0.0004 -0.0002 14.8507 0.0000
# 6 0.0000 0.0000 -0.0001 0.0000 0.0000 4.6409
#
#
#
# Elastic Compliance Matrix: (Units=1/GPa)
#
#
# Indices 1 2 3 4 5 6 
#
# 1 0.010736 -0.003564 -0.003246 0.000000 0.000000 0.000000
# 2 -0.003564 0.013183 -0.003856 0.000000 0.000000 0.000000
# 3 -0.003246 -0.003856 0.012482 0.000000 0.000000 0.000000
# 4 0.000000 0.000000 0.000000 0.052684 0.000001 0.000000
# 5 0.000000 0.000000 0.000000 0.000001 0.067337 0.000000
# 6 0.000000 0.000000 0.000000 0.000000 0.000000 0.215476
#
#
# Mechanical properties :
#
#
# Convention : Reuss Voigt Hill
#
# Bulk Modulus (GPa) = 66.36244 66.92316 66.64280
# Shear Modulus (GPa) = 12.55480 20.55864 16.55672
#
# Velocity S-wave (km/s) = 2.45352 3.13966 2.81755
# Velocity P-wave (km/s) = 6.31235 6.72544 6.52217
#
# Compressibility (1/GPa) = 0.01506876
#
# Stress axis : x y z
#
# Youngs Moduli (GPa) = 93.14201 75.85759 80.11218
#
# Poissons Ratio (x) = 0.27039 0.26007
# Poissons Ratio (y) = 0.33200 0.30888
# Poissons Ratio (z) = 0.30237 0.29248
#
# Static dielectric constant tensor:
#      x y z
#    x 1.838220 0.000000 0.000000 
#    y 0.000000 1.766060 0.000000 
#    z 0.000000 0.000000 1.969630 
# 
# From -- ./inp_files/7767.got.cif
#   From: 2010.05.17/outbox.cif.g08.bks.cpg/sg24_4_cif.got.tgz:7767.got - 2010.06.04 00:33:39.
