data_PCOD9333132
_publ_section_title
;
Structure prediction by ZEFSAII (Michael W. Deem and Ramdas Pophale) SiO2 
 PCOD9333132
Probable space group: I 21 21 21
;
_chemical_formula_sum "Si O2"
_cell_formula_units_Z 44
_cell_length_a 14.751038
_cell_length_b 24.540937
_cell_length_c 5.204610
_cell_angle_alpha 90.000000
_cell_angle_beta 90.000000
_cell_angle_gamma 90.000000
_cell_volume 1884.091170
_symmetry_space_group_name_H-M "I 21 21 21"
_symmetry_group_IT_number 24
_symmetry_cell_setting 'orthorhombic'
loop_
_space_group_symop_operation_xyz
x,y,z
-x,1/2-y,z
x,-y,1/2-z
1/2-x,y,-z
1/2+x,1/2+y,1/2+z
1/2-x,-y,1/2+z
1/2+x,1/2-y,-z
-x,1/2+y,1/2-z
loop_
_atom_site_type_symbol
_atom_site_label
_atom_site_fract_x
_atom_site_fract_y
_atom_site_fract_z
Si Si1 0.151088 0.119681 0.773499
Si Si2 0.042474 0.859338 0.228797
Si Si3 0.691172 0.000000 0.250000
Si Si4 0.303100 0.757785 0.249505
Si Si5 0.878354 0.500000 0.750000
Si Si6 0.000000 0.750000 0.525815
Si Si7 0.048906 0.543963 0.446708
O O1 0.205343 0.175806 0.738859
O O2 0.070613 0.131114 0.565020
O O3 0.176909 0.056540 0.714174
O O4 0.121965 0.122110 0.072285
O O5 0.018704 0.800068 0.333216
O O6 0.962962 0.899780 0.304656
O O7 0.750000 0.011377 0.500000
O O8 0.619712 0.952305 0.322227
O O9 0.250000 0.738699 0.500000
O O10 0.409506 0.744700 0.297615
O O11 0.250000 0.736917 0.000000
O O12 0.952028 0.518704 0.535600
O O13 0.084849 0.500000 0.250000
#
# Coordination Sequence:
#
# PCOD9333132 Si02
#       7
#     8   8   4   8   4   4   8
#     4  10  20  36  61  93 129 166 211 270 329 403
#     4  10  21  36  62  95 120 165 220 272 337 395
#     4  11  22  34  52  78 120 171 204 256 348 423
#     4  11  24  43  67  97 133 178 231 287 345 406
#     4   9  18  32  58  92 120 159 206 260 328 393
#     4  10  24  46  70  96 136 186 232 288 350 416
#     4  10  18  34  58  86 117 149 213 277 319 395
#
# _framework density 23.353434
#
# number of rings (size 3 to 8) (size 9 to 14) (size 15 to 20)
#    0.000    1.818    2.727    2.182    0.000    6.545 
#    0.000    2.727    0.000    0.000    0.000    0.000 
#    0.000    0.000    0.000    0.000    0.000    0.000 
#
# Total GULP energy -122578.349244 kJ/mol
# GULP energy per Si atom -5571.743147 kJ/mol
# Density = 2.330028 g / cm^3
# Si number density = 23.353434 Si / 1000 Ang^3
#
#
#
# Elastic Constant Matrix: (Units=GPa)
#
#
# Indices 1 2 3 4 5 6 
#
# 1 94.4206 -16.0645 50.8058 -0.0004 -0.0001 -0.0021
# 2 -16.0645 69.9616 -14.1550 0.0028 0.0004 -0.0046
# 3 50.8058 -14.1550 97.1072 0.0251 0.0166 -0.0723
# 4 -0.0004 0.0028 0.0251 12.6332 0.0020 -0.0030
# 5 -0.0001 0.0004 0.0166 0.0020 62.2750 -0.0195
# 6 -0.0021 -0.0046 -0.0723 -0.0030 -0.0195 -36.0600
#
#
#
# Elastic Compliance Matrix: (Units=1/GPa)
#
#
# Indices 1 2 3 4 5 6 
#
# 1 0.014985 0.001911 -0.007561 0.000015 0.000002 0.000014
# 2 0.001911 0.014972 0.001183 -0.000006 0.000000 -0.000004
# 3 -0.007561 0.001183 0.014426 -0.000029 -0.000004 -0.000029
# 4 0.000015 -0.000006 -0.000029 0.079157 -0.000003 -0.000007
# 5 0.000002 0.000000 -0.000004 -0.000003 0.016058 -0.000009
# 6 0.000014 -0.000004 -0.000029 -0.000007 -0.000009 -0.027731
#
#
# Mechanical properties :
#
#
# Convention : Reuss Voigt Hill
#
# Bulk Modulus (GPa) = 28.21122 33.62912 30.92017
# Shear Modulus (GPa) = 37.70263 23.82984 30.76623
#
# Velocity S-wave (km/s) = 4.02236 3.19783 3.63356
# Velocity P-wave (km/s) = 5.80335 5.29775 5.55631
#
# Compressibility (1/GPa) = 0.03544689
#
# Stress axis : x y z
#
# Youngs Moduli (GPa) = 66.73521 66.79309 69.31803
#
# Poissons Ratio (x) = -0.12764 0.52413
# Poissons Ratio (y) = -0.12752 -0.08197
# Poissons Ratio (z) = 0.50460 -0.07899
#
# Static dielectric constant tensor:
#      x y z
#    x 1.971030 0.000000 0.000010 
#    y 0.000000 1.884430 0.000000 
#    z 0.000010 0.000000 1.955810 
# 
# From -- ./inp_files/3715.got.cif
#   From: 2010.05.17/outbox.cif.g08.bks.cpg/sg24_2_cif.got.tgz:3715.got - 2010.06.04 00:33:39.
