data_PCOD9333192
_publ_section_title
;
Structure prediction by ZEFSAII (Michael W. Deem and Ramdas Pophale) SiO2 
 PCOD9333192
Probable space group: I 21 21 21
;
_chemical_formula_sum "Si O2"
_cell_formula_units_Z 48
_cell_length_a 15.242462
_cell_length_b 8.636731
_cell_length_c 17.596547
_cell_angle_alpha 90.000000
_cell_angle_beta 90.000000
_cell_angle_gamma 90.000000
_cell_volume 2316.498205
_symmetry_space_group_name_H-M "I 21 21 21"
_symmetry_group_IT_number 24
_symmetry_cell_setting 'orthorhombic'
loop_
_space_group_symop_operation_xyz
x,y,z
-x,1/2-y,z
x,-y,1/2-z
1/2-x,y,-z
1/2+x,1/2+y,1/2+z
1/2-x,-y,1/2+z
1/2+x,1/2-y,-z
-x,1/2+y,1/2-z
loop_
_atom_site_type_symbol
_atom_site_label
_atom_site_fract_x
_atom_site_fract_y
_atom_site_fract_z
Si Si1 0.595144 0.000000 0.250000
Si Si2 0.396479 0.284354 0.122514
Si Si3 0.659191 0.531260 0.589867
Si Si4 0.500000 0.750000 0.149952
Si Si5 0.486508 0.434355 0.667997
Si Si6 0.348827 0.947741 0.083400
Si Si7 0.593913 0.158274 0.948982
O O1 0.642210 0.108659 0.188660
O O2 0.534507 0.110482 0.299765
O O3 0.500000 0.250000 0.134163
O O4 0.361023 0.111401 0.125007
O O5 0.386954 0.361259 0.038754
O O6 0.583847 0.497804 0.649507
O O7 0.745783 0.426823 0.598725
O O8 0.630909 0.486126 0.504339
O O9 0.665402 0.719295 0.583902
O O10 0.416163 0.815765 0.105800
O O11 0.500000 0.250000 0.667044
O O12 0.458451 0.500000 0.750000
O O13 0.423280 0.507029 0.602375
O O14 0.500000 0.250000 0.945934
#
# Coordination Sequence:
#
# PCOD9333192 Si02
#       7
#     4   8   8   4   8   8   8
#     4  12  22  34  54  84 124 156 216 246 296 364
#     4  10  18  36  55  84 112 161 204 253 303 359
#     4   9  20  40  62  93 117 163 207 260 310 369
#     4  12  22  36  60  90 122 170 206 254 310 374
#     4  11  22  38  65  93 125 161 205 256 315 380
#     4  10  21  38  65  87 124 160 215 252 312 371
#     4   8  17  35  63  84 115 155 206 252 305 374
#
# _framework density 20.720929999999999
#
# number of rings (size 3 to 8) (size 9 to 14) (size 15 to 20)
#    0.000    2.000    2.500    2.500    1.167    0.000 
#    4.500    1.667    3.667    4.000    0.000    0.000 
#    0.000    0.000    0.000    0.000    0.000    0.000 
#
# Total GULP energy -133727.280297 kJ/mol
# GULP energy per Si atom -5571.970012 kJ/mol
# Density = 2.067377 g / cm^3
# Si number density = 20.720930 Si / 1000 Ang^3
#
#
#
# Elastic Constant Matrix: (Units=GPa)
#
#
# Indices 1 2 3 4 5 6 
#
# 1 46.3812 19.7502 14.7901 0.0000 0.0000 0.0000
# 2 19.7502 113.8844 55.2866 0.0000 0.0000 0.0000
# 3 14.7901 55.2866 78.8195 0.0000 0.0000 0.0000
# 4 0.0000 0.0000 0.0000 1.9416 0.0000 0.0000
# 5 0.0000 0.0000 0.0000 0.0000 -171.1921 0.0000
# 6 0.0000 0.0000 0.0000 0.0000 0.0000 29.0192
#
#
#
# Elastic Compliance Matrix: (Units=1/GPa)
#
#
# Indices 1 2 3 4 5 6 
#
# 1 0.023565 -0.002942 -0.002358 0.000000 0.000000 0.000000
# 2 -0.002942 0.013682 -0.009045 0.000000 0.000000 0.000000
# 3 -0.002358 -0.009045 0.019474 0.000000 0.000000 0.000000
# 4 0.000000 0.000000 0.000000 0.515052 0.000000 0.000000
# 5 0.000000 0.000000 0.000000 0.000000 -0.005841 0.000000
# 6 0.000000 0.000000 0.000000 0.000000 0.000000 0.034460
#
#
# Mechanical properties :
#
#
# Convention : Reuss Voigt Hill
#
# Bulk Modulus (GPa) = 35.67479 46.52654 41.10066
# Shear Modulus (GPa) = 7.83176 -18.09571 -5.13197
#
# Velocity S-wave (km/s) = 1.94624 -2.95838 -1.57546
# Velocity P-wave (km/s) = 4.72278 3.29139 4.07050
#
# Compressibility (1/GPa) = 0.02803100
#
# Stress axis : x y z
#
# Youngs Moduli (GPa) = 42.43541 73.08857 51.34998
#
# Poissons Ratio (x) = 0.21502 0.12110
# Poissons Ratio (y) = 0.12484 0.46446
# Poissons Ratio (z) = 0.10008 0.66109
#
# Static dielectric constant tensor:
#      x y z
#    x 1.891220 0.000000 0.000000 
#    y 0.000000 1.861100 0.000000 
#    z 0.000000 0.000000 1.773080 
# 
# From -- ./inp_files/31109.got.cif
#   From: 2010.05.17/outbox.cif.g08.bks.cpg/sg24_16_cif.got.tgz:31109.got - 2010.06.04 00:33:39.
