data_PCOD9333578
_publ_section_title
;
Structure prediction by ZEFSAII (Michael W. Deem and Ramdas Pophale) SiO2 
 PCOD9333578
Probable space group: I 21 21 21
;
_chemical_formula_sum "Si O2"
_cell_formula_units_Z 48
_cell_length_a 8.099773
_cell_length_b 15.405057
_cell_length_c 18.903025
_cell_angle_alpha 90.000000
_cell_angle_beta 90.000000
_cell_angle_gamma 90.000000
_cell_volume 2358.671536
_symmetry_space_group_name_H-M "I 21 21 21"
_symmetry_group_IT_number 24
_symmetry_cell_setting 'orthorhombic'
loop_
_space_group_symop_operation_xyz
x,y,z
-x,1/2-y,z
x,-y,1/2-z
1/2-x,y,-z
1/2+x,1/2+y,1/2+z
1/2-x,-y,1/2+z
1/2+x,1/2-y,-z
-x,1/2+y,1/2-z
loop_
_atom_site_type_symbol
_atom_site_label
_atom_site_fract_x
_atom_site_fract_y
_atom_site_fract_z
Si Si1 0.828289 0.366042 0.355569
Si Si2 0.688479 0.947553 0.845621
Si Si3 0.750000 0.112207 0.500000
Si Si4 0.183493 0.789375 0.295063
Si Si5 0.189115 0.963301 0.671999
Si Si6 0.000000 0.250000 0.466173
Si Si7 0.833346 0.887716 0.706397
O O1 0.768486 0.317709 0.284979
O O2 0.721011 0.451164 0.374782
O O3 0.010384 0.403814 0.337182
O O4 0.862781 0.296009 0.416253
O O5 0.813198 0.899024 0.791368
O O6 0.692437 0.047557 0.822585
O O7 0.733372 0.939617 0.927514
O O8 0.590844 0.174232 0.492797
O O9 0.203738 0.876875 0.340620
O O10 0.302448 0.710340 0.315539
O O11 0.000000 0.750000 0.294399
O O12 0.003035 0.928258 0.678397
O O13 0.233644 0.000000 0.750000
#
# Coordination Sequence:
#
# PCOD9333578 Si02
#       7
#     8   8   4   8   8   4   8
#     4  10  19  35  53  79 114 155 187 232 281 358
#     4  10  20  36  55  77 118 149 193 233 287 343
#     4  10  22  38  54  84 112 160 192 232 282 350
#     4  11  18  30  51  79 112 149 184 232 286 348
#     4  10  21  31  49  80 117 142 183 239 298 336
#     4  10  20  38  56  80 114 158 198 230 280 356
#     4  11  20  35  52  85 114 147 190 249 297 339
#
# _framework density 20.350439999999999
#
# number of rings (size 3 to 8) (size 9 to 14) (size 15 to 20)
#    0.000    1.667    4.167    2.500    4.667    1.333 
#    3.000    0.000    0.000    0.000    0.000   12.833 
#    0.000    0.000    0.000    0.000    0.000    0.000 
#
# Total GULP energy -133936.952520 kJ/mol
# GULP energy per Si atom -5580.706355 kJ/mol
# Density = 2.030412 g / cm^3
# Si number density = 20.350440 Si / 1000 Ang^3
#
#
#
# Elastic Constant Matrix: (Units=GPa)
#
#
# Indices 1 2 3 4 5 6 
#
# 1 56.1891 26.9942 3.5460 0.0000 0.0000 0.0000
# 2 26.9942 141.0148 16.8293 0.0000 0.0000 0.0000
# 3 3.5460 16.8293 53.0125 0.0000 0.0000 0.0000
# 4 0.0000 0.0000 0.0000 10.2161 0.0000 0.0000
# 5 0.0000 0.0000 0.0000 0.0000 10.0094 0.0000
# 6 0.0000 0.0000 0.0000 0.0000 0.0000 41.1105
#
#
#
# Elastic Compliance Matrix: (Units=1/GPa)
#
#
# Indices 1 2 3 4 5 6 
#
# 1 0.019600 -0.003737 -0.000125 0.000000 0.000000 0.000000
# 2 -0.003737 0.008083 -0.002316 0.000000 0.000000 0.000000
# 3 -0.000125 -0.002316 0.019607 0.000000 0.000000 0.000000
# 4 0.000000 0.000000 0.000000 0.097885 0.000000 0.000000
# 5 0.000000 0.000000 0.000000 0.000000 0.099906 0.000000
# 6 0.000000 0.000000 0.000000 0.000000 0.000000 0.024325
#
#
# Mechanical properties :
#
#
# Convention : Reuss Voigt Hill
#
# Bulk Modulus (GPa) = 28.62479 38.32836 33.47658
# Shear Modulus (GPa) = 17.04117 25.79032 21.41574
#
# Velocity S-wave (km/s) = 2.89690 3.56379 3.24751
# Velocity P-wave (km/s) = 5.02850 5.98408 5.52698
#
# Compressibility (1/GPa) = 0.03493475
#
# Stress axis : x y z
#
# Youngs Moduli (GPa) = 51.01962 123.71236 51.00193
#
# Poissons Ratio (x) = 0.46233 0.00636
# Poissons Ratio (y) = 0.19067 0.11813
# Poissons Ratio (z) = 0.00636 0.28653
#
# Static dielectric constant tensor:
#      x y z
#    x 1.797650 0.000000 0.000000 
#    y 0.000000 1.776830 0.000000 
#    z 0.000000 0.000000 1.698950 
# 
# From -- ./inp_files/32731.got.cif
#   From: 2010.05.17/outbox.cif.g08.bks.cpg/sg24_17_cif.got.tgz:32731.got - 2010.06.04 00:33:39.
