data_PCOD9333423
_publ_section_title
;
Structure prediction by ZEFSAII (Michael W. Deem and Ramdas Pophale) SiO2 
 PCOD9333423
Probable space group: I 21 21 21
;
_chemical_formula_sum "Si O2"
_cell_formula_units_Z 52
_cell_length_a 18.765217
_cell_length_b 24.028850
_cell_length_c 6.204398
_cell_angle_alpha 90.000000
_cell_angle_beta 90.000000
_cell_angle_gamma 90.000000
_cell_volume 2797.603911
_symmetry_space_group_name_H-M "I 21 21 21"
_symmetry_group_IT_number 24
_symmetry_cell_setting 'orthorhombic'
loop_
_space_group_symop_operation_xyz
x,y,z
-x,1/2-y,z
x,-y,1/2-z
1/2-x,y,-z
1/2+x,1/2+y,1/2+z
1/2-x,-y,1/2+z
1/2+x,1/2-y,-z
-x,1/2+y,1/2-z
loop_
_atom_site_type_symbol
_atom_site_label
_atom_site_fract_x
_atom_site_fract_y
_atom_site_fract_z
Si Si1 0.363825 0.284998 0.823767
Si Si2 0.319982 0.180791 0.118618
Si Si3 0.590263 0.895205 0.481326
Si Si4 0.000000 0.250000 0.444291
Si Si5 0.750000 0.748759 0.000000
Si Si6 0.499002 0.447978 0.629821
Si Si7 0.903250 0.000000 0.750000
Si Si8 0.544266 0.639976 0.187348
O O1 0.364709 0.340922 0.962340
O O2 0.439326 0.276819 0.705645
O O3 0.303147 0.285112 0.642748
O O4 0.348691 0.231043 0.969416
O O5 0.294330 0.209322 0.339935
O O6 0.384704 0.139930 0.170219
O O7 0.250000 0.157134 0.000000
O O8 0.553761 0.918158 0.700392
O O9 0.631352 0.945541 0.359905
O O10 0.524531 0.876032 0.329343
O O11 0.032807 0.201642 0.592294
O O12 0.535524 0.500000 0.750000
O O13 0.452168 0.475801 0.441075
O O14 0.547487 0.402494 0.512972
#
# Coordination Sequence:
#
# PCOD9333423 Si02
#       8
#     8   8   8   4   4   8   4   8
#     4  11  21  34  52  80 117 155 188 238 282 353
#     4  10  22  36  51  74 120 154 193 224 276 352
#     4  10  19  32  54  81 116 142 185 236 297 334
#     4  12  20  32  54  86 118 148 188 236 294 348
#     4  10  22  38  50  72 122 154 194 220 274 346
#     4   9  18  33  51  80 117 139 180 237 295 338
#     4   8  18  32  50  78 118 134 178 236 292 342
#     4  11  20  32  52  82 117 150 188 241 290 340
#
# _framework density 18.587333999999998
#
# number of rings (size 3 to 8) (size 9 to 14) (size 15 to 20)
#    0.000    1.846    3.077    1.846    0.000    0.000 
#    0.000    0.000    0.000    0.000    0.000    0.000 
#  357.692    0.000    0.000    0.000    0.000    0.000 
#
# Total GULP energy -145040.073377 kJ/mol
# GULP energy per Si atom -5578.464361 kJ/mol
# Density = 1.854503 g / cm^3
# Si number density = 18.587334 Si / 1000 Ang^3
#
#
#
# Elastic Constant Matrix: (Units=GPa)
#
#
# Indices 1 2 3 4 5 6 
#
# 1 36.6571 -1.8563 7.8046 0.0000 0.0000 0.0000
# 2 -1.8563 65.6352 15.7885 0.0000 0.0000 0.0000
# 3 7.8046 15.7885 77.7158 0.0000 0.0000 0.0000
# 4 0.0000 0.0000 0.0000 31.3919 0.0000 0.0000
# 5 0.0000 0.0000 0.0000 0.0000 19.9695 0.0000
# 6 0.0000 0.0000 0.0000 0.0000 0.0000 5.8211
#
#
#
# Elastic Compliance Matrix: (Units=1/GPa)
#
#
# Indices 1 2 3 4 5 6 
#
# 1 0.028024 0.001545 -0.003128 0.000000 0.000000 0.000000
# 2 0.001545 0.016104 -0.003427 0.000000 0.000000 0.000000
# 3 -0.003128 -0.003427 0.013878 0.000000 0.000000 0.000000
# 4 0.000000 0.000000 0.000000 0.031855 0.000000 0.000000
# 5 0.000000 0.000000 0.000000 0.000000 0.050076 0.000000
# 6 0.000000 0.000000 0.000000 0.000000 0.000000 0.171789
#
#
# Mechanical properties :
#
#
# Convention : Reuss Voigt Hill
#
# Bulk Modulus (GPa) = 20.83951 24.83130 22.83540
# Shear Modulus (GPa) = 14.80426 21.98794 18.39610
#
# Velocity S-wave (km/s) = 2.82524 3.44314 3.14938
# Velocity P-wave (km/s) = 4.67746 5.40326 5.05341
#
# Compressibility (1/GPa) = 0.04798577
#
# Stress axis : x y z
#
# Youngs Moduli (GPa) = 35.68357 62.09745 72.05802
#
# Poissons Ratio (x) = -0.09594 0.22541
# Poissons Ratio (y) = -0.05513 0.24692
# Poissons Ratio (z) = 0.11162 0.21279
#
# Static dielectric constant tensor:
#      x y z
#    x 1.634950 0.000000 0.000000 
#    y 0.000000 1.666710 0.000000 
#    z 0.000000 0.000000 1.666540 
# 
# From -- ./inp_files/5728.got.cif
#   From: 2010.05.17/outbox.cif.g08.bks.cpg/sg24_3_cif.got.tgz:5728.got - 2010.06.04 00:33:39.
