data_PCOD9333747
_publ_section_title
;
Structure prediction by ZEFSAII (Michael W. Deem and Ramdas Pophale) SiO2 
 PCOD9333747
Probable space group: I 21 21 21
;
_chemical_formula_sum "Si O2"
_cell_formula_units_Z 40
_cell_length_a 9.951676
_cell_length_b 18.729544
_cell_length_c 9.009389
_cell_angle_alpha 90.000000
_cell_angle_beta 90.000000
_cell_angle_gamma 90.000000
_cell_volume 1679.263201
_symmetry_space_group_name_H-M "I 21 21 21"
_symmetry_group_IT_number 24
_symmetry_cell_setting 'orthorhombic'
loop_
_space_group_symop_operation_xyz
x,y,z
-x,1/2-y,z
x,-y,1/2-z
1/2-x,y,-z
1/2+x,1/2+y,1/2+z
1/2-x,-y,1/2+z
1/2+x,1/2-y,-z
-x,1/2+y,1/2-z
loop_
_atom_site_type_symbol
_atom_site_label
_atom_site_fract_x
_atom_site_fract_y
_atom_site_fract_z
Si Si1 0.246474 0.348430 0.178597
Si Si2 0.602849 0.483518 0.425058
Si Si3 0.500013 0.069479 0.830488
Si Si4 0.787039 0.691757 0.326323
Si Si5 0.518612 0.669015 0.137235
O O1 0.176413 0.272588 0.213914
O O2 0.389240 0.344705 0.258585
O O3 0.148261 0.411614 0.224136
O O4 0.250000 0.351563 0.000000
O O5 0.611114 0.500000 0.250000
O O6 0.750000 0.488674 0.500000
O O7 0.989887 0.544658 0.501397
O O8 0.542156 0.404098 0.453791
O O9 0.403325 0.135492 0.803337
O O10 0.446804 0.000000 0.750000
O O11 0.750000 0.690221 0.500000
O O12 0.654040 0.673440 0.234476
O O13 0.500000 0.750000 0.071399
#
# Coordination Sequence:
#
# PCOD9333747 Si02
#       5
#     8   8   8   8   8
#     4  10  21  38  63  93 126 165 212 267 319 370
#     4  12  24  42  69  97 128 168 217 268 316 376
#     4  12  25  40  62  96 133 168 208 259 320 382
#     4  10  19  37  64  90 119 162 219 270 309 361
#     4  10  22  41  63  90 126 169 212 258 317 381
#
# _framework density 23.819970000000001
#
# number of rings (size 3 to 8) (size 9 to 14) (size 15 to 20)
#    0.000    1.200    0.000    7.800    0.000    5.600 
#    0.000    6.000    0.000    0.000    0.000    0.000 
#    0.000    0.000    0.000    0.000    0.000    0.000 
#
# Total GULP energy -111905.926971 kJ/mol
# GULP energy per Si atom -5595.296349 kJ/mol
# Density = 2.376575 g / cm^3
# Si number density = 23.819970 Si / 1000 Ang^3
#
#
#
# Elastic Constant Matrix: (Units=GPa)
#
#
# Indices 1 2 3 4 5 6 
#
# 1 93.1777 52.1769 13.7440 0.0000 0.0000 0.0000
# 2 52.1769 143.1564 6.4638 0.0000 0.0000 0.0004
# 3 13.7440 6.4638 52.8806 0.0001 0.0000 0.0010
# 4 0.0000 0.0000 0.0001 1.9966 0.0000 0.0001
# 5 0.0000 0.0000 0.0000 0.0000 16.8259 0.0000
# 6 0.0000 0.0004 0.0010 0.0001 0.0000 116.7366
#
#
#
# Elastic Compliance Matrix: (Units=1/GPa)
#
#
# Indices 1 2 3 4 5 6 
#
# 1 0.013948 -0.004947 -0.003020 0.000000 0.000000 0.000000
# 2 -0.004947 0.008779 0.000213 0.000000 0.000000 0.000000
# 3 -0.003020 0.000213 0.019670 -0.000001 0.000000 0.000000
# 4 0.000000 0.000000 -0.000001 0.500863 0.000000 0.000000
# 5 0.000000 0.000000 0.000000 0.000000 0.059432 0.000000
# 6 0.000000 0.000000 0.000000 0.000000 0.000000 0.008566
#
#
# Mechanical properties :
#
#
# Convention : Reuss Voigt Hill
#
# Bulk Modulus (GPa) = 37.19339 48.22045 42.70692
# Shear Modulus (GPa) = 7.86498 41.56715 24.71606
#
# Velocity S-wave (km/s) = 1.81907 4.18192 3.22470
# Velocity P-wave (km/s) = 4.47887 6.60345 5.64207
#
# Compressibility (1/GPa) = 0.02688650
#
# Stress axis : x y z
#
# Youngs Moduli (GPa) = 71.69449 113.90901 50.83999
#
# Poissons Ratio (x) = 0.56355 0.15356
# Poissons Ratio (y) = 0.35470 -0.01082
# Poissons Ratio (z) = 0.21655 -0.02423
#
# Static dielectric constant tensor:
#      x y z
#    x 1.846450 0.000000 0.000000 
#    y 0.000000 1.926500 0.000000 
#    z 0.000000 0.000000 1.997350 
# 
# From -- ./inp_files/18225.got.cif
#   From: 2010.05.17/outbox.cif.g08.bks.cpg/sg24_10_cif.got.tgz:18225.got - 2010.06.04 00:33:39.
