data_PCOD9333696
_publ_section_title
;
Structure prediction by ZEFSAII (Michael W. Deem and Ramdas Pophale) SiO2 
 PCOD9333696
Probable space group: I 21 21 21
;
_chemical_formula_sum "Si O2"
_cell_formula_units_Z 44
_cell_length_a 14.842679
_cell_length_b 13.724364
_cell_length_c 9.121659
_cell_angle_alpha 90.000000
_cell_angle_beta 90.000000
_cell_angle_gamma 90.000000
_cell_volume 1858.139672
_symmetry_space_group_name_H-M "I 21 21 21"
_symmetry_group_IT_number 24
_symmetry_cell_setting 'orthorhombic'
loop_
_space_group_symop_operation_xyz
x,y,z
-x,1/2-y,z
x,-y,1/2-z
1/2-x,y,-z
1/2+x,1/2+y,1/2+z
1/2-x,-y,1/2+z
1/2+x,1/2-y,-z
-x,1/2+y,1/2-z
loop_
_atom_site_type_symbol
_atom_site_label
_atom_site_fract_x
_atom_site_fract_y
_atom_site_fract_z
Si Si1 0.250000 0.117921 0.500000
Si Si2 0.330141 0.270828 0.321938
Si Si3 0.699110 0.112505 0.860796
Si Si4 0.080119 0.000142 0.077098
Si Si5 0.563213 0.842437 0.892828
Si Si6 0.353770 0.191283 0.024887
O O1 0.253069 0.191608 0.363383
O O2 0.162667 0.052387 0.502861
O O3 0.282889 0.361307 0.244587
O O4 0.381082 0.299783 0.469023
O O5 0.380550 0.215815 0.191338
O O6 0.622170 0.104597 0.733987
O O7 0.656821 0.207069 0.941494
O O8 0.750000 0.058047 0.000000
O O9 0.996437 0.931205 0.047192
O O10 0.098509 0.000000 0.250000
O O11 0.077256 0.112092 0.032959
O O12 0.500000 0.750000 0.843471
O O13 0.250000 0.151620 0.000000
#
# Coordination Sequence:
#
# PCOD9333696 Si02
#       6
#     4   8   8   8   8   8
#     4  12  20  34  62  86 130 162 210 250 324 386
#     4  10  19  36  62  94 124 173 218 262 317 390
#     4   9  19  39  68  91 122 172 224 270 318 380
#     4  12  24  37  61  95 135 171 204 263 333 394
#     4  12  21  37  60  95 135 168 216 264 327 394
#     4   9  19  37  61  94 129 166 212 266 325 392
#
# _framework density 23.679599
#
# number of rings (size 3 to 8) (size 9 to 14) (size 15 to 20)
#    0.000    1.818    4.545    3.273    0.000    0.000 
#    0.000    7.273    0.000    2.182    0.000    0.000 
#    0.000    0.000    0.000    0.000    0.000    0.000 
#
# Total GULP energy -122541.307024 kJ/mol
# GULP energy per Si atom -5570.059410 kJ/mol
# Density = 2.362570 g / cm^3
# Si number density = 23.679599 Si / 1000 Ang^3
#
#
#
# Elastic Constant Matrix: (Units=GPa)
#
#
# Indices 1 2 3 4 5 6 
#
# 1 82.5638 19.4928 41.4410 0.0000 0.0000 0.0000
# 2 19.4928 54.1686 42.8086 0.0000 0.0000 0.0000
# 3 41.4410 42.8086 130.5671 0.0000 0.0000 0.0000
# 4 0.0000 0.0000 0.0000 18.2011 0.0000 0.0000
# 5 0.0000 0.0000 0.0000 0.0000 16.3009 0.0000
# 6 0.0000 0.0000 0.0000 0.0000 0.0000 5.5273
#
#
#
# Elastic Compliance Matrix: (Units=1/GPa)
#
#
# Indices 1 2 3 4 5 6 
#
# 1 0.014590 -0.002147 -0.003927 0.000000 0.000000 0.000000
# 2 -0.002147 0.025233 -0.007592 0.000000 0.000000 0.000000
# 3 -0.003927 -0.007592 0.011394 0.000000 0.000000 0.000000
# 4 0.000000 0.000000 0.000000 0.054942 0.000000 0.000000
# 5 0.000000 0.000000 0.000000 0.000000 0.061346 0.000000
# 6 0.000000 0.000000 0.000000 0.000000 0.000000 0.180919
#
#
# Mechanical properties :
#
#
# Convention : Reuss Voigt Hill
#
# Bulk Modulus (GPa) = 41.86497 52.75382 47.30940
# Shear Modulus (GPa) = 13.03045 18.90967 15.97006
#
# Velocity S-wave (km/s) = 2.34835 2.82895 2.59978
# Velocity P-wave (km/s) = 5.00711 5.74432 5.38834
#
# Compressibility (1/GPa) = 0.02388632
#
# Stress axis : x y z
#
# Youngs Moduli (GPa) = 68.54169 39.63063 87.76341
#
# Poissons Ratio (x) = 0.08508 0.34462
# Poissons Ratio (y) = 0.14715 0.66627
# Poissons Ratio (z) = 0.26915 0.30086
#
# Static dielectric constant tensor:
#      x y z
#    x 2.011580 0.000000 0.000000 
#    y 0.000000 1.965570 0.000000 
#    z 0.000000 0.000000 1.924410 
# 
# From -- ./inp_files/12637.got.cif
#   From: 2010.05.17/outbox.cif.g08.bks.cpg/sg24_7_cif.got.tgz:12637.got - 2010.06.04 00:33:39.
