data_PCOD9333487
_publ_section_title
;
Structure prediction by ZEFSAII (Michael W. Deem and Ramdas Pophale) SiO2 
 PCOD9333487
Probable space group: I 21 21 21
;
_chemical_formula_sum "Si O2"
_cell_formula_units_Z 60
_cell_length_a 18.223263
_cell_length_b 9.221220
_cell_length_c 18.069160
_cell_angle_alpha 90.000000
_cell_angle_beta 90.000000
_cell_angle_gamma 90.000000
_cell_volume 3036.354606
_symmetry_space_group_name_H-M "I 21 21 21"
_symmetry_group_IT_number 24
_symmetry_cell_setting 'orthorhombic'
loop_
_space_group_symop_operation_xyz
x,y,z
-x,1/2-y,z
x,-y,1/2-z
1/2-x,y,-z
1/2+x,1/2+y,1/2+z
1/2-x,-y,1/2+z
1/2+x,1/2-y,-z
-x,1/2+y,1/2-z
loop_
_atom_site_type_symbol
_atom_site_label
_atom_site_fract_x
_atom_site_fract_y
_atom_site_fract_z
Si Si1 0.381779 0.883190 0.038493
Si Si2 0.159175 0.026812 0.103704
Si Si3 0.327970 0.566809 0.037133
Si Si4 0.495593 0.494079 0.662615
Si Si5 0.870715 0.144486 0.092966
Si Si6 0.723213 0.100117 0.178297
Si Si7 0.315920 0.062911 0.171259
Si Si8 0.500000 0.250000 0.558447
O O1 0.364986 0.717621 0.058333
O O2 0.365978 0.995316 0.104944
O O3 0.460130 0.863580 0.996707
O O4 0.332689 0.927712 0.968120
O O5 0.149131 0.190529 0.073653
O O6 0.232084 0.014371 0.152335
O O7 0.082871 0.992493 0.145785
O O8 0.316435 0.476593 0.110507
O O9 0.250000 0.602347 0.000000
O O10 0.365056 0.461268 0.977127
O O11 0.484902 0.500000 0.750000
O O12 0.450126 0.625733 0.628149
O O13 0.460705 0.355411 0.618596
O O14 0.808962 0.105261 0.154184
O O15 0.691410 0.263394 0.180537
O O16 0.714717 0.000000 0.250000
O O17 0.339583 0.000000 0.250000
#
# Coordination Sequence:
#
# PCOD9333487 Si02
#       8
#     8   8   8   8   8   8   8   4
#     4  11  21  40  61  86 121 162 206 260 312 377
#     4  10  22  36  57  87 121 164 209 251 304 381
#     4  10  19  33  57  81 110 150 200 248 303 368
#     4  11  22  37  56  86 127 169 205 253 302 374
#     4  10  20  36  54  82 118 167 204 242 304 370
#     4  10  21  36  55  88 120 153 204 264 318 377
#     4  11  22  38  61  90 122 160 208 266 327 372
#     4  10  24  40  60  92 122 166 220 254 306 388
#
# _framework density 19.760538
#
# number of rings (size 3 to 8) (size 9 to 14) (size 15 to 20)
#    0.000    1.600    1.333    4.000    1.867    3.200 
#    2.400    0.000    0.000    2.400    0.000    0.000 
#    0.000    0.000    0.000    0.000    0.000    0.000 
#
# Total GULP energy -167152.950930 kJ/mol
# GULP energy per Si atom -5571.765031 kJ/mol
# Density = 1.971556 g / cm^3
# Si number density = 19.760538 Si / 1000 Ang^3
#
#
#
# Elastic Constant Matrix: (Units=GPa)
#
#
# Indices 1 2 3 4 5 6 
#
# 1 44.7255 16.4849 33.8266 0.0000 0.0000 0.0000
# 2 16.4849 97.9941 53.5452 0.0000 0.0000 0.0000
# 3 33.8266 53.5452 135.4100 0.0000 0.0000 0.0000
# 4 0.0000 0.0000 0.0000 38.3735 0.0000 0.0000
# 5 0.0000 0.0000 0.0000 0.0000 19.6033 0.0000
# 6 0.0000 0.0000 0.0000 0.0000 0.0000 25.4699
#
#
#
# Elastic Compliance Matrix: (Units=1/GPa)
#
#
# Indices 1 2 3 4 5 6 
#
# 1 0.027663 -0.001119 -0.006468 0.000000 0.000000 0.000000
# 2 -0.001119 0.013063 -0.004886 0.000000 0.000000 0.000000
# 3 -0.006468 -0.004886 0.010933 0.000000 0.000000 0.000000
# 4 0.000000 0.000000 0.000000 0.026060 0.000000 0.000000
# 5 0.000000 0.000000 0.000000 0.000000 0.051012 0.000000
# 6 0.000000 0.000000 0.000000 0.000000 0.000000 0.039262
#
#
# Mechanical properties :
#
#
# Convention : Reuss Voigt Hill
#
# Bulk Modulus (GPa) = 37.43593 53.98256 45.70924
# Shear Modulus (GPa) = 24.77190 28.30754 26.53972
#
# Velocity S-wave (km/s) = 3.54447 3.78898 3.66876
# Velocity P-wave (km/s) = 5.97804 6.82052 6.41313
#
# Compressibility (1/GPa) = 0.02671231
#
# Stress axis : x y z
#
# Youngs Moduli (GPa) = 36.14945 76.55433 91.46921
#
# Poissons Ratio (x) = 0.08570 0.59160
# Poissons Ratio (y) = 0.04047 0.44689
# Poissons Ratio (z) = 0.23381 0.37402
#
# Static dielectric constant tensor:
#      x y z
#    x 1.713490 0.000000 0.000000 
#    y 0.000000 1.734330 0.000000 
#    z 0.000000 0.000000 1.656250 
# 
# From -- ./inp_files/31192.got.cif
#   From: 2010.05.17/outbox.cif.g08.bks.cpg/sg24_16_cif.got.tgz:31192.got - 2010.06.04 00:33:39.
