data_PCOD9333414
_publ_section_title
;
Structure prediction by ZEFSAII (Michael W. Deem and Ramdas Pophale) SiO2 
 PCOD9333414
Probable space group: I 21 21 21
;
_chemical_formula_sum "Si O2"
_cell_formula_units_Z 56
_cell_length_a 23.036899
_cell_length_b 5.461780
_cell_length_c 24.166787
_cell_angle_alpha 90.000000
_cell_angle_beta 90.000000
_cell_angle_gamma 90.000000
_cell_volume 3040.724934
_symmetry_space_group_name_H-M "I 21 21 21"
_symmetry_group_IT_number 24
_symmetry_cell_setting 'orthorhombic'
loop_
_space_group_symop_operation_xyz
x,y,z
-x,1/2-y,z
x,-y,1/2-z
1/2-x,y,-z
1/2+x,1/2+y,1/2+z
1/2-x,-y,1/2+z
1/2+x,1/2-y,-z
-x,1/2+y,1/2-z
loop_
_atom_site_type_symbol
_atom_site_label
_atom_site_fract_x
_atom_site_fract_y
_atom_site_fract_z
Si Si1 0.671410 0.234327 0.054679
Si Si2 0.237446 0.254216 0.351871
Si Si3 0.861957 0.376555 0.175190
Si Si4 0.195999 0.645093 0.427447
Si Si5 0.303010 0.500000 0.750000
Si Si6 0.536991 0.500000 0.750000
Si Si7 0.637749 0.282592 0.389779
Si Si8 0.430240 0.750832 0.220134
O O1 0.739319 0.267917 0.073930
O O2 0.635730 0.479393 0.070361
O O3 0.647045 0.983140 0.081687
O O4 0.674007 0.185690 0.989098
O O5 0.213472 0.370189 0.408908
O O6 0.236618 0.454393 0.303253
O O7 0.302305 0.168068 0.357224
O O8 0.189656 0.069175 0.330747
O O9 0.851821 0.231665 0.117442
O O10 0.923041 0.486280 0.194218
O O11 0.845563 0.205582 0.226671
O O12 0.500000 0.750000 0.751465
O O13 0.588522 0.262494 0.343734
O O14 0.500000 0.750000 0.223676
O O15 0.409375 0.500000 0.250000
O O16 0.409166 0.000000 0.250000
#
# Coordination Sequence:
#
# PCOD9333414 Si02
#       8
#     8   8   8   8   4   4   8   8
#     4  10  21  37  56  91 122 154 192 234 293 349
#     4  10  20  32  56  86 118 157 187 234 302 353
#     4  11  20  38  58  82 114 155 196 242 303 347
#     4   9  21  34  58  83 123 154 192 235 292 362
#     4  10  19  32  52  86 120 147 188 234 298 362
#     4  12  27  42  60  84 114 157 206 250 294 356
#     4  11  22  36  57  90 122 153 192 236 285 344
#     4  10  22  40  61  85 117 158 193 229 280 344
#
# _framework density 18.416661000000001
#
# number of rings (size 3 to 8) (size 9 to 14) (size 15 to 20)
#    0.000    1.714    2.857    1.286    5.000    2.286 
#    0.000    0.000    0.000    2.571    0.000    0.000 
#    0.000    0.000    0.000    0.000    0.000    0.000 
#
# Total GULP energy -155869.071776 kJ/mol
# GULP energy per Si atom -5566.752563 kJ/mol
# Density = 1.837474 g / cm^3
# Si number density = 18.416661 Si / 1000 Ang^3
#
#
#
# Elastic Constant Matrix: (Units=GPa)
#
#
# Indices 1 2 3 4 5 6 
#
# 1 27.9011 18.3853 10.0299 0.0000 0.0000 0.0000
# 2 18.3853 93.5617 29.9689 0.0000 0.0000 0.0000
# 3 10.0299 29.9689 81.4841 0.0000 0.0000 0.0000
# 4 0.0000 0.0000 0.0000 27.9078 0.0000 0.0000
# 5 0.0000 0.0000 0.0000 0.0000 24.4101 0.0000
# 6 0.0000 0.0000 0.0000 0.0000 0.0000 12.6706
#
#
#
# Elastic Compliance Matrix: (Units=1/GPa)
#
#
# Indices 1 2 3 4 5 6 
#
# 1 0.041581 -0.007404 -0.002395 0.000000 0.000000 0.000000
# 2 -0.007404 0.013434 -0.004029 0.000000 0.000000 0.000000
# 3 -0.002395 -0.004029 0.014049 0.000000 0.000000 0.000000
# 4 0.000000 0.000000 0.000000 0.035832 0.000000 0.000000
# 5 0.000000 0.000000 0.000000 0.000000 0.040967 0.000000
# 6 0.000000 0.000000 0.000000 0.000000 0.000000 0.078923
#
#
# Mechanical properties :
#
#
# Convention : Reuss Voigt Hill
#
# Bulk Modulus (GPa) = 24.15055 35.52389 29.83722
# Shear Modulus (GPa) = 18.77976 22.63520 20.70748
#
# Velocity S-wave (km/s) = 3.19676 3.50960 3.35683
# Velocity P-wave (km/s) = 5.17374 5.97946 5.59113
#
# Compressibility (1/GPa) = 0.04140692
#
# Stress axis : x y z
#
# Youngs Moduli (GPa) = 24.04971 74.43995 71.17873
#
# Poissons Ratio (x) = 0.55112 0.17049
# Poissons Ratio (y) = 0.17805 0.28681
# Poissons Ratio (z) = 0.05760 0.29995
#
# Static dielectric constant tensor:
#      x y z
#    x 1.648640 0.000000 0.000000 
#    y 0.000000 1.771330 0.000000 
#    z 0.000000 0.000000 1.656830 
# 
# From -- ./inp_files/34266.got.cif
#   From: 2010.05.17/outbox.cif.g08.bks.cpg/sg24_18_cif.got.tgz:34266.got - 2010.06.04 00:33:39.
