data_PCOD9333989
_publ_section_title
;
Structure prediction by ZEFSAII (Michael W. Deem and Ramdas Pophale) SiO2 
 PCOD9333989
Probable space group: I 21 21 21
;
_chemical_formula_sum "Si O2"
_cell_formula_units_Z 52
_cell_length_a 14.961041
_cell_length_b 7.615733
_cell_length_c 18.811704
_cell_angle_alpha 90.000000
_cell_angle_beta 90.000000
_cell_angle_gamma 90.000000
_cell_volume 2143.392266
_symmetry_space_group_name_H-M "I 21 21 21"
_symmetry_group_IT_number 24
_symmetry_cell_setting 'orthorhombic'
loop_
_space_group_symop_operation_xyz
x,y,z
-x,1/2-y,z
x,-y,1/2-z
1/2-x,y,-z
1/2+x,1/2+y,1/2+z
1/2-x,-y,1/2+z
1/2+x,1/2-y,-z
-x,1/2+y,1/2-z
loop_
_atom_site_type_symbol
_atom_site_label
_atom_site_fract_x
_atom_site_fract_y
_atom_site_fract_z
Si Si1 0.741349 0.100898 0.674630
Si Si2 0.121439 0.872599 0.357009
Si Si3 0.153254 0.987901 0.984495
Si Si4 0.445308 0.527593 0.863097
Si Si5 0.097530 0.799774 0.773223
Si Si6 0.500000 0.250000 0.504843
Si Si7 0.307224 0.257406 0.138370
O O1 0.636840 0.143239 0.666586
O O2 0.769338 0.949463 0.618545
O O3 0.744744 0.000000 0.750000
O O4 0.817700 0.247103 0.678329
O O5 0.087079 0.672571 0.356283
O O6 0.222689 0.853171 0.328423
O O7 0.045043 0.007231 0.330108
O O8 0.130444 0.925958 0.439602
O O9 0.160518 0.141078 0.926741
O O10 0.250000 0.903242 0.000000
O O11 0.078164 0.848634 0.964223
O O12 0.457843 0.604728 0.941863
O O13 0.116669 0.707924 0.696690
O O14 0.000000 0.750000 0.800943
O O15 0.098735 0.000000 0.750000
#
# Coordination Sequence:
#
# PCOD9333989 Si02
#       7
#     8   8   8   8   8   4   8
#     4   9  19  37  62  86 114 157 213 260 312 373
#     4   8  16  33  58  84 117 159 199 244 307 365
#     4   9  18  35  58  84 121 162 200 252 299 372
#     4   9  17  33  56  85 120 159 194 252 311 366
#     4  11  23  41  61  83 118 158 204 262 315 365
#     4  10  20  34  54  88 130 158 196 246 316 372
#     4   9  18  37  60  83 113 156 208 252 310 363
#
# _framework density 24.260607
#
# number of rings (size 3 to 8) (size 9 to 14) (size 15 to 20)
#    0.000    2.769    0.000    1.385    0.000    3.692 
#    6.923   10.769    3.385    0.000    0.000    0.000 
#    0.000    0.000    0.000    0.000    0.000    0.000 
#
# Total GULP energy -144996.460874 kJ/mol
# GULP energy per Si atom -5576.786957 kJ/mol
# Density = 2.420539 g / cm^3
# Si number density = 24.260607 Si / 1000 Ang^3
#
#
#
# Elastic Constant Matrix: (Units=GPa)
#
#
# Indices 1 2 3 4 5 6 
#
# 1 167.2851 78.7305 40.1217 0.0000 0.0000 0.0000
# 2 78.7305 110.0115 9.5934 0.0000 0.0000 0.0000
# 3 40.1217 9.5934 53.9627 0.0000 0.0000 0.0000
# 4 0.0000 0.0000 0.0000 19.5015 0.0000 0.0000
# 5 0.0000 0.0000 0.0000 0.0000 26.9045 0.0000
# 6 0.0000 0.0000 0.0000 0.0000 0.0000 38.3930
#
#
#
# Elastic Compliance Matrix: (Units=1/GPa)
#
#
# Indices 1 2 3 4 5 6 
#
# 1 0.011096 -0.007335 -0.006946 0.000000 0.000000 0.000000
# 2 -0.007335 0.014082 0.002950 0.000000 0.000000 0.000000
# 3 -0.006946 0.002950 0.023171 0.000000 0.000000 0.000000
# 4 0.000000 0.000000 0.000000 0.051278 0.000000 0.000000
# 5 0.000000 0.000000 0.000000 0.000000 0.037169 0.000000
# 6 0.000000 0.000000 0.000000 0.000000 0.000000 0.026046
#
#
# Mechanical properties :
#
#
# Convention : Reuss Voigt Hill
#
# Bulk Modulus (GPa) = 38.92925 65.35004 52.13965
# Shear Modulus (GPa) = 25.76440 30.48071 28.12256
#
# Velocity S-wave (km/s) = 3.26235 3.54840 3.40838
# Velocity P-wave (km/s) = 5.50197 6.61690 6.08502
#
# Compressibility (1/GPa) = 0.02568762
#
# Stress axis : x y z
#
# Youngs Moduli (GPa) = 90.12333 71.01195 43.15718
#
# Poissons Ratio (x) = 0.52088 0.29976
# Poissons Ratio (y) = 0.66107 -0.12732
# Poissons Ratio (z) = 0.62598 -0.20950
#
# Static dielectric constant tensor:
#      x y z
#    x 2.020300 0.000000 0.000000 
#    y 0.000000 2.270330 0.000000 
#    z 0.000000 0.000000 1.946620 
# 
# From -- ./inp_files/33709.got.cif
#   From: 2010.05.17/outbox.cif.g08.bks.cpg/sg24_17_cif.got.tgz:33709.got - 2010.06.04 00:33:39.
