data_PCOD9333587
_publ_section_title
;
Structure prediction by ZEFSAII (Michael W. Deem and Ramdas Pophale) SiO2 
 PCOD9333587
Probable space group: I 21 21 21
;
_chemical_formula_sum "Si O2"
_cell_formula_units_Z 44
_cell_length_a 7.244473
_cell_length_b 20.908791
_cell_length_c 16.511383
_cell_angle_alpha 90.000000
_cell_angle_beta 90.000000
_cell_angle_gamma 90.000000
_cell_volume 2501.031555
_symmetry_space_group_name_H-M "I 21 21 21"
_symmetry_group_IT_number 24
_symmetry_cell_setting 'orthorhombic'
loop_
_space_group_symop_operation_xyz
x,y,z
-x,1/2-y,z
x,-y,1/2-z
1/2-x,y,-z
1/2+x,1/2+y,1/2+z
1/2-x,-y,1/2+z
1/2+x,1/2-y,-z
-x,1/2+y,1/2-z
loop_
_atom_site_type_symbol
_atom_site_label
_atom_site_fract_x
_atom_site_fract_y
_atom_site_fract_z
Si Si1 0.763826 0.050498 0.592864
Si Si2 0.710427 0.765407 0.408799
Si Si3 0.242555 0.593349 0.645255
Si Si4 0.564301 0.426220 0.276322
Si Si5 0.500000 0.250000 0.774228
Si Si6 0.515857 0.612696 0.784643
O O1 0.750000 0.070102 0.500000
O O2 0.588005 0.076618 0.642872
O O3 0.943174 0.075436 0.641736
O O4 0.775339 0.973231 0.598696
O O5 0.500000 0.750000 0.391327
O O6 0.750000 0.741801 0.500000
O O7 0.752796 0.841442 0.404866
O O8 0.834034 0.736249 0.337210
O O9 0.422709 0.586256 0.702179
O O10 0.068390 0.601700 0.706178
O O11 0.589974 0.500000 0.250000
O O12 0.765102 0.396151 0.285376
O O13 0.466760 0.312217 0.720341
#
# Coordination Sequence:
#
# PCOD9333587 Si02
#       6
#     8   8   8   8   4   8
#     4  10  20  34  53  78 108 135 176 230 283 314
#     4  11  20  33  51  77 117 147 173 213 256 314
#     4   9  19  33  53  78 104 145 178 215 262 325
#     4   9  17  32  54  78 103 135 176 217 262 319
#     4  10  22  36  54  78 102 146 186 212 266 334
#     4  10  19  35  56  74 103 138 185 221 265 325
#
# _framework density 17.592742000000001
#
# number of rings (size 3 to 8) (size 9 to 14) (size 15 to 20)
#    0.000    2.182    0.909    4.364    0.000    0.727 
#    0.000    0.000    4.000    0.000    0.000    0.000 
#    0.000    0.000    0.000    0.000    0.000    0.000 
#
# Total GULP energy -122660.954773 kJ/mol
# GULP energy per Si atom -5575.497944 kJ/mol
# Density = 1.755270 g / cm^3
# Si number density = 17.592742 Si / 1000 Ang^3
#
#
#
# Elastic Constant Matrix: (Units=GPa)
#
#
# Indices 1 2 3 4 5 6 
#
# 1 115.5373 -2.8500 29.9383 0.0000 0.0000 0.0000
# 2 -2.8500 34.7698 14.1543 0.0000 0.0000 0.0000
# 3 29.9383 14.1543 85.0790 0.0000 0.0000 0.0000
# 4 0.0000 0.0000 0.0000 5.3863 0.0000 0.0000
# 5 0.0000 0.0000 0.0000 0.0000 2.4046 0.0000
# 6 0.0000 0.0000 0.0000 0.0000 0.0000 15.0166
#
#
#
# Elastic Compliance Matrix: (Units=1/GPa)
#
#
# Indices 1 2 3 4 5 6 
#
# 1 0.009698 0.002343 -0.003803 0.000000 0.000000 0.000000
# 2 0.002343 0.031416 -0.006051 0.000000 0.000000 0.000000
# 3 -0.003803 -0.006051 0.014099 0.000000 0.000000 0.000000
# 4 0.000000 0.000000 0.000000 0.185655 0.000000 0.000000
# 5 0.000000 0.000000 0.000000 0.000000 0.415874 0.000000
# 6 0.000000 0.000000 0.000000 0.000000 0.000000 0.066593
#
#
# Mechanical properties :
#
#
# Convention : Reuss Voigt Hill
#
# Bulk Modulus (GPa) = 24.88088 35.31904 30.09996
# Shear Modulus (GPa) = 6.65112 17.50440 12.07776
#
# Velocity S-wave (km/s) = 1.94649 3.15775 2.62299
# Velocity P-wave (km/s) = 4.38465 5.78054 5.13029
#
# Compressibility (1/GPa) = 0.04019150
#
# Stress axis : x y z
#
# Youngs Moduli (GPa) = 103.11062 31.83104 70.92936
#
# Poissons Ratio (x) = -0.07458 0.26971
# Poissons Ratio (y) = -0.24158 0.42919
# Poissons Ratio (z) = 0.39208 0.19261
#
# Static dielectric constant tensor:
#      x y z
#    x 1.615570 0.000000 0.000000 
#    y 0.000000 1.608590 0.000000 
#    z 0.000000 0.000000 1.585510 
# 
# From -- ./inp_files/6370.got.cif
#   From: 2010.05.17/outbox.cif.g08.bks.cpg/sg24_4_cif.got.tgz:6370.got - 2010.06.04 00:33:39.
