data_PCOD9333969
_publ_section_title
;
Structure prediction by ZEFSAII (Michael W. Deem and Ramdas Pophale) SiO2 
 PCOD9333969
Probable space group: I 21 21 21
;
_chemical_formula_sum "Si O2"
_cell_formula_units_Z 60
_cell_length_a 15.472084
_cell_length_b 25.217339
_cell_length_c 8.795058
_cell_angle_alpha 90.000000
_cell_angle_beta 90.000000
_cell_angle_gamma 90.000000
_cell_volume 3431.521934
_symmetry_space_group_name_H-M "I 21 21 21"
_symmetry_group_IT_number 24
_symmetry_cell_setting 'orthorhombic'
loop_
_space_group_symop_operation_xyz
x,y,z
-x,1/2-y,z
x,-y,1/2-z
1/2-x,y,-z
1/2+x,1/2+y,1/2+z
1/2-x,-y,1/2+z
1/2+x,1/2-y,-z
-x,1/2+y,1/2-z
loop_
_atom_site_type_symbol
_atom_site_label
_atom_site_fract_x
_atom_site_fract_y
_atom_site_fract_z
Si Si1 0.433370 0.798521 0.486490
Si Si2 0.000000 0.750000 0.047585
Si Si3 0.544106 0.156409 0.772456
Si Si4 0.852037 0.715977 0.839144
Si Si5 0.055536 0.940265 0.188577
Si Si6 0.763370 0.558207 0.322387
Si Si7 0.798454 0.230097 0.156162
Si Si8 0.160245 0.099059 0.575095
O O1 0.500000 0.750000 0.476303
O O2 0.491942 0.842007 0.567937
O O3 0.395442 0.803697 0.318894
O O4 0.357806 0.779331 0.600220
O O5 0.999595 0.801381 0.156113
O O6 0.917084 0.751520 0.937557
O O7 0.526469 0.097597 0.712956
O O8 0.638863 0.182140 0.793533
O O9 0.767325 0.748056 0.783992
O O10 0.842693 0.662415 0.937027
O O11 0.142229 0.918718 0.276978
O O12 0.042239 0.000000 0.250000
O O13 0.085649 0.932281 0.012917
O O14 0.764564 0.500000 0.250000
O O15 0.750000 0.556669 0.500000
O O16 0.680479 0.586633 0.249484
O O17 0.750000 0.214103 0.000000
O O18 0.250000 0.080707 0.500000
#
# Coordination Sequence:
#
# PCOD9333969 Si02
#       8
#     8   4   8   8   8   8   8   8
#     4   9  18  35  51  74 113 148 183 224 270 339
#     4  12  22  34  56  84 118 146 174 234 290 338
#     4  11  21  36  57  81 111 148 189 236 282 343
#     4  11  22  33  53  81 116 149 179 227 289 344
#     4  10  21  38  55  76 111 154 195 240 293 342
#     4  10  20  34  52  75 107 149 194 239 287 337
#     4   9  20  35  55  80 111 148 189 224 284 354
#     4  10  22  33  50  78 113 145 191 236 276 350
#
# _framework density 17.484952
#
# number of rings (size 3 to 8) (size 9 to 14) (size 15 to 20)
#    0.000    1.867    4.000    2.000    7.467    0.533 
#    0.000    0.000    0.000    0.000    3.467    0.000 
#    0.000    0.000    0.000    0.000    0.000    0.000 
#
# Total GULP energy -167051.744020 kJ/mol
# GULP energy per Si atom -5568.391467 kJ/mol
# Density = 1.744516 g / cm^3
# Si number density = 17.484952 Si / 1000 Ang^3
#
#
#
# Elastic Constant Matrix: (Units=GPa)
#
#
# Indices 1 2 3 4 5 6 
#
# 1 70.8827 21.4570 29.9167 0.0003 0.0000 0.0002
# 2 21.4570 68.6796 20.3037 0.0000 0.0000 0.0004
# 3 29.9167 20.3037 86.7051 0.0004 -0.0001 0.0013
# 4 0.0003 0.0000 0.0004 14.6723 -0.0001 0.0004
# 5 0.0000 0.0000 -0.0001 -0.0001 31.8125 0.0002
# 6 0.0002 0.0004 0.0013 0.0004 0.0002 9.3637
#
#
#
# Elastic Compliance Matrix: (Units=1/GPa)
#
#
# Indices 1 2 3 4 5 6 
#
# 1 0.017454 -0.003946 -0.005098 0.000000 0.000000 0.000001
# 2 -0.003946 0.016535 -0.002511 0.000000 0.000000 0.000000
# 3 -0.005098 -0.002511 0.013880 0.000000 0.000000 -0.000002
# 4 0.000000 0.000000 0.000000 0.068156 0.000000 -0.000003
# 5 0.000000 0.000000 0.000000 0.000000 0.031434 -0.000001
# 6 0.000001 0.000000 -0.000002 -0.000003 -0.000001 0.106795
#
#
# Mechanical properties :
#
#
# Convention : Reuss Voigt Hill
#
# Bulk Modulus (GPa) = 40.38733 41.06913 40.72823
# Shear Modulus (GPa) = 17.50592 21.47571 19.49082
#
# Velocity S-wave (km/s) = 3.16761 3.50843 3.34236
# Velocity P-wave (km/s) = 6.04374 6.32071 6.18377
#
# Compressibility (1/GPa) = 0.02476024
#
# Stress axis : x y z
#
# Youngs Moduli (GPa) = 57.29329 60.47655 72.04415
#
# Poissons Ratio (x) = 0.23863 0.36731
# Poissons Ratio (y) = 0.22607 0.18087
# Poissons Ratio (z) = 0.29210 0.15183
#
# Static dielectric constant tensor:
#      x y z
#    x 1.637820 0.000000 0.000000 
#    y 0.000000 1.607950 0.000000 
#    z 0.000000 0.000000 1.691100 
# 
# From -- ./inp_files/13313.got.cif
#   From: 2010.05.17/outbox.cif.g08.bks.cpg/sg24_7_cif.got.tgz:13313.got - 2010.06.04 00:33:39.
