data_PCOD9333075
_publ_section_title
;
Structure prediction by ZEFSAII (Michael W. Deem and Ramdas Pophale) SiO2 
 PCOD9333075
Probable space group: I 21 21 21
;
_chemical_formula_sum "Si O2"
_cell_formula_units_Z 48
_cell_length_a 9.058785
_cell_length_b 13.593714
_cell_length_c 18.280576
_cell_angle_alpha 90.000000
_cell_angle_beta 90.000000
_cell_angle_gamma 90.000000
_cell_volume 2251.116424
_symmetry_space_group_name_H-M "I 21 21 21"
_symmetry_group_IT_number 24
_symmetry_cell_setting 'orthorhombic'
loop_
_space_group_symop_operation_xyz
x,y,z
-x,1/2-y,z
x,-y,1/2-z
1/2-x,y,-z
1/2+x,1/2+y,1/2+z
1/2-x,-y,1/2+z
1/2+x,1/2-y,-z
-x,1/2+y,1/2-z
loop_
_atom_site_type_symbol
_atom_site_label
_atom_site_fract_x
_atom_site_fract_y
_atom_site_fract_z
Si Si1 0.809853 0.000000 0.250000
Si Si2 0.160268 0.201833 0.186501
Si Si3 0.111423 0.384836 0.387344
Si Si4 0.124684 0.371208 0.863327
Si Si5 0.250000 0.465062 0.000000
Si Si6 0.178947 0.978352 0.663975
Si Si7 0.707352 0.318416 0.638006
O O1 0.894966 0.927703 0.195630
O O2 0.710085 0.940245 0.305891
O O3 0.295506 0.268364 0.155918
O O4 0.177247 0.091422 0.154214
O O5 0.183084 0.193797 0.274300
O O6 0.000000 0.250000 0.171612
O O7 0.157203 0.465357 0.446006
O O8 0.228995 0.294103 0.388295
O O9 0.946196 0.348476 0.399545
O O10 0.957842 0.408298 0.854212
O O11 0.158020 0.396466 0.946689
O O12 0.168297 0.000000 0.750000
O O13 0.187253 0.086691 0.627499
#
# Coordination Sequence:
#
# PCOD9333075 Si02
#       7
#     4   8   8   8   4   8   8
#     4  10  18  32  66  86 120 166 218 276 328 378
#     4  11  21  38  70 102 123 167 226 284 337 396
#     4  10  20  40  61  99 129 175 226 283 328 409
#     4  11  21  43  61  94 133 173 219 278 339 400
#     4  10  26  40  66  90 134 188 222 262 346 418
#     4  10  23  37  63 104 135 164 212 281 352 398
#     4  10  20  37  65  98 133 166 222 275 339 399
#
# _framework density 21.322754
#
# number of rings (size 3 to 8) (size 9 to 14) (size 15 to 20)
#    0.000    1.667    4.167    0.500    8.167    0.000 
#    6.000    4.167    0.000    0.000    0.000    0.000 
#    0.000    0.000    0.000    0.000    0.000    0.000 
#
# Total GULP energy -133684.702137 kJ/mol
# GULP energy per Si atom -5570.195922 kJ/mol
# Density = 2.127422 g / cm^3
# Si number density = 21.322754 Si / 1000 Ang^3
#
#
#
# Elastic Constant Matrix: (Units=GPa)
#
#
# Indices 1 2 3 4 5 6 
#
# 1 74.3392 47.3892 20.4666 0.0000 0.0000 0.0000
# 2 47.3892 112.3225 25.1585 0.0000 0.0000 0.0000
# 3 20.4666 25.1585 68.5448 0.0000 0.0000 0.0000
# 4 0.0000 0.0000 0.0000 26.4351 0.0000 0.0000
# 5 0.0000 0.0000 0.0000 0.0000 6.3473 0.0000
# 6 0.0000 0.0000 0.0000 0.0000 0.0000 20.6131
#
#
#
# Elastic Compliance Matrix: (Units=1/GPa)
#
#
# Indices 1 2 3 4 5 6 
#
# 1 0.018938 -0.007326 -0.002966 0.000000 0.000000 0.000000
# 2 -0.007326 0.012534 -0.002413 0.000000 0.000000 0.000000
# 3 -0.002966 -0.002413 0.016360 0.000000 0.000000 0.000000
# 4 0.000000 0.000000 0.000000 0.037828 0.000000 0.000000
# 5 0.000000 0.000000 0.000000 0.000000 0.157548 0.000000
# 6 0.000000 0.000000 0.000000 0.000000 0.000000 0.048513
#
#
# Mechanical properties :
#
#
# Convention : Reuss Voigt Hill
#
# Bulk Modulus (GPa) = 44.59674 49.02613 46.81143
# Shear Modulus (GPa) = 15.40329 21.49191 18.44760
#
# Velocity S-wave (km/s) = 2.69064 3.17824 2.94455
# Velocity P-wave (km/s) = 5.53292 6.04240 5.79327
#
# Compressibility (1/GPa) = 0.02242316
#
# Stress axis : x y z
#
# Youngs Moduli (GPa) = 52.80261 79.78141 61.12359
#
# Poissons Ratio (x) = 0.58447 0.18129
# Poissons Ratio (y) = 0.38683 0.14750
# Poissons Ratio (z) = 0.15661 0.19252
#
# Static dielectric constant tensor:
#      x y z
#    x 1.818610 0.000000 0.000000 
#    y 0.000000 1.896290 0.000000 
#    z 0.000000 0.000000 1.719560 
# 
# From -- ./inp_files/29511.got.cif
#   From: 2010.05.17/outbox.cif.g08.bks.cpg/sg24_15_cif.got.tgz:29511.got - 2010.06.04 00:33:39.
