data_PCOD9333869
_publ_section_title
;
Structure prediction by ZEFSAII (Michael W. Deem and Ramdas Pophale) SiO2 
 PCOD9333869
Probable space group: I 21 21 21
;
_chemical_formula_sum "Si O2"
_cell_formula_units_Z 44
_cell_length_a 34.150452
_cell_length_b 14.660756
_cell_length_c 5.303757
_cell_angle_alpha 90.000000
_cell_angle_beta 90.000000
_cell_angle_gamma 90.000000
_cell_volume 2655.439676
_symmetry_space_group_name_H-M "I 21 21 21"
_symmetry_group_IT_number 24
_symmetry_cell_setting 'orthorhombic'
loop_
_space_group_symop_operation_xyz
x,y,z
-x,1/2-y,z
x,-y,1/2-z
1/2-x,y,-z
1/2+x,1/2+y,1/2+z
1/2-x,-y,1/2+z
1/2+x,1/2-y,-z
-x,1/2+y,1/2-z
loop_
_atom_site_type_symbol
_atom_site_label
_atom_site_fract_x
_atom_site_fract_y
_atom_site_fract_z
Si Si1 0.773207 0.611239 0.751263
Si Si2 0.898230 0.500000 0.250000
Si Si3 0.933041 0.650551 0.557454
Si Si4 0.360431 0.895830 0.142981
Si Si5 0.041417 0.301330 0.295341
Si Si6 0.519298 0.107117 0.204981
O O1 0.774086 0.500000 0.750000
O O2 0.750000 0.639354 0.500000
O O3 0.818207 0.641445 0.782888
O O4 0.750000 0.639649 0.000000
O O5 0.926892 0.549286 0.444818
O O6 0.869994 0.420179 0.353671
O O7 0.896625 0.660147 0.745499
O O8 0.931563 0.723174 0.329544
O O9 0.975414 0.651148 0.690898
O O10 0.361456 0.000000 0.250000
O O11 0.044675 0.347394 0.569335
O O12 0.000000 0.250000 0.307647
O O13 0.037582 0.374567 0.069796
O O14 0.515390 0.000000 0.250000
#
# Coordination Sequence:
#
# PCOD9333869 Si02
#       6
#     8   4   8   8   8   8
#     4   9  18  28  43  61  89 121 158 201 240 275
#     4  10  20  30  52  68  98 126 172 208 252 290
#     4  10  22  33  49  68  95 122 167 207 256 286
#     4   9  19  30  45  68  90 126 165 206 247 288
#     4  10  22  34  50  68  92 117 156 205 249 296
#     4  11  22  35  51  68  90 121 158 203 257 296
#
# _framework density 16.569762000000001
#
# number of rings (size 3 to 8) (size 9 to 14) (size 15 to 20)
#    0.000    2.182    0.000    3.818   21.636    0.000 
#    0.000    0.000    0.000    0.000    0.000    0.000 
#    0.000    0.000    0.000    0.000    0.000    5.455 
#
# Total GULP energy -122503.881932 kJ/mol
# GULP energy per Si atom -5568.358270 kJ/mol
# Density = 1.653205 g / cm^3
# Si number density = 16.569762 Si / 1000 Ang^3
#
#
#
# Elastic Constant Matrix: (Units=GPa)
#
#
# Indices 1 2 3 4 5 6 
#
# 1 83.0655 12.2590 31.9051 0.0002 0.0000 0.0000
# 2 12.2590 41.0527 17.7909 0.0003 0.0000 0.0000
# 3 31.9051 17.7909 102.7702 0.0011 -0.0001 -0.0001
# 4 0.0002 0.0003 0.0011 24.6218 0.0000 0.0000
# 5 0.0000 0.0000 -0.0001 0.0000 16.7258 -0.0001
# 6 0.0000 0.0000 -0.0001 0.0000 -0.0001 10.6379
#
#
#
# Elastic Compliance Matrix: (Units=1/GPa)
#
#
# Indices 1 2 3 4 5 6 
#
# 1 0.013896 -0.002465 -0.003887 0.000000 0.000000 0.000000
# 2 -0.002465 0.026772 -0.003869 0.000000 0.000000 0.000000
# 3 -0.003887 -0.003869 0.011607 0.000000 0.000000 0.000000
# 4 0.000000 0.000000 0.000000 0.040614 0.000000 0.000000
# 5 0.000000 0.000000 0.000000 0.000000 0.059788 0.000000
# 6 0.000000 0.000000 0.000000 0.000000 0.000000 0.094004
#
#
# Mechanical properties :
#
#
# Convention : Reuss Voigt Hill
#
# Bulk Modulus (GPa) = 31.41526 38.97758 35.19642
# Shear Modulus (GPa) = 18.00287 21.39268 19.69777
#
# Velocity S-wave (km/s) = 3.29977 3.59704 3.45161
# Velocity P-wave (km/s) = 5.78952 6.38952 6.09691
#
# Compressibility (1/GPa) = 0.03183166
#
# Stress axis : x y z
#
# Youngs Moduli (GPa) = 71.96573 37.35273 86.15448
#
# Poissons Ratio (x) = 0.09207 0.33490
# Poissons Ratio (y) = 0.17738 0.33336
# Poissons Ratio (z) = 0.27974 0.14453
#
# Static dielectric constant tensor:
#      x y z
#    x 1.571740 0.000000 0.000000 
#    y 0.000000 1.577020 0.000000 
#    z 0.000000 0.000000 1.726190 
# 
# From -- ./inp_files/7678.got.cif
#   From: 2010.05.17/outbox.cif.g08.bks.cpg/sg24_4_cif.got.tgz:7678.got - 2010.06.04 00:33:39.
