data_PCOD9333958
_publ_section_title
;
Structure prediction by ZEFSAII (Michael W. Deem and Ramdas Pophale) SiO2 
 PCOD9333958
Probable space group: I 21 21 21
;
_chemical_formula_sum "Si O2"
_cell_formula_units_Z 32
_cell_length_a 7.491626
_cell_length_b 9.720625
_cell_length_c 15.998495
_cell_angle_alpha 90.000000
_cell_angle_beta 90.000000
_cell_angle_gamma 90.000000
_cell_volume 1165.062993
_symmetry_space_group_name_H-M "I 21 21 21"
_symmetry_group_IT_number 24
_symmetry_cell_setting 'orthorhombic'
loop_
_space_group_symop_operation_xyz
x,y,z
-x,1/2-y,z
x,-y,1/2-z
1/2-x,y,-z
1/2+x,1/2+y,1/2+z
1/2-x,-y,1/2+z
1/2+x,1/2-y,-z
-x,1/2+y,1/2-z
loop_
_atom_site_type_symbol
_atom_site_label
_atom_site_fract_x
_atom_site_fract_y
_atom_site_fract_z
Si Si1 0.788964 0.763257 0.354510
Si Si2 0.911885 0.522498 0.558406
Si Si3 0.868094 0.049590 0.401984
Si Si4 0.768283 0.665735 0.165204
O O1 0.661596 0.671051 0.412468
O O2 0.765095 0.713551 0.260292
O O3 0.000000 0.750000 0.378174
O O4 0.756229 0.925387 0.362087
O O5 0.750000 0.467998 0.500000
O O6 0.899688 0.424405 0.638406
O O7 0.071549 0.498332 0.494373
O O8 0.784388 0.199707 0.392800
O O9 0.053304 0.073055 0.349057
#
# Coordination Sequence:
#
# PCOD9333958 Si02
#       4
#     8   8   8   8
#     4  12  19  32  57  86 111 147 197 240 282 344
#     4  10  21  34  51  86 120 149 182 242 301 338
#     4  10  21  35  55  83 120 150 185 242 298 337
#     4  10  20  33  58  85 112 148 198 240 283 342
#
# _framework density 27.466327
#
# number of rings (size 3 to 8) (size 9 to 14) (size 15 to 20)
#    0.000    1.500    7.500    1.500    0.000    0.000 
#    0.000    8.750    0.000    0.000    0.000  115.500 
#    0.000    0.000    0.000    0.000    0.000    0.000 
#
# Total GULP energy -89729.282931 kJ/mol
# GULP energy per Si atom -5608.080183 kJ/mol
# Density = 2.740381 g / cm^3
# Si number density = 27.466327 Si / 1000 Ang^3
#
#
#
# Elastic Constant Matrix: (Units=GPa)
#
#
# Indices 1 2 3 4 5 6 
#
# 1 145.5919 69.1772 51.5368 0.0000 0.0000 0.0000
# 2 69.1772 243.9458 106.5268 0.0000 0.0000 0.0000
# 3 51.5368 106.5268 182.4701 0.0000 0.0000 0.0000
# 4 0.0000 0.0000 0.0000 53.0603 0.0000 0.0000
# 5 0.0000 0.0000 0.0000 0.0000 31.7916 0.0000
# 6 0.0000 0.0000 0.0000 0.0000 0.0000 36.8730
#
#
#
# Elastic Compliance Matrix: (Units=1/GPa)
#
#
# Indices 1 2 3 4 5 6 
#
# 1 0.008155 -0.001754 -0.001279 0.000000 0.000000 0.000000
# 2 -0.001754 0.005879 -0.002937 0.000000 0.000000 0.000000
# 3 -0.001279 -0.002937 0.007556 0.000000 0.000000 0.000000
# 4 0.000000 0.000000 0.000000 0.018846 0.000000 0.000000
# 5 0.000000 0.000000 0.000000 0.000000 0.031455 0.000000
# 6 0.000000 0.000000 0.000000 0.000000 0.000000 0.027120
#
#
# Mechanical properties :
#
#
# Convention : Reuss Voigt Hill
#
# Bulk Modulus (GPa) = 103.62723 114.05436 108.84079
# Shear Modulus (GPa) = 43.79504 47.32946 45.56225
#
# Velocity S-wave (km/s) = 3.99745 4.15563 4.07730
# Velocity P-wave (km/s) = 7.68875 8.03996 7.86631
#
# Compressibility (1/GPa) = 0.00964997
#
# Stress axis : x y z
#
# Youngs Moduli (GPa) = 122.62885 170.09399 132.34074
#
# Poissons Ratio (x) = 0.29831 0.16931
# Poissons Ratio (y) = 0.21507 0.38867
# Poissons Ratio (z) = 0.15688 0.49955
#
# Static dielectric constant tensor:
#      x y z
#    x 2.440780 0.000000 0.000000 
#    y 0.000000 2.119890 0.000000 
#    z 0.000000 0.000000 2.101660 
# 
# From -- ./inp_files/30011.got.cif
#   From: 2010.05.17/outbox.cif.g08.bks.cpg/sg24_16_cif.got.tgz:30011.got - 2010.06.04 00:33:39.
