data_PCOD9333988
_publ_section_title
;
Structure prediction by ZEFSAII (Michael W. Deem and Ramdas Pophale) SiO2 
 PCOD9333988
Probable space group: I 21 21 21
;
_chemical_formula_sum "Si O2"
_cell_formula_units_Z 60
_cell_length_a 12.978658
_cell_length_b 9.478309
_cell_length_c 24.455195
_cell_angle_alpha 90.000000
_cell_angle_beta 90.000000
_cell_angle_gamma 90.000000
_cell_volume 3008.373688
_symmetry_space_group_name_H-M "I 21 21 21"
_symmetry_group_IT_number 24
_symmetry_cell_setting 'orthorhombic'
loop_
_space_group_symop_operation_xyz
x,y,z
-x,1/2-y,z
x,-y,1/2-z
1/2-x,y,-z
1/2+x,1/2+y,1/2+z
1/2-x,-y,1/2+z
1/2+x,1/2-y,-z
-x,1/2+y,1/2-z
loop_
_atom_site_type_symbol
_atom_site_label
_atom_site_fract_x
_atom_site_fract_y
_atom_site_fract_z
Si Si1 0.595817 0.351795 0.912450
Si Si2 0.169443 0.526170 0.601344
Si Si3 0.243850 0.772895 0.883507
Si Si4 0.066001 0.963061 0.913908
Si Si5 0.202528 0.025062 0.191951
Si Si6 0.086439 0.131162 0.465586
Si Si7 0.614605 0.708391 0.332915
Si Si8 0.750000 0.793597 0.500000
O O1 0.500000 0.250000 0.908264
O O2 0.652814 0.376244 0.854874
O O3 0.551100 0.504612 0.927173
O O4 0.673051 0.298076 0.960970
O O5 0.240398 0.395238 0.618579
O O6 0.165189 0.645896 0.647719
O O7 0.196377 0.603548 0.544423
O O8 0.055613 0.462331 0.593049
O O9 0.128865 0.837665 0.885783
O O10 0.309547 0.811014 0.937912
O O11 0.289617 0.870349 0.835640
O O12 0.099567 0.111769 0.887500
O O13 0.098137 0.942096 0.976085
O O14 0.311306 0.108201 0.202610
O O15 0.149789 0.000000 0.250000
O O16 0.000000 0.250000 0.470267
O O17 0.500000 0.750000 0.311858
#
# Coordination Sequence:
#
# PCOD9333988 Si02
#       8
#     8   8   8   8   8   8   8   4
#     4  11  25  43  67  96 130 172 228 271 341 418
#     4  11  21  34  58  90 127 163 207 253 322 398
#     4  10  23  36  56  86 126 161 214 264 325 382
#     4  10  20  34  54  86 123 172 198 249 318 398
#     4  10  22  46  67  88 126 177 224 279 335 384
#     4  11  23  34  54  85 126 167 206 256 318 389
#     4   9  19  38  61  86 120 159 214 262 318 395
#     4  12  24  38  64 102 136 176 206 274 340 422
#
# _framework density 19.944330000000001
#
# number of rings (size 3 to 8) (size 9 to 14) (size 15 to 20)
#    0.000    1.600    1.333    3.200    9.333    1.067 
#    0.000    7.333    0.000    0.000    0.000    0.000 
#    0.000    0.000    0.000    0.000    0.000    0.000 
#
# Total GULP energy -167227.679512 kJ/mol
# GULP energy per Si atom -5574.255984 kJ/mol
# Density = 1.989894 g / cm^3
# Si number density = 19.944330 Si / 1000 Ang^3
#
#
#
# Elastic Constant Matrix: (Units=GPa)
#
#
# Indices 1 2 3 4 5 6 
#
# 1 52.0117 33.3439 22.0113 0.0000 0.0000 0.0000
# 2 33.3439 119.8950 21.9661 0.0000 0.0000 0.0000
# 3 22.0113 21.9661 72.2547 0.0000 0.0000 0.0000
# 4 0.0000 0.0000 0.0000 11.1027 0.0000 0.0000
# 5 0.0000 0.0000 0.0000 0.0000 4.1856 0.0000
# 6 0.0000 0.0000 0.0000 0.0000 0.0000 18.0167
#
#
#
# Elastic Compliance Matrix: (Units=1/GPa)
#
#
# Indices 1 2 3 4 5 6 
#
# 1 0.025620 -0.006031 -0.005971 0.000000 0.000000 0.000000
# 2 -0.006031 0.010252 -0.001280 0.000000 0.000000 0.000000
# 3 -0.005971 -0.001280 0.016048 0.000000 0.000000 0.000000
# 4 0.000000 0.000000 0.000000 0.090068 0.000000 0.000000
# 5 0.000000 0.000000 0.000000 0.000000 0.238914 0.000000
# 6 0.000000 0.000000 0.000000 0.000000 0.000000 0.055504
#
#
# Mechanical properties :
#
#
# Convention : Reuss Voigt Hill
#
# Bulk Modulus (GPa) = 39.43759 44.31155 41.87457
# Shear Modulus (GPa) = 10.60619 17.78368 14.19494
#
# Velocity S-wave (km/s) = 2.30856 2.98932 2.67072
# Velocity P-wave (km/s) = 5.18871 5.84641 5.52735
#
# Compressibility (1/GPa) = 0.02535652
#
# Stress axis : x y z
#
# Youngs Moduli (GPa) = 39.03220 97.53842 62.31333
#
# Poissons Ratio (x) = 0.58827 0.37208
# Poissons Ratio (y) = 0.23541 0.07973
# Poissons Ratio (z) = 0.23307 0.12480
#
# Static dielectric constant tensor:
#      x y z
#    x 1.761440 0.000000 0.000000 
#    y 0.000000 1.728570 0.000000 
#    z 0.000000 0.000000 1.700340 
# 
# From -- ./inp_files/35816.got.cif
#   From: 2010.05.17/outbox.cif.g08.bks.cpg/sg24_18_cif.got.tgz:35816.got - 2010.06.04 00:33:39.
