data_PCOD9333235
_publ_section_title
;
Structure prediction by ZEFSAII (Michael W. Deem and Ramdas Pophale) SiO2 
 PCOD9333235
Probable space group: I 21 21 21
;
_chemical_formula_sum "Si O2"
_cell_formula_units_Z 60
_cell_length_a 11.714497
_cell_length_b 26.792519
_cell_length_c 9.552271
_cell_angle_alpha 90.000000
_cell_angle_beta 90.000000
_cell_angle_gamma 90.000000
_cell_volume 2998.084215
_symmetry_space_group_name_H-M "I 21 21 21"
_symmetry_group_IT_number 24
_symmetry_cell_setting 'orthorhombic'
loop_
_space_group_symop_operation_xyz
x,y,z
-x,1/2-y,z
x,-y,1/2-z
1/2-x,y,-z
1/2+x,1/2+y,1/2+z
1/2-x,-y,1/2+z
1/2+x,1/2-y,-z
-x,1/2+y,1/2-z
loop_
_atom_site_type_symbol
_atom_site_label
_atom_site_fract_x
_atom_site_fract_y
_atom_site_fract_z
Si Si1 0.995650 0.500000 0.250000
Si Si2 0.377221 0.498941 0.033520
Si Si3 0.838498 0.582378 0.386266
Si Si4 0.843321 0.177849 0.884185
Si Si5 0.264518 0.778955 0.277901
Si Si6 0.315540 0.125087 0.359405
Si Si7 0.075888 0.813041 0.466852
Si Si8 0.554620 0.919584 0.245742
O O1 0.916337 0.543413 0.308319
O O2 0.069760 0.486137 0.385009
O O3 0.376311 0.547241 0.133617
O O4 0.450913 0.457416 0.119769
O O5 0.250000 0.479755 0.000000
O O6 0.750000 0.560764 0.500000
O O7 0.760542 0.607976 0.270133
O O8 0.912812 0.627203 0.450694
O O9 0.794244 0.220561 0.781034
O O10 0.883495 0.130001 0.798784
O O11 0.750000 0.164655 0.000000
O O12 0.949770 0.198143 0.977533
O O13 0.308952 0.814239 0.152827
O O14 0.133435 0.789070 0.327590
O O15 0.340923 0.798685 0.406978
O O16 0.250000 0.109426 0.500000
O O17 0.437454 0.099228 0.328416
#
# Coordination Sequence:
#
# PCOD9333235 Si02
#       8
#     4   8   8   8   8   8   8   8
#     4  12  24  36  66  92 116 166 216 250 306 388
#     4  11  25  46  63  86 127 171 213 263 326 374
#     4  11  21  39  60  90 127 157 202 263 315 375
#     4  12  22  34  65 101 124 164 222 272 314 385
#     4  10  20  35  62  91 127 164 205 265 328 380
#     4  11  22  39  63  92 128 169 200 253 337 391
#     4  10  18  37  58  89 127 160 203 266 325 368
#     4  11  24  42  66  92 125 165 219 271 315 384
#
# _framework density 20.012781
#
# number of rings (size 3 to 8) (size 9 to 14) (size 15 to 20)
#    0.000    1.067    5.333    4.000    0.000    3.733 
#    0.000    0.667    0.000    3.200    0.000    0.000 
#    0.000    0.000    0.000    0.000    0.000    0.000 
#
# Total GULP energy -167329.890405 kJ/mol
# GULP energy per Si atom -5577.663013 kJ/mol
# Density = 1.996723 g / cm^3
# Si number density = 20.012781 Si / 1000 Ang^3
#
#
#
# Elastic Constant Matrix: (Units=GPa)
#
#
# Indices 1 2 3 4 5 6 
#
# 1 98.7444 32.9218 34.3133 0.0000 -0.0001 -0.0001
# 2 32.9218 110.6184 32.3204 0.0000 -0.0001 -0.0001
# 3 34.3133 32.3204 97.0022 0.0005 0.0007 0.0016
# 4 0.0000 0.0000 0.0005 22.1205 -0.0001 -0.0005
# 5 -0.0001 -0.0001 0.0007 -0.0001 32.1925 0.0000
# 6 -0.0001 -0.0001 0.0016 -0.0005 0.0000 43.4880
#
#
#
# Elastic Compliance Matrix: (Units=1/GPa)
#
#
# Indices 1 2 3 4 5 6 
#
# 1 0.012198 -0.002625 -0.003440 0.000000 0.000000 0.000000
# 2 -0.002625 0.010580 -0.002597 0.000000 0.000000 0.000000
# 3 -0.003440 -0.002597 0.012391 0.000000 0.000000 0.000000
# 4 0.000000 0.000000 0.000000 0.045207 0.000000 0.000001
# 5 0.000000 0.000000 0.000000 0.000000 0.031063 0.000000
# 6 0.000000 0.000000 0.000000 0.000001 0.000000 0.022995
#
#
# Mechanical properties :
#
#
# Convention : Reuss Voigt Hill
#
# Bulk Modulus (GPa) = 56.03730 56.16399 56.10065
# Shear Modulus (GPa) = 31.70454 33.34749 32.52602
#
# Velocity S-wave (km/s) = 3.98454 4.08647 4.03583
# Velocity P-wave (km/s) = 7.01643 7.09864 7.05765
#
# Compressibility (1/GPa) = 0.01784526
#
# Stress axis : x y z
#
# Youngs Moduli (GPa) = 81.98181 94.51773 80.70292
#
# Poissons Ratio (x) = 0.24812 0.27763
# Poissons Ratio (y) = 0.21521 0.20955
# Poissons Ratio (z) = 0.28203 0.24542
#
# Static dielectric constant tensor:
#      x y z
#    x 1.753080 0.000000 0.000000 
#    y 0.000000 1.785350 0.000000 
#    z 0.000000 0.000000 1.651920 
# 
# From -- ./inp_files/11537.got.cif
#   From: 2010.05.17/outbox.cif.g08.bks.cpg/sg24_6_cif.got.tgz:11537.got - 2010.06.04 00:33:39.
