data_PCOD9333001
_publ_section_title
;
Structure prediction by ZEFSAII (Michael W. Deem and Ramdas Pophale) SiO2 
 PCOD9333001
Probable space group: I 21 21 21
;
_chemical_formula_sum "Si O2"
_cell_formula_units_Z 48
_cell_length_a 17.819436
_cell_length_b 8.308989
_cell_length_c 18.880287
_cell_angle_alpha 90.000000
_cell_angle_beta 90.000000
_cell_angle_gamma 90.000000
_cell_volume 2795.443570
_symmetry_space_group_name_H-M "I 21 21 21"
_symmetry_group_IT_number 24
_symmetry_cell_setting 'orthorhombic'
loop_
_space_group_symop_operation_xyz
x,y,z
-x,1/2-y,z
x,-y,1/2-z
1/2-x,y,-z
1/2+x,1/2+y,1/2+z
1/2-x,-y,1/2+z
1/2+x,1/2-y,-z
-x,1/2+y,1/2-z
loop_
_atom_site_type_symbol
_atom_site_label
_atom_site_fract_x
_atom_site_fract_y
_atom_site_fract_z
Si Si1 0.932537 0.865275 0.807775
Si Si2 0.067463 0.634724 0.192225
Si Si3 0.973656 0.433809 0.083080
Si Si4 0.663780 0.564178 0.830409
Si Si5 0.473655 0.066191 0.083081
Si Si6 0.836220 0.564178 0.830409
O O1 0.864959 0.748018 0.827796
O O2 0.000000 0.750000 0.779177
O O3 0.913886 0.000000 0.750000
O O4 0.967705 0.952558 0.875932
O O5 0.086114 0.500000 0.250000
O O6 0.135041 0.751982 0.172204
O O7 0.000000 0.750000 0.220822
O O8 0.032296 0.547442 0.124067
O O9 0.893925 0.466612 0.120561
O O10 0.000000 0.250000 0.091120
O O11 0.969747 0.471978 1.000000
O O12 0.657395 0.500000 0.750000
O O13 0.750000 0.550632 0.852930
O O14 0.500000 0.250000 0.091120
O O15 0.393925 0.033389 0.120561
O O16 0.842604 0.500000 0.750000
#
# Coordination Sequence:
#
# PCOD9333001 Si02
#       6
#     8   8   8   8   8   8
#     4  10  18  31  53  77 102 133 170 210 248 294
#     4  10  18  31  53  77 102 133 170 210 248 294
#     4  10  20  35  55  76 100 134 173 210 250 299
#     4  10  21  35  52  76 105 135 167 207 255 302
#     4  10  20  35  55  76 100 134 173 210 250 299
#     4  10  21  35  52  76 105 135 167 207 255 302
#
# _framework density 17.170798999999999
#
# number of rings (size 3 to 8) (size 9 to 14) (size 15 to 20)
#    0.000    2.000    0.000    7.000    0.000    7.333 
#    0.000    1.667    0.000    2.000    0.000    0.000 
#    0.000    0.000    0.000    0.000    0.000    0.000 
#
# Total GULP energy -133974.011534 kJ/mol
# GULP energy per Si atom -5582.250481 kJ/mol
# Density = 1.713172 g / cm^3
# Si number density = 17.170799 Si / 1000 Ang^3
#
#
#
# Elastic Constant Matrix: (Units=GPa)
#
#
# Indices 1 2 3 4 5 6 
#
# 1 128.9092 62.5919 76.6462 0.0000 0.0000 0.0000
# 2 62.5919 98.1656 53.7424 0.0000 0.0000 0.0000
# 3 76.6462 53.7424 117.4950 0.0000 0.0000 0.0000
# 4 0.0000 0.0000 0.0000 30.8372 0.0000 0.0000
# 5 0.0000 0.0000 0.0000 0.0000 6.5942 0.0000
# 6 0.0000 0.0000 0.0000 0.0000 0.0000 14.0600
#
#
#
# Elastic Compliance Matrix: (Units=1/GPa)
#
#
# Indices 1 2 3 4 5 6 
#
# 1 0.014576 -0.005454 -0.007014 0.000000 0.000000 0.000000
# 2 -0.005454 0.015631 -0.003592 0.000000 0.000000 0.000000
# 3 -0.007014 -0.003592 0.014729 0.000000 0.000000 0.000000
# 4 0.000000 0.000000 0.000000 0.032428 0.000000 0.000000
# 5 0.000000 0.000000 0.000000 0.000000 0.151649 0.000000
# 6 0.000000 0.000000 0.000000 0.000000 0.000000 0.071124
#
#
# Mechanical properties :
#
#
# Convention : Reuss Voigt Hill
#
# Bulk Modulus (GPa) = 78.02157 81.17006 79.59581
# Shear Modulus (GPa) = 14.85761 20.40422 17.63092
#
# Velocity S-wave (km/s) = 2.94476 3.45093 3.20784
# Velocity P-wave (km/s) = 7.55641 7.95319 7.75734
#
# Compressibility (1/GPa) = 0.01281697
#
# Stress axis : x y z
#
# Youngs Moduli (GPa) = 68.60743 63.97645 67.89298
#
# Poissons Ratio (x) = 0.34893 0.47617
# Poissons Ratio (y) = 0.37418 0.24385
# Poissons Ratio (z) = 0.48118 0.22978
#
# Static dielectric constant tensor:
#      x y z
#    x 1.566420 0.000000 0.000000 
#    y 0.000000 1.589680 0.000000 
#    z 0.000000 0.000000 1.570630 
# 
# From -- ./inp_files/14340.got.cif
#   From: 2010.05.17/outbox.cif.g08.bks.cpg/sg24_8_cif.got.tgz:14340.got - 2010.06.04 00:33:39.
