data_PCOD9333274
_publ_section_title
;
Structure prediction by ZEFSAII (Michael W. Deem and Ramdas Pophale) SiO2 
 PCOD9333274
Probable space group: I 21 21 21
;
_chemical_formula_sum "Si O2"
_cell_formula_units_Z 44
_cell_length_a 5.796365
_cell_length_b 23.345788
_cell_length_c 13.843183
_cell_angle_alpha 90.000000
_cell_angle_beta 90.000000
_cell_angle_gamma 90.000000
_cell_volume 1873.269331
_symmetry_space_group_name_H-M "I 21 21 21"
_symmetry_group_IT_number 24
_symmetry_cell_setting 'orthorhombic'
loop_
_space_group_symop_operation_xyz
x,y,z
-x,1/2-y,z
x,-y,1/2-z
1/2-x,y,-z
1/2+x,1/2+y,1/2+z
1/2-x,-y,1/2+z
1/2+x,1/2-y,-z
-x,1/2+y,1/2-z
loop_
_atom_site_type_symbol
_atom_site_label
_atom_site_fract_x
_atom_site_fract_y
_atom_site_fract_z
Si Si1 0.500000 0.750000 0.131299
Si Si2 0.408251 0.595378 0.303120
Si Si3 0.750000 0.696395 0.500000
Si Si4 0.261378 0.800378 0.711725
Si Si5 0.750000 0.131380 0.000000
Si Si6 0.016369 0.395433 0.326421
Si Si7 0.750000 0.340523 0.500000
Si Si8 0.270395 0.000000 0.250000
O O1 0.288534 0.752854 0.207446
O O2 0.427333 0.801668 0.062251
O O3 0.552672 0.653812 0.293951
O O4 0.252059 0.597966 0.398464
O O5 0.571684 0.540758 0.315349
O O6 0.278150 0.590818 0.200660
O O7 0.733662 0.726313 0.604724
O O8 0.502630 0.662936 0.499226
O O9 0.455901 0.843645 0.750789
O O10 0.915848 0.374507 0.427551
O O11 0.883144 0.453868 0.304488
#
# Coordination Sequence:
#
# PCOD9333274 Si02
#       8
#     4   8   4   8   4   8   4   4
#     4  10  22  42  64 102 136 194 246 304 352 438
#     4  10  20  38  63  87 127 178 223 299 361 451
#     4  10  18  38  64  96 130 174 221 288 365 434
#     4   9  20  37  62  90 133 172 231 291 357 425
#     4  10  20  36  67  95 124 179 226 278 371 440
#     4  10  20  42  60  91 134 177 230 307 360 442
#     4  10  24  40  69  99 140 197 249 302 362 438
#     4  10  22  40  58  92 128 170 232 298 388 438
#
# _framework density 23.488347000000001
#
# number of rings (size 3 to 8) (size 9 to 14) (size 15 to 20)
#    0.000    2.182    1.818    0.545    2.545    0.000 
#    6.545    3.636    0.000    0.000    0.000    0.000 
#    0.000    0.000    0.000    0.000    0.000    0.000 
#
# Total GULP energy -122626.996182 kJ/mol
# GULP energy per Si atom -5573.954372 kJ/mol
# Density = 2.343489 g / cm^3
# Si number density = 23.488347 Si / 1000 Ang^3
#
#
#
# Elastic Constant Matrix: (Units=GPa)
#
#
# Indices 1 2 3 4 5 6 
#
# 1 93.9943 51.5421 24.6006 0.0000 0.0000 0.0000
# 2 51.5421 114.3893 54.6258 0.0000 0.0000 0.0000
# 3 24.6006 54.6258 158.4125 0.0000 0.0000 0.0000
# 4 0.0000 0.0000 0.0000 24.8753 0.0000 0.0000
# 5 0.0000 0.0000 0.0000 0.0000 16.9821 0.0000
# 6 0.0000 0.0000 0.0000 0.0000 0.0000 38.1007
#
#
#
# Elastic Compliance Matrix: (Units=1/GPa)
#
#
# Indices 1 2 3 4 5 6 
#
# 1 0.014130 -0.006368 0.000001 0.000000 0.000000 0.000000
# 2 -0.006368 0.013335 -0.003609 0.000000 0.000000 0.000000
# 3 0.000001 -0.003609 0.007557 0.000000 0.000000 0.000000
# 4 0.000000 0.000000 0.000000 0.040201 0.000000 0.000000
# 5 0.000000 0.000000 0.000000 0.000000 0.058885 0.000000
# 6 0.000000 0.000000 0.000000 0.000000 0.000000 0.026246
#
#
# Mechanical properties :
#
#
# Convention : Reuss Voigt Hill
#
# Bulk Modulus (GPa) = 66.35275 69.81481 68.08378
# Shear Modulus (GPa) = 26.97900 31.72680 29.35290
#
# Velocity S-wave (km/s) = 3.39279 3.67924 3.53892
# Velocity P-wave (km/s) = 6.60747 6.91641 6.76370
#
# Compressibility (1/GPa) = 0.01507096
#
# Stress axis : x y z
#
# Youngs Moduli (GPa) = 70.77021 74.99145 132.32640
#
# Poissons Ratio (x) = 0.47751 -0.00018
# Poissons Ratio (y) = 0.45063 0.47762
# Poissons Ratio (z) = -0.00010 0.27068
#
# Static dielectric constant tensor:
#      x y z
#    x 1.972950 0.000000 0.000000 
#    y 0.000000 1.864510 0.000000 
#    z 0.000000 0.000000 1.903850 
# 
# From -- ./inp_files/23901.got.cif
#   From: 2010.05.17/outbox.cif.g08.bks.cpg/sg24_12_cif.got.tgz:23901.got - 2010.06.04 00:33:39.
