data_PCOD9333018
_publ_section_title
;
Structure prediction by ZEFSAII (Michael W. Deem and Ramdas Pophale) SiO2 
 PCOD9333018
Probable space group: I 21 21 21
;
_chemical_formula_sum "Si O2"
_cell_formula_units_Z 64
_cell_length_a 24.816958
_cell_length_b 14.599577
_cell_length_c 9.535688
_cell_angle_alpha 90.000000
_cell_angle_beta 90.000000
_cell_angle_gamma 90.000000
_cell_volume 3454.942720
_symmetry_space_group_name_H-M "I 21 21 21"
_symmetry_group_IT_number 24
_symmetry_cell_setting 'orthorhombic'
loop_
_space_group_symop_operation_xyz
x,y,z
-x,1/2-y,z
x,-y,1/2-z
1/2-x,y,-z
1/2+x,1/2+y,1/2+z
1/2-x,-y,1/2+z
1/2+x,1/2-y,-z
-x,1/2+y,1/2-z
loop_
_atom_site_type_symbol
_atom_site_label
_atom_site_fract_x
_atom_site_fract_y
_atom_site_fract_z
Si Si1 0.623462 0.501294 0.090054
Si Si2 0.989065 0.506026 0.027294
Si Si3 0.698392 0.145577 0.587232
Si Si4 0.194734 0.136277 0.425015
Si Si5 0.392593 0.503616 0.919548
Si Si6 0.303824 0.646002 0.584841
Si Si7 0.345608 0.154470 0.869534
Si Si8 0.465666 0.842966 0.738974
O O1 0.642259 0.500000 0.250000
O O2 0.558519 0.501789 0.084709
O O3 0.646767 0.588829 0.008965
O O4 0.643924 0.416863 0.993971
O O5 0.052135 0.510670 0.995445
O O6 0.983860 0.411934 0.115940
O O7 0.974431 0.593722 0.124622
O O8 0.750000 0.113884 0.500000
O O9 0.691517 0.253796 0.564800
O O10 0.644580 0.091067 0.551733
O O11 0.707891 0.128456 0.751454
O O12 0.250000 0.106504 0.500000
O O13 0.190094 0.115251 0.259028
O O14 0.405084 0.500000 0.750000
O O15 0.355139 0.416449 0.952951
O O16 0.250000 0.625374 0.500000
O O17 0.319771 0.752518 0.573433
O O18 0.403014 0.176780 0.794479
O O19 0.500000 0.750000 0.744549
#
# Coordination Sequence:
#
# PCOD9333018 Si02
#       8
#     8   8   8   8   8   8   8   8
#     4  11  24  40  57  82 120 156 188 239 300 353
#     4  10  20  34  55  88 116 143 195 245 289 347
#     4   9  20  36  56  84 118 150 190 241 285 342
#     4  10  21  37  58  84 112 145 194 246 290 345
#     4  10  18  33  59  88 113 149 199 238 283 343
#     4  10  21  35  57  86 118 152 193 237 287 351
#     4  10  21  37  59  85 116 149 199 242 289 349
#     4  10  18  31  60  87 112 144 189 249 297 335
#
# _framework density 18.524184999999999
#
# number of rings (size 3 to 8) (size 9 to 14) (size 15 to 20)
#    0.000    2.000    2.500    1.500    3.500    4.500 
#    0.000    1.250    0.000   12.000    0.000    0.000 
#    0.000    0.000    0.000    0.000    0.000    0.000 
#
# Total GULP energy -178513.415483 kJ/mol
# GULP energy per Si atom -5578.544234 kJ/mol
# Density = 1.848202 g / cm^3
# Si number density = 18.524185 Si / 1000 Ang^3
#
#
#
# Elastic Constant Matrix: (Units=GPa)
#
#
# Indices 1 2 3 4 5 6 
#
# 1 119.5351 28.4871 38.4938 0.0000 0.0000 0.0000
# 2 28.4871 69.9530 34.0651 0.0000 0.0000 0.0000
# 3 38.4938 34.0651 76.8928 0.0000 0.0000 0.0000
# 4 0.0000 0.0000 0.0000 9.1209 0.0000 0.0000
# 5 0.0000 0.0000 0.0000 0.0000 23.0312 0.0000
# 6 0.0000 0.0000 0.0000 0.0000 0.0000 24.9425
#
#
#
# Elastic Compliance Matrix: (Units=1/GPa)
#
#
# Indices 1 2 3 4 5 6 
#
# 1 0.010216 -0.002129 -0.004171 0.000000 0.000000 0.000000
# 2 -0.002129 0.018671 -0.007206 0.000000 0.000000 0.000000
# 3 -0.004171 -0.007206 0.018286 0.000000 0.000000 0.000000
# 4 0.000000 0.000000 0.000000 0.109638 0.000000 0.000000
# 5 0.000000 0.000000 0.000000 0.000000 0.043419 0.000000
# 6 0.000000 0.000000 0.000000 0.000000 0.000000 0.040092
#
#
# Mechanical properties :
#
#
# Convention : Reuss Voigt Hill
#
# Bulk Modulus (GPa) = 49.60104 52.05253 50.82679
# Shear Modulus (GPa) = 18.24442 22.44123 20.34282
#
# Velocity S-wave (km/s) = 3.14171 3.48437 3.31747
# Velocity P-wave (km/s) = 6.32416 6.65947 6.49398
#
# Compressibility (1/GPa) = 0.02016087
#
# Stress axis : x y z
#
# Youngs Moduli (GPa) = 97.88161 53.55763 54.68760
#
# Poissons Ratio (x) = 0.11403 0.22812
# Poissons Ratio (y) = 0.20841 0.39408
# Poissons Ratio (z) = 0.40829 0.38593
#
# Static dielectric constant tensor:
#      x y z
#    x 1.666990 0.000000 0.000000 
#    y 0.000000 1.638240 0.000000 
#    z 0.000000 0.000000 1.624110 
# 
# From -- ./inp_files/16076.got.cif
#   From: 2010.05.17/outbox.cif.g08.bks.cpg/sg24_9_cif.got.tgz:16076.got - 2010.06.04 00:33:39.
