data_PCOD9333935
_publ_section_title
;
Structure prediction by ZEFSAII (Michael W. Deem and Ramdas Pophale) SiO2 
 PCOD9333935
Probable space group: I 21 21 21
;
_chemical_formula_sum "Si O2"
_cell_formula_units_Z 56
_cell_length_a 21.263391
_cell_length_b 7.371833
_cell_length_c 14.615006
_cell_angle_alpha 90.000000
_cell_angle_beta 90.000000
_cell_angle_gamma 90.000000
_cell_volume 2290.904638
_symmetry_space_group_name_H-M "I 21 21 21"
_symmetry_group_IT_number 24
_symmetry_cell_setting 'orthorhombic'
loop_
_space_group_symop_operation_xyz
x,y,z
-x,1/2-y,z
x,-y,1/2-z
1/2-x,y,-z
1/2+x,1/2+y,1/2+z
1/2-x,-y,1/2+z
1/2+x,1/2-y,-z
-x,1/2+y,1/2-z
loop_
_atom_site_type_symbol
_atom_site_label
_atom_site_fract_x
_atom_site_fract_y
_atom_site_fract_z
Si Si1 0.754357 0.278345 0.750000
Si Si2 0.573054 0.215068 0.750000
Si Si3 0.569541 0.717294 0.050943
Si Si4 0.599276 0.720283 0.250000
Si Si5 0.835195 0.704591 0.408087
Si Si6 0.164804 0.204592 0.408086
Si Si7 0.930459 0.717294 0.550943
O O1 0.747848 0.500000 0.750000
O O2 0.827043 0.233811 0.749999
O O3 0.719333 0.215525 0.843112
O O4 0.719331 0.215524 0.656891
O O5 0.500000 0.250000 0.750002
O O6 0.606488 0.299251 0.837696
O O7 0.606486 0.299251 0.662302
O O8 0.585265 0.000000 0.750000
O O9 0.500000 0.750000 0.010341
O O10 0.570165 0.785708 0.155075
O O11 0.577427 0.500000 0.051798
O O12 0.630701 0.788551 0.996278
O O13 0.594555 0.500000 0.250000
O O14 0.570165 0.785708 0.344925
O O15 0.814647 0.499999 0.432152
O O16 0.869299 0.788549 0.496278
O O17 0.000000 0.750000 0.510341
#
# Coordination Sequence:
#
# PCOD9333935 Si02
#       7
#     8   8   8   8   8   8   8
#     4   8  15  30  51  75 103 129 162 208 256 300
#     4  11  20  30  47  71 100 133 166 205 251 301
#     4  10  20  33  51  75 103 134 171 209 250 297
#     4   9  18  32  51  76 102 132 170 213 252 293
#     4   9  18  32  50  74 101 130 164 205 251 302
#     4   9  18  32  50  74 101 130 164 205 251 302
#     4  10  20  33  51  75 103 134 171 209 250 297
#
# _framework density 24.444493999999999
#
# number of rings (size 3 to 8) (size 9 to 14) (size 15 to 20)
#    0.000    2.571    0.000    3.429    0.000    4.571 
#    0.000    5.714    0.000    6.857    0.000   10.000 
#    0.000    0.000    0.000    0.000    0.000    0.000 
#
# Total GULP energy -156307.302022 kJ/mol
# GULP energy per Si atom -5582.403644 kJ/mol
# Density = 2.438886 g / cm^3
# Si number density = 24.444494 Si / 1000 Ang^3
#
#
#
# Elastic Constant Matrix: (Units=GPa)
#
#
# Indices 1 2 3 4 5 6 
#
# 1 119.9500 -7.3389 20.8771 0.0000 0.0000 0.0000
# 2 -7.3389 110.1845 -0.5107 0.0000 0.0000 0.0000
# 3 20.8771 -0.5107 109.3713 0.0000 0.0000 0.0000
# 4 0.0000 0.0000 0.0000 -4.7368 0.0000 0.0000
# 5 0.0000 0.0000 0.0000 0.0000 32.6242 0.0000
# 6 0.0000 0.0000 0.0000 0.0000 0.0000 7.0701
#
#
#
# Elastic Compliance Matrix: (Units=1/GPa)
#
#
# Indices 1 2 3 4 5 6 
#
# 1 0.008659 0.000569 -0.001650 0.000000 0.000000 0.000000
# 2 0.000569 0.009113 -0.000066 0.000000 0.000000 0.000000
# 3 -0.001650 -0.000066 0.009458 0.000000 0.000000 0.000000
# 4 0.000000 0.000000 0.000000 -0.211115 0.000000 0.000000
# 5 0.000000 0.000000 0.000000 0.000000 0.030652 0.000000
# 6 0.000000 0.000000 0.000000 0.000000 0.000000 0.141441
#
#
# Mechanical properties :
#
#
# Convention : Reuss Voigt Hill
#
# Bulk Modulus (GPa) = 40.10323 40.61785 40.36054
# Shear Modulus (GPa) = -4216.80264 28.75671 -2094.02296
#
# Velocity S-wave (km/s) = -41.57881 3.43360 -29.30023
# Velocity P-wave (km/s) = 47.83954 5.68963 33.58757
#
# Compressibility (1/GPa) = 0.02493565
#
# Stress axis : x y z
#
# Youngs Moduli (GPa) = 115.48898 109.72991 105.73230
#
# Poissons Ratio (x) = -0.06244 0.17448
# Poissons Ratio (y) = -0.06572 0.00699
# Poissons Ratio (z) = 0.19058 0.00725
#
# Static dielectric constant tensor:
#      x y z
#    x 1.867800 0.000000 0.000000 
#    y 0.000000 2.009670 0.000000 
#    z 0.000000 0.000000 2.009110 
# 
# From -- ./inp_files/27551.got.cif
#   From: 2010.05.17/outbox.cif.g08.bks.cpg/sg24_14_cif.got.tgz:27551.got - 2010.06.04 00:33:39.
