data_PCOD9333694
_publ_section_title
;
Structure prediction by ZEFSAII (Michael W. Deem and Ramdas Pophale) SiO2 
 PCOD9333694
Probable space group: I 21 21 21
;
_chemical_formula_sum "Si O2"
_cell_formula_units_Z 40
_cell_length_a 7.912161
_cell_length_b 9.419265
_cell_length_c 25.073643
_cell_angle_alpha 90.000000
_cell_angle_beta 90.000000
_cell_angle_gamma 90.000000
_cell_volume 1868.656902
_symmetry_space_group_name_H-M "I 21 21 21"
_symmetry_group_IT_number 24
_symmetry_cell_setting 'orthorhombic'
loop_
_space_group_symop_operation_xyz
x,y,z
-x,1/2-y,z
x,-y,1/2-z
1/2-x,y,-z
1/2+x,1/2+y,1/2+z
1/2-x,-y,1/2+z
1/2+x,1/2-y,-z
-x,1/2+y,1/2-z
loop_
_atom_site_type_symbol
_atom_site_label
_atom_site_fract_x
_atom_site_fract_y
_atom_site_fract_z
Si Si1 0.564061 0.102238 0.794629
Si Si2 0.899146 0.515517 0.581066
Si Si3 0.894631 0.616799 0.133788
Si Si4 0.248260 0.322863 0.903437
Si Si5 0.922764 0.967743 0.025129
O O1 0.500000 0.250000 0.771258
O O2 0.671706 0.150631 0.845863
O O3 0.645224 0.000000 0.750000
O O4 0.419724 0.006163 0.822391
O O5 0.800772 0.394802 0.614655
O O6 0.787855 0.658488 0.585769
O O7 0.082188 0.576733 0.598064
O O8 0.938473 0.469982 0.520806
O O9 0.000000 0.750000 0.155655
O O10 0.998460 0.593782 0.078690
O O11 0.361294 0.380127 0.952173
O O12 0.750000 0.901649 0.000000
#
# Coordination Sequence:
#
# PCOD9333694 Si02
#       5
#     8   8   8   8   8
#     4  11  22  43  68  90 121 165 223 288 350 406
#     4  10  19  36  62  90 136 176 219 278 334 405
#     4  11  23  38  58  91 130 171 221 270 328 404
#     4   9  20  37  60  97 131 167 228 282 338 407
#     4   9  20  33  54  90 127 176 216 262 328 394
#
# _framework density 21.405749
#
# number of rings (size 3 to 8) (size 9 to 14) (size 15 to 20)
#    0.000    2.000    2.000    1.200    0.000   11.200 
#    0.000    9.000    4.400    0.000    0.000    0.000 
#    0.000    0.000    0.000    0.000    0.000    0.000 
#
# Total GULP energy -111406.671657 kJ/mol
# GULP energy per Si atom -5570.333583 kJ/mol
# Density = 2.135703 g / cm^3
# Si number density = 21.405749 Si / 1000 Ang^3
#
#
#
# Elastic Constant Matrix: (Units=GPa)
#
#
# Indices 1 2 3 4 5 6 
#
# 1 73.7380 22.8149 11.5362 0.0000 0.0000 0.0000
# 2 22.8149 93.2621 28.0710 0.0000 0.0000 0.0000
# 3 11.5362 28.0710 110.0986 0.0000 0.0000 0.0000
# 4 0.0000 0.0000 0.0000 -2.4558 0.0000 0.0000
# 5 0.0000 0.0000 0.0000 0.0000 6.9056 0.0000
# 6 0.0000 0.0000 0.0000 0.0000 0.0000 25.2774
#
#
#
# Elastic Compliance Matrix: (Units=1/GPa)
#
#
# Indices 1 2 3 4 5 6 
#
# 1 0.014718 -0.003397 -0.000676 0.000000 0.000000 0.000000
# 2 -0.003397 0.012398 -0.002805 0.000000 0.000000 0.000000
# 3 -0.000676 -0.002805 0.009869 0.000000 0.000000 0.000000
# 4 0.000000 0.000000 0.000000 -0.407198 0.000000 0.000000
# 5 0.000000 0.000000 0.000000 0.000000 0.144811 0.000000
# 6 0.000000 0.000000 0.000000 0.000000 0.000000 0.039561
#
#
# Mechanical properties :
#
#
# Convention : Reuss Voigt Hill
#
# Bulk Modulus (GPa) = 43.05040 44.66031 43.85535
# Shear Modulus (GPa) = -30.42432 20.25722 -5.08355
#
# Velocity S-wave (km/s) = -3.77412 3.07961 -1.54273
# Velocity P-wave (km/s) = 1.07854 5.79261 4.16639
#
# Compressibility (1/GPa) = 0.02322859
#
# Stress axis : x y z
#
# Youngs Moduli (GPa) = 67.94230 80.65959 101.32964
#
# Poissons Ratio (x) = 0.27401 0.06851
# Poissons Ratio (y) = 0.23081 0.28423
# Poissons Ratio (z) = 0.04593 0.22625
#
# Static dielectric constant tensor:
#      x y z
#    x 1.845730 0.000000 0.000000 
#    y 0.000000 1.863000 0.000000 
#    z 0.000000 0.000000 1.763940 
# 
# From -- ./inp_files/36762.got.cif
#   From: 2010.05.17/outbox.cif.g08.bks.cpg/sg24_19_cif.got.tgz:36762.got - 2010.06.04 00:33:39.
