data_PCOD9333316
_publ_section_title
;
Structure prediction by ZEFSAII (Michael W. Deem and Ramdas Pophale) SiO2 
 PCOD9333316
Probable space group: I 21 21 21
;
_chemical_formula_sum "Si O2"
_cell_formula_units_Z 44
_cell_length_a 14.623102
_cell_length_b 11.109642
_cell_length_c 12.851952
_cell_angle_alpha 90.000000
_cell_angle_beta 90.000000
_cell_angle_gamma 90.000000
_cell_volume 2087.895069
_symmetry_space_group_name_H-M "I 21 21 21"
_symmetry_group_IT_number 24
_symmetry_cell_setting 'orthorhombic'
loop_
_space_group_symop_operation_xyz
x,y,z
-x,1/2-y,z
x,-y,1/2-z
1/2-x,y,-z
1/2+x,1/2+y,1/2+z
1/2-x,-y,1/2+z
1/2+x,1/2-y,-z
-x,1/2+y,1/2-z
loop_
_atom_site_type_symbol
_atom_site_label
_atom_site_fract_x
_atom_site_fract_y
_atom_site_fract_z
Si Si1 0.000000 0.250000 0.529912
Si Si2 0.442785 0.631542 0.457278
Si Si3 0.750000 0.606275 0.000000
Si Si4 0.750000 0.046542 0.000000
Si Si5 0.661960 0.172321 0.616918
Si Si6 0.409745 0.961251 0.133884
Si Si7 0.951253 0.126046 0.203885
O O1 0.067809 0.322005 0.451838
O O2 0.064809 0.175957 0.607343
O O3 0.500000 0.750000 0.426903
O O4 0.332895 0.622836 0.449550
O O5 0.496884 0.528774 0.396461
O O6 0.455489 0.616398 0.581037
O O7 0.789712 0.701751 0.085667
O O8 0.673438 0.522519 0.052861
O O9 0.711494 0.949180 0.918095
O O10 0.644139 0.151976 0.738408
O O11 0.384463 0.000000 0.250000
O O12 0.000000 0.250000 0.232869
O O13 0.987437 0.000000 0.250000
#
# Coordination Sequence:
#
# PCOD9333316 Si02
#       7
#     4   8   4   4   8   8   8
#     4  10  18  40  72  96 130 176 234 288 324 424
#     4  11  26  45  66 101 146 180 224 291 354 427
#     4   9  24  43  68 100 132 179 245 288 332 435
#     4  11  20  43  64  98 136 187 231 280 342 423
#     4  10  19  39  69 101 131 172 239 287 336 407
#     4  11  24  47  69  97 139 185 227 289 362 413
#     4  11  21  39  68 104 132 179 228 286 363 406
#
# _framework density 21.073854000000001
#
# number of rings (size 3 to 8) (size 9 to 14) (size 15 to 20)
#    0.000    1.455    4.545    0.000    3.818    0.727 
#   13.091    0.000    0.000    0.000    0.000    0.000 
#    0.000    0.000    0.000    0.000    0.000    0.000 
#
# Total GULP energy -122492.206705 kJ/mol
# GULP energy per Si atom -5567.827578 kJ/mol
# Density = 2.102589 g / cm^3
# Si number density = 21.073854 Si / 1000 Ang^3
#
#
#
# Elastic Constant Matrix: (Units=GPa)
#
#
# Indices 1 2 3 4 5 6 
#
# 1 117.1524 23.4596 6.4748 0.0000 0.0000 0.0000
# 2 23.4596 68.2267 8.4951 0.0000 0.0000 0.0000
# 3 6.4748 8.4951 59.2922 0.0000 0.0000 0.0000
# 4 0.0000 0.0000 0.0000 18.0163 0.0000 0.0000
# 5 0.0000 0.0000 0.0000 0.0000 7.7543 0.0000
# 6 0.0000 0.0000 0.0000 0.0000 0.0000 29.4964
#
#
#
# Elastic Compliance Matrix: (Units=1/GPa)
#
#
# Indices 1 2 3 4 5 6 
#
# 1 0.009185 -0.003089 -0.000561 0.000000 0.000000 0.000000
# 2 -0.003089 0.015962 -0.001950 0.000000 0.000000 0.000000
# 3 -0.000561 -0.001950 0.017206 0.000000 0.000000 0.000000
# 4 0.000000 0.000000 0.000000 0.055505 0.000000 0.000000
# 5 0.000000 0.000000 0.000000 0.000000 0.128961 0.000000
# 6 0.000000 0.000000 0.000000 0.000000 0.000000 0.033902
#
#
# Mechanical properties :
#
#
# Convention : Reuss Voigt Hill
#
# Bulk Modulus (GPa) = 32.09679 35.72561 33.91120
# Shear Modulus (GPa) = 17.71138 24.80286 21.25712
#
# Velocity S-wave (km/s) = 2.90219 3.43439 3.17944
# Velocity P-wave (km/s) = 5.14723 5.71980 5.44105
#
# Compressibility (1/GPa) = 0.03115576
#
# Stress axis : x y z
#
# Youngs Moduli (GPa) = 108.86894 62.64971 58.11869
#
# Poissons Ratio (x) = 0.19350 0.03258
# Poissons Ratio (y) = 0.33625 0.11331
# Poissons Ratio (z) = 0.06103 0.12215
#
# Static dielectric constant tensor:
#      x y z
#    x 2.017880 0.000000 0.000000 
#    y 0.000000 1.817530 0.000000 
#    z 0.000000 0.000000 1.806320 
# 
# From -- ./inp_files/26425.got.cif
#   From: 2010.05.17/outbox.cif.g08.bks.cpg/sg24_14_cif.got.tgz:26425.got - 2010.06.04 00:33:39.
