data_PCOD9333216
_publ_section_title
;
Structure prediction by ZEFSAII (Michael W. Deem and Ramdas Pophale) SiO2 
 PCOD9333216
Probable space group: I 21 21 21
;
_chemical_formula_sum "Si O2"
_cell_formula_units_Z 60
_cell_length_a 14.270226
_cell_length_b 20.832115
_cell_length_c 8.684548
_cell_angle_alpha 90.000000
_cell_angle_beta 90.000000
_cell_angle_gamma 90.000000
_cell_volume 2581.733650
_symmetry_space_group_name_H-M "I 21 21 21"
_symmetry_group_IT_number 24
_symmetry_cell_setting 'orthorhombic'
loop_
_space_group_symop_operation_xyz
x,y,z
-x,1/2-y,z
x,-y,1/2-z
1/2-x,y,-z
1/2+x,1/2+y,1/2+z
1/2-x,-y,1/2+z
1/2+x,1/2-y,-z
-x,1/2+y,1/2-z
loop_
_atom_site_type_symbol
_atom_site_label
_atom_site_fract_x
_atom_site_fract_y
_atom_site_fract_z
Si Si1 0.569644 0.140794 0.880085
Si Si2 0.147129 0.950887 0.968653
Si Si3 0.110359 0.748536 0.988613
Si Si4 0.363491 0.154665 0.742971
Si Si5 0.344585 0.841831 0.268600
Si Si6 0.650735 0.890293 0.951433
Si Si7 0.970936 0.008891 0.063513
Si Si8 0.000000 0.750000 0.569212
O O1 0.459339 0.140540 0.831814
O O2 0.631183 0.130589 0.726036
O O3 0.581915 0.074614 0.973464
O O4 0.574485 0.206386 0.974353
O O5 0.134176 0.910963 0.810555
O O6 0.250000 0.977041 0.000000
O O7 0.136364 0.898381 0.106435
O O8 0.073819 0.006835 0.995298
O O9 0.121439 0.776928 0.159085
O O10 0.140695 0.676423 0.961220
O O11 0.000000 0.750000 0.954650
O O12 0.167062 0.794692 0.878148
O O13 0.263204 0.153251 0.827694
O O14 0.431251 0.804544 0.351881
O O15 0.575804 0.943662 0.994627
O O16 0.750000 0.917951 0.000000
O O17 0.972606 0.000000 0.250000
#
# Coordination Sequence:
#
# PCOD9333216 Si02
#       8
#     8   8   8   8   8   8   8   4
#     4  11  23  42  67  90 140 178 227 280 364 419
#     4   9  17  36  65 101 130 168 227 286 337 405
#     4  11  17  33  64  98 126 161 224 300 342 384
#     4  10  18  36  63  95 125 169 222 294 345 410
#     4  10  22  36  61  92 139 178 231 273 339 416
#     4  11  21  37  70 100 121 167 236 294 346 409
#     4  10  20  39  66  97 130 166 212 288 355 414
#     4  12  26  42  62  92 146 200 218 278 356 434
#
# _framework density 23.240197999999999
#
# number of rings (size 3 to 8) (size 9 to 14) (size 15 to 20)
#    0.000    1.600    4.667    3.600    0.000    0.533 
#    2.400    0.667   20.533    0.000    0.000    0.000 
#    0.000    0.000    0.000    0.000    0.000    0.000 
#
# Total GULP energy -167333.043390 kJ/mol
# GULP energy per Si atom -5577.768113 kJ/mol
# Density = 2.318730 g / cm^3
# Si number density = 23.240198 Si / 1000 Ang^3
#
#
#
# Elastic Constant Matrix: (Units=GPa)
#
#
# Indices 1 2 3 4 5 6 
#
# 1 93.1089 -23.0169 14.2520 0.0000 0.0000 0.0000
# 2 -23.0169 61.2475 5.6997 0.0000 0.0000 0.0000
# 3 14.2520 5.6997 48.2354 0.0000 0.0000 0.0000
# 4 0.0000 0.0000 0.0000 18.2243 0.0000 0.0000
# 5 0.0000 0.0000 0.0000 0.0000 0.8516 0.0000
# 6 0.0000 0.0000 0.0000 0.0000 0.0000 3.2873
#
#
#
# Elastic Compliance Matrix: (Units=1/GPa)
#
#
# Indices 1 2 3 4 5 6 
#
# 1 0.012686 0.005173 -0.004360 0.000000 0.000000 0.000000
# 2 0.005173 0.018618 -0.003729 0.000000 0.000000 0.000000
# 3 -0.004360 -0.003729 0.022460 0.000000 -0.000001 0.000000
# 4 0.000000 0.000000 0.000000 0.054872 0.000000 0.000000
# 5 0.000000 0.000000 -0.000001 0.000000 1.174246 0.000000
# 6 0.000000 0.000000 0.000000 0.000000 0.000000 0.304198
#
#
# Mechanical properties :
#
#
# Convention : Reuss Voigt Hill
#
# Bulk Modulus (GPa) = 20.86157 21.82903 21.34530
# Shear Modulus (GPa) = 3.10773 18.18311 10.64542
#
# Velocity S-wave (km/s) = 1.15764 2.80017 2.14256
# Velocity P-wave (km/s) = 3.28372 4.45733 3.91476
#
# Compressibility (1/GPa) = 0.04793503
#
# Stress axis : x y z
#
# Youngs Moduli (GPa) = 78.82527 53.71064 44.52283
#
# Poissons Ratio (x) = -0.27786 0.19411
# Poissons Ratio (y) = -0.40778 0.16600
# Poissons Ratio (z) = 0.34365 0.20026
#
# Static dielectric constant tensor:
#      x y z
#    x 1.859700 0.000000 0.000000 
#    y 0.000000 1.881690 0.000000 
#    z 0.000000 0.000000 1.971000 
# 
# From -- ./inp_files/13318.got.cif
#   From: 2010.05.17/outbox.cif.g08.bks.cpg/sg24_7_cif.got.tgz:13318.got - 2010.06.04 00:33:39.
