data_PCOD9333399
_publ_section_title
;
Structure prediction by ZEFSAII (Michael W. Deem and Ramdas Pophale) SiO2 
 PCOD9333399
Probable space group: I 21 21 21
;
_chemical_formula_sum "Si O2"
_cell_formula_units_Z 48
_cell_length_a 21.381928
_cell_length_b 8.043887
_cell_length_c 15.153180
_cell_angle_alpha 90.000000
_cell_angle_beta 90.000000
_cell_angle_gamma 90.000000
_cell_volume 2606.253202
_symmetry_space_group_name_H-M "I 21 21 21"
_symmetry_group_IT_number 24
_symmetry_cell_setting 'orthorhombic'
loop_
_space_group_symop_operation_xyz
x,y,z
-x,1/2-y,z
x,-y,1/2-z
1/2-x,y,-z
1/2+x,1/2+y,1/2+z
1/2-x,-y,1/2+z
1/2+x,1/2-y,-z
-x,1/2+y,1/2-z
loop_
_atom_site_type_symbol
_atom_site_label
_atom_site_fract_x
_atom_site_fract_y
_atom_site_fract_z
Si Si1 0.290312 0.693536 0.281822
Si Si2 0.830911 0.679697 0.083878
Si Si3 0.187723 0.734446 0.903616
Si Si4 0.677649 0.131994 0.030730
Si Si5 0.431591 0.314651 0.710782
Si Si6 0.157039 0.190329 0.147019
O O1 0.291482 0.500000 0.250000
O O2 0.322704 0.779654 0.197910
O O3 0.324300 0.724230 0.374934
O O4 0.217844 0.736891 0.301864
O O5 0.763758 0.768826 0.093708
O O6 0.884462 0.789359 0.128795
O O7 0.828503 0.501143 0.128955
O O8 0.836865 0.644983 0.979373
O O9 0.163023 0.556907 0.939761
O O10 0.750000 0.133900 0.000000
O O11 0.645457 0.212356 0.945373
O O12 0.500000 0.250000 0.687599
O O13 0.432452 0.500000 0.750000
O O14 0.401989 0.206852 0.789798
#
# Coordination Sequence:
#
# PCOD9333399 Si02
#       6
#     8   8   8   8   8   8
#     4   9  18  30  50  73 103 144 180 215 267 330
#     4  11  22  33  49  79 110 142 180 232 271 331
#     4  10  19  32  49  75 110 147 180 221 279 331
#     4   9  17  30  49  71 103 141 185 212 270 328
#     4  12  25  41  60  78 106 148 191 232 276 329
#     4  11  21  34  51  77 110 145 183 230 272 327
#
# _framework density 18.417242000000002
#
# number of rings (size 3 to 8) (size 9 to 14) (size 15 to 20)
#    0.000    1.667    3.333    3.000    9.333    0.000 
#    0.000    0.000    0.000    0.000    0.000    1.167 
#    0.000    0.000    0.000    0.000    0.000    0.000 
#
# Total GULP energy -133748.828745 kJ/mol
# GULP energy per Si atom -5572.867864 kJ/mol
# Density = 1.837532 g / cm^3
# Si number density = 18.417242 Si / 1000 Ang^3
#
#
#
# Elastic Constant Matrix: (Units=GPa)
#
#
# Indices 1 2 3 4 5 6 
#
# 1 54.9694 16.3238 24.1124 0.0000 0.0000 0.0000
# 2 16.3238 50.5728 22.4786 0.0000 0.0000 0.0000
# 3 24.1124 22.4786 156.1094 0.0000 0.0000 0.0000
# 4 0.0000 0.0000 0.0000 27.5276 0.0000 0.0000
# 5 0.0000 0.0000 0.0000 0.0000 18.5232 0.0000
# 6 0.0000 0.0000 0.0000 0.0000 0.0000 11.6683
#
#
#
# Elastic Compliance Matrix: (Units=1/GPa)
#
#
# Indices 1 2 3 4 5 6 
#
# 1 0.020940 -0.005685 -0.002416 0.000000 0.000000 0.000000
# 2 -0.005685 0.022669 -0.002386 0.000000 0.000000 0.000000
# 3 -0.002416 -0.002386 0.007122 0.000000 0.000000 0.000000
# 4 0.000000 0.000000 0.000000 0.036327 0.000000 0.000000
# 5 0.000000 0.000000 0.000000 0.000000 0.053986 0.000000
# 6 0.000000 0.000000 0.000000 0.000000 0.000000 0.085702
#
#
# Mechanical properties :
#
#
# Convention : Reuss Voigt Hill
#
# Bulk Modulus (GPa) = 33.60495 43.05344 38.32920
# Shear Modulus (GPa) = 19.40693 24.79295 22.09994
#
# Velocity S-wave (km/s) = 3.24965 3.67302 3.46780
# Velocity P-wave (km/s) = 5.68915 6.43549 6.07379
#
# Compressibility (1/GPa) = 0.02975752
#
# Stress axis : x y z
#
# Youngs Moduli (GPa) = 47.75572 44.11291 140.40084
#
# Poissons Ratio (x) = 0.25079 0.33917
# Poissons Ratio (y) = 0.27150 0.33500
# Poissons Ratio (z) = 0.11536 0.10526
#
# Static dielectric constant tensor:
#      x y z
#    x 1.587620 0.000000 0.000000 
#    y 0.000000 1.698190 0.000000 
#    z 0.000000 0.000000 1.767170 
# 
# From -- ./inp_files/27039.got.cif
#   From: 2010.05.17/outbox.cif.g08.bks.cpg/sg24_14_cif.got.tgz:27039.got - 2010.06.04 00:33:39.
