data_PCOD9333149
_publ_section_title
;
Structure prediction by ZEFSAII (Michael W. Deem and Ramdas Pophale) SiO2 
 PCOD9333149
Probable space group: I 21 21 21
;
_chemical_formula_sum "Si O2"
_cell_formula_units_Z 40
_cell_length_a 7.746547
_cell_length_b 27.498371
_cell_length_c 8.861143
_cell_angle_alpha 90.000000
_cell_angle_beta 90.000000
_cell_angle_gamma 90.000000
_cell_volume 1887.577850
_symmetry_space_group_name_H-M "I 21 21 21"
_symmetry_group_IT_number 24
_symmetry_cell_setting 'orthorhombic'
loop_
_space_group_symop_operation_xyz
x,y,z
-x,1/2-y,z
x,-y,1/2-z
1/2-x,y,-z
1/2+x,1/2+y,1/2+z
1/2-x,-y,1/2+z
1/2+x,1/2-y,-z
-x,1/2+y,1/2-z
loop_
_atom_site_type_symbol
_atom_site_label
_atom_site_fract_x
_atom_site_fract_y
_atom_site_fract_z
Si Si1 0.445509 0.836546 0.056108
Si Si2 0.437013 0.538589 0.473805
Si Si3 0.661956 0.283468 0.149453
Si Si4 0.460665 0.060440 0.343354
Si Si5 0.854577 0.500000 0.250000
Si Si6 0.500000 0.250000 0.664649
O O1 0.427728 0.817323 0.226181
O O2 0.507648 0.891721 0.065014
O O3 0.250000 0.840278 0.000000
O O4 0.529058 0.796648 0.945636
O O5 0.250000 0.559374 0.500000
O O6 0.425057 0.483959 0.404878
O O7 0.518585 0.568332 0.336476
O O8 0.538255 0.530947 0.629060
O O9 0.500000 0.250000 0.100153
O O10 0.825000 0.258372 0.238055
O O11 0.750000 0.305703 0.000000
O O12 0.268057 0.037214 0.341763
#
# Coordination Sequence:
#
# PCOD9333149 Si02
#       6
#     8   8   8   8   4   4
#     4  10  21  39  64  93 121 159 216 259 312 377
#     4  10  20  36  58  86 125 157 194 249 312 362
#     4  11  22  40  66  91 126 169 212 262 326 379
#     4  10  20  37  60  87 116 158 205 249 299 367
#     4  10  18  34  62  86 116 160 202 242 298 378
#     4  10  22  42  68  90 126 172 208 274 312 382
#
# _framework density 21.191177
#
# number of rings (size 3 to 8) (size 9 to 14) (size 15 to 20)
#    0.000    2.000    2.000    4.800    0.000    1.600 
#    3.600    1.000    8.800    0.000    0.000    0.000 
#    0.000    0.000    0.000    0.000    0.000    0.000 
#
# Total GULP energy -111405.771388 kJ/mol
# GULP energy per Si atom -5570.288569 kJ/mol
# Density = 2.114294 g / cm^3
# Si number density = 21.191177 Si / 1000 Ang^3
#
#
#
# Elastic Constant Matrix: (Units=GPa)
#
#
# Indices 1 2 3 4 5 6 
#
# 1 68.2861 -7.4824 17.5591 0.0000 0.0000 -0.0001
# 2 -7.4824 65.3138 5.3569 0.0000 0.0000 -0.0003
# 3 17.5591 5.3569 111.6171 0.0004 0.0000 -0.0015
# 4 0.0000 0.0000 0.0004 9.0941 0.0000 -0.0005
# 5 0.0000 0.0000 0.0000 0.0000 40.3594 0.0001
# 6 -0.0001 -0.0003 -0.0015 -0.0005 0.0001 -61.3719
#
#
#
# Elastic Compliance Matrix: (Units=1/GPa)
#
#
# Indices 1 2 3 4 5 6 
#
# 1 0.015514 0.001985 -0.002536 0.000000 0.000000 0.000000
# 2 0.001985 0.015625 -0.001062 0.000000 0.000000 0.000000
# 3 -0.002536 -0.001062 0.009409 0.000000 0.000000 0.000000
# 4 0.000000 0.000000 0.000000 0.109962 0.000000 -0.000001
# 5 0.000000 0.000000 0.000000 0.000000 0.024777 0.000000
# 6 0.000000 0.000000 0.000000 -0.000001 0.000000 -0.016294
#
#
# Mechanical properties :
#
#
# Convention : Reuss Voigt Hill
#
# Bulk Modulus (GPa) = 26.79341 30.67602 28.73471
# Shear Modulus (GPa) = 28.62711 12.93522 20.78117
#
# Velocity S-wave (km/s) = 3.67944 2.47332 3.13493
# Velocity P-wave (km/s) = 5.54276 4.76064 5.16652
#
# Compressibility (1/GPa) = 0.03732262
#
# Stress axis : x y z
#
# Youngs Moduli (GPa) = 64.45842 63.99900 106.27996
#
# Poissons Ratio (x) = -0.12706 0.26951
# Poissons Ratio (y) = -0.12797 0.11289
# Poissons Ratio (z) = 0.16346 0.06798
#
# Static dielectric constant tensor:
#      x y z
#    x 1.782640 0.000000 0.000000 
#    y 0.000000 1.750360 0.000000 
#    z 0.000000 0.000000 1.874850 
# 
# From -- ./inp_files/9514.got.cif
#   From: 2010.05.17/outbox.cif.g08.bks.cpg/sg24_5_cif.got.tgz:9514.got - 2010.06.04 00:33:39.
