data_PCOD9333934
_publ_section_title
;
Structure prediction by ZEFSAII (Michael W. Deem and Ramdas Pophale) SiO2 
 PCOD9333934
Probable space group: I 21 21 21
;
_chemical_formula_sum "Si O2"
_cell_formula_units_Z 60
_cell_length_a 16.419703
_cell_length_b 7.216546
_cell_length_c 26.896891
_cell_angle_alpha 90.000000
_cell_angle_beta 90.000000
_cell_angle_gamma 90.000000
_cell_volume 3187.107884
_symmetry_space_group_name_H-M "I 21 21 21"
_symmetry_group_IT_number 24
_symmetry_cell_setting 'orthorhombic'
loop_
_space_group_symop_operation_xyz
x,y,z
-x,1/2-y,z
x,-y,1/2-z
1/2-x,y,-z
1/2+x,1/2+y,1/2+z
1/2-x,-y,1/2+z
1/2+x,1/2-y,-z
-x,1/2+y,1/2-z
loop_
_atom_site_type_symbol
_atom_site_label
_atom_site_fract_x
_atom_site_fract_y
_atom_site_fract_z
Si Si1 0.287218 0.903885 0.854062
Si Si2 0.210931 0.790014 0.578476
Si Si3 0.121165 0.747574 0.480375
Si Si4 0.574997 0.394676 0.572240
Si Si5 0.220506 0.000000 0.750000
Si Si6 0.091126 0.667739 0.984849
Si Si7 0.170064 0.598251 0.879972
Si Si8 0.407734 0.311467 0.278363
O O1 0.376825 0.911674 0.876685
O O2 0.252567 0.697387 0.861708
O O3 0.230698 0.032476 0.888899
O O4 0.275585 0.982899 0.799042
O O5 0.147003 0.827723 0.534386
O O6 0.295356 0.729131 0.551530
O O7 0.180906 0.621084 0.612677
O O8 0.089556 0.542643 0.494195
O O9 0.067647 0.897426 0.450127
O O10 0.500000 0.250000 0.577923
O O11 0.628085 0.292242 0.529181
O O12 0.158193 0.170214 0.743744
O O13 0.140920 0.667132 0.934038
O O14 0.000000 0.750000 0.976025
O O15 0.107262 0.655479 0.836968
O O16 0.500000 0.250000 0.269849
O O17 0.393648 0.500000 0.250000
#
# Coordination Sequence:
#
# PCOD9333934 Si02
#       8
#     8   8   8   8   4   8   8   8
#     4  10  20  36  57  83 106 142 188 238 285 344
#     4   9  17  32  54  81 109 144 187 229 276 330
#     4   9  18  32  52  78 113 148 184 226 273 341
#     4  10  21  35  55  81 109 147 182 232 292 358
#     4  10  22  38  58  86 110 144 190 244 286 332
#     4  10  20  33  50  79 117 151 185 229 282 338
#     4  10  20  33  54  81 112 148 192 234 274 331
#     4  11  21  36  56  79 114 154 196 235 276 328
#
# _framework density 18.825845999999999
#
# number of rings (size 3 to 8) (size 9 to 14) (size 15 to 20)
#    0.000    2.133    0.667    2.800    0.000    4.800 
#    0.000    0.000    2.933    0.000   24.267    0.000 
#    0.000    0.000    0.000    0.000    0.000    0.000 
#
# Total GULP energy -167230.296891 kJ/mol
# GULP energy per Si atom -5574.343230 kJ/mol
# Density = 1.878300 g / cm^3
# Si number density = 18.825846 Si / 1000 Ang^3
#
#
#
# Elastic Constant Matrix: (Units=GPa)
#
#
# Indices 1 2 3 4 5 6 
#
# 1 48.0267 32.8308 38.7166 0.0000 0.0000 0.0000
# 2 32.8308 111.9020 44.2957 0.0000 0.0000 0.0000
# 3 38.7166 44.2957 109.8504 0.0000 0.0000 0.0000
# 4 0.0000 0.0000 0.0000 26.5178 0.0000 0.0000
# 5 0.0000 0.0000 0.0000 0.0000 18.2977 0.0000
# 6 0.0000 0.0000 0.0000 0.0000 0.0000 16.5553
#
#
#
# Elastic Compliance Matrix: (Units=1/GPa)
#
#
# Indices 1 2 3 4 5 6 
#
# 1 0.032022 -0.005863 -0.008922 0.000000 0.000000 0.000000
# 2 -0.005863 0.011707 -0.002654 0.000000 0.000000 0.000000
# 3 -0.008922 -0.002654 0.013318 0.000000 0.000000 0.000000
# 4 0.000000 0.000000 0.000000 0.037711 0.000000 0.000000
# 5 0.000000 0.000000 0.000000 0.000000 0.054652 0.000000
# 6 0.000000 0.000000 0.000000 0.000000 0.000000 0.060404
#
#
# Mechanical properties :
#
#
# Convention : Reuss Voigt Hill
#
# Bulk Modulus (GPa) = 45.10871 55.71837 50.41354
# Shear Modulus (GPa) = 19.83482 22.53656 21.18569
#
# Velocity S-wave (km/s) = 3.24943 3.46368 3.35826
# Velocity P-wave (km/s) = 6.17183 6.75700 6.47103
#
# Compressibility (1/GPa) = 0.02216867
#
# Stress axis : x y z
#
# Youngs Moduli (GPa) = 31.22833 85.41676 75.08575
#
# Poissons Ratio (x) = 0.50082 0.66991
# Poissons Ratio (y) = 0.18310 0.19930
# Poissons Ratio (z) = 0.27862 0.22672
#
# Static dielectric constant tensor:
#      x y z
#    x 1.685700 0.000000 0.000000 
#    y 0.000000 1.665520 0.000000 
#    z 0.000000 0.000000 1.657460 
# 
# From -- ./inp_files/37533.got.cif
#   From: 2010.05.17/outbox.cif.g08.bks.cpg/sg24_19_cif.got.tgz:37533.got - 2010.06.04 00:33:39.
