data_PCOD9333848
_publ_section_title
;
Structure prediction by ZEFSAII (Michael W. Deem and Ramdas Pophale) SiO2 
 PCOD9333848
Probable space group: I 21 21 21
;
_chemical_formula_sum "Si O2"
_cell_formula_units_Z 36
_cell_length_a 20.786017
_cell_length_b 13.088915
_cell_length_c 6.137956
_cell_angle_alpha 90.000000
_cell_angle_beta 90.000000
_cell_angle_gamma 90.000000
_cell_volume 1669.931652
_symmetry_space_group_name_H-M "I 21 21 21"
_symmetry_group_IT_number 24
_symmetry_cell_setting 'orthorhombic'
loop_
_space_group_symop_operation_xyz
x,y,z
-x,1/2-y,z
x,-y,1/2-z
1/2-x,y,-z
1/2+x,1/2+y,1/2+z
1/2-x,-y,1/2+z
1/2+x,1/2-y,-z
-x,1/2+y,1/2-z
loop_
_atom_site_type_symbol
_atom_site_label
_atom_site_fract_x
_atom_site_fract_y
_atom_site_fract_z
Si Si1 0.250000 0.958748 0.500000
Si Si2 0.371721 0.674232 0.719841
Si Si3 0.053124 0.835440 0.989664
Si Si4 0.750000 0.204427 0.500000
Si Si5 0.340105 0.192216 0.156317
Si Si6 0.522988 0.000000 0.750000
O O1 0.313695 0.890515 0.508778
O O2 0.254930 0.000000 0.250000
O O3 0.351342 0.705732 0.479527
O O4 0.426806 0.589834 0.690923
O O5 0.404915 0.774183 0.829526
O O6 0.308939 0.648140 0.870549
O O7 0.098890 0.848896 0.784056
O O8 0.000000 0.750000 0.929687
O O9 0.022011 0.939953 0.077305
O O10 0.714545 0.277238 0.328359
#
# Coordination Sequence:
#
# PCOD9333848 Si02
#       6
#     4   8   8   4   8   4
#     4  12  27  42  69 112 144 184 250 305 373 458
#     4  10  21  41  72  96 141 186 232 307 368 434
#     4   9  22  42  68  99 138 185 235 295 364 442
#     4  10  19  42  65 100 130 188 238 289 379 430
#     4  11  22  43  70  91 142 188 226 301 370 435
#     4  10  22  46  68 108 142 178 256 296 364 464
#
# _framework density 21.557767999999999
#
# number of rings (size 3 to 8) (size 9 to 14) (size 15 to 20)
#    0.000    1.778    2.222    0.667    3.111    4.444 
#    4.000   15.556    0.000    0.000    0.000    0.000 
#    0.000    0.000    0.000    0.000    0.000    0.000 
#
# Total GULP energy -100277.182587 kJ/mol
# GULP energy per Si atom -5570.954588 kJ/mol
# Density = 2.150870 g / cm^3
# Si number density = 21.557768 Si / 1000 Ang^3
#
#
#
# Elastic Constant Matrix: (Units=GPa)
#
#
# Indices 1 2 3 4 5 6 
#
# 1 132.4593 37.9132 55.4123 0.0000 0.0000 0.0000
# 2 37.9132 72.5900 44.9848 0.0000 0.0000 0.0000
# 3 55.4123 44.9848 93.5175 0.0000 0.0000 0.0000
# 4 0.0000 0.0000 0.0000 12.5184 0.0000 0.0000
# 5 0.0000 0.0000 0.0000 0.0000 46.8246 0.0000
# 6 0.0000 0.0000 0.0000 0.0000 0.0000 36.1966
#
#
#
# Elastic Compliance Matrix: (Units=1/GPa)
#
#
# Indices 1 2 3 4 5 6 
#
# 1 0.010295 -0.002275 -0.005006 0.000000 0.000000 0.000000
# 2 -0.002275 0.020129 -0.008335 0.000000 0.000000 0.000000
# 3 -0.005006 -0.008335 0.017669 0.000000 0.000000 0.000000
# 4 0.000000 0.000000 0.000000 0.079882 0.000000 0.000000
# 5 0.000000 0.000000 0.000000 0.000000 0.021356 0.000000
# 6 0.000000 0.000000 0.000000 0.000000 0.000000 0.027627
#
#
# Mechanical properties :
#
#
# Convention : Reuss Voigt Hill
#
# Bulk Modulus (GPa) = 59.30575 63.90971 61.60773
# Shear Modulus (GPa) = 23.38529 29.79169 26.58849
#
# Velocity S-wave (km/s) = 3.29716 3.72149 3.51573
# Velocity P-wave (km/s) = 6.48575 6.94090 6.71718
#
# Compressibility (1/GPa) = 0.01686177
#
# Stress axis : x y z
#
# Youngs Moduli (GPa) = 97.13791 49.67875 56.59748
#
# Poissons Ratio (x) = 0.11301 0.28331
# Poissons Ratio (y) = 0.22096 0.47174
# Poissons Ratio (z) = 0.48625 0.41407
#
# Static dielectric constant tensor:
#      x y z
#    x 1.804490 0.000000 0.000000 
#    y 0.000000 1.802920 0.000000 
#    z 0.000000 0.000000 1.825950 
# 
# From -- ./inp_files/3383.got.cif
#   From: 2010.05.17/outbox.cif.g08.bks.cpg/sg24_2_cif.got.tgz:3383.got - 2010.06.04 00:33:39.
