data_PCOD9333641
_publ_section_title
;
Structure prediction by ZEFSAII (Michael W. Deem and Ramdas Pophale) SiO2 
 PCOD9333641
Probable space group: I 21 21 21
;
_chemical_formula_sum "Si O2"
_cell_formula_units_Z 48
_cell_length_a 18.765994
_cell_length_b 9.384301
_cell_length_c 13.494322
_cell_angle_alpha 90.000000
_cell_angle_beta 90.000000
_cell_angle_gamma 90.000000
_cell_volume 2376.427511
_symmetry_space_group_name_H-M "I 21 21 21"
_symmetry_group_IT_number 24
_symmetry_cell_setting 'orthorhombic'
loop_
_space_group_symop_operation_xyz
x,y,z
-x,1/2-y,z
x,-y,1/2-z
1/2-x,y,-z
1/2+x,1/2+y,1/2+z
1/2-x,-y,1/2+z
1/2+x,1/2-y,-z
-x,1/2+y,1/2-z
loop_
_atom_site_type_symbol
_atom_site_label
_atom_site_fract_x
_atom_site_fract_y
_atom_site_fract_z
Si Si1 0.500000 0.750000 0.164241
Si Si2 0.724397 0.500000 0.250000
Si Si3 0.147901 0.000262 0.113207
Si Si4 0.581977 0.276195 0.765565
Si Si5 0.670416 0.000000 0.750000
Si Si6 0.711813 0.039676 0.407388
Si Si7 0.094652 0.500000 0.750000
Si Si8 0.643893 0.657822 0.085077
O O1 0.455332 0.634428 0.226477
O O2 0.559525 0.673819 0.097811
O O3 0.778783 0.447412 0.164731
O O4 0.676155 0.612060 0.191323
O O5 0.120428 0.862254 0.175710
O O6 0.091013 0.121757 0.139080
O O7 0.158478 0.954794 0.001136
O O8 0.500000 0.250000 0.741168
O O9 0.621297 0.128526 0.785476
O O10 0.723266 0.937684 0.832230
O O11 0.750000 0.963702 0.500000
O O12 0.679107 0.190829 0.441707
O O13 0.647585 0.971416 0.343388
#
# Coordination Sequence:
#
# PCOD9333641 Si02
#       8
#     4   4   8   8   4   8   4   8
#     4  10  22  40  62  92 122 174 206 252 336 378
#     4  10  19  35  61  89 122 156 208 270 312 353
#     4  10  22  39  63  94 122 167 222 261 319 392
#     4  10  21  39  59  90 129 167 203 262 326 381
#     4  11  20  37  63  86 129 158 206 268 315 380
#     4  10  20  38  63  91 114 160 216 260 316 372
#     4   9  21  40  62  89 127 158 210 264 311 399
#     4  11  21  38  65  92 124 165 218 263 314 400
#
# _framework density 20.198385999999999
#
# number of rings (size 3 to 8) (size 9 to 14) (size 15 to 20)
#    0.000    2.000    0.000    6.000    1.167    0.000 
#    6.000   10.000    1.833    0.000    0.000    0.000 
#    0.000    0.000    0.000    0.000    0.000    0.000 
#
# Total GULP energy -133860.636038 kJ/mol
# GULP energy per Si atom -5577.526502 kJ/mol
# Density = 2.015241 g / cm^3
# Si number density = 20.198386 Si / 1000 Ang^3
#
#
#
# Elastic Constant Matrix: (Units=GPa)
#
#
# Indices 1 2 3 4 5 6 
#
# 1 134.4632 25.3583 44.7216 0.0000 0.0000 0.0000
# 2 25.3583 71.1351 24.9046 0.0000 0.0000 0.0000
# 3 44.7216 24.9046 102.8268 0.0000 0.0000 0.0000
# 4 0.0000 0.0000 0.0000 28.1221 0.0000 0.0000
# 5 0.0000 0.0000 0.0000 0.0000 23.0538 0.0000
# 6 0.0000 0.0000 0.0000 0.0000 0.0000 14.8843
#
#
#
# Elastic Compliance Matrix: (Units=1/GPa)
#
#
# Indices 1 2 3 4 5 6 
#
# 1 0.008947 -0.001996 -0.003408 0.000000 0.000000 0.000000
# 2 -0.001996 0.015806 -0.002960 0.000000 0.000000 0.000000
# 3 -0.003408 -0.002960 0.011924 0.000000 0.000000 0.000000
# 4 0.000000 0.000000 0.000000 0.035559 0.000000 0.000000
# 5 0.000000 0.000000 0.000000 0.000000 0.043377 0.000000
# 6 0.000000 0.000000 0.000000 0.000000 0.000000 0.067185
#
#
# Mechanical properties :
#
#
# Convention : Reuss Voigt Hill
#
# Bulk Modulus (GPa) = 50.12836 55.37714 52.75275
# Shear Modulus (GPa) = 24.25127 27.44140 25.84634
#
# Velocity S-wave (km/s) = 3.46880 3.68991 3.58106
# Velocity P-wave (km/s) = 6.39651 6.75500 6.57820
#
# Compressibility (1/GPa) = 0.01994879
#
# Stress axis : x y z
#
# Youngs Moduli (GPa) = 111.77135 63.26837 83.86418
#
# Poissons Ratio (x) = 0.12631 0.28578
# Poissons Ratio (y) = 0.22313 0.24823
# Poissons Ratio (z) = 0.38088 0.18727
#
# Static dielectric constant tensor:
#      x y z
#    x 1.721140 0.000000 0.000000 
#    y 0.000000 1.716390 0.000000 
#    z 0.000000 0.000000 1.777250 
# 
# From -- ./inp_files/27088.got.cif
#   From: 2010.05.17/outbox.cif.g08.bks.cpg/sg24_14_cif.got.tgz:27088.got - 2010.06.04 00:33:39.
