data_PCOD9333446
_publ_section_title
;
Structure prediction by ZEFSAII (Michael W. Deem and Ramdas Pophale) SiO2 
 PCOD9333446
Probable space group: I 21 21 21
;
_chemical_formula_sum "Si O2"
_cell_formula_units_Z 48
_cell_length_a 7.960739
_cell_length_b 21.924906
_cell_length_c 15.310077
_cell_angle_alpha 90.000000
_cell_angle_beta 90.000000
_cell_angle_gamma 90.000000
_cell_volume 2672.197174
_symmetry_space_group_name_H-M "I 21 21 21"
_symmetry_group_IT_number 24
_symmetry_cell_setting 'orthorhombic'
loop_
_space_group_symop_operation_xyz
x,y,z
-x,1/2-y,z
x,-y,1/2-z
1/2-x,y,-z
1/2+x,1/2+y,1/2+z
1/2-x,-y,1/2+z
1/2+x,1/2-y,-z
-x,1/2+y,1/2-z
loop_
_atom_site_type_symbol
_atom_site_label
_atom_site_fract_x
_atom_site_fract_y
_atom_site_fract_z
Si Si1 0.421056 0.437012 0.707953
Si Si2 0.055565 0.819037 0.532061
Si Si3 0.958996 0.950576 0.852706
Si Si4 0.561100 0.461346 0.535955
Si Si5 0.507771 0.591764 0.615223
Si Si6 0.396450 0.086174 0.177053
O O1 0.489459 0.500000 0.750000
O O2 0.233781 0.448289 0.675065
O O3 0.537707 0.422982 0.625047
O O4 0.410224 0.396821 0.794659
O O5 0.250000 0.820050 0.500000
O O6 0.968858 0.855454 0.453046
O O7 0.029921 0.858929 0.619483
O O8 0.000000 0.750000 0.542520
O O9 0.065918 0.913140 0.780693
O O10 0.025970 0.020489 0.849652
O O11 0.970854 0.931699 0.953221
O O12 0.750000 0.470054 0.500000
O O13 0.485153 0.527390 0.563942
O O14 0.701328 0.587921 0.649064
#
# Coordination Sequence:
#
# PCOD9333446 Si02
#       6
#     8   8   8   8   8   8
#     4  10  21  29  44  73 104 130 170 213 262 310
#     4  10  21  38  55  77 103 142 187 222 258 307
#     4  11  19  32  47  75 106 135 172 218 272 313
#     4  11  18  30  49  70 100 142 171 199 255 325
#     4  10  19  34  50  71 103 144 179 212 254 323
#     4  10  19  33  51  70 104 140 175 216 258 323
#
# _framework density 17.962747
#
# number of rings (size 3 to 8) (size 9 to 14) (size 15 to 20)
#    0.000    1.667    5.000    2.000    4.667    1.333 
#    0.000    0.000    0.000    0.000    0.000    1.167 
#    0.000    0.000    0.000    0.000    0.000    0.000 
#
# Total GULP energy -133706.608260 kJ/mol
# GULP energy per Si atom -5571.108678 kJ/mol
# Density = 1.792186 g / cm^3
# Si number density = 17.962747 Si / 1000 Ang^3
#
#
#
# Elastic Constant Matrix: (Units=GPa)
#
#
# Indices 1 2 3 4 5 6 
#
# 1 49.2366 14.0879 35.2698 0.0000 0.0000 0.0000
# 2 14.0879 74.5846 52.8150 0.0000 0.0000 0.0000
# 3 35.2698 52.8150 186.6677 0.0000 0.0000 0.0000
# 4 0.0000 0.0000 0.0000 19.7318 0.0000 0.0000
# 5 0.0000 0.0000 0.0000 0.0000 29.2051 0.0000
# 6 0.0000 0.0000 0.0000 0.0000 0.0000 15.0191
#
#
#
# Elastic Compliance Matrix: (Units=1/GPa)
#
#
# Indices 1 2 3 4 5 6 
#
# 1 0.023647 -0.001629 -0.004007 0.000000 0.000000 0.000000
# 2 -0.001629 0.016879 -0.004468 0.000000 0.000000 0.000000
# 3 -0.004007 -0.004468 0.007378 0.000000 0.000000 0.000000
# 4 0.000000 0.000000 0.000000 0.050680 0.000000 0.000000
# 5 0.000000 0.000000 0.000000 0.000000 0.034241 0.000000
# 6 0.000000 0.000000 0.000000 0.000000 0.000000 0.066582
#
#
# Mechanical properties :
#
#
# Convention : Reuss Voigt Hill
#
# Bulk Modulus (GPa) = 36.10611 57.20380 46.65495
# Shear Modulus (GPa) = 21.84877 26.67896 24.26386
#
# Velocity S-wave (km/s) = 3.49139 3.85806 3.67929
# Velocity P-wave (km/s) = 6.03301 7.19452 6.63921
#
# Compressibility (1/GPa) = 0.02769615
#
# Stress axis : x y z
#
# Youngs Moduli (GPa) = 42.28950 59.24476 135.53194
#
# Poissons Ratio (x) = 0.09651 0.54307
# Poissons Ratio (y) = 0.06889 0.60554
# Poissons Ratio (z) = 0.16945 0.26470
#
# Static dielectric constant tensor:
#      x y z
#    x 1.691900 0.000000 0.000000 
#    y 0.000000 1.596630 0.000000 
#    z 0.000000 0.000000 1.732510 
# 
# From -- ./inp_files/24945.got.cif
#   From: 2010.05.17/outbox.cif.g08.bks.cpg/sg24_13_cif.got.tgz:24945.got - 2010.06.04 00:33:39.
