data_PCOD9333115
_publ_section_title
;
Structure prediction by ZEFSAII (Michael W. Deem and Ramdas Pophale) SiO2 
 PCOD9333115
Probable space group: I 21 21 21
;
_chemical_formula_sum "Si O2"
_cell_formula_units_Z 56
_cell_length_a 18.779633
_cell_length_b 8.503047
_cell_length_c 20.466004
_cell_angle_alpha 90.000000
_cell_angle_beta 90.000000
_cell_angle_gamma 90.000000
_cell_volume 3268.095471
_symmetry_space_group_name_H-M "I 21 21 21"
_symmetry_group_IT_number 24
_symmetry_cell_setting 'orthorhombic'
loop_
_space_group_symop_operation_xyz
x,y,z
-x,1/2-y,z
x,-y,1/2-z
1/2-x,y,-z
1/2+x,1/2+y,1/2+z
1/2-x,-y,1/2+z
1/2+x,1/2-y,-z
-x,1/2+y,1/2-z
loop_
_atom_site_type_symbol
_atom_site_label
_atom_site_fract_x
_atom_site_fract_y
_atom_site_fract_z
Si Si1 0.704092 0.846834 0.567178
Si Si2 0.059352 0.864875 0.584573
Si Si3 0.166990 0.023812 0.024504
Si Si4 0.297683 0.305227 0.566490
Si Si5 0.179982 0.698438 0.821481
Si Si6 0.169373 0.662243 0.669401
Si Si7 0.548165 0.398464 0.314716
O O1 0.750000 0.849440 0.500000
O O2 0.660097 0.685416 0.565713
O O3 0.760662 0.830557 0.625041
O O4 0.668150 0.019674 0.571128
O O5 0.111990 0.947411 0.533903
O O6 0.108870 0.767182 0.635563
O O7 0.000000 0.750000 0.554761
O O8 0.019022 0.994626 0.627483
O O9 0.156919 0.854367 0.058618
O O10 0.250000 0.021096 0.000000
O O11 0.250000 0.311740 0.500000
O O12 0.247018 0.288293 0.630208
O O13 0.189011 0.712267 0.743139
O O14 0.149092 0.522205 0.830074
O O15 0.123418 0.831250 0.838927
O O16 0.500000 0.250000 0.298870
O O17 0.556364 0.500000 0.250000
#
# Coordination Sequence:
#
# PCOD9333115 Si02
#       7
#     8   8   8   8   8   8   8
#     4   9  16  30  52  74  99 136 171 218 280 317
#     4  12  23  37  51  73 105 146 189 232 274 326
#     4  10  18  34  56  71  96 136 182 225 284 320
#     4   9  18  31  50  76  97 128 181 228 276 318
#     4  10  21  32  53  74 102 143 186 228 270 321
#     4  10  19  34  51  76 107 140 179 228 270 325
#     4  12  24  34  46  64  97 148 194 226 260 306
#
# _framework density 17.135363000000002
#
# number of rings (size 3 to 8) (size 9 to 14) (size 15 to 20)
#    0.000    1.714    4.286    3.000    2.000    0.000 
#    2.571    0.000    0.000    0.000    0.000    0.000 
#    0.000    0.000   19.429    0.286    0.000    0.000 
#
# Total GULP energy -155953.860882 kJ/mol
# GULP energy per Si atom -5569.780746 kJ/mol
# Density = 1.709636 g / cm^3
# Si number density = 17.135363 Si / 1000 Ang^3
#
#
#
# Elastic Constant Matrix: (Units=GPa)
#
#
# Indices 1 2 3 4 5 6 
#
# 1 22.7442 17.3526 27.8509 0.0000 0.0000 0.0000
# 2 17.3526 136.4068 29.3174 0.0000 0.0000 0.0000
# 3 27.8509 29.3174 69.1349 0.0000 0.0000 0.0000
# 4 0.0000 0.0000 0.0000 27.3911 0.0000 0.0000
# 5 0.0000 0.0000 0.0000 0.0000 9.5238 0.0000
# 6 0.0000 0.0000 0.0000 0.0000 0.0000 20.8602
#
#
#
# Elastic Compliance Matrix: (Units=1/GPa)
#
#
# Indices 1 2 3 4 5 6 
#
# 1 0.088678 -0.003964 -0.034043 0.000000 0.000000 0.000000
# 2 -0.003964 0.008243 -0.001899 0.000000 0.000000 0.000000
# 3 -0.034043 -0.001899 0.028984 0.000000 0.000000 0.000000
# 4 0.000000 0.000000 0.000000 0.036508 0.000000 0.000000
# 5 0.000000 0.000000 0.000000 0.000000 0.105000 0.000000
# 6 0.000000 0.000000 0.000000 0.000000 0.000000 0.047938
#
#
# Mechanical properties :
#
#
# Convention : Reuss Voigt Hill
#
# Bulk Modulus (GPa) = 21.69492 41.92528 31.81010
# Shear Modulus (GPa) = 12.17946 21.80602 16.99274
#
# Velocity S-wave (km/s) = 2.66894 3.57119 3.15251
# Velocity P-wave (km/s) = 4.71020 6.44397 5.64406
#
# Compressibility (1/GPa) = 0.04609373
#
# Stress axis : x y z
#
# Youngs Moduli (GPa) = 11.27676 121.30929 34.50212
#
# Poissons Ratio (x) = 0.48090 1.17455
# Poissons Ratio (y) = 0.04470 0.06551
# Poissons Ratio (z) = 0.38389 0.23033
#
# Static dielectric constant tensor:
#      x y z
#    x 1.552440 0.000000 0.000000 
#    y 0.000000 1.663210 0.000000 
#    z 0.000000 0.000000 1.562320 
# 
# From -- ./inp_files/29747.got.cif
#   From: 2010.05.17/outbox.cif.g08.bks.cpg/sg24_15_cif.got.tgz:29747.got - 2010.06.04 00:33:39.
