data_PCOD9333876
_publ_section_title
;
Structure prediction by ZEFSAII (Michael W. Deem and Ramdas Pophale) SiO2 
 PCOD9333876
Probable space group: I 21 21 21
;
_chemical_formula_sum "Si O2"
_cell_formula_units_Z 52
_cell_length_a 9.822915
_cell_length_b 25.253627
_cell_length_c 11.184650
_cell_angle_alpha 90.000000
_cell_angle_beta 90.000000
_cell_angle_gamma 90.000000
_cell_volume 2774.511606
_symmetry_space_group_name_H-M "I 21 21 21"
_symmetry_group_IT_number 24
_symmetry_cell_setting 'orthorhombic'
loop_
_space_group_symop_operation_xyz
x,y,z
-x,1/2-y,z
x,-y,1/2-z
1/2-x,y,-z
1/2+x,1/2+y,1/2+z
1/2-x,-y,1/2+z
1/2+x,1/2-y,-z
-x,1/2+y,1/2-z
loop_
_atom_site_type_symbol
_atom_site_label
_atom_site_fract_x
_atom_site_fract_y
_atom_site_fract_z
Si Si1 0.500000 0.750000 0.442527
Si Si2 0.416220 0.062792 0.740095
Si Si3 0.480118 0.167524 0.849772
Si Si4 0.659316 0.613744 0.119965
Si Si5 0.880544 0.791595 0.117279
Si Si6 0.096443 0.595135 0.015524
Si Si7 0.296651 0.218287 0.256791
O O1 0.507706 0.801715 0.527528
O O2 0.373609 0.755703 0.353264
O O3 0.457794 0.104008 0.846131
O O4 0.264762 0.080156 0.698993
O O5 0.524051 0.075502 0.635644
O O6 0.418033 0.000000 0.750000
O O7 0.590629 0.184183 0.750481
O O8 0.342658 0.193298 0.795097
O O9 0.626595 0.668548 0.186032
O O10 0.750000 0.625371 0.000000
O O11 0.518213 0.585755 0.085137
O O12 0.891014 0.841422 0.031393
O O13 0.742941 0.758952 0.138475
O O14 0.000000 0.750000 0.089878
O O15 0.250000 0.574442 0.000000
#
# Coordination Sequence:
#
# PCOD9333876 Si02
#       7
#     4   8   8   8   8   8   8
#     4  12  20  30  50  76 124 150 186 230 282 348
#     4   9  19  40  66  81 104 150 207 249 297 358
#     4   9  18  34  54  75 108 157 183 235 294 337
#     4   9  19  38  56  82 112 145 195 246 286 345
#     4   9  17  32  51  75 107 155 194 215 275 347
#     4  10  21  34  57  82 119 145 179 244 304 347
#     4  10  20  31  48  80 115 149 195 226 269 341
#
# _framework density 18.742038000000001
#
# number of rings (size 3 to 8) (size 9 to 14) (size 15 to 20)
#    0.000    2.462    2.308    3.231    2.154    1.846 
#    0.000   10.000    6.769    0.000    0.000    0.000 
#    0.000    0.000    0.000    0.000    0.000    0.000 
#
# Total GULP energy -144863.720834 kJ/mol
# GULP energy per Si atom -5571.681571 kJ/mol
# Density = 1.869938 g / cm^3
# Si number density = 18.742038 Si / 1000 Ang^3
#
#
#
# Elastic Constant Matrix: (Units=GPa)
#
#
# Indices 1 2 3 4 5 6 
#
# 1 94.2847 24.5875 21.6196 0.0000 0.0001 0.0000
# 2 24.5875 134.1963 27.8394 -0.0001 -0.0001 0.0000
# 3 21.6196 27.8394 40.1779 -0.0006 -0.0019 -0.0003
# 4 0.0000 -0.0001 -0.0006 13.8153 -0.0001 0.0000
# 5 0.0001 -0.0001 -0.0019 -0.0001 24.6764 -0.0002
# 6 0.0000 0.0000 -0.0003 0.0000 -0.0002 10.1349
#
#
#
# Elastic Compliance Matrix: (Units=1/GPa)
#
#
# Indices 1 2 3 4 5 6 
#
# 1 0.012218 -0.001022 -0.005867 0.000000 0.000000 0.000000
# 2 -0.001022 0.008788 -0.005540 0.000000 0.000000 0.000000
# 3 -0.005867 -0.005540 0.031885 0.000001 0.000002 0.000001
# 4 0.000000 0.000000 0.000001 0.072383 0.000000 0.000000
# 5 0.000000 0.000000 0.000002 0.000000 0.040525 0.000001
# 6 0.000000 0.000000 0.000001 0.000000 0.000001 0.098669
#
#
# Mechanical properties :
#
#
# Convention : Reuss Voigt Hill
#
# Bulk Modulus (GPa) = 35.66969 46.30578 40.98773
# Shear Modulus (GPa) = 16.74101 22.69948 19.72025
#
# Velocity S-wave (km/s) = 2.99194 3.48394 3.24727
# Velocity P-wave (km/s) = 5.56856 6.39877 5.99805
#
# Compressibility (1/GPa) = 0.02803501
#
# Stress axis : x y z
#
# Youngs Moduli (GPa) = 81.84801 113.78956 31.36317
#
# Poissons Ratio (x) = 0.11624 0.18399
# Poissons Ratio (y) = 0.08361 0.17374
# Poissons Ratio (z) = 0.48016 0.63036
#
# Static dielectric constant tensor:
#      x y z
#    x 1.707250 0.000000 0.000000 
#    y 0.000000 1.651690 0.000000 
#    z 0.000000 0.000000 1.659500 
# 
# From -- ./inp_files/18768.got.cif
#   From: 2010.05.17/outbox.cif.g08.bks.cpg/sg24_10_cif.got.tgz:18768.got - 2010.06.04 00:33:39.
