data_PCOD9333638
_publ_section_title
;
Structure prediction by ZEFSAII (Michael W. Deem and Ramdas Pophale) SiO2 
 PCOD9333638
Probable space group: I 21 21 21
;
_chemical_formula_sum "Si O2"
_cell_formula_units_Z 56
_cell_length_a 13.669433
_cell_length_b 11.568879
_cell_length_c 15.272587
_cell_angle_alpha 90.000000
_cell_angle_beta 90.000000
_cell_angle_gamma 90.000000
_cell_volume 2415.207158
_symmetry_space_group_name_H-M "I 21 21 21"
_symmetry_group_IT_number 24
_symmetry_cell_setting 'orthorhombic'
loop_
_space_group_symop_operation_xyz
x,y,z
-x,1/2-y,z
x,-y,1/2-z
1/2-x,y,-z
1/2+x,1/2+y,1/2+z
1/2-x,-y,1/2+z
1/2+x,1/2-y,-z
-x,1/2+y,1/2-z
loop_
_atom_site_type_symbol
_atom_site_label
_atom_site_fract_x
_atom_site_fract_y
_atom_site_fract_z
Si Si1 0.789345 0.070103 0.160983
Si Si2 0.145304 0.752167 0.457637
Si Si3 0.169775 0.993546 0.078647
Si Si4 0.303835 0.362845 0.422162
Si Si5 0.482911 0.112834 0.454597
Si Si6 0.389328 0.753681 0.344689
Si Si7 0.678412 0.635399 0.186176
O O1 0.869529 0.152833 0.114634
O O2 0.687472 0.146271 0.168054
O O3 0.812203 0.000000 0.250000
O O4 0.770495 0.964037 0.097075
O O5 0.250000 0.721549 0.500000
O O6 0.095525 0.774801 0.551614
O O7 0.147512 0.872386 0.406416
O O8 0.222164 0.925354 0.156352
O O9 0.250000 0.993245 0.000000
O O10 0.073437 0.934914 0.038429
O O11 0.250000 0.293327 0.500000
O O12 0.406720 0.425853 0.439461
O O13 0.316523 0.269405 0.346034
O O14 0.500000 0.250000 0.464399
O O15 0.413699 0.089796 0.370785
O O16 0.500000 0.750000 0.307076
O O17 0.340654 0.857913 0.289361
#
# Coordination Sequence:
#
# PCOD9333638 Si02
#       7
#     8   8   8   8   8   8   8
#     4  11  23  42  62  91 130 173 230 281 343 418
#     4   9  21  41  60  88 128 179 230 266 342 421
#     4   9  18  37  60  85 133 190 226 269 335 418
#     4  11  20  34  61  93 128 172 224 284 343 404
#     4   9  18  32  56  93 135 173 228 275 342 426
#     4  11  22  38  63 103 139 170 215 287 357 424
#     4  10  19  35  60  95 136 172 215 273 347 417
#
# _framework density 23.186418
#
# number of rings (size 3 to 8) (size 9 to 14) (size 15 to 20)
#    0.000    2.000    1.429    4.714    2.000    0.000 
#    0.000   11.429    0.000    0.000   11.143    0.000 
#    0.000    0.000    0.000    0.000    0.000    0.000 
#
# Total GULP energy -156082.484752 kJ/mol
# GULP energy per Si atom -5574.374455 kJ/mol
# Density = 2.313364 g / cm^3
# Si number density = 23.186418 Si / 1000 Ang^3
#
#
#
# Elastic Constant Matrix: (Units=GPa)
#
#
# Indices 1 2 3 4 5 6 
#
# 1 46.3530 32.7109 52.1820 0.0000 0.0000 0.0000
# 2 32.7109 93.8937 67.3647 0.0000 0.0000 0.0000
# 3 52.1820 67.3647 123.2064 0.0000 0.0000 0.0000
# 4 0.0000 0.0000 0.0000 36.2465 0.0000 0.0000
# 5 0.0000 0.0000 0.0000 0.0000 12.4720 0.0000
# 6 0.0000 0.0000 0.0000 0.0000 0.0000 5.9619
#
#
#
# Elastic Compliance Matrix: (Units=1/GPa)
#
#
# Indices 1 2 3 4 5 6 
#
# 1 0.041760 -0.003059 -0.016014 0.000000 0.000000 0.000000
# 2 -0.003059 0.017749 -0.008409 0.000000 0.000000 0.000000
# 3 -0.016014 -0.008409 0.019497 0.000000 0.000000 0.000000
# 4 0.000000 0.000000 0.000000 0.027589 0.000000 0.000000
# 5 0.000000 0.000000 0.000000 0.000000 0.080180 0.000000
# 6 0.000000 0.000000 0.000000 0.000000 0.000000 0.167731
#
#
# Mechanical properties :
#
#
# Convention : Reuss Voigt Hill
#
# Bulk Modulus (GPa) = 41.59442 63.10759 52.35100
# Shear Modulus (GPa) = 11.97649 18.34912 15.16281
#
# Velocity S-wave (km/s) = 2.27520 2.81619 2.56002
# Velocity P-wave (km/s) = 4.98800 6.15233 5.60050
#
# Compressibility (1/GPa) = 0.02404169
#
# Stress axis : x y z
#
# Youngs Moduli (GPa) = 23.94611 56.34081 51.29044
#
# Poissons Ratio (x) = 0.17234 0.82139
# Poissons Ratio (y) = 0.07325 0.43130
# Poissons Ratio (z) = 0.38348 0.47377
#
# Static dielectric constant tensor:
#      x y z
#    x 1.970340 0.000000 0.000000 
#    y 0.000000 1.906680 0.000000 
#    z 0.000000 0.000000 1.962950 
# 
# From -- ./inp_files/26514.got.cif
#   From: 2010.05.17/outbox.cif.g08.bks.cpg/sg24_14_cif.got.tgz:26514.got - 2010.06.04 00:33:39.
