data_PCOD9333287
_publ_section_title
;
Structure prediction by ZEFSAII (Michael W. Deem and Ramdas Pophale) SiO2 
 PCOD9333287
Probable space group: I 21 21 21
;
_chemical_formula_sum "Si O2"
_cell_formula_units_Z 44
_cell_length_a 9.309947
_cell_length_b 13.948923
_cell_length_c 15.055879
_cell_angle_alpha 90.000000
_cell_angle_beta 90.000000
_cell_angle_gamma 90.000000
_cell_volume 1955.212663
_symmetry_space_group_name_H-M "I 21 21 21"
_symmetry_group_IT_number 24
_symmetry_cell_setting 'orthorhombic'
loop_
_space_group_symop_operation_xyz
x,y,z
-x,1/2-y,z
x,-y,1/2-z
1/2-x,y,-z
1/2+x,1/2+y,1/2+z
1/2-x,-y,1/2+z
1/2+x,1/2-y,-z
-x,1/2+y,1/2-z
loop_
_atom_site_type_symbol
_atom_site_label
_atom_site_fract_x
_atom_site_fract_y
_atom_site_fract_z
Si Si1 0.473239 0.000000 0.750000
Si Si2 0.658952 0.417582 0.925990
Si Si3 0.326529 0.739088 0.352522
Si Si4 0.750000 0.112324 0.500000
Si Si5 0.286831 0.650619 0.807241
Si Si6 0.563166 0.060590 0.066077
Si Si7 0.044259 0.500000 0.750000
O O1 0.383177 0.971065 0.663541
O O2 0.576360 0.910988 0.776686
O O3 0.748761 0.322739 0.904574
O O4 0.981887 0.392526 0.016345
O O5 0.750000 0.476270 0.000000
O O6 0.500000 0.750000 0.345137
O O7 0.246852 0.737743 0.257643
O O8 0.315086 0.634440 0.399267
O O9 0.791138 0.169767 0.411805
O O10 0.624716 0.038318 0.471940
O O11 0.149180 0.582828 0.786383
O O12 0.474668 0.037600 0.158222
#
# Coordination Sequence:
#
# PCOD9333287 Si02
#       7
#     4   8   8   4   8   8   4
#     4  11  24  45  60  98 135 162 227 264 334 389
#     4  12  26  42  64  95 133 175 211 277 332 391
#     4  11  24  40  61  97 135 166 214 266 339 387
#     4  10  18  38  72  94 120 170 232 256 306 400
#     4   9  19  38  66  92 124 174 205 270 314 388
#     4  10  20  37  65  95 125 163 217 262 325 387
#     4   7  16  33  60  96 117 152 211 260 306 377
#
# _framework density 22.503948000000001
#
# number of rings (size 3 to 8) (size 9 to 14) (size 15 to 20)
#    0.000    1.818    3.636    1.091    1.273    2.909 
#    3.273    0.000    6.000    0.000    0.000    0.000 
#    0.000    0.000    0.000    0.000    0.000    0.000 
#
# Total GULP energy -122702.149873 kJ/mol
# GULP energy per Si atom -5577.370449 kJ/mol
# Density = 2.245273 g / cm^3
# Si number density = 22.503948 Si / 1000 Ang^3
#
#
#
# Elastic Constant Matrix: (Units=GPa)
#
#
# Indices 1 2 3 4 5 6 
#
# 1 76.5224 18.1844 69.5407 0.0000 0.0000 0.0000
# 2 18.1844 32.8042 47.6252 0.0000 0.0000 0.0000
# 3 69.5407 47.6252 257.1990 0.0000 0.0000 0.0000
# 4 0.0000 0.0000 0.0000 37.6942 0.0000 0.0000
# 5 0.0000 0.0000 0.0000 0.0000 42.0107 0.0000
# 6 0.0000 0.0000 0.0000 0.0000 0.0000 12.9336
#
#
#
# Elastic Compliance Matrix: (Units=1/GPa)
#
#
# Indices 1 2 3 4 5 6 
#
# 1 0.017685 -0.003913 -0.004057 0.000000 0.000000 0.000000
# 2 -0.003913 0.042558 -0.006822 0.000000 0.000000 0.000000
# 3 -0.004057 -0.006822 0.006248 0.000000 0.000000 0.000000
# 4 0.000000 0.000000 0.000000 0.026529 0.000000 0.000000
# 5 0.000000 0.000000 0.000000 0.000000 0.023803 0.000000
# 6 0.000000 0.000000 0.000000 0.000000 0.000000 0.077318
#
#
# Mechanical properties :
#
#
# Convention : Reuss Voigt Hill
#
# Bulk Modulus (GPa) = 27.09612 70.80292 48.94952
# Shear Modulus (GPa) = 21.18387 33.93938 27.56162
#
# Velocity S-wave (km/s) = 3.07146 3.88771 3.50343
# Velocity P-wave (km/s) = 4.96439 7.18910 6.17771
#
# Compressibility (1/GPa) = 0.03690566
#
# Stress axis : x y z
#
# Youngs Moduli (GPa) = 56.54565 23.49745 160.04567
#
# Poissons Ratio (x) = 0.09195 0.64930
# Poissons Ratio (y) = 0.22128 1.09188
# Poissons Ratio (z) = 0.22940 0.16031
#
# Static dielectric constant tensor:
#      x y z
#    x 1.919520 0.000000 0.000000 
#    y 0.000000 1.875040 0.000000 
#    z 0.000000 0.000000 1.652900 
# 
# From -- ./inp_files/14121.got.cif
#   From: 2010.05.17/outbox.cif.g08.bks.cpg/sg24_8_cif.got.tgz:14121.got - 2010.06.04 00:33:39.
