data_PCOD9333268
_publ_section_title
;
Structure prediction by ZEFSAII (Michael W. Deem and Ramdas Pophale) SiO2 
 PCOD9333268
Probable space group: I 21 21 21
;
_chemical_formula_sum "Si O2"
_cell_formula_units_Z 48
_cell_length_a 8.430167
_cell_length_b 16.671434
_cell_length_c 16.980265
_cell_angle_alpha 90.000000
_cell_angle_beta 90.000000
_cell_angle_gamma 90.000000
_cell_volume 2386.456921
_symmetry_space_group_name_H-M "I 21 21 21"
_symmetry_group_IT_number 24
_symmetry_cell_setting 'orthorhombic'
loop_
_space_group_symop_operation_xyz
x,y,z
-x,1/2-y,z
x,-y,1/2-z
1/2-x,y,-z
1/2+x,1/2+y,1/2+z
1/2-x,-y,1/2+z
1/2+x,1/2-y,-z
-x,1/2+y,1/2-z
loop_
_atom_site_type_symbol
_atom_site_label
_atom_site_fract_x
_atom_site_fract_y
_atom_site_fract_z
Si Si1 0.088135 0.094044 0.868487
Si Si2 0.101883 0.500000 0.750000
Si Si3 0.438826 0.996406 0.517162
Si Si4 0.417123 0.666692 0.958859
Si Si5 0.448863 0.930241 0.682836
Si Si6 0.500000 0.750000 0.274748
Si Si7 0.303752 0.658803 0.780677
O O1 0.274104 0.095280 0.847002
O O2 0.012233 0.020256 0.821674
O O3 0.022464 0.174019 0.830481
O O4 0.028939 0.075898 0.956277
O O5 0.207622 0.575426 0.773400
O O6 0.250000 0.003479 0.500000
O O7 0.498437 0.087068 0.508524
O O8 0.508318 0.970644 0.601996
O O9 0.500000 0.750000 0.979006
O O10 0.389681 0.664735 0.864593
O O11 0.250000 0.667337 0.000000
O O12 0.557447 0.857549 0.715573
O O13 0.437703 0.000000 0.750000
O O14 0.333477 0.727694 0.229610
#
# Coordination Sequence:
#
# PCOD9333268 Si02
#       7
#     8   4   8   8   8   4   8
#     4  10  22  40  66  94 133 173 219 284 338 408
#     4  10  18  38  62  92 122 176 220 264 338 402
#     4  10  22  42  67  97 132 170 226 281 342 405
#     4  12  26  41  61  95 135 177 221 281 348 407
#     4  11  20  39  69  98 123 179 232 276 328 414
#     4  10  26  42  64  98 134 178 226 280 356 404
#     4  11  23  41  66  93 136 174 233 279 339 419
#
# _framework density 20.113499000000001
#
# number of rings (size 3 to 8) (size 9 to 14) (size 15 to 20)
#    0.000    1.333    3.333    1.500    3.500    1.333 
#    3.000    5.000    0.000    0.000    0.000    0.000 
#    0.000    0.000    0.000    0.000    0.000    0.000 
#
# Total GULP energy -133653.191675 kJ/mol
# GULP energy per Si atom -5568.882986 kJ/mol
# Density = 2.006772 g / cm^3
# Si number density = 20.113499 Si / 1000 Ang^3
#
#
#
# Elastic Constant Matrix: (Units=GPa)
#
#
# Indices 1 2 3 4 5 6 
#
# 1 45.1602 0.8354 20.5830 0.0000 0.0000 0.0000
# 2 0.8354 37.3983 12.7402 0.0000 0.0000 0.0000
# 3 20.5830 12.7402 66.8932 0.0000 0.0000 0.0000
# 4 0.0000 0.0000 0.0000 43.3866 0.0000 0.0000
# 5 0.0000 0.0000 0.0000 0.0000 21.5039 0.0000
# 6 0.0000 0.0000 0.0000 0.0000 0.0000 0.6685
#
#
#
# Elastic Compliance Matrix: (Units=1/GPa)
#
#
# Indices 1 2 3 4 5 6 
#
# 1 0.025937 0.002288 -0.008417 0.000000 0.000000 0.000000
# 2 0.002288 0.028796 -0.006188 0.000000 0.000000 0.000000
# 3 -0.008417 -0.006188 0.018718 0.000000 0.000000 0.000000
# 4 0.000000 0.000000 0.000000 0.023049 0.000000 0.000000
# 5 0.000000 0.000000 0.000000 0.000000 0.046503 0.000000
# 6 0.000000 0.000000 0.000000 0.000000 0.000000 1.495975
#
#
# Mechanical properties :
#
#
# Convention : Reuss Voigt Hill
#
# Bulk Modulus (GPa) = 20.48480 24.19656 22.34068
# Shear Modulus (GPa) = 2.97639 20.79799 11.88719
#
# Velocity S-wave (km/s) = 1.21779 3.21912 2.43370
# Velocity P-wave (km/s) = 3.49057 5.08656 4.36218
#
# Compressibility (1/GPa) = 0.04881668
#
# Stress axis : x y z
#
# Youngs Moduli (GPa) = 38.55475 34.72680 53.42564
#
# Poissons Ratio (x) = -0.07945 0.44966
# Poissons Ratio (y) = -0.08821 0.33062
# Poissons Ratio (z) = 0.32450 0.21490
#
# Static dielectric constant tensor:
#      x y z
#    x 1.742780 0.000000 0.000000 
#    y 0.000000 1.685240 0.000000 
#    z 0.000000 0.000000 1.844400 
# 
# From -- ./inp_files/29527.got.cif
#   From: 2010.05.17/outbox.cif.g08.bks.cpg/sg24_15_cif.got.tgz:29527.got - 2010.06.04 00:33:39.
