data_PCOD9333370
_publ_section_title
;
Structure prediction by ZEFSAII (Michael W. Deem and Ramdas Pophale) SiO2 
 PCOD9333370
Probable space group: I 21 21 21
;
_chemical_formula_sum "Si O2"
_cell_formula_units_Z 40
_cell_length_a 5.393688
_cell_length_b 45.608931
_cell_length_c 7.410664
_cell_angle_alpha 90.000000
_cell_angle_beta 90.000000
_cell_angle_gamma 90.000000
_cell_volume 1823.025892
_symmetry_space_group_name_H-M "I 21 21 21"
_symmetry_group_IT_number 24
_symmetry_cell_setting 'orthorhombic'
loop_
_space_group_symop_operation_xyz
x,y,z
-x,1/2-y,z
x,-y,1/2-z
1/2-x,y,-z
1/2+x,1/2+y,1/2+z
1/2-x,-y,1/2+z
1/2+x,1/2-y,-z
-x,1/2+y,1/2-z
loop_
_atom_site_type_symbol
_atom_site_label
_atom_site_fract_x
_atom_site_fract_y
_atom_site_fract_z
Si Si1 0.750000 0.366356 0.783648
Si Si2 0.750000 0.233488 0.220206
Si Si3 0.250000 0.665649 0.720794
Si Si4 0.750000 0.965429 0.216030
Si Si5 0.750000 0.435464 0.714916
O O1 0.498890 0.350818 0.718373
O O2 0.750000 0.400750 0.743533
O O3 0.001112 0.350819 0.718373
O O4 0.750000 0.363132 0.000000
O O5 0.500000 0.250000 0.277955
O O6 0.750000 0.199586 0.275479
O O7 0.000000 0.250000 0.277955
O O8 0.750000 0.233822 0.000000
O O9 0.250000 0.665195 0.500000
O O10 0.500302 0.950286 0.287190
O O11 0.999699 0.950287 0.287190
O O12 0.749999 0.000000 0.250000
O O13 0.750000 0.961123 0.000000
O O14 0.750000 0.440630 0.500000
#
# Coordination Sequence:
#
# PCOD9333370 Si02
#       5
#     8   8   8   8   8
#     4  10  19  31  48  69  95 127 159 195 238 280
#     4   9  15  23  37  58  88 125 156 186 234 288
#     4   9  17  28  42  65  96 125 158 199 238 280
#     4  10  21  36  54  75  99 126 156 194 236 278
#     4  10  21  36  52  73 100 127 158 196 234 276
#
# _framework density 21.94154
#
# number of rings (size 3 to 8) (size 9 to 14) (size 15 to 20)
#    0.000    2.400    0.000    3.000    0.000    6.400 
#    0.000    0.000    0.000    0.000    0.000    0.000 
#    0.000   16.000    0.000    0.000    0.000    0.000 
#
# Total GULP energy -111823.869955 kJ/mol
# GULP energy per Si atom -5591.193498 kJ/mol
# Density = 2.189160 g / cm^3
# Si number density = 21.941540 Si / 1000 Ang^3
#
#
#
# Elastic Constant Matrix: (Units=GPa)
#
#
# Indices 1 2 3 4 5 6 
#
# 1 299.7579 174.7481 13.5252 -0.0001 0.0000 0.0000
# 2 174.7481 239.9421 -11.0223 0.0000 0.0000 0.0000
# 3 13.5252 -11.0223 73.2036 0.0000 0.0000 0.0000
# 4 -0.0001 0.0000 0.0000 6.0677 0.0000 0.0000
# 5 0.0000 0.0000 0.0000 0.0000 -17.7023 0.0000
# 6 0.0000 0.0000 0.0000 0.0000 0.0000 53.0326
#
#
#
# Elastic Compliance Matrix: (Units=1/GPa)
#
#
# Indices 1 2 3 4 5 6 
#
# 1 0.006020 -0.004467 -0.001785 0.000000 0.000000 0.000000
# 2 -0.004467 0.007511 0.001956 0.000000 0.000000 0.000000
# 3 -0.001785 0.001956 0.014285 0.000000 0.000000 0.000000
# 4 0.000000 0.000000 0.000000 0.164807 0.000000 0.000000
# 5 0.000000 0.000000 0.000000 0.000000 -0.056490 0.000000
# 6 0.000000 0.000000 0.000000 0.000000 0.000000 0.018856
#
#
# Mechanical properties :
#
#
# Convention : Reuss Voigt Hill
#
# Bulk Modulus (GPa) = 52.01550 107.48950 79.75250
# Shear Modulus (GPa) = 29.41366 37.32310 33.36838
#
# Velocity S-wave (km/s) = 3.66532 4.12882 3.90396
# Velocity P-wave (km/s) = 6.45528 8.47496 7.53311
#
# Compressibility (1/GPa) = 0.01922504
#
# Stress axis : x y z
#
# Youngs Moduli (GPa) = 166.10044 133.14592 70.00428
#
# Poissons Ratio (x) = 0.59472 0.12495
# Poissons Ratio (y) = 0.74191 -0.13694
# Poissons Ratio (z) = 0.29647 -0.26045
#
# Static dielectric constant tensor:
#      x y z
#    x 1.780940 0.000000 0.000000 
#    y 0.000000 1.714330 0.000000 
#    z 0.000000 0.000000 1.979390 
# 
# From -- ./inp_files/17742.got.cif
#   From: 2010.05.17/outbox.cif.g08.bks.cpg/sg24_9_cif.got.tgz:17742.got - 2010.06.04 00:33:39.
