data_PCOD9333385
_publ_section_title
;
Structure prediction by ZEFSAII (Michael W. Deem and Ramdas Pophale) SiO2 
 PCOD9333385
Probable space group: I 21 21 21
;
_chemical_formula_sum "Si O2"
_cell_formula_units_Z 60
_cell_length_a 14.144077
_cell_length_b 15.321834
_cell_length_c 16.383433
_cell_angle_alpha 90.000000
_cell_angle_beta 90.000000
_cell_angle_gamma 90.000000
_cell_volume 3550.506190
_symmetry_space_group_name_H-M "I 21 21 21"
_symmetry_group_IT_number 24
_symmetry_cell_setting 'orthorhombic'
loop_
_space_group_symop_operation_xyz
x,y,z
-x,1/2-y,z
x,-y,1/2-z
1/2-x,y,-z
1/2+x,1/2+y,1/2+z
1/2-x,-y,1/2+z
1/2+x,1/2-y,-z
-x,1/2+y,1/2-z
loop_
_atom_site_type_symbol
_atom_site_label
_atom_site_fract_x
_atom_site_fract_y
_atom_site_fract_z
Si Si1 0.157046 0.459648 0.623175
Si Si2 0.507955 0.000000 0.250000
Si Si3 0.639373 0.633032 0.015282
Si Si4 0.237893 0.303097 0.733741
Si Si5 0.901748 0.776233 0.118000
Si Si6 0.915756 0.320308 0.700417
Si Si7 0.155944 0.445188 0.166367
Si Si8 0.953013 0.957891 0.044965
O O1 0.078456 0.511323 0.674112
O O2 0.181313 0.373546 0.676895
O O3 0.254779 0.510578 0.621648
O O4 0.111340 0.448700 0.535482
O O5 0.449935 0.911719 0.237426
O O6 0.621903 0.655426 0.109949
O O7 0.750000 0.611140 0.000000
O O8 0.613456 0.720162 0.963751
O O9 0.561206 0.562618 0.982705
O O10 0.313748 0.259695 0.674446
O O11 0.162507 0.229124 0.754956
O O12 0.299626 0.354082 0.801389
O O13 0.915752 0.877288 0.099106
O O14 0.000000 0.750000 0.158576
O O15 0.000000 0.250000 0.690857
O O16 0.136181 0.500000 0.250000
O O17 0.070855 0.457878 0.101406
#
# Coordination Sequence:
#
# PCOD9333385 Si02
#       8
#     8   4   8   8   8   8   8   8
#     4  11  18  32  52  83 116 148 187 238 293 344
#     4  12  22  34  54  86 122 154 198 240 304 368
#     4  11  21  32  53  82 115 156 186 232 306 378
#     4  11  19  34  55  78 121 155 181 237 299 353
#     4  10  20  30  50  81 110 149 181 223 298 360
#     4  12  21  36  56  83 123 157 187 242 304 362
#     4  10  19  31  51  82 115 150 190 232 287 344
#     4  11  20  31  52  79 119 150 186 244 286 351
#
# _framework density 16.898999
#
# number of rings (size 3 to 8) (size 9 to 14) (size 15 to 20)
#    0.000    1.067    8.667    2.400    0.000    0.000 
#    0.000    0.000    4.400    0.000    0.000    8.400 
#    0.000    0.000    0.000    0.000    0.000    0.000 
#
# Total GULP energy -167074.502645 kJ/mol
# GULP energy per Si atom -5569.150088 kJ/mol
# Density = 1.686054 g / cm^3
# Si number density = 16.898999 Si / 1000 Ang^3
#
#
#
# Elastic Constant Matrix: (Units=GPa)
#
#
# Indices 1 2 3 4 5 6 
#
# 1 88.3859 44.8036 35.9628 0.0000 0.0000 0.0000
# 2 44.8036 65.5034 32.9690 0.0000 0.0000 0.0000
# 3 35.9628 32.9690 41.8675 0.0000 0.0000 0.0000
# 4 0.0000 0.0000 0.0000 12.1418 0.0000 0.0000
# 5 0.0000 0.0000 0.0000 0.0000 23.4340 0.0000
# 6 0.0000 0.0000 0.0000 0.0000 0.0000 24.8393
#
#
#
# Elastic Compliance Matrix: (Units=1/GPa)
#
#
# Indices 1 2 3 4 5 6 
#
# 1 0.019754 -0.008235 -0.010483 0.000000 0.000000 0.000000
# 2 -0.008235 0.028723 -0.015544 0.000000 0.000000 0.000000
# 3 -0.010483 -0.015544 0.045130 0.000000 0.000000 0.000000
# 4 0.000000 0.000000 0.000000 0.082360 0.000000 0.000000
# 5 0.000000 0.000000 0.000000 0.000000 0.042673 0.000000
# 6 0.000000 0.000000 0.000000 0.000000 0.000000 0.040259
#
#
# Mechanical properties :
#
#
# Convention : Reuss Voigt Hill
#
# Bulk Modulus (GPa) = 39.86985 47.02529 43.44757
# Shear Modulus (GPa) = 14.89049 17.55112 16.22080
#
# Velocity S-wave (km/s) = 2.97163 3.22621 3.10153
# Velocity P-wave (km/s) = 5.95133 6.46263 6.21224
#
# Compressibility (1/GPa) = 0.02508161
#
# Stress axis : x y z
#
# Youngs Moduli (GPa) = 50.62286 34.81542 22.15809
#
# Poissons Ratio (x) = 0.28671 0.23229
# Poissons Ratio (y) = 0.41689 0.34444
# Poissons Ratio (z) = 0.53069 0.54119
#
# Static dielectric constant tensor:
#      x y z
#    x 1.617970 0.000000 0.000000 
#    y 0.000000 1.610550 0.000000 
#    z 0.000000 0.000000 1.599830 
# 
# From -- ./inp_files/26673.got.cif
#   From: 2010.05.17/outbox.cif.g08.bks.cpg/sg24_14_cif.got.tgz:26673.got - 2010.06.04 00:33:39.
