data_PCOD9333856
_publ_section_title
;
Structure prediction by ZEFSAII (Michael W. Deem and Ramdas Pophale) SiO2 
 PCOD9333856
Probable space group: I 21 21 21
;
_chemical_formula_sum "Si O2"
_cell_formula_units_Z 56
_cell_length_a 7.786776
_cell_length_b 21.051898
_cell_length_c 14.411506
_cell_angle_alpha 90.000000
_cell_angle_beta 90.000000
_cell_angle_gamma 90.000000
_cell_volume 2362.426500
_symmetry_space_group_name_H-M "I 21 21 21"
_symmetry_group_IT_number 24
_symmetry_cell_setting 'orthorhombic'
loop_
_space_group_symop_operation_xyz
x,y,z
-x,1/2-y,z
x,-y,1/2-z
1/2-x,y,-z
1/2+x,1/2+y,1/2+z
1/2-x,-y,1/2+z
1/2+x,1/2-y,-z
-x,1/2+y,1/2-z
loop_
_atom_site_type_symbol
_atom_site_label
_atom_site_fract_x
_atom_site_fract_y
_atom_site_fract_z
Si Si1 0.101164 0.836735 0.124885
Si Si2 0.866140 0.482259 0.345205
Si Si3 0.255833 0.711528 0.205438
Si Si4 0.955379 0.417916 0.013191
Si Si5 0.349033 0.700430 0.594122
Si Si6 0.425552 0.633981 0.058783
Si Si7 0.471668 0.504866 0.353616
O O1 0.158560 0.907681 0.146601
O O2 0.220576 0.781762 0.165290
O O3 0.920048 0.825208 0.177011
O O4 0.062616 0.838342 0.014509
O O5 0.958019 0.500000 0.250000
O O6 0.956332 0.515412 0.431207
O O7 0.677366 0.512226 0.342934
O O8 0.271328 0.704401 0.315518
O O9 0.404421 0.677671 0.148357
O O10 0.052622 0.365305 0.072638
O O11 0.750000 0.401308 0.000000
O O12 0.061946 0.434506 0.919433
O O13 0.500000 0.750000 0.614296
O O14 0.250000 0.717878 0.500000
O O15 0.445209 0.562056 0.094416
O O16 0.250000 0.636747 0.000000
O O17 0.396542 0.500000 0.250000
#
# Coordination Sequence:
#
# PCOD9333856 Si02
#       7
#     8   8   8   8   8   8   8
#     4  10  19  43  67  91 132 170 223 277 340 410
#     4  10  20  37  68  97 123 175 221 276 342 411
#     4  10  23  44  66  95 135 181 225 279 342 417
#     4  10  22  43  70 102 136 178 232 286 345 415
#     4  12  26  47  74  99 138 186 238 286 348 420
#     4  10  22  42  62  96 130 172 222 284 346 409
#     4  10  22  41  63  96 138 166 220 285 342 409
#
# _framework density 23.704440000000002
#
# number of rings (size 3 to 8) (size 9 to 14) (size 15 to 20)
#    0.000    1.714    2.857    1.286    2.000    0.571 
#   18.000    1.429    0.000    0.000    0.000    0.000 
#    0.000    0.000    0.000    0.000    0.000    0.000 
#
# Total GULP energy -156523.757869 kJ/mol
# GULP energy per Si atom -5590.134210 kJ/mol
# Density = 2.365049 g / cm^3
# Si number density = 23.704440 Si / 1000 Ang^3
#
#
#
# Elastic Constant Matrix: (Units=GPa)
#
#
# Indices 1 2 3 4 5 6 
#
# 1 56.9004 -4.8779 26.3268 0.0000 0.0000 0.0000
# 2 -4.8779 111.0425 53.1434 0.0001 0.0000 0.0000
# 3 26.3268 53.1434 201.4107 0.0001 0.0000 0.0000
# 4 0.0000 0.0001 0.0001 27.4331 0.0000 0.0000
# 5 0.0000 0.0000 0.0000 0.0000 2.0705 0.0000
# 6 0.0000 0.0000 0.0000 0.0000 0.0000 3.4770
#
#
#
# Elastic Compliance Matrix: (Units=1/GPa)
#
#
# Indices 1 2 3 4 5 6 
#
# 1 0.019224 0.002343 -0.003131 0.000000 0.000000 0.000000
# 2 0.002343 0.010593 -0.003101 0.000000 0.000000 0.000000
# 3 -0.003131 -0.003101 0.006193 0.000000 0.000000 0.000000
# 4 0.000000 0.000000 0.000000 0.036452 0.000000 0.000000
# 5 0.000000 0.000000 0.000000 0.000000 0.482980 -0.000004
# 6 0.000000 0.000000 0.000000 0.000000 -0.000004 0.287602
#
#
# Mechanical properties :
#
#
# Convention : Reuss Voigt Hill
#
# Bulk Modulus (GPa) = 35.42239 57.61536 46.51888
# Shear Modulus (GPa) = 5.81239 26.24686 16.02962
#
# Velocity S-wave (km/s) = 1.56759 3.33115 2.60326
# Velocity P-wave (km/s) = 4.27227 6.25731 5.35753
#
# Compressibility (1/GPa) = 0.02823073
#
# Stress axis : x y z
#
# Youngs Moduli (GPa) = 52.01805 94.40489 161.48539
#
# Poissons Ratio (x) = -0.22119 0.50561
# Poissons Ratio (y) = -0.12188 0.50080
# Poissons Ratio (z) = 0.16287 0.29277
#
# Static dielectric constant tensor:
#      x y z
#    x 1.908630 0.000000 0.000000 
#    y 0.000000 1.848700 0.000000 
#    z 0.000000 0.000000 2.006860 
# 
# From -- ./inp_files/25059.got.cif
#   From: 2010.05.17/outbox.cif.g08.bks.cpg/sg24_13_cif.got.tgz:25059.got - 2010.06.04 00:33:39.
