data_PCOD9333025
_publ_section_title
;
Structure prediction by ZEFSAII (Michael W. Deem and Ramdas Pophale) SiO2 
 PCOD9333025
Probable space group: I 21 21 21
;
_chemical_formula_sum "Si O2"
_cell_formula_units_Z 48
_cell_length_a 29.726146
_cell_length_b 16.413091
_cell_length_c 5.263168
_cell_angle_alpha 90.000000
_cell_angle_beta 90.000000
_cell_angle_gamma 90.000000
_cell_volume 2567.888822
_symmetry_space_group_name_H-M "I 21 21 21"
_symmetry_group_IT_number 24
_symmetry_cell_setting 'orthorhombic'
loop_
_space_group_symop_operation_xyz
x,y,z
-x,1/2-y,z
x,-y,1/2-z
1/2-x,y,-z
1/2+x,1/2+y,1/2+z
1/2-x,-y,1/2+z
1/2+x,1/2-y,-z
-x,1/2+y,1/2-z
loop_
_atom_site_type_symbol
_atom_site_label
_atom_site_fract_x
_atom_site_fract_y
_atom_site_fract_z
Si Si1 0.338608 0.598213 0.795845
Si Si2 0.448701 0.215745 0.012649
Si Si3 0.423884 0.026946 0.002167
Si Si4 0.707841 0.097130 0.193792
Si Si5 0.076507 0.304040 0.489878
Si Si6 0.522157 0.956039 0.000677
O O1 0.338614 0.500000 0.750000
O O2 0.330868 0.626367 0.504048
O O3 0.383751 0.633298 0.919643
O O4 0.301747 0.624774 0.013662
O O5 0.500000 0.250000 0.026503
O O6 0.442519 0.118514 0.017735
O O7 0.422010 0.256106 0.247042
O O8 0.428823 0.244402 0.745504
O O9 0.397526 0.000000 0.250000
O O10 0.398780 0.000000 0.750000
O O11 0.468914 0.970780 0.000118
O O12 0.708195 0.000000 0.250000
O O13 0.750000 0.111610 0.000000
O O14 0.032752 0.361801 0.501749
O O15 0.540342 0.000000 0.750000
O O16 0.541169 0.000000 0.250000
#
# Coordination Sequence:
#
# PCOD9333025 Si02
#       6
#     8   8   8   8   8   8
#     4  10  21  33  50  73 101 137 173 209 258 304
#     4  12  23  35  51  71  94 127 170 220 271 312
#     4  10  19  34  50  66  85 115 161 208 252 301
#     4  10  18  32  51  74 100 131 172 213 242 287
#     4  12  23  36  50  72 101 129 169 220 271 308
#     4  10  19  32  47  62  85 119 156 204 253 292
#
# _framework density 18.692397
#
# number of rings (size 3 to 8) (size 9 to 14) (size 15 to 20)
#    0.000    1.333    0.000   10.000    0.000    2.000 
#    0.000    0.000    0.000    0.000    0.000    0.000 
#    0.000    0.000    0.000    0.000    0.000  210.000 
#
# Total GULP energy -133685.118017 kJ/mol
# GULP energy per Si atom -5570.213251 kJ/mol
# Density = 1.864985 g / cm^3
# Si number density = 18.692397 Si / 1000 Ang^3
#
#
#
# Elastic Constant Matrix: (Units=GPa)
#
#
# Indices 1 2 3 4 5 6 
#
# 1 35.9547 -4.1479 9.0009 0.0000 0.0000 0.0000
# 2 -4.1479 50.4221 29.3535 0.0000 0.0000 0.0000
# 3 9.0009 29.3535 162.8912 0.0000 -0.0001 0.0000
# 4 0.0000 0.0000 0.0000 30.8643 0.0000 0.0000
# 5 0.0000 0.0000 -0.0001 0.0000 23.3458 0.0000
# 6 0.0000 0.0000 0.0000 0.0000 0.0000 9.1450
#
#
#
# Elastic Compliance Matrix: (Units=1/GPa)
#
#
# Indices 1 2 3 4 5 6 
#
# 1 0.028802 0.003682 -0.002255 0.000000 0.000000 0.000000
# 2 0.003682 0.022628 -0.004281 0.000000 0.000000 0.000000
# 3 -0.002255 -0.004281 0.007035 0.000000 0.000000 0.000000
# 4 0.000000 0.000000 0.000000 0.032400 0.000000 0.000000
# 5 0.000000 0.000000 0.000000 0.000000 0.042834 0.000000
# 6 0.000000 0.000000 0.000000 0.000000 0.000000 0.109350
#
#
# Mechanical properties :
#
#
# Convention : Reuss Voigt Hill
#
# Bulk Modulus (GPa) = 18.95484 35.29790 27.12637
# Shear Modulus (GPa) = 18.77282 27.00844 22.89063
#
# Velocity S-wave (km/s) = 3.17251 3.80529 3.50322
# Velocity P-wave (km/s) = 4.85615 6.18317 5.55940
#
# Compressibility (1/GPa) = 0.05275697
#
# Stress axis : x y z
#
# Youngs Moduli (GPa) = 34.71974 44.19361 142.14373
#
# Poissons Ratio (x) = -0.16273 0.32054
# Poissons Ratio (y) = -0.12784 0.60852
# Poissons Ratio (z) = 0.07829 0.18919
#
# Static dielectric constant tensor:
#      x y z
#    x 1.728640 0.000000 0.000000 
#    y 0.000000 1.636760 0.000000 
#    z 0.000000 0.000000 1.339880 
# 
# From -- ./inp_files/7694.got.cif
#   From: 2010.05.17/outbox.cif.g08.bks.cpg/sg24_4_cif.got.tgz:7694.got - 2010.06.04 00:33:39.
