data_PCOD9333546
_publ_section_title
;
Structure prediction by ZEFSAII (Michael W. Deem and Ramdas Pophale) SiO2 
 PCOD9333546
Probable space group: I 21 21 21
;
_chemical_formula_sum "Si O2"
_cell_formula_units_Z 40
_cell_length_a 10.450624
_cell_length_b 21.980637
_cell_length_c 7.474266
_cell_angle_alpha 90.000000
_cell_angle_beta 90.000000
_cell_angle_gamma 90.000000
_cell_volume 1716.923902
_symmetry_space_group_name_H-M "I 21 21 21"
_symmetry_group_IT_number 24
_symmetry_cell_setting 'orthorhombic'
loop_
_space_group_symop_operation_xyz
x,y,z
-x,1/2-y,z
x,-y,1/2-z
1/2-x,y,-z
1/2+x,1/2+y,1/2+z
1/2-x,-y,1/2+z
1/2+x,1/2-y,-z
-x,1/2+y,1/2-z
loop_
_atom_site_type_symbol
_atom_site_label
_atom_site_fract_x
_atom_site_fract_y
_atom_site_fract_z
Si Si1 0.436916 0.392507 0.574748
Si Si2 0.250000 0.706433 0.000000
Si Si3 0.500000 0.250000 0.271629
Si Si4 0.118648 0.522851 0.546182
Si Si5 0.192358 0.929741 0.199597
Si Si6 0.552134 0.377757 0.171745
O O1 0.331074 0.342346 0.619640
O O2 0.390744 0.462520 0.574867
O O3 0.564909 0.390264 0.688474
O O4 0.484236 0.384212 0.368825
O O5 0.132560 0.741349 0.894427
O O6 0.525812 0.307440 0.144344
O O7 0.119996 0.500000 0.750000
O O8 0.250000 0.555141 0.500000
O O9 0.008020 0.572024 0.542600
O O10 0.301573 0.896660 0.310222
O O11 0.170378 0.000000 0.250000
O O12 0.250000 0.933097 0.000000
#
# Coordination Sequence:
#
# PCOD9333546 Si02
#       6
#     8   4   4   8   8   8
#     4   9  18  33  53  87 118 149 200 258 314 370
#     4  10  20  34  54  86 122 164 202 258 314 372
#     4  10  22  34  56  84 124 166 214 254 310 376
#     4  10  19  35  59  88 125 157 199 264 320 374
#     4  10  19  34  58  85 124 159 194 251 322 376
#     4   9  19  34  54  81 120 165 204 246 312 373
#
# _framework density 23.297481000000001
#
# number of rings (size 3 to 8) (size 9 to 14) (size 15 to 20)
#    0.000    2.400    1.000    3.000    7.000    0.800 
#    0.000    0.000    0.000    3.600    0.000    5.600 
#    0.000    0.000    0.000    0.000    0.000    0.000 
#
# Total GULP energy -111605.838430 kJ/mol
# GULP energy per Si atom -5580.291922 kJ/mol
# Density = 2.324446 g / cm^3
# Si number density = 23.297481 Si / 1000 Ang^3
#
#
#
# Elastic Constant Matrix: (Units=GPa)
#
#
# Indices 1 2 3 4 5 6 
#
# 1 162.1053 44.0879 -0.0578 0.0005 0.0001 -0.0003
# 2 44.0879 115.2278 1.6150 0.0003 -0.0002 -0.0003
# 3 -0.0578 1.6150 38.1928 0.0048 -0.0054 -0.0017
# 4 0.0005 0.0003 0.0048 0.4619 -0.0010 -0.0002
# 5 0.0001 -0.0002 -0.0054 -0.0010 28.9901 0.0004
# 6 -0.0003 -0.0003 -0.0017 -0.0002 0.0004 36.5813
#
#
#
# Elastic Compliance Matrix: (Units=1/GPa)
#
#
# Indices 1 2 3 4 5 6 
#
# 1 0.006886 -0.002636 0.000122 -0.000007 0.000000 0.000000
# 2 -0.002636 0.009693 -0.000414 0.000000 0.000000 0.000000
# 3 0.000122 -0.000414 0.026201 -0.000270 0.000005 0.000001
# 4 -0.000007 0.000000 -0.000270 2.165048 0.000074 0.000011
# 5 0.000000 0.000000 0.000005 0.000074 0.034495 0.000000
# 6 0.000000 0.000000 0.000001 0.000011 0.000000 0.027336
#
#
# Mechanical properties :
#
#
# Convention : Reuss Voigt Hill
#
# Bulk Modulus (GPa) = 27.08350 45.20180 36.14265
# Shear Modulus (GPa) = 2.18548 31.19870 16.69209
#
# Velocity S-wave (km/s) = 0.96959 3.66340 2.67961
# Velocity P-wave (km/s) = 3.59219 6.11050 5.01208
#
# Compressibility (1/GPa) = 0.03692285
#
# Stress axis : x y z
#
# Youngs Moduli (GPa) = 145.22459 103.16753 38.16702
#
# Poissons Ratio (x) = 0.27199 -0.00465
# Poissons Ratio (y) = 0.38286 0.01580
# Poissons Ratio (z) = -0.01770 0.04270
#
# Static dielectric constant tensor:
#      x y z
#    x 1.963860 0.000000 0.000000 
#    y 0.000000 1.927120 0.000000 
#    z 0.000000 0.000000 1.908130 
# 
# From -- ./inp_files/11074.got.cif
#   From: 2010.05.17/outbox.cif.g08.bks.cpg/sg24_6_cif.got.tgz:11074.got - 2010.06.04 00:33:39.
