data_PCOD9333230
_publ_section_title
;
Structure prediction by ZEFSAII (Michael W. Deem and Ramdas Pophale) SiO2 
 PCOD9333230
Probable space group: I 21 21 21
;
_chemical_formula_sum "Si O2"
_cell_formula_units_Z 60
_cell_length_a 28.177718
_cell_length_b 6.136469
_cell_length_c 15.735317
_cell_angle_alpha 90.000000
_cell_angle_beta 90.000000
_cell_angle_gamma 90.000000
_cell_volume 2720.820302
_symmetry_space_group_name_H-M "I 21 21 21"
_symmetry_group_IT_number 24
_symmetry_cell_setting 'orthorhombic'
loop_
_space_group_symop_operation_xyz
x,y,z
-x,1/2-y,z
x,-y,1/2-z
1/2-x,y,-z
1/2+x,1/2+y,1/2+z
1/2-x,-y,1/2+z
1/2+x,1/2-y,-z
-x,1/2+y,1/2-z
loop_
_atom_site_type_symbol
_atom_site_label
_atom_site_fract_x
_atom_site_fract_y
_atom_site_fract_z
Si Si1 0.962828 0.434289 0.153834
Si Si2 0.138118 0.480187 0.484392
Si Si3 0.274584 0.246977 0.718946
Si Si4 0.449785 0.821784 0.020723
Si Si5 0.692304 0.722827 0.112616
Si Si6 0.119869 0.848860 0.616236
Si Si7 0.365758 0.500000 0.250000
Si Si8 0.872366 0.824202 0.306084
O O1 0.976325 0.500000 0.250000
O O2 0.961293 0.592059 0.073793
O O3 0.908802 0.353267 0.162612
O O4 0.000000 0.250000 0.128493
O O5 0.086933 0.372913 0.502908
O O6 0.175468 0.308792 0.521555
O O7 0.136821 0.697424 0.539376
O O8 0.146707 0.549475 0.388317
O O9 0.262033 0.500000 0.750000
O O10 0.248115 0.237252 0.628576
O O11 0.329590 0.244482 0.747087
O O12 0.258384 0.000000 0.750000
O O13 0.500000 0.750000 0.059550
O O14 0.422110 0.996576 0.080135
O O15 0.665996 0.496984 0.133747
O O16 0.666691 0.883743 0.179913
O O17 0.107839 0.691357 0.696392
O O18 0.900973 0.000000 0.250000
#
# Coordination Sequence:
#
# PCOD9333230 Si02
#       8
#     8   8   8   8   8   8   4   8
#     4  12  23  39  65 101 144 191 252 295 352 443
#     4  10  22  42  66 102 134 184 241 297 361 443
#     4  11  24  43  70 100 138 190 241 302 376 439
#     4  11  23  39  66 103 142 186 239 300 374 435
#     4  10  21  39  72  99 136 176 247 297 363 448
#     4  10  21  38  66 106 131 182 240 299 364 441
#     4  10  18  36  70 100 128 174 238 290 352 448
#     4  11  23  43  68  96 148 189 238 301 373 432
#
# _framework density 22.052174000000001
#
# number of rings (size 3 to 8) (size 9 to 14) (size 15 to 20)
#    0.000    1.333    2.000    4.000    1.867    1.067 
#    0.000    2.667    0.000    0.000  124.800    0.000 
#    0.000    0.000    0.000    0.000    0.000    0.000 
#
# Total GULP energy -167135.115139 kJ/mol
# GULP energy per Si atom -5571.170505 kJ/mol
# Density = 2.200198 g / cm^3
# Si number density = 22.052174 Si / 1000 Ang^3
#
#
#
# Elastic Constant Matrix: (Units=GPa)
#
#
# Indices 1 2 3 4 5 6 
#
# 1 133.9682 41.3702 40.1441 0.0000 0.0000 0.0000
# 2 41.3702 113.9847 23.5743 0.0000 0.0000 0.0000
# 3 40.1441 23.5743 71.2175 0.0000 0.0000 0.0000
# 4 0.0000 0.0000 0.0000 25.3234 0.0000 0.0000
# 5 0.0000 0.0000 0.0000 0.0000 15.8086 0.0000
# 6 0.0000 0.0000 0.0000 0.0000 0.0000 -12.3878
#
#
#
# Elastic Compliance Matrix: (Units=1/GPa)
#
#
# Indices 1 2 3 4 5 6 
#
# 1 0.009623 -0.002545 -0.004582 0.000000 0.000000 0.000000
# 2 -0.002545 0.010091 -0.001906 0.000000 0.000000 0.000000
# 3 -0.004582 -0.001906 0.017255 0.000000 0.000000 0.000000
# 4 0.000000 0.000000 0.000000 0.039489 0.000000 0.000000
# 5 0.000000 0.000000 0.000000 0.000000 0.063257 0.000000
# 6 0.000000 0.000000 0.000000 0.000000 0.000000 -0.080724
#
#
# Mechanical properties :
#
#
# Convention : Reuss Voigt Hill
#
# Bulk Modulus (GPa) = 52.89931 58.81639 55.85785
# Shear Modulus (GPa) = 59.98217 20.02095 40.00156
#
# Velocity S-wave (km/s) = 5.22103 3.01639 4.26367
# Velocity P-wave (km/s) = 7.77084 6.23385 7.04439
#
# Compressibility (1/GPa) = 0.01890384
#
# Stress axis : x y z
#
# Youngs Moduli (GPa) = 103.91279 99.09848 57.95366
#
# Poissons Ratio (x) = 0.25222 0.26555
# Poissons Ratio (y) = 0.26447 0.11044
# Poissons Ratio (z) = 0.47614 0.18885
#
# Static dielectric constant tensor:
#      x y z
#    x 1.803760 0.000000 0.000000 
#    y 0.000000 1.877210 0.000000 
#    z 0.000000 0.000000 1.818580 
# 
# From -- ./inp_files/31688.got.cif
#   From: 2010.05.17/outbox.cif.g08.bks.cpg/sg24_16_cif.got.tgz:31688.got - 2010.06.04 00:33:39.
