data_PCOD9333180
_publ_section_title
;
Structure prediction by ZEFSAII (Michael W. Deem and Ramdas Pophale) SiO2 
 PCOD9333180
Probable space group: I 21 21 21
;
_chemical_formula_sum "Si O2"
_cell_formula_units_Z 32
_cell_length_a 5.277672
_cell_length_b 7.350936
_cell_length_c 35.816153
_cell_angle_alpha 90.000000
_cell_angle_beta 90.000000
_cell_angle_gamma 90.000000
_cell_volume 1389.517351
_symmetry_space_group_name_H-M "I 21 21 21"
_symmetry_group_IT_number 24
_symmetry_cell_setting 'orthorhombic'
loop_
_space_group_symop_operation_xyz
x,y,z
-x,1/2-y,z
x,-y,1/2-z
1/2-x,y,-z
1/2+x,1/2+y,1/2+z
1/2-x,-y,1/2+z
1/2+x,1/2-y,-z
-x,1/2+y,1/2-z
loop_
_atom_site_type_symbol
_atom_site_label
_atom_site_fract_x
_atom_site_fract_y
_atom_site_fract_z
Si Si1 0.303484 0.449923 0.895449
Si Si2 0.003654 0.469795 0.476914
Si Si3 0.255310 0.864399 0.283103
Si Si4 0.294638 0.962073 0.365476
O O1 0.431879 0.454291 0.936053
O O2 0.517541 0.544612 0.870705
O O3 0.251053 0.246256 0.880008
O O4 0.025435 0.536350 0.890398
O O5 0.250000 0.523063 0.500000
O O6 0.000000 0.250000 0.473398
O O7 0.750000 0.522334 0.500000
O O8 0.500000 0.750000 0.270352
O O9 0.349124 0.956437 0.321704
O O10 0.000000 0.750000 0.291917
O O11 0.187449 0.000000 0.250000
#
# Coordination Sequence:
#
# PCOD9333180 Si02
#       4
#     8   8   8   8
#     4  10  18  35  62  81 114 164 204 253 316 377
#     4  10  21  37  56  85 124 163 202 257 324 387
#     4  12  23  43  68  97 136 180 221 284 350 405
#     4  10  19  37  60  84 118 158 210 261 319 374
#
# _framework density 23.029579999999999
#
# number of rings (size 3 to 8) (size 9 to 14) (size 15 to 20)
#    0.000    1.500    5.000    2.250    0.000    0.000 
#    0.000   13.750    0.000    0.000    0.000    0.000 
#    0.000    0.000    0.000    0.000    0.000    0.000 
#
# Total GULP energy -89245.774420 kJ/mol
# GULP energy per Si atom -5577.860901 kJ/mol
# Density = 2.297716 g / cm^3
# Si number density = 23.029580 Si / 1000 Ang^3
#
#
#
# Elastic Constant Matrix: (Units=GPa)
#
#
# Indices 1 2 3 4 5 6 
#
# 1 208.5406 15.6764 26.4930 0.0000 0.0000 0.0000
# 2 15.6764 65.3551 25.1965 0.0000 0.0000 0.0000
# 3 26.4930 25.1965 150.0209 0.0000 0.0000 0.0000
# 4 0.0000 0.0000 0.0000 -15.3121 0.0000 0.0000
# 5 0.0000 0.0000 0.0000 0.0000 45.3138 0.0000
# 6 0.0000 0.0000 0.0000 0.0000 0.0000 -16.0105
#
#
#
# Elastic Compliance Matrix: (Units=1/GPa)
#
#
# Indices 1 2 3 4 5 6 
#
# 1 0.004955 -0.000910 -0.000722 0.000000 0.000000 0.000000
# 2 -0.000910 0.016528 -0.002615 0.000000 0.000000 0.000000
# 3 -0.000722 -0.002615 0.007233 0.000000 0.000000 0.000000
# 4 0.000000 0.000000 0.000000 -0.065308 0.000000 0.000000
# 5 0.000000 0.000000 0.000000 0.000000 0.022068 0.000000
# 6 0.000000 0.000000 0.000000 0.000000 0.000000 -0.062459
#
#
# Mechanical properties :
#
#
# Convention : Reuss Voigt Hill
#
# Bulk Modulus (GPa) = 49.45502 62.07202 55.76352
# Shear Modulus (GPa) = -80.97435 26.56829 -27.20303
#
# Velocity S-wave (km/s) = -5.93611 3.40024 -3.44062
# Velocity P-wave (km/s) = 5.04598 6.51362 2.91249
#
# Compressibility (1/GPa) = 0.02022040
#
# Stress axis : x y z
#
# Youngs Moduli (GPa) = 201.79996 60.50498 138.26476
#
# Poissons Ratio (x) = 0.05507 0.09986
# Poissons Ratio (y) = 0.18367 0.36158
# Poissons Ratio (z) = 0.14575 0.15823
#
# Static dielectric constant tensor:
#      x y z
#    x 2.107380 0.000000 0.000000 
#    y 0.000000 2.064410 0.000000 
#    z 0.000000 0.000000 1.976500 
# 
# From -- ./inp_files/37761.got.cif
#   From: 2010.05.17/outbox.cif.g08.bks.cpg/sg24_19_cif.got.tgz:37761.got - 2010.06.04 00:33:39.
