data_PCOD9333611
_publ_section_title
;
Structure prediction by ZEFSAII (Michael W. Deem and Ramdas Pophale) SiO2 
 PCOD9333611
Probable space group: I 21 21 21
;
_chemical_formula_sum "Si O2"
_cell_formula_units_Z 56
_cell_length_a 8.833448
_cell_length_b 16.214287
_cell_length_c 21.736750
_cell_angle_alpha 90.000000
_cell_angle_beta 90.000000
_cell_angle_gamma 90.000000
_cell_volume 3113.312556
_symmetry_space_group_name_H-M "I 21 21 21"
_symmetry_group_IT_number 24
_symmetry_cell_setting 'orthorhombic'
loop_
_space_group_symop_operation_xyz
x,y,z
-x,1/2-y,z
x,-y,1/2-z
1/2-x,y,-z
1/2+x,1/2+y,1/2+z
1/2-x,-y,1/2+z
1/2+x,1/2-y,-z
-x,1/2+y,1/2-z
loop_
_atom_site_type_symbol
_atom_site_label
_atom_site_fract_x
_atom_site_fract_y
_atom_site_fract_z
Si Si1 0.500000 0.250000 0.376967
Si Si2 0.077601 0.640499 0.179227
Si Si3 0.789557 0.889058 0.929112
Si Si4 0.175668 0.279400 0.067787
Si Si5 0.347605 0.431393 0.128723
Si Si6 0.731606 0.000000 0.750000
Si Si7 0.260262 0.802747 0.786033
Si Si8 0.619133 0.676696 0.342730
O O1 0.418225 0.321173 0.415735
O O2 0.621284 0.293128 0.332129
O O3 0.146459 0.642712 0.111119
O O4 0.128070 0.555667 0.207905
O O5 0.164018 0.711343 0.218873
O O6 0.899270 0.649126 0.183725
O O7 0.834315 0.979739 0.903784
O O8 0.750000 0.894370 0.000000
O O9 0.223771 0.366779 0.100750
O O10 0.262155 0.211810 0.108677
O O11 0.000000 0.250000 0.064851
O O12 0.250000 0.282634 0.000000
O O13 0.324868 0.445431 0.201880
O O14 0.515029 0.392445 0.125626
O O15 0.205171 0.839565 0.721352
O O16 0.500000 0.750000 0.327736
#
# Coordination Sequence:
#
# PCOD9333611 Si02
#       8
#     4   8   8   8   8   4   8   8
#     4  10  22  38  60  88 112 152 202 256 308 362
#     4   9  20  35  56  82 117 152 192 244 298 366
#     4  10  22  41  63  84 117 161 206 252 312 367
#     4  11  23  39  63  91 127 168 211 248 297 379
#     4  10  22  38  61  88 121 164 205 253 310 370
#     4  10  20  36  56  84 118 154 204 240 310 366
#     4  10  19  35  58  85 119 148 193 247 305 359
#     4  10  20  34  60  90 120 160 201 245 306 365
#
# _framework density 17.987272000000001
#
# number of rings (size 3 to 8) (size 9 to 14) (size 15 to 20)
#    0.000    2.000    0.714    3.429    8.000    2.286 
#    2.571    0.000    0.000    4.286    0.000    0.000 
#    0.000    0.000    0.000    0.000    0.000    0.000 
#
# Total GULP energy -156056.736449 kJ/mol
# GULP energy per Si atom -5573.454873 kJ/mol
# Density = 1.794633 g / cm^3
# Si number density = 17.987272 Si / 1000 Ang^3
#
#
#
# Elastic Constant Matrix: (Units=GPa)
#
#
# Indices 1 2 3 4 5 6 
#
# 1 133.1368 42.4774 57.6451 0.0000 0.0000 0.0000
# 2 42.4774 70.1271 41.5415 0.0000 0.0000 0.0000
# 3 57.6451 41.5415 118.1921 0.0000 0.0000 0.0000
# 4 0.0000 0.0000 0.0000 22.7455 0.0000 0.0000
# 5 0.0000 0.0000 0.0000 0.0000 20.2600 0.0000
# 6 0.0000 0.0000 0.0000 0.0000 0.0000 17.1072
#
#
#
# Elastic Compliance Matrix: (Units=1/GPa)
#
#
# Indices 1 2 3 4 5 6 
#
# 1 0.010402 -0.004162 -0.003611 0.000000 0.000000 0.000000
# 2 -0.004162 0.019675 -0.004885 0.000000 0.000000 0.000000
# 3 -0.003611 -0.004885 0.011939 0.000000 0.000000 0.000000
# 4 0.000000 0.000000 0.000000 0.043965 0.000000 0.000000
# 5 0.000000 0.000000 0.000000 0.000000 0.049358 0.000000
# 6 0.000000 0.000000 0.000000 0.000000 0.000000 0.058455
#
#
# Mechanical properties :
#
#
# Convention : Reuss Voigt Hill
#
# Bulk Modulus (GPa) = 59.87996 67.19822 63.53909
# Shear Modulus (GPa) = 22.25425 24.00868 23.13146
#
# Velocity S-wave (km/s) = 3.52123 3.65740 3.58996
# Velocity P-wave (km/s) = 7.06361 7.43474 7.25155
#
# Compressibility (1/GPa) = 0.01670008
#
# Stress axis : x y z
#
# Youngs Moduli (GPa) = 96.13280 50.82659 83.76051
#
# Poissons Ratio (x) = 0.21154 0.30242
# Poissons Ratio (y) = 0.40011 0.40919
# Poissons Ratio (z) = 0.34709 0.24830
#
# Static dielectric constant tensor:
#      x y z
#    x 1.628620 0.000000 0.000000 
#    y 0.000000 1.653590 0.000000 
#    z 0.000000 0.000000 1.615570 
# 
# From -- ./inp_files/32921.got.cif
#   From: 2010.05.17/outbox.cif.g08.bks.cpg/sg24_17_cif.got.tgz:32921.got - 2010.06.04 00:33:39.
