data_PCOD9333291
_publ_section_title
;
Structure prediction by ZEFSAII (Michael W. Deem and Ramdas Pophale) SiO2 
 PCOD9333291
Probable space group: I 21 21 21
;
_chemical_formula_sum "Si O2"
_cell_formula_units_Z 44
_cell_length_a 11.914755
_cell_length_b 14.204671
_cell_length_c 11.133801
_cell_angle_alpha 90.000000
_cell_angle_beta 90.000000
_cell_angle_gamma 90.000000
_cell_volume 1884.342097
_symmetry_space_group_name_H-M "I 21 21 21"
_symmetry_group_IT_number 24
_symmetry_cell_setting 'orthorhombic'
loop_
_space_group_symop_operation_xyz
x,y,z
-x,1/2-y,z
x,-y,1/2-z
1/2-x,y,-z
1/2+x,1/2+y,1/2+z
1/2-x,-y,1/2+z
1/2+x,1/2-y,-z
-x,1/2+y,1/2-z
loop_
_atom_site_type_symbol
_atom_site_label
_atom_site_fract_x
_atom_site_fract_y
_atom_site_fract_z
Si Si1 0.547935 0.146452 0.197356
Si Si2 0.646759 0.353309 0.786669
Si Si3 0.453551 0.561831 0.551606
Si Si4 0.476892 0.649447 0.939950
Si Si5 0.349974 0.000000 0.250000
Si Si6 0.794764 0.143451 0.244560
O O1 0.500000 0.250000 0.210333
O O2 0.664049 0.128047 0.265962
O O3 0.447385 0.078727 0.229146
O O4 0.580344 0.125179 0.059541
O O5 0.566727 0.396654 0.888913
O O6 0.569199 0.351340 0.667273
O O7 0.751676 0.419042 0.763554
O O8 0.684567 0.247019 0.812897
O O9 0.480959 0.455566 0.506654
O O10 0.357950 0.571353 0.654335
O O11 0.500000 0.750000 0.004827
O O12 0.358646 0.649757 0.871170
#
# Coordination Sequence:
#
# PCOD9333291 Si02
#       6
#     8   8   8   8   4   8
#     4  12  26  40  59  92 128 160 197 250 318 370
#     4  10  18  39  63  89 119 160 208 245 300 360
#     4  11  21  37  65  95 119 156 205 261 305 347
#     4   9  19  36  67  89 114 160 211 252 288 355
#     4  12  24  40  58  82 126 170 196 244 304 388
#     4  10  20  38  62  93 123 156 204 254 301 367
#
# _framework density 23.350325000000002
#
# number of rings (size 3 to 8) (size 9 to 14) (size 15 to 20)
#    0.000    1.455    3.636    4.909    2.545    0.727 
#    0.000    0.909    0.000    0.000    0.000    0.000 
#    0.000    0.000    0.000    0.000    0.000    0.000 
#
# Total GULP energy -122546.393704 kJ/mol
# GULP energy per Si atom -5570.290623 kJ/mol
# Density = 2.329718 g / cm^3
# Si number density = 23.350325 Si / 1000 Ang^3
#
#
#
# Elastic Constant Matrix: (Units=GPa)
#
#
# Indices 1 2 3 4 5 6 
#
# 1 166.6652 13.3680 4.0853 0.0000 0.0000 0.0000
# 2 13.3680 153.4353 13.3358 0.0000 0.0000 0.0000
# 3 4.0853 13.3358 43.4834 0.0000 0.0000 0.0000
# 4 0.0000 0.0000 0.0000 13.6714 0.0000 0.0000
# 5 0.0000 0.0000 0.0000 0.0000 -26.7934 0.0000
# 6 0.0000 0.0000 0.0000 0.0000 0.0000 28.2347
#
#
#
# Elastic Compliance Matrix: (Units=1/GPa)
#
#
# Indices 1 2 3 4 5 6 
#
# 1 0.006050 -0.000491 -0.000418 0.000000 0.000000 0.000000
# 2 -0.000491 0.006736 -0.002020 0.000000 0.000000 0.000000
# 3 -0.000418 -0.002020 0.023656 0.000000 0.000000 0.000000
# 4 0.000000 0.000000 0.000000 0.073145 0.000000 0.000000
# 5 0.000000 0.000000 0.000000 0.000000 -0.037323 0.000000
# 6 0.000000 0.000000 0.000000 0.000000 0.000000 0.035417
#
#
# Mechanical properties :
#
#
# Convention : Reuss Voigt Hill
#
# Bulk Modulus (GPa) = 32.69599 47.24023 39.96811
# Shear Modulus (GPa) = 40.40963 25.20886 32.80925
#
# Velocity S-wave (km/s) = 4.16454 3.28928 3.75252
# Velocity P-wave (km/s) = 6.09568 5.89074 5.99408
#
# Compressibility (1/GPa) = 0.03058479
#
# Stress axis : x y z
#
# Youngs Moduli (GPa) = 165.29860 148.46272 42.27265
#
# Poissons Ratio (x) = 0.07286 0.01766
# Poissons Ratio (y) = 0.08112 0.08538
# Poissons Ratio (z) = 0.06907 0.29984
#
# Static dielectric constant tensor:
#      x y z
#    x 1.803430 0.000000 0.000000 
#    y 0.000000 1.942340 0.000000 
#    z 0.000000 0.000000 1.963930 
# 
# From -- ./inp_files/25684.got.cif
#   From: 2010.05.17/outbox.cif.g08.bks.cpg/sg24_13_cif.got.tgz:25684.got - 2010.06.04 00:33:39.
