data_PCOD9333867
_publ_section_title
;
Structure prediction by ZEFSAII (Michael W. Deem and Ramdas Pophale) SiO2 
 PCOD9333867
Probable space group: I 21 21 21
;
_chemical_formula_sum "Si O2"
_cell_formula_units_Z 28
_cell_length_a 5.032300
_cell_length_b 17.619403
_cell_length_c 19.049871
_cell_angle_alpha 90.000000
_cell_angle_beta 90.000000
_cell_angle_gamma 90.000000
_cell_volume 1689.078181
_symmetry_space_group_name_H-M "I 21 21 21"
_symmetry_group_IT_number 24
_symmetry_cell_setting 'orthorhombic'
loop_
_space_group_symop_operation_xyz
x,y,z
-x,1/2-y,z
x,-y,1/2-z
1/2-x,y,-z
1/2+x,1/2+y,1/2+z
1/2-x,-y,1/2+z
1/2+x,1/2-y,-z
-x,1/2+y,1/2-z
loop_
_atom_site_type_symbol
_atom_site_label
_atom_site_fract_x
_atom_site_fract_y
_atom_site_fract_z
Si Si1 0.874880 0.678908 0.713365
Si Si2 0.000000 0.250000 0.096530
Si Si3 0.511624 0.915991 0.545087
Si Si4 0.894075 0.924686 0.294873
O O1 0.740003 0.722016 0.646662
O O2 0.623331 0.629231 0.738701
O O3 0.000000 0.750000 0.755909
O O4 0.117436 0.621523 0.698705
O O5 0.944710 0.174867 0.053054
O O6 0.750000 0.949474 0.500000
O O7 0.508763 0.942846 0.625771
O O8 0.250000 0.928565 0.500000
O O9 0.858201 0.000000 0.250000
#
# Coordination Sequence:
#
# PCOD9333867 Si02
#       4
#     8   4   8   8
#     4  11  18  34  54  74 105 143 184 225 251 318
#     4  10  20  30  50  74 112 138 176 208 252 308
#     4  11  21  31  49  74 106 142 180 211 255 319
#     4  11  23  36  52  74 110 149 185 226 269 310
#
# _framework density 16.577090999999999
#
# number of rings (size 3 to 8) (size 9 to 14) (size 15 to 20)
#    0.000    1.143    5.714    5.143    0.000    0.000 
#    0.000    0.000    0.000    0.000    0.000    0.000 
#    0.000   22.857    0.000    0.000    0.000    0.000 
#
# Total GULP energy -77947.973538 kJ/mol
# GULP energy per Si atom -5567.712396 kJ/mol
# Density = 1.653936 g / cm^3
# Si number density = 16.577091 Si / 1000 Ang^3
#
#
#
# Elastic Constant Matrix: (Units=GPa)
#
#
# Indices 1 2 3 4 5 6 
#
# 1 144.8757 60.3639 31.3390 0.0000 0.0000 0.0000
# 2 60.3639 62.9319 42.0277 0.0000 0.0000 0.0000
# 3 31.3390 42.0277 68.5769 0.0000 0.0000 0.0000
# 4 0.0000 0.0000 0.0000 6.1632 0.0000 0.0000
# 5 0.0000 0.0000 0.0000 0.0000 11.4831 0.0000
# 6 0.0000 0.0000 0.0000 0.0000 0.0000 23.1511
#
#
#
# Elastic Compliance Matrix: (Units=1/GPa)
#
#
# Indices 1 2 3 4 5 6 
#
# 1 0.011766 -0.013027 0.002607 0.000000 0.000000 0.000000
# 2 -0.013027 0.041322 -0.019371 0.000000 0.000000 0.000000
# 3 0.002607 -0.019371 0.025263 0.000000 0.000000 0.000000
# 4 0.000000 0.000000 0.000000 0.162253 0.000000 0.000000
# 5 0.000000 0.000000 0.000000 0.000000 0.087085 0.000000
# 6 0.000000 0.000000 0.000000 0.000000 0.000000 0.043194
#
#
# Mechanical properties :
#
#
# Convention : Reuss Voigt Hill
#
# Bulk Modulus (GPa) = 53.28247 60.42731 56.85489
# Shear Modulus (GPa) = 11.44888 17.66974 14.55931
#
# Velocity S-wave (km/s) = 2.63086 3.26837 2.96679
# Velocity P-wave (km/s) = 6.43744 7.12562 6.79025
#
# Compressibility (1/GPa) = 0.01876790
#
# Stress axis : x y z
#
# Youngs Moduli (GPa) = 84.98707 24.19989 39.58370
#
# Poissons Ratio (x) = 0.31525 -0.10318
# Poissons Ratio (y) = 1.10713 0.76679
# Poissons Ratio (z) = -0.22152 0.46879
#
# Static dielectric constant tensor:
#      x y z
#    x 1.751050 0.000000 0.000000 
#    y 0.000000 1.579790 0.000000 
#    z 0.000000 0.000000 1.566430 
# 
# From -- ./inp_files/28567.got.cif
#   From: 2010.05.17/outbox.cif.g08.bks.cpg/sg24_15_cif.got.tgz:28567.got - 2010.06.04 00:33:39.
