data_PCOD9333504
_publ_section_title
;
Structure prediction by ZEFSAII (Michael W. Deem and Ramdas Pophale) SiO2 
 PCOD9333504
Probable space group: I 21 21 21
;
_chemical_formula_sum "Si O2"
_cell_formula_units_Z 40
_cell_length_a 8.600955
_cell_length_b 19.769752
_cell_length_c 11.590089
_cell_angle_alpha 90.000000
_cell_angle_beta 90.000000
_cell_angle_gamma 90.000000
_cell_volume 1970.764215
_symmetry_space_group_name_H-M "I 21 21 21"
_symmetry_group_IT_number 24
_symmetry_cell_setting 'orthorhombic'
loop_
_space_group_symop_operation_xyz
x,y,z
-x,1/2-y,z
x,-y,1/2-z
1/2-x,y,-z
1/2+x,1/2+y,1/2+z
1/2-x,-y,1/2+z
1/2+x,1/2-y,-z
-x,1/2+y,1/2-z
loop_
_atom_site_type_symbol
_atom_site_label
_atom_site_fract_x
_atom_site_fract_y
_atom_site_fract_z
Si Si1 0.364603 0.697410 0.601793
Si Si2 0.576903 0.462961 0.360689
Si Si3 0.395592 0.352679 0.268918
Si Si4 0.500000 0.750000 0.035868
Si Si5 0.750000 0.350292 0.500000
Si Si6 0.576674 0.606435 0.455399
O O1 0.500000 0.750000 0.632760
O O2 0.250000 0.725039 0.500000
O O3 0.258420 0.670337 0.704229
O O4 0.453240 0.634983 0.544423
O O5 0.649761 0.500000 0.250000
O O6 0.415720 0.427427 0.322768
O O7 0.681500 0.401366 0.405411
O O8 0.557351 0.525466 0.445832
O O9 0.417334 0.300744 0.373759
O O10 0.529175 0.357254 0.167026
O O11 0.386488 0.798594 0.964413
O O12 0.750000 0.619876 0.500000
#
# Coordination Sequence:
#
# PCOD9333504 Si02
#       6
#     8   8   8   4   4   8
#     4  10  21  34  57  93 130 166 203 257 328 384
#     4   9  18  38  67  91 118 163 215 257 320 372
#     4   9  21  37  59  86 125 164 207 263 318 374
#     4  10  22  40  64  84 122 166 206 264 310 376
#     4  10  20  42  68  88 118 166 208 252 324 372
#     4  10  19  33  64  92 127 164 207 268 318 386
#
# _framework density 20.296695
#
# number of rings (size 3 to 8) (size 9 to 14) (size 15 to 20)
#    0.000    2.400    1.000    0.600    8.400    0.000 
#    1.800    0.000   52.800   25.200    0.000    0.000 
#    0.000    0.000    0.000    0.000    0.000    0.000 
#
# Total GULP energy -111379.623517 kJ/mol
# GULP energy per Si atom -5568.981176 kJ/mol
# Density = 2.025050 g / cm^3
# Si number density = 20.296695 Si / 1000 Ang^3
#
#
#
# Elastic Constant Matrix: (Units=GPa)
#
#
# Indices 1 2 3 4 5 6 
#
# 1 109.9317 65.5867 31.2504 0.0000 0.0000 0.0000
# 2 65.5867 154.2608 42.7219 0.0000 0.0000 0.0000
# 3 31.2504 42.7219 28.7202 0.0000 0.0000 0.0001
# 4 0.0000 0.0000 0.0000 19.9852 0.0000 0.0000
# 5 0.0000 0.0000 0.0000 0.0000 28.8699 0.0000
# 6 0.0000 0.0000 0.0001 0.0000 0.0000 61.7447
#
#
#
# Elastic Compliance Matrix: (Units=1/GPa)
#
#
# Indices 1 2 3 4 5 6 
#
# 1 0.013907 -0.002928 -0.010776 0.000000 0.000000 0.000000
# 2 -0.002928 0.011641 -0.014129 0.000000 0.000000 0.000000
# 3 -0.010776 -0.014129 0.067562 0.000000 0.000000 0.000000
# 4 0.000000 0.000000 0.000000 0.050037 0.000000 0.000000
# 5 0.000000 0.000000 0.000000 0.000000 0.034638 0.000000
# 6 0.000000 0.000000 0.000000 0.000000 0.000000 0.016196
#
#
# Mechanical properties :
#
#
# Convention : Reuss Voigt Hill
#
# Bulk Modulus (GPa) = 26.70807 63.55895 45.13351
# Shear Modulus (GPa) = 19.07457 32.34354 25.70905
#
# Velocity S-wave (km/s) = 3.06892 3.99624 3.56288
# Velocity P-wave (km/s) = 5.07396 7.25784 6.26184
#
# Compressibility (1/GPa) = 0.03744187
#
# Stress axis : x y z
#
# Youngs Moduli (GPa) = 71.90604 85.90576 14.80122
#
# Poissons Ratio (x) = 0.25157 0.15950
# Poissons Ratio (y) = 0.21057 0.20913
# Poissons Ratio (z) = 0.77487 1.21379
#
# Static dielectric constant tensor:
#      x y z
#    x 1.765820 0.000000 0.000000 
#    y 0.000000 1.744270 0.000000 
#    z 0.000000 0.000000 1.776490 
# 
# From -- ./inp_files/18280.got.cif
#   From: 2010.05.17/outbox.cif.g08.bks.cpg/sg24_10_cif.got.tgz:18280.got - 2010.06.04 00:33:39.
