data_PCOD9333798
_publ_section_title
;
Structure prediction by ZEFSAII (Michael W. Deem and Ramdas Pophale) SiO2 
 PCOD9333798
Probable space group: I 21 21 21
;
_chemical_formula_sum "Si O2"
_cell_formula_units_Z 60
_cell_length_a 16.469106
_cell_length_b 21.177913
_cell_length_c 8.523487
_cell_angle_alpha 90.000000
_cell_angle_beta 90.000000
_cell_angle_gamma 90.000000
_cell_volume 2972.832826
_symmetry_space_group_name_H-M "I 21 21 21"
_symmetry_group_IT_number 24
_symmetry_cell_setting 'orthorhombic'
loop_
_space_group_symop_operation_xyz
x,y,z
-x,1/2-y,z
x,-y,1/2-z
1/2-x,y,-z
1/2+x,1/2+y,1/2+z
1/2-x,-y,1/2+z
1/2+x,1/2-y,-z
-x,1/2+y,1/2-z
loop_
_atom_site_type_symbol
_atom_site_label
_atom_site_fract_x
_atom_site_fract_y
_atom_site_fract_z
Si Si1 0.475013 0.391905 0.082683
Si Si2 0.838772 0.817206 0.430964
Si Si3 0.404780 0.934378 0.156950
Si Si4 0.473837 0.475638 0.574173
Si Si5 0.670277 0.121751 0.590523
Si Si6 0.771968 0.344097 0.751202
Si Si7 0.123370 0.825427 0.432959
Si Si8 0.250000 0.738625 0.000000
O O1 0.524760 0.396876 0.245233
O O2 0.394068 0.351228 0.062388
O O3 0.455620 0.463423 0.033213
O O4 0.538340 0.359819 0.960002
O O5 0.750000 0.804689 0.500000
O O6 0.828224 0.862180 0.277423
O O7 0.879222 0.749084 0.392596
O O8 0.321817 0.896092 0.156923
O O9 0.392309 0.000000 0.250000
O O10 0.441409 0.948818 0.988312
O O11 0.477234 0.500000 0.750000
O O12 0.405138 0.422715 0.559351
O O13 0.750000 0.093528 0.500000
O O14 0.673208 0.192005 0.517209
O O15 0.682017 0.360383 0.810118
O O16 0.762644 0.281774 0.649018
O O17 0.827641 0.330377 0.902860
#
# Coordination Sequence:
#
# PCOD9333798 Si02
#       8
#     8   8   8   8   8   8   8   4
#     4  10  23  38  63  91 122 168 213 259 325 378
#     4  12  21  38  64  94 126 163 213 258 318 385
#     4   9  22  42  63  91 125 162 214 263 315 379
#     4  11  22  43  59  87 128 165 209 266 314 384
#     4  10  23  40  60  87 130 163 208 264 320 384
#     4  10  19  38  66  91 125 163 206 256 322 378
#     4  10  19  39  62  91 127 162 205 265 310 385
#     4  10  20  38  60  92 126 160 206 262 320 386
#
# _framework density 20.182770999999999
#
# number of rings (size 3 to 8) (size 9 to 14) (size 15 to 20)
#    0.400    1.333    4.000    0.400    1.867    1.600 
#    0.000    6.667    0.000    0.000    0.000    0.000 
#    0.000    0.000    0.000    0.000    0.000    0.000 
#
# Total GULP energy -167266.356367 kJ/mol
# GULP energy per Si atom -5575.545212 kJ/mol
# Density = 2.013683 g / cm^3
# Si number density = 20.182771 Si / 1000 Ang^3
#
#
#
# Elastic Constant Matrix: (Units=GPa)
#
#
# Indices 1 2 3 4 5 6 
#
# 1 77.3209 57.4791 15.1114 0.0000 0.0000 0.0000
# 2 57.4791 93.8504 11.6062 0.0000 0.0000 0.0000
# 3 15.1114 11.6062 29.4449 0.0000 0.0000 0.0000
# 4 0.0000 0.0000 0.0000 23.5845 0.0000 0.0000
# 5 0.0000 0.0000 0.0000 0.0000 25.3269 0.0000
# 6 0.0000 0.0000 0.0000 0.0000 0.0000 -33.7029
#
#
#
# Elastic Compliance Matrix: (Units=1/GPa)
#
#
# Indices 1 2 3 4 5 6 
#
# 1 0.025106 -0.014489 -0.007174 0.000000 0.000000 0.000000
# 2 -0.014489 0.019563 -0.000275 0.000000 0.000000 0.000000
# 3 -0.007174 -0.000275 0.037752 0.000000 0.000000 0.000000
# 4 0.000000 0.000000 0.000000 0.042401 0.000000 0.000000
# 5 0.000000 0.000000 0.000000 0.000000 0.039484 0.000000
# 6 0.000000 0.000000 0.000000 0.000000 0.000000 -0.029671
#
#
# Mechanical properties :
#
#
# Convention : Reuss Voigt Hill
#
# Bulk Modulus (GPa) = 25.94356 41.00110 33.47233
# Shear Modulus (GPa) = 26.12890 10.80300 18.46595
#
# Velocity S-wave (km/s) = 3.60198 2.31608 3.02807
# Velocity P-wave (km/s) = 5.49374 5.24512 5.37087
#
# Compressibility (1/GPa) = 0.03854521
#
# Stress axis : x y z
#
# Youngs Moduli (GPa) = 39.83081 51.11612 26.48885
#
# Poissons Ratio (x) = 0.74064 0.19002
# Poissons Ratio (y) = 0.57712 0.00729
# Poissons Ratio (z) = 0.28573 0.01407
#
# Static dielectric constant tensor:
#      x y z
#    x 1.708540 0.000000 0.000000 
#    y 0.000000 1.715840 0.000000 
#    z 0.000000 0.000000 1.751630 
# 
# From -- ./inp_files/14461.got.cif
#   From: 2010.05.17/outbox.cif.g08.bks.cpg/sg24_8_cif.got.tgz:14461.got - 2010.06.04 00:33:39.
