data_PCOD9333011
_publ_section_title
;
Structure prediction by ZEFSAII (Michael W. Deem and Ramdas Pophale) SiO2 
 PCOD9333011
Probable space group: I 21 21 21
;
_chemical_formula_sum "Si O2"
_cell_formula_units_Z 60
_cell_length_a 23.893092
_cell_length_b 14.960316
_cell_length_c 9.186601
_cell_angle_alpha 90.000000
_cell_angle_beta 90.000000
_cell_angle_gamma 90.000000
_cell_volume 3283.734052
_symmetry_space_group_name_H-M "I 21 21 21"
_symmetry_group_IT_number 24
_symmetry_cell_setting 'orthorhombic'
loop_
_space_group_symop_operation_xyz
x,y,z
-x,1/2-y,z
x,-y,1/2-z
1/2-x,y,-z
1/2+x,1/2+y,1/2+z
1/2-x,-y,1/2+z
1/2+x,1/2-y,-z
-x,1/2+y,1/2-z
loop_
_atom_site_type_symbol
_atom_site_label
_atom_site_fract_x
_atom_site_fract_y
_atom_site_fract_z
Si Si1 0.985711 0.147840 0.593177
Si Si2 0.103723 0.576164 0.484940
Si Si3 0.645281 0.887863 0.058885
Si Si4 0.250000 0.720086 0.500000
Si Si5 0.645941 0.763896 0.325502
Si Si6 0.694105 0.900655 0.747790
Si Si7 0.569512 0.405523 0.181193
Si Si8 0.978069 0.512542 0.417957
O O1 0.920668 0.137081 0.557273
O O2 0.000000 0.250000 0.579042
O O3 0.007729 0.113876 0.750391
O O4 0.021852 0.085877 0.487462
O O5 0.138750 0.496328 0.565554
O O6 0.110175 0.665833 0.578142
O O7 0.133919 0.588792 0.330452
O O8 0.040746 0.547833 0.451073
O O9 0.666529 0.825546 0.190263
O O10 0.680869 0.870402 0.912154
O O11 0.302554 0.768478 0.426039
O O12 0.273361 0.660137 0.632918
O O13 0.608226 0.679069 0.283358
O O14 0.720474 0.000000 0.750000
O O15 0.588726 0.500000 0.250000
O O16 0.562510 0.423430 0.009791
O O17 0.966634 0.500000 0.250000
#
# Coordination Sequence:
#
# PCOD9333011 Si02
#       8
#     8   8   8   4   8   8   8   8
#     4  10  18  34  55  86 117 148 183 222 271 342
#     4   9  18  32  52  83 121 152 176 215 278 346
#     4  10  18  31  57  82 114 148 181 218 273 349
#     4  10  24  38  52  76 108 144 196 250 286 330
#     4  11  21  37  57  80 108 144 192 240 290 338
#     4   9  19  35  53  79 116 153 185 226 281 340
#     4  10  22  38  57  80 111 149 191 234 282 339
#     4  10  20  35  52  82 121 152 185 225 273 344
#
# _framework density 18.271882999999999
#
# number of rings (size 3 to 8) (size 9 to 14) (size 15 to 20)
#    0.000    2.133    1.333    3.200    0.000    5.867 
#    7.200    0.000    0.000    2.400    0.000    0.000 
#    0.000    0.000    0.000    0.000    0.000    0.000 
#
# Total GULP energy -167122.664856 kJ/mol
# GULP energy per Si atom -5570.755495 kJ/mol
# Density = 1.823029 g / cm^3
# Si number density = 18.271883 Si / 1000 Ang^3
#
#
#
# Elastic Constant Matrix: (Units=GPa)
#
#
# Indices 1 2 3 4 5 6 
#
# 1 47.6209 14.5524 20.6721 0.0000 0.0000 0.0000
# 2 14.5524 73.3308 16.4988 0.0000 0.0000 0.0000
# 3 20.6721 16.4988 112.5737 0.0000 0.0000 0.0000
# 4 0.0000 0.0000 0.0000 12.6138 0.0000 0.0000
# 5 0.0000 0.0000 0.0000 0.0000 23.5457 0.0000
# 6 0.0000 0.0000 0.0000 0.0000 0.0000 -0.2663
#
#
#
# Elastic Compliance Matrix: (Units=1/GPa)
#
#
# Indices 1 2 3 4 5 6 
#
# 1 0.023836 -0.003873 -0.003809 0.000000 0.000000 0.000000
# 2 -0.003873 0.014731 -0.001448 0.000000 0.000000 0.000000
# 3 -0.003809 -0.001448 0.009795 0.000000 0.000000 0.000000
# 4 0.000000 0.000000 0.000000 0.079278 0.000000 0.000000
# 5 0.000000 0.000000 0.000000 0.000000 0.042471 0.000000
# 6 0.000000 0.000000 0.000000 0.000000 0.000000 -3.754922
#
#
# Mechanical properties :
#
#
# Convention : Reuss Voigt Hill
#
# Bulk Modulus (GPa) = 33.22086 37.44133 35.33110
# Shear Modulus (GPa) = -1.40587 19.29880 8.94646
#
# Velocity S-wave (km/s) = -0.87812 3.25345 2.21516
# Velocity P-wave (km/s) = 4.14642 5.88634 5.09125
#
# Compressibility (1/GPa) = 0.03010156
#
# Stress axis : x y z
#
# Youngs Moduli (GPa) = 41.95252 67.88313 102.09512
#
# Poissons Ratio (x) = 0.26293 0.38893
# Poissons Ratio (y) = 0.16249 0.14781
# Poissons Ratio (z) = 0.15982 0.09828
#
# Static dielectric constant tensor:
#      x y z
#    x 1.664090 0.000000 0.000000 
#    y 0.000000 1.618400 0.000000 
#    z 0.000000 0.000000 1.685730 
# 
# From -- ./inp_files/13309.got.cif
#   From: 2010.05.17/outbox.cif.g08.bks.cpg/sg24_7_cif.got.tgz:13309.got - 2010.06.04 00:33:39.
