data_PCOD9333702
_publ_section_title
;
Structure prediction by ZEFSAII (Michael W. Deem and Ramdas Pophale) SiO2 
 PCOD9333702
Probable space group: I 21 21 21
;
_chemical_formula_sum "Si O2"
_cell_formula_units_Z 48
_cell_length_a 13.921834
_cell_length_b 25.903036
_cell_length_c 5.459359
_cell_angle_alpha 90.000000
_cell_angle_beta 90.000000
_cell_angle_gamma 90.000000
_cell_volume 1968.741853
_symmetry_space_group_name_H-M "I 21 21 21"
_symmetry_group_IT_number 24
_symmetry_cell_setting 'orthorhombic'
loop_
_space_group_symop_operation_xyz
x,y,z
-x,1/2-y,z
x,-y,1/2-z
1/2-x,y,-z
1/2+x,1/2+y,1/2+z
1/2-x,-y,1/2+z
1/2+x,1/2-y,-z
-x,1/2+y,1/2-z
loop_
_atom_site_type_symbol
_atom_site_label
_atom_site_fract_x
_atom_site_fract_y
_atom_site_fract_z
Si Si1 0.116203 0.057189 0.289101
Si Si2 0.000000 0.250000 0.581610
Si Si3 0.750000 0.134947 0.000000
Si Si4 0.386988 0.558851 0.792815
Si Si5 0.872973 0.614947 0.700659
Si Si6 0.200781 0.224821 0.750840
Si Si7 0.582899 0.852837 0.158064
O O1 0.133594 0.077345 0.563799
O O2 0.000737 0.055990 0.248560
O O3 0.155067 0.000000 0.250000
O O4 0.149173 0.091663 0.063115
O O5 0.089676 0.237907 0.748251
O O6 0.040627 0.306009 0.476972
O O7 0.673293 0.097412 0.873331
O O8 0.820788 0.163787 0.806272
O O9 0.351047 0.500000 0.750000
O O10 0.384538 0.591895 0.044902
O O11 0.804755 0.662859 0.755713
O O12 0.985322 0.633784 0.695784
O O13 0.250000 0.242498 0.500000
O O14 0.250000 0.240260 0.000000
#
# Coordination Sequence:
#
# PCOD9333702 Si02
#       7
#     8   4   4   8   8   8   8
#     4  10  19  36  63  93 131 183 236 294 372 447
#     4  10  26  50  74 104 148 192 250 332 374 462
#     4  12  22  36  62  94 144 182 240 298 382 452
#     4  10  23  37  59  94 141 189 239 301 373 466
#     4  10  20  40  62  92 135 174 236 290 359 440
#     4  11  25  46  75 107 137 189 241 302 382 452
#     4  10  23  42  61  95 134 191 240 303 376 445
#
# _framework density 24.381053999999999
#
# number of rings (size 3 to 8) (size 9 to 14) (size 15 to 20)
#    0.000    1.667    1.667    2.000    3.500    2.000 
#    0.000    0.000    0.000   10.000    0.000    0.000 
#    0.000    0.000    0.000    0.000    0.000    0.000 
#
# Total GULP energy -133755.237458 kJ/mol
# GULP energy per Si atom -5573.134894 kJ/mol
# Density = 2.432556 g / cm^3
# Si number density = 24.381054 Si / 1000 Ang^3
#
#
#
# Elastic Constant Matrix: (Units=GPa)
#
#
# Indices 1 2 3 4 5 6 
#
# 1 120.6024 28.2687 56.6140 0.1727 -0.0036 -0.0095
# 2 28.2687 121.9340 34.9419 0.2828 -0.0097 -0.0040
# 3 56.6140 34.9419 106.4586 0.6614 -0.0390 -0.0082
# 4 0.1727 0.2828 0.6614 9.7710 0.0205 -0.0044
# 5 -0.0036 -0.0097 -0.0390 0.0205 24.0355 0.0056
# 6 -0.0095 -0.0040 -0.0082 -0.0044 0.0056 39.2422
#
#
#
# Elastic Compliance Matrix: (Units=1/GPa)
#
#
# Indices 1 2 3 4 5 6 
#
# 1 0.011155 -0.000978 -0.005613 0.000211 -0.000008 0.000001
# 2 -0.000978 0.009138 -0.002479 -0.000079 0.000000 0.000000
# 3 -0.005613 -0.002479 0.013196 -0.000722 0.000020 0.000001
# 4 0.000211 -0.000079 -0.000722 0.102391 -0.000089 0.000012
# 5 -0.000008 0.000000 0.000020 -0.000089 0.041605 -0.000006
# 6 0.000001 0.000000 0.000001 0.000012 -0.000006 0.025483
#
#
# Mechanical properties :
#
#
# Convention : Reuss Voigt Hill
#
# Bulk Modulus (GPa) = 65.14318 65.40490 65.27404
# Shear Modulus (GPa) = 22.10185 29.88776 25.99481
#
# Velocity S-wave (km/s) = 3.01411 3.50503 3.26880
# Velocity P-wave (km/s) = 6.23618 6.57759 6.40916
#
# Compressibility (1/GPa) = 0.01535080
#
# Stress axis : x y z
#
# Youngs Moduli (GPa) = 89.64248 109.42777 75.77997
#
# Poissons Ratio (x) = 0.10706 0.42532
# Poissons Ratio (y) = 0.08770 0.18783
# Poissons Ratio (z) = 0.50313 0.27123
#
# Static dielectric constant tensor:
#      x y z
#    x 2.134610 0.000060 -0.000240 
#    y 0.000060 2.082440 0.000010 
#    z -0.000240 0.000010 1.983500 
# 
# From -- ./inp_files/3807.got.cif
#   From: 2010.05.17/outbox.cif.g08.bks.cpg/sg24_2_cif.got.tgz:3807.got - 2010.06.04 00:33:39.
