data_PCOD9333066
_publ_section_title
;
Structure prediction by ZEFSAII (Michael W. Deem and Ramdas Pophale) SiO2 
 PCOD9333066
Probable space group: I 21 21 21
;
_chemical_formula_sum "Si O2"
_cell_formula_units_Z 48
_cell_length_a 19.682301
_cell_length_b 14.592627
_cell_length_c 8.183479
_cell_angle_alpha 90.000000
_cell_angle_beta 90.000000
_cell_angle_gamma 90.000000
_cell_volume 2350.430008
_symmetry_space_group_name_H-M "I 21 21 21"
_symmetry_group_IT_number 24
_symmetry_cell_setting 'orthorhombic'
loop_
_space_group_symop_operation_xyz
x,y,z
-x,1/2-y,z
x,-y,1/2-z
1/2-x,y,-z
1/2+x,1/2+y,1/2+z
1/2-x,-y,1/2+z
1/2+x,1/2-y,-z
-x,1/2+y,1/2-z
loop_
_atom_site_type_symbol
_atom_site_label
_atom_site_fract_x
_atom_site_fract_y
_atom_site_fract_z
Si Si1 0.818156 0.769792 0.569542
Si Si2 0.500000 0.750000 0.030120
Si Si3 0.952953 0.664228 0.581421
Si Si4 0.537810 0.000000 0.250000
Si Si5 0.366053 0.352622 0.395279
Si Si6 0.346865 0.603803 0.746999
Si Si7 0.490306 0.897283 0.763421
O O1 0.750000 0.724441 0.500000
O O2 0.875214 0.693241 0.603076
O O3 0.819350 0.829558 0.738032
O O4 0.668200 0.839759 0.582171
O O5 0.478810 0.839290 0.924785
O O6 0.427526 0.720386 0.101934
O O7 0.000000 0.750000 0.627850
O O8 0.988838 0.575390 0.663875
O O9 0.959837 0.655414 0.387966
O O10 0.590674 0.947005 0.131029
O O11 0.331711 0.353538 0.573705
O O12 0.319073 0.500000 0.750000
O O13 0.428757 0.598999 0.743533
O O14 0.463568 0.000000 0.750000
#
# Coordination Sequence:
#
# PCOD9333066 Si02
#       7
#     8   4   8   4   8   8   8
#     4  12  26  43  61  93 138 187 222 271 348 420
#     4  10  18  32  58  96 126 156 206 272 328 388
#     4  12  20  40  66  96 135 172 220 289 340 403
#     4  12  22  36  70 104 124 166 224 288 344 390
#     4  11  21  37  63  93 131 160 221 273 330 408
#     4  10  20  38  60  90 129 170 215 274 333 401
#     4  10  18  33  63  98 125 157 212 276 345 398
#
# _framework density 20.421794999999999
#
# number of rings (size 3 to 8) (size 9 to 14) (size 15 to 20)
#    0.000    1.000    4.167    6.000    0.000    0.667 
#    4.500    0.000    1.833    0.000    0.000    0.000 
#    0.000    0.000    0.000    0.000    0.000    0.000 
#
# Total GULP energy -133759.767723 kJ/mol
# GULP energy per Si atom -5573.323655 kJ/mol
# Density = 2.037531 g / cm^3
# Si number density = 20.421795 Si / 1000 Ang^3
#
#
#
# Elastic Constant Matrix: (Units=GPa)
#
#
# Indices 1 2 3 4 5 6 
#
# 1 60.5217 20.3212 21.8809 0.0000 0.0000 0.0000
# 2 20.3212 68.2562 2.3660 0.0000 0.0000 0.0000
# 3 21.8809 2.3660 123.1703 0.0000 0.0000 0.0000
# 4 0.0000 0.0000 0.0000 35.4305 0.0000 0.0000
# 5 0.0000 0.0000 0.0000 0.0000 29.6016 0.0000
# 6 0.0000 0.0000 0.0000 0.0000 0.0000 19.4585
#
#
#
# Elastic Compliance Matrix: (Units=1/GPa)
#
#
# Indices 1 2 3 4 5 6 
#
# 1 0.019674 -0.005740 -0.003385 0.000000 0.000000 0.000000
# 2 -0.005740 0.016335 0.000706 0.000000 0.000000 0.000000
# 3 -0.003385 0.000706 0.008707 0.000000 0.000000 0.000000
# 4 0.000000 0.000000 0.000000 0.028224 0.000000 0.000000
# 5 0.000000 0.000000 0.000000 0.000000 0.033782 0.000000
# 6 0.000000 0.000000 0.000000 0.000000 0.000000 0.051391
#
#
# Mechanical properties :
#
#
# Convention : Reuss Voigt Hill
#
# Bulk Modulus (GPa) = 35.87060 37.89826 36.88443
# Shear Modulus (GPa) = 27.13795 30.72346 28.93070
#
# Velocity S-wave (km/s) = 3.64932 3.88292 3.76794
# Velocity P-wave (km/s) = 5.94641 6.22100 6.08525
#
# Compressibility (1/GPa) = 0.02787799
#
# Stress axis : x y z
#
# Youngs Moduli (GPa) = 50.82841 61.21780 114.85572
#
# Poissons Ratio (x) = 0.35139 0.38876
# Poissons Ratio (y) = 0.29176 -0.08108
# Poissons Ratio (z) = 0.17204 -0.04321
#
# Static dielectric constant tensor:
#      x y z
#    x 1.745410 0.000000 0.000000 
#    y 0.000000 1.776560 0.000000 
#    z 0.000000 0.000000 1.915500 
# 
# From -- ./inp_files/14235.got.cif
#   From: 2010.05.17/outbox.cif.g08.bks.cpg/sg24_8_cif.got.tgz:14235.got - 2010.06.04 00:33:39.
