data_PCOD9333527
_publ_section_title
;
Structure prediction by ZEFSAII (Michael W. Deem and Ramdas Pophale) SiO2 
 PCOD9333527
Probable space group: I 21 21 21
;
_chemical_formula_sum "Si O2"
_cell_formula_units_Z 64
_cell_length_a 9.020511
_cell_length_b 18.885209
_cell_length_c 20.121657
_cell_angle_alpha 90.000000
_cell_angle_beta 90.000000
_cell_angle_gamma 90.000000
_cell_volume 3427.809496
_symmetry_space_group_name_H-M "I 21 21 21"
_symmetry_group_IT_number 24
_symmetry_cell_setting 'orthorhombic'
loop_
_space_group_symop_operation_xyz
x,y,z
-x,1/2-y,z
x,-y,1/2-z
1/2-x,y,-z
1/2+x,1/2+y,1/2+z
1/2-x,-y,1/2+z
1/2+x,1/2-y,-z
-x,1/2+y,1/2-z
loop_
_atom_site_type_symbol
_atom_site_label
_atom_site_fract_x
_atom_site_fract_y
_atom_site_fract_z
Si Si1 0.482631 0.551498 0.462196
Si Si2 0.117661 0.686195 0.197003
Si Si3 0.538216 0.535336 0.818282
Si Si4 0.670377 0.777733 0.661856
Si Si5 0.362763 0.197123 0.061353
Si Si6 0.818158 0.066166 0.102452
Si Si7 0.381391 0.926320 0.962463
Si Si8 0.875343 0.189646 0.447110
O O1 0.574568 0.618117 0.436389
O O2 0.404811 0.568965 0.532635
O O3 0.346359 0.536629 0.412448
O O4 0.589348 0.488489 0.484268
O O5 0.031923 0.611263 0.202141
O O6 0.209324 0.704586 0.262105
O O7 0.195801 0.686049 0.126097
O O8 0.000000 0.750000 0.192924
O O9 0.600100 0.500000 0.750000
O O10 0.410420 0.482670 0.846736
O O11 0.638620 0.549202 0.885042
O O12 0.500000 0.750000 0.658472
O O13 0.774906 0.720975 0.626784
O O14 0.687888 0.852726 0.625373
O O15 0.500000 0.250000 0.050841
O O16 0.250000 0.203523 0.000000
O O17 0.533307 0.882304 0.958667
O O18 0.250000 0.884359 0.000000
O O19 0.750000 0.200081 0.500000
O O20 0.000000 0.250000 0.449487
#
# Coordination Sequence:
#
# PCOD9333527 Si02
#       8
#     8   8   8   8   8   8   8   8
#     4  10  21  34  53  84 118 154 202 247 290 343
#     4   9  20  37  57  90 115 145 199 249 295 372
#     4  10  19  35  62  85 115 164 208 246 305 363
#     4  11  21  35  55  81 116 157 199 246 289 345
#     4  12  22  34  52  79 120 165 204 240 285 336
#     4  10  19  34  56  84 115 153 209 254 284 346
#     4  10  22  37  59  90 125 153 200 258 298 363
#     4  10  21  39  68  93 116 148 191 250 319 376
#
# _framework density 18.670815999999999
#
# number of rings (size 3 to 8) (size 9 to 14) (size 15 to 20)
#    0.000    1.750    2.500    2.625    5.250    1.000 
#    0.000    0.625    0.000    2.250    0.000    0.000 
#    0.000    0.000    0.000    0.000    0.000    0.000 
#
# Total GULP energy -178374.977057 kJ/mol
# GULP energy per Si atom -5574.218033 kJ/mol
# Density = 1.862832 g / cm^3
# Si number density = 18.670816 Si / 1000 Ang^3
#
#
#
# Elastic Constant Matrix: (Units=GPa)
#
#
# Indices 1 2 3 4 5 6 
#
# 1 59.7424 -1.8906 34.5309 0.0000 0.0000 0.0000
# 2 -1.8906 72.5474 7.9774 0.0000 0.0000 0.0000
# 3 34.5309 7.9774 96.9023 0.0000 0.0000 0.0000
# 4 0.0000 0.0000 0.0000 23.8423 0.0000 0.0000
# 5 0.0000 0.0000 0.0000 0.0000 23.9228 0.0000
# 6 0.0000 0.0000 0.0000 0.0000 0.0000 18.4672
#
#
#
# Elastic Compliance Matrix: (Units=1/GPa)
#
#
# Indices 1 2 3 4 5 6 
#
# 1 0.021220 0.001397 -0.007677 0.000000 0.000000 0.000000
# 2 0.001397 0.014002 -0.001651 0.000000 0.000000 0.000000
# 3 -0.007677 -0.001651 0.013191 0.000000 0.000000 0.000000
# 4 0.000000 0.000000 0.000000 0.041942 0.000000 0.000000
# 5 0.000000 0.000000 0.000000 0.000000 0.041801 0.000000
# 6 0.000000 0.000000 0.000000 0.000000 0.000000 0.054150
#
#
# Mechanical properties :
#
#
# Convention : Reuss Voigt Hill
#
# Bulk Modulus (GPa) = 30.71938 34.49196 32.60567
# Shear Modulus (GPa) = 23.47224 25.81808 24.64516
#
# Velocity S-wave (km/s) = 3.54949 3.72264 3.63710
# Velocity P-wave (km/s) = 5.76953 6.08204 5.92784
#
# Compressibility (1/GPa) = 0.03255274
#
# Stress axis : x y z
#
# Youngs Moduli (GPa) = 47.12578 71.41837 75.80866
#
# Poissons Ratio (x) = -0.09978 0.58196
# Poissons Ratio (y) = -0.06584 0.12513
# Poissons Ratio (z) = 0.36177 0.11788
#
# Static dielectric constant tensor:
#      x y z
#    x 1.689420 0.000000 0.000000 
#    y 0.000000 1.677510 0.000000 
#    z 0.000000 0.000000 1.670830 
# 
# From -- ./inp_files/32951.got.cif
#   From: 2010.05.17/outbox.cif.g08.bks.cpg/sg24_17_cif.got.tgz:32951.got - 2010.06.04 00:33:39.
