data_PCOD9333260
_publ_section_title
;
Structure prediction by ZEFSAII (Michael W. Deem and Ramdas Pophale) SiO2 
 PCOD9333260
Probable space group: I 21 21 21
;
_chemical_formula_sum "Si O2"
_cell_formula_units_Z 56
_cell_length_a 10.856406
_cell_length_b 12.937980
_cell_length_c 23.047161
_cell_angle_alpha 90.000000
_cell_angle_beta 90.000000
_cell_angle_gamma 90.000000
_cell_volume 3237.203397
_symmetry_space_group_name_H-M "I 21 21 21"
_symmetry_group_IT_number 24
_symmetry_cell_setting 'orthorhombic'
loop_
_space_group_symop_operation_xyz
x,y,z
-x,1/2-y,z
x,-y,1/2-z
1/2-x,y,-z
1/2+x,1/2+y,1/2+z
1/2-x,-y,1/2+z
1/2+x,1/2-y,-z
-x,1/2+y,1/2-z
loop_
_atom_site_type_symbol
_atom_site_label
_atom_site_fract_x
_atom_site_fract_y
_atom_site_fract_z
Si Si1 0.237125 0.647972 0.069899
Si Si2 0.500000 0.250000 0.557706
Si Si3 0.000000 0.750000 0.766850
Si Si4 0.510390 0.904740 0.135537
Si Si5 0.217189 0.589534 0.412481
Si Si6 0.549182 0.140844 0.007913
Si Si7 0.654019 0.918118 0.299531
Si Si8 0.107934 0.937899 0.983815
O O1 0.126839 0.722095 0.090584
O O2 0.366716 0.647751 0.105233
O O3 0.189644 0.531215 0.078196
O O4 0.250000 0.666703 0.000000
O O5 0.534024 0.349132 0.518295
O O6 0.955553 0.662611 0.812251
O O7 0.904910 0.815553 0.728089
O O8 0.414995 0.918256 0.084018
O O9 0.556159 0.013019 0.163244
O O10 0.113718 0.653426 0.445428
O O11 0.343679 0.605980 0.448176
O O12 0.240925 0.610026 0.345425
O O13 0.500000 0.250000 0.028443
O O14 0.449455 0.050400 0.004164
O O15 0.694290 0.000000 0.250000
O O16 0.250000 0.932652 0.000000
#
# Coordination Sequence:
#
# PCOD9333260 Si02
#       8
#     8   4   4   8   8   8   8   8
#     4  11  17  33  55  79 116 155 182 223 289 363
#     4  12  21  32  52  84 124 150 191 216 284 366
#     4  10  21  34  54  84 108 136 205 246 280 320
#     4  10  20  37  54  79 122 149 182 238 293 343
#     4  10  18  38  60  77 117 151 189 240 284 350
#     4  11  22  37  56  88 119 155 192 232 292 358
#     4   9  19  35  58  83 101 149 196 242 287 332
#     4  12  24  34  53  91 126 152 184 230 297 366
#
# _framework density 17.298881999999999
#
# number of rings (size 3 to 8) (size 9 to 14) (size 15 to 20)
#    0.000    1.429    7.143    0.857    5.000    0.000 
#    0.000    0.000    0.000    0.000   20.429    0.000 
#    0.000    0.000    0.000    0.000    0.000    0.000 
#
# Total GULP energy -156038.109193 kJ/mol
# GULP energy per Si atom -5572.789614 kJ/mol
# Density = 1.725951 g / cm^3
# Si number density = 17.298882 Si / 1000 Ang^3
#
#
#
# Elastic Constant Matrix: (Units=GPa)
#
#
# Indices 1 2 3 4 5 6 
#
# 1 84.2165 25.4652 36.0617 0.0000 0.0000 0.0000
# 2 25.4652 85.2706 18.1444 0.0000 0.0000 0.0000
# 3 36.0617 18.1444 95.8069 0.0000 0.0000 0.0000
# 4 0.0000 0.0000 0.0000 13.2068 0.0000 0.0000
# 5 0.0000 0.0000 0.0000 0.0000 17.2055 0.0000
# 6 0.0000 0.0000 0.0000 0.0000 0.0000 20.1752
#
#
#
# Elastic Compliance Matrix: (Units=1/GPa)
#
#
# Indices 1 2 3 4 5 6 
#
# 1 0.015060 -0.003430 -0.005019 0.000000 0.000000 0.000000
# 2 -0.003430 0.013001 -0.001171 0.000000 0.000000 0.000000
# 3 -0.005019 -0.001171 0.012549 0.000000 0.000000 0.000000
# 4 0.000000 0.000000 0.000000 0.075719 0.000000 0.000000
# 5 0.000000 0.000000 0.000000 0.000000 0.058121 0.000000
# 6 0.000000 0.000000 0.000000 0.000000 0.000000 0.049566
#
#
# Mechanical properties :
#
#
# Convention : Reuss Voigt Hill
#
# Bulk Modulus (GPa) = 46.79506 47.18183 46.98845
# Shear Modulus (GPa) = 19.96975 22.49234 21.23104
#
# Velocity S-wave (km/s) = 3.40133 3.60977 3.50710
# Velocity P-wave (km/s) = 6.52189 6.68637 6.60464
#
# Compressibility (1/GPa) = 0.02136978
#
# Stress axis : x y z
#
# Youngs Moduli (GPa) = 66.39907 76.91821 79.68937
#
# Poissons Ratio (x) = 0.26380 0.39998
# Poissons Ratio (y) = 0.22772 0.09334
# Poissons Ratio (z) = 0.33327 0.09009
#
# Static dielectric constant tensor:
#      x y z
#    x 1.602250 0.000000 0.000000 
#    y 0.000000 1.615960 0.000000 
#    z 0.000000 0.000000 1.607470 
# 
# From -- ./inp_files/35633.got.cif
#   From: 2010.05.17/outbox.cif.g08.bks.cpg/sg24_18_cif.got.tgz:35633.got - 2010.06.04 00:33:39.
