data_PCOD9333592
_publ_section_title
;
Structure prediction by ZEFSAII (Michael W. Deem and Ramdas Pophale) SiO2 
 PCOD9333592
Probable space group: I 21 21 21
;
_chemical_formula_sum "Si O2"
_cell_formula_units_Z 64
_cell_length_a 5.395607
_cell_length_b 25.699099
_cell_length_c 25.312075
_cell_angle_alpha 90.000000
_cell_angle_beta 90.000000
_cell_angle_gamma 90.000000
_cell_volume 3509.828980
_symmetry_space_group_name_H-M "I 21 21 21"
_symmetry_group_IT_number 24
_symmetry_cell_setting 'orthorhombic'
loop_
_space_group_symop_operation_xyz
x,y,z
-x,1/2-y,z
x,-y,1/2-z
1/2-x,y,-z
1/2+x,1/2+y,1/2+z
1/2-x,-y,1/2+z
1/2+x,1/2-y,-z
-x,1/2+y,1/2-z
loop_
_atom_site_type_symbol
_atom_site_label
_atom_site_fract_x
_atom_site_fract_y
_atom_site_fract_z
Si Si1 0.786573 0.562164 0.562024
Si Si2 0.293667 0.601849 0.937389
Si Si3 0.294297 0.053023 0.395288
Si Si4 0.250188 0.715807 0.438039
Si Si5 0.287572 0.605650 0.608173
Si Si6 0.749788 0.778292 0.935645
Si Si7 0.223138 0.940187 0.770815
Si Si8 0.722156 0.939705 0.725872
O O1 0.750000 0.556118 0.500000
O O2 0.761992 0.506622 0.589660
O O3 0.560909 0.595974 0.584791
O O4 0.059595 0.583481 0.573890
O O5 0.571733 0.583913 0.923869
O O6 0.257819 0.661540 0.920791
O O7 0.072212 0.569556 0.910840
O O8 0.250000 0.597764 0.000000
O O9 0.262478 0.059610 0.333181
O O10 0.500000 0.750000 0.431833
O O11 0.250000 0.696781 0.500000
O O12 0.249154 0.667883 0.396842
O O13 0.000000 0.750000 0.431835
O O14 0.270203 0.573181 0.663506
O O15 0.500000 0.750000 0.917706
O O16 0.000000 0.750000 0.917767
O O17 0.750000 0.776500 0.000000
O O18 0.468089 0.915654 0.746610
O O19 0.969077 0.915945 0.750643
O O20 0.217699 0.000000 0.750000
O O21 0.718063 0.000000 0.750000
#
# Coordination Sequence:
#
# PCOD9333592 Si02
#       8
#     8   8   8   8   8   8   8   8
#     4  12  23  35  52  80 121 160 190 220 267 346
#     4  11  22  36  54  82 118 153 188 226 278 348
#     4  12  23  37  54  79 117 156 189 224 282 348
#     4  10  21  38  59  85 119 154 193 245 301 357
#     4  12  23  38  60  87 114 153 199 242 293 348
#     4   9  17  31  52  77 104 138 183 231 268 304
#     4  10  20  36  54  75 103 139 186 237 277 317
#     4  10  19  35  56  81 109 139 184 245 294 334
#
# _framework density 18.234507000000001
#
# number of rings (size 3 to 8) (size 9 to 14) (size 15 to 20)
#    0.000    1.250    0.000    9.000    0.000    3.000 
#    0.000    0.000    0.000    0.000    0.000   17.500 
#    0.000    0.000    0.000    0.000    0.000    0.000 
#
# Total GULP energy -178499.673735 kJ/mol
# GULP energy per Si atom -5578.114804 kJ/mol
# Density = 1.819300 g / cm^3
# Si number density = 18.234507 Si / 1000 Ang^3
#
#
#
# Elastic Constant Matrix: (Units=GPa)
#
#
# Indices 1 2 3 4 5 6 
#
# 1 109.1381 -3.7914 -6.8610 0.0000 0.0000 0.0000
# 2 -3.7914 67.4544 6.4999 0.0000 0.0000 0.0000
# 3 -6.8610 6.4999 101.4345 0.0001 0.0000 0.0000
# 4 0.0000 0.0000 0.0001 -184.0700 0.0000 0.0000
# 5 0.0000 0.0000 0.0000 0.0000 25.9443 0.0000
# 6 0.0000 0.0000 0.0000 0.0000 0.0000 15.6079
#
#
#
# Elastic Compliance Matrix: (Units=1/GPa)
#
#
# Indices 1 2 3 4 5 6 
#
# 1 0.009216 0.000461 0.000594 0.000000 0.000000 0.000000
# 2 0.000461 0.014940 -0.000926 0.000000 0.000000 0.000000
# 3 0.000594 -0.000926 0.009958 0.000000 0.000000 0.000000
# 4 0.000000 0.000000 0.000000 -0.005433 0.000000 0.000000
# 5 0.000000 0.000000 0.000000 0.000000 0.038544 0.000000
# 6 0.000000 0.000000 0.000000 0.000000 0.000000 0.064070
#
#
# Mechanical properties :
#
#
# Convention : Reuss Voigt Hill
#
# Bulk Modulus (GPa) = 29.09429 29.96910 29.53170
# Shear Modulus (GPa) = 35.08871 -9.69160 12.69856
#
# Velocity S-wave (km/s) = 4.39145 -2.30793 2.64181
# Velocity P-wave (km/s) = 6.45781 3.06089 5.05333
#
# Compressibility (1/GPa) = 0.03437100
#
# Stress axis : x y z
#
# Youngs Moduli (GPa) = 108.50642 66.93453 100.42077
#
# Poissons Ratio (x) = -0.03084 -0.05963
# Poissons Ratio (y) = -0.05000 0.09301
# Poissons Ratio (z) = -0.06444 0.06199
#
# Static dielectric constant tensor:
#      x y z
#    x 1.750720 0.000000 0.000000 
#    y 0.000000 1.626720 0.000000 
#    z 0.000000 0.000000 1.607950 
# 
# From -- ./inp_files/34866.got.cif
#   From: 2010.05.17/outbox.cif.g08.bks.cpg/sg24_18_cif.got.tgz:34866.got - 2010.06.04 00:33:39.
