data_PCOD9333841
_publ_section_title
;
Structure prediction by ZEFSAII (Michael W. Deem and Ramdas Pophale) SiO2 
 PCOD9333841
Probable space group: I 21 21 21
;
_chemical_formula_sum "Si O2"
_cell_formula_units_Z 40
_cell_length_a 26.437933
_cell_length_b 8.524924
_cell_length_c 7.934873
_cell_angle_alpha 90.000000
_cell_angle_beta 90.000000
_cell_angle_gamma 90.000000
_cell_volume 1788.372544
_symmetry_space_group_name_H-M "I 21 21 21"
_symmetry_group_IT_number 24
_symmetry_cell_setting 'orthorhombic'
loop_
_space_group_symop_operation_xyz
x,y,z
-x,1/2-y,z
x,-y,1/2-z
1/2-x,y,-z
1/2+x,1/2+y,1/2+z
1/2-x,-y,1/2+z
1/2+x,1/2-y,-z
-x,1/2+y,1/2-z
loop_
_atom_site_type_symbol
_atom_site_label
_atom_site_fract_x
_atom_site_fract_y
_atom_site_fract_z
Si Si1 0.933549 0.000000 0.250000
Si Si2 0.448585 0.769574 0.993724
Si Si3 0.250000 0.761805 0.000000
Si Si4 0.349757 0.172709 0.316021
Si Si5 0.104681 0.000000 0.250000
Si Si6 0.724799 0.000000 0.750000
Si Si7 0.353790 0.701348 0.554197
O O1 0.959469 0.135887 0.355029
O O2 0.901499 0.096007 0.110016
O O3 0.500000 0.750000 0.101828
O O4 0.431333 0.926088 0.893769
O O5 0.396499 0.741380 0.093473
O O6 0.302570 0.848599 0.050861
O O7 0.249933 0.643210 0.156192
O O8 0.364771 0.000000 0.250000
O O9 0.343091 0.261904 0.139283
O O10 0.137954 0.861136 0.335562
O O11 0.691135 0.908869 0.615041
#
# Coordination Sequence:
#
# PCOD9333841 Si02
#       7
#     4   8   4   8   4   4   8
#     4   9  21  40  68 104 128 184 224 289 349 402
#     4  11  23  44  69 103 139 183 236 288 351 417
#     4  12  26  44  70 100 140 182 238 286 356 416
#     4  12  26  45  67 104 143 187 232 292 352 419
#     4  10  19  40  71  96 136 182 227 284 343 420
#     4  11  24  42  71 102 130 182 233 289 352 412
#     4  10  21  41  69  96 137 174 229 279 343 409
#
# _framework density 22.366703999999999
#
# number of rings (size 3 to 8) (size 9 to 14) (size 15 to 20)
#    0.000    1.200    2.000    5.400    0.000    4.000 
#    5.400    1.000    0.000    0.000    0.000    0.000 
#    0.000    0.000    0.000    0.000    0.000    0.000 
#
# Total GULP energy -111352.278621 kJ/mol
# GULP energy per Si atom -5567.613931 kJ/mol
# Density = 2.231580 g / cm^3
# Si number density = 22.366704 Si / 1000 Ang^3
#
#
#
# Elastic Constant Matrix: (Units=GPa)
#
#
# Indices 1 2 3 4 5 6 
#
# 1 85.4660 10.4291 27.2717 0.0000 0.0000 0.0000
# 2 10.4291 95.6326 14.0833 0.0000 0.0000 0.0000
# 3 27.2717 14.0833 98.3842 0.0000 0.0000 0.0000
# 4 0.0000 0.0000 0.0000 46.0996 0.0000 0.0000
# 5 0.0000 0.0000 0.0000 0.0000 13.6102 0.0000
# 6 0.0000 0.0000 0.0000 0.0000 0.0000 25.1459
#
#
#
# Elastic Compliance Matrix: (Units=1/GPa)
#
#
# Indices 1 2 3 4 5 6 
#
# 1 0.012911 -0.000900 -0.003450 0.000000 0.000000 0.000000
# 2 -0.000900 0.010745 -0.001289 0.000000 0.000000 0.000000
# 3 -0.003450 -0.001289 0.011305 0.000000 0.000000 0.000000
# 4 0.000000 0.000000 0.000000 0.021692 0.000000 0.000000
# 5 0.000000 0.000000 0.000000 0.000000 0.073474 0.000000
# 6 0.000000 0.000000 0.000000 0.000000 0.000000 0.039768
#
#
# Mechanical properties :
#
#
# Convention : Reuss Voigt Hill
#
# Bulk Modulus (GPa) = 42.22330 42.56123 42.39227
# Shear Modulus (GPa) = 26.44563 32.15105 29.29834
#
# Velocity S-wave (km/s) = 3.44229 3.79549 3.62319
# Velocity P-wave (km/s) = 5.89218 6.18690 6.04134
#
# Compressibility (1/GPa) = 0.02368361
#
# Stress axis : x y z
#
# Youngs Moduli (GPa) = 77.45159 93.07012 88.45604
#
# Poissons Ratio (x) = 0.08376 0.30518
# Poissons Ratio (y) = 0.06970 0.11398
# Poissons Ratio (z) = 0.26722 0.11993
#
# Static dielectric constant tensor:
#      x y z
#    x 2.033550 0.000000 0.000000 
#    y 0.000000 1.845510 0.000000 
#    z 0.000000 0.000000 1.750590 
# 
# From -- ./inp_files/15691.got.cif
#   From: 2010.05.17/outbox.cif.g08.bks.cpg/sg24_8_cif.got.tgz:15691.got - 2010.06.04 00:33:39.
