data_PCOD9333372
_publ_section_title
;
Structure prediction by ZEFSAII (Michael W. Deem and Ramdas Pophale) SiO2 
 PCOD9333372
Probable space group: I 21 21 21
;
_chemical_formula_sum "Si O2"
_cell_formula_units_Z 40
_cell_length_a 5.250739
_cell_length_b 29.263953
_cell_length_c 14.486685
_cell_angle_alpha 90.000000
_cell_angle_beta 90.000000
_cell_angle_gamma 90.000000
_cell_volume 2225.986052
_symmetry_space_group_name_H-M "I 21 21 21"
_symmetry_group_IT_number 24
_symmetry_cell_setting 'orthorhombic'
loop_
_space_group_symop_operation_xyz
x,y,z
-x,1/2-y,z
x,-y,1/2-z
1/2-x,y,-z
1/2+x,1/2+y,1/2+z
1/2-x,-y,1/2+z
1/2+x,1/2-y,-z
-x,1/2+y,1/2-z
loop_
_atom_site_type_symbol
_atom_site_label
_atom_site_fract_x
_atom_site_fract_y
_atom_site_fract_z
Si Si1 0.322459 0.590396 0.905217
Si Si2 0.820246 0.464221 0.623887
Si Si3 0.293826 0.935029 0.337559
Si Si4 0.249535 0.279838 0.109991
Si Si5 0.702430 0.120760 0.806199
O O1 0.595901 0.566780 0.917287
O O2 0.310871 0.615686 0.806063
O O3 0.106049 0.551324 0.898031
O O4 0.250000 0.616692 0.000000
O O5 0.786527 0.452766 0.732136
O O6 0.782470 0.517842 0.606284
O O7 0.557854 0.907924 0.344606
O O8 0.054079 0.901535 0.347927
O O9 0.500000 0.250000 0.130880
O O10 0.237091 0.327115 0.164591
O O11 0.000000 0.250000 0.130129
O O12 0.250000 0.289854 0.000000
#
# Coordination Sequence:
#
# PCOD9333372 Si02
#       5
#     8   8   8   8   8
#     4  10  19  31  48  72 103 138 172 198 230 283
#     4   9  17  30  47  68 100 140 173 202 234 267
#     4   9  17  30  49  72  99 132 169 206 239 275
#     4  10  21  38  58  77  97 121 155 203 259 313
#     4  10  19  33  54  75  98 129 164 205 248 292
#
# _framework density 17.969566
#
# number of rings (size 3 to 8) (size 9 to 14) (size 15 to 20)
#    0.000    2.400    0.000    3.000    0.000    4.800 
#    0.000    6.000    0.000    1.200    0.000    0.000 
#    0.000    0.000    0.000    0.000    0.000    0.000 
#
# Total GULP energy -111487.993021 kJ/mol
# GULP energy per Si atom -5574.399651 kJ/mol
# Density = 1.792867 g / cm^3
# Si number density = 17.969566 Si / 1000 Ang^3
#
#
#
# Elastic Constant Matrix: (Units=GPa)
#
#
# Indices 1 2 3 4 5 6 
#
# 1 151.1262 59.9947 28.7960 0.0000 0.0000 0.0000
# 2 59.9947 131.6435 43.2361 0.0000 0.0000 0.0000
# 3 28.7960 43.2361 51.2777 0.0000 0.0000 0.0000
# 4 0.0000 0.0000 0.0000 -30.2219 0.0000 0.0000
# 5 0.0000 0.0000 0.0000 0.0000 -0.8221 0.0000
# 6 0.0000 0.0000 0.0000 0.0000 0.0000 16.5065
#
#
#
# Elastic Compliance Matrix: (Units=1/GPa)
#
#
# Indices 1 2 3 4 5 6 
#
# 1 0.008227 -0.003087 -0.002017 0.000000 0.000000 0.000000
# 2 -0.003087 0.011664 -0.008101 0.000000 0.000000 0.000000
# 3 -0.002017 -0.008101 0.027465 0.000000 0.000000 0.000000
# 4 0.000000 0.000000 0.000000 -0.033089 0.000000 0.000000
# 5 0.000000 0.000000 0.000000 0.000000 -1.216437 0.000000
# 6 0.000000 0.000000 0.000000 0.000000 0.000000 0.060582
#
#
# Mechanical properties :
#
#
# Convention : Reuss Voigt Hill
#
# Bulk Modulus (GPa) = 47.74315 66.45566 57.09940
# Shear Modulus (GPa) = -4.51184 10.56055 3.02435
#
# Velocity S-wave (km/s) = -1.58628 2.42686 1.29873
# Velocity P-wave (km/s) = 4.82406 6.70190 5.83897
#
# Compressibility (1/GPa) = 0.02094542
#
# Stress axis : x y z
#
# Youngs Moduli (GPa) = 121.55504 85.73631 36.40973
#
# Poissons Ratio (x) = 0.26464 0.07345
# Poissons Ratio (y) = 0.37520 0.29496
# Poissons Ratio (z) = 0.24521 0.69456
#
# Static dielectric constant tensor:
#      x y z
#    x 1.613840 0.000000 0.000000 
#    y 0.000000 1.566970 0.000000 
#    z 0.000000 0.000000 1.725840 
# 
# From -- ./inp_files/3503.got.cif
#   From: 2010.05.17/outbox.cif.g08.bks.cpg/sg24_2_cif.got.tgz:3503.got - 2010.06.04 00:33:39.
