data_PCOD9333844
_publ_section_title
;
Structure prediction by ZEFSAII (Michael W. Deem and Ramdas Pophale) SiO2 
 PCOD9333844
Probable space group: I 21 21 21
;
_chemical_formula_sum "Si O2"
_cell_formula_units_Z 40
_cell_length_a 15.193144
_cell_length_b 12.098586
_cell_length_c 8.647746
_cell_angle_alpha 90.000000
_cell_angle_beta 90.000000
_cell_angle_gamma 90.000000
_cell_volume 1589.590268
_symmetry_space_group_name_H-M "I 21 21 21"
_symmetry_group_IT_number 24
_symmetry_cell_setting 'orthorhombic'
loop_
_space_group_symop_operation_xyz
x,y,z
-x,1/2-y,z
x,-y,1/2-z
1/2-x,y,-z
1/2+x,1/2+y,1/2+z
1/2-x,-y,1/2+z
1/2+x,1/2-y,-z
-x,1/2+y,1/2-z
loop_
_atom_site_type_symbol
_atom_site_label
_atom_site_fract_x
_atom_site_fract_y
_atom_site_fract_z
Si Si1 0.955054 0.000000 0.250000
Si Si2 0.800733 0.634432 0.837913
Si Si3 0.991134 0.374979 0.527744
Si Si4 0.663176 0.881973 0.232496
Si Si5 0.096547 0.301577 0.060107
Si Si6 0.750000 0.633910 0.500000
O O1 0.015702 0.038915 0.390294
O O2 0.900362 0.105472 0.192119
O O3 0.788094 0.769421 0.817112
O O4 0.781721 0.586430 0.665107
O O5 0.750000 0.606396 0.000000
O O6 0.904984 0.621011 0.867827
O O7 0.000000 0.250000 0.465338
O O8 0.081499 0.397564 0.616520
O O9 0.619334 0.857600 0.397545
O O10 0.711241 0.000000 0.250000
O O11 0.000000 0.250000 0.059769
O O12 0.167954 0.205512 0.063030
#
# Coordination Sequence:
#
# PCOD9333844 Si02
#       6
#     4   8   8   8   8   4
#     4  12  24  38  70 102 134 178 238 284 348 422
#     4  10  23  41  66  94 139 179 219 282 346 406
#     4  10  22  42  66  95 133 185 226 281 348 411
#     4  10  19  41  63  93 128 174 224 273 340 404
#     4  11  24  43  69  99 138 179 228 288 343 416
#     4  10  24  44  68 108 134 186 230 282 354 416
#
# _framework density 25.163717999999999
#
# number of rings (size 3 to 8) (size 9 to 14) (size 15 to 20)
#    0.000    1.600    2.000    3.600    8.400    0.000 
#   14.400    0.000    4.400    0.000    0.000    0.000 
#    0.000    0.000    0.000    0.000    0.000    0.000 
#
# Total GULP energy -111873.815646 kJ/mol
# GULP energy per Si atom -5593.690782 kJ/mol
# Density = 2.510644 g / cm^3
# Si number density = 25.163718 Si / 1000 Ang^3
#
#
#
# Elastic Constant Matrix: (Units=GPa)
#
#
# Indices 1 2 3 4 5 6 
#
# 1 94.1036 22.9584 39.6994 0.0000 0.0000 0.0000
# 2 22.9584 47.2858 65.9086 0.0000 0.0000 0.0000
# 3 39.6994 65.9086 174.4151 0.0000 0.0000 0.0000
# 4 0.0000 0.0000 0.0000 81.3089 0.0000 0.0000
# 5 0.0000 0.0000 0.0000 0.0000 0.2957 0.0000
# 6 0.0000 0.0000 0.0000 0.0000 0.0000 20.3788
#
#
#
# Elastic Compliance Matrix: (Units=1/GPa)
#
#
# Indices 1 2 3 4 5 6 
#
# 1 0.012160 -0.004323 -0.001134 0.000000 0.000000 0.000000
# 2 -0.004323 0.046220 -0.016482 0.000000 0.000000 0.000000
# 3 -0.001134 -0.016482 0.012220 0.000000 0.000000 0.000000
# 4 0.000000 0.000000 0.000000 0.012299 0.000000 0.000000
# 5 0.000000 0.000000 0.000000 0.000000 3.381759 0.000000
# 6 0.000000 0.000000 0.000000 0.000000 0.000000 0.049071
#
#
# Mechanical properties :
#
#
# Convention : Reuss Voigt Hill
#
# Bulk Modulus (GPa) = 37.42318 63.65971 50.54144
# Shear Modulus (GPa) = 1.40193 32.87922 17.14058
#
# Velocity S-wave (km/s) = 0.74722 3.61863 2.61274
# Velocity P-wave (km/s) = 3.95583 6.54312 5.40653
#
# Compressibility (1/GPa) = 0.02672141
#
# Stress axis : x y z
#
# Youngs Moduli (GPa) = 82.23862 21.63583 81.83486
#
# Poissons Ratio (x) = 0.09353 0.09281
# Poissons Ratio (y) = 0.35553 1.34877
# Poissons Ratio (z) = 0.09327 0.35659
#
# Static dielectric constant tensor:
#      x y z
#    x 1.897990 0.000000 0.000000 
#    y 0.000000 2.121880 0.000000 
#    z 0.000000 0.000000 1.932270 
# 
# From -- ./inp_files/12352.got.cif
#   From: 2010.05.17/outbox.cif.g08.bks.cpg/sg24_7_cif.got.tgz:12352.got - 2010.06.04 00:33:39.
