data_PCOD9333909
_publ_section_title
;
Structure prediction by ZEFSAII (Michael W. Deem and Ramdas Pophale) SiO2 
 PCOD9333909
Probable space group: I 21 21 21
;
_chemical_formula_sum "Si O2"
_cell_formula_units_Z 60
_cell_length_a 8.824706
_cell_length_b 13.767559
_cell_length_c 22.007952
_cell_angle_alpha 90.000000
_cell_angle_beta 90.000000
_cell_angle_gamma 90.000000
_cell_volume 2673.848657
_symmetry_space_group_name_H-M "I 21 21 21"
_symmetry_group_IT_number 24
_symmetry_cell_setting 'orthorhombic'
loop_
_space_group_symop_operation_xyz
x,y,z
-x,1/2-y,z
x,-y,1/2-z
1/2-x,y,-z
1/2+x,1/2+y,1/2+z
1/2-x,-y,1/2+z
1/2+x,1/2-y,-z
-x,1/2+y,1/2-z
loop_
_atom_site_type_symbol
_atom_site_label
_atom_site_fract_x
_atom_site_fract_y
_atom_site_fract_z
Si Si1 0.206698 0.076907 0.670645
Si Si2 0.148181 0.491808 0.163840
Si Si3 0.921510 0.344458 0.994283
Si Si4 0.897802 0.129526 0.539766
Si Si5 0.563741 0.447362 0.561157
Si Si6 0.000000 0.250000 0.640878
Si Si7 0.528786 0.944441 0.376441
Si Si8 0.495042 0.865445 0.751067
O O1 0.296805 0.075106 0.605802
O O2 0.084828 0.164371 0.675583
O O3 0.339267 0.096842 0.718952
O O4 0.106847 0.978302 0.668203
O O5 0.310171 0.439911 0.157866
O O6 0.024931 0.411511 0.185231
O O7 0.130902 0.581888 0.210867
O O8 0.085215 0.539276 0.102646
O O9 0.000000 0.250000 0.021877
O O10 0.980229 0.362873 0.925051
O O11 0.750000 0.315530 0.000000
O O12 0.926414 0.447538 0.029046
O O13 0.750000 0.120063 0.500000
O O14 0.034150 0.133319 0.490317
O O15 0.879965 0.208263 0.592278
O O16 0.939646 0.035362 0.579025
O O17 0.500000 0.750000 0.753235
#
# Coordination Sequence:
#
# PCOD9333909 Si02
#       8
#     8   8   8   8   8   4   8   8
#     4  10  22  41  66  92 135 183 213 283 338 404
#     4  10  22  44  67  94 123 175 219 286 345 402
#     4  11  24  39  63 100 135 180 225 266 325 405
#     4  10  20  32  54  95 132 175 210 250 309 412
#     4  10  21  40  63  87 140 179 210 260 342 399
#     4  10  24  30  58  98 140 168 224 252 328 396
#     4  10  21  41  65  91 135 173 217 269 344 393
#     4  10  24  44  70  96 123 166 240 281 350 406
#
# _framework density 22.439564000000001
#
# number of rings (size 3 to 8) (size 9 to 14) (size 15 to 20)
#    0.000    1.867    2.667    0.000    7.467    0.533 
#    1.200    5.333    0.000    0.000    0.000    0.000 
#    0.000    0.000    0.000    0.000    0.000    0.000 
#
# Total GULP energy -167203.790486 kJ/mol
# GULP energy per Si atom -5573.459683 kJ/mol
# Density = 2.238849 g / cm^3
# Si number density = 22.439564 Si / 1000 Ang^3
#
#
#
# Elastic Constant Matrix: (Units=GPa)
#
#
# Indices 1 2 3 4 5 6 
#
# 1 77.5289 12.8627 34.1725 0.0000 0.0000 0.0000
# 2 12.8627 83.4537 6.9135 0.0000 0.0000 0.0000
# 3 34.1725 6.9135 46.0593 0.0000 0.0000 0.0000
# 4 0.0000 0.0000 0.0000 20.9060 0.0000 0.0000
# 5 0.0000 0.0000 0.0000 0.0000 42.6156 0.0000
# 6 0.0000 0.0000 0.0000 0.0000 0.0000 11.3763
#
#
#
# Elastic Compliance Matrix: (Units=1/GPa)
#
#
# Indices 1 2 3 4 5 6 
#
# 1 0.019436 -0.001824 -0.014147 0.000000 0.000000 0.000000
# 2 -0.001824 0.012305 -0.000494 0.000000 0.000000 0.000000
# 3 -0.014147 -0.000494 0.032281 0.000000 0.000000 0.000000
# 4 0.000000 0.000000 0.000000 0.047833 0.000000 0.000000
# 5 0.000000 0.000000 0.000000 0.000000 0.023466 0.000000
# 6 0.000000 0.000000 0.000000 0.000000 0.000000 0.087902
#
#
# Mechanical properties :
#
#
# Convention : Reuss Voigt Hill
#
# Bulk Modulus (GPa) = 32.16092 34.99327 33.57709
# Shear Modulus (GPa) = 18.76060 25.18577 21.97318
#
# Velocity S-wave (km/s) = 2.89459 3.35383 3.13264
# Velocity P-wave (km/s) = 5.05321 5.53407 5.29909
#
# Compressibility (1/GPa) = 0.03109364
#
# Stress axis : x y z
#
# Youngs Moduli (GPa) = 51.44984 81.26970 30.97806
#
# Poissons Ratio (x) = 0.14822 0.43823
# Poissons Ratio (y) = 0.09383 0.01530
# Poissons Ratio (z) = 0.72784 0.04013
#
# Static dielectric constant tensor:
#      x y z
#    x 1.809750 0.000000 0.000000 
#    y 0.000000 1.785670 0.000000 
#    z 0.000000 0.000000 1.914290 
# 
# From -- ./inp_files/35260.got.cif
#   From: 2010.05.17/outbox.cif.g08.bks.cpg/sg24_18_cif.got.tgz:35260.got - 2010.06.04 00:33:39.
