data_PCOD9333547
_publ_section_title
;
Structure prediction by ZEFSAII (Michael W. Deem and Ramdas Pophale) SiO2 
 PCOD9333547
Probable space group: I 21 21 21
;
_chemical_formula_sum "Si O2"
_cell_formula_units_Z 60
_cell_length_a 8.048550
_cell_length_b 11.777491
_cell_length_c 31.691833
_cell_angle_alpha 90.000000
_cell_angle_beta 90.000000
_cell_angle_gamma 90.000000
_cell_volume 3004.123524
_symmetry_space_group_name_H-M "I 21 21 21"
_symmetry_group_IT_number 24
_symmetry_cell_setting 'orthorhombic'
loop_
_space_group_symop_operation_xyz
x,y,z
-x,1/2-y,z
x,-y,1/2-z
1/2-x,y,-z
1/2+x,1/2+y,1/2+z
1/2-x,-y,1/2+z
1/2+x,1/2-y,-z
-x,1/2+y,1/2-z
loop_
_atom_site_type_symbol
_atom_site_label
_atom_site_fract_x
_atom_site_fract_y
_atom_site_fract_z
Si Si1 0.934302 0.366669 0.673483
Si Si2 0.252861 0.483957 0.368818
Si Si3 0.359082 0.087267 0.789508
Si Si4 0.264299 0.665099 0.703196
Si Si5 0.474689 0.500000 0.250000
Si Si6 0.713898 0.633064 0.048942
Si Si7 0.818252 0.898081 0.953389
Si Si8 0.882416 0.569787 0.132379
O O1 0.758038 0.346457 0.651308
O O2 0.000000 0.250000 0.691313
O O3 0.081856 0.414459 0.643980
O O4 0.923132 0.458043 0.710223
O O5 0.258719 0.601862 0.342517
O O6 0.255100 0.488339 0.419285
O O7 0.079345 0.416480 0.360171
O O8 0.245147 0.200192 0.790517
O O9 0.547758 0.133014 0.785504
O O10 0.347711 0.037413 0.837163
O O11 0.352454 0.000000 0.750000
O O12 0.142915 0.600077 0.734425
O O13 0.742215 0.768542 0.056123
O O14 0.517518 0.608032 0.051680
O O15 0.827068 0.567478 0.083317
O O16 0.750000 0.609119 0.000000
O O17 0.750000 0.923236 0.000000
#
# Coordination Sequence:
#
# PCOD9333547 Si02
#       8
#     8   8   8   8   4   8   8   8
#     4  11  24  38  55  83 120 156 207 254 297 368
#     4  10  21  40  59  83 123 161 199 252 310 367
#     4  10  21  38  63  91 122 162 212 255 307 374
#     4   9  20  40  59  88 125 159 205 261 309 362
#     4  10  22  38  56  82 118 164 200 258 316 346
#     4  10  20  35  55  88 125 154 202 257 302 372
#     4  10  19  34  58  86 121 162 199 249 314 367
#     4  11  23  37  59  87 116 161 204 246 312 366
#
# _framework density 19.972549000000001
#
# number of rings (size 3 to 8) (size 9 to 14) (size 15 to 20)
#    0.000    1.867    2.000    1.600    2.800    3.200 
#    0.000    2.000    0.000    0.800    0.000    0.000 
#    0.000    0.000    0.000    0.000    0.000    0.000 
#
# Total GULP energy -167104.350170 kJ/mol
# GULP energy per Si atom -5570.145006 kJ/mol
# Density = 1.992709 g / cm^3
# Si number density = 19.972549 Si / 1000 Ang^3
#
#
#
# Elastic Constant Matrix: (Units=GPa)
#
#
# Indices 1 2 3 4 5 6 
#
# 1 56.4909 12.1045 32.3545 0.0000 0.0000 0.0000
# 2 12.1045 88.3727 54.7624 0.0000 0.0000 0.0000
# 3 32.3545 54.7624 144.1363 0.0000 0.0000 0.0000
# 4 0.0000 0.0000 0.0000 17.9746 0.0000 0.0000
# 5 0.0000 0.0000 0.0000 0.0000 20.4179 0.0000
# 6 0.0000 0.0000 0.0000 0.0000 0.0000 14.6392
#
#
#
# Elastic Compliance Matrix: (Units=1/GPa)
#
#
# Indices 1 2 3 4 5 6 
#
# 1 0.020314 0.000057 -0.004581 0.000000 0.000000 0.000000
# 2 0.000057 0.014800 -0.005636 0.000000 0.000000 0.000000
# 3 -0.004581 -0.005636 0.010108 0.000000 0.000000 0.000000
# 4 0.000000 0.000000 0.000000 0.055634 0.000000 0.000000
# 5 0.000000 0.000000 0.000000 0.000000 0.048977 0.000000
# 6 0.000000 0.000000 0.000000 0.000000 0.000000 0.068310
#
#
# Mechanical properties :
#
#
# Convention : Reuss Voigt Hill
#
# Bulk Modulus (GPa) = 40.16010 54.16030 47.16020
# Shear Modulus (GPa) = 20.26229 23.25823 21.76026
#
# Velocity S-wave (km/s) = 3.18859 3.41619 3.30435
# Velocity P-wave (km/s) = 5.80581 6.53733 6.18240
#
# Compressibility (1/GPa) = 0.02490034
#
# Stress axis : x y z
#
# Youngs Moduli (GPa) = 49.22772 67.56577 98.93609
#
# Poissons Ratio (x) = -0.00382 0.45326
# Poissons Ratio (y) = -0.00278 0.55759
# Poissons Ratio (z) = 0.22553 0.38079
#
# Static dielectric constant tensor:
#      x y z
#    x 1.774610 0.000000 0.000000 
#    y 0.000000 1.725200 0.000000 
#    z 0.000000 0.000000 1.734410 
# 
# From -- ./inp_files/38386.got.cif
#   From: 2010.05.17/outbox.cif.g08.bks.cpg/sg24_20_cif.got.tgz:38386.got - 2010.06.04 00:33:39.
