data_PCOD9333628
_publ_section_title
;
Structure prediction by ZEFSAII (Michael W. Deem and Ramdas Pophale) SiO2 
 PCOD9333628
Probable space group: I 21 21 21
;
_chemical_formula_sum "Si O2"
_cell_formula_units_Z 36
_cell_length_a 16.169519
_cell_length_b 13.547306
_cell_length_c 7.418993
_cell_angle_alpha 90.000000
_cell_angle_beta 90.000000
_cell_angle_gamma 90.000000
_cell_volume 1625.155803
_symmetry_space_group_name_H-M "I 21 21 21"
_symmetry_group_IT_number 24
_symmetry_cell_setting 'orthorhombic'
loop_
_space_group_symop_operation_xyz
x,y,z
-x,1/2-y,z
x,-y,1/2-z
1/2-x,y,-z
1/2+x,1/2+y,1/2+z
1/2-x,-y,1/2+z
1/2+x,1/2-y,-z
-x,1/2+y,1/2-z
loop_
_atom_site_type_symbol
_atom_site_label
_atom_site_fract_x
_atom_site_fract_y
_atom_site_fract_z
Si Si1 0.922295 0.184982 0.984883
Si Si2 0.913532 0.780645 0.942093
Si Si3 0.653230 0.988288 0.034889
Si Si4 0.189410 0.908611 0.845139
Si Si5 0.250000 0.797455 0.500000
O O1 0.930079 0.188301 0.766374
O O2 0.833979 0.235532 0.022704
O O3 0.000000 0.250000 0.051377
O O4 0.908785 0.071426 0.042964
O O5 0.868772 0.876536 0.022719
O O6 0.861614 0.680485 0.931125
O O7 0.000000 0.750000 0.028145
O O8 0.645271 0.000000 0.250000
O O9 0.750000 0.008568 0.000000
O O10 0.238920 0.859502 0.681275
O O11 0.141746 0.000000 0.750000
O O12 0.250000 0.946274 0.000000
#
# Coordination Sequence:
#
# PCOD9333628 Si02
#       5
#     8   8   8   8   4
#     4   9  18  34  60  91 117 162 204 255 311 373
#     4   9  20  35  57  88 119 156 205 261 305 368
#     4  10  19  35  60  84 117 158 203 247 309 374
#     4  11  22  39  62  89 120 163 204 254 312 375
#     4  10  20  38  62  90 126 160 204 256 314 376
#
# _framework density 22.151720000000001
#
# number of rings (size 3 to 8) (size 9 to 14) (size 15 to 20)
#    0.000    2.222    2.222    0.667    0.000    6.222 
#    0.000    1.111    0.000    0.000    0.000    0.000 
#    0.000    0.000    0.000    0.000    0.000    0.000 
#
# Total GULP energy -100389.299608 kJ/mol
# GULP energy per Si atom -5577.183312 kJ/mol
# Density = 2.210130 g / cm^3
# Si number density = 22.151720 Si / 1000 Ang^3
#
#
#
# Elastic Constant Matrix: (Units=GPa)
#
#
# Indices 1 2 3 4 5 6 
#
# 1 130.9039 82.2096 12.6770 0.0000 0.0000 0.0000
# 2 82.2096 189.5944 12.8725 0.0000 0.0000 0.0000
# 3 12.6770 12.8725 46.9501 0.0000 0.0000 0.0000
# 4 0.0000 0.0000 0.0000 13.8714 0.0000 0.0000
# 5 0.0000 0.0000 0.0000 0.0000 -0.0565 0.0000
# 6 0.0000 0.0000 0.0000 0.0000 0.0000 16.4432
#
#
#
# Elastic Compliance Matrix: (Units=1/GPa)
#
#
# Indices 1 2 3 4 5 6 
#
# 1 0.010620 -0.004494 -0.001635 0.000000 0.000000 0.000000
# 2 -0.004494 0.007276 -0.000782 0.000000 0.000000 0.000000
# 3 -0.001635 -0.000782 0.021955 0.000000 0.000000 0.000000
# 4 0.000000 0.000000 0.000000 0.072091 0.000000 0.000000
# 5 0.000000 0.000000 0.000000 0.000000-17.706077 0.000000
# 6 0.000000 0.000000 0.000000 0.000000 0.000000 0.060815
#
#
# Mechanical properties :
#
#
# Convention : Reuss Voigt Hill
#
# Bulk Modulus (GPa) = 38.41798 64.77406 51.59602
# Shear Modulus (GPa) = -0.28554 23.36425 11.53935
#
# Velocity S-wave (km/s) = -0.35942 3.25120 2.28485
# Velocity P-wave (km/s) = 4.14832 6.58774 5.50485
#
# Compressibility (1/GPa) = 0.02602948
#
# Stress axis : x y z
#
# Youngs Moduli (GPa) = 94.16455 137.43810 45.54758
#
# Poissons Ratio (x) = 0.61761 0.07449
# Poissons Ratio (y) = 0.42315 0.03560
# Poissons Ratio (z) = 0.15399 0.10741
#
# Static dielectric constant tensor:
#      x y z
#    x 1.783630 0.000000 0.000000 
#    y 0.000000 1.921390 0.000000 
#    z 0.000000 0.000000 1.840000 
# 
# From -- ./inp_files/12174.got.cif
#   From: 2010.05.17/outbox.cif.g08.bks.cpg/sg24_7_cif.got.tgz:12174.got - 2010.06.04 00:33:39.
