data_PCOD9333489
_publ_section_title
;
Structure prediction by ZEFSAII (Michael W. Deem and Ramdas Pophale) SiO2 
 PCOD9333489
Probable space group: I 21 21 21
;
_chemical_formula_sum "Si O2"
_cell_formula_units_Z 32
_cell_length_a 5.276876
_cell_length_b 15.105586
_cell_length_c 17.021204
_cell_angle_alpha 90.000000
_cell_angle_beta 90.000000
_cell_angle_gamma 90.000000
_cell_volume 1356.765349
_symmetry_space_group_name_H-M "I 21 21 21"
_symmetry_group_IT_number 24
_symmetry_cell_setting 'orthorhombic'
loop_
_space_group_symop_operation_xyz
x,y,z
-x,1/2-y,z
x,-y,1/2-z
1/2-x,y,-z
1/2+x,1/2+y,1/2+z
1/2-x,-y,1/2+z
1/2+x,1/2-y,-z
-x,1/2+y,1/2-z
loop_
_atom_site_type_symbol
_atom_site_label
_atom_site_fract_x
_atom_site_fract_y
_atom_site_fract_z
Si Si1 0.007305 0.890928 0.526330
Si Si2 0.023908 0.649878 0.857001
Si Si3 0.988079 0.464332 0.391611
Si Si4 0.853151 0.919706 0.699491
O O1 0.250000 0.839127 0.500000
O O2 0.750000 0.848414 0.500000
O O3 0.501307 0.904675 0.381076
O O4 0.019912 0.980151 0.472301
O O5 0.761359 0.594634 0.872697
O O6 0.000000 0.750000 0.886827
O O7 0.264600 0.598717 0.893750
O O8 0.114193 0.655298 0.764589
O O9 0.078990 0.541224 0.328659
O O10 0.967146 0.000000 0.750000
#
# Coordination Sequence:
#
# PCOD9333489 Si02
#       4
#     8   8   8   8
#     4  10  19  33  57  85 113 146 200 255 287 333
#     4  11  23  40  63  94 130 161 194 250 319 367
#     4  10  21  38  60  88 119 162 208 245 293 362
#     4   9  20  35  61  87 112 155 207 250 286 346
#
# _framework density 23.585505999999999
#
# number of rings (size 3 to 8) (size 9 to 14) (size 15 to 20)
#    0.000    2.000    0.000    5.250    0.000   19.000 
#    0.000    0.000    0.000  103.500    0.000    0.000 
#    0.000    0.000    0.000    0.000    0.000    0.000 
#
# Total GULP energy -89101.295979 kJ/mol
# GULP energy per Si atom -5568.830999 kJ/mol
# Density = 2.353182 g / cm^3
# Si number density = 23.585506 Si / 1000 Ang^3
#
#
#
# Elastic Constant Matrix: (Units=GPa)
#
#
# Indices 1 2 3 4 5 6 
#
# 1 226.4035 66.3733 34.9037 0.0000 0.0000 0.0000
# 2 66.3733 119.1116 27.7578 0.0000 0.0000 0.0000
# 3 34.9037 27.7578 145.2840 0.0000 0.0000 0.0000
# 4 0.0000 0.0000 0.0000 -5.9836 0.0000 0.0000
# 5 0.0000 0.0000 0.0000 0.0000 38.4767 0.0000
# 6 0.0000 0.0000 0.0000 0.0000 0.0000 6.6534
#
#
#
# Elastic Compliance Matrix: (Units=1/GPa)
#
#
# Indices 1 2 3 4 5 6 
#
# 1 0.005356 -0.002810 -0.000750 0.000000 0.000000 0.000000
# 2 -0.002810 0.010261 -0.001285 0.000000 0.000000 0.000000
# 3 -0.000750 -0.001285 0.007309 0.000000 0.000000 0.000000
# 4 0.000000 0.000000 0.000000 -0.167123 0.000000 0.000000
# 5 0.000000 0.000000 0.000000 0.000000 0.025990 0.000000
# 6 0.000000 0.000000 0.000000 0.000000 0.000000 0.150299
#
#
# Mechanical properties :
#
#
# Convention : Reuss Voigt Hill
#
# Bulk Modulus (GPa) = 75.55473 83.20762 79.38118
# Shear Modulus (GPa) = 108.23840 31.94692 70.09266
#
# Velocity S-wave (km/s) = 6.78171 3.68437 5.45738
# Velocity P-wave (km/s) = 9.66571 7.31130 8.56975
#
# Compressibility (1/GPa) = 0.01323544
#
# Stress axis : x y z
#
# Youngs Moduli (GPa) = 186.69662 97.45803 136.82102
#
# Poissons Ratio (x) = 0.27385 0.10261
# Poissons Ratio (y) = 0.52461 0.17586
# Poissons Ratio (z) = 0.14001 0.12527
#
# Static dielectric constant tensor:
#      x y z
#    x 2.020230 0.000000 0.000000 
#    y 0.000000 1.918340 0.000000 
#    z 0.000000 0.000000 1.980550 
# 
# From -- ./inp_files/28537.got.cif
#   From: 2010.05.17/outbox.cif.g08.bks.cpg/sg24_15_cif.got.tgz:28537.got - 2010.06.04 00:33:39.
