data_PCOD9333418
_publ_section_title
;
Structure prediction by ZEFSAII (Michael W. Deem and Ramdas Pophale) SiO2 
 PCOD9333418
Probable space group: I 21 21 21
;
_chemical_formula_sum "Si O2"
_cell_formula_units_Z 48
_cell_length_a 28.119183
_cell_length_b 14.183177
_cell_length_c 5.345382
_cell_angle_alpha 90.000000
_cell_angle_beta 90.000000
_cell_angle_gamma 90.000000
_cell_volume 2131.841773
_symmetry_space_group_name_H-M "I 21 21 21"
_symmetry_group_IT_number 24
_symmetry_cell_setting 'orthorhombic'
loop_
_space_group_symop_operation_xyz
x,y,z
-x,1/2-y,z
x,-y,1/2-z
1/2-x,y,-z
1/2+x,1/2+y,1/2+z
1/2-x,-y,1/2+z
1/2+x,1/2-y,-z
-x,1/2+y,1/2-z
loop_
_atom_site_type_symbol
_atom_site_label
_atom_site_fract_x
_atom_site_fract_y
_atom_site_fract_z
Si Si1 0.800993 0.936965 0.998987
Si Si2 0.222252 0.114070 0.746068
Si Si3 0.449176 0.633236 0.637137
Si Si4 0.440617 0.863927 0.640289
Si Si5 0.599156 0.138487 0.366678
Si Si6 0.889740 0.641333 0.850518
O O1 0.806024 0.000000 0.250000
O O2 0.750000 0.885798 0.000000
O O3 0.846970 0.875622 0.953475
O O4 0.798724 0.000000 0.750000
O O5 0.250000 0.147144 0.500000
O O6 0.166773 0.138379 0.702275
O O7 0.224075 0.000000 0.750000
O O8 0.250000 0.146380 0.000000
O O9 0.443265 0.748274 0.642867
O O10 0.504378 0.608092 0.617704
O O11 0.416737 0.600731 0.403667
O O12 0.431987 0.599644 0.906990
O O13 0.414031 0.900271 0.394982
O O14 0.410783 0.893939 0.885644
O O15 0.593348 0.250235 0.350018
#
# Coordination Sequence:
#
# PCOD9333418 Si02
#       6
#     8   8   8   8   8   8
#     4  10  21  37  54  72  99 138 176 210 259 318
#     4  10  21  37  55  75 103 141 176 208 258 319
#     4   9  17  30  50  77 107 135 167 207 256 310
#     4   9  17  30  50  77 107 136 166 206 257 310
#     4  10  19  32  53  79 102 132 173 217 257 297
#     4  10  19  32  53  80 105 132 171 216 256 296
#
# _framework density 22.515740999999998
#
# number of rings (size 3 to 8) (size 9 to 14) (size 15 to 20)
#    0.000    2.333    0.000    3.000    0.000    4.667 
#    0.000    2.500    0.000   10.000    0.000    0.000 
#    0.000    0.000    0.000    0.000    0.000    0.000 
#
# Total GULP energy -133976.210682 kJ/mol
# GULP energy per Si atom -5582.342112 kJ/mol
# Density = 2.246449 g / cm^3
# Si number density = 22.515741 Si / 1000 Ang^3
#
#
#
# Elastic Constant Matrix: (Units=GPa)
#
#
# Indices 1 2 3 4 5 6 
#
# 1 153.6666 -8.8135 98.3127 0.0000 0.0000 0.0000
# 2 -8.8135 43.7534 31.2424 0.0000 0.0000 0.0000
# 3 98.3127 31.2424 228.2388 0.0000 0.0000 0.0000
# 4 0.0000 0.0000 0.0000 15.3842 0.0000 0.0000
# 5 0.0000 0.0000 0.0000 0.0000 52.2647 0.0000
# 6 0.0000 0.0000 0.0000 0.0000 0.0000 36.3944
#
#
#
# Elastic Compliance Matrix: (Units=1/GPa)
#
#
# Indices 1 2 3 4 5 6 
#
# 1 0.010126 0.005713 -0.005144 0.000000 0.000000 0.000000
# 2 0.005713 0.028554 -0.006369 0.000000 0.000000 0.000000
# 3 -0.005144 -0.006369 0.007469 0.000000 0.000000 0.000000
# 4 0.000000 0.000000 0.000000 0.065002 0.000000 0.000000
# 5 0.000000 0.000000 0.000000 0.000000 0.019133 0.000000
# 6 0.000000 0.000000 0.000000 0.000000 0.000000 0.027477
#
#
# Mechanical properties :
#
#
# Convention : Reuss Voigt Hill
#
# Bulk Modulus (GPa) = 28.94493 74.12690 51.53591
# Shear Modulus (GPa) = 27.64296 41.13646 34.38971
#
# Velocity S-wave (km/s) = 3.50768 4.27899 3.91239
# Velocity P-wave (km/s) = 5.41188 7.57672 6.58389
#
# Compressibility (1/GPa) = 0.03454836
#
# Stress axis : x y z
#
# Youngs Moduli (GPa) = 98.75461 35.02115 133.88883
#
# Poissons Ratio (x) = -0.20006 0.68869
# Poissons Ratio (y) = -0.56415 0.85278
# Poissons Ratio (z) = 0.50797 0.22306
#
# Static dielectric constant tensor:
#      x y z
#    x 1.846970 0.000000 0.000000 
#    y 0.000000 1.659610 0.000000 
#    z 0.000000 0.000000 1.777310 
# 
# From -- ./inp_files/5620.got.cif
#   From: 2010.05.17/outbox.cif.g08.bks.cpg/sg24_3_cif.got.tgz:5620.got - 2010.06.04 00:33:39.
