data_PCOD9333388
_publ_section_title
;
Structure prediction by ZEFSAII (Michael W. Deem and Ramdas Pophale) SiO2 
 PCOD9333388
Probable space group: I 21 21 21
;
_chemical_formula_sum "Si O2"
_cell_formula_units_Z 40
_cell_length_a 19.381376
_cell_length_b 11.598547
_cell_length_c 9.048520
_cell_angle_alpha 90.000000
_cell_angle_beta 90.000000
_cell_angle_gamma 90.000000
_cell_volume 2034.069296
_symmetry_space_group_name_H-M "I 21 21 21"
_symmetry_group_IT_number 24
_symmetry_cell_setting 'orthorhombic'
loop_
_space_group_symop_operation_xyz
x,y,z
-x,1/2-y,z
x,-y,1/2-z
1/2-x,y,-z
1/2+x,1/2+y,1/2+z
1/2-x,-y,1/2+z
1/2+x,1/2-y,-z
-x,1/2+y,1/2-z
loop_
_atom_site_type_symbol
_atom_site_label
_atom_site_fract_x
_atom_site_fract_y
_atom_site_fract_z
Si Si1 0.614841 0.710487 0.598243
Si Si2 0.621164 0.077264 0.435712
Si Si3 0.820663 0.155069 0.843914
Si Si4 0.702617 0.250226 0.636854
Si Si5 0.015081 0.567050 0.402439
O O1 0.664735 0.747992 0.464710
O O2 0.656392 0.677745 0.747220
O O3 0.559187 0.615345 0.553606
O O4 0.568278 0.826308 0.621599
O O5 0.619457 0.143710 0.280211
O O6 0.650579 0.162378 0.557902
O O7 0.675328 0.970747 0.418256
O O8 0.550304 0.018634 0.481680
O O9 0.753768 0.181642 0.747084
O O10 0.750000 0.298469 0.500000
O O11 0.008627 0.500000 0.250000
#
# Coordination Sequence:
#
# PCOD9333388 Si02
#       5
#     8   8   8   8   8
#     4  10  20  33  54  81 109 156 183 218 284 328
#     4   9  18  31  51  80 111 142 177 226 291 329
#     4   9  19  30  51  81 115 140 179 230 283 340
#     4  10  19  31  53  81 114 140 181 236 280 334
#     4  10  19  34  57  75 114 148 191 224 263 350
#
# _framework density 19.665012999999998
#
# number of rings (size 3 to 8) (size 9 to 14) (size 15 to 20)
#    0.000    2.400    2.000    0.600    0.000   17.600 
#    0.000    0.000   57.200    2.400    0.000    0.000 
#    0.000    0.000    0.000    0.000    0.000    0.000 
#
# Total GULP energy -111419.490198 kJ/mol
# GULP energy per Si atom -5570.974510 kJ/mol
# Density = 1.962025 g / cm^3
# Si number density = 19.665013 Si / 1000 Ang^3
#
#
#
# Elastic Constant Matrix: (Units=GPa)
#
#
# Indices 1 2 3 4 5 6 
#
# 1 69.5043 17.2430 47.1726 0.0000 0.0000 0.0000
# 2 17.2430 14.7403 18.9325 0.0000 0.0000 0.0000
# 3 47.1726 18.9325 117.9530 0.0000 0.0000 0.0000
# 4 0.0000 0.0000 0.0000 10.5803 0.0000 0.0000
# 5 0.0000 0.0000 0.0000 0.0000 24.7710 0.0000
# 6 0.0000 0.0000 0.0000 0.0000 0.0000 13.8279
#
#
#
# Elastic Compliance Matrix: (Units=1/GPa)
#
#
# Indices 1 2 3 4 5 6 
#
# 1 0.023449 -0.019381 -0.006267 0.000000 0.000000 0.000000
# 2 -0.019381 0.101477 -0.008537 0.000000 0.000000 0.000000
# 3 -0.006267 -0.008537 0.012355 0.000000 0.000000 0.000000
# 4 0.000000 0.000000 0.000000 0.094515 0.000000 0.000000
# 5 0.000000 0.000000 0.000000 0.000000 0.040370 0.000000
# 6 0.000000 0.000000 0.000000 0.000000 0.000000 0.072318
#
#
# Mechanical properties :
#
#
# Convention : Reuss Voigt Hill
#
# Bulk Modulus (GPa) = 14.51146 40.98819 27.74983
# Shear Modulus (GPa) = 11.47250 17.75914 14.61582
#
# Velocity S-wave (km/s) = 2.41798 3.00839 2.72920
# Velocity P-wave (km/s) = 3.89755 5.74071 4.90645
#
# Compressibility (1/GPa) = 0.06891103
#
# Stress axis : x y z
#
# Youngs Moduli (GPa) = 42.64525 9.85441 80.94124
#
# Poissons Ratio (x) = 0.19099 0.50727
# Poissons Ratio (y) = 0.82650 0.69100
# Poissons Ratio (z) = 0.26727 0.08413
#
# Static dielectric constant tensor:
#      x y z
#    x 1.730850 0.000000 0.000000 
#    y 0.000000 1.675800 0.000000 
#    z 0.000000 0.000000 1.722950 
# 
# From -- ./inp_files/10996.got.cif
#   From: 2010.05.17/outbox.cif.g08.bks.cpg/sg24_6_cif.got.tgz:10996.got - 2010.06.04 00:33:39.
