data_PCOD9333649
_publ_section_title
;
Structure prediction by ZEFSAII (Michael W. Deem and Ramdas Pophale) SiO2 
 PCOD9333649
Probable space group: I 21 21 21
;
_chemical_formula_sum "Si O2"
_cell_formula_units_Z 60
_cell_length_a 23.413380
_cell_length_b 9.314655
_cell_length_c 15.539229
_cell_angle_alpha 90.000000
_cell_angle_beta 90.000000
_cell_angle_gamma 90.000000
_cell_volume 3388.912492
_symmetry_space_group_name_H-M "I 21 21 21"
_symmetry_group_IT_number 24
_symmetry_cell_setting 'orthorhombic'
loop_
_space_group_symop_operation_xyz
x,y,z
-x,1/2-y,z
x,-y,1/2-z
1/2-x,y,-z
1/2+x,1/2+y,1/2+z
1/2-x,-y,1/2+z
1/2+x,1/2-y,-z
-x,1/2+y,1/2-z
loop_
_atom_site_type_symbol
_atom_site_label
_atom_site_fract_x
_atom_site_fract_y
_atom_site_fract_z
Si Si1 0.683513 0.421054 0.508734
Si Si2 0.542444 0.377563 0.177659
Si Si3 0.000000 0.250000 0.130908
Si Si4 0.087247 0.274632 0.445717
Si Si5 0.495215 0.987605 0.996625
Si Si6 0.668465 0.404834 0.163492
Si Si7 0.297938 0.883037 0.673464
Si Si8 0.391696 0.669484 0.746239
O O1 0.750000 0.388986 0.500000
O O2 0.648855 0.275419 0.522268
O O3 0.663796 0.496349 0.421054
O O4 0.678870 0.533143 0.588730
O O5 0.500000 0.250000 0.201704
O O6 0.543007 0.500000 0.250000
O O7 0.607990 0.322474 0.166579
O O8 0.519268 0.449503 0.089861
O O9 0.053432 0.294285 0.188782
O O10 0.986340 0.385098 0.070837
O O11 0.047194 0.141593 0.472724
O O12 0.092495 0.284706 0.343128
O O13 0.058114 0.417244 0.484486
O O14 0.670036 0.500000 0.250000
O O15 0.731822 0.335404 0.157906
O O16 0.338839 0.756428 0.705581
O O17 0.297447 0.000000 0.750000
O O18 0.380385 0.500000 0.750000
#
# Coordination Sequence:
#
# PCOD9333649 Si02
#       8
#     8   8   4   8   8   8   8   8
#     4  10  19  35  64  93 119 160 210 258 302 370
#     4  11  24  40  63  89 119 154 204 260 317 364
#     4  12  24  38  56  88 126 166 200 250 300 382
#     4  11  22  38  60  91 121 161 203 248 311 371
#     4  11  23  38  62  87 124 161 204 253 307 372
#     4   9  20  38  61  92 113 151 206 261 297 362
#     4  10  20  36  63  89 118 158 207 250 302 366
#     4  12  25  38  58  90 133 163 201 251 313 376
#
# _framework density 17.704794
#
# number of rings (size 3 to 8) (size 9 to 14) (size 15 to 20)
#    0.000    1.333    4.667    1.600    1.867    0.000 
#    0.000    0.667    2.933    0.000    0.000    0.000 
#    0.000    0.000    0.000    0.000    0.000    0.000 
#
# Total GULP energy -167339.168681 kJ/mol
# GULP energy per Si atom -5577.972289 kJ/mol
# Density = 1.766450 g / cm^3
# Si number density = 17.704794 Si / 1000 Ang^3
#
#
#
# Elastic Constant Matrix: (Units=GPa)
#
#
# Indices 1 2 3 4 5 6 
#
# 1 99.1701 35.1166 33.3328 0.0000 0.0000 0.0000
# 2 35.1166 74.9820 22.2830 0.0000 0.0000 0.0000
# 3 33.3328 22.2830 96.0711 0.0000 0.0000 0.0000
# 4 0.0000 0.0000 0.0000 -59.7236 0.0000 0.0000
# 5 0.0000 0.0000 0.0000 0.0000 57.9344 0.0000
# 6 0.0000 0.0000 0.0000 0.0000 0.0000 29.0779
#
#
#
# Elastic Compliance Matrix: (Units=1/GPa)
#
#
# Indices 1 2 3 4 5 6 
#
# 1 0.013010 -0.005103 -0.003330 0.000000 0.000000 0.000000
# 2 -0.005103 0.016326 -0.002016 0.000000 0.000000 0.000000
# 3 -0.003330 -0.002016 0.012032 0.000000 0.000000 0.000000
# 4 0.000000 0.000000 0.000000 -0.016744 0.000000 0.000000
# 5 0.000000 0.000000 0.000000 0.000000 0.017261 0.000000
# 6 0.000000 0.000000 0.000000 0.000000 0.000000 0.034390
#
#
# Mechanical properties :
#
#
# Convention : Reuss Voigt Hill
#
# Bulk Modulus (GPa) = 48.85536 50.18757 49.52146
# Shear Modulus (GPa) = 48.07794 17.42377 32.75086
#
# Velocity S-wave (km/s) = 5.21673 3.14048 4.30563
# Velocity P-wave (km/s) = 7.99625 6.44660 7.26287
#
# Compressibility (1/GPa) = 0.02046858
#
# Stress axis : x y z
#
# Youngs Moduli (GPa) = 76.86266 61.25292 83.11148
#
# Poissons Ratio (x) = 0.31260 0.27679
# Poissons Ratio (y) = 0.39226 0.16755
# Poissons Ratio (z) = 0.25598 0.12348
#
# Static dielectric constant tensor:
#      x y z
#    x 1.697130 0.000000 0.000000 
#    y 0.000000 1.516920 0.000000 
#    z 0.000000 0.000000 1.599350 
# 
# From -- ./inp_files/27836.got.cif
#   From: 2010.05.17/outbox.cif.g08.bks.cpg/sg24_14_cif.got.tgz:27836.got - 2010.06.04 00:33:39.
