data_PCOD9333431
_publ_section_title
;
Structure prediction by ZEFSAII (Michael W. Deem and Ramdas Pophale) SiO2 
 PCOD9333431
Probable space group: I 21 21 21
;
_chemical_formula_sum "Si O2"
_cell_formula_units_Z 48
_cell_length_a 18.159626
_cell_length_b 14.056203
_cell_length_c 8.788902
_cell_angle_alpha 90.000000
_cell_angle_beta 90.000000
_cell_angle_gamma 90.000000
_cell_volume 2243.414603
_symmetry_space_group_name_H-M "I 21 21 21"
_symmetry_group_IT_number 24
_symmetry_cell_setting 'orthorhombic'
loop_
_space_group_symop_operation_xyz
x,y,z
-x,1/2-y,z
x,-y,1/2-z
1/2-x,y,-z
1/2+x,1/2+y,1/2+z
1/2-x,-y,1/2+z
1/2+x,1/2-y,-z
-x,1/2+y,1/2-z
loop_
_atom_site_type_symbol
_atom_site_label
_atom_site_fract_x
_atom_site_fract_y
_atom_site_fract_z
Si Si1 0.070385 0.352709 0.059291
Si Si2 0.020357 0.457033 0.604807
Si Si3 0.876347 0.803613 0.739359
Si Si4 0.554614 0.607653 0.802337
Si Si5 0.669907 0.725485 0.965469
Si Si6 0.285731 0.385849 0.747371
O O1 0.148728 0.359801 0.139640
O O2 0.004340 0.349919 0.182485
O O3 0.057373 0.454277 0.979525
O O4 0.082214 0.280105 0.918258
O O5 0.975834 0.500000 0.750000
O O6 0.079694 0.389075 0.681451
O O7 0.981228 0.401938 0.468904
O O8 0.792512 0.838387 0.711909
O O9 0.871704 0.726458 0.873156
O O10 0.572668 0.500000 0.750000
O O11 0.625308 0.672682 0.833230
O O12 0.685829 0.833737 0.907246
O O13 0.750000 0.682478 0.000000
O O14 0.278129 0.500000 0.750000
#
# Coordination Sequence:
#
# PCOD9333431 Si02
#       6
#     8   8   8   8   8   8
#     4  10  19  32  55  86 120 163 203 241 298 364
#     4   9  18  34  55  86 120 157 205 243 292 363
#     4  10  20  33  54  87 127 161 196 239 290 366
#     4  10  21  41  64  85 117 158 207 268 315 359
#     4  10  23  41  61  88 118 158 209 253 309 378
#     4  11  20  33  56  89 132 171 196 235 293 363
#
# _framework density 21.395954
#
# number of rings (size 3 to 8) (size 9 to 14) (size 15 to 20)
#    0.000    2.000    0.000    5.500    0.000    5.333 
#    0.000    9.167    0.000    2.000    0.000    0.000 
#    0.000    0.000    0.000    0.000    0.000    0.000 
#
# Total GULP energy -133863.660944 kJ/mol
# GULP energy per Si atom -5577.652539 kJ/mol
# Density = 2.134726 g / cm^3
# Si number density = 21.395954 Si / 1000 Ang^3
#
#
#
# Elastic Constant Matrix: (Units=GPa)
#
#
# Indices 1 2 3 4 5 6 
#
# 1 103.4126 42.1067 69.5006 0.0000 0.0000 0.0000
# 2 42.1067 68.3940 35.8246 0.0000 0.0000 0.0000
# 3 69.5006 35.8246 158.4995 0.0000 0.0000 0.0000
# 4 0.0000 0.0000 0.0000 18.3862 0.0000 0.0000
# 5 0.0000 0.0000 0.0000 0.0000 12.7854 0.0000
# 6 0.0000 0.0000 0.0000 0.0000 0.0000 32.5105
#
#
#
# Elastic Compliance Matrix: (Units=1/GPa)
#
#
# Indices 1 2 3 4 5 6 
#
# 1 0.016292 -0.007133 -0.005532 0.000000 0.000000 0.000000
# 2 -0.007133 0.019707 -0.001327 0.000000 0.000000 0.000000
# 3 -0.005532 -0.001327 0.009035 0.000000 0.000000 0.000000
# 4 0.000000 0.000000 0.000000 0.054389 0.000000 0.000000
# 5 0.000000 0.000000 0.000000 0.000000 0.078214 0.000000
# 6 0.000000 0.000000 0.000000 0.000000 0.000000 0.030759
#
#
# Mechanical properties :
#
#
# Convention : Reuss Voigt Hill
#
# Bulk Modulus (GPa) = 58.64504 69.46334 64.05419
# Shear Modulus (GPa) = 20.65585 24.92802 22.79194
#
# Velocity S-wave (km/s) = 3.11047 3.41703 3.26735
# Velocity P-wave (km/s) = 6.35366 6.93572 6.65106
#
# Compressibility (1/GPa) = 0.01705174
#
# Stress axis : x y z
#
# Youngs Moduli (GPa) = 61.38020 50.74268 110.68494
#
# Poissons Ratio (x) = 0.36193 0.61228
# Poissons Ratio (y) = 0.43780 0.14685
# Poissons Ratio (z) = 0.33954 0.06732
#
# Static dielectric constant tensor:
#      x y z
#    x 1.784670 0.000000 0.000000 
#    y 0.000000 1.796850 0.000000 
#    z 0.000000 0.000000 1.818720 
# 
# From -- ./inp_files/14196.got.cif
#   From: 2010.05.17/outbox.cif.g08.bks.cpg/sg24_8_cif.got.tgz:14196.got - 2010.06.04 00:33:39.
