data_PCOD9333298
_publ_section_title
;
Structure prediction by ZEFSAII (Michael W. Deem and Ramdas Pophale) SiO2 
 PCOD9333298
Probable space group: I 21 21 21
;
_chemical_formula_sum "Si O2"
_cell_formula_units_Z 44
_cell_length_a 14.739241
_cell_length_b 16.887777
_cell_length_c 8.213587
_cell_angle_alpha 90.000000
_cell_angle_beta 90.000000
_cell_angle_gamma 90.000000
_cell_volume 2044.468705
_symmetry_space_group_name_H-M "I 21 21 21"
_symmetry_group_IT_number 24
_symmetry_cell_setting 'orthorhombic'
loop_
_space_group_symop_operation_xyz
x,y,z
-x,1/2-y,z
x,-y,1/2-z
1/2-x,y,-z
1/2+x,1/2+y,1/2+z
1/2-x,-y,1/2+z
1/2+x,1/2-y,-z
-x,1/2+y,1/2-z
loop_
_atom_site_type_symbol
_atom_site_label
_atom_site_fract_x
_atom_site_fract_y
_atom_site_fract_z
Si Si1 0.500000 0.750000 0.687080
Si Si2 0.802361 0.500000 0.250000
Si Si3 0.520138 0.575144 0.652482
Si Si4 0.932514 0.321081 0.609688
Si Si5 0.345538 0.739751 0.419220
Si Si6 0.750000 0.379503 0.500000
Si Si7 0.426335 0.583940 0.301214
O O1 0.505984 0.658295 0.748904
O O2 0.413922 0.745129 0.568711
O O3 0.873429 0.551107 0.358351
O O4 0.743951 0.438090 0.347886
O O5 0.479862 0.500000 0.750000
O O6 0.478517 0.579533 0.473629
O O7 0.883840 0.296305 0.779257
O O8 0.845742 0.334448 0.494067
O O9 0.000000 0.250000 0.558202
O O10 0.000470 0.391151 0.662280
O O11 0.250000 0.756593 0.500000
O O12 0.353831 0.653605 0.332880
O O13 0.386622 0.500000 0.250000
#
# Coordination Sequence:
#
# PCOD9333298 Si02
#       7
#     4   4   8   8   8   4   8
#     4  10  18  40  58  92 124 176 204 268 332 384
#     4  10  26  38  52 102 128 166 214 262 344 390
#     4   9  20  37  57  93 122 167 215 267 332 387
#     4  10  22  42  63  95 124 172 217 265 330 389
#     4  10  20  37  66  92 119 164 223 260 318 398
#     4  12  26  38  64  94 134 172 210 274 340 390
#     4  10  19  39  66  85 123 172 212 264 326 392
#
# _framework density 21.521483
#
# number of rings (size 3 to 8) (size 9 to 14) (size 15 to 20)
#    0.545    1.455    4.545    1.091    6.364    0.000 
#    1.636    3.636    8.000    0.000    0.000    0.000 
#    0.000    0.000    0.000    0.000    0.000    0.000 
#
# Total GULP energy -122614.202213 kJ/mol
# GULP energy per Si atom -5573.372828 kJ/mol
# Density = 2.147250 g / cm^3
# Si number density = 21.521483 Si / 1000 Ang^3
#
#
#
# Elastic Constant Matrix: (Units=GPa)
#
#
# Indices 1 2 3 4 5 6 
#
# 1 85.1542 0.4566 -1.6231 0.0000 0.0000 0.0000
# 2 0.4566 111.7998 9.5927 0.0000 0.0000 0.0000
# 3 -1.6231 9.5927 21.4960 0.0000 0.0000 0.0000
# 4 0.0000 0.0000 0.0000 47.2034 0.0000 0.0000
# 5 0.0000 0.0000 0.0000 0.0000 -42.9263 0.0000
# 6 0.0000 0.0000 0.0000 0.0000 0.0000 8.1544
#
#
#
# Elastic Compliance Matrix: (Units=1/GPa)
#
#
# Indices 1 2 3 4 5 6 
#
# 1 0.011762 -0.000129 0.000946 0.000000 0.000000 0.000000
# 2 -0.000129 0.009302 -0.004161 0.000000 0.000000 0.000000
# 3 0.000946 -0.004161 0.048449 0.000000 0.000000 0.000000
# 4 0.000000 0.000000 0.000000 0.021185 0.000000 0.000000
# 5 0.000000 0.000000 0.000000 0.000000 -0.023296 0.000000
# 6 0.000000 0.000000 0.000000 0.000000 0.000000 0.122633
#
#
# Mechanical properties :
#
#
# Convention : Reuss Voigt Hill
#
# Bulk Modulus (GPa) = 15.91743 26.14470 21.03107
# Shear Modulus (GPa) = 22.97112 16.48789 19.72951
#
# Velocity S-wave (km/s) = 3.27059 2.77088 3.03105
# Velocity P-wave (km/s) = 4.65558 4.73409 4.69500
#
# Compressibility (1/GPa) = 0.06282420
#
# Stress axis : x y z
#
# Youngs Moduli (GPa) = 85.01865 107.50261 20.64046
#
# Poissons Ratio (x) = 0.01389 -0.01952
# Poissons Ratio (y) = 0.01098 0.08588
# Poissons Ratio (z) = -0.08041 0.44730
#
# Static dielectric constant tensor:
#      x y z
#    x 1.716220 0.000000 0.000000 
#    y 0.000000 1.849700 0.000000 
#    z 0.000000 0.000000 1.843730 
# 
# From -- ./inp_files/12718.got.cif
#   From: 2010.05.17/outbox.cif.g08.bks.cpg/sg24_7_cif.got.tgz:12718.got - 2010.06.04 00:33:39.
