data_PCOD9333412
_publ_section_title
;
Structure prediction by ZEFSAII (Michael W. Deem and Ramdas Pophale) SiO2 
 PCOD9333412
Probable space group: I 21 21 21
;
_chemical_formula_sum "Si O2"
_cell_formula_units_Z 36
_cell_length_a 5.187684
_cell_length_b 15.944929
_cell_length_c 15.944893
_cell_angle_alpha 90.000000
_cell_angle_beta 90.000000
_cell_angle_gamma 90.000000
_cell_volume 1318.917749
_symmetry_space_group_name_H-M "I 21 21 21"
_symmetry_group_IT_number 24
_symmetry_cell_setting 'orthorhombic'
loop_
_space_group_symop_operation_xyz
x,y,z
-x,1/2-y,z
x,-y,1/2-z
1/2-x,y,-z
1/2+x,1/2+y,1/2+z
1/2-x,-y,1/2+z
1/2+x,1/2-y,-z
-x,1/2+y,1/2-z
loop_
_atom_site_type_symbol
_atom_site_label
_atom_site_fract_x
_atom_site_fract_y
_atom_site_fract_z
Si Si1 0.881798 0.661054 0.109749
Si Si2 0.124573 0.851521 0.311245
Si Si3 0.625422 0.938755 0.101520
Si Si4 0.631794 0.859749 0.411054
Si Si5 0.374998 0.500000 0.750000
O O1 0.930871 0.547405 0.311449
O O2 0.605684 0.624608 0.084006
O O3 0.000000 0.750000 0.083027
O O4 0.095252 0.595668 0.076173
O O5 0.148027 0.832894 0.212236
O O6 0.355678 0.834006 0.374608
O O7 0.845247 0.826174 0.345668
O O8 0.680866 0.938552 0.202595
O O9 0.750000 0.833027 0.500000
O O10 0.601968 0.962236 0.417107
#
# Coordination Sequence:
#
# PCOD9333412 Si02
#       5
#     8   8   8   8   4
#     4  11  21  34  54  80 108 141 176 221 271 321
#     4  10  19  32  52  78 108 135 174 221 273 322
#     4  10  19  32  52  78 108 135 174 221 273 322
#     4  11  21  34  54  80 108 141 176 221 271 321
#     4   8  16  30  52  78 104 138 172 230 292 322
#
# _framework density 27.295107000000002
#
# number of rings (size 3 to 8) (size 9 to 14) (size 15 to 20)
#    0.000    1.778    0.000    9.333    0.000    1.778 
#    0.000    0.000    0.000    5.333    0.000    0.000 
#    0.000    0.000    0.000    0.000    0.000    0.000 
#
# Total GULP energy -100554.303871 kJ/mol
# GULP energy per Si atom -5586.350215 kJ/mol
# Density = 2.723298 g / cm^3
# Si number density = 27.295107 Si / 1000 Ang^3
#
#
#
# Elastic Constant Matrix: (Units=GPa)
#
#
# Indices 1 2 3 4 5 6 
#
# 1 234.6959 70.1020 70.0978 0.0000 0.0000 0.0000
# 2 70.1020 129.7956 21.5384 0.0000 0.0000 0.0000
# 3 70.0978 21.5384 129.7965 0.0000 0.0000 0.0000
# 4 0.0000 0.0000 0.0000 16.8399 0.0000 0.0000
# 5 0.0000 0.0000 0.0000 0.0000 33.5651 0.0000
# 6 0.0000 0.0000 0.0000 0.0000 0.0000 33.5607
#
#
#
# Elastic Compliance Matrix: (Units=1/GPa)
#
#
# Indices 1 2 3 4 5 6 
#
# 1 0.005891 -0.002729 -0.002729 0.000000 0.000000 0.000000
# 2 -0.002729 0.009187 -0.000051 0.000000 0.000000 0.000000
# 3 -0.002729 -0.000051 0.009186 0.000000 0.000000 0.000000
# 4 0.000000 0.000000 0.000000 0.059383 0.000000 0.000000
# 5 0.000000 0.000000 0.000000 0.000000 0.029793 0.000000
# 6 0.000000 0.000000 0.000000 0.000000 0.000000 0.029797
#
#
# Mechanical properties :
#
#
# Convention : Reuss Voigt Hill
#
# Bulk Modulus (GPa) = 75.48506 90.86271 83.17389
# Shear Modulus (GPa) = 31.51220 38.96311 35.23766
#
# Velocity S-wave (km/s) = 3.40148 3.78229 3.59693
# Velocity P-wave (km/s) = 6.56825 7.24124 6.91294
#
# Compressibility (1/GPa) = 0.01324765
#
# Stress axis : x y z
#
# Youngs Moduli (GPa) = 169.75372 108.85333 108.85670
#
# Poissons Ratio (x) = 0.29705 0.29703
# Poissons Ratio (y) = 0.46323 0.00552
# Poissons Ratio (z) = 0.46319 0.00552
#
# Static dielectric constant tensor:
#      x y z
#    x 2.025970 0.000000 0.000000 
#    y 0.000000 2.308360 0.000000 
#    z 0.000000 0.000000 2.308360 
# 
# From -- ./inp_files/28763.got.cif
#   From: 2010.05.17/outbox.cif.g08.bks.cpg/sg24_15_cif.got.tgz:28763.got - 2010.06.04 00:33:39.
