data_PCOD9333614
_publ_section_title
;
Structure prediction by ZEFSAII (Michael W. Deem and Ramdas Pophale) SiO2 
 PCOD9333614
Probable space group: I 21 21 21
;
_chemical_formula_sum "Si O2"
_cell_formula_units_Z 48
_cell_length_a 13.299706
_cell_length_b 27.231517
_cell_length_c 6.045279
_cell_angle_alpha 90.000000
_cell_angle_beta 90.000000
_cell_angle_gamma 90.000000
_cell_volume 2189.425769
_symmetry_space_group_name_H-M "I 21 21 21"
_symmetry_group_IT_number 24
_symmetry_cell_setting 'orthorhombic'
loop_
_space_group_symop_operation_xyz
x,y,z
-x,1/2-y,z
x,-y,1/2-z
1/2-x,y,-z
1/2+x,1/2+y,1/2+z
1/2-x,-y,1/2+z
1/2+x,1/2-y,-z
-x,1/2+y,1/2-z
loop_
_atom_site_type_symbol
_atom_site_label
_atom_site_fract_x
_atom_site_fract_y
_atom_site_fract_z
Si Si1 0.484154 0.045742 0.393498
Si Si2 0.493113 0.807876 0.183729
Si Si3 0.264196 0.795173 0.249739
Si Si4 0.089210 0.127736 0.330510
Si Si5 0.431141 0.614456 0.472659
Si Si6 0.176050 0.551772 0.180141
O O1 0.401706 0.080758 0.508799
O O2 0.550264 0.078202 0.227710
O O3 0.568942 0.034921 0.576717
O O4 0.446871 0.000000 0.250000
O O5 0.500000 0.750000 0.156091
O O6 0.377473 0.815138 0.256938
O O7 0.569376 0.831584 0.360316
O O8 0.493273 0.836876 0.952648
O O9 0.250000 0.772419 0.500000
O O10 0.185774 0.839921 0.223519
O O11 0.250000 0.769495 0.000000
O O12 0.034475 0.111537 0.110091
O O13 0.347525 0.591547 0.631319
O O14 0.225761 0.500000 0.250000
O O15 0.250000 0.574598 0.000000
#
# Coordination Sequence:
#
# PCOD9333614 Si02
#       6
#     8   8   8   8   8   8
#     4  10  19  35  58  90 121 166 220 265 331 394
#     4  10  21  38  66  92 125 171 223 270 329 403
#     4  10  19  38  64  96 119 167 217 264 327 400
#     4   9  20  35  60  93 122 163 213 273 326 401
#     4  10  20  37  59  89 123 164 214 270 330 388
#     4  11  22  34  58  89 125 175 220 269 328 406
#
# _framework density 21.923556999999999
#
# number of rings (size 3 to 8) (size 9 to 14) (size 15 to 20)
#    0.000    2.000    3.333    0.500    0.000    0.667 
#    0.000    0.000   11.000    0.000   86.667    0.000 
#    0.000    0.000    0.000    0.000    0.000    0.000 
#
# Total GULP energy -133609.208427 kJ/mol
# GULP energy per Si atom -5567.050351 kJ/mol
# Density = 2.187366 g / cm^3
# Si number density = 21.923557 Si / 1000 Ang^3
#
#
#
# Elastic Constant Matrix: (Units=GPa)
#
#
# Indices 1 2 3 4 5 6 
#
# 1 59.2984 10.2412 21.0618 0.0221 -0.0075 -0.0070
# 2 10.2412 104.8759 36.5059 0.0647 -0.0237 -0.0210
# 3 21.0618 36.5059 133.0720 0.1461 -0.0751 -0.0462
# 4 0.0221 0.0647 0.1461 12.3860 -0.0247 -0.0351
# 5 -0.0075 -0.0237 -0.0751 -0.0247 33.3452 0.0086
# 6 -0.0070 -0.0210 -0.0462 -0.0351 0.0086 10.2901
#
#
#
# Elastic Compliance Matrix: (Units=1/GPa)
#
#
# Indices 1 2 3 4 5 6 
#
# 1 0.017936 -0.000844 -0.002607 0.000003 -0.000002 -0.000001
# 2 -0.000844 0.010581 -0.002769 -0.000021 0.000001 0.000008
# 3 -0.002607 -0.002769 0.008687 -0.000083 0.000017 0.000031
# 4 0.000003 -0.000021 -0.000083 0.080738 0.000060 0.000275
# 5 -0.000002 0.000001 0.000017 0.000060 0.029989 -0.000025
# 6 -0.000001 0.000008 0.000031 0.000275 -0.000025 0.097182
#
#
# Mechanical properties :
#
#
# Convention : Reuss Voigt Hill
#
# Bulk Modulus (GPa) = 40.38193 48.09602 44.23898
# Shear Modulus (GPa) = 18.81046 26.50007 22.65526
#
# Velocity S-wave (km/s) = 2.93235 3.48048 3.21810
# Velocity P-wave (km/s) = 5.47031 6.17554 5.83359
#
# Compressibility (1/GPa) = 0.02476355
#
# Stress axis : x y z
#
# Youngs Moduli (GPa) = 55.75482 94.50511 115.11198
#
# Poissons Ratio (x) = 0.07975 0.30013
# Poissons Ratio (y) = 0.04705 0.31877
# Poissons Ratio (z) = 0.14537 0.26171
#
# Static dielectric constant tensor:
#      x y z
#    x 1.786170 0.000000 0.000020 
#    y 0.000000 1.821170 -0.000010 
#    z 0.000020 -0.000010 1.947310 
# 
# From -- ./inp_files/3902.got.cif
#   From: 2010.05.17/outbox.cif.g08.bks.cpg/sg24_2_cif.got.tgz:3902.got - 2010.06.04 00:33:39.
