data_PCOD9333777
_publ_section_title
;
Structure prediction by ZEFSAII (Michael W. Deem and Ramdas Pophale) SiO2 
 PCOD9333777
Probable space group: I 21 21 21
;
_chemical_formula_sum "Si O2"
_cell_formula_units_Z 44
_cell_length_a 25.618764
_cell_length_b 6.178231
_cell_length_c 14.324832
_cell_angle_alpha 90.000000
_cell_angle_beta 90.000000
_cell_angle_gamma 90.000000
_cell_volume 2267.314955
_symmetry_space_group_name_H-M "I 21 21 21"
_symmetry_group_IT_number 24
_symmetry_cell_setting 'orthorhombic'
loop_
_space_group_symop_operation_xyz
x,y,z
-x,1/2-y,z
x,-y,1/2-z
1/2-x,y,-z
1/2+x,1/2+y,1/2+z
1/2-x,-y,1/2+z
1/2+x,1/2-y,-z
-x,1/2+y,1/2-z
loop_
_atom_site_type_symbol
_atom_site_label
_atom_site_fract_x
_atom_site_fract_y
_atom_site_fract_z
Si Si1 0.070257 0.892968 0.446529
Si Si2 0.736280 0.361525 0.343525
Si Si3 0.666020 0.000000 0.250000
Si Si4 0.000000 0.250000 0.542882
Si Si5 0.000000 0.750000 0.290598
Si Si6 0.169586 0.837510 0.018381
Si Si7 0.097191 0.512868 0.581378
O O1 0.075180 0.714576 0.525952
O O2 0.051192 0.775952 0.354164
O O3 0.027552 0.070856 0.477555
O O4 0.125753 0.007823 0.439390
O O5 0.747979 0.500000 0.250000
O O6 0.703151 0.166229 0.301663
O O7 0.698205 0.446635 0.427756
O O8 0.787379 0.294004 0.402198
O O9 0.627632 0.906215 0.328140
O O10 0.047600 0.356372 0.600122
O O11 0.004027 0.500000 0.250000
O O12 0.138362 0.626934 0.980684
#
# Coordination Sequence:
#
# PCOD9333777 Si02
#       7
#     8   8   4   4   4   8   8
#     4  11  21  41  64  85 124 171 210 261 335 392
#     4  10  20  40  60  89 125 162 212 273 328 395
#     4  10  22  38  62  94 124 162 218 268 334 392
#     4  10  19  38  61  88 122 164 212 261 326 403
#     4  12  27  42  65  98 134 176 224 275 336 401
#     4   9  22  37  62  90 122 165 215 267 329 396
#     4  10  20  38  62  90 124 170 207 268 328 404
#
# _framework density 19.406213999999999
#
# number of rings (size 3 to 8) (size 9 to 14) (size 15 to 20)
#    0.000    1.818    1.818    1.636    2.545    2.182 
#    3.273    3.636    0.000    0.000    0.000    0.000 
#    0.000    0.000    0.000    0.000    0.000    0.000 
#
# Total GULP energy -122487.646338 kJ/mol
# GULP energy per Si atom -5567.620288 kJ/mol
# Density = 1.936204 g / cm^3
# Si number density = 19.406214 Si / 1000 Ang^3
#
#
#
# Elastic Constant Matrix: (Units=GPa)
#
#
# Indices 1 2 3 4 5 6 
#
# 1 141.2162 44.6613 63.0547 0.0000 0.0000 0.0000
# 2 44.6613 82.2569 49.1671 0.0000 0.0000 0.0000
# 3 63.0547 49.1671 115.2405 0.0000 0.0000 0.0000
# 4 0.0000 0.0000 0.0000 24.4668 0.0000 0.0000
# 5 0.0000 0.0000 0.0000 0.0000 49.7327 0.0000
# 6 0.0000 0.0000 0.0000 0.0000 0.0000 24.4229
#
#
#
# Elastic Compliance Matrix: (Units=1/GPa)
#
#
# Indices 1 2 3 4 5 6 
#
# 1 0.009846 -0.002853 -0.004170 0.000000 0.000000 0.000000
# 2 -0.002853 0.017145 -0.005754 0.000000 0.000000 0.000000
# 3 -0.004170 -0.005754 0.013414 0.000000 0.000000 0.000000
# 4 0.000000 0.000000 0.000000 0.040872 0.000000 0.000000
# 5 0.000000 0.000000 0.000000 0.000000 0.020107 0.000000
# 6 0.000000 0.000000 0.000000 0.000000 0.000000 0.040945
#
#
# Mechanical properties :
#
#
# Convention : Reuss Voigt Hill
#
# Bulk Modulus (GPa) = 67.33497 72.49778 69.91637
# Shear Modulus (GPa) = 28.92960 31.84651 30.38806
#
# Velocity S-wave (km/s) = 3.86520 4.05538 3.96143
# Velocity P-wave (km/s) = 7.39545 7.70501 7.55182
#
# Compressibility (1/GPa) = 0.01485113
#
# Stress axis : x y z
#
# Youngs Moduli (GPa) = 101.56859 58.32446 74.54958
#
# Poissons Ratio (x) = 0.16642 0.31085
# Poissons Ratio (y) = 0.28980 0.42895
# Poissons Ratio (z) = 0.42351 0.33559
#
# Static dielectric constant tensor:
#      x y z
#    x 1.679590 0.000000 0.000000 
#    y 0.000000 1.701940 0.000000 
#    z 0.000000 0.000000 1.696500 
# 
# From -- ./inp_files/27993.got.cif
#   From: 2010.05.17/outbox.cif.g08.bks.cpg/sg24_14_cif.got.tgz:27993.got - 2010.06.04 00:33:39.
