data_PCOD9333511
_publ_section_title
;
Structure prediction by ZEFSAII (Michael W. Deem and Ramdas Pophale) SiO2 
 PCOD9333511
Probable space group: I 21 21 21
;
_chemical_formula_sum "Si O2"
_cell_formula_units_Z 52
_cell_length_a 13.281696
_cell_length_b 21.349048
_cell_length_c 9.044727
_cell_angle_alpha 90.000000
_cell_angle_beta 90.000000
_cell_angle_gamma 90.000000
_cell_volume 2564.646500
_symmetry_space_group_name_H-M "I 21 21 21"
_symmetry_group_IT_number 24
_symmetry_cell_setting 'orthorhombic'
loop_
_space_group_symop_operation_xyz
x,y,z
-x,1/2-y,z
x,-y,1/2-z
1/2-x,y,-z
1/2+x,1/2+y,1/2+z
1/2-x,-y,1/2+z
1/2+x,1/2-y,-z
-x,1/2+y,1/2-z
loop_
_atom_site_type_symbol
_atom_site_label
_atom_site_fract_x
_atom_site_fract_y
_atom_site_fract_z
Si Si1 0.413716 0.631776 0.262809
Si Si2 0.394698 0.265618 0.989138
Si Si3 0.556420 0.042636 0.971689
Si Si4 0.682303 0.131441 0.774038
Si Si5 0.750000 0.345923 0.000000
Si Si6 0.484139 0.395868 0.543219
Si Si7 0.140373 0.928933 0.276426
O O1 0.419150 0.692081 0.368692
O O2 0.440584 0.573209 0.367608
O O3 0.295924 0.624732 0.219764
O O4 0.482074 0.633586 0.118452
O O5 0.500000 0.250000 0.911675
O O6 0.342003 0.200975 0.028235
O O7 0.328235 0.307974 0.879453
O O8 0.647521 0.072682 0.876453
O O9 0.455503 0.064838 0.887044
O O10 0.553161 0.968086 0.972065
O O11 0.599708 0.136304 0.646056
O O12 0.777344 0.387937 0.140775
O O13 0.590482 0.399598 0.629148
O O14 0.175927 0.000000 0.250000
#
# Coordination Sequence:
#
# PCOD9333511 Si02
#       7
#     8   8   8   8   4   8   8
#     4  11  20  33  53  90 129 160 212 261 297 371
#     4  11  22  39  62  86 115 166 223 257 296 371
#     4   9  18  34  56  86 125 170 208 245 305 383
#     4  10  19  34  52  87 126 158 216 263 288 370
#     4  12  20  42  74  88 114 174 208 254 320 374
#     4  10  20  34  57  85 130 168 191 262 332 357
#     4   9  21  41  64  95 117 148 210 256 312 381
#
# _framework density 20.275698999999999
#
# number of rings (size 3 to 8) (size 9 to 14) (size 15 to 20)
#    0.000    1.846    1.538    6.462    0.000    3.692 
#    0.000    8.462    0.000    0.000    0.000    0.000 
#    0.000    0.000    0.000    0.000    0.000    0.000 
#
# Total GULP energy -145255.444838 kJ/mol
# GULP energy per Si atom -5586.747878 kJ/mol
# Density = 2.022955 g / cm^3
# Si number density = 20.275699 Si / 1000 Ang^3
#
#
#
# Elastic Constant Matrix: (Units=GPa)
#
#
# Indices 1 2 3 4 5 6 
#
# 1 50.7336 35.7617 11.4519 0.0000 0.0000 0.0000
# 2 35.7617 91.2147 36.4206 0.0000 0.0000 0.0000
# 3 11.4519 36.4206 121.9522 0.0001 -0.0002 -0.0001
# 4 0.0000 0.0000 0.0001 1.8918 0.0000 0.0000
# 5 0.0000 0.0000 -0.0002 0.0000 22.7341 0.0000
# 6 0.0000 0.0000 -0.0001 0.0000 0.0000 25.5832
#
#
#
# Elastic Compliance Matrix: (Units=1/GPa)
#
#
# Indices 1 2 3 4 5 6 
#
# 1 0.027294 -0.010988 0.000718 0.000000 0.000000 0.000000
# 2 -0.010988 0.016871 -0.004007 0.000000 0.000000 0.000000
# 3 0.000718 -0.004007 0.009329 -0.000001 0.000000 0.000000
# 4 0.000000 0.000000 -0.000001 0.528605 0.000001 0.000000
# 5 0.000000 0.000000 0.000000 0.000001 0.043987 0.000000
# 6 0.000000 0.000000 0.000000 0.000000 0.000000 0.039088
#
#
# Mechanical properties :
#
#
# Convention : Reuss Voigt Hill
#
# Bulk Modulus (GPa) = 40.09327 47.90764 44.00045
# Shear Modulus (GPa) = 7.12211 22.05956 14.59083
#
# Velocity S-wave (km/s) = 1.87624 3.30203 2.68549
# Velocity P-wave (km/s) = 4.95082 6.18201 5.60035
#
# Compressibility (1/GPa) = 0.02494184
#
# Stress axis : x y z
#
# Youngs Moduli (GPa) = 36.63844 59.27422 107.19236
#
# Poissons Ratio (x) = 0.65128 -0.07701
# Poissons Ratio (y) = 0.40257 0.42948
# Poissons Ratio (z) = -0.02632 0.23749
#
# Static dielectric constant tensor:
#      x y z
#    x 1.740690 0.000000 0.000000 
#    y 0.000000 1.711060 0.000000 
#    z 0.000000 0.000000 1.724010 
# 
# From -- ./inp_files/13066.got.cif
#   From: 2010.05.17/outbox.cif.g08.bks.cpg/sg24_7_cif.got.tgz:13066.got - 2010.06.04 00:33:39.
