data_PCOD9333845
_publ_section_title
;
Structure prediction by ZEFSAII (Michael W. Deem and Ramdas Pophale) SiO2 
 PCOD9333845
Probable space group: I 21 21 21
;
_chemical_formula_sum "Si O2"
_cell_formula_units_Z 64
_cell_length_a 16.451837
_cell_length_b 16.552861
_cell_length_c 11.283478
_cell_angle_alpha 90.000000
_cell_angle_beta 90.000000
_cell_angle_gamma 90.000000
_cell_volume 3072.772820
_symmetry_space_group_name_H-M "I 21 21 21"
_symmetry_group_IT_number 24
_symmetry_cell_setting 'orthorhombic'
loop_
_space_group_symop_operation_xyz
x,y,z
-x,1/2-y,z
x,-y,1/2-z
1/2-x,y,-z
1/2+x,1/2+y,1/2+z
1/2-x,-y,1/2+z
1/2+x,1/2-y,-z
-x,1/2+y,1/2-z
loop_
_atom_site_type_symbol
_atom_site_label
_atom_site_fract_x
_atom_site_fract_y
_atom_site_fract_z
Si Si1 0.248977 0.315416 0.623719
Si Si2 0.592013 0.757831 0.224743
Si Si3 0.399306 0.847171 0.527021
Si Si4 0.043196 0.905492 0.226446
Si Si5 0.165815 0.914155 0.702015
Si Si6 0.364503 0.592247 0.710190
Si Si7 0.199402 0.868460 0.116095
Si Si8 0.591238 0.166312 0.024598
O O1 0.250000 0.362439 0.500000
O O2 0.155305 0.291627 0.633546
O O3 0.289145 0.361540 0.732257
O O4 0.293977 0.228630 0.618796
O O5 0.500000 0.750000 0.186859
O O6 0.618899 0.666947 0.257619
O O7 0.602667 0.818846 0.336232
O O8 0.406905 0.871670 0.662196
O O9 0.344539 0.902484 0.440376
O O10 0.493839 0.846736 0.484707
O O11 0.376736 0.752946 0.523449
O O12 0.104394 0.891920 0.117499
O O13 0.950500 0.873366 0.234970
O O14 0.034373 0.000000 0.250000
O O15 0.252050 0.903983 0.769760
O O16 0.132981 0.000000 0.750000
O O17 0.358355 0.500000 0.750000
O O18 0.370757 0.603069 0.567838
O O19 0.250000 0.895742 0.000000
#
# Coordination Sequence:
#
# PCOD9333845 Si02
#       8
#     8   8   8   8   8   8   8   8
#     4  10  23  44  60  88 127 162 216 257 308 395
#     4  10  19  41  66  92 124 164 214 268 324 389
#     4   9  17  32  57  87 116 152 204 253 316 381
#     4  10  21  36  57  85 121 161 202 258 315 376
#     4  10  20  34  56  85 124 157 196 264 319 375
#     4  10  22  42  64  92 128 162 210 271 323 378
#     4  10  22  38  55  83 121 164 208 250 311 386
#     4   9  16  35  65  89 117 154 203 272 311 377
#
# _framework density 20.828092999999999
#
# number of rings (size 3 to 8) (size 9 to 14) (size 15 to 20)
#    0.000    2.250    2.500    1.125    1.750    2.500 
#    9.000    4.375    0.000    0.000    0.000    0.000 
#    0.000    0.000    0.000    0.000    0.000    0.000 
#
# Total GULP energy -178163.139074 kJ/mol
# GULP energy per Si atom -5567.598096 kJ/mol
# Density = 2.078069 g / cm^3
# Si number density = 20.828093 Si / 1000 Ang^3
#
#
#
# Elastic Constant Matrix: (Units=GPa)
#
#
# Indices 1 2 3 4 5 6 
#
# 1 100.5274 12.6198 24.2041 0.0000 0.0000 0.0000
# 2 12.6198 48.8572 19.8133 0.0000 0.0000 0.0000
# 3 24.2041 19.8133 45.6122 0.0000 0.0000 0.0000
# 4 0.0000 0.0000 0.0000 25.7559 0.0000 0.0000
# 5 0.0000 0.0000 0.0000 0.0000 30.3464 0.0000
# 6 0.0000 0.0000 0.0000 0.0000 0.0000 4.2526
#
#
#
# Elastic Compliance Matrix: (Units=1/GPa)
#
#
# Indices 1 2 3 4 5 6 
#
# 1 0.011419 -0.000597 -0.005800 0.000000 0.000000 0.000000
# 2 -0.000597 0.024876 -0.010489 0.000000 0.000000 0.000000
# 3 -0.005800 -0.010489 0.029558 0.000000 0.000000 0.000000
# 4 0.000000 0.000000 0.000000 0.038826 0.000000 0.000000
# 5 0.000000 0.000000 0.000000 0.000000 0.032953 0.000000
# 6 0.000000 0.000000 0.000000 0.000000 0.000000 0.235153
#
#
# Mechanical properties :
#
#
# Convention : Reuss Voigt Hill
#
# Bulk Modulus (GPa) = 31.17167 34.25237 32.71202
# Shear Modulus (GPa) = 11.98325 21.29494 16.63909
#
# Velocity S-wave (km/s) = 2.40123 3.20099 2.82951
# Velocity P-wave (km/s) = 4.76304 5.49024 5.13952
#
# Compressibility (1/GPa) = 0.03208041
#
# Stress axis : x y z
#
# Youngs Moduli (GPa) = 87.57333 40.20003 33.83206
#
# Poissons Ratio (x) = 0.02402 0.19622
# Poissons Ratio (y) = 0.05232 0.35485
# Poissons Ratio (z) = 0.50792 0.42164
#
# Static dielectric constant tensor:
#      x y z
#    x 1.775250 0.000000 0.000000 
#    y 0.000000 1.740710 0.000000 
#    z 0.000000 0.000000 1.890130 
# 
# From -- ./inp_files/21722.got.cif
#   From: 2010.05.17/outbox.cif.g08.bks.cpg/sg24_11_cif.got.tgz:21722.got - 2010.06.04 00:33:39.
