data_PCOD9333947
_publ_section_title
;
Structure prediction by ZEFSAII (Michael W. Deem and Ramdas Pophale) SiO2 
 PCOD9333947
Probable space group: I 21 21 21
;
_chemical_formula_sum "Si O2"
_cell_formula_units_Z 56
_cell_length_a 9.106622
_cell_length_b 21.734495
_cell_length_c 14.766533
_cell_angle_alpha 90.000000
_cell_angle_beta 90.000000
_cell_angle_gamma 90.000000
_cell_volume 2922.707838
_symmetry_space_group_name_H-M "I 21 21 21"
_symmetry_group_IT_number 24
_symmetry_cell_setting 'orthorhombic'
loop_
_space_group_symop_operation_xyz
x,y,z
-x,1/2-y,z
x,-y,1/2-z
1/2-x,y,-z
1/2+x,1/2+y,1/2+z
1/2-x,-y,1/2+z
1/2+x,1/2-y,-z
-x,1/2+y,1/2-z
loop_
_atom_site_type_symbol
_atom_site_label
_atom_site_fract_x
_atom_site_fract_y
_atom_site_fract_z
Si Si1 0.826161 0.613109 0.407401
Si Si2 0.179224 0.535547 0.095310
Si Si3 0.174622 0.631765 0.778642
Si Si4 0.826838 0.112663 0.093781
Si Si5 0.824489 0.248448 0.597245
Si Si6 0.323675 0.866398 0.218259
Si Si7 0.635366 0.522816 0.849580
O O1 0.750000 0.633762 0.500000
O O2 0.750614 0.638652 0.316883
O O3 0.810871 0.538647 0.398921
O O4 0.999830 0.626216 0.407689
O O5 0.262207 0.570234 0.175441
O O6 0.189792 0.461640 0.102160
O O7 0.006079 0.550367 0.100639
O O8 0.250000 0.554468 0.000000
O O9 0.248008 0.640644 0.681054
O O10 0.213215 0.687722 0.845539
O O11 0.998728 0.628709 0.770732
O O12 0.750000 0.131237 0.000000
O O13 0.750000 0.248710 0.500000
O O14 0.785618 0.308107 0.656583
O O15 0.000000 0.250000 0.585073
O O16 0.259345 0.927222 0.169912
O O17 0.582071 0.500000 0.750000
#
# Coordination Sequence:
#
# PCOD9333947 Si02
#       7
#     8   8   8   8   8   8   8
#     4  10  20  36  57  83 115 146 179 222 274 329
#     4  10  20  33  53  82 114 147 183 223 272 327
#     4  11  21  37  57  80 111 144 186 230 273 322
#     4  10  21  36  57  84 113 145 180 223 273 328
#     4  10  24  42  59  81 109 144 185 229 271 318
#     4  10  22  37  56  81 110 146 185 229 275 324
#     4   9  19  35  53  79 114 148 182 224 274 326
#
# _framework density 19.160314
#
# number of rings (size 3 to 8) (size 9 to 14) (size 15 to 20)
#    0.000    2.000    0.000    4.286    0.000   12.000 
#    0.000    0.714    0.000    0.000    0.000    0.000 
#    0.000    0.000    0.000    0.000    0.000    0.000 
#
# Total GULP energy -156428.345085 kJ/mol
# GULP energy per Si atom -5586.726610 kJ/mol
# Density = 1.911670 g / cm^3
# Si number density = 19.160314 Si / 1000 Ang^3
#
#
#
# Elastic Constant Matrix: (Units=GPa)
#
#
# Indices 1 2 3 4 5 6 
#
# 1 105.0980 51.6831 87.8933 0.0000 0.0000 0.0000
# 2 51.6831 37.3502 43.7637 0.0000 0.0000 0.0000
# 3 87.8933 43.7637 172.4604 0.0001 0.0000 0.0000
# 4 0.0000 0.0000 0.0001 25.9169 0.0000 0.0000
# 5 0.0000 0.0000 0.0000 0.0000 41.5729 0.0000
# 6 0.0000 0.0000 0.0000 0.0000 0.0000 17.5422
#
#
#
# Elastic Compliance Matrix: (Units=1/GPa)
#
#
# Indices 1 2 3 4 5 6 
#
# 1 0.036475 -0.040832 -0.008228 0.000000 0.000000 0.000000
# 2 -0.040832 0.083812 -0.000458 0.000000 0.000000 0.000000
# 3 -0.008228 -0.000458 0.010108 0.000000 0.000000 0.000000
# 4 0.000000 0.000000 0.000000 0.038585 0.000000 0.000000
# 5 0.000000 0.000000 0.000000 0.000000 0.024054 0.000000
# 6 0.000000 0.000000 0.000000 0.000000 0.000000 0.057005
#
#
# Mechanical properties :
#
#
# Convention : Reuss Voigt Hill
#
# Bulk Modulus (GPa) = 31.88910 75.73208 53.81059
# Shear Modulus (GPa) = 13.90708 25.77764 19.84236
#
# Velocity S-wave (km/s) = 2.69704 3.67190 3.22156
# Velocity P-wave (km/s) = 5.13597 7.58871 6.47945
#
# Compressibility (1/GPa) = 0.03135868
#
# Stress axis : x y z
#
# Youngs Moduli (GPa) = 27.41567 11.93151 98.93088
#
# Poissons Ratio (x) = 0.48719 0.81400
# Poissons Ratio (y) = 1.11944 0.04535
# Poissons Ratio (z) = 0.22557 0.00547
#
# Static dielectric constant tensor:
#      x y z
#    x 1.648280 0.000000 0.000000 
#    y 0.000000 1.663100 0.000000 
#    z 0.000000 0.000000 1.661720 
# 
# From -- ./inp_files/25071.got.cif
#   From: 2010.05.17/outbox.cif.g08.bks.cpg/sg24_13_cif.got.tgz:25071.got - 2010.06.04 00:33:39.
