data_PCOD9333687
_publ_section_title
;
Structure prediction by ZEFSAII (Michael W. Deem and Ramdas Pophale) SiO2 
 PCOD9333687
Probable space group: I 21 21 21
;
_chemical_formula_sum "Si O2"
_cell_formula_units_Z 60
_cell_length_a 17.677812
_cell_length_b 11.340515
_cell_length_c 13.991461
_cell_angle_alpha 90.000000
_cell_angle_beta 90.000000
_cell_angle_gamma 90.000000
_cell_volume 2804.945030
_symmetry_space_group_name_H-M "I 21 21 21"
_symmetry_group_IT_number 24
_symmetry_cell_setting 'orthorhombic'
loop_
_space_group_symop_operation_xyz
x,y,z
-x,1/2-y,z
x,-y,1/2-z
1/2-x,y,-z
1/2+x,1/2+y,1/2+z
1/2-x,-y,1/2+z
1/2+x,1/2-y,-z
-x,1/2+y,1/2-z
loop_
_atom_site_type_symbol
_atom_site_label
_atom_site_fract_x
_atom_site_fract_y
_atom_site_fract_z
Si Si1 0.661680 0.021754 0.988815
Si Si2 0.311711 0.378738 0.691563
Si Si3 0.324215 0.116958 0.438113
Si Si4 0.339189 0.122955 0.995319
Si Si5 0.148433 0.000000 0.750000
Si Si6 0.087987 0.718307 0.353662
Si Si7 0.858769 0.153915 0.652641
Si Si8 0.916904 0.266466 0.833470
O O1 0.666438 0.911600 0.915774
O O2 0.609706 0.113246 0.929390
O O3 0.750000 0.063890 0.000000
O O4 0.636333 0.965939 0.090565
O O5 0.300202 0.500000 0.750000
O O6 0.375172 0.312415 0.751790
O O7 0.228457 0.324715 0.685101
O O8 0.250000 0.146554 0.500000
O O9 0.303590 0.053624 0.336943
O O10 0.372704 0.232423 0.414573
O O11 0.369727 0.008936 0.486385
O O12 0.361290 0.218037 0.077143
O O13 0.250000 0.111569 0.000000
O O14 0.367870 0.170727 0.896066
O O15 0.096165 0.107618 0.783177
O O16 0.000000 0.750000 0.350355
O O17 0.903726 0.169515 0.751214
O O18 0.000000 0.250000 0.873758
#
# Coordination Sequence:
#
# PCOD9333687 Si02
#       8
#     8   8   8   8   4   8   8   8
#     4   9  19  38  65  91 118 154 206 268 304 347
#     4   9  19  37  63  87 119 151 202 266 300 353
#     4   9  17  32  57  81 113 146 190 242 291 344
#     4  10  20  36  58  82 116 155 200 246 288 357
#     4   8  18  34  50  72 116 148 184 232 284 350
#     4  11  22  38  60  89 125 162 197 245 311 372
#     4  10  19  36  61  91 114 152 206 254 309 349
#     4  10  20  36  51  82 116 157 188 237 300 364
#
# _framework density 21.390792999999999
#
# number of rings (size 3 to 8) (size 9 to 14) (size 15 to 20)
#    0.000    2.400    0.000    2.800    0.000    3.200 
#   10.800    0.667   23.467    0.000    0.000    0.000 
#    0.000    0.000    0.000    0.000    0.000    0.000 
#
# Total GULP energy -167222.139351 kJ/mol
# GULP energy per Si atom -5574.071312 kJ/mol
# Density = 2.134211 g / cm^3
# Si number density = 21.390793 Si / 1000 Ang^3
#
#
#
# Elastic Constant Matrix: (Units=GPa)
#
#
# Indices 1 2 3 4 5 6 
#
# 1 81.4686 16.0129 22.8922 0.0000 0.0000 0.0000
# 2 16.0129 38.5621 22.8593 0.0000 0.0000 0.0000
# 3 22.8922 22.8593 64.0626 0.0000 0.0000 0.0000
# 4 0.0000 0.0000 0.0000 3.8291 0.0000 0.0000
# 5 0.0000 0.0000 0.0000 0.0000 8.2332 0.0000
# 6 0.0000 0.0000 0.0000 0.0000 0.0000 13.9947
#
#
#
# Elastic Compliance Matrix: (Units=1/GPa)
#
#
# Indices 1 2 3 4 5 6 
#
# 1 0.014032 -0.003620 -0.003722 0.000000 0.000000 0.000000
# 2 -0.003620 0.033823 -0.010775 0.000000 0.000000 0.000000
# 3 -0.003722 -0.010775 0.020785 0.000000 0.000000 0.000000
# 4 0.000000 0.000000 0.000000 0.261156 0.000000 0.000000
# 5 0.000000 0.000000 0.000000 0.000000 0.121459 0.000000
# 6 0.000000 0.000000 0.000000 0.000000 0.000000 0.071456
#
#
# Mechanical properties :
#
#
# Convention : Reuss Voigt Hill
#
# Bulk Modulus (GPa) = 30.86038 34.18024 32.52031
# Shear Modulus (GPa) = 8.77580 13.36666 11.07123
#
# Velocity S-wave (km/s) = 2.02769 2.50247 2.27748
# Velocity P-wave (km/s) = 4.46545 4.93593 4.70658
#
# Compressibility (1/GPa) = 0.03240401
#
# Stress axis : x y z
#
# Youngs Moduli (GPa) = 71.26453 29.56565 48.11189
#
# Poissons Ratio (x) = 0.10703 0.17910
# Poissons Ratio (y) = 0.25799 0.51842
# Poissons Ratio (z) = 0.26528 0.31858
#
# Static dielectric constant tensor:
#      x y z
#    x 1.780140 0.000000 0.000000 
#    y 0.000000 1.862330 0.000000 
#    z 0.000000 0.000000 1.839860 
# 
# From -- ./inp_files/27186.got.cif
#   From: 2010.05.17/outbox.cif.g08.bks.cpg/sg24_14_cif.got.tgz:27186.got - 2010.06.04 00:33:39.
