data_PCOD9333146
_publ_section_title
;
Structure prediction by ZEFSAII (Michael W. Deem and Ramdas Pophale) SiO2 
 PCOD9333146
Probable space group: I 21 21 21
;
_chemical_formula_sum "Si O2"
_cell_formula_units_Z 60
_cell_length_a 18.095692
_cell_length_b 6.279040
_cell_length_c 25.691321
_cell_angle_alpha 90.000000
_cell_angle_beta 90.000000
_cell_angle_gamma 90.000000
_cell_volume 2919.139710
_symmetry_space_group_name_H-M "I 21 21 21"
_symmetry_group_IT_number 24
_symmetry_cell_setting 'orthorhombic'
loop_
_space_group_symop_operation_xyz
x,y,z
-x,1/2-y,z
x,-y,1/2-z
1/2-x,y,-z
1/2+x,1/2+y,1/2+z
1/2-x,-y,1/2+z
1/2+x,1/2-y,-z
-x,1/2+y,1/2-z
loop_
_atom_site_type_symbol
_atom_site_label
_atom_site_fract_x
_atom_site_fract_y
_atom_site_fract_z
Si Si1 0.076508 0.854543 0.036616
Si Si2 0.448946 0.933040 0.429451
Si Si3 0.415083 0.188006 0.869270
Si Si4 0.182544 0.562159 0.086454
Si Si5 0.843162 0.845338 0.798846
Si Si6 0.783901 0.441245 0.333230
Si Si7 0.308983 0.688228 0.386728
Si Si8 0.500000 0.250000 0.342170
O O1 0.138884 0.675492 0.040984
O O2 0.000000 0.750000 0.054270
O O3 0.088165 0.050747 0.076658
O O4 0.070310 0.915249 0.976738
O O5 0.500000 0.750000 0.452432
O O6 0.376352 0.816489 0.409556
O O7 0.489755 0.051005 0.381783
O O8 0.500000 0.250000 0.856349
O O9 0.371889 0.406661 0.881439
O O10 0.366432 0.046989 0.827689
O O11 0.204749 0.758406 0.123554
O O12 0.253319 0.421306 0.072637
O O13 0.773766 0.681103 0.794790
O O14 0.925084 0.749385 0.808010
O O15 0.843203 0.000000 0.750000
O O16 0.832918 0.997754 0.848924
O O17 0.737685 0.639716 0.354537
#
# Coordination Sequence:
#
# PCOD9333146 Si02
#       8
#     8   8   8   8   8   8   8   4
#     4  11  21  34  58  87 120 166 218 264 305 366
#     4  12  24  39  62  82 122 179 219 262 320 379
#     4  10  18  34  61  93 127 161 216 261 305 381
#     4   9  20  38  59  85 125 157 208 257 309 376
#     4  11  24  42  67  94 124 160 215 275 331 402
#     4   9  20  38  60  89 130 160 197 261 331 379
#     4  10  21  42  63  84 124 165 204 260 328 383
#     4  12  24  42  62  88 124 172 218 276 330 376
#
# _framework density 20.554001
#
# number of rings (size 3 to 8) (size 9 to 14) (size 15 to 20)
#    0.000    1.600    4.667    0.400    0.000    1.600 
#    0.000    7.333    0.000    0.000    0.000    0.000 
#  144.000    0.000    0.000    0.000    0.000    0.000 
#
# Total GULP energy -167212.276630 kJ/mol
# GULP energy per Si atom -5573.742554 kJ/mol
# Density = 2.050722 g / cm^3
# Si number density = 20.554001 Si / 1000 Ang^3
#
#
#
# Elastic Constant Matrix: (Units=GPa)
#
#
# Indices 1 2 3 4 5 6 
#
# 1 122.5218 36.2551 31.8304 0.0000 0.0000 0.0000
# 2 36.2551 63.3045 6.8443 0.0000 0.0000 0.0000
# 3 31.8304 6.8443 43.6506 0.0000 0.0000 0.0000
# 4 0.0000 0.0000 0.0000 31.3059 0.0000 0.0000
# 5 0.0000 0.0000 0.0000 0.0000 6.3723 0.0000
# 6 0.0000 0.0000 0.0000 0.0000 0.0000 55.2576
#
#
#
# Elastic Compliance Matrix: (Units=1/GPa)
#
#
# Indices 1 2 3 4 5 6 
#
# 1 0.011961 -0.006009 -0.007780 0.000000 0.000000 0.000000
# 2 -0.006009 0.019088 0.001389 0.000000 0.000000 0.000000
# 3 -0.007780 0.001389 0.028365 0.000000 0.000000 0.000000
# 4 0.000000 0.000000 0.000000 0.031943 0.000000 0.000000
# 5 0.000000 0.000000 0.000000 0.000000 0.156929 0.000000
# 6 0.000000 0.000000 0.000000 0.000000 0.000000 0.018097
#
#
# Mechanical properties :
#
#
# Convention : Reuss Voigt Hill
#
# Bulk Modulus (GPa) = 28.89043 42.14849 35.51946
# Shear Modulus (GPa) = 16.51684 28.89029 22.70357
#
# Velocity S-wave (km/s) = 2.83783 3.75317 3.32713
# Velocity P-wave (km/s) = 4.98238 6.27156 5.66377
#
# Compressibility (1/GPa) = 0.03461354
#
# Stress axis : x y z
#
# Youngs Moduli (GPa) = 83.60403 52.38902 35.25515
#
# Poissons Ratio (x) = 0.31481 0.27428
# Poissons Ratio (y) = 0.50239 -0.04897
# Poissons Ratio (z) = 0.65044 -0.07277
#
# Static dielectric constant tensor:
#      x y z
#    x 1.785120 0.000000 0.000000 
#    y 0.000000 1.582910 0.000000 
#    z 0.000000 0.000000 1.703670 
# 
# From -- ./inp_files/7298.got.cif
#   From: 2010.05.17/outbox.cif.g08.bks.cpg/sg24_4_cif.got.tgz:7298.got - 2010.06.04 00:33:39.
