data_PCOD9333345
_publ_section_title
;
Structure prediction by ZEFSAII (Michael W. Deem and Ramdas Pophale) SiO2 
 PCOD9333345
Probable space group: I 21 21 21
;
_chemical_formula_sum "Si O2"
_cell_formula_units_Z 28
_cell_length_a 6.948546
_cell_length_b 5.160821
_cell_length_c 33.808353
_cell_angle_alpha 90.000000
_cell_angle_beta 90.000000
_cell_angle_gamma 90.000000
_cell_volume 1212.374372
_symmetry_space_group_name_H-M "I 21 21 21"
_symmetry_group_IT_number 24
_symmetry_cell_setting 'orthorhombic'
loop_
_space_group_symop_operation_xyz
x,y,z
-x,1/2-y,z
x,-y,1/2-z
1/2-x,y,-z
1/2+x,1/2+y,1/2+z
1/2-x,-y,1/2+z
1/2+x,1/2-y,-z
-x,1/2+y,1/2-z
loop_
_atom_site_type_symbol
_atom_site_label
_atom_site_fract_x
_atom_site_fract_y
_atom_site_fract_z
Si Si1 0.726184 0.290610 0.044985
Si Si2 0.732264 0.205476 0.415810
Si Si3 0.638487 0.000000 0.250000
Si Si4 0.861116 0.001010 0.664532
O O1 0.500000 0.250000 0.052445
O O2 0.750000 0.378483 0.000000
O O3 0.803273 0.506487 0.075118
O O4 0.800677 0.000387 0.051614
O O5 0.500000 0.250000 0.418048
O O6 0.766459 0.069584 0.373527
O O7 0.500000 0.250000 0.249683
O O8 0.741829 0.983858 0.292630
O O9 0.000000 0.250000 0.667717
O O10 0.000000 0.750000 0.658054
#
# Coordination Sequence:
#
# PCOD9333345 Si02
#       4
#     8   8   4   8
#     4  10  19  30  43  59  78 103 135 168 201 236
#     4   9  16  26  40  56  76 103 134 163 194 236
#     4   8  14  20  30  48  72 100 130 158 186 222
#     4   9  14  22  34  51  74 102 133 161 188 229
#
# _framework density 23.095174
#
# number of rings (size 3 to 8) (size 9 to 14) (size 15 to 20)
#    0.000    2.857    0.000    5.143    0.000    0.000 
#    0.000    0.000    0.000    0.000    0.000    0.000 
#    0.000    0.000    0.000    5.143    0.000   40.286 
#
# Total GULP energy -77967.192930 kJ/mol
# GULP energy per Si atom -5569.085209 kJ/mol
# Density = 2.304261 g / cm^3
# Si number density = 23.095174 Si / 1000 Ang^3
#
#
#
# Elastic Constant Matrix: (Units=GPa)
#
#
# Indices 1 2 3 4 5 6 
#
# 1 61.0897 2.7543 -17.4077 0.0000 0.0000 0.0000
# 2 2.7543 167.6101 54.4483 0.0000 0.0000 0.0000
# 3 -17.4077 54.4483 167.6164 0.0000 0.0000 0.0000
# 4 0.0000 0.0000 0.0000 36.5101 0.0000 0.0000
# 5 0.0000 0.0000 0.0000 0.0000 7.1712 0.0000
# 6 0.0000 0.0000 0.0000 0.0000 0.0000 -13.8432
#
#
#
# Elastic Compliance Matrix: (Units=1/GPa)
#
#
# Indices 1 2 3 4 5 6 
#
# 1 0.017004 -0.000954 0.002076 0.000000 0.000000 0.000000
# 2 -0.000954 0.006724 -0.002283 0.000000 0.000000 0.000000
# 3 0.002076 -0.002283 0.006923 0.000000 0.000000 0.000000
# 4 0.000000 0.000000 0.000000 0.027390 0.000000 0.000000
# 5 0.000000 0.000000 0.000000 0.000000 0.139446 0.000000
# 6 0.000000 0.000000 0.000000 0.000000 0.000000 -0.072238
#
#
# Mechanical properties :
#
#
# Convention : Reuss Voigt Hill
#
# Bulk Modulus (GPa) = 35.30022 52.87844 44.08933
# Shear Modulus (GPa) = 36.49269 29.73571 33.11420
#
# Velocity S-wave (km/s) = 3.97936 3.59211 3.79068
# Velocity P-wave (km/s) = 6.03586 6.33640 6.18795
#
# Compressibility (1/GPa) = 0.02832844
#
# Stress axis : x y z
#
# Youngs Moduli (GPa) = 58.81014 148.73034 144.44134
#
# Poissons Ratio (x) = 0.14185 -0.29982
# Poissons Ratio (y) = 0.05609 0.32978
# Poissons Ratio (z) = -0.12207 0.33957
#
# Static dielectric constant tensor:
#      x y z
#    x 1.892390 0.000000 0.000000 
#    y 0.000000 1.847630 0.000000 
#    z 0.000000 0.000000 1.978820 
# 
# From -- ./inp_files/38475.got.cif
#   From: 2010.05.17/outbox.cif.g08.bks.cpg/sg24_20_cif.got.tgz:38475.got - 2010.06.04 00:33:39.
