data_PCOD9333464
_publ_section_title
;
Structure prediction by ZEFSAII (Michael W. Deem and Ramdas Pophale) SiO2 
 PCOD9333464
Probable space group: I 21 21 21
;
_chemical_formula_sum "Si O2"
_cell_formula_units_Z 48
_cell_length_a 5.447786
_cell_length_b 16.982281
_cell_length_c 23.320341
_cell_angle_alpha 90.000000
_cell_angle_beta 90.000000
_cell_angle_gamma 90.000000
_cell_volume 2157.500766
_symmetry_space_group_name_H-M "I 21 21 21"
_symmetry_group_IT_number 24
_symmetry_cell_setting 'orthorhombic'
loop_
_space_group_symop_operation_xyz
x,y,z
-x,1/2-y,z
x,-y,1/2-z
1/2-x,y,-z
1/2+x,1/2+y,1/2+z
1/2-x,-y,1/2+z
1/2+x,1/2-y,-z
-x,1/2+y,1/2-z
loop_
_atom_site_type_symbol
_atom_site_label
_atom_site_fract_x
_atom_site_fract_y
_atom_site_fract_z
Si Si1 0.500000 0.750000 0.376113
Si Si2 0.250000 0.613684 0.000000
Si Si3 0.774257 0.344490 0.652913
Si Si4 0.000000 0.250000 0.122205
Si Si5 0.717317 0.063037 0.624819
Si Si6 0.425372 0.129117 0.227032
Si Si7 0.000000 0.250000 0.561703
Si Si8 0.577388 0.089022 0.807120
O O1 0.252266 0.751409 0.411468
O O2 0.469031 0.821851 0.331110
O O3 0.314090 0.564538 0.944086
O O4 0.045657 0.675341 0.978043
O O5 0.511937 0.385800 0.648103
O O6 0.827290 0.321437 0.718737
O O7 0.010495 0.401228 0.638044
O O8 0.788890 0.274187 0.606821
O O9 0.033963 0.326206 0.162901
O O10 0.675992 0.976360 0.649499
O O11 0.698781 0.095697 0.238349
O O12 0.197047 0.070902 0.215194
#
# Coordination Sequence:
#
# PCOD9333464 Si02
#       8
#     4   4   8   4   8   8   4   8
#     4   8  15  28  46  72 101 144 183 212 261 320
#     4  10  22  42  64  84 114 154 200 260 298 324
#     4  11  23  36  56  85 114 150 191 235 291 350
#     4   8  16  30  50  73 101 139 179 216 260 326
#     4  11  24  38  56  83 110 147 196 242 298 344
#     4  10  19  33  53  79 118 151 185 233 282 347
#     4  10  21  40  64  85 114 155 204 248 289 344
#     4  10  20  35  55  81 114 153 190 227 284 355
#
# _framework density 22.247964
#
# number of rings (size 3 to 8) (size 9 to 14) (size 15 to 20)
#    0.000    2.000    0.000    3.500    0.000    8.000 
#    0.000    6.667    0.000    0.000    0.000   11.667 
#    0.000    0.000    0.000    0.000    0.000    0.000 
#
# Total GULP energy -133748.332280 kJ/mol
# GULP energy per Si atom -5572.847178 kJ/mol
# Density = 2.219733 g / cm^3
# Si number density = 22.247964 Si / 1000 Ang^3
#
#
#
# Elastic Constant Matrix: (Units=GPa)
#
#
# Indices 1 2 3 4 5 6 
#
# 1 208.5996 13.6865 15.1601 0.0000 0.0000 0.0000
# 2 13.6865 79.3452 6.0115 0.0000 0.0000 0.0000
# 3 15.1601 6.0115 58.8623 0.0000 0.0000 0.0000
# 4 0.0000 0.0000 0.0000 -27.0086 0.0000 0.0000
# 5 0.0000 0.0000 0.0000 0.0000 18.5122 0.0000
# 6 0.0000 0.0000 0.0000 0.0000 0.0000 25.4121
#
#
#
# Elastic Compliance Matrix: (Units=1/GPa)
#
#
# Indices 1 2 3 4 5 6 
#
# 1 0.004930 -0.000760 -0.001192 0.000000 0.000000 0.000000
# 2 -0.000760 0.012819 -0.001113 0.000000 0.000000 0.000000
# 3 -0.001192 -0.001113 0.017410 0.000000 0.000000 0.000000
# 4 0.000000 0.000000 0.000000 -0.037025 0.000000 0.000000
# 5 0.000000 0.000000 0.000000 0.000000 0.054018 0.000000
# 6 0.000000 0.000000 0.000000 0.000000 0.000000 0.039351
#
#
# Mechanical properties :
#
#
# Convention : Reuss Voigt Hill
#
# Bulk Modulus (GPa) = 34.45050 46.28038 40.36544
# Shear Modulus (GPa) = 46.59389 24.17974 35.38681
#
# Velocity S-wave (km/s) = 4.58132 3.30029 3.99251
# Velocity P-wave (km/s) = 6.59568 5.94725 6.27984
#
# Compressibility (1/GPa) = 0.02902716
#
# Stress axis : x y z
#
# Youngs Moduli (GPa) = 202.82373 78.01142 57.43973
#
# Poissons Ratio (x) = 0.05930 0.06848
# Poissons Ratio (y) = 0.15417 0.06395
# Poissons Ratio (z) = 0.24181 0.08686
#
# Static dielectric constant tensor:
#      x y z
#    x 2.005320 0.000000 0.000000 
#    y 0.000000 1.793700 0.000000 
#    z 0.000000 0.000000 1.785530 
# 
# From -- ./inp_files/6439.got.cif
#   From: 2010.05.17/outbox.cif.g08.bks.cpg/sg24_4_cif.got.tgz:6439.got - 2010.06.04 00:33:39.
