data_PCOD9333065
_publ_section_title
;
Structure prediction by ZEFSAII (Michael W. Deem and Ramdas Pophale) SiO2 
 PCOD9333065
Probable space group: I 21 21 21
;
_chemical_formula_sum "Si O2"
_cell_formula_units_Z 56
_cell_length_a 8.182371
_cell_length_b 15.496379
_cell_length_c 17.788465
_cell_angle_alpha 90.000000
_cell_angle_beta 90.000000
_cell_angle_gamma 90.000000
_cell_volume 2255.526169
_symmetry_space_group_name_H-M "I 21 21 21"
_symmetry_group_IT_number 24
_symmetry_cell_setting 'orthorhombic'
loop_
_space_group_symop_operation_xyz
x,y,z
-x,1/2-y,z
x,-y,1/2-z
1/2-x,y,-z
1/2+x,1/2+y,1/2+z
1/2-x,-y,1/2+z
1/2+x,1/2-y,-z
-x,1/2+y,1/2-z
loop_
_atom_site_type_symbol
_atom_site_label
_atom_site_fract_x
_atom_site_fract_y
_atom_site_fract_z
Si Si1 0.547129 0.962547 0.335018
Si Si2 0.577032 0.867852 0.913730
Si Si3 0.093002 0.430316 0.118877
Si Si4 0.129419 0.000000 0.250000
Si Si5 0.936208 0.141243 0.588052
Si Si6 0.166859 0.201072 0.837239
Si Si7 0.000000 0.750000 0.420384
Si Si8 0.755199 0.333590 0.325509
O O1 0.721246 0.917406 0.353135
O O2 0.396211 0.897387 0.343356
O O3 0.560948 0.000000 0.250000
O O4 0.539215 0.040001 0.394042
O O5 0.575136 0.972717 0.913100
O O6 0.753502 0.841867 0.880708
O O7 0.425472 0.829775 0.868777
O O8 0.568287 0.841927 0.000035
O O9 0.043906 0.352693 0.061949
O O10 0.982112 0.439395 0.195224
O O11 0.234413 0.934318 0.200872
O O12 0.098762 0.180082 0.622997
O O13 0.323677 0.226982 0.884461
O O14 0.222392 0.216722 0.751391
O O15 0.000000 0.250000 0.856613
#
# Coordination Sequence:
#
# PCOD9333065 Si02
#       8
#     8   8   8   4   8   8   4   8
#     4  11  20  36  64  92 118 152 199 259 307 350
#     4   9  22  37  58  92 117 155 198 252 301 351
#     4  10  20  35  60  85 125 159 198 241 304 355
#     4  10  18  32  58  92 114 148 198 256 304 344
#     4  10  20  37  61  91 120 146 199 260 301 347
#     4  12  25  37  56  91 125 163 198 238 312 365
#     4  12  24  38  54  82 136 170 192 240 300 376
#     4  11  20  34  59  87 117 151 199 246 303 352
#
# _framework density 24.827909999999999
#
# number of rings (size 3 to 8) (size 9 to 14) (size 15 to 20)
#    0.000    1.429    5.000    1.286    2.000    1.143 
#    0.000    0.000    1.571    0.000   14.857    0.000 
#    0.000    0.000    0.000    0.000    0.000    0.000 
#
# Total GULP energy -156401.838221 kJ/mol
# GULP energy per Si atom -5585.779936 kJ/mol
# Density = 2.477140 g / cm^3
# Si number density = 24.827910 Si / 1000 Ang^3
#
#
#
# Elastic Constant Matrix: (Units=GPa)
#
#
# Indices 1 2 3 4 5 6 
#
# 1 211.6317 48.3729 24.7591 0.0000 0.0000 0.0000
# 2 48.3729 124.1570 0.9232 0.0000 0.0000 0.0000
# 3 24.7591 0.9232 10.8451 0.0000 0.0000 0.0000
# 4 0.0000 0.0000 0.0000 7.9311 0.0000 0.0000
# 5 0.0000 0.0000 0.0000 0.0000 27.8190 0.0000
# 6 0.0000 0.0000 0.0000 0.0000 0.0000 50.5141
#
#
#
# Elastic Compliance Matrix: (Units=1/GPa)
#
#
# Indices 1 2 3 4 5 6 
#
# 1 0.007254 -0.002705 -0.016330 0.000000 0.000000 0.000000
# 2 -0.002705 0.009068 0.005403 0.000000 0.000000 0.000000
# 3 -0.016330 0.005403 0.129029 0.000000 0.000000 0.000000
# 4 0.000000 0.000000 0.000000 0.126085 0.000000 0.000000
# 5 0.000000 0.000000 0.000000 0.000000 0.035947 0.000000
# 6 0.000000 0.000000 0.000000 0.000000 0.000000 0.019796
#
#
# Mechanical properties :
#
#
# Convention : Reuss Voigt Hill
#
# Bulk Modulus (GPa) = 8.46836 54.97158 31.71997
# Shear Modulus (GPa) = 12.69663 35.42477 24.06070
#
# Velocity S-wave (km/s) = 2.26384 3.78141 3.11641
# Velocity P-wave (km/s) = 3.20180 6.42297 5.07475
#
# Compressibility (1/GPa) = 0.11808662
#
# Stress axis : x y z
#
# Youngs Moduli (GPa) = 137.85662 110.27848 7.75021
#
# Poissons Ratio (x) = 0.29828 0.12656
# Poissons Ratio (y) = 0.37287 -0.04187
# Poissons Ratio (z) = 2.25123 -0.59584
#
# Static dielectric constant tensor:
#      x y z
#    x 1.955880 0.000000 0.000000 
#    y 0.000000 2.070830 0.000000 
#    z 0.000000 0.000000 1.942560 
# 
# From -- ./inp_files/32929.got.cif
#   From: 2010.05.17/outbox.cif.g08.bks.cpg/sg24_17_cif.got.tgz:32929.got - 2010.06.04 00:33:39.
