data_PCOD9333101
_publ_section_title
;
Structure prediction by ZEFSAII (Michael W. Deem and Ramdas Pophale) SiO2 
 PCOD9333101
Probable space group: I 21 21 21
;
_chemical_formula_sum "Si O2"
_cell_formula_units_Z 32
_cell_length_a 14.018221
_cell_length_b 7.050800
_cell_length_c 13.708573
_cell_angle_alpha 90.000000
_cell_angle_beta 90.000000
_cell_angle_gamma 90.000000
_cell_volume 1354.950868
_symmetry_space_group_name_H-M "I 21 21 21"
_symmetry_group_IT_number 24
_symmetry_cell_setting 'orthorhombic'
loop_
_space_group_symop_operation_xyz
x,y,z
-x,1/2-y,z
x,-y,1/2-z
1/2-x,y,-z
1/2+x,1/2+y,1/2+z
1/2-x,-y,1/2+z
1/2+x,1/2-y,-z
-x,1/2+y,1/2-z
loop_
_atom_site_type_symbol
_atom_site_label
_atom_site_fract_x
_atom_site_fract_y
_atom_site_fract_z
Si Si1 0.250000 0.264519 0.000000
Si Si2 0.339451 0.788630 0.131072
Si Si3 0.645489 0.537756 0.865403
Si Si4 0.500000 0.250000 0.522035
Si Si5 0.888850 0.260911 0.848955
O O1 0.320914 0.355768 0.078188
O O2 0.182118 0.137466 0.069813
O O3 0.225246 0.796319 0.116700
O O4 0.367597 0.712396 0.237076
O O5 0.362455 0.016579 0.137024
O O6 0.411405 0.712976 0.049867
O O7 0.646184 0.500000 0.750000
O O8 0.542312 0.591544 0.906246
O O9 0.000000 0.250000 0.870187
#
# Coordination Sequence:
#
# PCOD9333101 Si02
#       5
#     4   8   8   4   8
#     4  10  18  36  58  82 114 156 202 246 306 352
#     4  10  19  35  61  88 110 154 207 245 298 362
#     4  11  20  37  58  87 118 154 201 253 299 364
#     4  12  20  34  64  90 118 156 208 250 300 366
#     4  10  18  33  60  84 114 150 207 252 294 357
#
# _framework density 23.617092
#
# number of rings (size 3 to 8) (size 9 to 14) (size 15 to 20)
#    0.000    1.500   11.250    0.000    0.000    0.000 
#    2.250    0.000    5.500    0.000    0.000    0.000 
#    0.000    0.000    0.000    0.000    0.000    0.000 
#
# Total GULP energy -89356.062247 kJ/mol
# GULP energy per Si atom -5584.753890 kJ/mol
# Density = 2.356334 g / cm^3
# Si number density = 23.617092 Si / 1000 Ang^3
#
#
#
# Elastic Constant Matrix: (Units=GPa)
#
#
# Indices 1 2 3 4 5 6 
#
# 1 112.3131 9.6083 67.2162 0.0000 0.0000 0.0000
# 2 9.6083 48.1677 2.6554 0.0000 0.0000 0.0000
# 3 67.2162 2.6554 214.0441 0.0000 0.0000 0.0000
# 4 0.0000 0.0000 0.0000 6.2493 0.0000 0.0000
# 5 0.0000 0.0000 0.0000 0.0000 51.8527 0.0000
# 6 0.0000 0.0000 0.0000 0.0000 0.0000 35.6079
#
#
#
# Elastic Compliance Matrix: (Units=1/GPa)
#
#
# Indices 1 2 3 4 5 6 
#
# 1 0.011160 -0.002034 -0.003479 0.000000 0.000000 0.000000
# 2 -0.002034 0.021146 0.000377 0.000000 0.000000 0.000000
# 3 -0.003479 0.000377 0.005760 0.000000 0.000000 0.000000
# 4 0.000000 0.000000 0.000000 0.160017 0.000000 0.000000
# 5 0.000000 0.000000 0.000000 0.000000 0.019285 0.000000
# 6 0.000000 0.000000 0.000000 0.000000 0.000000 0.028084
#
#
# Mechanical properties :
#
#
# Convention : Reuss Voigt Hill
#
# Bulk Modulus (GPa) = 35.98237 59.27608 47.62923
# Shear Modulus (GPa) = 18.86860 38.41164 28.64012
#
# Velocity S-wave (km/s) = 2.82962 4.03728 3.48614
# Velocity P-wave (km/s) = 5.09357 6.84735 6.03451
#
# Compressibility (1/GPa) = 0.02779139
#
# Stress axis : x y z
#
# Youngs Moduli (GPa) = 89.60570 47.29059 173.61480
#
# Poissons Ratio (x) = 0.09621 0.60406
# Poissons Ratio (y) = 0.18229 -0.06537
# Poissons Ratio (z) = 0.31177 -0.01781
#
# Static dielectric constant tensor:
#      x y z
#    x 1.906460 0.000000 0.000000 
#    y 0.000000 1.997320 0.000000 
#    z 0.000000 0.000000 1.914280 
# 
# From -- ./inp_files/19230.got.cif
#   From: 2010.05.17/outbox.cif.g08.bks.cpg/sg24_10_cif.got.tgz:19230.got - 2010.06.04 00:33:39.
