data_PCOD9333047
_publ_section_title
;
Structure prediction by ZEFSAII (Michael W. Deem and Ramdas Pophale) SiO2 
 PCOD9333047
Probable space group: I 21 21 21
;
_chemical_formula_sum "Si O2"
_cell_formula_units_Z 64
_cell_length_a 21.521132
_cell_length_b 19.599979
_cell_length_c 9.048242
_cell_angle_alpha 90.000000
_cell_angle_beta 90.000000
_cell_angle_gamma 90.000000
_cell_volume 3816.672756
_symmetry_space_group_name_H-M "I 21 21 21"
_symmetry_group_IT_number 24
_symmetry_cell_setting 'orthorhombic'
loop_
_space_group_symop_operation_xyz
x,y,z
-x,1/2-y,z
x,-y,1/2-z
1/2-x,y,-z
1/2+x,1/2+y,1/2+z
1/2-x,-y,1/2+z
1/2+x,1/2-y,-z
-x,1/2+y,1/2-z
loop_
_atom_site_type_symbol
_atom_site_label
_atom_site_fract_x
_atom_site_fract_y
_atom_site_fract_z
Si Si1 0.103894 0.692707 0.356185
Si Si2 0.430047 0.435540 0.345464
Si Si3 0.280923 0.434223 0.340632
Si Si4 0.341773 0.243188 0.420067
Si Si5 0.441487 0.700656 0.309893
Si Si6 0.947007 0.299562 0.377436
Si Si7 0.466314 0.575721 0.815031
Si Si8 0.776016 0.791443 0.201906
O O1 0.083534 0.689438 0.524828
O O2 0.070770 0.753560 0.264618
O O3 0.084484 0.621125 0.276305
O O4 0.175992 0.712266 0.335277
O O5 0.450485 0.500000 0.250000
O O6 0.355272 0.432879 0.340013
O O7 0.459066 0.370090 0.266871
O O8 0.446123 0.436064 0.516808
O O9 0.259858 0.500000 0.250000
O O10 0.250000 0.440126 0.500000
O O11 0.259174 0.362148 0.277229
O O12 0.387297 0.270702 0.295178
O O13 0.386773 0.193473 0.516057
O O14 0.319228 0.293920 0.552943
O O15 0.275406 0.233345 0.335904
O O16 0.500000 0.750000 0.316940
O O17 0.000000 0.250000 0.451948
O O18 0.975865 0.371277 0.327688
O O19 0.477198 0.500000 0.750000
#
# Coordination Sequence:
#
# PCOD9333047 Si02
#       8
#     8   8   8   8   8   8   8   8
#     4  10  22  34  52  78 110 143 183 226 275 329
#     4  11  23  35  49  74 103 138 186 225 266 317
#     4  11  21  33  45  65  98 141 183 216 249 301
#     4  10  18  32  55  73  98 136 181 230 272 320
#     4  12  21  34  53  76 105 140 181 232 275 318
#     4   9  18  34  54  77 100 140 186 226 280 329
#     4  11  21  36  55  75 108 147 186 232 280 334
#     4  10  19  35  52  69 103 142 182 230 265 325
#
# _framework density 16.768533999999999
#
# number of rings (size 3 to 8) (size 9 to 14) (size 15 to 20)
#    0.000    1.500    2.500    6.000    0.000    4.500 
#    0.000    0.000    0.000    0.000    0.000    0.000 
#    0.000   97.000    0.000    0.000    0.000    0.000 
#
# Total GULP energy -178217.298670 kJ/mol
# GULP energy per Si atom -5569.290583 kJ/mol
# Density = 1.673037 g / cm^3
# Si number density = 16.768534 Si / 1000 Ang^3
#
#
#
# Elastic Constant Matrix: (Units=GPa)
#
#
# Indices 1 2 3 4 5 6 
#
# 1 77.7092 38.7287 29.1017 0.0000 0.0000 0.0000
# 2 38.7287 75.8948 31.5808 0.0000 0.0000 0.0000
# 3 29.1017 31.5808 96.0001 0.0000 0.0000 0.0000
# 4 0.0000 0.0000 0.0000 21.4772 0.0000 0.0000
# 5 0.0000 0.0000 0.0000 0.0000 10.0705 0.0000
# 6 0.0000 0.0000 0.0000 0.0000 0.0000 15.7074
#
#
#
# Elastic Compliance Matrix: (Units=1/GPa)
#
#
# Indices 1 2 3 4 5 6 
#
# 1 0.017886 -0.007960 -0.002803 0.000000 0.000000 0.000000
# 2 -0.007960 0.018809 -0.003774 0.000000 0.000000 0.000000
# 3 -0.002803 -0.003774 0.012508 0.000000 0.000000 0.000000
# 4 0.000000 0.000000 0.000000 0.046561 0.000000 0.000000
# 5 0.000000 0.000000 0.000000 0.000000 0.099300 0.000000
# 6 0.000000 0.000000 0.000000 0.000000 0.000000 0.063664
#
#
# Mechanical properties :
#
#
# Convention : Reuss Voigt Hill
#
# Bulk Modulus (GPa) = 49.68556 49.82518 49.75537
# Shear Modulus (GPa) = 16.97723 19.46389 18.22056
#
# Velocity S-wave (km/s) = 3.18535 3.41066 3.29993
# Velocity P-wave (km/s) = 6.57443 6.72964 6.65249
#
# Compressibility (1/GPa) = 0.02012657
#
# Stress axis : x y z
#
# Youngs Moduli (GPa) = 55.91093 53.16638 79.94860
#
# Poissons Ratio (x) = 0.42323 0.22411
# Poissons Ratio (y) = 0.44508 0.30175
# Poissons Ratio (z) = 0.15673 0.20067
#
# Static dielectric constant tensor:
#      x y z
#    x 1.628620 0.000000 0.000000 
#    y 0.000000 1.566520 0.000000 
#    z 0.000000 0.000000 1.585720 
# 
# From -- ./inp_files/16108.got.cif
#   From: 2010.05.17/outbox.cif.g08.bks.cpg/sg24_9_cif.got.tgz:16108.got - 2010.06.04 00:33:39.
