data_PCOD9333905
_publ_section_title
;
Structure prediction by ZEFSAII (Michael W. Deem and Ramdas Pophale) SiO2 
 PCOD9333905
Probable space group: I 21 21 21
;
_chemical_formula_sum "Si O2"
_cell_formula_units_Z 44
_cell_length_a 5.146868
_cell_length_b 31.909086
_cell_length_c 15.197020
_cell_angle_alpha 90.000000
_cell_angle_beta 90.000000
_cell_angle_gamma 90.000000
_cell_volume 2495.834764
_symmetry_space_group_name_H-M "I 21 21 21"
_symmetry_group_IT_number 24
_symmetry_cell_setting 'orthorhombic'
loop_
_space_group_symop_operation_xyz
x,y,z
-x,1/2-y,z
x,-y,1/2-z
1/2-x,y,-z
1/2+x,1/2+y,1/2+z
1/2-x,-y,1/2+z
1/2+x,1/2-y,-z
-x,1/2+y,1/2-z
loop_
_atom_site_type_symbol
_atom_site_label
_atom_site_fract_x
_atom_site_fract_y
_atom_site_fract_z
Si Si1 0.996937 0.701220 0.562087
Si Si2 0.250000 0.422122 0.000000
Si Si3 0.494765 0.378558 0.167306
Si Si4 0.902085 0.452968 0.142036
Si Si5 0.799131 0.457785 0.603902
Si Si6 0.304786 0.572765 0.801000
O O1 0.750000 0.693477 0.500000
O O2 0.000000 0.750000 0.588931
O O3 0.250000 0.694460 0.500000
O O4 0.964139 0.669824 0.644179
O O5 0.347426 0.394219 0.079749
O O6 0.025456 0.448874 0.045224
O O7 0.738606 0.411036 0.166561
O O8 0.320703 0.386602 0.253487
O O9 0.742504 0.495474 0.142021
O O10 0.131568 0.454904 0.213916
O O11 0.750000 0.457648 0.500000
O O12 0.576998 0.428245 0.647502
O O13 0.083961 0.444157 0.634323
#
# Coordination Sequence:
#
# PCOD9333905 Si02
#       6
#     8   4   8   8   8   8
#     4  10  21  36  57  85 119 157 192 228 274 337
#     4  10  20  32  54  82 108 152 192 232 272 334
#     4  11  21  37  55  83 116 153 196 231 281 332
#     4  11  24  36  57  80 113 148 198 237 285 331
#     4  12  26  42  56  78 110 150 200 239 295 335
#     4  11  26  39  57  79 109 150 190 247 284 335
#
# _framework density 17.629370999999999
#
# number of rings (size 3 to 8) (size 9 to 14) (size 15 to 20)
#    0.000    1.091    2.727    3.818   12.727    0.000 
#    0.000    0.000    0.000    0.000    0.000    0.000 
#    0.000    2.909    0.364    0.000    0.000    0.000 
#
# Total GULP energy -122748.149595 kJ/mol
# GULP energy per Si atom -5579.461345 kJ/mol
# Density = 1.758925 g / cm^3
# Si number density = 17.629371 Si / 1000 Ang^3
#
#
#
# Elastic Constant Matrix: (Units=GPa)
#
#
# Indices 1 2 3 4 5 6 
#
# 1 96.2227 18.8377 21.0968 0.0000 0.0000 0.0000
# 2 18.8377 89.6089 26.9791 0.0000 0.0000 0.0000
# 3 21.0968 26.9791 86.4091 0.0000 0.0000 0.0000
# 4 0.0000 0.0000 0.0000 22.2669 0.0000 0.0000
# 5 0.0000 0.0000 0.0000 0.0000 38.4136 0.0000
# 6 0.0000 0.0000 0.0000 0.0000 0.0000 -14.8102
#
#
#
# Elastic Compliance Matrix: (Units=1/GPa)
#
#
# Indices 1 2 3 4 5 6 
#
# 1 0.011208 -0.001691 -0.002208 0.000000 0.000000 0.000000
# 2 -0.001691 0.012573 -0.003513 0.000000 0.000000 0.000000
# 3 -0.002208 -0.003513 0.013209 0.000000 0.000000 0.000000
# 4 0.000000 0.000000 0.000000 0.044910 0.000000 0.000000
# 5 0.000000 0.000000 0.000000 0.000000 0.026032 0.000000
# 6 0.000000 0.000000 0.000000 0.000000 0.000000 -0.067521
#
#
# Mechanical properties :
#
#
# Convention : Reuss Voigt Hill
#
# Bulk Modulus (GPa) = 45.11638 45.11867 45.11752
# Shear Modulus (GPa) = 79.84247 22.86251 51.35249
#
# Velocity S-wave (km/s) = 6.73705 3.60508 5.40298
# Velocity P-wave (km/s) = 9.28247 6.55570 8.03559
#
# Compressibility (1/GPa) = 0.02216490
#
# Stress axis : x y z
#
# Youngs Moduli (GPa) = 89.22325 79.53742 75.70735
#
# Poissons Ratio (x) = 0.13452 0.16719
# Poissons Ratio (y) = 0.15090 0.26593
# Poissons Ratio (z) = 0.19704 0.27938
#
# Static dielectric constant tensor:
#      x y z
#    x 1.695890 0.000000 0.000000 
#    y 0.000000 1.657110 0.000000 
#    z 0.000000 0.000000 1.629300 
# 
# From -- ./inp_files/24009.got.cif
#   From: 2010.05.17/outbox.cif.g08.bks.cpg/sg24_13_cif.got.tgz:24009.got - 2010.06.04 00:33:39.
