data_PCOD9333209
_publ_section_title
;
Structure prediction by ZEFSAII (Michael W. Deem and Ramdas Pophale) SiO2 
 PCOD9333209
Probable space group: I 21 21 21
;
_chemical_formula_sum "Si O2"
_cell_formula_units_Z 28
_cell_length_a 21.290164
_cell_length_b 12.910406
_cell_length_c 4.860189
_cell_angle_alpha 90.000000
_cell_angle_beta 90.000000
_cell_angle_gamma 90.000000
_cell_volume 1335.894202
_symmetry_space_group_name_H-M "I 21 21 21"
_symmetry_group_IT_number 24
_symmetry_cell_setting 'orthorhombic'
loop_
_space_group_symop_operation_xyz
x,y,z
-x,1/2-y,z
x,-y,1/2-z
1/2-x,y,-z
1/2+x,1/2+y,1/2+z
1/2-x,-y,1/2+z
1/2+x,1/2-y,-z
-x,1/2+y,1/2-z
loop_
_atom_site_type_symbol
_atom_site_label
_atom_site_fract_x
_atom_site_fract_y
_atom_site_fract_z
Si Si1 0.847676 0.220287 0.707408
Si Si2 0.250000 0.430631 0.000000
Si Si3 0.342994 0.930619 0.988124
Si Si4 0.426365 0.765808 0.735421
O O1 0.812640 0.325839 0.612443
O O2 0.886744 0.189239 0.436324
O O3 0.801141 0.140274 0.846586
O O4 0.899528 0.251758 0.931929
O O5 0.223386 0.500000 0.250000
O O6 0.357487 0.000000 0.250000
O O7 0.403909 0.878735 0.842894
O O8 0.310694 0.000000 0.750000
O O9 0.500000 0.750000 0.753199
#
# Coordination Sequence:
#
# PCOD9333209 Si02
#       4
#     8   4   8   8
#     4  10  22  39  66  90 131 170 218 276 337 381
#     4  12  26  46  70  94 132 184 232 282 330 388
#     4  10  18  36  62  91 125 165 209 264 344 401
#     4  10  20  37  63  91 135 171 216 268 339 384
#
# _framework density 20.959745000000002
#
# number of rings (size 3 to 8) (size 9 to 14) (size 15 to 20)
#    1.714    0.000    2.857    2.571    0.000    0.000 
#    0.000    8.571    6.286    0.000    0.000    0.000 
#    0.000    0.000    0.000    0.000    0.000    0.000 
#
# Total GULP energy -77969.735126 kJ/mol
# GULP energy per Si atom -5569.266795 kJ/mol
# Density = 2.091204 g / cm^3
# Si number density = 20.959745 Si / 1000 Ang^3
#
#
#
# Elastic Constant Matrix: (Units=GPa)
#
#
# Indices 1 2 3 4 5 6 
#
# 1 86.4628 40.6782 21.1272 0.0000 0.0000 0.0000
# 2 40.6782 97.3249 39.8056 0.0000 0.0000 0.0000
# 3 21.1272 39.8056 135.8572 0.0000 0.0000 0.0000
# 4 0.0000 0.0000 0.0000 176.0392 0.0000 0.0000
# 5 0.0000 0.0000 0.0000 0.0000 26.8267 0.0000
# 6 0.0000 0.0000 0.0000 0.0000 0.0000 15.6323
#
#
#
# Elastic Compliance Matrix: (Units=1/GPa)
#
#
# Indices 1 2 3 4 5 6 
#
# 1 0.014432 -0.005810 -0.000542 0.000000 0.000000 0.000000
# 2 -0.005810 0.014013 -0.003202 0.000000 0.000000 0.000000
# 3 -0.000542 -0.003202 0.008383 0.000000 0.000000 0.000000
# 4 0.000000 0.000000 0.000000 0.005681 0.000000 0.000000
# 5 0.000000 0.000000 0.000000 0.000000 0.037276 0.000000
# 6 0.000000 0.000000 0.000000 0.000000 0.000000 0.063970
#
#
# Mechanical properties :
#
#
# Convention : Reuss Voigt Hill
#
# Bulk Modulus (GPa) = 56.43615 58.09632 57.26623
# Shear Modulus (GPa) = 29.62613 58.23523 43.93068
#
# Velocity S-wave (km/s) = 3.76370 5.27680 4.58313
# Velocity P-wave (km/s) = 6.77287 8.05633 7.44232
#
# Compressibility (1/GPa) = 0.01771914
#
# Stress axis : x y z
#
# Youngs Moduli (GPa) = 69.29216 71.36214 119.28666
#
# Poissons Ratio (x) = 0.41463 0.06464
# Poissons Ratio (y) = 0.40261 0.38198
# Poissons Ratio (z) = 0.03755 0.22852
#
# Static dielectric constant tensor:
#      x y z
#    x 1.678860 0.000000 0.000000 
#    y 0.000000 1.822760 0.000000 
#    z 0.000000 0.000000 1.763720 
# 
# From -- ./inp_files/6081.got.cif
#   From: 2010.05.17/outbox.cif.g08.bks.cpg/sg24_4_cif.got.tgz:6081.got - 2010.06.04 00:33:39.
