data_PCOD9333073
_publ_section_title
;
Structure prediction by ZEFSAII (Michael W. Deem and Ramdas Pophale) SiO2 
 PCOD9333073
Probable space group: I 21 21 21
;
_chemical_formula_sum "Si O2"
_cell_formula_units_Z 40
_cell_length_a 15.043007
_cell_length_b 10.432027
_cell_length_c 14.046487
_cell_angle_alpha 90.000000
_cell_angle_beta 90.000000
_cell_angle_gamma 90.000000
_cell_volume 2204.301934
_symmetry_space_group_name_H-M "I 21 21 21"
_symmetry_group_IT_number 24
_symmetry_cell_setting 'orthorhombic'
loop_
_space_group_symop_operation_xyz
x,y,z
-x,1/2-y,z
x,-y,1/2-z
1/2-x,y,-z
1/2+x,1/2+y,1/2+z
1/2-x,-y,1/2+z
1/2+x,1/2-y,-z
-x,1/2+y,1/2-z
loop_
_atom_site_type_symbol
_atom_site_label
_atom_site_fract_x
_atom_site_fract_y
_atom_site_fract_z
Si Si1 0.435724 0.642025 0.004299
Si Si2 0.300339 0.016225 0.860517
Si Si3 0.880800 0.380056 0.823089
Si Si4 0.000000 0.750000 0.812097
Si Si5 0.250000 0.210302 0.500000
Si Si6 0.527684 0.392299 0.974586
O O1 0.500000 0.750000 0.956263
O O2 0.337743 0.701892 0.006321
O O3 0.452237 0.501540 0.963098
O O4 0.474940 0.640088 0.112246
O O5 0.261813 0.886817 0.910278
O O6 0.323644 0.000000 0.750000
O O7 0.219678 0.118162 0.860893
O O8 0.385720 0.059481 0.918591
O O9 0.886417 0.500000 0.750000
O O10 0.915908 0.268181 0.755599
O O11 0.942771 0.386163 0.915034
O O12 0.500000 0.250000 0.944470
#
# Coordination Sequence:
#
# PCOD9333073 Si02
#       6
#     8   8   8   4   4   8
#     4  10  20  39  64  88 127 162 213 256 302 382
#     4  11  22  40  65  89 118 165 219 258 307 390
#     4  11  18  34  63  93 120 156 203 262 315 366
#     4  10  18  32  62  96 122 158 212 256 312 360
#     4  12  20  42  70  94 120 166 222 262 320 384
#     4  12  23  40  59  92 131 166 201 256 321 378
#
# _framework density 18.146335000000001
#
# number of rings (size 3 to 8) (size 9 to 14) (size 15 to 20)
#    0.600    0.400    7.000    2.400    0.000    0.000 
#    7.200    0.000    0.000    0.000    0.000    0.000 
#    0.000    0.000    0.000    0.000    0.000    0.000 
#
# Total GULP energy -111351.113053 kJ/mol
# GULP energy per Si atom -5567.555653 kJ/mol
# Density = 1.810503 g / cm^3
# Si number density = 18.146335 Si / 1000 Ang^3
#
#
#
# Elastic Constant Matrix: (Units=GPa)
#
#
# Indices 1 2 3 4 5 6 
#
# 1 106.5992 56.7679 -3.6186 0.0000 0.0000 0.0000
# 2 56.7679 112.0673 18.0987 0.0000 0.0000 0.0000
# 3 -3.6186 18.0987 47.6630 0.0000 0.0000 0.0000
# 4 0.0000 0.0000 0.0000 11.1825 0.0000 0.0000
# 5 0.0000 0.0000 0.0000 0.0000 27.0992 0.0000
# 6 0.0000 0.0000 0.0000 0.0000 0.0000 30.9020
#
#
#
# Elastic Compliance Matrix: (Units=1/GPa)
#
#
# Indices 1 2 3 4 5 6 
#
# 1 0.013479 -0.007450 0.003852 0.000000 0.000000 0.000000
# 2 -0.007450 0.013624 -0.005739 0.000000 0.000000 0.000000
# 3 0.003852 -0.005739 0.023452 0.000000 0.000000 0.000000
# 4 0.000000 0.000000 0.000000 0.089426 0.000000 0.000000
# 5 0.000000 0.000000 0.000000 0.000000 0.036901 0.000000
# 6 0.000000 0.000000 0.000000 0.000000 0.000000 0.032360
#
#
# Mechanical properties :
#
#
# Convention : Reuss Voigt Hill
#
# Bulk Modulus (GPa) = 31.36569 45.42507 38.39538
# Shear Modulus (GPa) = 20.96056 26.84218 23.90137
#
# Velocity S-wave (km/s) = 3.40234 3.85022 3.63319
# Velocity P-wave (km/s) = 5.72337 6.69721 6.22935
#
# Compressibility (1/GPa) = 0.03188197
#
# Stress axis : x y z
#
# Youngs Moduli (GPa) = 74.18904 73.40081 42.63980
#
# Poissons Ratio (x) = 0.54683 -0.16426
# Poissons Ratio (y) = 0.55271 0.24470
# Poissons Ratio (z) = -0.28580 0.42124
#
# Static dielectric constant tensor:
#      x y z
#    x 1.633810 0.000000 0.000000 
#    y 0.000000 1.654790 0.000000 
#    z 0.000000 0.000000 1.618550 
# 
# From -- ./inp_files/26371.got.cif
#   From: 2010.05.17/outbox.cif.g08.bks.cpg/sg24_14_cif.got.tgz:26371.got - 2010.06.04 00:33:39.
