data_PCOD9333518
_publ_section_title
;
Structure prediction by ZEFSAII (Michael W. Deem and Ramdas Pophale) SiO2 
 PCOD9333518
Probable space group: I 21 21 21
;
_chemical_formula_sum "Si O2"
_cell_formula_units_Z 56
_cell_length_a 14.733326
_cell_length_b 22.889443
_cell_length_c 8.856264
_cell_angle_alpha 90.000000
_cell_angle_beta 90.000000
_cell_angle_gamma 90.000000
_cell_volume 2986.665444
_symmetry_space_group_name_H-M "I 21 21 21"
_symmetry_group_IT_number 24
_symmetry_cell_setting 'orthorhombic'
loop_
_space_group_symop_operation_xyz
x,y,z
-x,1/2-y,z
x,-y,1/2-z
1/2-x,y,-z
1/2+x,1/2+y,1/2+z
1/2-x,-y,1/2+z
1/2+x,1/2-y,-z
-x,1/2+y,1/2-z
loop_
_atom_site_type_symbol
_atom_site_label
_atom_site_fract_x
_atom_site_fract_y
_atom_site_fract_z
Si Si1 0.539904 0.383635 0.065763
Si Si2 0.345455 0.780847 0.566838
Si Si3 0.842766 0.847012 0.928873
Si Si4 0.956409 0.616377 0.928416
Si Si5 0.350292 0.999374 0.432130
Si Si6 0.897546 0.730786 0.099429
Si Si7 0.344374 0.651466 0.431275
O O1 0.550301 0.376197 0.246971
O O2 0.595972 0.440935 0.021428
O O3 0.432664 0.387010 0.034059
O O4 0.579080 0.326735 0.983758
O O5 0.250000 0.802095 0.500000
O O6 0.342256 0.776446 0.747058
O O7 0.360785 0.716304 0.498892
O O8 0.834565 0.843706 0.748737
O O9 0.936055 0.881304 0.965294
O O10 0.750000 0.871073 0.000000
O O11 0.858077 0.782338 0.996846
O O12 0.908145 0.556564 0.974428
O O13 0.907973 0.670909 0.008246
O O14 0.250000 0.000737 0.500000
O O15 0.343679 0.000000 0.250000
O O16 0.000000 0.750000 0.143400
O O17 0.250000 0.629651 0.500000
#
# Coordination Sequence:
#
# PCOD9333518 Si02
#       7
#     8   8   8   8   8   8   8
#     4  10  20  37  56  76 108 142 177 220 265 314
#     4  11  21  32  51  81 112 142 177 217 266 317
#     4  10  19  34  55  79 109 140 175 218 265 317
#     4   9  21  37  55  78 105 142 180 219 266 314
#     4  10  22  40  59  79 104 138 178 218 261 310
#     4  10  20  34  53  79 110 143 179 220 266 316
#     4  10  20  34  54  80 108 141 176 214 265 320
#
# _framework density 18.750008999999999
#
# number of rings (size 3 to 8) (size 9 to 14) (size 15 to 20)
#    0.000    2.000    0.000    4.286    0.000    7.429 
#    0.000    0.714    0.000    0.000    0.000    0.000 
#    0.000    0.000    0.000    0.000    0.000    0.000 
#
# Total GULP energy -156385.770032 kJ/mol
# GULP energy per Si atom -5585.206073 kJ/mol
# Density = 1.870733 g / cm^3
# Si number density = 18.750009 Si / 1000 Ang^3
#
#
#
# Elastic Constant Matrix: (Units=GPa)
#
#
# Indices 1 2 3 4 5 6 
#
# 1 157.5223 59.5836 56.2999 0.0000 0.0000 0.0000
# 2 59.5836 76.0555 26.7704 0.0001 0.0000 0.0000
# 3 56.2999 26.7704 59.0195 0.0007 0.0001 0.0000
# 4 0.0000 0.0001 0.0007 11.6473 0.0000 0.0000
# 5 0.0000 0.0000 0.0001 0.0000 37.3134 0.0000
# 6 0.0000 0.0000 0.0000 0.0000 0.0000 28.0110
#
#
#
# Elastic Compliance Matrix: (Units=1/GPa)
#
#
# Indices 1 2 3 4 5 6 
#
# 1 0.011671 -0.006217 -0.008313 0.000001 0.000000 0.000000
# 2 -0.006217 0.018958 -0.002668 0.000000 0.000000 0.000000
# 3 -0.008313 -0.002668 0.026084 -0.000002 0.000000 0.000000
# 4 0.000001 0.000000 -0.000002 0.085857 0.000000 0.000000
# 5 0.000000 0.000000 0.000000 0.000000 0.026800 0.000000
# 6 0.000000 0.000000 0.000000 0.000000 0.000000 0.035700
#
#
# Mechanical properties :
#
#
# Convention : Reuss Voigt Hill
#
# Bulk Modulus (GPa) = 44.81166 64.21167 54.51166
# Shear Modulus (GPa) = 20.25047 25.39057 22.82052
#
# Velocity S-wave (km/s) = 3.28994 3.68389 3.49247
# Velocity P-wave (km/s) = 6.19540 7.23984 6.73789
#
# Compressibility (1/GPa) = 0.02231562
#
# Stress axis : x y z
#
# Youngs Moduli (GPa) = 85.67968 52.74719 38.33740
#
# Poissons Ratio (x) = 0.32795 0.31872
# Poissons Ratio (y) = 0.53271 0.10230
# Poissons Ratio (z) = 0.71229 0.14075
#
# Static dielectric constant tensor:
#      x y z
#    x 1.678330 0.000000 0.000000 
#    y 0.000000 1.612110 0.000000 
#    z 0.000000 0.000000 1.633510 
# 
# From -- ./inp_files/13116.got.cif
#   From: 2010.05.17/outbox.cif.g08.bks.cpg/sg24_7_cif.got.tgz:13116.got - 2010.06.04 00:33:39.
