data_PCOD9333502
_publ_section_title
;
Structure prediction by ZEFSAII (Michael W. Deem and Ramdas Pophale) SiO2 
 PCOD9333502
Probable space group: I 21 21 21
;
_chemical_formula_sum "Si O2"
_cell_formula_units_Z 48
_cell_length_a 16.622101
_cell_length_b 12.494006
_cell_length_c 11.151974
_cell_angle_alpha 90.000000
_cell_angle_beta 90.000000
_cell_angle_gamma 90.000000
_cell_volume 2316.004374
_symmetry_space_group_name_H-M "I 21 21 21"
_symmetry_group_IT_number 24
_symmetry_cell_setting 'orthorhombic'
loop_
_space_group_symop_operation_xyz
x,y,z
-x,1/2-y,z
x,-y,1/2-z
1/2-x,y,-z
1/2+x,1/2+y,1/2+z
1/2-x,-y,1/2+z
1/2+x,1/2-y,-z
-x,1/2+y,1/2-z
loop_
_atom_site_type_symbol
_atom_site_label
_atom_site_fract_x
_atom_site_fract_y
_atom_site_fract_z
Si Si1 0.858815 0.372005 0.761812
Si Si2 0.402332 0.759188 0.016182
Si Si3 0.448514 0.145981 0.003947
Si Si4 0.792959 0.731857 0.385335
Si Si5 0.554206 0.556498 0.860587
Si Si6 0.620567 0.116122 0.696054
O O1 0.856397 0.500000 0.750000
O O2 0.869847 0.299785 0.643107
O O3 0.932237 0.352621 0.854505
O O4 0.776590 0.333884 0.821762
O O5 0.500000 0.750000 0.028197
O O6 0.391035 0.859467 0.927160
O O7 0.366449 0.657768 0.942001
O O8 0.500000 0.250000 0.971002
O O9 0.361579 0.158816 0.943284
O O10 0.479160 0.032332 0.954085
O O11 0.750000 0.789706 0.500000
O O12 0.837032 0.804591 0.288066
O O13 0.596743 0.500000 0.750000
O O14 0.477091 0.615406 0.801780
O O15 0.643529 0.000000 0.750000
#
# Coordination Sequence:
#
# PCOD9333502 Si02
#       6
#     8   8   8   8   8   8
#     4  11  23  43  64  97 140 181 221 279 362 433
#     4  10  21  39  64  99 134 168 232 291 344 417
#     4  11  21  39  69  95 129 178 226 294 344 403
#     4  10  24  43  62  93 137 174 222 275 353 429
#     4  10  19  33  63  98 125 163 222 286 343 398
#     4  10  21  40  63  91 129 174 226 287 337 408
#
# _framework density 20.725349000000001
#
# number of rings (size 3 to 8) (size 9 to 14) (size 15 to 20)
#    0.000    1.667    1.667    3.500    0.000    5.333 
#    6.000    0.000    0.000    0.000    0.000    0.000 
#    0.000    0.000    0.000    0.000    0.000    0.000 
#
# Total GULP energy -133779.211698 kJ/mol
# GULP energy per Si atom -5574.133821 kJ/mol
# Density = 2.067818 g / cm^3
# Si number density = 20.725349 Si / 1000 Ang^3
#
#
#
# Elastic Constant Matrix: (Units=GPa)
#
#
# Indices 1 2 3 4 5 6 
#
# 1 57.7595 25.2437 44.4266 0.0000 0.0000 0.0000
# 2 25.2437 103.3272 55.1021 0.0000 0.0000 0.0000
# 3 44.4266 55.1021 147.1114 0.0000 0.0000 0.0000
# 4 0.0000 0.0000 0.0000 35.0405 0.0000 0.0000
# 5 0.0000 0.0000 0.0000 0.0000 36.9840 0.0000
# 6 0.0000 0.0000 0.0000 0.0000 0.0000 15.9449
#
#
#
# Elastic Compliance Matrix: (Units=1/GPa)
#
#
# Indices 1 2 3 4 5 6 
#
# 1 0.023016 -0.002395 -0.006054 0.000000 0.000000 0.000000
# 2 -0.002395 0.012343 -0.003900 0.000000 0.000000 0.000000
# 3 -0.006054 -0.003900 0.010087 0.000000 0.000000 0.000000
# 4 0.000000 0.000000 0.000000 0.028538 0.000000 0.000000
# 5 0.000000 0.000000 0.000000 0.000000 0.027039 0.000000
# 6 0.000000 0.000000 0.000000 0.000000 0.000000 0.062716
#
#
# Mechanical properties :
#
#
# Convention : Reuss Voigt Hill
#
# Bulk Modulus (GPa) = 48.19591 61.97145 55.08368
# Shear Modulus (GPa) = 25.59489 29.82226 27.70858
#
# Velocity S-wave (km/s) = 3.51801 3.79743 3.66039
# Velocity P-wave (km/s) = 6.30927 7.01381 6.67085
#
# Compressibility (1/GPa) = 0.02074865
#
# Stress axis : x y z
#
# Youngs Moduli (GPa) = 43.44783 81.01894 99.14228
#
# Poissons Ratio (x) = 0.19402 0.60018
# Poissons Ratio (y) = 0.10405 0.38665
# Poissons Ratio (z) = 0.26302 0.31597
#
# Static dielectric constant tensor:
#      x y z
#    x 1.733410 0.000000 0.000000 
#    y 0.000000 1.847130 0.000000 
#    z 0.000000 0.000000 1.806890 
# 
# From -- ./inp_files/19716.got.cif
#   From: 2010.05.17/outbox.cif.g08.bks.cpg/sg24_10_cif.got.tgz:19716.got - 2010.06.04 00:33:39.
