data_PCOD9333877
_publ_section_title
;
Structure prediction by ZEFSAII (Michael W. Deem and Ramdas Pophale) SiO2 
 PCOD9333877
Probable space group: I 21 21 21
;
_chemical_formula_sum "Si O2"
_cell_formula_units_Z 32
_cell_length_a 16.695936
_cell_length_b 5.079535
_cell_length_c 19.594645
_cell_angle_alpha 90.000000
_cell_angle_beta 90.000000
_cell_angle_gamma 90.000000
_cell_volume 1661.774644
_symmetry_space_group_name_H-M "I 21 21 21"
_symmetry_group_IT_number 24
_symmetry_cell_setting 'orthorhombic'
loop_
_space_group_symop_operation_xyz
x,y,z
-x,1/2-y,z
x,-y,1/2-z
1/2-x,y,-z
1/2+x,1/2+y,1/2+z
1/2-x,-y,1/2+z
1/2+x,1/2-y,-z
-x,1/2+y,1/2-z
loop_
_atom_site_type_symbol
_atom_site_label
_atom_site_fract_x
_atom_site_fract_y
_atom_site_fract_z
Si Si1 0.215046 0.130423 0.922627
Si Si2 0.500000 0.250000 0.701823
Si Si3 0.626616 0.399949 0.592956
Si Si4 0.000000 0.750000 0.491781
Si Si5 0.374316 0.631500 0.046249
O O1 0.292833 0.039827 0.881412
O O2 0.144302 0.913096 0.919688
O O3 0.180724 0.420066 0.915227
O O4 0.250000 0.125437 0.000000
O O5 0.496683 0.500000 0.750000
O O6 0.576351 0.267276 0.652274
O O7 0.566788 0.608008 0.555320
O O8 0.647993 0.189341 0.533472
O O9 0.958228 0.978527 0.536519
#
# Coordination Sequence:
#
# PCOD9333877 Si02
#       5
#     8   4   8   4   8
#     4  10  20  31  50  72  99 130 186 206 276 342
#     4  12  27  40  54  76 104 156 208 239 264 294
#     4  11  23  35  53  71 108 144 187 237 267 312
#     4  12  19  32  50  76 106 142 170 215 274 320
#     4  11  20  32  50  77  98 138 175 216 274 344
#
# _framework density 19.256520999999999
#
# number of rings (size 3 to 8) (size 9 to 14) (size 15 to 20)
#    0.000    1.000    7.500    3.000    0.000    0.000 
#    0.000    0.000    0.000    0.000    0.000    0.000 
#    0.000    0.000    0.000   22.500    0.000    0.000 
#
# Total GULP energy -89215.987941 kJ/mol
# GULP energy per Si atom -5575.999246 kJ/mol
# Density = 1.921269 g / cm^3
# Si number density = 19.256521 Si / 1000 Ang^3
#
#
#
# Elastic Constant Matrix: (Units=GPa)
#
#
# Indices 1 2 3 4 5 6 
#
# 1 79.6361 25.1720 13.8277 0.0000 0.0000 0.0000
# 2 25.1720 122.4706 9.3689 0.0000 0.0000 0.0000
# 3 13.8277 9.3689 29.4964 0.0000 0.0000 0.0000
# 4 0.0000 0.0000 0.0000 12.3687 0.0000 0.0000
# 5 0.0000 0.0000 0.0000 0.0000 11.0534 0.0000
# 6 0.0000 0.0000 0.0000 0.0000 0.0000 45.1347
#
#
#
# Elastic Compliance Matrix: (Units=1/GPa)
#
#
# Indices 1 2 3 4 5 6 
#
# 1 0.014380 -0.002501 -0.005947 0.000000 0.000000 0.000000
# 2 -0.002501 0.008803 -0.001624 0.000000 0.000000 0.000000
# 3 -0.005947 -0.001624 0.037206 0.000000 0.000000 0.000000
# 4 0.000000 0.000000 0.000000 0.080849 0.000000 0.000000
# 5 0.000000 0.000000 0.000000 0.000000 0.090470 0.000000
# 6 0.000000 0.000000 0.000000 0.000000 0.000000 0.022156
#
#
# Mechanical properties :
#
#
# Convention : Reuss Voigt Hill
#
# Bulk Modulus (GPa) = 24.84688 36.48224 30.66456
# Shear Modulus (GPa) = 17.39592 25.92699 21.66146
#
# Velocity S-wave (km/s) = 3.00889 3.67331 3.35758
# Velocity P-wave (km/s) = 5.00023 6.08091 5.56686
#
# Compressibility (1/GPa) = 0.04024650
#
# Stress axis : x y z
#
# Youngs Moduli (GPa) = 69.54023 113.59213 26.87731
#
# Poissons Ratio (x) = 0.28406 0.15984
# Poissons Ratio (y) = 0.17390 0.04365
# Poissons Ratio (z) = 0.41356 0.18446
#
# Static dielectric constant tensor:
#      x y z
#    x 1.798930 0.000000 0.000000 
#    y 0.000000 1.745300 0.000000 
#    z 0.000000 0.000000 1.625990 
# 
# From -- ./inp_files/27312.got.cif
#   From: 2010.05.17/outbox.cif.g08.bks.cpg/sg24_14_cif.got.tgz:27312.got - 2010.06.04 00:33:39.
