data_PCOD9333457
_publ_section_title
;
Structure prediction by ZEFSAII (Michael W. Deem and Ramdas Pophale) SiO2 
 PCOD9333457
Probable space group: I 21 21 21
;
_chemical_formula_sum "Si O2"
_cell_formula_units_Z 60
_cell_length_a 5.024871
_cell_length_b 20.527625
_cell_length_c 28.842919
_cell_angle_alpha 90.000000
_cell_angle_beta 90.000000
_cell_angle_gamma 90.000000
_cell_volume 2975.108663
_symmetry_space_group_name_H-M "I 21 21 21"
_symmetry_group_IT_number 24
_symmetry_cell_setting 'orthorhombic'
loop_
_space_group_symop_operation_xyz
x,y,z
-x,1/2-y,z
x,-y,1/2-z
1/2-x,y,-z
1/2+x,1/2+y,1/2+z
1/2-x,-y,1/2+z
1/2+x,1/2-y,-z
-x,1/2+y,1/2-z
loop_
_atom_site_type_symbol
_atom_site_label
_atom_site_fract_x
_atom_site_fract_y
_atom_site_fract_z
Si Si1 0.000000 0.250000 0.279707
Si Si2 0.681527 0.028342 0.451939
Si Si3 0.849868 0.378742 0.111919
Si Si4 0.365680 0.621018 0.451551
Si Si5 0.155585 0.809849 0.698003
Si Si6 0.571187 0.575730 0.241873
Si Si7 0.574842 0.889270 0.810969
Si Si8 0.197529 0.028126 0.391151
O O1 0.780143 0.276627 0.243829
O O2 0.075533 0.311339 0.310848
O O3 0.750000 0.063528 0.500000
O O4 0.464048 0.054412 0.415749
O O5 0.966473 0.021193 0.428785
O O6 0.572133 0.955380 0.462576
O O7 0.630464 0.354243 0.074305
O O8 0.849880 0.337340 0.158848
O O9 0.765784 0.453279 0.125839
O O10 0.131995 0.377645 0.086470
O O11 0.250000 0.649155 0.500000
O O12 0.996321 0.872786 0.717706
O O13 0.000000 0.750000 0.675490
O O14 0.535567 0.500000 0.250000
O O15 0.881749 0.588964 0.231454
O O16 0.376185 0.590441 0.198966
O O17 0.431515 0.924930 0.853174
#
# Coordination Sequence:
#
# PCOD9333457 Si02
#       8
#     4   8   8   8   8   8   8   8
#     4  10  24  42  58  80 112 160 204 234 294 348
#     4   9  17  31  53  82 120 149 177 222 289 354
#     4  10  21  32  58  84 112 145 192 242 289 344
#     4   9  18  34  54  83 114 147 182 232 298 355
#     4  11  23  40  58  82 113 154 203 243 287 355
#     4  11  23  38  59  83 113 151 193 250 310 346
#     4  11  22  38  58  81 117 151 195 244 288 355
#     4  10  19  33  52  87 115 146 185 236 287 337
#
# _framework density 20.167328999999999
#
# number of rings (size 3 to 8) (size 9 to 14) (size 15 to 20)
#    0.000    1.867    1.333    2.800    1.867    6.400 
#    0.000    0.000    0.000    1.600    0.000    1.867 
#    0.000    0.000    0.000    0.000    0.000    0.000 
#
# Total GULP energy -167233.567504 kJ/mol
# GULP energy per Si atom -5574.452250 kJ/mol
# Density = 2.012143 g / cm^3
# Si number density = 20.167329 Si / 1000 Ang^3
#
#
#
# Elastic Constant Matrix: (Units=GPa)
#
#
# Indices 1 2 3 4 5 6 
#
# 1 70.5616 9.9569 2.7262 0.0000 0.0000 0.0000
# 2 9.9569 88.6868 19.3562 0.0000 0.0000 0.0000
# 3 2.7262 19.3562 56.8259 0.0000 0.0000 0.0000
# 4 0.0000 0.0000 0.0000 -3.1239 0.0000 0.0000
# 5 0.0000 0.0000 0.0000 0.0000 21.2151 0.0000
# 6 0.0000 0.0000 0.0000 0.0000 0.0000 13.1992
#
#
#
# Elastic Compliance Matrix: (Units=1/GPa)
#
#
# Indices 1 2 3 4 5 6 
#
# 1 0.014401 -0.001584 -0.000151 0.000000 0.000000 0.000000
# 2 -0.001584 0.012355 -0.004133 0.000000 0.000000 0.000000
# 3 -0.000151 -0.004133 0.019013 0.000000 0.000000 0.000000
# 4 0.000000 0.000000 0.000000 -0.320108 0.000000 0.000000
# 5 0.000000 0.000000 0.000000 0.000000 0.047136 0.000000
# 6 0.000000 0.000000 0.000000 0.000000 0.000000 0.075762
#
#
# Mechanical properties :
#
#
# Convention : Reuss Voigt Hill
#
# Bulk Modulus (GPa) = 29.38264 31.12812 30.25538
# Shear Modulus (GPa) = -38.95301 18.52707 -10.21297
#
# Velocity S-wave (km/s) = -4.39964 3.03424 -2.25280
# Velocity P-wave (km/s) = 3.34784 5.26725 2.87540
#
# Compressibility (1/GPa) = 0.03403371
#
# Stress axis : x y z
#
# Youngs Moduli (GPa) = 69.43790 80.93636 52.59694
#
# Poissons Ratio (x) = 0.12819 0.00796
# Poissons Ratio (y) = 0.10998 0.21736
# Poissons Ratio (z) = 0.01051 0.33447
#
# Static dielectric constant tensor:
#      x y z
#    x 2.132310 0.000000 0.000000 
#    y 0.000000 1.777830 0.000000 
#    z 0.000000 0.000000 1.787800 
# 
# From -- ./inp_files/36581.got.cif
#   From: 2010.05.17/outbox.cif.g08.bks.cpg/sg24_19_cif.got.tgz:36581.got - 2010.06.04 00:33:39.
