data_PCOD9333648
_publ_section_title
;
Structure prediction by ZEFSAII (Michael W. Deem and Ramdas Pophale) SiO2 
 PCOD9333648
Probable space group: I 21 21 21
;
_chemical_formula_sum "Si O2"
_cell_formula_units_Z 40
_cell_length_a 12.626983
_cell_length_b 12.316238
_cell_length_c 12.458375
_cell_angle_alpha 90.000000
_cell_angle_beta 90.000000
_cell_angle_gamma 90.000000
_cell_volume 1937.488206
_symmetry_space_group_name_H-M "I 21 21 21"
_symmetry_group_IT_number 24
_symmetry_cell_setting 'orthorhombic'
loop_
_space_group_symop_operation_xyz
x,y,z
-x,1/2-y,z
x,-y,1/2-z
1/2-x,y,-z
1/2+x,1/2+y,1/2+z
1/2-x,-y,1/2+z
1/2+x,1/2-y,-z
-x,1/2+y,1/2-z
loop_
_atom_site_type_symbol
_atom_site_label
_atom_site_fract_x
_atom_site_fract_y
_atom_site_fract_z
Si Si1 0.264051 0.197706 0.386776
Si Si2 0.909269 0.474954 0.369809
Si Si3 0.126297 0.280005 0.828442
Si Si4 0.097907 0.500000 0.750000
Si Si5 0.750000 0.365881 0.000000
Si Si6 0.021052 0.878728 0.936961
O O1 0.250000 0.262137 0.500000
O O2 0.157340 0.136889 0.358055
O O3 0.315908 0.250039 0.283517
O O4 0.352858 0.109169 0.418989
O O5 0.945918 0.500000 0.250000
O O6 0.829671 0.564213 0.422662
O O7 0.000296 0.446464 0.455744
O O8 0.147193 0.409588 0.828959
O O9 0.000000 0.250000 0.827448
O O10 0.179170 0.209686 0.922174
O O11 0.031720 0.573281 0.832316
O O12 0.000000 0.750000 0.948989
#
# Coordination Sequence:
#
# PCOD9333648 Si02
#       6
#     8   8   8   4   4   8
#     4  10  19  35  63  96 118 159 208 270 306 375
#     4  11  22  36  65  92 124 162 206 269 325 368
#     4  12  24  40  66  94 128 170 217 272 319 388
#     4  12  22  38  64  88 130 164 214 260 320 380
#     4  12  24  40  62  98 130 160 226 264 318 382
#     4  11  21  37  61  97 121 159 216 261 313 384
#
# _framework density 20.645287
#
# number of rings (size 3 to 8) (size 9 to 14) (size 15 to 20)
#    0.000    0.800    9.000    1.200    1.400    0.000 
#    1.800    3.000    0.000    0.000    0.000    0.000 
#    0.000    0.000    0.000    0.000    0.000    0.000 
#
# Total GULP energy -111339.979334 kJ/mol
# GULP energy per Si atom -5566.998967 kJ/mol
# Density = 2.059830 g / cm^3
# Si number density = 20.645287 Si / 1000 Ang^3
#
#
#
# Elastic Constant Matrix: (Units=GPa)
#
#
# Indices 1 2 3 4 5 6 
#
# 1 37.9680 18.9144 34.1958 0.0000 0.0000 0.0000
# 2 18.9144 102.5686 54.6877 0.0000 0.0000 0.0000
# 3 34.1958 54.6877 166.0439 0.0000 0.0000 0.0000
# 4 0.0000 0.0000 0.0000 42.0689 0.0000 0.0000
# 5 0.0000 0.0000 0.0000 0.0000 30.9891 0.0000
# 6 0.0000 0.0000 0.0000 0.0000 0.0000 16.8015
#
#
#
# Elastic Compliance Matrix: (Units=1/GPa)
#
#
# Indices 1 2 3 4 5 6 
#
# 1 0.033076 -0.002993 -0.005826 0.000000 0.000000 0.000000
# 2 -0.002993 0.012097 -0.003368 0.000000 0.000000 0.000000
# 3 -0.005826 -0.003368 0.008332 0.000000 0.000000 0.000000
# 4 0.000000 0.000000 0.000000 0.023771 0.000000 0.000000
# 5 0.000000 0.000000 0.000000 0.000000 0.032269 0.000000
# 6 0.000000 0.000000 0.000000 0.000000 0.000000 0.059519
#
#
# Mechanical properties :
#
#
# Convention : Reuss Voigt Hill
#
# Bulk Modulus (GPa) = 34.32785 58.01959 46.17372
# Shear Modulus (GPa) = 24.61259 31.22407 27.91833
#
# Velocity S-wave (km/s) = 3.45652 3.89319 3.68133
# Velocity P-wave (km/s) = 5.70908 6.95509 6.36266
#
# Compressibility (1/GPa) = 0.02913087
#
# Stress axis : x y z
#
# Youngs Moduli (GPa) = 30.23317 82.66356 120.02529
#
# Poissons Ratio (x) = 0.24743 0.69927
# Poissons Ratio (y) = 0.09049 0.40423
# Poissons Ratio (z) = 0.17614 0.27840
#
# Static dielectric constant tensor:
#      x y z
#    x 1.770830 0.000000 0.000000 
#    y 0.000000 1.814500 0.000000 
#    z 0.000000 0.000000 1.853560 
# 
# From -- ./inp_files/19454.got.cif
#   From: 2010.05.17/outbox.cif.g08.bks.cpg/sg24_10_cif.got.tgz:19454.got - 2010.06.04 00:33:39.
