data_PCOD9333325
_publ_section_title
;
Structure prediction by ZEFSAII (Michael W. Deem and Ramdas Pophale) SiO2 
 PCOD9333325
Probable space group: I 21 21 21
;
_chemical_formula_sum "Si O2"
_cell_formula_units_Z 40
_cell_length_a 13.166186
_cell_length_b 14.049803
_cell_length_c 10.014131
_cell_angle_alpha 90.000000
_cell_angle_beta 90.000000
_cell_angle_gamma 90.000000
_cell_volume 1852.437181
_symmetry_space_group_name_H-M "I 21 21 21"
_symmetry_group_IT_number 24
_symmetry_cell_setting 'orthorhombic'
loop_
_space_group_symop_operation_xyz
x,y,z
-x,1/2-y,z
x,-y,1/2-z
1/2-x,y,-z
1/2+x,1/2+y,1/2+z
1/2-x,-y,1/2+z
1/2+x,1/2-y,-z
-x,1/2+y,1/2-z
loop_
_atom_site_type_symbol
_atom_site_label
_atom_site_fract_x
_atom_site_fract_y
_atom_site_fract_z
Si Si1 0.500000 0.250000 0.754326
Si Si2 0.825046 0.000000 0.250000
Si Si3 0.280579 0.304092 0.647811
Si Si4 0.839663 0.243729 0.898131
Si Si5 0.023076 0.408323 0.037340
Si Si6 0.345148 0.030222 0.094855
O O1 0.398287 0.277986 0.675905
O O2 0.528069 0.338243 0.851482
O O3 0.764432 0.085459 0.315892
O O4 0.891783 0.042196 0.129320
O O5 0.250000 0.280533 0.500000
O O6 0.205884 0.255082 0.751219
O O7 0.859664 0.355326 0.918821
O O8 0.750000 0.217076 0.000000
O O9 0.924484 0.164530 0.931003
O O10 0.953649 0.491904 0.973983
O O11 0.334437 0.000000 0.250000
O O12 0.250000 0.002242 0.000000
#
# Coordination Sequence:
#
# PCOD9333325 Si02
#       6
#     4   4   8   8   8   8
#     4  10  18  44  68  90 128 180 216 252 340 416
#     4  10  24  38  70  98 128 168 216 286 336 388
#     4  11  25  41  66 100 135 170 217 282 338 392
#     4  11  20  44  74  92 125 182 220 266 334 407
#     4  11  21  43  71  95 127 175 228 271 334 400
#     4  11  25  43  66  97 131 178 226 273 323 400
#
# _framework density 21.593174999999999
#
# number of rings (size 3 to 8) (size 9 to 14) (size 15 to 20)
#    0.000    1.200    6.000    1.200    4.200    2.400 
#   10.800    0.000    0.000    0.000    0.000    0.000 
#    0.000    0.000    0.000    0.000    0.000    0.000 
#
# Total GULP energy -111526.441706 kJ/mol
# GULP energy per Si atom -5576.322085 kJ/mol
# Density = 2.154403 g / cm^3
# Si number density = 21.593175 Si / 1000 Ang^3
#
#
#
# Elastic Constant Matrix: (Units=GPa)
#
#
# Indices 1 2 3 4 5 6 
#
# 1 77.8793 -0.9843 55.6824 0.0000 0.0000 0.0000
# 2 -0.9843 14.9987 -14.2877 0.0000 0.0000 0.0000
# 3 55.6824 -14.2877 163.8425 0.0000 0.0000 0.0000
# 4 0.0000 0.0000 0.0000 42.6473 0.0000 0.0000
# 5 0.0000 0.0000 0.0000 0.0000 -9.6883 0.0000
# 6 0.0000 0.0000 0.0000 0.0000 0.0000 28.7816
#
#
#
# Elastic Compliance Matrix: (Units=1/GPa)
#
#
# Indices 1 2 3 4 5 6 
#
# 1 0.017281 -0.004865 -0.006297 0.000000 0.000000 0.000000
# 2 -0.004865 0.074082 0.008114 0.000000 0.000000 0.000000
# 3 -0.006297 0.008114 0.008951 0.000000 0.000000 0.000000
# 4 0.000000 0.000000 0.000000 0.023448 0.000000 0.000000
# 5 0.000000 0.000000 0.000000 0.000000 -0.103217 0.000000
# 6 0.000000 0.000000 0.000000 0.000000 0.000000 0.034744
#
#
# Mechanical properties :
#
#
# Convention : Reuss Voigt Hill
#
# Bulk Modulus (GPa) = 10.61373 37.50457 24.05915
# Shear Modulus (GPa) = 53.88344 26.76878 40.32611
#
# Velocity S-wave (km/s) = 5.00081 3.52474 4.32619
# Velocity P-wave (km/s) = 6.18628 5.82850 6.01006
#
# Compressibility (1/GPa) = 0.09421758
#
# Stress axis : x y z
#
# Youngs Moduli (GPa) = 57.86566 13.49854 111.71761
#
# Poissons Ratio (x) = 0.06567 0.70353
# Poissons Ratio (y) = 0.28150 -0.90643
# Poissons Ratio (z) = 0.36440 -0.10952
#
# Static dielectric constant tensor:
#      x y z
#    x 1.805520 0.000000 0.000000 
#    y 0.000000 1.886350 0.000000 
#    z 0.000000 0.000000 1.724660 
# 
# From -- ./inp_files/12350.got.cif
#   From: 2010.05.17/outbox.cif.g08.bks.cpg/sg24_7_cif.got.tgz:12350.got - 2010.06.04 00:33:39.
