data_PCOD9333828
_publ_section_title
;
Structure prediction by ZEFSAII (Michael W. Deem and Ramdas Pophale) SiO2 
 PCOD9333828
Probable space group: I 21 21 21
;
_chemical_formula_sum "Si O2"
_cell_formula_units_Z 40
_cell_length_a 7.060308
_cell_length_b 14.677775
_cell_length_c 17.370079
_cell_angle_alpha 90.000000
_cell_angle_beta 90.000000
_cell_angle_gamma 90.000000
_cell_volume 1800.054552
_symmetry_space_group_name_H-M "I 21 21 21"
_symmetry_group_IT_number 24
_symmetry_cell_setting 'orthorhombic'
loop_
_space_group_symop_operation_xyz
x,y,z
-x,1/2-y,z
x,-y,1/2-z
1/2-x,y,-z
1/2+x,1/2+y,1/2+z
1/2-x,-y,1/2+z
1/2+x,1/2-y,-z
-x,1/2+y,1/2-z
loop_
_atom_site_type_symbol
_atom_site_label
_atom_site_fract_x
_atom_site_fract_y
_atom_site_fract_z
Si Si1 0.099883 0.500000 0.250000
Si Si2 0.750000 0.878660 0.000000
Si Si3 0.101812 0.048710 0.405886
Si Si4 0.750000 0.391449 0.000000
Si Si5 0.000000 0.750000 0.575688
Si Si6 0.794794 0.201545 0.206268
Si Si7 0.770397 0.736124 0.125711
O O1 0.201098 0.408075 0.219328
O O2 0.978817 0.461459 0.320596
O O3 0.685605 0.811078 0.068798
O O4 0.925172 0.934060 0.036080
O O5 0.245477 0.133679 0.404562
O O6 0.203821 0.957041 0.429487
O O7 0.572348 0.330404 0.021880
O O8 0.830074 0.777261 0.632310
O O9 0.718219 0.245576 0.286115
O O10 0.000000 0.250000 0.195857
O O11 0.000000 0.750000 0.122116
#
# Coordination Sequence:
#
# PCOD9333828 Si02
#       7
#     4   4   8   4   4   8   8
#     4  12  22  42  82 100 144 198 242 306 372 442
#     4  10  19  39  70 106 144 188 230 289 373 432
#     4  11  24  44  72 108 144 194 242 303 374 441
#     4  12  31  49  72 106 144 196 254 309 371 450
#     4  12  32  52  72 106 146 198 252 310 364 448
#     4  11  23  50  73 109 147 192 244 302 373 436
#     4   9  18  41  68 105 148 186 227 301 373 419
#
# _framework density 22.221546
#
# number of rings (size 3 to 8) (size 9 to 14) (size 15 to 20)
#    0.000    1.200    6.000    1.800    7.000    0.000 
#   12.600    0.000    0.000    0.000    0.000    0.000 
#    0.000    0.000    0.000    0.000    0.000    0.000 
#
# Total GULP energy -111862.243873 kJ/mol
# GULP energy per Si atom -5593.112194 kJ/mol
# Density = 2.217097 g / cm^3
# Si number density = 22.221546 Si / 1000 Ang^3
#
#
#
# Elastic Constant Matrix: (Units=GPa)
#
#
# Indices 1 2 3 4 5 6 
#
# 1 75.2925 31.6973 12.8830 0.0000 0.0000 0.0000
# 2 31.6973 141.0691 5.7034 0.0000 0.0000 0.0000
# 3 12.8830 5.7034 66.3812 0.0000 0.0000 0.0000
# 4 0.0000 0.0000 0.0000 52.7588 0.0000 0.0000
# 5 0.0000 0.0000 0.0000 0.0000 25.8275 0.0000
# 6 0.0000 0.0000 0.0000 0.0000 0.0000 -6.8099
#
#
#
# Elastic Compliance Matrix: (Units=1/GPa)
#
#
# Indices 1 2 3 4 5 6 
#
# 1 0.015120 -0.003290 -0.002652 0.000000 0.000000 0.000000
# 2 -0.003290 0.007829 -0.000034 0.000000 0.000000 0.000000
# 3 -0.002652 -0.000034 0.015582 0.000000 0.000000 0.000000
# 4 0.000000 0.000000 0.000000 0.018954 0.000000 0.000000
# 5 0.000000 0.000000 0.000000 0.000000 0.038718 0.000000
# 6 0.000000 0.000000 0.000000 0.000000 0.000000 -0.146844
#
#
# Mechanical properties :
#
#
# Convention : Reuss Voigt Hill
#
# Bulk Modulus (GPa) = 37.62294 42.59001 40.10647
# Shear Modulus (GPa) = -167.63086 29.85255 -68.88915
#
# Velocity S-wave (km/s) = -8.69482 3.66923 -5.57390
# Velocity P-wave (km/s) = 9.15600 6.09579 4.83082
#
# Compressibility (1/GPa) = 0.02657953
#
# Stress axis : x y z
#
# Youngs Moduli (GPa) = 66.13569 127.72369 64.17624
#
# Poissons Ratio (x) = 0.42024 0.17018
# Poissons Ratio (y) = 0.21760 0.00219
# Poissons Ratio (z) = 0.17538 0.00436
#
# Static dielectric constant tensor:
#      x y z
#    x 1.886010 0.000000 0.000000 
#    y 0.000000 1.825780 0.000000 
#    z 0.000000 0.000000 1.826410 
# 
# From -- ./inp_files/24576.got.cif
#   From: 2010.05.17/outbox.cif.g08.bks.cpg/sg24_13_cif.got.tgz:24576.got - 2010.06.04 00:33:39.
