data_PCOD9333931
_publ_section_title
;
Structure prediction by ZEFSAII (Michael W. Deem and Ramdas Pophale) SiO2 
 PCOD9333931
Probable space group: I 21 21 21
;
_chemical_formula_sum "Si O2"
_cell_formula_units_Z 48
_cell_length_a 4.985177
_cell_length_b 27.837448
_cell_length_c 18.366017
_cell_angle_alpha 90.000000
_cell_angle_beta 90.000000
_cell_angle_gamma 90.000000
_cell_volume 2548.736764
_symmetry_space_group_name_H-M "I 21 21 21"
_symmetry_group_IT_number 24
_symmetry_cell_setting 'orthorhombic'
loop_
_space_group_symop_operation_xyz
x,y,z
-x,1/2-y,z
x,-y,1/2-z
1/2-x,y,-z
1/2+x,1/2+y,1/2+z
1/2-x,-y,1/2+z
1/2+x,1/2-y,-z
-x,1/2+y,1/2-z
loop_
_atom_site_type_symbol
_atom_site_label
_atom_site_fract_x
_atom_site_fract_y
_atom_site_fract_z
Si Si1 0.180441 0.922323 0.577980
Si Si2 0.159492 0.662634 0.083412
Si Si3 0.827549 0.386657 0.765177
Si Si4 0.663575 0.299017 0.333134
Si Si5 0.348026 0.574954 0.817666
Si Si6 0.682753 0.989365 0.578711
O O1 0.250000 0.899245 0.500000
O O2 0.202184 0.889629 0.648616
O O3 0.385018 0.967618 0.582028
O O4 0.884519 0.944563 0.580146
O O5 0.434890 0.673446 0.123596
O O6 0.083949 0.610105 0.113689
O O7 0.925073 0.698191 0.113638
O O8 0.250000 0.665619 0.000000
O O9 0.766813 0.333010 0.735202
O O10 0.613580 0.423485 0.730672
O O11 0.113863 0.403568 0.733291
O O12 0.500000 0.250000 0.314919
O O13 0.272890 0.524776 0.854088
O O14 0.750000 0.013113 0.500000
#
# Coordination Sequence:
#
# PCOD9333931 Si02
#       6
#     8   8   8   8   8   8
#     4  10  21  35  51  74 102 134 172 214 263 310
#     4  10  20  34  52  75 105 139 173 207 246 295
#     4  10  21  35  52  75 100 133 173 214 262 309
#     4  10  21  36  53  75 101 132 170 212 260 307
#     4  10  20  33  51  75 105 139 175 210 247 296
#     4  10  20  33  50  74 106 141 174 209 249 297
#
# _framework density 18.832857000000001
#
# number of rings (size 3 to 8) (size 9 to 14) (size 15 to 20)
#    0.000    2.000    0.000    3.500    0.000    5.333 
#    0.000    5.000    0.000    0.000    0.000   10.500 
#    0.000    0.000    0.000    0.000    0.000    0.000 
#
# Total GULP energy -133696.878473 kJ/mol
# GULP energy per Si atom -5570.703270 kJ/mol
# Density = 1.878999 g / cm^3
# Si number density = 18.832857 Si / 1000 Ang^3
#
#
#
# Elastic Constant Matrix: (Units=GPa)
#
#
# Indices 1 2 3 4 5 6 
#
# 1 86.8886 -0.9707 17.8046 0.0000 0.0000 0.0000
# 2 -0.9707 27.3867 49.3194 0.0000 0.0000 0.0000
# 3 17.8046 49.3194 158.3696 0.0001 0.0000 0.0000
# 4 0.0000 0.0000 0.0001 -185.9359 0.0000 0.0000
# 5 0.0000 0.0000 0.0000 0.0000 28.7459 0.0000
# 6 0.0000 0.0000 0.0000 0.0000 0.0000 12.5081
#
#
#
# Elastic Compliance Matrix: (Units=1/GPa)
#
#
# Indices 1 2 3 4 5 6 
#
# 1 0.012291 0.006658 -0.003455 0.000000 0.000000 0.000000
# 2 0.006658 0.086748 -0.027764 0.000000 0.000000 0.000000
# 3 -0.003455 -0.027764 0.015349 0.000000 0.000000 0.000000
# 4 0.000000 0.000000 0.000000 -0.005378 0.000000 0.000000
# 5 0.000000 0.000000 0.000000 0.000000 0.034788 0.000000
# 6 0.000000 0.000000 0.000000 0.000000 0.000000 0.079948
#
#
# Mechanical properties :
#
#
# Convention : Reuss Voigt Hill
#
# Bulk Modulus (GPa) = 15.32162 44.99461 30.15812
# Shear Modulus (GPa) = 16.97080 -15.17028 0.90026
#
# Velocity S-wave (km/s) = 3.00513 -2.84125 0.69214
# Velocity P-wave (km/s) = 4.49381 3.63040 4.08498
#
# Compressibility (1/GPa) = 0.06526723
#
# Stress axis : x y z
#
# Youngs Moduli (GPa) = 81.35753 11.52758 65.15092
#
# Poissons Ratio (x) = -0.07675 0.22512
# Poissons Ratio (y) = -0.54170 1.80883
# Poissons Ratio (z) = 0.28112 0.32005
#
# Static dielectric constant tensor:
#      x y z
#    x 1.852900 0.000000 0.000000 
#    y 0.000000 1.670170 0.000000 
#    z 0.000000 0.000000 1.722740 
# 
# From -- ./inp_files/28853.got.cif
#   From: 2010.05.17/outbox.cif.g08.bks.cpg/sg24_15_cif.got.tgz:28853.got - 2010.06.04 00:33:39.
