data_PCOD9333635
_publ_section_title
;
Structure prediction by ZEFSAII (Michael W. Deem and Ramdas Pophale) SiO2 
 PCOD9333635
Probable space group: I 21 21 21
;
_chemical_formula_sum "Si O2"
_cell_formula_units_Z 56
_cell_length_a 5.114787
_cell_length_b 15.382060
_cell_length_c 35.063137
_cell_angle_alpha 90.000000
_cell_angle_beta 90.000000
_cell_angle_gamma 90.000000
_cell_volume 2758.625982
_symmetry_space_group_name_H-M "I 21 21 21"
_symmetry_group_IT_number 24
_symmetry_cell_setting 'orthorhombic'
loop_
_space_group_symop_operation_xyz
x,y,z
-x,1/2-y,z
x,-y,1/2-z
1/2-x,y,-z
1/2+x,1/2+y,1/2+z
1/2-x,-y,1/2+z
1/2+x,1/2-y,-z
-x,1/2+y,1/2-z
loop_
_atom_site_type_symbol
_atom_site_label
_atom_site_fract_x
_atom_site_fract_y
_atom_site_fract_z
Si Si1 0.861679 0.500000 0.750000
Si Si2 0.741135 0.687629 0.780439
Si Si3 0.420755 0.568937 0.568963
Si Si4 0.918026 0.435752 0.827218
Si Si5 0.902698 0.846722 0.347592
Si Si6 0.753975 0.691189 0.130417
Si Si7 0.750000 0.191499 0.000000
Si Si8 0.072177 0.024375 0.590794
O O1 0.737538 0.596629 0.757127
O O2 0.005844 0.487388 0.789998
O O3 0.500000 0.750000 0.769970
O O4 0.707457 0.661157 0.825409
O O5 0.000000 0.750000 0.776430
O O6 0.399465 0.623362 0.608287
O O7 0.345844 0.631101 0.534503
O O8 0.714067 0.532447 0.568341
O O9 0.209612 0.490665 0.572039
O O10 0.615008 0.408866 0.827184
O O11 0.958277 0.488387 0.866070
O O12 0.114553 0.355782 0.830871
O O13 0.000000 0.750000 0.344677
O O14 0.500000 0.750000 0.132078
O O15 0.694962 0.617682 0.099390
O O16 0.000000 0.750000 0.120171
O O17 0.500000 0.250000 0.011526
#
# Coordination Sequence:
#
# PCOD9333635 Si02
#       8
#     4   8   8   8   8   8   4   8
#     4  12  24  44  62  84 124 170 202 268 332 376
#     4  10  24  40  59  87 117 154 207 261 317 378
#     4  10  22  36  62  88 124 160 203 243 296 361
#     4  10  23  35  57  80 108 156 204 245 314 369
#     4  10  21  39  57  82 114 153 201 255 298 363
#     4  10  19  35  60  88 115 146 196 263 310 358
#     4  12  24  40  62  96 132 170 208 244 298 350
#     4  10  19  39  56  89 117 154 203 254 299 366
#
# _framework density 20.299962000000001
#
# number of rings (size 3 to 8) (size 9 to 14) (size 15 to 20)
#    0.000    1.714    1.429    2.571    0.000    7.429 
#    0.000    0.000    0.000    0.000    0.000   10.000 
#    0.000    0.000    0.000    0.000    0.000    0.000 
#
# Total GULP energy -156193.948274 kJ/mol
# GULP energy per Si atom -5578.355296 kJ/mol
# Density = 2.025376 g / cm^3
# Si number density = 20.299962 Si / 1000 Ang^3
#
#
#
# Elastic Constant Matrix: (Units=GPa)
#
#
# Indices 1 2 3 4 5 6 
#
# 1 83.6753 7.8031 17.9952 0.0000 0.0000 0.0000
# 2 7.8031 77.3937 19.4667 0.0000 0.0000 0.0000
# 3 17.9952 19.4667 68.5217 0.0000 0.0000 0.0000
# 4 0.0000 0.0000 0.0000 23.5437 0.0000 0.0000
# 5 0.0000 0.0000 0.0000 0.0000 -0.1242 0.0000
# 6 0.0000 0.0000 0.0000 0.0000 0.0000 25.8817
#
#
#
# Elastic Compliance Matrix: (Units=1/GPa)
#
#
# Indices 1 2 3 4 5 6 
#
# 1 0.012683 -0.000475 -0.003196 0.000000 0.000000 0.000000
# 2 -0.000475 0.013933 -0.003834 0.000000 0.000000 0.000000
# 3 -0.003196 -0.003834 0.016522 0.000000 0.000000 0.000000
# 4 0.000000 0.000000 0.000000 0.042474 0.000000 0.000000
# 5 0.000000 0.000000 0.000000 0.000000 -8.049349 0.000000
# 6 0.000000 0.000000 0.000000 0.000000 0.000000 0.038637
#
#
# Mechanical properties :
#
#
# Convention : Reuss Voigt Hill
#
# Bulk Modulus (GPa) = 35.54999 35.56895 35.55947
# Shear Modulus (GPa) = -0.63285 22.14861 10.75788
#
# Velocity S-wave (km/s) = -0.55895 3.30671 2.30455
# Velocity P-wave (km/s) = 4.13930 5.66911 4.96350
#
# Compressibility (1/GPa) = 0.02812940
#
# Stress axis : x y z
#
# Youngs Moduli (GPa) = 78.84862 71.77162 60.52422
#
# Poissons Ratio (x) = 0.03408 0.19342
# Poissons Ratio (y) = 0.03744 0.23203
# Poissons Ratio (z) = 0.25198 0.27514
#
# Static dielectric constant tensor:
#      x y z
#    x 1.716100 0.000000 0.000000 
#    y 0.000000 1.747560 0.000000 
#    z 0.000000 0.000000 1.727530 
# 
# From -- ./inp_files/37939.got.cif
#   From: 2010.05.17/outbox.cif.g08.bks.cpg/sg24_19_cif.got.tgz:37939.got - 2010.06.04 00:33:39.
