data_PCOD9333639
_publ_section_title
;
Structure prediction by ZEFSAII (Michael W. Deem and Ramdas Pophale) SiO2 
 PCOD9333639
Probable space group: I 21 21 21
;
_chemical_formula_sum "Si O2"
_cell_formula_units_Z 40
_cell_length_a 24.765171
_cell_length_b 5.188232
_cell_length_c 16.600351
_cell_angle_alpha 90.000000
_cell_angle_beta 90.000000
_cell_angle_gamma 90.000000
_cell_volume 2132.936813
_symmetry_space_group_name_H-M "I 21 21 21"
_symmetry_group_IT_number 24
_symmetry_cell_setting 'orthorhombic'
loop_
_space_group_symop_operation_xyz
x,y,z
-x,1/2-y,z
x,-y,1/2-z
1/2-x,y,-z
1/2+x,1/2+y,1/2+z
1/2-x,-y,1/2+z
1/2+x,1/2-y,-z
-x,1/2+y,1/2-z
loop_
_atom_site_type_symbol
_atom_site_label
_atom_site_fract_x
_atom_site_fract_y
_atom_site_fract_z
Si Si1 0.600458 0.250994 0.692704
Si Si2 0.718873 0.750656 0.807280
Si Si3 0.664455 0.751478 0.192429
Si Si4 0.946760 0.578266 0.843876
Si Si5 0.000000 0.250000 0.426502
Si Si6 0.000000 0.750000 0.536891
O O1 0.598390 0.500000 0.750000
O O2 0.660131 0.243727 0.651835
O O3 0.552566 0.271664 0.629387
O O4 0.594325 0.000000 0.750000
O O5 0.718642 0.500000 0.750000
O O6 0.777053 0.756681 0.851002
O O7 0.719536 0.000000 0.750000
O O8 0.665856 0.500000 0.250000
O O9 0.609737 0.722417 0.141908
O O10 0.659557 0.000000 0.250000
O O11 0.948678 0.500000 0.750000
O O12 0.952248 0.332613 0.901951
O O13 0.000000 0.750000 0.857703
O O14 0.007921 0.503398 0.480638
#
# Coordination Sequence:
#
# PCOD9333639 Si02
#       6
#     8   8   8   8   4   4
#     4  10  19  35  61  85 112 144 187 227 269 333
#     4   8  15  29  49  82 110 134 170 224 276 315
#     4   9  18  29  51  82 110 133 172 231 280 317
#     4  11  21  36  59  80 106 140 188 231 273 326
#     4  12  24  38  54  84 116 152 180 230 282 334
#     4  12  26  38  52  80 116 148 184 228 290 332
#
# _framework density 18.753485000000001
#
# number of rings (size 3 to 8) (size 9 to 14) (size 15 to 20)
#    0.000    2.000    2.000    2.400    2.800    0.000 
#    0.000    0.000    0.000    1.200    5.200    0.000 
#    0.000    0.000    0.000    0.000    0.000    0.000 
#
# Total GULP energy -111394.312523 kJ/mol
# GULP energy per Si atom -5569.715626 kJ/mol
# Density = 1.871080 g / cm^3
# Si number density = 18.753485 Si / 1000 Ang^3
#
#
#
# Elastic Constant Matrix: (Units=GPa)
#
#
# Indices 1 2 3 4 5 6 
#
# 1 222.2712 34.9291 55.1893 0.0000 0.0000 0.0000
# 2 34.9291 144.9381 34.0115 0.0000 0.0000 0.0000
# 3 55.1893 34.0115 60.7589 0.0000 0.0000 0.0000
# 4 0.0000 0.0000 0.0000 29.2235 0.0000 0.0000
# 5 0.0000 0.0000 0.0000 0.0000 -5.8063 0.0000
# 6 0.0000 0.0000 0.0000 0.0000 0.0000 22.5393
#
#
#
# Elastic Compliance Matrix: (Units=1/GPa)
#
#
# Indices 1 2 3 4 5 6 
#
# 1 0.005814 -0.000186 -0.005176 0.000000 0.000000 0.000000
# 2 -0.000186 0.007949 -0.004280 0.000000 0.000000 0.000000
# 3 -0.005176 -0.004280 0.023556 0.000000 0.000000 0.000000
# 4 0.000000 0.000000 0.000000 0.034219 0.000000 0.000000
# 5 0.000000 0.000000 0.000000 0.000000 -0.172225 0.000000
# 6 0.000000 0.000000 0.000000 0.000000 0.000000 0.044367
#
#
# Mechanical properties :
#
#
# Convention : Reuss Voigt Hill
#
# Bulk Modulus (GPa) = 55.45466 75.13644 65.29555
# Shear Modulus (GPa) = -161.16613 29.44719 -65.85947
#
# Velocity S-wave (km/s) = -9.28040 3.96691 -5.93252
# Velocity P-wave (km/s) = 9.23038 7.81883 3.46885
#
# Compressibility (1/GPa) = 0.01803275
#
# Stress axis : x y z
#
# Youngs Moduli (GPa) = 172.01160 125.80464 42.45138
#
# Poissons Ratio (x) = 0.02344 0.21974
# Poissons Ratio (y) = 0.03205 0.18171
# Poissons Ratio (z) = 0.89039 0.53848
#
# Static dielectric constant tensor:
#      x y z
#    x 1.738620 0.000000 0.000000 
#    y 0.000000 1.673980 0.000000 
#    z 0.000000 0.000000 1.608180 
# 
# From -- ./inp_files/27734.got.cif
#   From: 2010.05.17/outbox.cif.g08.bks.cpg/sg24_14_cif.got.tgz:27734.got - 2010.06.04 00:33:39.
