data_PCOD9333677
_publ_section_title
;
Structure prediction by ZEFSAII (Michael W. Deem and Ramdas Pophale) SiO2 
 PCOD9333677
Probable space group: I 21 21 21
;
_chemical_formula_sum "Si O2"
_cell_formula_units_Z 56
_cell_length_a 5.287150
_cell_length_b 26.662617
_cell_length_c 18.478513
_cell_angle_alpha 90.000000
_cell_angle_beta 90.000000
_cell_angle_gamma 90.000000
_cell_volume 2604.902220
_symmetry_space_group_name_H-M "I 21 21 21"
_symmetry_group_IT_number 24
_symmetry_cell_setting 'orthorhombic'
loop_
_space_group_symop_operation_xyz
x,y,z
-x,1/2-y,z
x,-y,1/2-z
1/2-x,y,-z
1/2+x,1/2+y,1/2+z
1/2-x,-y,1/2+z
1/2+x,1/2-y,-z
-x,1/2+y,1/2-z
loop_
_atom_site_type_symbol
_atom_site_label
_atom_site_fract_x
_atom_site_fract_y
_atom_site_fract_z
Si Si1 0.499736 0.190609 0.411903
Si Si2 0.232312 0.390143 0.155256
Si Si3 0.231198 0.069038 0.918695
Si Si4 0.750436 0.783313 0.584933
Si Si5 0.505314 0.351958 0.574878
Si Si6 0.356050 0.550211 0.206272
Si Si7 0.351258 0.956127 0.886249
O O1 0.500000 0.250000 0.404484
O O2 0.498122 0.176169 0.497668
O O3 0.748177 0.162332 0.385455
O O4 0.240842 0.169431 0.381238
O O5 0.451983 0.419056 0.110355
O O6 0.254393 0.331923 0.135421
O O7 0.291556 0.406166 0.237049
O O8 0.952548 0.407708 0.130934
O O9 0.285871 0.009617 0.919704
O O10 0.250000 0.089584 0.000000
O O11 0.500000 0.750000 0.596613
O O12 0.750000 0.799461 0.500000
O O13 0.000000 0.750000 0.596200
O O14 0.553060 0.410641 0.563169
O O15 0.431911 0.500000 0.250000
O O16 0.594496 0.560602 0.154558
O O17 0.093992 0.537544 0.165769
#
# Coordination Sequence:
#
# PCOD9333677 Si02
#       7
#     8   8   8   8   8   8   8
#     4  10  19  36  60  85 116 163 210 249 308 384
#     4  12  24  42  67  93 127 169 214 259 305 381
#     4  12  24  38  61  96 134 166 195 259 317 380
#     4  10  21  39  65  96 127 159 200 259 328 395
#     4  10  20  33  54  85 116 150 201 262 310 361
#     4  12  23  44  65  85 123 176 223 250 293 371
#     4  12  24  40  60  91 129 166 217 253 312 369
#
# _framework density 21.49793
#
# number of rings (size 3 to 8) (size 9 to 14) (size 15 to 20)
#    0.000    0.857    2.857    6.429    2.000    1.143 
#    2.571    0.000    0.000   11.143    0.000    0.000 
#    0.000    0.000    0.000    0.000    0.000    0.000 
#
# Total GULP energy -156484.351838 kJ/mol
# GULP energy per Si atom -5588.726851 kJ/mol
# Density = 2.144900 g / cm^3
# Si number density = 21.497930 Si / 1000 Ang^3
#
#
#
# Elastic Constant Matrix: (Units=GPa)
#
#
# Indices 1 2 3 4 5 6 
#
# 1 151.8739 19.0918 6.3411 0.0000 0.0000 0.0000
# 2 19.0918 125.9218 2.6824 0.0000 0.0000 0.0000
# 3 6.3411 2.6824 42.4198 0.0000 0.0000 0.0000
# 4 0.0000 0.0000 0.0000 21.2203 0.0000 0.0000
# 5 0.0000 0.0000 0.0000 0.0000 17.1831 0.0000
# 6 0.0000 0.0000 0.0000 0.0000 0.0000 27.6718
#
#
#
# Elastic Compliance Matrix: (Units=1/GPa)
#
#
# Indices 1 2 3 4 5 6 
#
# 1 0.006750 -0.001003 -0.000946 0.000000 0.000000 0.000000
# 2 -0.001003 0.008101 -0.000362 0.000000 0.000000 0.000000
# 3 -0.000946 -0.000362 0.023738 0.000000 0.000000 0.000000
# 4 0.000000 0.000000 0.000000 0.047125 0.000000 0.000000
# 5 0.000000 0.000000 0.000000 0.000000 0.058197 0.000000
# 6 0.000000 0.000000 0.000000 0.000000 0.000000 0.036138
#
#
# Mechanical properties :
#
#
# Convention : Reuss Voigt Hill
#
# Bulk Modulus (GPa) = 29.44023 41.82734 35.63379
# Shear Modulus (GPa) = 25.51106 32.68838 29.09972
#
# Velocity S-wave (km/s) = 3.44855 3.90364 3.68313
# Velocity P-wave (km/s) = 5.43883 6.31003 5.89056
#
# Compressibility (1/GPa) = 0.03396713
#
# Stress axis : x y z
#
# Youngs Moduli (GPa) = 148.14790 123.43749 42.12625
#
# Poissons Ratio (x) = 0.12384 0.03983
# Poissons Ratio (y) = 0.14863 0.01526
# Poissons Ratio (z) = 0.14008 0.04472
#
# Static dielectric constant tensor:
#      x y z
#    x 1.838620 0.000000 0.000000 
#    y 0.000000 1.773100 0.000000 
#    z 0.000000 0.000000 1.793100 
# 
# From -- ./inp_files/32271.got.cif
#   From: 2010.05.17/outbox.cif.g08.bks.cpg/sg24_17_cif.got.tgz:32271.got - 2010.06.04 00:33:39.
