data_PCOD9333220
_publ_section_title
;
Structure prediction by ZEFSAII (Michael W. Deem and Ramdas Pophale) SiO2 
 PCOD9333220
Probable space group: I 21 21 21
;
_chemical_formula_sum "Si O2"
_cell_formula_units_Z 44
_cell_length_a 20.316771
_cell_length_b 10.129358
_cell_length_c 11.639348
_cell_angle_alpha 90.000000
_cell_angle_beta 90.000000
_cell_angle_gamma 90.000000
_cell_volume 2395.329479
_symmetry_space_group_name_H-M "I 21 21 21"
_symmetry_group_IT_number 24
_symmetry_cell_setting 'orthorhombic'
loop_
_space_group_symop_operation_xyz
x,y,z
-x,1/2-y,z
x,-y,1/2-z
1/2-x,y,-z
1/2+x,1/2+y,1/2+z
1/2-x,-y,1/2+z
1/2+x,1/2-y,-z
-x,1/2+y,1/2-z
loop_
_atom_site_type_symbol
_atom_site_label
_atom_site_fract_x
_atom_site_fract_y
_atom_site_fract_z
Si Si1 0.402363 0.000000 0.250000
Si Si2 0.467610 0.122388 0.664916
Si Si3 0.295786 0.771008 0.266385
Si Si4 0.127645 0.500000 0.750000
Si Si5 0.511529 0.095096 0.410719
Si Si6 0.750000 0.399263 0.000000
Si Si7 0.680079 0.599390 0.858779
O O1 0.354996 0.125916 0.253014
O O2 0.451729 0.010515 0.357515
O O3 0.500000 0.250000 0.721265
O O4 0.506690 0.090787 0.547989
O O5 0.392324 0.157752 0.632736
O O6 0.467505 0.000000 0.750000
O O7 0.326157 0.626262 0.269443
O O8 0.266297 0.811853 0.390078
O O9 0.239234 0.799696 0.170621
O O10 0.078294 0.539265 0.854582
O O11 0.500000 0.250000 0.377651
O O12 0.807086 0.502894 0.034033
O O13 0.681441 0.500000 0.750000
#
# Coordination Sequence:
#
# PCOD9333220 Si02
#       7
#     4   8   8   4   8   4   8
#     4  11  18  36  64  90 111 160 204 246 307 366
#     4  10  22  42  59  85 119 162 211 255 307 378
#     4  11  21  38  61  93 127 155 203 267 310 387
#     4  11  24  40  58 102 135 156 208 268 349 372
#     4  10  21  38  62  87 126 164 207 257 313 389
#     4  10  18  36  64  92 112 164 210 246 306 384
#     4   9  19  35  59  87 113 153 209 248 289 371
#
# _framework density 18.369081000000001
#
# number of rings (size 3 to 8) (size 9 to 14) (size 15 to 20)
#    0.000    1.818    4.545    1.091    0.000    0.000 
#   14.727    2.727    0.000    0.000    0.000    0.000 
#    0.000    0.000    0.000    0.000    0.000    0.000 
#
# Total GULP energy -122673.983370 kJ/mol
# GULP energy per Si atom -5576.090153 kJ/mol
# Density = 1.832727 g / cm^3
# Si number density = 18.369081 Si / 1000 Ang^3
#
#
#
# Elastic Constant Matrix: (Units=GPa)
#
#
# Indices 1 2 3 4 5 6 
#
# 1 114.0876 72.7103 24.9491 0.0000 0.0000 0.0000
# 2 72.7103 136.4975 29.7862 0.0000 0.0000 0.0000
# 3 24.9491 29.7862 61.1807 0.0000 0.0000 0.0000
# 4 0.0000 0.0000 0.0000 20.8528 0.0000 0.0000
# 5 0.0000 0.0000 0.0000 0.0000 15.2396 0.0000
# 6 0.0000 0.0000 0.0000 0.0000 0.0000 32.2677
#
#
#
# Elastic Compliance Matrix: (Units=1/GPa)
#
#
# Indices 1 2 3 4 5 6 
#
# 1 0.013541 -0.006723 -0.002249 0.000000 0.000000 0.000000
# 2 -0.006723 0.011534 -0.002874 0.000000 0.000000 0.000000
# 3 -0.002249 -0.002874 0.018662 0.000000 0.000000 0.000000
# 4 0.000000 0.000000 0.000000 0.047955 0.000000 0.000000
# 5 0.000000 0.000000 0.000000 0.000000 0.065619 0.000000
# 6 0.000000 0.000000 0.000000 0.000000 0.000000 0.030991
#
#
# Mechanical properties :
#
#
# Convention : Reuss Voigt Hill
#
# Bulk Modulus (GPa) = 49.88641 62.96188 56.42414
# Shear Modulus (GPa) = 22.86495 25.96004 24.41250
#
# Velocity S-wave (km/s) = 3.53193 3.76340 3.64950
# Velocity P-wave (km/s) = 6.62189 7.29621 6.96721
#
# Compressibility (1/GPa) = 0.02004554
#
# Stress axis : x y z
#
# Youngs Moduli (GPa) = 73.84733 86.69777 53.58611
#
# Poissons Ratio (x) = 0.58283 0.12053
# Poissons Ratio (y) = 0.49644 0.15402
# Poissons Ratio (z) = 0.16610 0.24918
#
# Static dielectric constant tensor:
#      x y z
#    x 1.652030 0.000000 0.000000 
#    y 0.000000 1.620970 0.000000 
#    z 0.000000 0.000000 1.655700 
# 
# From -- ./inp_files/21500.got.cif
#   From: 2010.05.17/outbox.cif.g08.bks.cpg/sg24_11_cif.got.tgz:21500.got - 2010.06.04 00:33:39.
