data_PCOD9333263
_publ_section_title
;
Structure prediction by ZEFSAII (Michael W. Deem and Ramdas Pophale) SiO2 
 PCOD9333263
Probable space group: I 21 21 21
;
_chemical_formula_sum "Si O2"
_cell_formula_units_Z 44
_cell_length_a 8.043920
_cell_length_b 22.568120
_cell_length_c 9.926395
_cell_angle_alpha 90.000000
_cell_angle_beta 90.000000
_cell_angle_gamma 90.000000
_cell_volume 1801.999550
_symmetry_space_group_name_H-M "I 21 21 21"
_symmetry_group_IT_number 24
_symmetry_cell_setting 'orthorhombic'
loop_
_space_group_symop_operation_xyz
x,y,z
-x,1/2-y,z
x,-y,1/2-z
1/2-x,y,-z
1/2+x,1/2+y,1/2+z
1/2-x,-y,1/2+z
1/2+x,1/2-y,-z
-x,1/2+y,1/2-z
loop_
_atom_site_type_symbol
_atom_site_label
_atom_site_fract_x
_atom_site_fract_y
_atom_site_fract_z
Si Si1 0.139142 0.674360 0.804495
Si Si2 0.978096 0.147230 0.412724
Si Si3 0.906736 0.992152 0.088613
Si Si4 0.250000 0.995438 0.000000
Si Si5 0.750000 0.346362 0.000000
Si Si6 0.500000 0.750000 0.420700
Si Si7 0.196098 0.892784 0.786236
O O1 0.332053 0.658775 0.807518
O O2 0.126517 0.722110 0.687531
O O3 0.997732 0.624874 0.777013
O O4 0.073762 0.686430 0.957706
O O5 0.942350 0.077525 0.442345
O O6 0.168736 0.149961 0.363944
O O7 0.071804 0.023232 0.032841
O O8 0.886793 0.000000 0.250000
O O9 0.750000 0.010719 0.000000
O O10 0.282284 0.953527 0.132442
O O11 0.908430 0.301982 0.999225
O O12 0.750436 0.385177 0.866327
#
# Coordination Sequence:
#
# PCOD9333263 Si02
#       7
#     8   8   8   4   4   4   8
#     4  10  18  38  60  86 116 162 208 260 305 375
#     4  10  19  38  66  87 113 168 210 256 316 383
#     4  11  22  41  67  98 132 165 215 285 339 402
#     4  10  20  42  69  90 126 172 222 264 323 412
#     4  10  24  38  55  88 130 166 198 276 327 370
#     4  10  24  38  52  90 130 162 210 268 324 372
#     4  10  18  38  63  84 120 164 212 253 310 392
#
# _framework density 24.417318999999999
#
# number of rings (size 3 to 8) (size 9 to 14) (size 15 to 20)
#    0.000    1.818    5.455    0.000    2.545    0.727 
#   13.091   14.545    0.000    0.000    0.000    0.000 
#    0.000    0.000    0.000    0.000    0.000    0.000 
#
# Total GULP energy -122644.483791 kJ/mol
# GULP energy per Si atom -5574.749263 kJ/mol
# Density = 2.436174 g / cm^3
# Si number density = 24.417319 Si / 1000 Ang^3
#
#
#
# Elastic Constant Matrix: (Units=GPa)
#
#
# Indices 1 2 3 4 5 6 
#
# 1 119.0090 7.5552 66.7335 0.0001 -0.0003 0.0000
# 2 7.5552 36.7954 22.0708 0.0000 -0.0001 0.0000
# 3 66.7335 22.0708 165.9621 -0.0004 -0.0009 -0.0001
# 4 0.0001 0.0000 -0.0004 29.6364 -0.0002 0.0000
# 5 -0.0003 -0.0001 -0.0009 -0.0002 10.2359 -0.0001
# 6 0.0000 0.0000 -0.0001 0.0000 -0.0001 20.5789
#
#
#
# Elastic Compliance Matrix: (Units=1/GPa)
#
#
# Indices 1 2 3 4 5 6 
#
# 1 0.010855 0.000423 -0.004421 0.000000 0.000000 0.000000
# 2 0.000423 0.029550 -0.004100 0.000000 0.000000 0.000000
# 3 -0.004421 -0.004100 0.008348 0.000000 0.000001 0.000000
# 4 0.000000 0.000000 0.000000 0.033742 0.000001 0.000000
# 5 0.000000 0.000000 0.000001 0.000001 0.097696 0.000000
# 6 0.000000 0.000000 0.000000 0.000000 0.000000 0.048593
#
#
# Mechanical properties :
#
#
# Convention : Reuss Voigt Hill
#
# Bulk Modulus (GPa) = 30.71510 57.16507 43.94009
# Shear Modulus (GPa) = 19.54404 27.11736 23.33070
#
# Velocity S-wave (km/s) = 2.83223 3.33615 3.09447
# Velocity P-wave (km/s) = 4.82721 6.18889 5.54997
#
# Compressibility (1/GPa) = 0.03255728
#
# Stress axis : x y z
#
# Youngs Moduli (GPa) = 92.12402 33.84135 119.78352
#
# Poissons Ratio (x) = -0.01431 0.52957
# Poissons Ratio (y) = -0.03897 0.49109
# Poissons Ratio (z) = 0.40728 0.13874
#
# Static dielectric constant tensor:
#      x y z
#    x 1.996290 0.000000 0.000000 
#    y 0.000000 2.109350 0.000000 
#    z 0.000000 0.000000 2.026990 
# 
# From -- ./inp_files/9672.got.cif
#   From: 2010.05.17/outbox.cif.g08.bks.cpg/sg24_5_cif.got.tgz:9672.got - 2010.06.04 00:33:39.
