data_PCOD9333390
_publ_section_title
;
Structure prediction by ZEFSAII (Michael W. Deem and Ramdas Pophale) SiO2 
 PCOD9333390
Probable space group: I 21 21 21
;
_chemical_formula_sum "Si O2"
_cell_formula_units_Z 56
_cell_length_a 8.627504
_cell_length_b 24.635575
_cell_length_c 10.939019
_cell_angle_alpha 90.000000
_cell_angle_beta 90.000000
_cell_angle_gamma 90.000000
_cell_volume 2325.017624
_symmetry_space_group_name_H-M "I 21 21 21"
_symmetry_group_IT_number 24
_symmetry_cell_setting 'orthorhombic'
loop_
_space_group_symop_operation_xyz
x,y,z
-x,1/2-y,z
x,-y,1/2-z
1/2-x,y,-z
1/2+x,1/2+y,1/2+z
1/2-x,-y,1/2+z
1/2+x,1/2-y,-z
-x,1/2+y,1/2-z
loop_
_atom_site_type_symbol
_atom_site_label
_atom_site_fract_x
_atom_site_fract_y
_atom_site_fract_z
Si Si1 0.639604 0.673430 0.165035
Si Si2 0.862197 0.556586 0.782335
Si Si3 0.078532 0.639331 0.058455
Si Si4 0.566148 0.585891 0.483324
Si Si5 0.433273 0.476406 0.518177
Si Si6 0.565662 0.807552 0.408889
Si Si7 0.158352 0.273277 0.243145
O O1 0.718559 0.614039 0.185745
O O2 0.521518 0.680350 0.278238
O O3 0.748733 0.725940 0.181281
O O4 0.542365 0.665508 0.039704
O O5 0.776056 0.500000 0.750000
O O6 0.956121 0.568850 0.658551
O O7 0.978374 0.543086 0.893604
O O8 0.105372 0.679534 0.167811
O O9 0.250000 0.634566 0.000000
O O10 0.040637 0.577601 0.097563
O O11 0.750000 0.593966 0.500000
O O12 0.507092 0.533634 0.556532
O O13 0.477438 0.642268 0.495101
O O14 0.250000 0.485249 0.500000
O O15 0.500000 0.750000 0.447737
O O16 0.738505 0.796776 0.365043
O O17 0.000000 0.250000 0.195415
#
# Coordination Sequence:
#
# PCOD9333390 Si02
#       7
#     8   8   8   8   8   8   8
#     4   9  18  33  54  82 119 173 220 264 324 402
#     4   8  16  35  62  84 116 169 209 263 333 384
#     4  10  19  31  54  85 129 177 222 264 329 404
#     4  10  20  38  65  93 124 166 226 286 340 395
#     4   9  19  37  60  90 125 170 221 266 329 412
#     4   9  19  38  62  85 120 169 215 275 344 393
#     4  11  23  33  52  90 133 176 223 271 333 411
#
# _framework density 24.085839
#
# number of rings (size 3 to 8) (size 9 to 14) (size 15 to 20)
#    0.000    2.571    1.429    0.000    4.000    0.000 
#    7.714    5.000    0.000   11.143    0.000    0.000 
#    0.000    0.000    0.000    0.000    0.000    0.000 
#
# Total GULP energy -156356.784823 kJ/mol
# GULP energy per Si atom -5584.170887 kJ/mol
# Density = 2.403102 g / cm^3
# Si number density = 24.085839 Si / 1000 Ang^3
#
#
#
# Elastic Constant Matrix: (Units=GPa)
#
#
# Indices 1 2 3 4 5 6 
#
# 1 142.3568 97.0900 24.5489 0.0014 0.0005 -0.0003
# 2 97.0900 274.9053 69.2684 -0.0011 -0.0008 0.0004
# 3 24.5489 69.2684 53.7722 0.0029 0.0045 -0.0027
# 4 0.0014 -0.0011 0.0029 32.1762 0.0013 0.0001
# 5 0.0005 -0.0008 0.0045 0.0013 9.9921 -0.0001
# 6 -0.0003 0.0004 -0.0027 0.0001 -0.0001 16.4652
#
#
#
# Elastic Compliance Matrix: (Units=1/GPa)
#
#
# Indices 1 2 3 4 5 6 
#
# 1 0.009254 -0.003263 -0.000022 -0.000001 -0.000001 0.000000
# 2 -0.003263 0.006536 -0.006930 0.000001 0.000004 -0.000001
# 3 -0.000022 -0.006930 0.027534 -0.000003 -0.000013 0.000005
# 4 -0.000001 0.000001 -0.000003 0.031079 -0.000004 0.000000
# 5 -0.000001 0.000004 -0.000013 -0.000004 0.100079 0.000000
# 6 0.000000 -0.000001 0.000005 0.000000 0.000000 0.060734
#
#
# Mechanical properties :
#
#
# Convention : Reuss Voigt Hill
#
# Bulk Modulus (GPa) = 43.67794 94.76099 69.21947
# Shear Modulus (GPa) = 18.99140 30.40182 24.69661
#
# Velocity S-wave (km/s) = 2.81105 3.55664 3.20560
# Velocity P-wave (km/s) = 5.35814 7.50298 6.51937
#
# Compressibility (1/GPa) = 0.02289485
#
# Stress axis : x y z
#
# Youngs Moduli (GPa) = 108.06679 152.99561 36.31840
#
# Poissons Ratio (x) = 0.49917 0.00079
# Poissons Ratio (y) = 0.35259 0.25169
# Poissons Ratio (z) = 0.00234 1.06029
#
# Static dielectric constant tensor:
#      x y z
#    x 1.849710 0.000000 0.000000 
#    y 0.000000 2.102820 0.000000 
#    z 0.000000 0.000000 2.009820 
# 
# From -- ./inp_files/25089.got.cif
#   From: 2010.05.17/outbox.cif.g08.bks.cpg/sg24_13_cif.got.tgz:25089.got - 2010.06.04 00:33:39.
