data_PCOD9333203
_publ_section_title
;
Structure prediction by ZEFSAII (Michael W. Deem and Ramdas Pophale) SiO2 
 PCOD9333203
Probable space group: I 21 21 21
;
_chemical_formula_sum "Si O2"
_cell_formula_units_Z 48
_cell_length_a 17.951021
_cell_length_b 9.797715
_cell_length_c 12.157604
_cell_angle_alpha 90.000000
_cell_angle_beta 90.000000
_cell_angle_gamma 90.000000
_cell_volume 2138.267085
_symmetry_space_group_name_H-M "I 21 21 21"
_symmetry_group_IT_number 24
_symmetry_cell_setting 'orthorhombic'
loop_
_space_group_symop_operation_xyz
x,y,z
-x,1/2-y,z
x,-y,1/2-z
1/2-x,y,-z
1/2+x,1/2+y,1/2+z
1/2-x,-y,1/2+z
1/2+x,1/2-y,-z
-x,1/2+y,1/2-z
loop_
_atom_site_type_symbol
_atom_site_label
_atom_site_fract_x
_atom_site_fract_y
_atom_site_fract_z
Si Si1 0.085655 0.144012 0.621339
Si Si2 0.784248 0.663754 0.263361
Si Si3 0.570763 0.668066 0.596008
Si Si4 0.873204 0.665412 0.642611
Si Si5 0.983190 0.098640 0.433667
Si Si6 0.825158 0.163079 0.451161
O O1 0.081565 0.194462 0.745893
O O2 0.134819 0.240595 0.542757
O O3 0.007082 0.110215 0.562926
O O4 0.127883 0.998939 0.627069
O O5 0.778904 0.500000 0.250000
O O6 0.856236 0.691323 0.335477
O O7 0.710144 0.711362 0.327605
O O8 0.797348 0.741511 0.148607
O O9 0.500000 0.750000 0.635125
O O10 0.589740 0.712234 0.470450
O O11 0.542342 0.511830 0.606289
O O12 0.895903 0.069168 0.417226
O O13 0.000000 0.250000 0.388553
O O14 0.750000 0.097326 0.500000
#
# Coordination Sequence:
#
# PCOD9333203 Si02
#       6
#     8   8   8   8   8   8
#     4   9  17  33  58  91 118 146 199 261 301 332
#     4  12  21  35  64  90 122 154 202 259 304 347
#     4  11  26  41  58  89 128 165 195 240 307 371
#     4  10  18  36  59  90 119 154 199 257 302 351
#     4   9  20  38  62  88 119 156 206 249 287 350
#     4  11  20  35  57  91 120 157 198 249 299 355
#
# _framework density 22.448084000000001
#
# number of rings (size 3 to 8) (size 9 to 14) (size 15 to 20)
#    0.000    1.667    3.333    3.500    0.000    5.333 
#    0.000    1.667    0.000    0.000    0.000    0.000 
#    0.000    0.000    0.000    0.000    0.000    0.000 
#
# Total GULP energy -133990.171986 kJ/mol
# GULP energy per Si atom -5582.923833 kJ/mol
# Density = 2.239699 g / cm^3
# Si number density = 22.448084 Si / 1000 Ang^3
#
#
#
# Elastic Constant Matrix: (Units=GPa)
#
#
# Indices 1 2 3 4 5 6 
#
# 1 192.6206 9.1150 42.9880 0.0000 0.0000 0.0000
# 2 9.1150 18.8339 13.1417 0.0000 0.0000 0.0000
# 3 42.9880 13.1417 100.0151 0.0000 0.0000 0.0000
# 4 0.0000 0.0000 0.0000 7.1803 0.0000 0.0000
# 5 0.0000 0.0000 0.0000 0.0000 27.1797 0.0000
# 6 0.0000 0.0000 0.0000 0.0000 0.0000 25.9093
#
#
#
# Elastic Compliance Matrix: (Units=1/GPa)
#
#
# Indices 1 2 3 4 5 6 
#
# 1 0.005766 -0.001168 -0.002325 0.000000 0.000000 0.000000
# 2 -0.001168 0.058692 -0.007210 0.000000 0.000000 0.000000
# 3 -0.002325 -0.007210 0.011945 0.000000 0.000000 0.000000
# 4 0.000000 0.000000 0.000000 0.139269 0.000000 0.000000
# 5 0.000000 0.000000 0.000000 0.000000 0.036792 0.000000
# 6 0.000000 0.000000 0.000000 0.000000 0.000000 0.038596
#
#
# Mechanical properties :
#
#
# Convention : Reuss Voigt Hill
#
# Bulk Modulus (GPa) = 18.18277 49.10655 33.64466
# Shear Modulus (GPa) = 15.11496 28.46886 21.79191
#
# Velocity S-wave (km/s) = 2.59767 3.56506 3.11910
# Velocity P-wave (km/s) = 4.13699 6.23452 5.29075
#
# Compressibility (1/GPa) = 0.05499712
#
# Stress axis : x y z
#
# Youngs Moduli (GPa) = 173.44132 17.03809 83.71702
#
# Poissons Ratio (x) = 0.01991 0.19461
# Poissons Ratio (y) = 0.20264 0.60358
# Poissons Ratio (z) = 0.40319 0.12284
#
# Static dielectric constant tensor:
#      x y z
#    x 1.854190 0.000000 0.000000 
#    y 0.000000 1.947170 0.000000 
#    z 0.000000 0.000000 1.874060 
# 
# From -- ./inp_files/21514.got.cif
#   From: 2010.05.17/outbox.cif.g08.bks.cpg/sg24_11_cif.got.tgz:21514.got - 2010.06.04 00:33:39.
