data_PCOD9333156
_publ_section_title
;
Structure prediction by ZEFSAII (Michael W. Deem and Ramdas Pophale) SiO2 
 PCOD9333156
Probable space group: I 21 21 21
;
_chemical_formula_sum "Si O2"
_cell_formula_units_Z 48
_cell_length_a 8.442326
_cell_length_b 9.029871
_cell_length_c 30.155820
_cell_angle_alpha 90.000000
_cell_angle_beta 90.000000
_cell_angle_gamma 90.000000
_cell_volume 2298.872086
_symmetry_space_group_name_H-M "I 21 21 21"
_symmetry_group_IT_number 24
_symmetry_cell_setting 'orthorhombic'
loop_
_space_group_symop_operation_xyz
x,y,z
-x,1/2-y,z
x,-y,1/2-z
1/2-x,y,-z
1/2+x,1/2+y,1/2+z
1/2-x,-y,1/2+z
1/2+x,1/2-y,-z
-x,1/2+y,1/2-z
loop_
_atom_site_type_symbol
_atom_site_label
_atom_site_fract_x
_atom_site_fract_y
_atom_site_fract_z
Si Si1 0.862752 0.640735 0.461488
Si Si2 0.864290 0.000000 0.250000
Si Si3 0.500000 0.250000 0.813264
Si Si4 0.676194 0.722832 0.220538
Si Si5 0.939748 0.413532 0.906554
Si Si6 0.928432 0.912221 0.982675
Si Si7 0.291517 0.918501 0.317779
O O1 0.750000 0.713143 0.500000
O O2 0.738440 0.575466 0.426397
O O3 0.000000 0.750000 0.444433
O O4 0.959538 0.513810 0.486772
O O5 0.762728 0.119653 0.277561
O O6 0.960657 0.109225 0.218013
O O7 0.655440 0.310070 0.837233
O O8 0.500000 0.750000 0.203696
O O9 0.664266 0.659294 0.271126
O O10 0.755692 0.588177 0.193571
O O11 0.929460 0.428713 0.853808
O O12 0.000000 0.250000 0.917331
O O13 0.051519 0.525358 0.932857
O O14 0.000000 0.750000 0.984075
O O15 0.750000 0.915199 0.000000
#
# Coordination Sequence:
#
# PCOD9333156 Si02
#       7
#     8   4   4   8   8   8   8
#     4  10  19  35  61  89 118 154 201 246 302 378
#     4  10  18  34  64  86 114 164 224 266 302 386
#     4  10  20  36  56  86 120 164 212 266 322 364
#     4  10  20  37  61  86 117 165 216 259 316 373
#     4  11  23  38  60  92 126 160 203 259 311 375
#     4  11  22  41  66  90 121 162 203 255 317 383
#     4  10  22  37  57  86 126 163 208 263 313 376
#
# _framework density 20.879804
#
# number of rings (size 3 to 8) (size 9 to 14) (size 15 to 20)
#    0.000    1.667    0.000    8.500    1.167    2.000 
#    0.000    0.000    7.333    0.000    0.000    0.000 
#    0.000    0.000    0.000    0.000    0.000    0.000 
#
# Total GULP energy -133933.985981 kJ/mol
# GULP energy per Si atom -5580.582749 kJ/mol
# Density = 2.083228 g / cm^3
# Si number density = 20.879804 Si / 1000 Ang^3
#
#
#
# Elastic Constant Matrix: (Units=GPa)
#
#
# Indices 1 2 3 4 5 6 
#
# 1 99.7802 43.6886 19.6853 0.0000 0.0000 0.0000
# 2 43.6886 147.8657 22.0427 0.0000 0.0000 0.0000
# 3 19.6853 22.0427 66.4442 0.0000 0.0000 0.0000
# 4 0.0000 0.0000 0.0000 13.5795 0.0000 0.0000
# 5 0.0000 0.0000 0.0000 0.0000 17.9780 0.0000
# 6 0.0000 0.0000 0.0000 0.0000 0.0000 41.1230
#
#
#
# Elastic Compliance Matrix: (Units=1/GPa)
#
#
# Indices 1 2 3 4 5 6 
#
# 1 0.011887 -0.003143 -0.002479 0.000000 0.000000 0.000000
# 2 -0.003143 0.007946 -0.001705 0.000000 0.000000 0.000000
# 3 -0.002479 -0.001705 0.016350 0.000000 0.000000 0.000000
# 4 0.000000 0.000000 0.000000 0.073640 0.000000 0.000000
# 5 0.000000 0.000000 0.000000 0.000000 0.055624 0.000000
# 6 0.000000 0.000000 0.000000 0.000000 0.000000 0.024317
#
#
# Mechanical properties :
#
#
# Convention : Reuss Voigt Hill
#
# Bulk Modulus (GPa) = 46.44762 53.88036 50.16399
# Shear Modulus (GPa) = 23.63013 29.78099 26.70556
#
# Velocity S-wave (km/s) = 3.36776 3.78074 3.58021
# Velocity P-wave (km/s) = 6.11685 6.70222 6.41622
#
# Compressibility (1/GPa) = 0.02152963
#
# Stress axis : x y z
#
# Youngs Moduli (GPa) = 84.12460 125.85647 61.16083
#
# Poissons Ratio (x) = 0.39552 0.15163
# Poissons Ratio (y) = 0.26437 0.10427
# Poissons Ratio (z) = 0.20856 0.21457
#
# Static dielectric constant tensor:
#      x y z
#    x 1.810260 0.000000 0.000000 
#    y 0.000000 1.735750 0.000000 
#    z 0.000000 0.000000 1.778380 
# 
# From -- ./inp_files/38327.got.cif
#   From: 2010.05.17/outbox.cif.g08.bks.cpg/sg24_20_cif.got.tgz:38327.got - 2010.06.04 00:33:39.
