data_PCOD9333929
_publ_section_title
;
Structure prediction by ZEFSAII (Michael W. Deem and Ramdas Pophale) SiO2 
 PCOD9333929
Probable space group: I 21 21 21
;
_chemical_formula_sum "Si O2"
_cell_formula_units_Z 48
_cell_length_a 10.007154
_cell_length_b 13.524082
_cell_length_c 18.279158
_cell_angle_alpha 90.000000
_cell_angle_beta 90.000000
_cell_angle_gamma 90.000000
_cell_volume 2473.856849
_symmetry_space_group_name_H-M "I 21 21 21"
_symmetry_group_IT_number 24
_symmetry_cell_setting 'orthorhombic'
loop_
_space_group_symop_operation_xyz
x,y,z
-x,1/2-y,z
x,-y,1/2-z
1/2-x,y,-z
1/2+x,1/2+y,1/2+z
1/2-x,-y,1/2+z
1/2+x,1/2-y,-z
-x,1/2+y,1/2-z
loop_
_atom_site_type_symbol
_atom_site_label
_atom_site_fract_x
_atom_site_fract_y
_atom_site_fract_z
Si Si1 0.489591 0.563714 0.157784
Si Si2 0.282383 0.873060 0.821689
Si Si3 0.575885 0.920908 0.813577
Si Si4 0.588476 0.849296 0.316515
Si Si5 0.278038 0.675388 0.084575
Si Si6 0.361163 0.742748 0.696925
O O1 0.647698 0.565952 0.169423
O O2 0.424659 0.612695 0.231770
O O3 0.450881 0.450264 0.143411
O O4 0.427914 0.635591 0.097072
O O5 0.422832 0.924862 0.840698
O O6 0.253603 0.776586 0.871855
O O7 0.300891 0.839709 0.736507
O O8 0.681317 0.908140 0.878585
O O9 0.591810 0.821968 0.766273
O O10 0.603730 0.000000 0.750000
O O11 0.500000 0.750000 0.324176
O O12 0.737962 0.816032 0.336553
O O13 0.250000 0.688803 0.000000
O O14 0.500000 0.750000 0.652674
#
# Coordination Sequence:
#
# PCOD9333929 Si02
#       6
#     8   8   8   8   8   8
#     4  11  21  32  54  82 118 152 193 244 294 373
#     4  10  20  33  49  81 115 155 191 242 304 364
#     4  10  20  33  51  79 116 156 198 245 302 364
#     4  11  19  32  53  81 115 147 192 241 305 352
#     4  11  22  38  58  83 117 165 204 247 312 381
#     4   9  17  29  46  70 109 148 184 231 285 345
#
# _framework density 19.402902000000001
#
# number of rings (size 3 to 8) (size 9 to 14) (size 15 to 20)
#    0.000    1.667    5.000    3.000    2.333    2.667 
#    0.000    0.000    0.000    0.000    0.000   15.167 
#    0.000    0.000    0.000    0.000    0.000    0.000 
#
# Total GULP energy -133649.543510 kJ/mol
# GULP energy per Si atom -5568.730980 kJ/mol
# Density = 1.935874 g / cm^3
# Si number density = 19.402902 Si / 1000 Ang^3
#
#
#
# Elastic Constant Matrix: (Units=GPa)
#
#
# Indices 1 2 3 4 5 6 
#
# 1 151.0330 37.9642 1.8043 0.0000 0.0000 0.0000
# 2 37.9642 87.7624 18.8625 0.0000 0.0000 0.0000
# 3 1.8043 18.8625 25.3749 0.0000 0.0000 0.0000
# 4 0.0000 0.0000 0.0000 9.6597 0.0000 0.0000
# 5 0.0000 0.0000 0.0000 0.0000 8.6986 0.0000
# 6 0.0000 0.0000 0.0000 0.0000 0.0000 19.1752
#
#
#
# Elastic Compliance Matrix: (Units=1/GPa)
#
#
# Indices 1 2 3 4 5 6 
#
# 1 0.007535 -0.003742 0.002246 0.000000 0.000000 0.000000
# 2 -0.003742 0.015420 -0.011196 0.000000 0.000000 0.000000
# 3 0.002246 -0.011196 0.047572 0.000000 0.000000 0.000000
# 4 0.000000 0.000000 0.000000 0.103523 0.000000 0.000000
# 5 0.000000 0.000000 0.000000 0.000000 0.114960 0.000000
# 6 0.000000 0.000000 0.000000 0.000000 0.000000 0.052151
#
#
# Mechanical properties :
#
#
# Convention : Reuss Voigt Hill
#
# Bulk Modulus (GPa) = 22.15239 42.38135 32.26687
# Shear Modulus (GPa) = 13.10299 21.20932 17.15615
#
# Velocity S-wave (km/s) = 2.60149 3.30979 2.97679
# Velocity P-wave (km/s) = 4.52388 6.04123 5.33676
#
# Compressibility (1/GPa) = 0.04514185
#
# Stress axis : x y z
#
# Youngs Moduli (GPa) = 132.71613 64.85294 21.02082
#
# Poissons Ratio (x) = 0.24269 -0.04721
# Poissons Ratio (y) = 0.49664 0.23535
# Poissons Ratio (z) = -0.29807 0.72609
#
# Static dielectric constant tensor:
#      x y z
#    x 1.810180 0.000000 0.000000 
#    y 0.000000 1.838100 0.000000 
#    z 0.000000 0.000000 1.648150 
# 
# From -- ./inp_files/32724.got.cif
#   From: 2010.05.17/outbox.cif.g08.bks.cpg/sg24_17_cif.got.tgz:32724.got - 2010.06.04 00:33:39.
