data_PCOD9333991
_publ_section_title
;
Structure prediction by ZEFSAII (Michael W. Deem and Ramdas Pophale) SiO2 
 PCOD9333991
Probable space group: I 21 21 21
;
_chemical_formula_sum "Si O2"
_cell_formula_units_Z 64
_cell_length_a 29.818639
_cell_length_b 13.169971
_cell_length_c 9.252915
_cell_angle_alpha 90.000000
_cell_angle_beta 90.000000
_cell_angle_gamma 90.000000
_cell_volume 3633.717902
_symmetry_space_group_name_H-M "I 21 21 21"
_symmetry_group_IT_number 24
_symmetry_cell_setting 'orthorhombic'
loop_
_space_group_symop_operation_xyz
x,y,z
-x,1/2-y,z
x,-y,1/2-z
1/2-x,y,-z
1/2+x,1/2+y,1/2+z
1/2-x,-y,1/2+z
1/2+x,1/2-y,-z
-x,1/2+y,1/2-z
loop_
_atom_site_type_symbol
_atom_site_label
_atom_site_fract_x
_atom_site_fract_y
_atom_site_fract_z
Si Si1 0.109692 1.000000 0.574916
Si Si2 0.041481 0.674831 0.409910
Si Si3 0.004436 1.000000 0.920397
Si Si4 0.798006 0.885494 0.076365
Si Si5 0.867437 0.707581 0.423767
Si Si6 0.798006 0.114506 0.076365
Si Si7 0.458519 0.674831 0.909910
Si Si8 0.632563 0.707581 0.923767
O O1 0.056626 0.000000 0.528530
O O2 0.132180 0.101543 0.509241
O O3 0.111921 0.000000 0.750000
O O4 0.132179 0.898456 0.509242
O O5 0.085213 0.737231 0.452737
O O6 0.050371 0.629397 0.250000
O O7 0.000000 0.750000 0.395980
O O8 0.023954 0.593940 0.522130
O O9 0.006820 0.000000 0.750000
O O10 0.976046 0.906060 0.977869
O O11 0.792596 0.882051 0.250000
O O12 0.829884 0.791203 0.036503
O O13 0.815860 1.000000 0.041632
O O14 0.750000 0.875932 0.000000
O O15 0.829884 0.791203 0.463497
O O16 0.864752 0.688528 0.250000
O O17 0.750000 0.124068 0.000000
O O18 0.500000 0.750000 0.895980
O O19 0.414787 0.737232 0.952737
#
# Coordination Sequence:
#
# PCOD9333991 Si02
#       8
#     8   8   8   8   8   8   8   8
#     4  11  23  37  54  78 115 154 187 228 276 330
#     4  10  20  34  55  79 105 144 190 229 267 320
#     4  11  23  35  49  74 113 152 183 226 279 328
#     4   9  19  37  61  87 114 141 174 223 280 333
#     4  10  21  37  59  84 110 145 190 234 272 322
#     4   9  19  37  61  87 114 141 174 223 280 333
#     4  10  20  34  55  79 105 144 190 229 267 320
#     4  10  21  37  59  84 110 145 190 234 272 322
#
# _framework density 17.612815999999999
#
# number of rings (size 3 to 8) (size 9 to 14) (size 15 to 20)
#    0.000    2.000    2.500    0.750    1.750    3.500 
#    0.000    0.625    0.000    0.000    0.000    0.000 
#    0.000    0.000    0.000    0.000    0.000    0.000 
#
# Total GULP energy -178358.936966 kJ/mol
# GULP energy per Si atom -5573.716780 kJ/mol
# Density = 1.757273 g / cm^3
# Si number density = 17.612816 Si / 1000 Ang^3
#
#
#
# Elastic Constant Matrix: (Units=GPa)
#
#
# Indices 1 2 3 4 5 6 
#
# 1 88.3243 75.6663 28.3725 0.0000 0.0000 0.0000
# 2 75.6663 167.1170 64.6724 0.0000 0.0000 0.0000
# 3 28.3725 64.6724 45.5907 0.0000 0.0000 0.0000
# 4 0.0000 0.0000 0.0000 -12.8344 0.0000 0.0000
# 5 0.0000 0.0000 0.0000 0.0000 26.0592 0.0000
# 6 0.0000 0.0000 0.0000 0.0000 0.0000 11.3305
#
#
#
# Elastic Compliance Matrix: (Units=1/GPa)
#
#
# Indices 1 2 3 4 5 6 
#
# 1 0.018510 -0.008698 0.000819 0.000000 0.000000 0.000000
# 2 -0.008698 0.017354 -0.019204 0.000000 0.000000 0.000000
# 3 0.000819 -0.019204 0.048667 0.000000 0.000000 0.000000
# 4 0.000000 0.000000 0.000000 -0.077916 0.000000 0.000000
# 5 0.000000 0.000000 0.000000 0.000000 0.038374 0.000000
# 6 0.000000 0.000000 0.000000 0.000000 0.000000 0.088257
#
#
# Mechanical properties :
#
#
# Convention : Reuss Voigt Hill
#
# Bulk Modulus (GPa) = 32.93344 70.93937 51.93641
# Shear Modulus (GPa) = 25.31206 13.73246 19.52226
#
# Velocity S-wave (km/s) = 3.79507 2.79531 3.33289
# Velocity P-wave (km/s) = 6.15976 7.12622 6.66054
#
# Compressibility (1/GPa) = 0.03036427
#
# Stress axis : x y z
#
# Youngs Moduli (GPa) = 54.02429 57.62428 20.54786
#
# Poissons Ratio (x) = 0.50120 -0.01682
# Poissons Ratio (y) = 0.46989 0.39461
# Poissons Ratio (z) = -0.04423 1.10663
#
# Static dielectric constant tensor:
#      x y z
#    x 1.578430 0.000000 0.000000 
#    y 0.000000 1.592120 0.000000 
#    z 0.000000 0.000000 1.607330 
# 
# From -- ./inp_files/17017.got.cif
#   From: 2010.05.17/outbox.cif.g08.bks.cpg/sg24_9_cif.got.tgz:17017.got - 2010.06.04 00:33:39.
