data_PCOD9333610
_publ_section_title
;
Structure prediction by ZEFSAII (Michael W. Deem and Ramdas Pophale) SiO2 
 PCOD9333610
Probable space group: I 21 21 21
;
_chemical_formula_sum "Si O2"
_cell_formula_units_Z 64
_cell_length_a 9.052827
_cell_length_b 22.324407
_cell_length_c 15.437865
_cell_angle_alpha 90.000000
_cell_angle_beta 90.000000
_cell_angle_gamma 90.000000
_cell_volume 3119.976993
_symmetry_space_group_name_H-M "I 21 21 21"
_symmetry_group_IT_number 24
_symmetry_cell_setting 'orthorhombic'
loop_
_space_group_symop_operation_xyz
x,y,z
-x,1/2-y,z
x,-y,1/2-z
1/2-x,y,-z
1/2+x,1/2+y,1/2+z
1/2-x,-y,1/2+z
1/2+x,1/2-y,-z
-x,1/2+y,1/2-z
loop_
_atom_site_type_symbol
_atom_site_label
_atom_site_fract_x
_atom_site_fract_y
_atom_site_fract_z
Si Si1 0.088558 0.080363 0.482005
Si Si2 0.415155 0.187055 0.817686
Si Si3 0.595248 0.996100 0.851324
Si Si4 0.914879 0.117738 0.032892
Si Si5 0.125619 0.802796 0.573917
Si Si6 0.328787 0.593462 0.094969
Si Si7 0.598889 0.691261 0.865851
Si Si8 0.164243 0.271848 0.591567
O O1 0.250000 0.058304 0.500000
O O2 0.090138 0.148468 0.447597
O O3 0.018978 0.044301 0.403815
O O4 0.994446 0.077696 0.569223
O O5 0.500000 0.250000 0.807823
O O6 0.511792 0.155940 0.890868
O O7 0.242192 0.189697 0.846470
O O8 0.435572 0.157636 0.723281
O O9 0.747793 0.958133 0.853055
O O10 0.554701 0.000000 0.750000
O O11 0.603432 0.053755 0.916385
O O12 0.750000 0.133424 0.000000
O O13 0.032087 0.137221 0.955613
O O14 0.250000 0.787940 0.500000
O O15 0.000000 0.750000 0.581793
O O16 0.320085 0.661201 0.129717
O O17 0.250000 0.594810 0.000000
O O18 0.500000 0.750000 0.877870
O O19 0.758152 0.720567 0.853238
O O20 0.250000 0.272976 0.500000
O O21 0.000000 0.250000 0.579720
#
# Coordination Sequence:
#
# PCOD9333610 Si02
#       8
#     8   8   8   8   8   8   8   8
#     4  11  22  38  60  85 117 153 193 242 292 346
#     4  10  22  37  57  88 123 155 192 247 308 352
#     4  11  24  43  63  85 115 152 197 248 300 351
#     4  11  21  38  63  84 107 151 204 241 288 360
#     4  10  19  35  58  85 118 152 195 246 296 354
#     4   9  19  37  59  84 115 154 199 238 278 342
#     4  11  21  35  56  86 123 159 193 234 294 357
#     4  11  20  33  58  89 120 158 200 236 280 350
#
# _framework density 20.512972000000001
#
# number of rings (size 3 to 8) (size 9 to 14) (size 15 to 20)
#    0.000    1.500    0.000    9.000    0.000    3.000 
#    0.000    3.125    0.000    0.000    0.000    0.000 
#    0.000    0.000    0.000    0.000    0.000    0.000 
#
# Total GULP energy -178190.008607 kJ/mol
# GULP energy per Si atom -5568.437769 kJ/mol
# Density = 2.046628 g / cm^3
# Si number density = 20.512972 Si / 1000 Ang^3
#
#
#
# Elastic Constant Matrix: (Units=GPa)
#
#
# Indices 1 2 3 4 5 6 
#
# 1 146.2933 39.6676 27.8145 0.0000 0.0000 0.0003
# 2 39.6676 90.0322 25.0561 0.0000 0.0000 -0.0005
# 3 27.8145 25.0561 67.0588 0.0000 0.0000 -0.0001
# 4 0.0000 0.0000 0.0000 35.9755 0.0000 -0.0007
# 5 0.0000 0.0000 0.0000 0.0000 -5.7255 0.0000
# 6 0.0003 -0.0005 -0.0001 -0.0007 0.0000-2252.2753
#
#
#
# Elastic Compliance Matrix: (Units=1/GPa)
#
#
# Indices 1 2 3 4 5 6 
#
# 1 0.008056 -0.002923 -0.002249 0.000000 0.000000 0.000000
# 2 -0.002923 0.013457 -0.003816 0.000000 0.000000 0.000000
# 3 -0.002249 -0.003816 0.017271 0.000000 0.000000 0.000000
# 4 0.000000 0.000000 0.000000 0.027797 0.000000 0.000000
# 5 0.000000 0.000000 0.000000 0.000000 -0.174656 0.000000
# 6 0.000000 0.000000 0.000000 0.000000 0.000000 -0.000444
#
#
# Mechanical properties :
#
#
# Convention : Reuss Voigt Hill
#
# Bulk Modulus (GPa) = 48.05940 54.27341 51.16640
# Shear Modulus (GPa) = -59.80346 -430.34866 -245.07606
#
# Velocity S-wave (km/s) = -5.40530 -14.49996 -10.94226
# Velocity P-wave (km/s) = 3.93404 15.93161 11.60373
#
# Compressibility (1/GPa) = 0.02080758
#
# Stress axis : x y z
#
# Youngs Moduli (GPa) = 124.13274 74.31037 57.90119
#
# Poissons Ratio (x) = 0.21724 0.13022
# Poissons Ratio (y) = 0.36290 0.22093
# Poissons Ratio (z) = 0.27918 0.28354
#
# Static dielectric constant tensor:
#      x y z
#    x 1.764210 0.000000 0.000000 
#    y 0.000000 1.806440 0.000000 
#    z 0.000000 0.000000 1.937730 
# 
# From -- ./inp_files/29809.got.cif
#   From: 2010.05.17/outbox.cif.g08.bks.cpg/sg24_15_cif.got.tgz:29809.got - 2010.06.04 00:33:39.
