data_PCOD9333367
_publ_section_title
;
Structure prediction by ZEFSAII (Michael W. Deem and Ramdas Pophale) SiO2 
 PCOD9333367
Probable space group: I 21 21 21
;
_chemical_formula_sum "Si O2"
_cell_formula_units_Z 44
_cell_length_a 5.116668
_cell_length_b 26.140532
_cell_length_c 19.548403
_cell_angle_alpha 90.000000
_cell_angle_beta 90.000000
_cell_angle_gamma 90.000000
_cell_volume 2614.646279
_symmetry_space_group_name_H-M "I 21 21 21"
_symmetry_group_IT_number 24
_symmetry_cell_setting 'orthorhombic'
loop_
_space_group_symop_operation_xyz
x,y,z
-x,1/2-y,z
x,-y,1/2-z
1/2-x,y,-z
1/2+x,1/2+y,1/2+z
1/2-x,-y,1/2+z
1/2+x,1/2-y,-z
-x,1/2+y,1/2-z
loop_
_atom_site_type_symbol
_atom_site_label
_atom_site_fract_x
_atom_site_fract_y
_atom_site_fract_z
Si Si1 0.750306 0.286716 0.348241
Si Si2 0.813312 0.941828 0.278859
Si Si3 0.804365 0.977884 0.574287
Si Si4 0.191085 0.106509 0.713820
Si Si5 0.196651 0.047232 0.425657
Si Si6 0.750000 0.286486 0.500000
O O1 0.500000 0.250000 0.343938
O O2 0.731383 0.333140 0.295528
O O3 0.758339 0.311393 0.425122
O O4 0.000000 0.250000 0.339912
O O5 0.750118 0.944542 0.359116
O O6 0.595538 0.909098 0.239170
O O7 0.096339 0.918602 0.263937
O O8 0.803452 0.000000 0.250000
O O9 0.750000 0.953555 0.500000
O O10 0.596776 0.025131 0.577392
O O11 0.096580 0.000288 0.576838
O O12 0.244589 0.080929 0.640049
O O13 0.250000 0.072024 0.500000
O O14 0.500000 0.250000 0.498558
#
# Coordination Sequence:
#
# PCOD9333367 Si02
#       6
#     8   8   8   8   8   4
#     4  10  21  37  51  72 102 132 177 221 256 297
#     4  12  21  35  52  77 109 134 174 212 254 307
#     4  10  20  34  50  70 105 141 168 208 249 297
#     4  12  22  33  55  76 100 145 173 215 259 300
#     4  10  19  31  47  73 102 138 178 206 245 296
#     4   8  16  32  52  68  94 136 170 218 262 280
#
# _framework density 16.828281
#
# number of rings (size 3 to 8) (size 9 to 14) (size 15 to 20)
#    0.000    1.455    3.636    2.727    1.273    0.000 
#    0.000    0.000    0.000    0.000    0.000    0.000 
#    0.000   14.545    0.000    0.000    0.000    0.000 
#
# Total GULP energy -122766.401974 kJ/mol
# GULP energy per Si atom -5580.290999 kJ/mol
# Density = 1.678998 g / cm^3
# Si number density = 16.828281 Si / 1000 Ang^3
#
#
#
# Elastic Constant Matrix: (Units=GPa)
#
#
# Indices 1 2 3 4 5 6 
#
# 1 72.4275 3.9408 -17.2211 0.0000 0.0000 0.0000
# 2 3.9408 55.1779 14.8423 0.0000 0.0000 0.0000
# 3 -17.2211 14.8423 83.1902 0.0000 0.0000 0.0000
# 4 0.0000 0.0000 0.0000 30.6537 0.0000 0.0000
# 5 0.0000 0.0000 0.0000 0.0000 22.3565 0.0000
# 6 0.0000 0.0000 0.0000 0.0000 0.0000 11.4235
#
#
#
# Elastic Compliance Matrix: (Units=1/GPa)
#
#
# Indices 1 2 3 4 5 6 
#
# 1 0.014722 -0.001966 0.003398 0.000000 0.000000 0.000000
# 2 -0.001966 0.019299 -0.003850 0.000000 0.000000 0.000000
# 3 0.003398 -0.003850 0.013411 0.000000 0.000000 0.000000
# 4 0.000000 0.000000 0.000000 0.032623 0.000000 0.000000
# 5 0.000000 0.000000 0.000000 0.000000 0.044730 0.000000
# 6 0.000000 0.000000 0.000000 0.000000 0.000000 0.087539
#
#
# Mechanical properties :
#
#
# Convention : Reuss Voigt Hill
#
# Bulk Modulus (GPa) = 23.47568 23.76884 23.62226
# Shear Modulus (GPa) = 21.61164 26.83566 24.22365
#
# Velocity S-wave (km/s) = 3.58752 3.99767 3.79814
# Velocity P-wave (km/s) = 5.58040 5.95512 5.77080
#
# Compressibility (1/GPa) = 0.04259727
#
# Stress axis : x y z
#
# Youngs Moduli (GPa) = 67.92621 51.81558 74.56552
#
# Poissons Ratio (x) = 0.10184 -0.25339
# Poissons Ratio (y) = 0.13351 0.28709
# Poissons Ratio (z) = -0.23083 0.19950
#
# Static dielectric constant tensor:
#      x y z
#    x 1.573260 0.000000 0.000000 
#    y 0.000000 1.533110 0.000000 
#    z 0.000000 0.000000 1.606480 
# 
# From -- ./inp_files/28791.got.cif
#   From: 2010.05.17/outbox.cif.g08.bks.cpg/sg24_15_cif.got.tgz:28791.got - 2010.06.04 00:33:39.
