data_PCOD9333669
_publ_section_title
;
Structure prediction by ZEFSAII (Michael W. Deem and Ramdas Pophale) SiO2 
 PCOD9333669
Probable space group: I 21 21 21
;
_chemical_formula_sum "Si O2"
_cell_formula_units_Z 64
_cell_length_a 18.300188
_cell_length_b 8.282488
_cell_length_c 23.174939
_cell_angle_alpha 90.000000
_cell_angle_beta 90.000000
_cell_angle_gamma 90.000000
_cell_volume 3512.650707
_symmetry_space_group_name_H-M "I 21 21 21"
_symmetry_group_IT_number 24
_symmetry_cell_setting 'orthorhombic'
loop_
_space_group_symop_operation_xyz
x,y,z
-x,1/2-y,z
x,-y,1/2-z
1/2-x,y,-z
1/2+x,1/2+y,1/2+z
1/2-x,-y,1/2+z
1/2+x,1/2-y,-z
-x,1/2+y,1/2-z
loop_
_atom_site_type_symbol
_atom_site_label
_atom_site_fract_x
_atom_site_fract_y
_atom_site_fract_z
Si Si1 0.176792 0.269575 0.035184
Si Si2 0.957226 0.411193 0.979017
Si Si3 0.826670 0.814919 0.234436
Si Si4 0.598151 0.898122 0.988632
Si Si5 0.197919 0.891574 0.802598
Si Si6 0.419521 0.192473 0.397027
Si Si7 0.583977 0.700837 0.875151
Si Si8 0.167570 0.889413 0.346211
O O1 0.152087 0.452090 0.021135
O O2 0.184791 0.236753 0.103130
O O3 0.250000 0.231899 0.000000
O O4 0.111531 0.152551 0.014526
O O5 0.929705 0.518388 0.926509
O O6 0.000000 0.250000 0.960297
O O7 0.016204 0.523629 0.012559
O O8 0.744137 0.756244 0.223294
O O9 0.871668 0.785026 0.176391
O O10 0.853297 0.701513 0.287214
O O11 0.830880 0.000000 0.250000
O O12 0.607682 0.769465 0.937523
O O13 0.604860 0.812451 0.050864
O O14 0.138280 0.826496 0.846512
O O15 0.167762 0.000000 0.750000
O O16 0.260087 0.002856 0.833558
O O17 0.500000 0.250000 0.377781
O O18 0.500000 0.750000 0.868421
O O19 0.604615 0.513291 0.866546
#
# Coordination Sequence:
#
# PCOD9333669 Si02
#       8
#     8   8   8   8   8   8   8   8
#     4  11  21  33  54  84 110 141 191 233 268 329
#     4   9  19  36  54  79 113 145 174 218 281 326
#     4  10  22  39  56  77 110 147 183 229 281 324
#     4  10  21  34  53  81 116 148 175 225 285 332
#     4   9  20  39  59  78 107 148 185 224 279 336
#     4  10  19  36  59  82 110 143 181 224 279 337
#     4  11  21  36  57  80 108 147 191 227 269 328
#     4  10  21  37  55  77 110 147 184 228 278 326
#
# _framework density 18.219859
#
# number of rings (size 3 to 8) (size 9 to 14) (size 15 to 20)
#    0.000    2.000    0.000    5.250    0.000    4.000 
#    0.000    8.750    0.000    0.000    0.000    0.000 
#    0.000    0.000    0.000    0.000    0.000    0.000 
#
# Total GULP energy -178590.078119 kJ/mol
# GULP energy per Si atom -5580.939941 kJ/mol
# Density = 1.817839 g / cm^3
# Si number density = 18.219859 Si / 1000 Ang^3
#
#
#
# Elastic Constant Matrix: (Units=GPa)
#
#
# Indices 1 2 3 4 5 6 
#
# 1 52.9388 37.3606 52.2657 0.0000 0.0000 0.0000
# 2 37.3606 105.9467 49.0954 0.0000 0.0000 0.0000
# 3 52.2657 49.0954 104.9202 0.0000 0.0000 0.0000
# 4 0.0000 0.0000 0.0000 13.1484 0.0000 0.0000
# 5 0.0000 0.0000 0.0000 0.0000 29.4692 0.0000
# 6 0.0000 0.0000 0.0000 0.0000 0.0000 12.2005
#
#
#
# Elastic Compliance Matrix: (Units=1/GPa)
#
#
# Indices 1 2 3 4 5 6 
#
# 1 0.040167 -0.006247 -0.017086 0.000000 0.000000 0.000000
# 2 -0.006247 0.013024 -0.002982 0.000000 0.000000 0.000000
# 3 -0.017086 -0.002982 0.019438 0.000000 0.000000 0.000000
# 4 0.000000 0.000000 0.000000 0.076055 0.000000 0.000000
# 5 0.000000 0.000000 0.000000 0.000000 0.033934 0.000000
# 6 0.000000 0.000000 0.000000 0.000000 0.000000 0.081964
#
#
# Mechanical properties :
#
#
# Convention : Reuss Voigt Hill
#
# Bulk Modulus (GPa) = 50.00423 60.13880 55.07152
# Shear Modulus (GPa) = 15.43793 19.30255 17.37024
#
# Velocity S-wave (km/s) = 2.91402 3.25841 3.09102
# Velocity P-wave (km/s) = 6.23109 6.87279 6.55979
#
# Compressibility (1/GPa) = 0.01999831
#
# Stress axis : x y z
#
# Youngs Moduli (GPa) = 24.89601 76.78412 51.44564
#
# Poissons Ratio (x) = 0.47965 0.87901
# Poissons Ratio (y) = 0.15552 0.15343
# Poissons Ratio (z) = 0.42538 0.22900
#
# Static dielectric constant tensor:
#      x y z
#    x 1.619200 0.000000 0.000000 
#    y 0.000000 1.634700 0.000000 
#    z 0.000000 0.000000 1.617770 
# 
# From -- ./inp_files/29807.got.cif
#   From: 2010.05.17/outbox.cif.g08.bks.cpg/sg24_15_cif.got.tgz:29807.got - 2010.06.04 00:33:39.
