data_PCOD9333805
_publ_section_title
;
Structure prediction by ZEFSAII (Michael W. Deem and Ramdas Pophale) SiO2 
 PCOD9333805
Probable space group: I 21 21 21
;
_chemical_formula_sum "Si O2"
_cell_formula_units_Z 36
_cell_length_a 7.306910
_cell_length_b 18.837184
_cell_length_c 10.674866
_cell_angle_alpha 90.000000
_cell_angle_beta 90.000000
_cell_angle_gamma 90.000000
_cell_volume 1469.305723
_symmetry_space_group_name_H-M "I 21 21 21"
_symmetry_group_IT_number 24
_symmetry_cell_setting 'orthorhombic'
loop_
_space_group_symop_operation_xyz
x,y,z
-x,1/2-y,z
x,-y,1/2-z
1/2-x,y,-z
1/2+x,1/2+y,1/2+z
1/2-x,-y,1/2+z
1/2+x,1/2-y,-z
-x,1/2+y,1/2-z
loop_
_atom_site_type_symbol
_atom_site_label
_atom_site_fract_x
_atom_site_fract_y
_atom_site_fract_z
Si Si1 0.500000 0.250000 0.383978
Si Si2 0.880889 0.920539 0.262380
Si Si3 0.988952 0.949353 0.627725
Si Si4 0.238236 0.850783 0.244235
Si Si5 0.750000 0.862528 0.000000
Si Si6 0.250000 0.951376 0.000000
O O1 0.329220 0.222093 0.302136
O O2 0.576607 0.187020 0.469203
O O3 0.718960 0.923812 0.363639
O O4 0.788700 0.904195 0.127332
O O5 0.031417 0.860750 0.290022
O O6 0.961868 0.000000 0.250000
O O7 0.124681 0.884590 0.655144
O O8 0.003479 0.000000 0.750000
O O9 0.074431 0.997401 0.518750
O O10 0.237316 0.901586 0.120932
#
# Coordination Sequence:
#
# PCOD9333805 Si02
#       6
#     4   8   8   8   4   4
#     4  12  24  40  64  98 144 196 236 282 356 446
#     4  11  23  38  60  94 139 181 233 291 355 427
#     4   9  20  38  57  94 133 175 233 294 352 426
#     4  11  22  39  58  97 137 183 231 287 361 428
#     4  12  23  40  64  98 141 182 234 286 358 426
#     4  10  19  38  70  88 137 188 234 300 368 406
#
# _framework density 24.501366000000001
#
# number of rings (size 3 to 8) (size 9 to 14) (size 15 to 20)
#    0.000    1.333    2.222    5.333    6.222    0.000 
#    0.000    0.000    0.000    0.000    0.000    7.778 
#    0.000    1.778    0.000    0.000    0.000    0.000 
#
# Total GULP energy -100776.713173 kJ/mol
# GULP energy per Si atom -5598.706287 kJ/mol
# Density = 2.444560 g / cm^3
# Si number density = 24.501366 Si / 1000 Ang^3
#
#
#
# Elastic Constant Matrix: (Units=GPa)
#
#
# Indices 1 2 3 4 5 6 
#
# 1 170.6368 34.8438 25.6952 0.0000 0.0000 0.0000
# 2 34.8438 71.8607 37.1986 -0.0001 0.0000 0.0000
# 3 25.6952 37.1986 81.1902 0.0000 0.0000 0.0000
# 4 0.0000 -0.0001 0.0000 32.4664 0.0000 0.0000
# 5 0.0000 0.0000 0.0000 0.0000 33.1028 0.0000
# 6 0.0000 0.0000 0.0000 0.0000 0.0000 63.1458
#
#
#
# Elastic Compliance Matrix: (Units=1/GPa)
#
#
# Indices 1 2 3 4 5 6 
#
# 1 0.006545 -0.002754 -0.000809 0.000000 0.000000 0.000000
# 2 -0.002754 0.019402 -0.008017 0.000000 0.000000 0.000000
# 3 -0.000809 -0.008017 0.016246 0.000000 0.000000 0.000000
# 4 0.000000 0.000000 0.000000 0.030801 0.000000 0.000000
# 5 0.000000 0.000000 0.000000 0.000000 0.030209 0.000000
# 6 0.000000 0.000000 0.000000 0.000000 0.000000 0.015836
#
#
# Mechanical properties :
#
#
# Convention : Reuss Voigt Hill
#
# Bulk Modulus (GPa) = 52.54815 57.68478 55.11647
# Shear Modulus (GPa) = 33.65990 40.80634 37.23312
#
# Velocity S-wave (km/s) = 3.71050 4.08545 3.90248
# Velocity P-wave (km/s) = 6.31274 6.77120 6.54598
#
# Compressibility (1/GPa) = 0.01903017
#
# Stress axis : x y z
#
# Youngs Moduli (GPa) = 152.79471 51.54205 61.55284
#
# Poissons Ratio (x) = 0.14197 0.04981
# Poissons Ratio (y) = 0.42087 0.49350
# Poissons Ratio (z) = 0.12365 0.41324
#
# Static dielectric constant tensor:
#      x y z
#    x 2.066750 0.000000 0.000000 
#    y 0.000000 1.918780 0.000000 
#    z 0.000000 0.000000 1.960600 
# 
# From -- ./inp_files/24634.got.cif
#   From: 2010.05.17/outbox.cif.g08.bks.cpg/sg24_13_cif.got.tgz:24634.got - 2010.06.04 00:33:39.
