data_PCOD9333783
_publ_section_title
;
Structure prediction by ZEFSAII (Michael W. Deem and Ramdas Pophale) SiO2 
 PCOD9333783
Probable space group: I 21 21 21
;
_chemical_formula_sum "Si O2"
_cell_formula_units_Z 60
_cell_length_a 23.890065
_cell_length_b 13.347538
_cell_length_c 9.215273
_cell_angle_alpha 90.000000
_cell_angle_beta 90.000000
_cell_angle_gamma 90.000000
_cell_volume 2938.506820
_symmetry_space_group_name_H-M "I 21 21 21"
_symmetry_group_IT_number 24
_symmetry_cell_setting 'orthorhombic'
loop_
_space_group_symop_operation_xyz
x,y,z
-x,1/2-y,z
x,-y,1/2-z
1/2-x,y,-z
1/2+x,1/2+y,1/2+z
1/2-x,-y,1/2+z
1/2+x,1/2-y,-z
-x,1/2+y,1/2-z
loop_
_atom_site_type_symbol
_atom_site_label
_atom_site_fract_x
_atom_site_fract_y
_atom_site_fract_z
Si Si1 0.895926 0.824789 0.745169
Si Si2 0.773097 0.816626 0.661682
Si Si3 0.216088 0.092357 0.851720
Si Si4 0.972168 0.947363 0.549722
Si Si5 0.939705 0.223848 0.182797
Si Si6 0.610518 0.893871 0.939182
Si Si7 0.697420 0.000000 0.750000
Si Si8 0.089711 0.869245 0.572092
O O1 0.838418 0.844625 0.658881
O O2 0.940962 0.905520 0.692360
O O3 0.918845 0.717251 0.694018
O O4 0.878105 0.835302 0.912158
O O5 0.750000 0.811087 0.500000
O O6 0.771817 0.701999 0.718829
O O7 0.736576 0.902481 0.736191
O O8 0.150574 0.088549 0.894829
O O9 0.230273 0.000000 0.750000
O O10 0.250000 0.086323 0.000000
O O11 0.956774 0.861295 0.432584
O O12 0.038392 0.945988 0.573737
O O13 0.945791 0.045709 0.479558
O O14 0.899227 0.179344 0.303796
O O15 0.000000 0.250000 0.251947
O O16 0.913540 0.311951 0.083978
O O17 0.656940 0.974280 0.886432
#
# Coordination Sequence:
#
# PCOD9333783 Si02
#       8
#     8   8   8   8   8   8   4   8
#     4  10  22  38  59  94 126 168 221 276 327 400
#     4  10  24  42  66  91 133 180 225 268 350 425
#     4  10  23  47  70  94 125 172 233 291 343 406
#     4  10  19  38  62  87 127 173 213 264 336 403
#     4   9  19  37  60  87 129 176 212 258 335 411
#     4  12  23  36  60  98 137 166 221 279 329 416
#     4  12  26  38  64  96 146 184 218 268 362 424
#     4   9  21  43  68  86 124 178 222 269 351 409
#
# _framework density 20.418534999999999
#
# number of rings (size 3 to 8) (size 9 to 14) (size 15 to 20)
#    0.000    1.867    1.333    2.400    9.333    2.133 
#    4.800    4.000    0.000    0.000    0.000    0.000 
#    0.000    0.000    0.000    0.000    0.000    0.000 
#
# Total GULP energy -167428.425950 kJ/mol
# GULP energy per Si atom -5580.947532 kJ/mol
# Density = 2.037206 g / cm^3
# Si number density = 20.418535 Si / 1000 Ang^3
#
#
#
# Elastic Constant Matrix: (Units=GPa)
#
#
# Indices 1 2 3 4 5 6 
#
# 1 84.7344 47.0243 17.1907 0.0000 0.0000 0.0000
# 2 47.0243 85.8536 19.9603 0.0000 0.0000 0.0000
# 3 17.1907 19.9603 48.4751 0.0000 0.0000 0.0000
# 4 0.0000 0.0000 0.0000 24.7372 0.0000 0.0000
# 5 0.0000 0.0000 0.0000 0.0000 10.4205 0.0000
# 6 0.0000 0.0000 0.0000 0.0000 0.0000 37.7146
#
#
#
# Elastic Compliance Matrix: (Units=1/GPa)
#
#
# Indices 1 2 3 4 5 6 
#
# 1 0.017216 -0.008858 -0.002458 0.000000 0.000000 0.000000
# 2 -0.008858 0.017439 -0.004039 0.000000 0.000000 0.000000
# 3 -0.002458 -0.004039 0.023164 0.000000 0.000000 0.000000
# 4 0.000000 0.000000 0.000000 0.040425 0.000000 0.000000
# 5 0.000000 0.000000 0.000000 0.000000 0.095964 0.000000
# 6 0.000000 0.000000 0.000000 0.000000 0.000000 0.026515
#
#
# Mechanical properties :
#
#
# Convention : Reuss Voigt Hill
#
# Bulk Modulus (GPa) = 36.88927 43.04597 39.96762
# Shear Modulus (GPa) = 19.19606 23.56700 21.38153
#
# Velocity S-wave (km/s) = 3.06948 3.40103 3.23950
# Velocity P-wave (km/s) = 5.53787 6.04568 5.79734
#
# Compressibility (1/GPa) = 0.02710815
#
# Stress axis : x y z
#
# Youngs Moduli (GPa) = 58.08459 57.34346 43.17053
#
# Poissons Ratio (x) = 0.50797 0.10611
# Poissons Ratio (y) = 0.51454 0.17437
# Poissons Ratio (z) = 0.14276 0.23162
#
# Static dielectric constant tensor:
#      x y z
#    x 1.735720 0.000000 0.000000 
#    y 0.000000 1.754910 0.000000 
#    z 0.000000 0.000000 1.733390 
# 
# From -- ./inp_files/15999.got.cif
#   From: 2010.05.17/outbox.cif.g08.bks.cpg/sg24_8_cif.got.tgz:15999.got - 2010.06.04 00:33:39.
