data_PCOD9333506
_publ_section_title
;
Structure prediction by ZEFSAII (Michael W. Deem and Ramdas Pophale) SiO2 
 PCOD9333506
Probable space group: I 21 21 21
;
_chemical_formula_sum "Si O2"
_cell_formula_units_Z 44
_cell_length_a 20.068441
_cell_length_b 6.183677
_cell_length_c 18.182849
_cell_angle_alpha 90.000000
_cell_angle_beta 90.000000
_cell_angle_gamma 90.000000
_cell_volume 2256.432595
_symmetry_space_group_name_H-M "I 21 21 21"
_symmetry_group_IT_number 24
_symmetry_cell_setting 'orthorhombic'
loop_
_space_group_symop_operation_xyz
x,y,z
-x,1/2-y,z
x,-y,1/2-z
1/2-x,y,-z
1/2+x,1/2+y,1/2+z
1/2-x,-y,1/2+z
1/2+x,1/2-y,-z
-x,1/2+y,1/2-z
loop_
_atom_site_type_symbol
_atom_site_label
_atom_site_fract_x
_atom_site_fract_y
_atom_site_fract_z
Si Si1 0.812182 0.864561 0.452599
Si Si2 0.940126 0.131556 0.861513
Si Si3 0.157262 0.500000 0.750000
Si Si4 0.153844 0.991448 0.570299
Si Si5 0.253091 0.138526 0.814862
Si Si6 0.434924 0.362266 0.499561
O O1 0.750000 0.969462 0.500000
O O2 0.824032 0.645893 0.499197
O O3 0.792339 0.797333 0.370285
O O4 0.880669 0.000147 0.454735
O O5 0.894228 0.967001 0.816789
O O6 0.892985 0.325444 0.886369
O O7 0.000000 0.250000 0.819555
O O8 0.964535 0.015137 0.935310
O O9 0.201892 0.295891 0.771597
O O10 0.214703 0.020023 0.627327
O O11 0.112256 0.190968 0.541616
O O12 0.287287 0.000000 0.750000
O O13 0.500000 0.250000 0.535414
#
# Coordination Sequence:
#
# PCOD9333506 Si02
#       6
#     8   8   4   8   8   8
#     4   9  21  36  54  82 118 153 197 246 285 342
#     4  10  19  34  48  77 119 155 195 227 268 339
#     4  10  22  34  50  76 118 160 198 230 270 344
#     4   9  19  35  54  79 113 153 195 234 286 339
#     4  10  20  37  56  79 116 160 194 237 288 344
#     4  11  20  33  59  84 115 154 189 241 298 341
#
# _framework density 19.499807000000001
#
# number of rings (size 3 to 8) (size 9 to 14) (size 15 to 20)
#    0.000    2.182    1.818    2.182    0.000    4.364 
#    6.545    0.000    0.000    0.000    0.000    0.000 
#   27.273    0.000    0.000    0.000    0.000    0.000 
#
# Total GULP energy -122469.473109 kJ/mol
# GULP energy per Si atom -5566.794232 kJ/mol
# Density = 1.945543 g / cm^3
# Si number density = 19.499807 Si / 1000 Ang^3
#
#
#
# Elastic Constant Matrix: (Units=GPa)
#
#
# Indices 1 2 3 4 5 6 
#
# 1 102.4262 35.5247 52.0349 0.0000 0.0000 0.0000
# 2 35.5247 49.5629 33.0473 0.0000 0.0000 0.0000
# 3 52.0349 33.0473 95.8521 0.0000 0.0000 0.0000
# 4 0.0000 0.0000 0.0000 6.9168 0.0000 0.0000
# 5 0.0000 0.0000 0.0000 0.0000 19.7052 0.0000
# 6 0.0000 0.0000 0.0000 0.0000 0.0000 29.4591
#
#
#
# Elastic Compliance Matrix: (Units=1/GPa)
#
#
# Indices 1 2 3 4 5 6 
#
# 1 0.015134 -0.006972 -0.005812 0.000000 0.000000 0.000000
# 2 -0.006972 0.029411 -0.006355 0.000000 0.000000 0.000000
# 3 -0.005812 -0.006355 0.015779 0.000000 0.000000 0.000000
# 4 0.000000 0.000000 0.000000 0.144575 0.000000 0.000000
# 5 0.000000 0.000000 0.000000 0.000000 0.050748 0.000000
# 6 0.000000 0.000000 0.000000 0.000000 0.000000 0.033945
#
#
# Mechanical properties :
#
#
# Convention : Reuss Voigt Hill
#
# Bulk Modulus (GPa) = 45.36075 54.33945 49.85010
# Shear Modulus (GPa) = 14.91559 19.69851 17.30705
#
# Velocity S-wave (km/s) = 2.76870 3.18180 2.98241
# Velocity P-wave (km/s) = 5.79082 6.43627 6.12206
#
# Compressibility (1/GPa) = 0.02204549
#
# Stress axis : x y z
#
# Youngs Moduli (GPa) = 66.07709 34.00057 63.37558
#
# Poissons Ratio (x) = 0.23706 0.36833
# Poissons Ratio (y) = 0.46070 0.40277
# Poissons Ratio (z) = 0.38403 0.21608
#
# Static dielectric constant tensor:
#      x y z
#    x 1.732900 0.000000 0.000000 
#    y 0.000000 1.697000 0.000000 
#    z 0.000000 0.000000 1.708440 
# 
# From -- ./inp_files/31472.got.cif
#   From: 2010.05.17/outbox.cif.g08.bks.cpg/sg24_16_cif.got.tgz:31472.got - 2010.06.04 00:33:39.
