data_PCOD9333088
_publ_section_title
;
Structure prediction by ZEFSAII (Michael W. Deem and Ramdas Pophale) SiO2 
 PCOD9333088
Probable space group: I 21 21 21
;
_chemical_formula_sum "Si O2"
_cell_formula_units_Z 64
_cell_length_a 12.305816
_cell_length_b 32.001202
_cell_length_c 8.126057
_cell_angle_alpha 90.000000
_cell_angle_beta 90.000000
_cell_angle_gamma 90.000000
_cell_volume 3200.048589
_symmetry_space_group_name_H-M "I 21 21 21"
_symmetry_group_IT_number 24
_symmetry_cell_setting 'orthorhombic'
loop_
_space_group_symop_operation_xyz
x,y,z
-x,1/2-y,z
x,-y,1/2-z
1/2-x,y,-z
1/2+x,1/2+y,1/2+z
1/2-x,-y,1/2+z
1/2+x,1/2-y,-z
-x,1/2+y,1/2-z
loop_
_atom_site_type_symbol
_atom_site_label
_atom_site_fract_x
_atom_site_fract_y
_atom_site_fract_z
Si Si1 0.375437 0.125451 0.701673
Si Si2 0.489270 0.454640 0.694437
Si Si3 0.250001 0.337424 0.300457
Si Si4 0.978188 0.203044 0.299257
Si Si5 0.249996 0.567196 0.691704
Si Si6 0.489280 0.545360 0.194449
Si Si7 0.978189 0.203044 0.700756
Si Si8 0.375432 0.125451 0.298319
O O1 0.443609 0.085135 0.760722
O O2 0.434932 0.168150 0.753861
O O3 0.377383 0.125243 0.499996
O O4 0.250003 0.123720 0.752378
O O5 0.529074 0.500000 0.750000
O O6 0.362055 0.450036 0.735784
O O7 0.499852 0.452896 0.499995
O O8 0.250000 0.342541 0.500000
O O9 0.250004 0.383250 0.224085
O O10 0.358610 0.312894 0.253578
O O11 0.141391 0.312894 0.253585
O O12 0.000000 0.250000 0.241093
O O13 0.981719 0.203916 0.500006
O O14 0.250000 0.557646 0.500000
O O15 0.137933 0.549963 0.764195
O O16 0.529092 0.500000 0.250000
O O17 0.556399 0.585136 0.260735
O O18 0.000000 0.250000 0.758920
O O19 0.065071 0.168151 0.753869
#
# Coordination Sequence:
#
# PCOD9333088 Si02
#       8
#     8   8   8   8   8   8   8   8
#     4   9  18  32  51  78 113 148 182 226 277 328
#     4  11  22  38  58  83 113 145 183 229 282 335
#     4  10  18  33  55  84 116 150 186 231 285 330
#     4   9  17  28  49  82 115 145 180 227 278 330
#     4  12  23  37  58  84 113 148 188 231 281 333
#     4  11  22  38  58  83 113 145 183 229 282 335
#     4   9  17  28  49  82 115 145 180 227 278 330
#     4   9  18  32  51  78 113 148 182 226 277 328
#
# _framework density 19.999697000000001
#
# number of rings (size 3 to 8) (size 9 to 14) (size 15 to 20)
#    0.000    2.000    2.500    2.250    1.750    0.500 
#    0.000    0.000    0.000    3.000    0.000    0.000 
#    0.000    0.000    0.000    0.000    0.000    0.000 
#
# Total GULP energy -178719.666276 kJ/mol
# GULP energy per Si atom -5584.989571 kJ/mol
# Density = 1.995418 g / cm^3
# Si number density = 19.999697 Si / 1000 Ang^3
#
#
#
# Elastic Constant Matrix: (Units=GPa)
#
#
# Indices 1 2 3 4 5 6 
#
# 1 151.1108 89.1655 4.8215 0.0000 -0.0002 -0.0010
# 2 89.1655 199.5015 10.5343 -0.0013 0.0003 -0.0013
# 3 4.8215 10.5343 16.1715 -0.0043 0.0013 0.0016
# 4 0.0000 -0.0013 -0.0043 20.8291 0.0001 -0.0066
# 5 -0.0002 0.0003 0.0013 0.0001 -4.1062 -0.0010
# 6 -0.0010 -0.0013 0.0016 -0.0066 -0.0010 95.2347
#
#
#
# Elastic Compliance Matrix: (Units=1/GPa)
#
#
# Indices 1 2 3 4 5 6 
#
# 1 0.008988 -0.004014 -0.000065 0.000000 -0.000001 0.000000
# 2 -0.004014 0.006983 -0.003352 0.000000 0.000000 0.000000
# 3 -0.000065 -0.003352 0.064040 0.000013 0.000020 -0.000001
# 4 0.000000 0.000000 0.000013 0.048010 0.000002 0.000003
# 5 -0.000001 0.000000 0.000020 0.000002 -0.243535 -0.000003
# 6 0.000000 0.000000 -0.000001 0.000003 -0.000003 0.010500
#
#
# Mechanical properties :
#
#
# Convention : Reuss Voigt Hill
#
# Bulk Modulus (GPa) = 15.34936 63.98070 39.66503
# Shear Modulus (GPa) = -73.06281 39.87569 -16.59356
#
# Velocity S-wave (km/s) = -6.05072 4.47006 -2.88356
# Velocity P-wave (km/s) = 6.41277 7.66174 2.96468
#
# Compressibility (1/GPa) = 0.06514932
#
# Stress axis : x y z
#
# Youngs Moduli (GPa) = 111.25827 143.19661 15.61514
#
# Poissons Ratio (x) = 0.57475 0.00102
# Poissons Ratio (y) = 0.44656 0.05235
# Poissons Ratio (z) = 0.00725 0.48005
#
# Static dielectric constant tensor:
#      x y z
#    x 1.461130 0.000000 -0.000010 
#    y 0.000000 1.702530 0.000000 
#    z -0.000010 0.000000 1.717570 
# 
# From -- ./inp_files/11639.got.cif
#   From: 2010.05.17/outbox.cif.g08.bks.cpg/sg24_6_cif.got.tgz:11639.got - 2010.06.04 00:33:39.
