data_PCOD9333039
_publ_section_title
;
Structure prediction by ZEFSAII (Michael W. Deem and Ramdas Pophale) SiO2 
 PCOD9333039
Probable space group: I 21 21 21
;
_chemical_formula_sum "Si O2"
_cell_formula_units_Z 44
_cell_length_a 9.557709
_cell_length_b 10.290034
_cell_length_c 18.785110
_cell_angle_alpha 90.000000
_cell_angle_beta 90.000000
_cell_angle_gamma 90.000000
_cell_volume 1847.499612
_symmetry_space_group_name_H-M "I 21 21 21"
_symmetry_group_IT_number 24
_symmetry_cell_setting 'orthorhombic'
loop_
_space_group_symop_operation_xyz
x,y,z
-x,1/2-y,z
x,-y,1/2-z
1/2-x,y,-z
1/2+x,1/2+y,1/2+z
1/2-x,-y,1/2+z
1/2+x,1/2-y,-z
-x,1/2+y,1/2-z
loop_
_atom_site_type_symbol
_atom_site_label
_atom_site_fract_x
_atom_site_fract_y
_atom_site_fract_z
Si Si1 0.940913 0.453227 0.409944
Si Si2 0.383056 0.857928 0.775291
Si Si3 0.104070 0.522885 0.964937
Si Si4 0.500000 0.250000 0.050242
Si Si5 0.257453 0.189704 0.861987
Si Si6 0.270293 0.509425 0.664527
O O1 0.974228 0.417873 0.491056
O O2 0.090021 0.444266 0.368091
O O3 0.848342 0.362451 0.358541
O O4 0.869639 0.595107 0.399713
O O5 0.500000 0.750000 0.758947
O O6 0.254666 0.840957 0.721880
O O7 0.435671 0.000000 0.750000
O O8 0.134498 0.535913 0.881088
O O9 0.083137 0.368588 0.984965
O O10 0.250000 0.565796 0.000000
O O11 0.387521 0.174696 0.098165
O O12 0.291184 0.341556 0.859968
O O13 0.255041 0.500000 0.750000
#
# Coordination Sequence:
#
# PCOD9333039 Si02
#       6
#     8   8   8   4   8   8
#     4  10  19  32  56  86 119 155 206 260 312 381
#     4  10  19  34  60  96 125 158 207 266 316 372
#     4   9  21  33  51  85 118 157 200 257 319 366
#     4  10  22  32  50  80 114 166 196 268 324 378
#     4  10  19  32  51  82 117 153 204 258 322 357
#     4  10  18  32  53  85 120 156 200 255 311 367
#
# _framework density 23.815971000000001
#
# number of rings (size 3 to 8) (size 9 to 14) (size 15 to 20)
#    0.000    2.182    0.000    5.455    7.636    0.000 
#    0.000   10.909    0.000    0.000   61.455    0.000 
#    0.000    0.000    0.000    0.000    0.000    0.364 
#
# Total GULP energy -122536.138178 kJ/mol
# GULP energy per Si atom -5569.824463 kJ/mol
# Density = 2.376177 g / cm^3
# Si number density = 23.815971 Si / 1000 Ang^3
#
#
#
# Elastic Constant Matrix: (Units=GPa)
#
#
# Indices 1 2 3 4 5 6 
#
# 1 59.1148 3.1005 53.8688 0.0000 0.0000 0.0000
# 2 3.1005 69.5043 -7.0524 0.0000 0.0000 0.0000
# 3 53.8688 -7.0524 159.2516 0.0000 0.0000 0.0000
# 4 0.0000 0.0000 0.0000 19.4868 0.0000 0.0000
# 5 0.0000 0.0000 0.0000 0.0000 31.1857 0.0000
# 6 0.0000 0.0000 0.0000 0.0000 0.0000 11.5289
#
#
#
# Elastic Compliance Matrix: (Units=1/GPa)
#
#
# Indices 1 2 3 4 5 6 
#
# 1 0.024717 -0.001960 -0.008448 0.000000 0.000000 0.000000
# 2 -0.001960 0.014608 0.001310 0.000000 0.000000 0.000000
# 3 -0.008448 0.001310 0.009195 0.000000 0.000000 0.000000
# 4 0.000000 0.000000 0.000000 0.051317 0.000000 0.000000
# 5 0.000000 0.000000 0.000000 0.000000 0.032066 0.000000
# 6 0.000000 0.000000 0.000000 0.000000 0.000000 0.086738
#
#
# Mechanical properties :
#
#
# Convention : Reuss Voigt Hill
#
# Bulk Modulus (GPa) = 32.97640 43.07826 38.02733
# Shear Modulus (GPa) = 20.24749 28.30386 24.27567
#
# Velocity S-wave (km/s) = 2.91892 3.45112 3.19611
# Velocity P-wave (km/s) = 5.02360 5.83160 5.44261
#
# Compressibility (1/GPa) = 0.03032472
#
# Stress axis : x y z
#
# Youngs Moduli (GPa) = 40.45803 68.45595 108.75621
#
# Poissons Ratio (x) = 0.13416 0.91873
# Poissons Ratio (y) = 0.07929 -0.14245
# Poissons Ratio (z) = 0.34177 -0.08966
#
# Static dielectric constant tensor:
#      x y z
#    x 1.913650 0.000000 0.000000 
#    y 0.000000 2.024980 0.000000 
#    z 0.000000 0.000000 2.081000 
# 
# From -- ./inp_files/30160.got.cif
#   From: 2010.05.17/outbox.cif.g08.bks.cpg/sg24_16_cif.got.tgz:30160.got - 2010.06.04 00:33:39.
