data_PCOD9333523
_publ_section_title
;
Structure prediction by ZEFSAII (Michael W. Deem and Ramdas Pophale) SiO2 
 PCOD9333523
Probable space group: I 21 21 21
;
_chemical_formula_sum "Si O2"
_cell_formula_units_Z 64
_cell_length_a 17.249023
_cell_length_b 12.123558
_cell_length_c 17.816106
_cell_angle_alpha 90.000000
_cell_angle_beta 90.000000
_cell_angle_gamma 90.000000
_cell_volume 3725.695727
_symmetry_space_group_name_H-M "I 21 21 21"
_symmetry_group_IT_number 24
_symmetry_cell_setting 'orthorhombic'
loop_
_space_group_symop_operation_xyz
x,y,z
-x,1/2-y,z
x,-y,1/2-z
1/2-x,y,-z
1/2+x,1/2+y,1/2+z
1/2-x,-y,1/2+z
1/2+x,1/2-y,-z
-x,1/2+y,1/2-z
loop_
_atom_site_type_symbol
_atom_site_label
_atom_site_fract_x
_atom_site_fract_y
_atom_site_fract_z
Si Si1 0.692624 0.957385 0.067857
Si Si2 0.410661 0.250000 0.432368
Si Si3 0.590958 0.880685 0.530060
Si Si4 0.910360 0.250000 0.386176
Si Si5 0.338338 0.518178 0.837847
Si Si6 0.692624 0.457385 0.432143
Si Si7 0.909042 0.380685 0.030060
Si Si8 0.838338 0.481822 0.337847
O O1 0.636080 0.858779 0.090658
O O2 0.749609 0.992043 0.134395
O O3 0.750000 0.918687 0.000000
O O4 0.642848 0.055763 0.031238
O O5 0.500000 0.250000 0.407675
O O6 0.410457 0.250000 0.523384
O O7 0.363920 0.141221 0.409342
O O8 0.500000 0.901214 0.516075
O O9 0.605175 0.750000 0.529370
O O10 0.613678 0.933290 0.610269
O O11 0.868155 0.140280 0.358363
O O12 0.868155 0.359720 0.358363
O O13 0.000000 0.250000 0.361268
O O14 0.347275 0.500000 0.750000
O O15 0.750000 0.418687 0.500000
O O16 0.642848 0.555763 0.468762
O O17 0.749609 0.492043 0.365605
O O18 0.886322 0.433290 0.110269
O O19 0.847275 0.500000 0.250000
#
# Coordination Sequence:
#
# PCOD9333523 Si02
#       8
#     8   8   8   8   8   8   8   8
#     4  10  19  34  56  79 110 140 180 225 264 313
#     4  11  18  32  60  86 104 132 176 231 275 309
#     4  10  21  37  57  81 107 142 186 225 265 315
#     4  11  21  35  57  83 111 140 177 221 268 323
#     4  11  24  37  53  82 113 148 177 214 271 326
#     4  10  19  34  56  79 110 140 180 225 264 313
#     4  10  21  37  57  81 107 142 186 225 265 315
#     4  11  24  37  53  82 113 148 177 214 271 326
#
# _framework density 17.177999
#
# number of rings (size 3 to 8) (size 9 to 14) (size 15 to 20)
#    0.000    1.500    5.000    2.625    1.750    6.500 
#    0.000    0.000    0.000    3.000    0.000    0.000 
#    0.000    0.000    0.000    0.000    0.000    0.000 
#
# Total GULP energy -178660.652325 kJ/mol
# GULP energy per Si atom -5583.145385 kJ/mol
# Density = 1.713890 g / cm^3
# Si number density = 17.177999 Si / 1000 Ang^3
#
#
#
# Elastic Constant Matrix: (Units=GPa)
#
#
# Indices 1 2 3 4 5 6 
#
# 1 122.3169 69.4024 22.6635 0.0000 0.0000 0.0000
# 2 69.4024 105.5419 26.2191 0.0000 0.0000 0.0000
# 3 22.6635 26.2191 48.7876 0.0000 0.0000 0.0000
# 4 0.0000 0.0000 0.0000 5.4753 0.0000 0.0000
# 5 0.0000 0.0000 0.0000 0.0000 1.6041 0.0000
# 6 0.0000 0.0000 0.0000 0.0000 0.0000 -288.3550
#
#
#
# Elastic Compliance Matrix: (Units=1/GPa)
#
#
# Indices 1 2 3 4 5 6 
#
# 1 0.013161 -0.008235 -0.001688 0.000000 0.000000 0.000000
# 2 -0.008235 0.016087 -0.004820 0.000000 0.000000 0.000000
# 3 -0.001688 -0.004820 0.023872 0.000000 0.000000 0.000000
# 4 0.000000 0.000000 0.000000 0.182640 0.000000 0.000000
# 5 0.000000 0.000000 0.000000 0.000000 0.623399 0.000000
# 6 0.000000 0.000000 0.000000 0.000000 0.000000 -0.003468
#
#
# Mechanical properties :
#
#
# Convention : Reuss Voigt Hill
#
# Bulk Modulus (GPa) = 42.31292 57.02403 49.66848
# Shear Modulus (GPa) = 5.59876 -45.69769 -20.04946
#
# Velocity S-wave (km/s) = 1.80730 -5.16335 -3.42008
# Velocity P-wave (km/s) = 5.38894 1.50960 3.65799
#
# Compressibility (1/GPa) = 0.02363344
#
# Stress axis : x y z
#
# Youngs Moduli (GPa) = 75.98370 62.16016 41.89077
#
# Poissons Ratio (x) = 0.51188 0.07071
# Poissons Ratio (y) = 0.62572 0.20192
# Poissons Ratio (z) = 0.12826 0.29963
#
# Static dielectric constant tensor:
#      x y z
#    x 1.599360 0.000000 0.000000 
#    y 0.000000 1.572820 0.000000 
#    z 0.000000 0.000000 1.553460 
# 
# From -- ./inp_files/31254.got.cif
#   From: 2010.05.17/outbox.cif.g08.bks.cpg/sg24_16_cif.got.tgz:31254.got - 2010.06.04 00:33:39.
