data_PCOD9333432
_publ_section_title
;
Structure prediction by ZEFSAII (Michael W. Deem and Ramdas Pophale) SiO2 
 PCOD9333432
Probable space group: I 21 21 21
;
_chemical_formula_sum "Si O2"
_cell_formula_units_Z 48
_cell_length_a 18.973511
_cell_length_b 8.124963
_cell_length_c 13.158234
_cell_angle_alpha 90.000000
_cell_angle_beta 90.000000
_cell_angle_gamma 90.000000
_cell_volume 2028.461180
_symmetry_space_group_name_H-M "I 21 21 21"
_symmetry_group_IT_number 24
_symmetry_cell_setting 'orthorhombic'
loop_
_space_group_symop_operation_xyz
x,y,z
-x,1/2-y,z
x,-y,1/2-z
1/2-x,y,-z
1/2+x,1/2+y,1/2+z
1/2-x,-y,1/2+z
1/2+x,1/2-y,-z
-x,1/2+y,1/2-z
loop_
_atom_site_type_symbol
_atom_site_label
_atom_site_fract_x
_atom_site_fract_y
_atom_site_fract_z
Si Si1 0.023212 0.926259 0.997565
Si Si2 0.213518 0.770894 0.612710
Si Si3 0.843966 0.918076 0.352696
Si Si4 0.623286 0.026660 0.425163
Si Si5 0.056243 0.137914 0.177652
Si Si6 0.817007 0.630300 0.923646
O O1 0.000000 0.750000 0.037766
O O2 0.014330 0.055869 0.086354
O O3 0.105836 0.918423 0.970241
O O4 0.961266 0.957349 0.915819
O O5 0.250000 0.771812 0.500000
O O6 0.267325 0.654432 0.672963
O O7 0.145144 0.655091 0.610082
O O8 0.202256 0.962437 0.637833
O O9 0.852886 0.026814 0.454059
O O10 0.885318 0.749998 0.370649
O O11 0.871892 0.000000 0.250000
O O12 0.663937 0.187051 0.380158
O O13 0.000000 0.250000 0.235302
O O14 0.087333 0.000000 0.250000
O O15 0.750000 0.650915 0.000000
#
# Coordination Sequence:
#
# PCOD9333432 Si02
#       6
#     8   8   8   8   8   8
#     4  10  21  33  53  81 112 147 196 242 291 349
#     4   9  19  36  55  76 106 148 193 246 289 334
#     4  11  23  38  53  79 119 159 204 241 291 356
#     4  10  20  37  56  80 113 151 191 245 294 344
#     4  12  23  33  48  72 114 165 198 233 280 349
#     4  10  19  32  56  78 110 146 185 234 295 339
#
# _framework density 23.663257999999999
#
# number of rings (size 3 to 8) (size 9 to 14) (size 15 to 20)
#    0.000    1.667    1.667    5.500    4.667    0.000 
#    3.000    0.000    0.000    0.000    0.000    0.000 
#   25.000    0.000    0.000    0.000    0.000    0.000 
#
# Total GULP energy -133745.163715 kJ/mol
# GULP energy per Si atom -5572.715155 kJ/mol
# Density = 2.360940 g / cm^3
# Si number density = 23.663258 Si / 1000 Ang^3
#
#
#
# Elastic Constant Matrix: (Units=GPa)
#
#
# Indices 1 2 3 4 5 6 
#
# 1 141.7196 27.0283 9.0225 0.0000 0.0000 0.0000
# 2 27.0283 131.1060 19.3494 0.0000 0.0000 0.0000
# 3 9.0225 19.3494 19.2417 0.0000 0.0000 0.0000
# 4 0.0000 0.0000 0.0000 5.1707 0.0000 0.0000
# 5 0.0000 0.0000 0.0000 0.0000 13.0978 0.0000
# 6 0.0000 0.0000 0.0000 0.0000 0.0000 40.6245
#
#
#
# Elastic Compliance Matrix: (Units=1/GPa)
#
#
# Indices 1 2 3 4 5 6 
#
# 1 0.007429 -0.001195 -0.002282 0.000000 0.000000 0.000000
# 2 -0.001195 0.009149 -0.008640 0.000000 0.000000 0.000000
# 3 -0.002282 -0.008640 0.061729 0.000000 0.000000 0.000000
# 4 0.000000 0.000000 0.000000 0.193397 0.000000 0.000000
# 5 0.000000 0.000000 0.000000 0.000000 0.076349 0.000000
# 6 0.000000 0.000000 0.000000 0.000000 0.000000 0.024616
#
#
# Mechanical properties :
#
#
# Convention : Reuss Voigt Hill
#
# Bulk Modulus (GPa) = 18.49336 44.76307 31.62821
# Shear Modulus (GPa) = 12.05033 27.55641 19.80337
#
# Velocity S-wave (km/s) = 2.25909 3.41621 2.89603
# Velocity P-wave (km/s) = 3.82581 5.87524 4.95758
#
# Compressibility (1/GPa) = 0.05407347
#
# Stress axis : x y z
#
# Youngs Moduli (GPa) = 134.60143 109.30346 16.19989
#
# Poissons Ratio (x) = 0.13059 0.03697
# Poissons Ratio (y) = 0.16082 0.13996
# Poissons Ratio (z) = 0.30718 0.94436
#
# Static dielectric constant tensor:
#      x y z
#    x 2.028980 0.000000 0.000000 
#    y 0.000000 1.745010 0.000000 
#    z 0.000000 0.000000 1.872140 
# 
# From -- ./inp_files/27022.got.cif
#   From: 2010.05.17/outbox.cif.g08.bks.cpg/sg24_14_cif.got.tgz:27022.got - 2010.06.04 00:33:39.
