data_PCOD9333810
_publ_section_title
;
Structure prediction by ZEFSAII (Michael W. Deem and Ramdas Pophale) SiO2 
 PCOD9333810
Probable space group: I 21 21 21
;
_chemical_formula_sum "Si O2"
_cell_formula_units_Z 60
_cell_length_a 24.680153
_cell_length_b 13.331404
_cell_length_c 8.760440
_cell_angle_alpha 90.000000
_cell_angle_beta 90.000000
_cell_angle_gamma 90.000000
_cell_volume 2882.369521
_symmetry_space_group_name_H-M "I 21 21 21"
_symmetry_group_IT_number 24
_symmetry_cell_setting 'orthorhombic'
loop_
_space_group_symop_operation_xyz
x,y,z
-x,1/2-y,z
x,-y,1/2-z
1/2-x,y,-z
1/2+x,1/2+y,1/2+z
1/2-x,-y,1/2+z
1/2+x,1/2-y,-z
-x,1/2+y,1/2-z
loop_
_atom_site_type_symbol
_atom_site_label
_atom_site_fract_x
_atom_site_fract_y
_atom_site_fract_z
Si Si1 0.394242 0.216202 0.507516
Si Si2 0.468635 0.030861 0.574903
Si Si3 0.215244 0.905989 0.648391
Si Si4 0.820421 0.619267 0.213231
Si Si5 0.099842 0.500000 0.750000
Si Si6 0.597294 0.052157 0.583444
Si Si7 0.558919 0.785851 0.291981
Si Si8 0.893598 0.650720 0.487807
O O1 0.443431 0.140301 0.546411
O O2 0.340157 0.153943 0.548984
O O3 0.395834 0.326388 0.586195
O O4 0.399912 0.238310 0.329061
O O5 0.533164 0.031112 0.553356
O O6 0.459968 0.000000 0.750000
O O7 0.432496 0.946082 0.489341
O O8 0.250000 0.940592 0.500000
O O9 0.260905 0.843817 0.740315
O O10 0.161299 0.857590 0.585533
O O11 0.199878 0.000000 0.750000
O O12 0.820798 0.500000 0.250000
O O13 0.869017 0.659292 0.319533
O O14 0.126097 0.483874 0.578007
O O15 0.064170 0.402553 0.774532
O O16 0.610729 0.000000 0.750000
O O17 0.500000 0.750000 0.249265
O O18 0.573248 0.746704 0.459068
#
# Coordination Sequence:
#
# PCOD9333810 Si02
#       8
#     8   8   8   8   4   8   8   8
#     4  11  20  37  55  79 114 158 197 253 303 361
#     4  11  20  34  53  83 121 155 202 252 292 368
#     4   9  21  35  55  87 121 153 196 249 314 374
#     4  10  19  39  58  85 124 152 195 261 308 368
#     4  10  22  44  50  80 126 146 196 280 290 342
#     4  10  23  36  58  81 112 169 212 251 310 365
#     4  11  25  38  56  84 117 161 204 250 308 367
#     4  11  21  35  57  86 112 164 196 235 318 372
#
# _framework density 20.816205
#
# number of rings (size 3 to 8) (size 9 to 14) (size 15 to 20)
#    0.000    1.600    2.667    2.800    3.733    0.000 
#    0.000    0.000    0.000    0.000    1.733    0.000 
#    0.000    0.000    0.000    0.000    0.133    0.000 
#
# Total GULP energy -167177.751139 kJ/mol
# GULP energy per Si atom -5572.591705 kJ/mol
# Density = 2.076883 g / cm^3
# Si number density = 20.816205 Si / 1000 Ang^3
#
#
#
# Elastic Constant Matrix: (Units=GPa)
#
#
# Indices 1 2 3 4 5 6 
#
# 1 55.5123 0.9390 13.8040 0.0000 0.0000 0.0000
# 2 0.9390 87.9190 34.3135 0.0000 0.0000 0.0000
# 3 13.8040 34.3135 81.7911 0.0000 0.0000 0.0000
# 4 0.0000 0.0000 0.0000 36.2919 0.0000 0.0000
# 5 0.0000 0.0000 0.0000 0.0000 3.1907 0.0000
# 6 0.0000 0.0000 0.0000 0.0000 0.0000 4.1301
#
#
#
# Elastic Compliance Matrix: (Units=1/GPa)
#
#
# Indices 1 2 3 4 5 6 
#
# 1 0.018917 0.001248 -0.003716 0.000000 0.000000 0.000000
# 2 0.001248 0.013683 -0.005951 0.000000 0.000000 0.000000
# 3 -0.003716 -0.005951 0.015350 0.000000 0.000000 0.000000
# 4 0.000000 0.000000 0.000000 0.027554 0.000000 0.000000
# 5 0.000000 0.000000 0.000000 0.000000 0.313408 0.000000
# 6 0.000000 0.000000 0.000000 0.000000 0.000000 0.242126
#
#
# Mechanical properties :
#
#
# Convention : Reuss Voigt Hill
#
# Bulk Modulus (GPa) = 32.14170 35.92615 34.03393
# Shear Modulus (GPa) = 7.59591 20.46693 14.03142
#
# Velocity S-wave (km/s) = 1.91232 3.13904 2.59909
# Velocity P-wave (km/s) = 4.51112 5.51673 5.03907
#
# Compressibility (1/GPa) = 0.03111223
#
# Stress axis : x y z
#
# Youngs Moduli (GPa) = 52.86234 73.08090 65.14576
#
# Poissons Ratio (x) = -0.09124 0.24211
# Poissons Ratio (y) = -0.06599 0.38770
# Poissons Ratio (z) = 0.19646 0.43492
#
# Static dielectric constant tensor:
#      x y z
#    x 1.740750 0.000000 0.000000 
#    y 0.000000 1.750200 0.000000 
#    z 0.000000 0.000000 1.891270 
# 
# From -- ./inp_files/16963.got.cif
#   From: 2010.05.17/outbox.cif.g08.bks.cpg/sg24_9_cif.got.tgz:16963.got - 2010.06.04 00:33:39.
