data_PCOD9333642
_publ_section_title
;
Structure prediction by ZEFSAII (Michael W. Deem and Ramdas Pophale) SiO2 
 PCOD9333642
Probable space group: I 21 21 21
;
_chemical_formula_sum "Si O2"
_cell_formula_units_Z 52
_cell_length_a 24.857353
_cell_length_b 6.087294
_cell_length_c 17.933733
_cell_angle_alpha 90.000000
_cell_angle_beta 90.000000
_cell_angle_gamma 90.000000
_cell_volume 2713.625158
_symmetry_space_group_name_H-M "I 21 21 21"
_symmetry_group_IT_number 24
_symmetry_cell_setting 'orthorhombic'
loop_
_space_group_symop_operation_xyz
x,y,z
-x,1/2-y,z
x,-y,1/2-z
1/2-x,y,-z
1/2+x,1/2+y,1/2+z
1/2-x,-y,1/2+z
1/2+x,1/2-y,-z
-x,1/2+y,1/2-z
loop_
_atom_site_type_symbol
_atom_site_label
_atom_site_fract_x
_atom_site_fract_y
_atom_site_fract_z
Si Si1 0.155643 0.517797 0.330607
Si Si2 0.945526 0.626866 0.679909
Si Si3 0.884817 0.398880 0.071947
Si Si4 0.188132 0.286039 0.480178
Si Si5 0.403797 0.556471 0.446100
Si Si6 0.939890 0.671981 0.184694
Si Si7 0.000000 0.250000 0.579972
O O1 0.183484 0.500000 0.250000
O O2 0.141721 0.759458 0.360669
O O3 0.185222 0.406466 0.400051
O O4 0.101268 0.374604 0.319083
O O5 0.919071 0.500000 0.750000
O O6 0.912488 0.807509 0.631350
O O7 0.967171 0.433501 0.626618
O O8 0.000000 0.750000 0.707545
O O9 0.841425 0.554782 0.032708
O O10 0.931410 0.545064 0.107391
O O11 0.906921 0.232292 0.011786
O O12 0.250000 0.261953 0.500000
O O13 0.152092 0.426392 0.539098
O O14 0.452901 0.388446 0.458281
O O15 0.926734 0.500000 0.250000
O O16 0.000000 0.750000 0.195786
#
# Coordination Sequence:
#
# PCOD9333642 Si02
#       7
#     8   8   8   8   8   8   4
#     4  10  20  40  65  89 119 163 213 258 316 373
#     4  10  19  35  61  90 126 170 212 249 309 384
#     4  10  22  41  58  89 123 168 211 262 310 373
#     4  10  23  43  66  91 123 164 218 271 324 377
#     4  10  22  40  61  94 124 171 210 261 314 381
#     4  11  22  36  54  87 131 170 207 250 303 369
#     4  10  20  38  58  90 132 160 210 244 310 380
#
# _framework density 19.162557
#
# number of rings (size 3 to 8) (size 9 to 14) (size 15 to 20)
#    0.000    1.846    2.308    1.385    0.000    2.462 
#   41.538    0.000    6.769    0.000    0.000    0.000 
#    0.000    0.000    0.000    0.000    0.000    0.000 
#
# Total GULP energy -145030.683405 kJ/mol
# GULP energy per Si atom -5578.103208 kJ/mol
# Density = 1.911894 g / cm^3
# Si number density = 19.162557 Si / 1000 Ang^3
#
#
#
# Elastic Constant Matrix: (Units=GPa)
#
#
# Indices 1 2 3 4 5 6 
#
# 1 77.4434 42.2231 49.3319 0.0000 0.0000 0.0000
# 2 42.2231 115.4442 45.6621 0.0000 0.0000 0.0000
# 3 49.3319 45.6621 93.8103 0.0000 0.0000 0.0000
# 4 0.0000 0.0000 0.0000 44.0615 0.0000 0.0000
# 5 0.0000 0.0000 0.0000 0.0000 47.5589 0.0000
# 6 0.0000 0.0000 0.0000 0.0000 0.0000 -17.5723
#
#
#
# Elastic Compliance Matrix: (Units=1/GPa)
#
#
# Indices 1 2 3 4 5 6 
#
# 1 0.020858 -0.004075 -0.008985 0.000000 0.000000 0.000000
# 2 -0.004075 0.011524 -0.003466 0.000000 0.000000 0.000000
# 3 -0.008985 -0.003466 0.017072 0.000000 0.000000 0.000000
# 4 0.000000 0.000000 0.000000 0.022696 0.000000 0.000000
# 5 0.000000 0.000000 0.000000 0.000000 0.021027 0.000000
# 6 0.000000 0.000000 0.000000 0.000000 0.000000 -0.056908
#
#
# Mechanical properties :
#
#
# Convention : Reuss Voigt Hill
#
# Bulk Modulus (GPa) = 60.97150 62.34802 61.65976
# Shear Modulus (GPa) = 66.85655 24.77500 45.81577
#
# Velocity S-wave (km/s) = 5.91311 3.59957 4.89499
# Velocity P-wave (km/s) = 8.86042 7.06278 8.01218
#
# Compressibility (1/GPa) = 0.01640110
#
# Stress axis : x y z
#
# Youngs Moduli (GPa) = 47.94371 86.77882 58.57538
#
# Poissons Ratio (x) = 0.35360 0.52631
# Poissons Ratio (y) = 0.19536 0.20304
# Poissons Ratio (z) = 0.43078 0.30080
#
# Static dielectric constant tensor:
#      x y z
#    x 1.621390 0.000000 0.000000 
#    y 0.000000 1.697490 0.000000 
#    z 0.000000 0.000000 1.722340 
# 
# From -- ./inp_files/31642.got.cif
#   From: 2010.05.17/outbox.cif.g08.bks.cpg/sg24_16_cif.got.tgz:31642.got - 2010.06.04 00:33:39.
