data_PCOD9333564
_publ_section_title
;
Structure prediction by ZEFSAII (Michael W. Deem and Ramdas Pophale) SiO2 
 PCOD9333564
Probable space group: I 21 21 21
;
_chemical_formula_sum "Si O2"
_cell_formula_units_Z 32
_cell_length_a 15.946954
_cell_length_b 18.051555
_cell_length_c 5.259657
_cell_angle_alpha 90.000000
_cell_angle_beta 90.000000
_cell_angle_gamma 90.000000
_cell_volume 1514.083350
_symmetry_space_group_name_H-M "I 21 21 21"
_symmetry_group_IT_number 24
_symmetry_cell_setting 'orthorhombic'
loop_
_space_group_symop_operation_xyz
x,y,z
-x,1/2-y,z
x,-y,1/2-z
1/2-x,y,-z
1/2+x,1/2+y,1/2+z
1/2-x,-y,1/2+z
1/2+x,1/2-y,-z
-x,1/2+y,1/2-z
loop_
_atom_site_type_symbol
_atom_site_label
_atom_site_fract_x
_atom_site_fract_y
_atom_site_fract_z
Si Si1 0.130270 0.081766 0.359279
Si Si2 0.009884 0.666039 0.892210
Si Si3 0.301554 0.326294 0.248274
Si Si4 0.156593 0.156947 0.857741
O O1 0.169900 0.095823 0.637128
O O2 0.034769 0.109607 0.413166
O O3 0.132680 0.000000 0.250000
O O4 0.173246 0.132625 0.144041
O O5 0.102871 0.648493 0.798866
O O6 0.000000 0.750000 0.999299
O O7 0.945030 0.665667 0.657355
O O8 0.250000 0.343731 0.500000
O O9 0.309879 0.237024 0.220104
O O10 0.250000 0.352368 0.000000
#
# Coordination Sequence:
#
# PCOD9333564 Si02
#       4
#     8   8   8   8
#     4  10  19  34  61  84 109 143 195 241 283 329
#     4   8  20  34  56  84 113 141 191 238 280 328
#     4  11  22  34  55  86 119 151 184 235 292 344
#     4   9  20  35  55  79 114 144 193 232 280 331
#
# _framework density 21.134899000000001
#
# number of rings (size 3 to 8) (size 9 to 14) (size 15 to 20)
#    1.500    1.000    0.000    2.250    3.500    1.000 
#    0.000    0.000    0.000   15.000    6.500    0.000 
#    0.000    0.000    0.000    0.000    0.000    0.000 
#
# Total GULP energy -89140.653592 kJ/mol
# GULP energy per Si atom -5571.290849 kJ/mol
# Density = 2.108680 g / cm^3
# Si number density = 21.134899 Si / 1000 Ang^3
#
#
#
# Elastic Constant Matrix: (Units=GPa)
#
#
# Indices 1 2 3 4 5 6 
#
# 1 117.9332 -1.1717 49.8862 0.0000 0.0000 0.0000
# 2 -1.1717 28.5672 6.1944 0.0000 0.0000 0.0000
# 3 49.8862 6.1944 134.4103 0.0000 0.0000 0.0000
# 4 0.0000 0.0000 0.0000 20.5383 0.0000 0.0000
# 5 0.0000 0.0000 0.0000 0.0000 42.7863 0.0000
# 6 0.0000 0.0000 0.0000 0.0000 0.0000 18.2613
#
#
#
# Elastic Compliance Matrix: (Units=1/GPa)
#
#
# Indices 1 2 3 4 5 6 
#
# 1 0.010102 0.001240 -0.003806 0.000000 0.000000 0.000000
# 2 0.001240 0.035511 -0.002097 0.000000 0.000000 0.000000
# 3 -0.003806 -0.002097 0.008949 0.000000 0.000000 0.000000
# 4 0.000000 0.000000 0.000000 0.048690 0.000000 0.000000
# 5 0.000000 0.000000 0.000000 0.000000 0.023372 0.000000
# 6 0.000000 0.000000 0.000000 0.000000 0.000000 0.054761
#
#
# Mechanical properties :
#
#
# Convention : Reuss Voigt Hill
#
# Bulk Modulus (GPa) = 22.10674 43.41428 32.76051
# Shear Modulus (GPa) = 24.29674 31.38397 27.84035
#
# Velocity S-wave (km/s) = 3.39426 3.85767 3.63336
# Velocity P-wave (km/s) = 5.08368 6.35832 5.75639
#
# Compressibility (1/GPa) = 0.04523508
#
# Stress axis : x y z
#
# Youngs Moduli (GPa) = 98.99207 28.16052 111.74091
#
# Poissons Ratio (x) = -0.03491 0.42533
# Poissons Ratio (y) = -0.12272 0.23428
# Poissons Ratio (z) = 0.37680 0.05904
#
# Static dielectric constant tensor:
#      x y z
#    x 1.914200 0.000000 0.000000 
#    y 0.000000 1.749310 0.000000 
#    z 0.000000 0.000000 1.762320 
# 
# From -- ./inp_files/3193.got.cif
#   From: 2010.05.17/outbox.cif.g08.bks.cpg/sg24_2_cif.got.tgz:3193.got - 2010.06.04 00:33:39.
