data_PCOD9333759
_publ_section_title
;
Structure prediction by ZEFSAII (Michael W. Deem and Ramdas Pophale) SiO2 
 PCOD9333759
Probable space group: I 21 21 21
;
_chemical_formula_sum "Si O2"
_cell_formula_units_Z 48
_cell_length_a 8.667755
_cell_length_b 8.300846
_cell_length_c 33.553034
_cell_angle_alpha 90.000000
_cell_angle_beta 90.000000
_cell_angle_gamma 90.000000
_cell_volume 2414.130711
_symmetry_space_group_name_H-M "I 21 21 21"
_symmetry_group_IT_number 24
_symmetry_cell_setting 'orthorhombic'
loop_
_space_group_symop_operation_xyz
x,y,z
-x,1/2-y,z
x,-y,1/2-z
1/2-x,y,-z
1/2+x,1/2+y,1/2+z
1/2-x,-y,1/2+z
1/2+x,1/2-y,-z
-x,1/2+y,1/2-z
loop_
_atom_site_type_symbol
_atom_site_label
_atom_site_fract_x
_atom_site_fract_y
_atom_site_fract_z
Si Si1 0.790464 0.067605 0.329502
Si Si2 0.536146 0.440509 0.175851
Si Si3 0.742425 0.500000 0.750000
Si Si4 0.446359 0.423857 0.898720
Si Si5 0.825502 0.818308 0.042700
Si Si6 0.000000 0.750000 0.229361
Si Si7 0.240235 0.879020 0.885319
O O1 0.770221 0.226279 0.356820
O O2 0.917975 0.114018 0.297537
O O3 0.624478 0.024888 0.312966
O O4 0.846079 0.924771 0.358459
O O5 0.500000 0.250000 0.173390
O O6 0.655646 0.489720 0.210307
O O7 0.605597 0.514620 0.134616
O O8 0.635395 0.657993 0.748430
O O9 0.500000 0.250000 0.911979
O O10 0.600489 0.522488 0.887542
O O11 0.350551 0.518542 0.932154
O O12 0.774999 0.696946 0.929496
O O13 0.000000 0.750000 0.038655
O O14 0.750000 0.840690 0.000000
#
# Coordination Sequence:
#
# PCOD9333759 Si02
#       7
#     8   8   4   8   8   4   8
#     4  11  21  41  69  88 124 172 219 270 317 399
#     4  12  27  41  64  99 133 163 213 288 338 380
#     4  12  30  44  64  92 132 172 226 268 344 394
#     4  10  19  37  65  96 129 169 219 266 321 392
#     4   9  20  37  64  93 128 170 219 265 318 395
#     4  12  26  46  66  90 124 178 220 270 324 414
#     4  10  20  42  63  92 125 171 221 257 321 399
#
# _framework density 19.882932
#
# number of rings (size 3 to 8) (size 9 to 14) (size 15 to 20)
#    0.000    1.333    3.333    2.500    4.667    2.667 
#    1.500    3.333    0.000    5.000    0.000    0.000 
#    0.000    0.000    0.000    0.000    0.000    0.000 
#
# Total GULP energy -134084.923286 kJ/mol
# GULP energy per Si atom -5586.871804 kJ/mol
# Density = 1.983768 g / cm^3
# Si number density = 19.882932 Si / 1000 Ang^3
#
#
#
# Elastic Constant Matrix: (Units=GPa)
#
#
# Indices 1 2 3 4 5 6 
#
# 1 98.0278 27.4615 53.1542 0.0000 0.0000 0.0000
# 2 27.4615 82.7654 32.4920 0.0000 0.0000 0.0000
# 3 53.1542 32.4920 87.6711 0.0000 0.0000 0.0000
# 4 0.0000 0.0000 0.0000 11.1686 0.0000 0.0000
# 5 0.0000 0.0000 0.0000 0.0000 9.8945 0.0000
# 6 0.0000 0.0000 0.0000 0.0000 0.0000 39.4700
#
#
#
# Elastic Compliance Matrix: (Units=1/GPa)
#
#
# Indices 1 2 3 4 5 6 
#
# 1 0.015397 -0.001690 -0.008709 0.000000 0.000000 0.000000
# 2 -0.001690 0.014325 -0.004285 0.000000 0.000000 0.000000
# 3 -0.008709 -0.004285 0.018274 0.000000 0.000000 0.000000
# 4 0.000000 0.000000 0.000000 0.089537 0.000000 0.000000
# 5 0.000000 0.000000 0.000000 0.000000 0.101066 0.000000
# 6 0.000000 0.000000 0.000000 0.000000 0.000000 0.025336
#
#
# Mechanical properties :
#
#
# Convention : Reuss Voigt Hill
#
# Bulk Modulus (GPa) = 53.67694 54.96441 54.32067
# Shear Modulus (GPa) = 16.69389 22.46371 19.57880
#
# Velocity S-wave (km/s) = 2.90074 3.36489 3.14140
# Velocity P-wave (km/s) = 6.18661 6.54223 6.36690
#
# Compressibility (1/GPa) = 0.01862998
#
# Stress axis : x y z
#
# Youngs Moduli (GPa) = 64.94899 69.80785 54.72215
#
# Poissons Ratio (x) = 0.11796 0.47655
# Poissons Ratio (y) = 0.10975 0.23446
# Poissons Ratio (z) = 0.56562 0.29909
#
# Static dielectric constant tensor:
#      x y z
#    x 1.697230 0.000000 0.000000 
#    y 0.000000 1.718460 0.000000 
#    z 0.000000 0.000000 1.696390 
# 
# From -- ./inp_files/38323.got.cif
#   From: 2010.05.17/outbox.cif.g08.bks.cpg/sg24_20_cif.got.tgz:38323.got - 2010.06.04 00:33:39.
