data_PCOD9333223
_publ_section_title
;
Structure prediction by ZEFSAII (Michael W. Deem and Ramdas Pophale) SiO2 
 PCOD9333223
Probable space group: I 21 21 21
;
_chemical_formula_sum "Si O2"
_cell_formula_units_Z 60
_cell_length_a 19.197724
_cell_length_b 8.700394
_cell_length_c 16.598959
_cell_angle_alpha 90.000000
_cell_angle_beta 90.000000
_cell_angle_gamma 90.000000
_cell_volume 2772.486985
_symmetry_space_group_name_H-M "I 21 21 21"
_symmetry_group_IT_number 24
_symmetry_cell_setting 'orthorhombic'
loop_
_space_group_symop_operation_xyz
x,y,z
-x,1/2-y,z
x,-y,1/2-z
1/2-x,y,-z
1/2+x,1/2+y,1/2+z
1/2-x,-y,1/2+z
1/2+x,1/2-y,-z
-x,1/2+y,1/2-z
loop_
_atom_site_type_symbol
_atom_site_label
_atom_site_fract_x
_atom_site_fract_y
_atom_site_fract_z
Si Si1 0.059579 0.138172 0.690307
Si Si2 0.291776 0.557604 0.840282
Si Si3 0.082387 0.516630 0.057058
Si Si4 0.662651 0.801466 0.081489
Si Si5 0.141396 0.108882 0.317588
Si Si6 0.173886 0.022527 0.007650
Si Si7 0.000000 0.750000 0.170198
Si Si8 0.470089 0.103160 0.057554
O O1 0.122307 0.245835 0.661111
O O2 0.000000 0.250000 0.721647
O O3 0.079593 0.000000 0.750000
O O4 0.029431 0.051010 0.610985
O O5 0.278679 0.500000 0.750000
O O6 0.352313 0.463205 0.887719
O O7 0.223968 0.582832 0.894602
O O8 0.319428 0.731555 0.830087
O O9 0.039006 0.628712 0.114239
O O10 0.115077 0.613884 0.983898
O O11 0.024221 0.410714 0.016492
O O12 0.683057 0.639160 0.040477
O O13 0.147344 0.021865 0.403010
O O14 0.063438 0.159000 0.288764
O O15 0.173119 0.000000 0.250000
O O16 0.250000 0.098445 0.000000
O O17 0.110414 0.116088 0.968237
O O18 0.500000 0.250000 0.103504
#
# Coordination Sequence:
#
# PCOD9333223 Si02
#       8
#     8   8   8   8   8   8   4   8
#     4  11  23  41  70  99 137 181 231 295 355 411
#     4  11  25  42  64 101 140 176 232 290 356 416
#     4  11  19  40  70  92 125 185 233 271 336 419
#     4  11  20  41  73  93 127 188 240 279 333 428
#     4  11  23  39  65  98 136 178 226 286 350 415
#     4  11  20  42  72  94 123 187 240 272 332 423
#     4  10  18  36  64  96 124 168 238 268 334 412
#     4  11  24  42  66 102 139 176 236 293 337 410
#
# _framework density 21.641219
#
# number of rings (size 3 to 8) (size 9 to 14) (size 15 to 20)
#    0.000    1.067    6.667    1.600    0.000    4.267 
#    3.600    1.333    0.000    0.000    0.000    0.000 
#    0.000    0.000    0.000    0.000    0.000    0.000 
#
# Total GULP energy -167407.999787 kJ/mol
# GULP energy per Si atom -5580.266660 kJ/mol
# Density = 2.159196 g / cm^3
# Si number density = 21.641219 Si / 1000 Ang^3
#
#
#
# Elastic Constant Matrix: (Units=GPa)
#
#
# Indices 1 2 3 4 5 6 
#
# 1 91.6566 19.6435 2.5583 0.0000 0.0000 0.0000
# 2 19.6435 32.2787 -1.1183 0.0000 0.0000 0.0000
# 3 2.5583 -1.1183 53.5635 0.0000 0.0000 0.0000
# 4 0.0000 0.0000 0.0000 24.5268 0.0000 0.0000
# 5 0.0000 0.0000 0.0000 0.0000 10.6529 0.0000
# 6 0.0000 0.0000 0.0000 0.0000 0.0000 24.9382
#
#
#
# Elastic Compliance Matrix: (Units=1/GPa)
#
#
# Indices 1 2 3 4 5 6 
#
# 1 0.012578 -0.007681 -0.000761 0.000000 0.000000 0.000000
# 2 -0.007681 0.035693 0.001112 0.000000 0.000000 0.000000
# 3 -0.000761 0.001112 0.018729 0.000000 0.000000 0.000000
# 4 0.000000 0.000000 0.000000 0.040772 0.000000 0.000000
# 5 0.000000 0.000000 0.000000 0.000000 0.093872 0.000000
# 6 0.000000 0.000000 0.000000 0.000000 0.000000 0.040099
#
#
# Mechanical properties :
#
#
# Convention : Reuss Voigt Hill
#
# Bulk Modulus (GPa) = 19.10582 24.40733 21.75658
# Shear Modulus (GPa) = 18.25831 22.45126 20.35479
#
# Velocity S-wave (km/s) = 2.90777 3.22441 3.07018
# Velocity P-wave (km/s) = 4.48566 5.01648 4.75848
#
# Compressibility (1/GPa) = 0.05234006
#
# Stress axis : x y z
#
# Youngs Moduli (GPa) = 79.50632 28.01683 53.39318
#
# Poissons Ratio (x) = 0.21519 0.04064
# Poissons Ratio (y) = 0.61066 -0.05937
# Poissons Ratio (z) = 0.06051 -0.03115
#
# Static dielectric constant tensor:
#      x y z
#    x 1.831900 0.000000 0.000000 
#    y 0.000000 1.771400 0.000000 
#    z 0.000000 0.000000 1.801510 
# 
# From -- ./inp_files/31194.got.cif
#   From: 2010.05.17/outbox.cif.g08.bks.cpg/sg24_16_cif.got.tgz:31194.got - 2010.06.04 00:33:39.
