data_PCOD9333119
_publ_section_title
;
Structure prediction by ZEFSAII (Michael W. Deem and Ramdas Pophale) SiO2 
 PCOD9333119
Probable space group: I 21 21 21
;
_chemical_formula_sum "Si O2"
_cell_formula_units_Z 40
_cell_length_a 10.853161
_cell_length_b 14.734810
_cell_length_c 15.630553
_cell_angle_alpha 90.000000
_cell_angle_beta 90.000000
_cell_angle_gamma 90.000000
_cell_volume 2499.626551
_symmetry_space_group_name_H-M "I 21 21 21"
_symmetry_group_IT_number 24
_symmetry_cell_setting 'orthorhombic'
loop_
_space_group_symop_operation_xyz
x,y,z
-x,1/2-y,z
x,-y,1/2-z
1/2-x,y,-z
1/2+x,1/2+y,1/2+z
1/2-x,-y,1/2+z
1/2+x,1/2-y,-z
-x,1/2+y,1/2-z
loop_
_atom_site_type_symbol
_atom_site_label
_atom_site_fract_x
_atom_site_fract_y
_atom_site_fract_z
Si Si1 0.343137 0.975982 0.341700
Si Si2 0.015076 0.069541 0.015840
Si Si3 0.311955 0.200839 0.870800
Si Si4 0.000000 0.750000 0.230713
Si Si5 0.415354 0.059892 0.663745
Si Si6 0.750000 0.843573 0.500000
O O1 0.426103 0.962390 0.425773
O O2 0.270799 0.880083 0.334284
O O3 0.403366 0.000000 0.250000
O O4 0.232048 0.049329 0.353519
O O5 0.875317 0.101073 0.007301
O O6 0.096185 0.150289 0.061029
O O7 0.022775 0.988842 0.083845
O O8 0.385728 0.251357 0.796398
O O9 0.236394 0.276231 0.920029
O O10 0.028773 0.840877 0.178192
O O11 0.437381 0.000000 0.750000
#
# Coordination Sequence:
#
# PCOD9333119 Si02
#       6
#     8   8   8   4   8   4
#     4  10  19  35  55  80 115 146 183 230 278 332
#     4  11  21  34  54  81 119 147 182 232 289 327
#     4  11  18  31  55  89 111 135 186 239 283 327
#     4  12  18  32  60  90 108 140 190 236 288 332
#     4  10  18  34  56  85 115 141 183 236 278 333
#     4  12  20  32  56  84 114 142 184 242 288 330
#
# _framework density 16.002389999999998
#
# number of rings (size 3 to 8) (size 9 to 14) (size 15 to 20)
#    0.000    1.200   10.000    1.800    0.000    0.000 
#    0.000    3.000    4.400    2.400    0.000    0.000 
#    0.000    0.000    0.000    0.000    0.000    0.000 
#
# Total GULP energy -111385.912771 kJ/mol
# GULP energy per Si atom -5569.295639 kJ/mol
# Density = 1.596597 g / cm^3
# Si number density = 16.002390 Si / 1000 Ang^3
#
#
#
# Elastic Constant Matrix: (Units=GPa)
#
#
# Indices 1 2 3 4 5 6 
#
# 1 46.9996 32.3315 40.9271 0.0000 0.0000 0.0000
# 2 32.3315 83.6523 46.2827 0.0000 0.0000 0.0000
# 3 40.9271 46.2827 98.8252 0.0000 0.0000 0.0000
# 4 0.0000 0.0000 0.0000 38.2037 0.0000 0.0000
# 5 0.0000 0.0000 0.0000 0.0000 23.6196 0.0000
# 6 0.0000 0.0000 0.0000 0.0000 0.0000 9.4963
#
#
#
# Elastic Compliance Matrix: (Units=1/GPa)
#
#
# Indices 1 2 3 4 5 6 
#
# 1 0.036692 -0.007793 -0.011545 0.000000 0.000000 0.000000
# 2 -0.007793 0.017790 -0.005104 0.000000 0.000000 0.000000
# 3 -0.011545 -0.005104 0.017291 0.000000 0.000000 0.000000
# 4 0.000000 0.000000 0.000000 0.026175 0.000000 0.000000
# 5 0.000000 0.000000 0.000000 0.000000 0.042338 0.000000
# 6 0.000000 0.000000 0.000000 0.000000 0.000000 0.105304
#
#
# Mechanical properties :
#
#
# Convention : Reuss Voigt Hill
#
# Bulk Modulus (GPa) = 43.69377 52.06219 47.87798
# Shear Modulus (GPa) = 16.55052 21.59298 19.07175
#
# Velocity S-wave (km/s) = 3.21947 3.67735 3.45600
# Velocity P-wave (km/s) = 6.41746 7.11584 6.77565
#
# Compressibility (1/GPa) = 0.02288656
#
# Stress axis : x y z
#
# Youngs Moduli (GPa) = 27.25410 56.20999 57.83451
#
# Poissons Ratio (x) = 0.43807 0.66773
# Poissons Ratio (y) = 0.21240 0.29520
# Poissons Ratio (z) = 0.31466 0.28691
#
# Static dielectric constant tensor:
#      x y z
#    x 1.551730 0.000000 0.000000 
#    y 0.000000 1.541570 0.000000 
#    z 0.000000 0.000000 1.562650 
# 
# From -- ./inp_files/20641.got.cif
#   From: 2010.05.17/outbox.cif.g08.bks.cpg/sg24_11_cif.got.tgz:20641.got - 2010.06.04 00:33:39.
