data_PCOD9333815
_publ_section_title
;
Structure prediction by ZEFSAII (Michael W. Deem and Ramdas Pophale) SiO2 
 PCOD9333815
Probable space group: I 21 21 21
;
_chemical_formula_sum "Si O2"
_cell_formula_units_Z 56
_cell_length_a 13.962238
_cell_length_b 15.452207
_cell_length_c 12.406010
_cell_angle_alpha 90.000000
_cell_angle_beta 90.000000
_cell_angle_gamma 90.000000
_cell_volume 2676.564300
_symmetry_space_group_name_H-M "I 21 21 21"
_symmetry_group_IT_number 24
_symmetry_cell_setting 'orthorhombic'
loop_
_space_group_symop_operation_xyz
x,y,z
-x,1/2-y,z
x,-y,1/2-z
1/2-x,y,-z
1/2+x,1/2+y,1/2+z
1/2-x,-y,1/2+z
1/2+x,1/2-y,-z
-x,1/2+y,1/2-z
loop_
_atom_site_type_symbol
_atom_site_label
_atom_site_fract_x
_atom_site_fract_y
_atom_site_fract_z
Si Si1 0.395754 0.706372 0.738867
Si Si2 0.143492 0.403933 0.031426
Si Si3 0.514277 0.049722 0.642900
Si Si4 0.359734 0.920379 0.027753
Si Si5 0.701004 0.283370 0.291276
Si Si6 0.437341 0.336105 0.192630
Si Si7 0.379800 0.070600 0.176616
O O1 0.500000 0.750000 0.722439
O O2 0.356653 0.669221 0.625034
O O3 0.415784 0.624090 0.814084
O O4 0.313574 0.765184 0.793298
O O5 0.076858 0.480607 0.076192
O O6 0.250000 0.433718 0.000000
O O7 0.102289 0.364992 0.921509
O O8 0.431602 0.093295 0.570870
O O9 0.475501 0.000000 0.750000
O O10 0.348124 0.840027 0.112860
O O11 0.393742 0.014775 0.071049
O O12 0.250000 0.935318 0.000000
O O13 0.645175 0.192846 0.274775
O O14 0.680347 0.342102 0.184466
O O15 0.500000 0.250000 0.177958
O O16 0.516460 0.406163 0.226633
O O17 0.326458 0.000000 0.250000
#
# Coordination Sequence:
#
# PCOD9333815 Si02
#       7
#     8   8   8   8   8   8   8
#     4  11  23  42  64  95 137 173 215 272 326 391
#     4  11  21  41  66  97 128 173 221 266 326 394
#     4  10  24  44  67  95 135 176 219 264 328 398
#     4  11  22  41  67  93 130 177 215 264 326 394
#     4  10  22  41  64  97 131 163 220 274 323 383
#     4  10  19  39  63  94 128 158 216 274 325 375
#     4   9  20  39  62  92 126 167 213 265 325 379
#
# _framework density 20.922345
#
# number of rings (size 3 to 8) (size 9 to 14) (size 15 to 20)
#    0.000    1.714    2.857    1.286    0.000    4.000 
#    7.714   14.286    0.000    0.000    0.000    0.000 
#    0.000    0.000    0.000    0.000    0.000    0.000 
#
# Total GULP energy -155962.666715 kJ/mol
# GULP energy per Si atom -5570.095240 kJ/mol
# Density = 2.087472 g / cm^3
# Si number density = 20.922345 Si / 1000 Ang^3
#
#
#
# Elastic Constant Matrix: (Units=GPa)
#
#
# Indices 1 2 3 4 5 6 
#
# 1 126.8846 34.8489 56.8213 0.0000 0.0000 0.0000
# 2 34.8489 81.9687 33.1000 0.0000 0.0000 0.0000
# 3 56.8213 33.1000 79.6336 0.0000 0.0000 0.0000
# 4 0.0000 0.0000 0.0000 27.0646 0.0000 0.0000
# 5 0.0000 0.0000 0.0000 0.0000 21.4678 0.0000
# 6 0.0000 0.0000 0.0000 0.0000 0.0000 19.4435
#
#
#
# Elastic Compliance Matrix: (Units=1/GPa)
#
#
# Indices 1 2 3 4 5 6 
#
# 1 0.011836 -0.001949 -0.007635 0.000000 0.000000 0.000000
# 2 -0.001949 0.014981 -0.004837 0.000000 0.000000 0.000000
# 3 -0.007635 -0.004837 0.020016 0.000000 0.000000 0.000000
# 4 0.000000 0.000000 0.000000 0.036949 0.000000 0.000000
# 5 0.000000 0.000000 0.000000 0.000000 0.046581 0.000000
# 6 0.000000 0.000000 0.000000 0.000000 0.000000 0.051431
#
#
# Mechanical properties :
#
#
# Convention : Reuss Voigt Hill
#
# Bulk Modulus (GPa) = 55.58060 59.78081 57.68070
# Shear Modulus (GPa) = 23.08065 24.50963 23.79514
#
# Velocity S-wave (km/s) = 3.32499 3.42637 3.37606
# Velocity P-wave (km/s) = 6.43145 6.65493 6.54414
#
# Compressibility (1/GPa) = 0.01799189
#
# Stress axis : x y z
#
# Youngs Moduli (GPa) = 84.49149 66.74971 49.96075
#
# Poissons Ratio (x) = 0.13008 0.38145
# Poissons Ratio (y) = 0.16465 0.24164
# Poissons Ratio (z) = 0.64510 0.32284
#
# Static dielectric constant tensor:
#      x y z
#    x 1.769520 0.000000 0.000000 
#    y 0.000000 1.843180 0.000000 
#    z 0.000000 0.000000 1.882900 
# 
# From -- ./inp_files/20844.got.cif
#   From: 2010.05.17/outbox.cif.g08.bks.cpg/sg24_11_cif.got.tgz:20844.got - 2010.06.04 00:33:39.
