data_PCOD9333151
_publ_section_title
;
Structure prediction by ZEFSAII (Michael W. Deem and Ramdas Pophale) SiO2 
 PCOD9333151
Probable space group: I 21 21 21
;
_chemical_formula_sum "Si O2"
_cell_formula_units_Z 24
_cell_length_a 14.464259
_cell_length_b 8.525730
_cell_length_c 8.355408
_cell_angle_alpha 90.000000
_cell_angle_beta 90.000000
_cell_angle_gamma 90.000000
_cell_volume 1030.375269
_symmetry_space_group_name_H-M "I 21 21 21"
_symmetry_group_IT_number 24
_symmetry_cell_setting 'orthorhombic'
loop_
_space_group_symop_operation_xyz
x,y,z
-x,1/2-y,z
x,-y,1/2-z
1/2-x,y,-z
1/2+x,1/2+y,1/2+z
1/2-x,-y,1/2+z
1/2+x,1/2-y,-z
-x,1/2+y,1/2-z
loop_
_atom_site_type_symbol
_atom_site_label
_atom_site_fract_x
_atom_site_fract_y
_atom_site_fract_z
Si Si1 0.146064 0.327668 0.942865
Si Si2 0.468127 0.978282 0.560710
Si Si3 0.172569 0.848201 0.865642
O O1 0.155728 0.292646 0.755543
O O2 0.250000 0.354566 0.000000
O O3 0.098746 0.170961 0.021014
O O4 0.070638 0.453486 0.994037
O O5 0.470009 0.000000 0.750000
O O6 0.419442 0.885166 0.036815
O O7 0.195539 0.000000 0.750000
O O8 0.250000 0.825899 0.000000
#
# Coordination Sequence:
#
# PCOD9333151 Si02
#       3
#     8   8   8
#     4  10  21  38  59  88 118 151 198 242 287 351
#     4  10  20  38  62  86 116 156 197 241 291 347
#     4  10  18  34  62  90 116 153 199 243 285 344
#
# _framework density 23.292482
#
# number of rings (size 3 to 8) (size 9 to 14) (size 15 to 20)
#    0.000    2.000    0.000    7.000    0.000    0.000 
#    0.000   45.000    0.000    0.000    0.000    0.000 
#    0.000    0.000    0.000    0.000    0.000    0.000 
#
# Total GULP energy -67175.057465 kJ/mol
# GULP energy per Si atom -5597.921455 kJ/mol
# Density = 2.323947 g / cm^3
# Si number density = 23.292482 Si / 1000 Ang^3
#
#
#
# Elastic Constant Matrix: (Units=GPa)
#
#
# Indices 1 2 3 4 5 6 
#
# 1 275.5049 56.0794 128.6788 0.0000 0.0000 0.0000
# 2 56.0794 33.2605 52.2175 0.0000 0.0000 0.0000
# 3 128.6788 52.2175 255.1175 0.0000 0.0000 0.0000
# 4 0.0000 0.0000 0.0000 14.1290 0.0000 0.0000
# 5 0.0000 0.0000 0.0000 0.0000 14.1495 0.0000
# 6 0.0000 0.0000 0.0000 0.0000 0.0000 11.8834
#
#
#
# Elastic Compliance Matrix: (Units=1/GPa)
#
#
# Indices 1 2 3 4 5 6 
#
# 1 0.005834 -0.007687 -0.001369 0.000000 0.000000 0.000000
# 2 -0.007687 0.054429 -0.007264 0.000000 0.000000 0.000000
# 3 -0.001369 -0.007264 0.006097 0.000000 0.000000 0.000000
# 4 0.000000 0.000000 0.000000 0.070776 0.000000 0.000000
# 5 0.000000 0.000000 0.000000 0.000000 0.070674 0.000000
# 6 0.000000 0.000000 0.000000 0.000000 0.000000 0.084151
#
#
# Mechanical properties :
#
#
# Convention : Reuss Voigt Hill
#
# Bulk Modulus (GPa) = 29.65475 115.31491 72.48483
# Shear Modulus (GPa) = 14.88801 29.82620 22.35711
#
# Velocity S-wave (km/s) = 2.53094 3.58230 3.10149
# Velocity P-wave (km/s) = 4.61519 8.16856 6.63420
#
# Compressibility (1/GPa) = 0.03372141
#
# Stress axis : x y z
#
# Youngs Moduli (GPa) = 171.41370 18.37249 164.01256
#
# Poissons Ratio (x) = 0.14122 0.22457
# Poissons Ratio (y) = 1.31759 1.19131
# Poissons Ratio (z) = 0.23471 0.13345
#
# Static dielectric constant tensor:
#      x y z
#    x 1.813700 0.000000 0.000000 
#    y 0.000000 1.997160 0.000000 
#    z 0.000000 0.000000 1.813630 
# 
# From -- ./inp_files/2837.got.cif
#   From: 2010.05.17/outbox.cif.g08.bks.cpg/sg24_2_cif.got.tgz:2837.got - 2010.06.04 00:33:39.
