data_PCOD9333383
_publ_section_title
;
Structure prediction by ZEFSAII (Michael W. Deem and Ramdas Pophale) SiO2 
 PCOD9333383
Probable space group: I 21 21 21
;
_chemical_formula_sum "Si O2"
_cell_formula_units_Z 48
_cell_length_a 4.978303
_cell_length_b 17.106778
_cell_length_c 28.901214
_cell_angle_alpha 90.000000
_cell_angle_beta 90.000000
_cell_angle_gamma 90.000000
_cell_volume 2461.306118
_symmetry_space_group_name_H-M "I 21 21 21"
_symmetry_group_IT_number 24
_symmetry_cell_setting 'orthorhombic'
loop_
_space_group_symop_operation_xyz
x,y,z
-x,1/2-y,z
x,-y,1/2-z
1/2-x,y,-z
1/2+x,1/2+y,1/2+z
1/2-x,-y,1/2+z
1/2+x,1/2-y,-z
-x,1/2+y,1/2-z
loop_
_atom_site_type_symbol
_atom_site_label
_atom_site_fract_x
_atom_site_fract_y
_atom_site_fract_z
Si Si1 0.238026 0.695777 0.863971
Si Si2 0.127034 0.471204 0.399839
Si Si3 0.176601 0.602514 0.329149
Si Si4 0.758675 0.194938 0.742264
Si Si5 0.672264 0.670652 0.377978
Si Si6 0.139850 0.961062 0.551846
O O1 0.500000 0.750000 0.863483
O O2 0.285551 0.616902 0.891715
O O3 0.171602 0.673549 0.810441
O O4 0.000000 0.750000 0.882140
O O5 0.115643 0.518401 0.351094
O O6 0.335661 0.514503 0.434898
O O7 0.831064 0.479550 0.420330
O O8 0.186712 0.622490 0.275169
O O9 0.477212 0.619167 0.346120
O O10 0.964178 0.662342 0.353851
O O11 0.500000 0.250000 0.741383
O O12 0.000000 0.250000 0.761337
O O13 0.500000 0.750000 0.382823
O O14 0.690089 0.624875 0.426457
O O15 0.250000 0.962679 0.500000
#
# Coordination Sequence:
#
# PCOD9333383 Si02
#       6
#     8   8   8   8   8   8
#     4  10  21  37  57  80 106 139 176 219 275 329
#     4  10  21  37  58  80 105 140 177 221 275 325
#     4  10  19  31  51  78 109 145 182 214 250 300
#     4  10  19  31  50  77 110 146 180 214 253 302
#     4  10  19  32  51  77 109 145 180 213 251 299
#     4  10  21  38  58  80 106 139 178 221 273 325
#
# _framework density 19.501842
#
# number of rings (size 3 to 8) (size 9 to 14) (size 15 to 20)
#    0.000    2.000    0.000    4.500    0.000    0.667 
#    0.000    5.000    0.000   22.000    0.000    0.000 
#    0.000    0.000    0.000    0.000    0.000    0.000 
#
# Total GULP energy -133774.563693 kJ/mol
# GULP energy per Si atom -5573.940154 kJ/mol
# Density = 1.945745 g / cm^3
# Si number density = 19.501842 Si / 1000 Ang^3
#
#
#
# Elastic Constant Matrix: (Units=GPa)
#
#
# Indices 1 2 3 4 5 6 
#
# 1 92.3445 1.5015 -12.7877 0.0000 0.0000 0.0000
# 2 1.5015 58.3504 -3.9664 0.0000 0.0000 0.0000
# 3 -12.7877 -3.9664 25.4093 0.0000 0.0000 0.0000
# 4 0.0000 0.0000 0.0000 6.2846 0.0000 0.0000
# 5 0.0000 0.0000 0.0000 0.0000 10.3037 0.0000
# 6 0.0000 0.0000 0.0000 0.0000 0.0000 27.3222
#
#
#
# Elastic Compliance Matrix: (Units=1/GPa)
#
#
# Indices 1 2 3 4 5 6 
#
# 1 0.011641 0.000100 0.005874 0.000000 0.000000 0.000000
# 2 0.000100 0.017322 0.002754 0.000000 0.000000 0.000000
# 3 0.005874 0.002754 0.042742 0.000000 0.000000 0.000000
# 4 0.000000 0.000000 0.000000 0.159120 0.000000 0.000000
# 5 0.000000 0.000000 0.000000 0.000000 0.097053 0.000000
# 6 0.000000 0.000000 0.000000 0.000000 0.000000 0.036600
#
#
# Mechanical properties :
#
#
# Convention : Reuss Voigt Hill
#
# Bulk Modulus (GPa) = 11.21567 16.17769 13.69668
# Shear Modulus (GPa) = 13.27167 21.53922 17.40544
#
# Velocity S-wave (km/s) = 2.61153 3.32696 2.99072
# Velocity P-wave (km/s) = 3.85448 4.80330 4.35481
#
# Compressibility (1/GPa) = 0.08916097
#
# Stress axis : x y z
#
# Youngs Moduli (GPa) = 85.90470 57.72844 23.39635
#
# Poissons Ratio (x) = -0.00576 -0.13743
# Poissons Ratio (y) = -0.00857 -0.06444
# Poissons Ratio (z) = -0.50460 -0.15900
#
# Static dielectric constant tensor:
#      x y z
#    x 1.675890 0.000000 0.000000 
#    y 0.000000 1.674550 0.000000 
#    z 0.000000 0.000000 1.707390 
# 
# From -- ./inp_files/4929.got.cif
#   From: 2010.05.17/outbox.cif.g08.bks.cpg/sg24_3_cif.got.tgz:4929.got - 2010.06.04 00:33:39.
