data_PCOD9333068
_publ_section_title
;
Structure prediction by ZEFSAII (Michael W. Deem and Ramdas Pophale) SiO2 
 PCOD9333068
Probable space group: I 21 21 21
;
_chemical_formula_sum "Si O2"
_cell_formula_units_Z 44
_cell_length_a 9.248714
_cell_length_b 27.581045
_cell_length_c 7.611293
_cell_angle_alpha 90.000000
_cell_angle_beta 90.000000
_cell_angle_gamma 90.000000
_cell_volume 1941.558620
_symmetry_space_group_name_H-M "I 21 21 21"
_symmetry_group_IT_number 24
_symmetry_cell_setting 'orthorhombic'
loop_
_space_group_symop_operation_xyz
x,y,z
-x,1/2-y,z
x,-y,1/2-z
1/2-x,y,-z
1/2+x,1/2+y,1/2+z
1/2-x,-y,1/2+z
1/2+x,1/2-y,-z
-x,1/2+y,1/2-z
loop_
_atom_site_type_symbol
_atom_site_label
_atom_site_fract_x
_atom_site_fract_y
_atom_site_fract_z
Si Si1 0.102488 0.000000 0.750000
Si Si2 0.826147 0.308819 0.309328
Si Si3 0.922659 0.060997 0.486991
Si Si4 0.861480 0.227813 0.882738
Si Si5 0.812609 0.581446 0.203357
Si Si6 0.582299 0.827419 0.039250
O O1 0.208990 0.044002 0.800497
O O2 0.999187 0.019662 0.598754
O O3 0.750000 0.306860 0.500000
O O4 0.746048 0.268952 0.194023
O O5 0.805155 0.363115 0.235132
O O6 0.991972 0.306501 0.375696
O O7 0.750000 0.054432 0.500000
O O8 0.950207 0.115659 0.560475
O O9 0.019612 0.064311 0.309178
O O10 0.936460 0.199566 0.722710
O O11 0.000000 0.250000 0.981242
O O12 0.750000 0.196876 0.000000
O O13 0.750000 0.580442 0.000000
O O14 0.750000 0.822127 0.000000
#
# Coordination Sequence:
#
# PCOD9333068 Si02
#       6
#     4   8   8   8   8   8
#     4  10  18  32  60  82 120 146 178 254 330 360
#     4  10  19  40  66  87 113 166 227 261 291 370
#     4   9  19  37  59  90 118 153 208 266 302 359
#     4  12  27  40  59  93 139 167 203 269 340 373
#     4   8  17  33  59  86 111 148 208 260 299 356
#     4  10  22  40  69  92 118 168 226 263 301 376
#
# _framework density 22.662205
#
# number of rings (size 3 to 8) (size 9 to 14) (size 15 to 20)
#    0.000    2.182    1.818    1.636    2.545    0.727 
#    0.000    3.636    0.000    0.000    0.000    0.000 
#    0.000    0.000    0.000    0.000    0.000    0.000 
#
# Total GULP energy -122732.507191 kJ/mol
# GULP energy per Si atom -5578.750327 kJ/mol
# Density = 2.261062 g / cm^3
# Si number density = 22.662205 Si / 1000 Ang^3
#
#
#
# Elastic Constant Matrix: (Units=GPa)
#
#
# Indices 1 2 3 4 5 6 
#
# 1 184.2345 44.1651 25.8914 0.0004 0.0001 0.0001
# 2 44.1651 106.2280 23.8317 0.0004 0.0003 0.0000
# 3 25.8914 23.8317 42.3068 0.0021 0.0029 0.0003
# 4 0.0004 0.0004 0.0021 11.2570 0.0000 -0.0003
# 5 0.0001 0.0003 0.0029 0.0000 32.9069 0.0003
# 6 0.0001 0.0000 0.0003 -0.0003 0.0003 19.9171
#
#
#
# Elastic Compliance Matrix: (Units=1/GPa)
#
#
# Indices 1 2 3 4 5 6 
#
# 1 0.006291 -0.002005 -0.002720 0.000000 0.000000 0.000000
# 2 -0.002005 0.011415 -0.005203 0.000001 0.000000 0.000000
# 3 -0.002720 -0.005203 0.028232 -0.000005 -0.000002 0.000000
# 4 0.000000 0.000001 -0.000005 0.088834 0.000000 0.000001
# 5 0.000000 0.000000 -0.000002 0.000000 0.030389 0.000000
# 6 0.000000 0.000000 0.000000 0.000001 0.000000 0.050208
#
#
# Mechanical properties :
#
#
# Convention : Reuss Voigt Hill
#
# Bulk Modulus (GPa) = 38.34176 57.83839 48.09008
# Shear Modulus (GPa) = 20.49859 28.74160 24.62009
#
# Velocity S-wave (km/s) = 3.01080 3.56513 3.29963
# Velocity P-wave (km/s) = 5.38907 6.52106 5.98190
#
# Compressibility (1/GPa) = 0.02608122
#
# Stress axis : x y z
#
# Youngs Moduli (GPa) = 158.96073 87.60719 35.42020
#
# Poissons Ratio (x) = 0.17567 0.09636
# Poissons Ratio (y) = 0.31874 0.18428
# Poissons Ratio (z) = 0.43244 0.45580
#
# Static dielectric constant tensor:
#      x y z
#    x 1.968920 0.000000 -0.000010 
#    y 0.000000 1.884170 0.000000 
#    z -0.000010 0.000000 1.975610 
# 
# From -- ./inp_files/9663.got.cif
#   From: 2010.05.17/outbox.cif.g08.bks.cpg/sg24_5_cif.got.tgz:9663.got - 2010.06.04 00:33:39.
