data_PCOD9333893
_publ_section_title
;
Structure prediction by ZEFSAII (Michael W. Deem and Ramdas Pophale) SiO2 
 PCOD9333893
Probable space group: I 21 21 21
;
_chemical_formula_sum "Si O2"
_cell_formula_units_Z 52
_cell_length_a 11.770840
_cell_length_b 8.238537
_cell_length_c 27.254350
_cell_angle_alpha 90.000000
_cell_angle_beta 90.000000
_cell_angle_gamma 90.000000
_cell_volume 2642.976988
_symmetry_space_group_name_H-M "I 21 21 21"
_symmetry_group_IT_number 24
_symmetry_cell_setting 'orthorhombic'
loop_
_space_group_symop_operation_xyz
x,y,z
-x,1/2-y,z
x,-y,1/2-z
1/2-x,y,-z
1/2+x,1/2+y,1/2+z
1/2-x,-y,1/2+z
1/2+x,1/2-y,-z
-x,1/2+y,1/2-z
loop_
_atom_site_type_symbol
_atom_site_label
_atom_site_fract_x
_atom_site_fract_y
_atom_site_fract_z
Si Si1 0.303887 0.403454 0.369580
Si Si2 0.585250 0.500705 0.506690
Si Si3 0.363682 0.764040 0.335356
Si Si4 0.126783 0.311697 0.730966
Si Si5 0.831574 0.983565 0.453855
Si Si6 0.000000 0.750000 0.932906
Si Si7 0.731841 0.366127 0.069525
O O1 0.318107 0.588923 0.352010
O O2 0.300928 0.304491 0.318782
O O3 0.201504 0.400541 0.408384
O O4 0.418103 0.357309 0.399195
O O5 0.461548 0.514735 0.529765
O O6 0.579358 0.351106 0.469528
O O7 0.627016 0.640730 0.468863
O O8 0.681017 0.500720 0.548583
O O9 0.500000 0.750000 0.337526
O O10 0.332552 0.788710 0.278527
O O11 0.315687 0.886929 0.375940
O O12 0.119603 0.500000 0.750000
O O13 0.000000 0.250000 0.719063
O O14 0.750000 0.021422 0.500000
O O15 0.799108 0.802195 0.436278
#
# Coordination Sequence:
#
# PCOD9333893 Si02
#       7
#     8   8   8   8   8   4   8
#     4  10  20  32  50  76 110 151 178 219 275 341
#     4  11  23  34  49  76 113 151 185 219 271 336
#     4   9  18  32  54  81 107 136 182 238 284 318
#     4   9  17  32  53  78 113 142 184 230 287 338
#     4  11  20  33  53  76 109 144 183 230 273 312
#     4  12  22  32  50  70 118 152 180 202 272 344
#     4  10  22  34  56  76 107 142 184 239 272 317
#
# _framework density 19.674783999999999
#
# number of rings (size 3 to 8) (size 9 to 14) (size 15 to 20)
#    0.000    1.846    3.846    1.385    2.154    2.462 
#    0.000    0.000    0.000    0.000    0.000    0.000 
#  110.769    0.000    0.000    0.000    0.000    0.000 
#
# Total GULP energy -145002.112322 kJ/mol
# GULP energy per Si atom -5577.004320 kJ/mol
# Density = 1.963000 g / cm^3
# Si number density = 19.674784 Si / 1000 Ang^3
#
#
#
# Elastic Constant Matrix: (Units=GPa)
#
#
# Indices 1 2 3 4 5 6 
#
# 1 112.8196 8.5900 73.4011 0.0000 0.0000 0.0000
# 2 8.5900 17.2029 23.9247 0.0000 0.0000 0.0000
# 3 73.4011 23.9247 170.9961 0.0000 0.0000 0.0000
# 4 0.0000 0.0000 0.0000 4.7729 0.0000 0.0000
# 5 0.0000 0.0000 0.0000 0.0000 70.4255 0.0000
# 6 0.0000 0.0000 0.0000 0.0000 0.0000 17.3388
#
#
#
# Elastic Compliance Matrix: (Units=1/GPa)
#
#
# Indices 1 2 3 4 5 6 
#
# 1 0.012329 0.001495 -0.005502 0.000000 0.000000 0.000000
# 2 0.001495 0.072355 -0.010765 0.000000 0.000000 0.000000
# 3 -0.005502 -0.010765 0.009716 0.000000 0.000000 0.000000
# 4 0.000000 0.000000 0.000000 0.209517 0.000000 0.000000
# 5 0.000000 0.000000 0.000000 0.000000 0.014199 0.000000
# 6 0.000000 0.000000 0.000000 0.000000 0.000000 0.057674
#
#
# Mechanical properties :
#
#
# Convention : Reuss Voigt Hill
#
# Bulk Modulus (GPa) = 15.41873 56.98336 36.20104
# Shear Modulus (GPa) = 11.71090 31.51429 21.61259
#
# Velocity S-wave (km/s) = 2.44237 4.00654 3.31795
# Velocity P-wave (km/s) = 3.97585 7.10132 5.75483
#
# Compressibility (1/GPa) = 0.06485619
#
# Stress axis : x y z
#
# Youngs Moduli (GPa) = 81.10806 13.82078 102.92484
#
# Poissons Ratio (x) = -0.02066 0.56624
# Poissons Ratio (y) = -0.12124 1.10799
# Poissons Ratio (z) = 0.44622 0.14878
#
# Static dielectric constant tensor:
#      x y z
#    x 1.664720 0.000000 0.000000 
#    y 0.000000 1.809560 0.000000 
#    z 0.000000 0.000000 1.757630 
# 
# From -- ./inp_files/37173.got.cif
#   From: 2010.05.17/outbox.cif.g08.bks.cpg/sg24_19_cif.got.tgz:37173.got - 2010.06.04 00:33:39.
