data_PCOD9333078
_publ_section_title
;
Structure prediction by ZEFSAII (Michael W. Deem and Ramdas Pophale) SiO2 
 PCOD9333078
Probable space group: I 21 21 21
;
_chemical_formula_sum "Si O2"
_cell_formula_units_Z 44
_cell_length_a 9.109782
_cell_length_b 12.224070
_cell_length_c 16.104683
_cell_angle_alpha 90.000000
_cell_angle_beta 90.000000
_cell_angle_gamma 90.000000
_cell_volume 1793.395159
_symmetry_space_group_name_H-M "I 21 21 21"
_symmetry_group_IT_number 24
_symmetry_cell_setting 'orthorhombic'
loop_
_space_group_symop_operation_xyz
x,y,z
-x,1/2-y,z
x,-y,1/2-z
1/2-x,y,-z
1/2+x,1/2+y,1/2+z
1/2-x,-y,1/2+z
1/2+x,1/2-y,-z
-x,1/2+y,1/2-z
loop_
_atom_site_type_symbol
_atom_site_label
_atom_site_fract_x
_atom_site_fract_y
_atom_site_fract_z
Si Si1 0.578254 0.559105 0.007033
Si Si2 0.233088 0.348229 0.809836
Si Si3 0.915241 0.914938 0.845656
Si Si4 0.476968 0.055343 0.834374
Si Si5 0.880783 0.678185 0.562433
Si Si6 0.812393 0.500000 0.750000
O O1 0.457543 0.623674 0.061495
O O2 0.577735 0.448134 0.063245
O O3 0.750000 0.595882 0.000000
O O4 0.524444 0.520329 0.916188
O O5 0.165934 0.465826 0.840096
O O6 0.191403 0.341968 0.712478
O O7 0.402863 0.349541 0.837937
O O8 0.152889 0.252145 0.858591
O O9 0.073214 0.921995 0.797710
O O10 0.304422 0.064601 0.809200
O O11 0.536284 0.000000 0.750000
O O12 0.750000 0.676841 0.500000
O O13 0.000000 0.750000 0.515924
#
# Coordination Sequence:
#
# PCOD9333078 Si02
#       6
#     8   8   8   8   8   4
#     4  11  20  32  54  81 113 147 194 229 280 346
#     4  10  20  34  47  73 108 147 188 226 284 331
#     4  10  18  33  53  71 105 150 187 238 266 345
#     4  10  18  33  51  75 109 148 188 236 275 332
#     4  11  22  33  49  78 116 153 179 224 284 348
#     4   8  16  30  50  70 100 148 178 234 272 318
#
# _framework density 24.534469999999999
#
# number of rings (size 3 to 8) (size 9 to 14) (size 15 to 20)
#    0.545    1.455    5.455    1.091    0.000    0.000 
#    0.000    0.000    0.000    0.000    0.000    0.000 
#    0.000   34.909    0.000    0.000    0.000    0.000 
#
# Total GULP energy -122484.992496 kJ/mol
# GULP energy per Si atom -5567.499659 kJ/mol
# Density = 2.447863 g / cm^3
# Si number density = 24.534470 Si / 1000 Ang^3
#
#
#
# Elastic Constant Matrix: (Units=GPa)
#
#
# Indices 1 2 3 4 5 6 
#
# 1 125.0627 -3.6323 27.9032 0.0000 0.0000 0.0000
# 2 -3.6323 52.5229 12.5819 0.0000 0.0000 0.0000
# 3 27.9032 12.5819 163.6954 0.0000 0.0000 0.0000
# 4 0.0000 0.0000 0.0000 30.7205 0.0000 0.0000
# 5 0.0000 0.0000 0.0000 0.0000 40.8600 0.0000
# 6 0.0000 0.0000 0.0000 0.0000 0.0000 21.4349
#
#
#
# Elastic Compliance Matrix: (Units=1/GPa)
#
#
# Indices 1 2 3 4 5 6 
#
# 1 0.008357 0.000936 -0.001497 0.000000 0.000000 0.000000
# 2 0.000936 0.019501 -0.001659 0.000000 0.000000 0.000000
# 3 -0.001497 -0.001659 0.006491 0.000000 0.000000 0.000000
# 4 0.000000 0.000000 0.000000 0.032552 0.000000 0.000000
# 5 0.000000 0.000000 0.000000 0.000000 0.024474 0.000000
# 6 0.000000 0.000000 0.000000 0.000000 0.000000 0.046653
#
#
# Mechanical properties :
#
#
# Convention : Reuss Voigt Hill
#
# Bulk Modulus (GPa) = 33.43058 46.10962 39.77010
# Shear Modulus (GPa) = 32.80060 38.89829 35.84944
#
# Velocity S-wave (km/s) = 3.66036 3.98610 3.82669
# Velocity P-wave (km/s) = 5.61425 6.32613 5.98079
#
# Compressibility (1/GPa) = 0.02991274
#
# Stress axis : x y z
#
# Youngs Moduli (GPa) = 119.65906 51.27841 154.04813
#
# Poissons Ratio (x) = -0.04802 0.23053
# Poissons Ratio (y) = -0.11205 0.25549
# Poissons Ratio (z) = 0.17907 0.08505
#
# Static dielectric constant tensor:
#      x y z
#    x 1.994060 0.000000 0.000000 
#    y 0.000000 1.753570 0.000000 
#    z 0.000000 0.000000 2.078890 
# 
# From -- ./inp_files/29407.got.cif
#   From: 2010.05.17/outbox.cif.g08.bks.cpg/sg24_15_cif.got.tgz:29407.got - 2010.06.04 00:33:39.
