data_PCOD9333748
_publ_section_title
;
Structure prediction by ZEFSAII (Michael W. Deem and Ramdas Pophale) SiO2 
 PCOD9333748
Probable space group: I 21 21 21
;
_chemical_formula_sum "Si O2"
_cell_formula_units_Z 48
_cell_length_a 14.723674
_cell_length_b 15.277538
_cell_length_c 9.837963
_cell_angle_alpha 90.000000
_cell_angle_beta 90.000000
_cell_angle_gamma 90.000000
_cell_volume 2212.966046
_symmetry_space_group_name_H-M "I 21 21 21"
_symmetry_group_IT_number 24
_symmetry_cell_setting 'orthorhombic'
loop_
_space_group_symop_operation_xyz
x,y,z
-x,1/2-y,z
x,-y,1/2-z
1/2-x,y,-z
1/2+x,1/2+y,1/2+z
1/2-x,-y,1/2+z
1/2+x,1/2-y,-z
-x,1/2+y,1/2-z
loop_
_atom_site_type_symbol
_atom_site_label
_atom_site_fract_x
_atom_site_fract_y
_atom_site_fract_z
Si Si1 0.143868 0.571300 0.470373
Si Si2 0.035371 0.606478 0.731738
Si Si3 0.039675 0.333258 0.256658
Si Si4 0.851961 0.584237 0.153794
Si Si5 0.144507 0.361958 0.507462
Si Si6 0.344279 0.908033 0.170399
O O1 0.250000 0.588909 0.500000
O O2 0.079344 0.615032 0.584096
O O3 0.109058 0.609548 0.329282
O O4 0.133032 0.465858 0.472737
O O5 0.034804 0.500000 0.750000
O O6 0.933042 0.637537 0.765321
O O7 0.101648 0.646803 0.844438
O O8 0.091096 0.307155 0.395027
O O9 0.000000 0.250000 0.177962
O O10 0.948791 0.381260 0.301005
O O11 0.842093 0.500000 0.250000
O O12 0.756069 0.634617 0.180345
O O13 0.857928 0.571931 0.990381
O O14 0.250000 0.341399 0.500000
O O15 0.340694 0.000000 0.250000
#
# Coordination Sequence:
#
# PCOD9333748 Si02
#       6
#     8   8   8   8   8   8
#     4  10  21  39  66  87 118 154 210 270 306 355
#     4   9  17  31  56  89 113 140 186 255 309 347
#     4  12  25  40  55  89 127 168 199 241 313 381
#     4  10  20  36  61  85 116 155 196 250 295 349
#     4  10  19  37  64  92 112 153 211 268 314 349
#     4   9  18  33  57  92 116 138 191 242 299 356
#
# _framework density 21.690346999999999
#
# number of rings (size 3 to 8) (size 9 to 14) (size 15 to 20)
#    0.000    2.000    1.667    2.500    4.667    2.667 
#    3.000    2.500    0.000    0.000    0.000    0.000 
#    0.000    0.000    0.000    0.000    0.000    0.000 
#
# Total GULP energy -133876.399674 kJ/mol
# GULP energy per Si atom -5578.183320 kJ/mol
# Density = 2.164098 g / cm^3
# Si number density = 21.690347 Si / 1000 Ang^3
#
#
#
# Elastic Constant Matrix: (Units=GPa)
#
#
# Indices 1 2 3 4 5 6 
#
# 1 179.6402 19.5441 42.6528 0.0000 0.0000 0.0000
# 2 19.5441 27.0600 4.8000 0.0000 0.0000 0.0000
# 3 42.6528 4.8000 94.0754 0.0000 0.0000 0.0000
# 4 0.0000 0.0000 0.0000 9.7868 0.0000 0.0000
# 5 0.0000 0.0000 0.0000 0.0000 43.5483 0.0000
# 6 0.0000 0.0000 0.0000 0.0000 0.0000 2.5140
#
#
#
# Elastic Compliance Matrix: (Units=1/GPa)
#
#
# Indices 1 2 3 4 5 6 
#
# 1 0.006709 -0.004345 -0.002820 0.000000 0.000000 0.000000
# 2 -0.004345 0.040107 -0.000076 0.000000 0.000000 0.000000
# 3 -0.002820 -0.000076 0.011912 0.000000 0.000000 0.000000
# 4 0.000000 0.000000 0.000000 0.102179 0.000000 0.000000
# 5 0.000000 0.000000 0.000000 0.000000 0.022963 0.000000
# 6 0.000000 0.000000 0.000000 0.000000 0.000000 0.397767
#
#
# Mechanical properties :
#
#
# Convention : Reuss Voigt Hill
#
# Bulk Modulus (GPa) = 22.60151 48.30771 35.45461
# Shear Modulus (GPa) = 8.18507 26.75506 17.47006
#
# Velocity S-wave (km/s) = 1.94468 3.51593 2.84109
# Velocity P-wave (km/s) = 3.93511 6.22915 5.20996
#
# Compressibility (1/GPa) = 0.04424482
#
# Stress axis : x y z
#
# Youngs Moduli (GPa) = 149.05281 24.93337 83.94715
#
# Poissons Ratio (x) = 0.10834 0.23674
# Poissons Ratio (y) = 0.64769 0.00640
# Poissons Ratio (z) = 0.42034 0.00190
#
# Static dielectric constant tensor:
#      x y z
#    x 1.813770 0.000000 0.000000 
#    y 0.000000 1.917720 0.000000 
#    z 0.000000 0.000000 1.735880 
# 
# From -- ./inp_files/12823.got.cif
#   From: 2010.05.17/outbox.cif.g08.bks.cpg/sg24_7_cif.got.tgz:12823.got - 2010.06.04 00:33:39.
