data_PCOD9333758
_publ_section_title
;
Structure prediction by ZEFSAII (Michael W. Deem and Ramdas Pophale) SiO2 
 PCOD9333758
Probable space group: I 21 21 21
;
_chemical_formula_sum "Si O2"
_cell_formula_units_Z 56
_cell_length_a 15.967214
_cell_length_b 14.354954
_cell_length_c 11.941009
_cell_angle_alpha 90.000000
_cell_angle_beta 90.000000
_cell_angle_gamma 90.000000
_cell_volume 2736.982224
_symmetry_space_group_name_H-M "I 21 21 21"
_symmetry_group_IT_number 24
_symmetry_cell_setting 'orthorhombic'
loop_
_space_group_symop_operation_xyz
x,y,z
-x,1/2-y,z
x,-y,1/2-z
1/2-x,y,-z
1/2+x,1/2+y,1/2+z
1/2-x,-y,1/2+z
1/2+x,1/2-y,-z
-x,1/2+y,1/2-z
loop_
_atom_site_type_symbol
_atom_site_label
_atom_site_fract_x
_atom_site_fract_y
_atom_site_fract_z
Si Si1 0.117903 0.395515 0.226410
Si Si2 0.426406 0.892951 0.731925
Si Si3 0.325982 0.801570 0.131085
Si Si4 0.188904 0.012099 0.884970
Si Si5 0.368454 0.756124 0.906644
Si Si6 0.167475 0.756005 0.430807
Si Si7 0.912846 0.704067 0.644897
O O1 0.143017 0.500000 0.250000
O O2 0.119897 0.338622 0.341039
O O3 0.173464 0.337583 0.140324
O O4 0.021130 0.390972 0.185904
O O5 0.424165 0.834811 0.847309
O O6 0.362919 0.837928 0.651402
O O7 0.404545 0.000000 0.750000
O O8 0.226935 0.790123 0.114681
O O9 0.348417 0.773818 0.255916
O O10 0.348610 0.908729 0.103069
O O11 0.375830 0.744057 0.038294
O O12 0.118775 0.095551 0.881575
O O13 0.220462 0.000000 0.750000
O O14 0.250000 0.021227 0.000000
O O15 0.250000 0.777752 0.500000
O O16 0.099876 0.744892 0.527605
O O17 0.000000 0.750000 0.686282
#
# Coordination Sequence:
#
# PCOD9333758 Si02
#       7
#     8   8   8   8   8   8   8
#     4  10  22  43  65  92 125 166 217 269 326 391
#     4  10  22  37  63  96 128 162 204 266 329 387
#     4  10  22  39  61  95 130 168 217 271 334 391
#     4  10  21  40  65 105 138 175 225 284 345 408
#     4  10  19  37  65  95 124 159 215 274 330 380
#     4  11  22  40  64  92 125 167 214 268 322 384
#     4  11  23  37  59  87 139 182 208 256 327 416
#
# _framework density 20.46049
#
# number of rings (size 3 to 8) (size 9 to 14) (size 15 to 20)
#    0.000    1.714    1.429    4.714    2.000    6.286 
#    2.571    0.000    3.143    0.000    0.000    0.000 
#    0.000    0.000    0.000    0.000    0.000    0.000 
#
# Total GULP energy -155868.453551 kJ/mol
# GULP energy per Si atom -5566.730484 kJ/mol
# Density = 2.041392 g / cm^3
# Si number density = 20.460490 Si / 1000 Ang^3
#
#
#
# Elastic Constant Matrix: (Units=GPa)
#
#
# Indices 1 2 3 4 5 6 
#
# 1 52.0477 11.6992 8.9371 0.0000 0.0000 0.0000
# 2 11.6992 138.6985 46.0010 0.0000 0.0000 0.0000
# 3 8.9371 46.0010 119.3288 0.0000 0.0000 0.0000
# 4 0.0000 0.0000 0.0000 11.2938 0.0000 0.0000
# 5 0.0000 0.0000 0.0000 0.0000 23.5548 0.0000
# 6 0.0000 0.0000 0.0000 0.0000 0.0000 25.8893
#
#
#
# Elastic Compliance Matrix: (Units=1/GPa)
#
#
# Indices 1 2 3 4 5 6 
#
# 1 0.019679 -0.001343 -0.000956 0.000000 0.000000 0.000000
# 2 -0.001343 0.008358 -0.003122 0.000000 0.000000 0.000000
# 3 -0.000956 -0.003122 0.009655 0.000000 0.000000 0.000000
# 4 0.000000 0.000000 0.000000 0.088544 0.000000 0.000000
# 5 0.000000 0.000000 0.000000 0.000000 0.042454 0.000000
# 6 0.000000 0.000000 0.000000 0.000000 0.000000 0.038626
#
#
# Mechanical properties :
#
#
# Convention : Reuss Voigt Hill
#
# Bulk Modulus (GPa) = 37.24176 49.26108 43.25142
# Shear Modulus (GPa) = 22.01584 28.37676 25.19630
#
# Velocity S-wave (km/s) = 3.28383 3.72816 3.51303
# Velocity P-wave (km/s) = 5.71134 6.53151 6.13515
#
# Compressibility (1/GPa) = 0.02685158
#
# Stress axis : x y z
#
# Youngs Moduli (GPa) = 50.81519 119.63925 103.57119
#
# Poissons Ratio (x) = 0.16065 0.09904
# Poissons Ratio (y) = 0.06823 0.32331
# Poissons Ratio (z) = 0.04859 0.37347
#
# Static dielectric constant tensor:
#      x y z
#    x 1.830520 0.000000 0.000000 
#    y 0.000000 1.729740 0.000000 
#    z 0.000000 0.000000 1.801570 
# 
# From -- ./inp_files/20848.got.cif
#   From: 2010.05.17/outbox.cif.g08.bks.cpg/sg24_11_cif.got.tgz:20848.got - 2010.06.04 00:33:39.
