data_PCOD9333880
_publ_section_title
;
Structure prediction by ZEFSAII (Michael W. Deem and Ramdas Pophale) SiO2 
 PCOD9333880
Probable space group: I 21 21 21
;
_chemical_formula_sum "Si O2"
_cell_formula_units_Z 56
_cell_length_a 19.781225
_cell_length_b 9.201214
_cell_length_c 14.611425
_cell_angle_alpha 90.000000
_cell_angle_beta 90.000000
_cell_angle_gamma 90.000000
_cell_volume 2659.444231
_symmetry_space_group_name_H-M "I 21 21 21"
_symmetry_group_IT_number 24
_symmetry_cell_setting 'orthorhombic'
loop_
_space_group_symop_operation_xyz
x,y,z
-x,1/2-y,z
x,-y,1/2-z
1/2-x,y,-z
1/2+x,1/2+y,1/2+z
1/2-x,-y,1/2+z
1/2+x,1/2-y,-z
-x,1/2+y,1/2-z
loop_
_atom_site_type_symbol
_atom_site_label
_atom_site_fract_x
_atom_site_fract_y
_atom_site_fract_z
Si Si1 0.233845 0.733166 0.626333
Si Si2 0.647063 0.486952 0.054120
Si Si3 0.107907 0.265422 0.066375
Si Si4 0.819670 0.272064 0.404935
Si Si5 0.355643 0.481732 0.459382
Si Si6 0.330500 0.761489 0.171872
Si Si7 0.564402 0.326648 0.739148
O O1 0.313845 0.726858 0.605789
O O2 0.200147 0.594596 0.577714
O O3 0.197165 0.736174 0.725918
O O4 0.208804 0.885510 0.585226
O O5 0.630976 0.590392 0.141565
O O6 0.599535 0.367389 0.005185
O O7 0.662461 0.597507 0.972605
O O8 0.069748 0.240885 0.160096
O O9 0.091852 0.410172 0.008751
O O10 0.741540 0.275047 0.379692
O O11 0.867918 0.290114 0.317488
O O12 0.833153 0.124107 0.459134
O O13 0.369632 0.374472 0.373906
O O14 0.500000 0.250000 0.692289
O O15 0.557521 0.500000 0.750000
#
# Coordination Sequence:
#
# PCOD9333880 Si02
#       7
#     8   8   8   8   8   8   8
#     4  11  19  31  52  86 120 156 194 228 279 356
#     4  10  20  31  54  80 111 156 198 232 284 359
#     4  11  20  38  55  76 118 159 195 236 293 340
#     4  11  20  38  55  76 118 159 195 236 293 340
#     4  10  22  33  52  82 117 162 194 226 282 359
#     4  11  19  31  52  86 120 156 194 228 279 356
#     4  12  28  44  62  86 112 154 212 258 291 342
#
# _framework density 21.057032
#
# number of rings (size 3 to 8) (size 9 to 14) (size 15 to 20)
#    0.000    1.143    2.857    7.714    2.000    0.000 
#    0.000    0.000    0.000    0.000    0.000    0.000 
#    0.000   80.000    0.000    0.000    0.000    0.000 
#
# Total GULP energy -156070.380277 kJ/mol
# GULP energy per Si atom -5573.942153 kJ/mol
# Density = 2.100911 g / cm^3
# Si number density = 21.057032 Si / 1000 Ang^3
#
#
#
# Elastic Constant Matrix: (Units=GPa)
#
#
# Indices 1 2 3 4 5 6 
#
# 1 30.2080 8.8039 8.5364 0.0000 0.0000 0.0000
# 2 8.8039 147.1024 38.7927 0.0000 0.0000 0.0000
# 3 8.5364 38.7927 120.5365 0.0000 0.0000 0.0000
# 4 0.0000 0.0000 0.0000 17.7503 0.0000 0.0000
# 5 0.0000 0.0000 0.0000 0.0000 1.8671 0.0000
# 6 0.0000 0.0000 0.0000 0.0000 0.0000 2.2444
#
#
#
# Elastic Compliance Matrix: (Units=1/GPa)
#
#
# Indices 1 2 3 4 5 6 
#
# 1 0.034094 -0.001534 -0.001921 0.000000 0.000000 0.000000
# 2 -0.001534 0.007497 -0.002304 0.000000 0.000000 0.000000
# 3 -0.001921 -0.002304 0.009174 0.000000 0.000000 0.000000
# 4 0.000000 0.000000 0.000000 0.056337 0.000000 0.000000
# 5 0.000000 0.000000 0.000000 0.000000 0.535576 0.000000
# 6 0.000000 0.000000 0.000000 0.000000 0.000000 0.445548
#
#
# Mechanical properties :
#
#
# Convention : Reuss Voigt Hill
#
# Bulk Modulus (GPa) = 25.47975 45.56811 35.52393
# Shear Modulus (GPa) = 4.49306 20.48665 12.48986
#
# Velocity S-wave (km/s) = 1.46232 3.12254 2.43810
# Velocity P-wave (km/s) = 3.87012 5.88962 4.98324
#
# Compressibility (1/GPa) = 0.03924685
#
# Stress axis : x y z
#
# Youngs Moduli (GPa) = 29.33098 133.37851 109.00518
#
# Poissons Ratio (x) = 0.20459 0.20938
# Poissons Ratio (y) = 0.04499 0.25118
# Poissons Ratio (z) = 0.05634 0.30734
#
# Static dielectric constant tensor:
#      x y z
#    x 1.739260 0.000000 0.000000 
#    y 0.000000 1.800530 0.000000 
#    z 0.000000 0.000000 1.837650 
# 
# From -- ./inp_files/27522.got.cif
#   From: 2010.05.17/outbox.cif.g08.bks.cpg/sg24_14_cif.got.tgz:27522.got - 2010.06.04 00:33:39.
