data_PCOD9333731
_publ_section_title
;
Structure prediction by ZEFSAII (Michael W. Deem and Ramdas Pophale) SiO2 
 PCOD9333731
Probable space group: I 21 21 21
;
_chemical_formula_sum "Si O2"
_cell_formula_units_Z 40
_cell_length_a 18.163475
_cell_length_b 8.399473
_cell_length_c 11.929241
_cell_angle_alpha 90.000000
_cell_angle_beta 90.000000
_cell_angle_gamma 90.000000
_cell_volume 1819.968165
_symmetry_space_group_name_H-M "I 21 21 21"
_symmetry_group_IT_number 24
_symmetry_cell_setting 'orthorhombic'
loop_
_space_group_symop_operation_xyz
x,y,z
-x,1/2-y,z
x,-y,1/2-z
1/2-x,y,-z
1/2+x,1/2+y,1/2+z
1/2-x,-y,1/2+z
1/2+x,1/2-y,-z
-x,1/2+y,1/2-z
loop_
_atom_site_type_symbol
_atom_site_label
_atom_site_fract_x
_atom_site_fract_y
_atom_site_fract_z
Si Si1 0.829581 0.494246 0.998698
Si Si2 0.887075 0.500000 0.750000
Si Si3 0.922999 0.665116 0.318067
Si Si4 0.197506 0.701151 0.157264
Si Si5 0.651169 0.170772 0.205357
Si Si6 0.250000 0.426394 0.000000
O O1 0.887508 0.389371 0.065620
O O2 0.817535 0.656137 0.069659
O O3 0.750000 0.414301 0.000000
O O4 0.849811 0.524004 0.871342
O O5 0.907696 0.312765 0.775299
O O6 0.931898 0.500000 0.250000
O O7 0.866543 0.776047 0.248579
O O8 0.000000 0.750000 0.331790
O O9 0.275148 0.714194 0.222407
O O10 0.204516 0.540356 0.086345
O O11 0.686370 0.146572 0.081720
O O12 0.623755 0.000000 0.250000
#
# Coordination Sequence:
#
# PCOD9333731 Si02
#       6
#     8   4   8   8   8   4
#     4  11  20  36  65  97 131 179 228 284 349 404
#     4  12  22  34  60  90 132 166 226 274 340 404
#     4  10  24  42  66  96 136 187 224 276 348 417
#     4  10  19  37  59  91 138 172 220 284 338 406
#     4  10  21  33  51  90 134 174 207 267 344 396
#     4  10  20  32  54  94 136 176 210 272 352 400
#
# _framework density 21.978404999999999
#
# number of rings (size 3 to 8) (size 9 to 14) (size 15 to 20)
#    0.000    1.600    3.000    2.400    7.000    2.400 
#    0.000    0.000    0.000    4.800    0.000    0.000 
#    0.000    0.000    0.000    0.000    0.000    0.000 
#
# Total GULP energy -111424.784360 kJ/mol
# GULP energy per Si atom -5571.239218 kJ/mol
# Density = 2.192838 g / cm^3
# Si number density = 21.978405 Si / 1000 Ang^3
#
#
#
# Elastic Constant Matrix: (Units=GPa)
#
#
# Indices 1 2 3 4 5 6 
#
# 1 57.0616 28.9353 23.7481 0.0000 0.0000 0.0000
# 2 28.9353 135.4671 33.8765 0.0000 0.0000 0.0000
# 3 23.7481 33.8765 153.6070 0.0000 0.0000 0.0000
# 4 0.0000 0.0000 0.0000 25.4533 0.0000 0.0000
# 5 0.0000 0.0000 0.0000 0.0000 14.1883 0.0000
# 6 0.0000 0.0000 0.0000 0.0000 0.0000 36.0981
#
#
#
# Elastic Compliance Matrix: (Units=1/GPa)
#
#
# Indices 1 2 3 4 5 6 
#
# 1 0.020407 -0.003778 -0.002322 0.000000 0.000000 0.000000
# 2 -0.003778 0.008512 -0.001293 0.000000 0.000000 0.000000
# 3 -0.002322 -0.001293 0.007154 0.000000 0.000000 0.000000
# 4 0.000000 0.000000 0.000000 0.039288 0.000000 0.000000
# 5 0.000000 0.000000 0.000000 0.000000 0.070481 0.000000
# 6 0.000000 0.000000 0.000000 0.000000 0.000000 0.027702
#
#
# Mechanical properties :
#
#
# Convention : Reuss Voigt Hill
#
# Bulk Modulus (GPa) = 46.97643 57.69507 52.33575
# Shear Modulus (GPa) = 25.58511 32.45300 29.01906
#
# Velocity S-wave (km/s) = 3.41560 3.84681 3.63760
# Velocity P-wave (km/s) = 6.08074 6.78516 6.44258
#
# Compressibility (1/GPa) = 0.02128727
#
# Stress axis : x y z
#
# Youngs Moduli (GPa) = 49.00252 117.47734 139.77676
#
# Poissons Ratio (x) = 0.44386 0.32453
# Poissons Ratio (y) = 0.18515 0.18075
# Poissons Ratio (z) = 0.11377 0.15192
#
# Static dielectric constant tensor:
#      x y z
#    x 1.759080 0.000000 0.000000 
#    y 0.000000 1.958310 0.000000 
#    z 0.000000 0.000000 1.817610 
# 
# From -- ./inp_files/21385.got.cif
#   From: 2010.05.17/outbox.cif.g08.bks.cpg/sg24_11_cif.got.tgz:21385.got - 2010.06.04 00:33:39.
