data_PCOD9333571
_publ_section_title
;
Structure prediction by ZEFSAII (Michael W. Deem and Ramdas Pophale) SiO2 
 PCOD9333571
Probable space group: I 21 21 21
;
_chemical_formula_sum "Si O2"
_cell_formula_units_Z 48
_cell_length_a 8.741792
_cell_length_b 16.094231
_cell_length_c 19.184870
_cell_angle_alpha 90.000000
_cell_angle_beta 90.000000
_cell_angle_gamma 90.000000
_cell_volume 2699.165784
_symmetry_space_group_name_H-M "I 21 21 21"
_symmetry_group_IT_number 24
_symmetry_cell_setting 'orthorhombic'
loop_
_space_group_symop_operation_xyz
x,y,z
-x,1/2-y,z
x,-y,1/2-z
1/2-x,y,-z
1/2+x,1/2+y,1/2+z
1/2-x,-y,1/2+z
1/2+x,1/2-y,-z
-x,1/2+y,1/2-z
loop_
_atom_site_type_symbol
_atom_site_label
_atom_site_fract_x
_atom_site_fract_y
_atom_site_fract_z
Si Si1 0.375183 0.085781 0.941091
Si Si2 0.176690 0.674287 0.428092
Si Si3 0.840915 0.982890 0.066504
Si Si4 0.674620 0.913781 0.781213
Si Si5 0.680367 0.757501 0.288251
Si Si6 0.328494 0.912679 0.720484
O O1 0.495853 0.161610 0.938663
O O2 0.484850 0.006090 0.953504
O O3 0.315082 0.080060 0.862788
O O4 0.250000 0.093850 0.000000
O O5 0.250000 0.703323 0.500000
O O6 0.226566 0.576162 0.417357
O O7 0.233706 0.723890 0.361441
O O8 0.839147 0.928799 0.136164
O O9 0.750000 0.949396 0.000000
O O10 0.774026 0.834636 0.760565
O O11 0.506472 0.904566 0.744869
O O12 0.738926 0.000000 0.750000
O O13 0.500000 0.750000 0.299916
O O14 0.742416 0.670737 0.258229
O O15 0.270858 0.000000 0.750000
#
# Coordination Sequence:
#
# PCOD9333571 Si02
#       6
#     8   8   8   8   8   8
#     4  10  19  34  62  94 122 163 210 250 305 393
#     4   9  19  38  54  85 129 165 191 241 318 385
#     4   9  18  36  63  91 124 164 202 252 321 381
#     4  11  18  41  68  85 122 170 213 251 322 385
#     4  12  26  38  58  94 126 167 215 266 314 379
#     4  11  22  42  63  88 120 169 215 259 318 380
#
# _framework density 17.783270999999999
#
# number of rings (size 3 to 8) (size 9 to 14) (size 15 to 20)
#    1.000    0.667    6.667    0.500    2.333    1.333 
#    3.000    0.000    0.000    3.000    0.000    0.000 
#    0.000    0.000    0.000    0.000    0.000    0.000 
#
# Total GULP energy -133800.212185 kJ/mol
# GULP energy per Si atom -5575.008841 kJ/mol
# Density = 1.774280 g / cm^3
# Si number density = 17.783271 Si / 1000 Ang^3
#
#
#
# Elastic Constant Matrix: (Units=GPa)
#
#
# Indices 1 2 3 4 5 6 
#
# 1 90.2657 55.5917 59.8819 0.0000 0.0000 0.0000
# 2 55.5917 112.3331 58.3242 0.0000 0.0000 0.0000
# 3 59.8819 58.3242 134.6892 0.0000 0.0000 0.0000
# 4 0.0000 0.0000 0.0000 13.3960 0.0000 0.0000
# 5 0.0000 0.0000 0.0000 0.0000 32.0399 0.0000
# 6 0.0000 0.0000 0.0000 0.0000 0.0000 14.8754
#
#
#
# Elastic Compliance Matrix: (Units=1/GPa)
#
#
# Indices 1 2 3 4 5 6 
#
# 1 0.018678 -0.006362 -0.005549 0.000000 0.000000 0.000000
# 2 -0.006362 0.013651 -0.003083 0.000000 0.000000 0.000000
# 3 -0.005549 -0.003083 0.011226 0.000000 0.000000 0.000000
# 4 0.000000 0.000000 0.000000 0.074649 0.000000 0.000000
# 5 0.000000 0.000000 0.000000 0.000000 0.031211 0.000000
# 6 0.000000 0.000000 0.000000 0.000000 0.000000 0.067225
#
#
# Mechanical properties :
#
#
# Convention : Reuss Voigt Hill
#
# Bulk Modulus (GPa) = 73.70534 76.09818 74.90176
# Shear Modulus (GPa) = 19.90827 22.96160 21.43493
#
# Velocity S-wave (km/s) = 3.34951 3.59721 3.47557
# Velocity P-wave (km/s) = 7.51634 7.75488 7.63654
#
# Compressibility (1/GPa) = 0.01356754
#
# Stress axis : x y z
#
# Youngs Moduli (GPa) = 53.53914 73.25321 89.07505
#
# Poissons Ratio (x) = 0.46606 0.49428
# Poissons Ratio (y) = 0.34063 0.27460
# Poissons Ratio (z) = 0.29709 0.22582
#
# Static dielectric constant tensor:
#      x y z
#    x 1.631930 0.000000 0.000000 
#    y 0.000000 1.654860 0.000000 
#    z 0.000000 0.000000 1.594180 
# 
# From -- ./inp_files/29492.got.cif
#   From: 2010.05.17/outbox.cif.g08.bks.cpg/sg24_15_cif.got.tgz:29492.got - 2010.06.04 00:33:39.
