data_PCOD9333040
_publ_section_title
;
Structure prediction by ZEFSAII (Michael W. Deem and Ramdas Pophale) SiO2 
 PCOD9333040
Probable space group: I 21 21 21
;
_chemical_formula_sum "Si O2"
_cell_formula_units_Z 52
_cell_length_a 8.595152
_cell_length_b 31.367549
_cell_length_c 7.556681
_cell_angle_alpha 90.000000
_cell_angle_beta 90.000000
_cell_angle_gamma 90.000000
_cell_volume 2037.348086
_symmetry_space_group_name_H-M "I 21 21 21"
_symmetry_group_IT_number 24
_symmetry_cell_setting 'orthorhombic'
loop_
_space_group_symop_operation_xyz
x,y,z
-x,1/2-y,z
x,-y,1/2-z
1/2-x,y,-z
1/2+x,1/2+y,1/2+z
1/2-x,-y,1/2+z
1/2+x,1/2-y,-z
-x,1/2+y,1/2-z
loop_
_atom_site_type_symbol
_atom_site_label
_atom_site_fract_x
_atom_site_fract_y
_atom_site_fract_z
Si Si1 0.033633 0.653441 0.645686
Si Si2 0.000000 0.750000 0.129770
Si Si3 0.173760 0.228909 0.809236
Si Si4 0.762951 0.500000 0.250000
Si Si5 0.886468 0.840838 0.222725
Si Si6 0.750191 0.000000 0.250000
Si Si7 0.011171 0.434799 0.325280
Si Si8 0.494104 0.058950 0.093315
O O1 0.055502 0.661591 0.431244
O O2 0.198836 0.662516 0.743714
O O3 0.882370 0.680493 0.696024
O O4 0.995840 0.604682 0.682486
O O5 0.818439 0.739473 0.186422
O O6 0.955257 0.801276 0.111611
O O7 0.000000 0.250000 0.779189
O O8 0.250000 0.240210 0.000000
O O9 0.650437 0.469015 0.144059
O O10 0.863391 0.465147 0.361520
O O11 0.942080 0.885845 0.134845
O O12 0.857390 0.969153 0.133202
O O13 0.643311 0.966505 0.347513
O O14 0.002286 0.432833 0.112913
#
# Coordination Sequence:
#
# PCOD9333040 Si02
#       8
#     8   4   8   4   8   4   8   8
#     4  10  19  29  45  63  92 131 169 217 249 294
#     4  12  22  30  44  66  96 134 182 216 246 302
#     4  12  20  28  39  60  90 126 173 218 245 283
#     4  10  22  32  50  72  98 136 182 212 270 310
#     4  10  19  30  46  66  94 132 175 214 252 300
#     4  10  18  32  54  72  90 134 178 214 270 310
#     4  10  20  35  50  72 102 137 178 217 258 317
#     4  10  20  34  49  72 100 132 179 219 260 311
#
# _framework density 25.523375000000001
#
# number of rings (size 3 to 8) (size 9 to 14) (size 15 to 20)
#    0.000    1.538    5.385    0.923    2.154    0.000 
#    0.000    0.000    0.000    0.000    0.000    0.000 
#    0.000    0.000    0.000   22.154   29.231   24.615 
#
# Total GULP energy -144852.783779 kJ/mol
# GULP energy per Si atom -5571.260915 kJ/mol
# Density = 2.546528 g / cm^3
# Si number density = 25.523375 Si / 1000 Ang^3
#
#
#
# Elastic Constant Matrix: (Units=GPa)
#
#
# Indices 1 2 3 4 5 6 
#
# 1 201.7316 73.6490 34.3470 0.0003 0.0003 -0.0003
# 2 73.6490 221.4493 17.7288 -0.0004 0.0001 0.0002
# 3 34.3470 17.7288 40.7144 -0.0019 -0.0006 0.0013
# 4 0.0003 -0.0004 -0.0019 14.1462 -0.0001 0.0009
# 5 0.0003 0.0001 -0.0006 -0.0001 40.1329 -0.0003
# 6 -0.0003 0.0002 0.0013 0.0009 -0.0003 84.3278
#
#
#
# Elastic Compliance Matrix: (Units=1/GPa)
#
#
# Indices 1 2 3 4 5 6 
#
# 1 0.006384 -0.001753 -0.004622 -0.000001 0.000000 0.000000
# 2 -0.001753 0.005160 -0.000768 0.000000 0.000000 0.000000
# 3 -0.004622 -0.000768 0.028795 0.000004 0.000000 0.000000
# 4 -0.000001 0.000000 0.000004 0.070690 0.000000 -0.000001
# 5 0.000000 0.000000 0.000000 0.000000 0.024917 0.000000
# 6 0.000000 0.000000 0.000000 -0.000001 0.000000 0.011858
#
#
# Mechanical properties :
#
#
# Convention : Reuss Voigt Hill
#
# Bulk Modulus (GPa) = 38.38387 79.48278 58.93332
# Shear Modulus (GPa) = 29.27797 50.26608 39.77203
#
# Velocity S-wave (km/s) = 3.39057 4.44262 3.95176
# Velocity P-wave (km/s) = 5.51355 7.58450 6.63038
#
# Compressibility (1/GPa) = 0.02605261
#
# Stress axis : x y z
#
# Youngs Moduli (GPa) = 156.63830 193.78892 34.72801
#
# Poissons Ratio (x) = 0.33974 0.16052
# Poissons Ratio (y) = 0.27461 0.02667
# Poissons Ratio (z) = 0.72403 0.14883
#
# Static dielectric constant tensor:
#      x y z
#    x 1.971550 0.000000 0.000000 
#    y 0.000000 2.003480 0.000000 
#    z 0.000000 0.000000 2.147700 
# 
# From -- ./inp_files/18871.got.cif
#   From: 2010.05.17/outbox.cif.g08.bks.cpg/sg24_10_cif.got.tgz:18871.got - 2010.06.04 00:33:39.
