data_PCOD9333259
_publ_section_title
;
Structure prediction by ZEFSAII (Michael W. Deem and Ramdas Pophale) SiO2 
 PCOD9333259
Probable space group: I 21 21 21
;
_chemical_formula_sum "Si O2"
_cell_formula_units_Z 52
_cell_length_a 10.561776
_cell_length_b 16.215577
_cell_length_c 16.107329
_cell_angle_alpha 90.000000
_cell_angle_beta 90.000000
_cell_angle_gamma 90.000000
_cell_volume 2758.626404
_symmetry_space_group_name_H-M "I 21 21 21"
_symmetry_group_IT_number 24
_symmetry_cell_setting 'orthorhombic'
loop_
_space_group_symop_operation_xyz
x,y,z
-x,1/2-y,z
x,-y,1/2-z
1/2-x,y,-z
1/2+x,1/2+y,1/2+z
1/2-x,-y,1/2+z
1/2+x,1/2-y,-z
-x,1/2+y,1/2-z
loop_
_atom_site_type_symbol
_atom_site_label
_atom_site_fract_x
_atom_site_fract_y
_atom_site_fract_z
Si Si1 0.494573 0.984539 0.633779
Si Si2 0.883319 0.911962 0.704013
Si Si3 0.024985 0.844202 0.854453
Si Si4 0.000000 0.750000 0.121919
Si Si5 0.299469 0.887804 0.909988
Si Si6 0.388529 0.619329 0.759316
Si Si7 0.609730 0.009647 0.459851
O O1 0.367467 0.038066 0.638992
O O2 0.602266 0.042778 0.676065
O O3 0.525305 0.981342 0.537474
O O4 0.507626 0.902549 0.688502
O O5 0.980823 0.859840 0.759416
O O6 0.745850 0.873278 0.716947
O O7 0.882774 0.000000 0.750000
O O8 0.897660 0.937209 0.608529
O O9 0.946605 0.908154 0.914363
O O10 0.000000 0.750000 0.878825
O O11 0.174245 0.859492 0.862937
O O12 0.094843 0.815075 0.077878
O O13 0.085287 0.696086 0.183060
O O14 0.250000 0.914710 0.000000
O O15 0.750000 0.022882 0.500000
#
# Coordination Sequence:
#
# PCOD9333259 Si02
#       7
#     8   8   8   4   8   8   8
#     4  10  19  36  57  82 115 156 201 246 295 358
#     4  10  19  36  61  86 114 157 207 247 298 360
#     4  11  24  38  58  92 129 162 195 257 322 376
#     4  10  24  38  60  86 118 170 200 242 316 380
#     4  11  23  39  54  90 129 160 201 249 320 378
#     4  10  18  38  59  85 116 151 206 250 293 370
#     4  11  20  37  63  90 115 158 209 257 301 367
#
# _framework density 18.849961
#
# number of rings (size 3 to 8) (size 9 to 14) (size 15 to 20)
#    0.000    1.538    4.615    1.846    1.077    1.846 
#   16.615    0.000    1.692    0.000    0.000    0.000 
#    0.000    0.000    0.000    0.000    0.000    0.000 
#
# Total GULP energy -144869.032292 kJ/mol
# GULP energy per Si atom -5571.885857 kJ/mol
# Density = 1.880706 g / cm^3
# Si number density = 18.849961 Si / 1000 Ang^3
#
#
#
# Elastic Constant Matrix: (Units=GPa)
#
#
# Indices 1 2 3 4 5 6 
#
# 1 109.2203 6.4644 28.5111 0.0000 0.0000 0.0000
# 2 6.4644 10.1339 5.0568 0.0000 0.0000 0.0000
# 3 28.5111 5.0568 116.9286 0.0000 0.0000 0.0000
# 4 0.0000 0.0000 0.0000 14.9445 0.0000 0.0000
# 5 0.0000 0.0000 0.0000 0.0000 28.9440 0.0000
# 6 0.0000 0.0000 0.0000 0.0000 0.0000 21.0502
#
#
#
# Elastic Compliance Matrix: (Units=1/GPa)
#
#
# Indices 1 2 3 4 5 6 
#
# 1 0.010049 -0.005302 -0.002221 0.000000 0.000000 0.000000
# 2 -0.005302 0.103653 -0.003190 0.000000 0.000000 0.000000
# 3 -0.002221 -0.003190 0.009232 0.000000 0.000000 0.000000
# 4 0.000000 0.000000 0.000000 0.066914 0.000000 0.000000
# 5 0.000000 0.000000 0.000000 0.000000 0.034550 0.000000
# 6 0.000000 0.000000 0.000000 0.000000 0.000000 0.047506
#
#
# Mechanical properties :
#
#
# Convention : Reuss Voigt Hill
#
# Bulk Modulus (GPa) = 9.85143 35.14969 22.50056
# Shear Modulus (GPa) = 15.28277 26.07109 20.67693
#
# Velocity S-wave (km/s) = 2.85047 3.72302 3.31557
# Velocity P-wave (km/s) = 4.00889 6.09662 5.15945
#
# Compressibility (1/GPa) = 0.10150809
#
# Stress axis : x y z
#
# Youngs Moduli (GPa) = 99.50816 9.64757 108.32179
#
# Poissons Ratio (x) = 0.05115 0.24059
# Poissons Ratio (y) = 0.52761 0.34552
# Poissons Ratio (z) = 0.22102 0.03077
#
# Static dielectric constant tensor:
#      x y z
#    x 1.808410 0.000000 0.000000 
#    y 0.000000 1.778390 0.000000 
#    z 0.000000 0.000000 1.682120 
# 
# From -- ./inp_files/29634.got.cif
#   From: 2010.05.17/outbox.cif.g08.bks.cpg/sg24_15_cif.got.tgz:29634.got - 2010.06.04 00:33:39.
