data_PCOD9333808
_publ_section_title
;
Structure prediction by ZEFSAII (Michael W. Deem and Ramdas Pophale) SiO2 
 PCOD9333808
Probable space group: I 21 21 21
;
_chemical_formula_sum "Si O2"
_cell_formula_units_Z 64
_cell_length_a 23.340082
_cell_length_b 14.051046
_cell_length_c 8.872615
_cell_angle_alpha 90.000000
_cell_angle_beta 90.000000
_cell_angle_gamma 90.000000
_cell_volume 2909.796855
_symmetry_space_group_name_H-M "I 21 21 21"
_symmetry_group_IT_number 24
_symmetry_cell_setting 'orthorhombic'
loop_
_space_group_symop_operation_xyz
x,y,z
-x,1/2-y,z
x,-y,1/2-z
1/2-x,y,-z
1/2+x,1/2+y,1/2+z
1/2-x,-y,1/2+z
1/2+x,1/2-y,-z
-x,1/2+y,1/2-z
loop_
_atom_site_type_symbol
_atom_site_label
_atom_site_fract_x
_atom_site_fract_y
_atom_site_fract_z
Si Si1 0.120007 0.358692 0.979238
Si Si2 0.219847 0.907055 0.660285
Si Si3 0.934451 0.275207 0.199012
Si Si4 0.828735 0.762006 0.798637
Si Si5 0.905269 0.440897 0.976429
Si Si6 0.689663 0.034741 0.422014
Si Si7 0.484672 0.604793 0.276461
Si Si8 0.932697 0.661034 0.965458
O O1 0.164234 0.303683 0.871145
O O2 0.141034 0.467258 0.995627
O O3 0.062221 0.346424 0.879477
O O4 0.106962 0.306496 0.134382
O O5 0.250000 0.890939 0.500000
O O6 0.219607 0.818149 0.775451
O O7 0.153933 0.924422 0.610243
O O8 0.241342 0.000000 0.750000
O O9 0.913062 0.372986 0.120592
O O10 0.934209 0.285056 0.377384
O O11 0.000000 0.250000 0.154825
O O12 0.819877 0.852138 0.907862
O O13 0.885758 0.710229 0.858881
O O14 0.912985 0.552882 0.002234
O O15 0.957293 0.410466 0.868489
O O16 0.750000 0.015747 0.500000
O O17 0.692008 0.000000 0.250000
O O18 0.459364 0.500000 0.250000
O O19 0.506394 0.649539 0.120973
#
# Coordination Sequence:
#
# PCOD9333808 Si02
#       8
#     8   8   8   8   8   8   8   8
#     4  11  23  44  71 101 139 185 247 289 358 432
#     4  12  25  46  72 107 138 182 243 300 362 440
#     4  12  25  41  64 109 146 192 232 289 359 426
#     4  11  23  45  70 103 135 183 243 287 368 434
#     4  11  21  47  68  96 148 191 223 288 360 434
#     4  10  25  48  75 100 137 188 247 310 360 421
#     4  10  19  38  73  96 135 190 230 281 349 431
#     4  11  24  39  68 102 147 180 236 291 357 429
#
# _framework density 21.994662000000002
#
# number of rings (size 3 to 8) (size 9 to 14) (size 15 to 20)
#    0.000    1.000    5.000    1.875    1.750    4.500 
#    2.250    0.000    0.000    0.000    0.000    0.000 
#    0.000    0.000    0.000    0.000    0.000    0.000 
#
# Total GULP energy -178832.880322 kJ/mol
# GULP energy per Si atom -5588.527510 kJ/mol
# Density = 2.194460 g / cm^3
# Si number density = 21.994662 Si / 1000 Ang^3
#
#
#
# Elastic Constant Matrix: (Units=GPa)
#
#
# Indices 1 2 3 4 5 6 
#
# 1 56.9896 31.4934 14.7655 0.0000 0.0000 0.0000
# 2 31.4934 155.6171 52.1440 0.0000 0.0000 0.0000
# 3 14.7655 52.1440 99.9803 0.0000 0.0000 0.0000
# 4 0.0000 0.0000 0.0000 29.2739 0.0000 0.0000
# 5 0.0000 0.0000 0.0000 0.0000 31.6470 0.0000
# 6 0.0000 0.0000 0.0000 0.0000 0.0000 21.4290
#
#
#
# Elastic Compliance Matrix: (Units=1/GPa)
#
#
# Indices 1 2 3 4 5 6 
#
# 1 0.019841 -0.003676 -0.001013 0.000000 0.000000 0.000000
# 2 -0.003676 0.008468 -0.003873 0.000000 0.000000 0.000000
# 3 -0.001013 -0.003873 0.012172 0.000000 0.000000 0.000000
# 4 0.000000 0.000000 0.000000 0.034160 0.000000 0.000000
# 5 0.000000 0.000000 0.000000 0.000000 0.031599 0.000000
# 6 0.000000 0.000000 0.000000 0.000000 0.000000 0.046666
#
#
# Mechanical properties :
#
#
# Convention : Reuss Voigt Hill
#
# Bulk Modulus (GPa) = 42.81619 56.59923 49.70771
# Shear Modulus (GPa) = 28.11910 30.74891 29.43400
#
# Velocity S-wave (km/s) = 3.57942 3.74306 3.66216
# Velocity P-wave (km/s) = 6.04912 6.66856 6.36638
#
# Compressibility (1/GPa) = 0.02335565
#
# Stress axis : x y z
#
# Youngs Moduli (GPa) = 50.40099 118.09346 82.15733
#
# Poissons Ratio (x) = 0.43410 0.08323
# Poissons Ratio (y) = 0.18527 0.31824
# Poissons Ratio (z) = 0.05106 0.45743
#
# Static dielectric constant tensor:
#      x y z
#    x 1.796320 0.000000 0.000000 
#    y 0.000000 1.890240 0.000000 
#    z 0.000000 0.000000 1.793380 
# 
# From -- ./inp_files/16056.got.cif
#   From: 2010.05.17/outbox.cif.g08.bks.cpg/sg24_9_cif.got.tgz:16056.got - 2010.06.04 00:33:39.
