data_PCOD9333978
_publ_section_title
;
Structure prediction by ZEFSAII (Michael W. Deem and Ramdas Pophale) SiO2 
 PCOD9333978
Probable space group: I 21 21 21
;
_chemical_formula_sum "Si O2"
_cell_formula_units_Z 40
_cell_length_a 7.183702
_cell_length_b 28.441013
_cell_length_c 8.416610
_cell_angle_alpha 90.000000
_cell_angle_beta 90.000000
_cell_angle_gamma 90.000000
_cell_volume 1719.612419
_symmetry_space_group_name_H-M "I 21 21 21"
_symmetry_group_IT_number 24
_symmetry_cell_setting 'orthorhombic'
loop_
_space_group_symop_operation_xyz
x,y,z
-x,1/2-y,z
x,-y,1/2-z
1/2-x,y,-z
1/2+x,1/2+y,1/2+z
1/2-x,-y,1/2+z
1/2+x,1/2-y,-z
-x,1/2+y,1/2-z
loop_
_atom_site_type_symbol
_atom_site_label
_atom_site_fract_x
_atom_site_fract_y
_atom_site_fract_z
Si Si1 0.214591 0.648964 0.689677
Si Si2 0.717220 0.650503 0.189922
Si Si3 0.776829 0.549449 0.811245
Si Si4 0.221020 0.249733 0.811202
Si Si5 0.782006 0.950432 0.813821
O O1 0.250000 0.649218 0.500000
O O2 0.290896 0.699521 0.749955
O O3 0.291597 0.599302 0.750209
O O4 0.998361 0.649830 0.749093
O O5 0.793754 0.600047 0.250813
O O6 0.795452 0.700264 0.248390
O O7 0.750000 0.649960 0.000000
O O8 0.700544 0.500000 0.750000
O O9 0.997604 0.549472 0.776847
O O10 0.750000 0.549240 0.000000
O O11 0.000000 0.250000 0.779081
O O12 0.250000 0.249010 0.000000
O O13 0.707447 0.000000 0.750000
O O14 0.750000 0.950192 0.000000
#
# Coordination Sequence:
#
# PCOD9333978 Si02
#       5
#     8   8   8   8   8
#     4   9  18  35  55  76 108 147 186 230 282 342
#     4   9  18  34  53  76 108 142 180 229 282 336
#     4   9  19  35  51  72 102 135 172 217 267 324
#     4   9  18  34  53  76 106 141 181 225 277 337
#     4  10  20  34  53  78 108 141 181 229 282 337
#
# _framework density 23.261056
#
# number of rings (size 3 to 8) (size 9 to 14) (size 15 to 20)
#    0.000    2.800    0.000    0.600    0.000    2.400 
#    0.000   21.000    0.000    0.000    0.000    0.000 
#    0.000    0.000    0.000    0.000    0.000    0.000 
#
# Total GULP energy -111439.362342 kJ/mol
# GULP energy per Si atom -5571.968117 kJ/mol
# Density = 2.320811 g / cm^3
# Si number density = 23.261056 Si / 1000 Ang^3
#
#
#
# Elastic Constant Matrix: (Units=GPa)
#
#
# Indices 1 2 3 4 5 6 
#
# 1 138.9886 22.7250 4.3312 0.0001 0.0000 0.0000
# 2 22.7250 371.7379 75.0455 0.0001 0.0000 0.0000
# 3 4.3312 75.0455 74.0934 0.0008 0.0000 -0.0001
# 4 0.0001 0.0001 0.0008 47.3320 0.0000 0.0000
# 5 0.0000 0.0000 0.0000 0.0000 26.0835 0.0000
# 6 0.0000 0.0000 -0.0001 0.0000 0.0000 -52.1044
#
#
#
# Elastic Compliance Matrix: (Units=1/GPa)
#
#
# Indices 1 2 3 4 5 6 
#
# 1 0.007268 -0.000451 0.000032 0.000000 0.000000 0.000000
# 2 -0.000451 0.003409 -0.003427 0.000000 0.000000 0.000000
# 3 0.000032 -0.003427 0.016966 0.000000 0.000000 0.000000
# 4 0.000000 0.000000 0.000000 0.021127 0.000000 0.000000
# 5 0.000000 0.000000 0.000000 0.000000 0.038338 0.000000
# 6 0.000000 0.000000 0.000000 0.000000 0.000000 -0.019192
#
#
# Mechanical properties :
#
#
# Convention : Reuss Voigt Hill
#
# Bulk Modulus (GPa) = 50.12369 87.66926 68.89647
# Shear Modulus (GPa) = 60.78427 36.44343 48.61385
#
# Velocity S-wave (km/s) = 5.11743 3.96247 4.57653
# Velocity P-wave (km/s) = 7.51748 7.66198 7.59008
#
# Compressibility (1/GPa) = 0.01995065
#
# Stress axis : x y z
#
# Youngs Moduli (GPa) = 137.59827 293.30421 58.94292
#
# Poissons Ratio (x) = 0.13218 -0.00186
# Poissons Ratio (y) = 0.06201 0.20199
# Poissons Ratio (z) = -0.00435 1.00512
#
# Static dielectric constant tensor:
#      x y z
#    x 2.479410 0.000000 0.000000 
#    y 0.000000 1.959150 0.000000 
#    z 0.000000 0.000000 1.786990 
# 
# From -- ./inp_files/9498.got.cif
#   From: 2010.05.17/outbox.cif.g08.bks.cpg/sg24_5_cif.got.tgz:9498.got - 2010.06.04 00:33:39.
