data_PCOD9333244
_publ_section_title
;
Structure prediction by ZEFSAII (Michael W. Deem and Ramdas Pophale) SiO2 
 PCOD9333244
Probable space group: I 21 21 21
;
_chemical_formula_sum "Si O2"
_cell_formula_units_Z 56
_cell_length_a 8.756122
_cell_length_b 20.798675
_cell_length_c 17.256886
_cell_angle_alpha 90.000000
_cell_angle_beta 90.000000
_cell_angle_gamma 90.000000
_cell_volume 3142.750490
_symmetry_space_group_name_H-M "I 21 21 21"
_symmetry_group_IT_number 24
_symmetry_cell_setting 'orthorhombic'
loop_
_space_group_symop_operation_xyz
x,y,z
-x,1/2-y,z
x,-y,1/2-z
1/2-x,y,-z
1/2+x,1/2+y,1/2+z
1/2-x,-y,1/2+z
1/2+x,1/2-y,-z
-x,1/2+y,1/2-z
loop_
_atom_site_type_symbol
_atom_site_label
_atom_site_fract_x
_atom_site_fract_y
_atom_site_fract_z
Si Si1 0.560675 0.467774 0.333102
Si Si2 0.805516 0.884798 0.786691
Si Si3 0.745566 0.658908 0.823357
Si Si4 0.518020 0.574061 0.724816
Si Si5 0.680336 0.226630 0.417300
Si Si6 0.762192 0.579968 0.590909
Si Si7 0.056803 0.183684 0.816386
O O1 0.601221 0.500000 0.250000
O O2 0.383826 0.447538 0.326707
O O3 0.643867 0.399782 0.346426
O O4 0.630653 0.518260 0.392029
O O5 0.655069 0.904145 0.739549
O O6 0.795391 0.829893 0.853478
O O7 0.923446 0.858114 0.722512
O O8 0.607581 0.622087 0.782899
O O9 0.724576 0.709997 0.890696
O O10 0.831894 0.698625 0.755937
O O11 0.532811 0.500000 0.750000
O O12 0.605049 0.577073 0.641560
O O13 0.500000 0.250000 0.419655
O O14 0.750000 0.206259 0.500000
O O15 0.750000 0.585828 0.500000
O O16 0.851410 0.640587 0.624856
O O17 0.000000 0.250000 0.850405
#
# Coordination Sequence:
#
# PCOD9333244 Si02
#       7
#     8   8   8   8   8   8   8
#     4  11  17  38  67  86 111 171 212 240 308 383
#     4  11  22  38  66  89 122 170 211 256 304 372
#     4  10  18  37  64  83 119 168 208 243 299 377
#     4  11  22  39  61  96 121 156 221 259 293 380
#     4  12  25  42  59  95 135 168 211 262 317 377
#     4  11  23  41  64  92 126 161 209 267 322 375
#     4  10  18  40  68  83 111 166 215 244 308 384
#
# _framework density 17.818787
#
# number of rings (size 3 to 8) (size 9 to 14) (size 15 to 20)
#    0.000    1.143   10.000    0.429    2.000    0.571 
#    2.571    2.143    0.000    0.000    0.000    0.000 
#    0.000    0.000    0.000    0.000    0.000    0.000 
#
# Total GULP energy -155977.849586 kJ/mol
# GULP energy per Si atom -5570.637485 kJ/mol
# Density = 1.777823 g / cm^3
# Si number density = 17.818787 Si / 1000 Ang^3
#
#
#
# Elastic Constant Matrix: (Units=GPa)
#
#
# Indices 1 2 3 4 5 6 
#
# 1 106.3815 25.0316 49.3461 0.0000 0.0000 0.0000
# 2 25.0316 72.5156 49.5261 0.0000 0.0000 0.0000
# 3 49.3461 49.5261 127.9134 0.0000 0.0000 0.0000
# 4 0.0000 0.0000 0.0000 16.3965 0.0000 0.0000
# 5 0.0000 0.0000 0.0000 0.0000 8.5789 0.0000
# 6 0.0000 0.0000 0.0000 0.0000 0.0000 16.6359
#
#
#
# Elastic Compliance Matrix: (Units=1/GPa)
#
#
# Indices 1 2 3 4 5 6 
#
# 1 0.011536 -0.001282 -0.003954 0.000000 0.000000 0.000000
# 2 -0.001282 0.018890 -0.006820 0.000000 0.000000 0.000000
# 3 -0.003954 -0.006820 0.011984 0.000000 0.000000 0.000000
# 4 0.000000 0.000000 0.000000 0.060988 0.000000 0.000000
# 5 0.000000 0.000000 0.000000 0.000000 0.116565 0.000000
# 6 0.000000 0.000000 0.000000 0.000000 0.000000 0.060111
#
#
# Mechanical properties :
#
#
# Convention : Reuss Voigt Hill
#
# Bulk Modulus (GPa) = 54.64723 61.62421 58.13572
# Shear Modulus (GPa) = 16.11428 20.51605 18.31516
#
# Velocity S-wave (km/s) = 3.01049 3.39687 3.20950
# Velocity P-wave (km/s) = 6.54362 7.07417 6.81406
#
# Compressibility (1/GPa) = 0.01829919
#
# Stress axis : x y z
#
# Youngs Moduli (GPa) = 86.68658 52.93795 83.44734
#
# Poissons Ratio (x) = 0.06784 0.32996
# Poissons Ratio (y) = 0.11109 0.56907
# Poissons Ratio (z) = 0.34277 0.36101
#
# Static dielectric constant tensor:
#      x y z
#    x 1.680060 0.000000 0.000000 
#    y 0.000000 1.624760 0.000000 
#    z 0.000000 0.000000 1.612160 
# 
# From -- ./inp_files/29771.got.cif
#   From: 2010.05.17/outbox.cif.g08.bks.cpg/sg24_15_cif.got.tgz:29771.got - 2010.06.04 00:33:39.
