data_PCOD9333341
_publ_section_title
;
Structure prediction by ZEFSAII (Michael W. Deem and Ramdas Pophale) SiO2 
 PCOD9333341
Probable space group: I 21 21 21
;
_chemical_formula_sum "Si O2"
_cell_formula_units_Z 56
_cell_length_a 24.277531
_cell_length_b 7.542082
_cell_length_c 18.089449
_cell_angle_alpha 90.000000
_cell_angle_beta 90.000000
_cell_angle_gamma 90.000000
_cell_volume 3312.234724
_symmetry_space_group_name_H-M "I 21 21 21"
_symmetry_group_IT_number 24
_symmetry_cell_setting 'orthorhombic'
loop_
_space_group_symop_operation_xyz
x,y,z
-x,1/2-y,z
x,-y,1/2-z
1/2-x,y,-z
1/2+x,1/2+y,1/2+z
1/2-x,-y,1/2+z
1/2+x,1/2-y,-z
-x,1/2+y,1/2-z
loop_
_atom_site_type_symbol
_atom_site_label
_atom_site_fract_x
_atom_site_fract_y
_atom_site_fract_z
Si Si1 0.200493 0.247094 0.443033
Si Si2 0.839388 0.958819 0.833853
Si Si3 0.387076 0.828255 0.065300
Si Si4 0.370004 0.826775 0.356377
Si Si5 0.209726 0.541508 0.332420
Si Si6 0.758047 0.436111 0.166506
Si Si7 0.546424 0.500000 0.250000
Si Si8 0.500000 0.250000 0.372296
O O1 0.250000 0.292303 0.500000
O O2 0.148072 0.197329 0.492296
O O3 0.184180 0.415665 0.393772
O O4 0.223080 0.086890 0.391243
O O5 0.865788 0.121979 0.878732
O O6 0.773791 0.979166 0.834077
O O7 0.856804 0.000000 0.750000
O O8 0.854844 0.771001 0.867479
O O9 0.446942 0.743804 0.075510
O O10 0.389927 0.036365 0.082125
O O11 0.307169 0.887017 0.337740
O O12 0.412152 0.859547 0.288690
O O13 0.188958 0.500000 0.250000
O O14 0.210528 0.750682 0.347461
O O15 0.768748 0.500000 0.250000
O O16 0.510617 0.411642 0.314833
#
# Coordination Sequence:
#
# PCOD9333341 Si02
#       8
#     8   8   8   8   8   8   4   4
#     4  12  22  36  54  81 117 150 182 231 290 343
#     4  10  19  29  52  75 108 148 181 219 270 319
#     4  11  23  38  50  76 112 148 189 234 276 324
#     4  10  19  31  51  77 108 143 186 222 270 319
#     4  10  20  33  53  83 110 143 186 219 272 350
#     4  11  20  33  57  81 114 150 180 225 284 341
#     4  10  20  34  52  76 108 146 202 234 250 324
#     4  10  24  36  54  78 106 152 198 232 276 316
#
# _framework density 16.907015000000001
#
# number of rings (size 3 to 8) (size 9 to 14) (size 15 to 20)
#    0.000    1.429    5.000    1.714    5.000    1.714 
#    0.000    0.000    0.000    0.000    0.000    1.000 
#    0.000    0.000    0.000    0.000    0.000    0.000 
#
# Total GULP energy -156160.332745 kJ/mol
# GULP energy per Si atom -5577.154741 kJ/mol
# Density = 1.686853 g / cm^3
# Si number density = 16.907015 Si / 1000 Ang^3
#
#
#
# Elastic Constant Matrix: (Units=GPa)
#
#
# Indices 1 2 3 4 5 6 
#
# 1 55.2361 4.1009 23.5748 0.0000 0.0000 0.0000
# 2 4.1009 69.6154 20.7135 0.0000 0.0000 0.0000
# 3 23.5748 20.7135 79.9950 0.0000 0.0000 0.0000
# 4 0.0000 0.0000 0.0000 24.6405 0.0000 0.0000
# 5 0.0000 0.0000 0.0000 0.0000 22.1951 0.0000
# 6 0.0000 0.0000 0.0000 0.0000 0.0000 7.9066
#
#
#
# Elastic Compliance Matrix: (Units=1/GPa)
#
#
# Indices 1 2 3 4 5 6 
#
# 1 0.020736 0.000647 -0.006278 0.000000 0.000000 0.000000
# 2 0.000647 0.015584 -0.004226 0.000000 0.000000 0.000000
# 3 -0.006278 -0.004226 0.015445 0.000000 0.000000 0.000000
# 4 0.000000 0.000000 0.000000 0.040584 0.000000 0.000000
# 5 0.000000 0.000000 0.000000 0.000000 0.045055 0.000000
# 6 0.000000 0.000000 0.000000 0.000000 0.000000 0.126477
#
#
# Mechanical properties :
#
#
# Convention : Reuss Voigt Hill
#
# Bulk Modulus (GPa) = 31.20145 33.51387 32.35766
# Shear Modulus (GPa) = 16.99070 21.37893 19.18481
#
# Velocity S-wave (km/s) = 3.17353 3.55984 3.37222
# Velocity P-wave (km/s) = 5.65006 6.06318 5.86026
#
# Compressibility (1/GPa) = 0.03204980
#
# Stress axis : x y z
#
# Youngs Moduli (GPa) = 48.22611 64.16887 64.74497
#
# Poissons Ratio (x) = -0.04149 0.40649
# Poissons Ratio (y) = -0.03118 0.27360
# Poissons Ratio (z) = 0.30278 0.27116
#
# Static dielectric constant tensor:
#      x y z
#    x 1.575430 0.000000 0.000000 
#    y 0.000000 1.615400 0.000000 
#    z 0.000000 0.000000 1.586610 
# 
# From -- ./inp_files/31578.got.cif
#   From: 2010.05.17/outbox.cif.g08.bks.cpg/sg24_16_cif.got.tgz:31578.got - 2010.06.04 00:33:39.
