data_PCOD9333830
_publ_section_title
;
Structure prediction by ZEFSAII (Michael W. Deem and Ramdas Pophale) SiO2 
 PCOD9333830
Probable space group: I 21 21 21
;
_chemical_formula_sum "Si O2"
_cell_formula_units_Z 56
_cell_length_a 13.439622
_cell_length_b 9.831782
_cell_length_c 15.890676
_cell_angle_alpha 90.000000
_cell_angle_beta 90.000000
_cell_angle_gamma 90.000000
_cell_volume 2099.721365
_symmetry_space_group_name_H-M "I 21 21 21"
_symmetry_group_IT_number 24
_symmetry_cell_setting 'orthorhombic'
loop_
_space_group_symop_operation_xyz
x,y,z
-x,1/2-y,z
x,-y,1/2-z
1/2-x,y,-z
1/2+x,1/2+y,1/2+z
1/2-x,-y,1/2+z
1/2+x,1/2-y,-z
-x,1/2+y,1/2-z
loop_
_atom_site_type_symbol
_atom_site_label
_atom_site_fract_x
_atom_site_fract_y
_atom_site_fract_z
Si Si1 0.851552 0.025522 0.342591
Si Si2 0.393057 0.771924 0.084030
Si Si3 0.132334 0.152045 0.763420
Si Si4 0.830828 0.021631 0.931859
Si Si5 0.947392 0.416356 0.120841
Si Si6 0.141431 0.824230 0.210721
Si Si7 0.432079 0.079957 0.064018
O O1 0.740738 0.965929 0.350122
O O2 0.856317 0.188112 0.344389
O O3 0.936604 0.952637 0.395985
O O4 0.890843 0.000000 0.250000
O O5 0.500000 0.750000 0.043384
O O6 0.400347 0.754619 0.185876
O O7 0.332823 0.642713 0.053491
O O8 0.374804 0.932762 0.070657
O O9 0.248926 0.147506 0.745028
O O10 0.088412 0.000000 0.750000
O O11 0.108071 0.174952 0.860845
O O12 0.947743 0.058680 0.924244
O O13 0.750000 0.077301 0.000000
O O14 0.897906 0.558181 0.149873
O O15 0.919472 0.325475 0.201554
O O16 0.910959 0.366825 0.029928
#
# Coordination Sequence:
#
# PCOD9333830 Si02
#       7
#     8   8   8   8   8   8   8
#     4  12  25  42  71  95 131 183 223 277 339 413
#     4   9  20  35  61  95 130 174 218 276 339 396
#     4  10  19  40  61  93 131 171 219 268 330 410
#     4  11  22  39  64  99 140 169 225 285 348 402
#     4  11  23  41  66 100 132 172 222 282 338 393
#     4  11  23  42  67  95 134 177 230 270 336 416
#     4  10  23  38  65 100 136 170 221 289 342 395
#
# _framework density 26.670206
#
# number of rings (size 3 to 8) (size 9 to 14) (size 15 to 20)
#    0.000    1.429    5.714    0.429    2.000    4.571 
#    0.000    0.000    6.286    0.000    0.000    0.000 
#    0.000    0.000    0.000    0.000    0.000    0.000 
#
# Total GULP energy -156268.792247 kJ/mol
# GULP energy per Si atom -5581.028295 kJ/mol
# Density = 2.660950 g / cm^3
# Si number density = 26.670206 Si / 1000 Ang^3
#
#
#
# Elastic Constant Matrix: (Units=GPa)
#
#
# Indices 1 2 3 4 5 6 
#
# 1 154.6974 2.5833 29.8792 0.0000 0.0000 0.0000
# 2 2.5833 66.3371 -3.0244 0.0000 0.0000 0.0000
# 3 29.8792 -3.0244 137.9520 0.0000 0.0000 0.0000
# 4 0.0000 0.0000 0.0000 3.6251 0.0000 0.0000
# 5 0.0000 0.0000 0.0000 0.0000 5.5888 0.0000
# 6 0.0000 0.0000 0.0000 0.0000 0.0000 31.4027
#
#
#
# Elastic Compliance Matrix: (Units=1/GPa)
#
#
# Indices 1 2 3 4 5 6 
#
# 1 0.006754 -0.000330 -0.001470 0.000000 0.000000 0.000000
# 2 -0.000330 0.015106 0.000403 0.000000 0.000000 0.000000
# 3 -0.001470 0.000403 0.007576 0.000000 0.000000 0.000000
# 4 0.000000 0.000000 0.000000 0.275851 0.000000 0.000000
# 5 0.000000 0.000000 0.000000 0.000000 0.178930 0.000000
# 6 0.000000 0.000000 0.000000 0.000000 0.000000 0.031844
#
#
# Mechanical properties :
#
#
# Convention : Reuss Voigt Hill
#
# Bulk Modulus (GPa) = 37.53649 46.42918 41.98283
# Shear Modulus (GPa) = 9.47444 30.09322 19.78383
#
# Velocity S-wave (km/s) = 1.88684 3.36273 2.72655
# Velocity P-wave (km/s) = 4.34186 5.70295 5.06831
#
# Compressibility (1/GPa) = 0.02664074
#
# Stress axis : x y z
#
# Youngs Moduli (GPa) = 148.06756 66.20009 131.99367
#
# Poissons Ratio (x) = 0.02185 0.19403
# Poissons Ratio (y) = 0.04887 -0.05315
# Poissons Ratio (z) = 0.21766 -0.02666
#
# Static dielectric constant tensor:
#      x y z
#    x 2.111100 0.000000 0.000000 
#    y 0.000000 2.359510 0.000000 
#    z 0.000000 0.000000 2.127420 
# 
# From -- ./inp_files/26521.got.cif
#   From: 2010.05.17/outbox.cif.g08.bks.cpg/sg24_14_cif.got.tgz:26521.got - 2010.06.04 00:33:39.
