data_PCOD9333453
_publ_section_title
;
Structure prediction by ZEFSAII (Michael W. Deem and Ramdas Pophale) SiO2 
 PCOD9333453
Probable space group: I 21 21 21
;
_chemical_formula_sum "Si O2"
_cell_formula_units_Z 36
_cell_length_a 4.897413
_cell_length_b 12.979788
_cell_length_c 29.204620
_cell_angle_alpha 90.000000
_cell_angle_beta 90.000000
_cell_angle_gamma 90.000000
_cell_volume 1856.461250
_symmetry_space_group_name_H-M "I 21 21 21"
_symmetry_group_IT_number 24
_symmetry_cell_setting 'orthorhombic'
loop_
_space_group_symop_operation_xyz
x,y,z
-x,1/2-y,z
x,-y,1/2-z
1/2-x,y,-z
1/2+x,1/2+y,1/2+z
1/2-x,-y,1/2+z
1/2+x,1/2-y,-z
-x,1/2+y,1/2-z
loop_
_atom_site_type_symbol
_atom_site_label
_atom_site_fract_x
_atom_site_fract_y
_atom_site_fract_z
Si Si1 0.052443 0.370994 0.851274
Si Si2 0.958670 0.453164 0.581152
Si Si3 0.058857 0.973237 0.302517
Si Si4 0.250000 0.671593 0.000000
Si Si5 0.952260 0.131306 0.375365
O O1 0.008841 0.430922 0.900059
O O2 0.342834 0.401078 0.829519
O O3 0.000000 0.250000 0.856250
O O4 0.843467 0.419571 0.814478
O O5 0.095737 0.404937 0.535799
O O6 0.133064 0.389999 0.618704
O O7 0.640135 0.426841 0.586644
O O8 0.008657 0.000000 0.250000
O O9 0.048006 0.081967 0.328461
O O10 0.500000 0.750000 0.985269
O O11 0.000000 0.250000 0.378900
#
# Coordination Sequence:
#
# PCOD9333453 Si02
#       5
#     8   8   8   4   8
#     4  10  21  38  59  78 110 154 186 223 275 323
#     4  10  21  35  53  80 108 137 181 221 265 331
#     4  10  21  36  54  83 111 139 188 233 265 320
#     4  12  22  34  58  86 112 142 176 226 284 334
#     4  10  19  33  52  75 108 143 171 215 275 326
#
# _framework density 19.391734
#
# number of rings (size 3 to 8) (size 9 to 14) (size 15 to 20)
#    0.000    1.778    0.000    5.333    0.000    1.778 
#    0.000    0.000    0.000    9.333    0.000    0.000 
#    0.000    0.000    0.000    0.000    0.000    0.000 
#
# Total GULP energy -100234.961307 kJ/mol
# GULP energy per Si atom -5568.608962 kJ/mol
# Density = 1.934760 g / cm^3
# Si number density = 19.391734 Si / 1000 Ang^3
#
#
#
# Elastic Constant Matrix: (Units=GPa)
#
#
# Indices 1 2 3 4 5 6 
#
# 1 73.1213 -12.3687 1.3209 0.0000 0.0000 0.0000
# 2 -12.3687 101.1431 42.2066 0.0000 0.0000 0.0000
# 3 1.3209 42.2066 113.2457 0.0000 0.0000 0.0000
# 4 0.0000 0.0000 0.0000 13.6950 0.0000 0.0000
# 5 0.0000 0.0000 0.0000 0.0000 15.6746 0.0000
# 6 0.0000 0.0000 0.0000 0.0000 0.0000 17.8684
#
#
#
# Elastic Compliance Matrix: (Units=1/GPa)
#
#
# Indices 1 2 3 4 5 6 
#
# 1 0.014051 0.002116 -0.000952 0.000000 0.000000 0.000000
# 2 0.002116 0.012026 -0.004507 0.000000 0.000000 0.000000
# 3 -0.000952 -0.004507 0.010521 0.000000 0.000000 0.000000
# 4 0.000000 0.000000 0.000000 0.073019 0.000000 0.000000
# 5 0.000000 0.000000 0.000000 0.000000 0.063798 0.000000
# 6 0.000000 0.000000 0.000000 0.000000 0.000000 0.055965
#
#
# Mechanical properties :
#
#
# Convention : Reuss Voigt Hill
#
# Bulk Modulus (GPa) = 33.43208 38.86974 36.15091
# Shear Modulus (GPa) = 20.32209 26.53769 23.42989
#
# Velocity S-wave (km/s) = 3.24076 3.70334 3.47975
# Velocity P-wave (km/s) = 5.59296 6.19470 5.90150
#
# Compressibility (1/GPa) = 0.02991139
#
# Stress axis : x y z
#
# Youngs Moduli (GPa) = 71.16930 83.15018 95.04624
#
# Poissons Ratio (x) = -0.17592 0.09052
# Poissons Ratio (y) = -0.15058 0.42837
# Poissons Ratio (z) = 0.06778 0.37475
#
# Static dielectric constant tensor:
#      x y z
#    x 1.690700 0.000000 0.000000 
#    y 0.000000 1.675450 0.000000 
#    z 0.000000 0.000000 1.716100 
# 
# From -- ./inp_files/37810.got.cif
#   From: 2010.05.17/outbox.cif.g08.bks.cpg/sg24_19_cif.got.tgz:37810.got - 2010.06.04 00:33:39.
