data_PCOD9333690
_publ_section_title
;
Structure prediction by ZEFSAII (Michael W. Deem and Ramdas Pophale) SiO2 
 PCOD9333690
Probable space group: I 21 21 21
;
_chemical_formula_sum "Si O2"
_cell_formula_units_Z 64
_cell_length_a 14.357011
_cell_length_b 11.219760
_cell_length_c 20.426546
_cell_angle_alpha 90.000000
_cell_angle_beta 90.000000
_cell_angle_gamma 90.000000
_cell_volume 3290.353330
_symmetry_space_group_name_H-M "I 21 21 21"
_symmetry_group_IT_number 24
_symmetry_cell_setting 'orthorhombic'
loop_
_space_group_symop_operation_xyz
x,y,z
-x,1/2-y,z
x,-y,1/2-z
1/2-x,y,-z
1/2+x,1/2+y,1/2+z
1/2-x,-y,1/2+z
1/2+x,1/2-y,-z
-x,1/2+y,1/2-z
loop_
_atom_site_type_symbol
_atom_site_label
_atom_site_fract_x
_atom_site_fract_y
_atom_site_fract_z
Si Si1 0.892131 0.086421 0.689748
Si Si2 0.480082 0.390848 0.576184
Si Si3 0.145765 0.696099 0.287634
Si Si4 0.315596 0.007712 0.351500
Si Si5 0.893609 0.546315 0.325570
Si Si6 0.023714 0.890921 0.929784
Si Si7 0.173095 0.434505 0.340169
Si Si8 0.656673 0.307349 0.236521
O O1 0.783921 0.075763 0.667925
O O2 0.905077 0.214889 0.723663
O O3 0.957316 0.062234 0.628203
O O4 0.910433 0.000000 0.750000
O O5 0.500000 0.250000 0.582185
O O6 0.536199 0.469449 0.629878
O O7 0.504164 0.432732 0.503211
O O8 0.370449 0.405167 0.590473
O O9 0.092499 0.810799 0.316132
O O10 0.142002 0.568938 0.322934
O O11 0.128107 0.659076 0.211990
O O12 0.254187 0.734616 0.288654
O O13 0.372069 0.071126 0.409077
O O14 0.310984 0.102752 0.292916
O O15 0.208261 0.970279 0.359072
O O16 0.371996 0.892823 0.323134
O O17 0.893054 0.500000 0.250000
O O18 0.000000 0.750000 0.929895
#
# Coordination Sequence:
#
# PCOD9333690 Si02
#       8
#     8   8   8   8   8   8   8   8
#     4  11  21  35  66  93 119 153 198 247 306 351
#     4  11  27  41  56  87 124 161 204 242 298 365
#     4   9  17  35  61  95 114 145 197 245 305 344
#     4  10  19  36  62  87 124 145 194 254 295 346
#     4  11  21  36  65  90 116 153 199 252 303 351
#     4  11  25  40  57  87 123 164 202 240 296 370
#     4  10  20  39  61  87 126 148 193 255 289 354
#     4   9  16  33  58  96 115 141 190 247 302 341
#
# _framework density 19.450799
#
# number of rings (size 3 to 8) (size 9 to 14) (size 15 to 20)
#    0.000    1.750    6.250    0.750    5.250    1.500 
#    0.000    2.500    5.500    1.500    0.000    0.000 
#    0.000    0.000    0.000    0.000    0.000    0.000 
#
# Total GULP energy -178306.757365 kJ/mol
# GULP energy per Si atom -5572.086168 kJ/mol
# Density = 1.940653 g / cm^3
# Si number density = 19.450799 Si / 1000 Ang^3
#
#
#
# Elastic Constant Matrix: (Units=GPa)
#
#
# Indices 1 2 3 4 5 6 
#
# 1 84.2298 41.5811 57.6045 0.0000 0.0000 0.0000
# 2 41.5811 103.5724 26.1650 0.0000 0.0000 0.0000
# 3 57.6045 26.1650 101.1958 0.0000 0.0000 0.0000
# 4 0.0000 0.0000 0.0000 22.5876 0.0000 0.0000
# 5 0.0000 0.0000 0.0000 0.0000 -32.3454 0.0000
# 6 0.0000 0.0000 0.0000 0.0000 0.0000 69.5809
#
#
#
# Elastic Compliance Matrix: (Units=1/GPa)
#
#
# Indices 1 2 3 4 5 6 
#
# 1 0.022685 -0.006254 -0.011296 0.000000 0.000000 0.000000
# 2 -0.006254 0.012054 0.000443 0.000000 0.000000 0.000000
# 3 -0.011296 0.000443 0.016197 0.000000 0.000000 0.000000
# 4 0.000000 0.000000 0.000000 0.044272 0.000000 0.000000
# 5 0.000000 0.000000 0.000000 0.000000 -0.030916 0.000000
# 6 0.000000 0.000000 0.000000 0.000000 0.000000 0.014372
#
#
# Mechanical properties :
#
#
# Convention : Reuss Voigt Hill
#
# Bulk Modulus (GPa) = 59.79817 59.96659 59.88238
# Shear Modulus (GPa) = 42.21154 22.87444 32.54299
#
# Velocity S-wave (km/s) = 4.66356 3.43303 4.09478
# Velocity P-wave (km/s) = 7.73359 6.82723 7.29450
#
# Compressibility (1/GPa) = 0.01672292
#
# Stress axis : x y z
#
# Youngs Moduli (GPa) = 44.08228 82.96180 61.73809
#
# Poissons Ratio (x) = 0.51881 0.69740
# Poissons Ratio (y) = 0.27567 -0.02736
# Poissons Ratio (z) = 0.49796 -0.03677
#
# Static dielectric constant tensor:
#      x y z
#    x 1.755110 0.000000 0.000000 
#    y 0.000000 1.687520 0.000000 
#    z 0.000000 0.000000 1.654040 
# 
# From -- ./inp_files/30881.got.cif
#   From: 2010.05.17/outbox.cif.g08.bks.cpg/sg24_16_cif.got.tgz:30881.got - 2010.06.04 00:33:39.
