data_PCOD9333389
_publ_section_title
;
Structure prediction by ZEFSAII (Michael W. Deem and Ramdas Pophale) SiO2 
 PCOD9333389
Probable space group: I 21 21 21
;
_chemical_formula_sum "Si O2"
_cell_formula_units_Z 64
_cell_length_a 9.241883
_cell_length_b 21.055008
_cell_length_c 15.926938
_cell_angle_alpha 90.000000
_cell_angle_beta 90.000000
_cell_angle_gamma 90.000000
_cell_volume 3099.189745
_symmetry_space_group_name_H-M "I 21 21 21"
_symmetry_group_IT_number 24
_symmetry_cell_setting 'orthorhombic'
loop_
_space_group_symop_operation_xyz
x,y,z
-x,1/2-y,z
x,-y,1/2-z
1/2-x,y,-z
1/2+x,1/2+y,1/2+z
1/2-x,-y,1/2+z
1/2+x,1/2-y,-z
-x,1/2+y,1/2-z
loop_
_atom_site_type_symbol
_atom_site_label
_atom_site_fract_x
_atom_site_fract_y
_atom_site_fract_z
Si Si1 0.634944 0.573341 0.923858
Si Si2 0.577099 0.567882 0.345059
Si Si3 0.576329 0.185267 0.619447
Si Si4 0.574366 0.430746 0.349243
Si Si5 0.591643 0.810712 0.132744
Si Si6 0.424981 0.317700 0.823027
Si Si7 0.908397 0.811231 0.661565
Si Si8 0.417871 0.953305 0.666873
O O1 0.514299 0.626702 0.916626
O O2 0.566232 0.504425 0.908193
O O3 0.754063 0.583231 0.849506
O O4 0.750000 0.575839 0.000000
O O5 0.543989 0.500077 0.386111
O O6 0.529582 0.565729 0.247558
O O7 0.493401 0.628809 0.376826
O O8 0.750817 0.569596 0.340730
O O9 0.500000 0.250000 0.592799
O O10 0.745884 0.188154 0.600211
O O11 0.571059 0.182315 0.721090
O O12 0.489810 0.374629 0.392464
O O13 0.500000 0.750000 0.105727
O O14 0.590078 0.810194 0.235348
O O15 0.500000 0.250000 0.848012
O O16 0.261336 0.313511 0.857274
O O17 0.491225 0.388149 0.841287
O O18 0.000000 0.750000 0.635268
O O19 0.442911 0.000000 0.750000
#
# Coordination Sequence:
#
# PCOD9333389 Si02
#       8
#     8   8   8   8   8   8   8   8
#     4  11  22  36  53  77 110 154 195 237 285 352
#     4   9  15  28  48  70  96 132 168 217 276 328
#     4  10  19  33  52  76 108 146 191 235 282 339
#     4   9  16  30  47  68  94 128 173 216 271 323
#     4   9  17  28  47  71  99 137 179 227 273 323
#     4  10  19  31  53  84 114 143 179 238 298 350
#     4   9  17  27  43  76 111 137 170 220 282 344
#     4  11  18  34  55  81 110 148 188 239 295 343
#
# _framework density 20.650561
#
# number of rings (size 3 to 8) (size 9 to 14) (size 15 to 20)
#    0.000    2.250    3.750    1.500    0.000    5.000 
#    2.250    2.500    0.000    0.000    0.000    7.000 
#    0.000    0.000    0.000    0.000    0.000    0.000 
#
# Total GULP energy -178211.938859 kJ/mol
# GULP energy per Si atom -5569.123089 kJ/mol
# Density = 2.060356 g / cm^3
# Si number density = 20.650561 Si / 1000 Ang^3
#
#
#
# Elastic Constant Matrix: (Units=GPa)
#
#
# Indices 1 2 3 4 5 6 
#
# 1 159.4843 154.2399 12.1164 0.0000 0.0000 0.0000
# 2 154.2399 245.6045 20.1496 0.0000 0.0000 0.0000
# 3 12.1164 20.1496 16.8721 0.0000 0.0000 0.0000
# 4 0.0000 0.0000 0.0000 -6.8183 0.0000 0.0000
# 5 0.0000 0.0000 0.0000 0.0000 14.9103 0.0000
# 6 0.0000 0.0000 0.0000 0.0000 0.0000 48.4295
#
#
#
# Elastic Compliance Matrix: (Units=1/GPa)
#
#
# Indices 1 2 3 4 5 6 
#
# 1 0.015974 -0.010078 0.000564 0.000000 0.000000 0.000000
# 2 -0.010078 0.010872 -0.005747 0.000000 0.000000 0.000000
# 3 0.000564 -0.005747 0.065727 0.000000 0.000000 0.000000
# 4 0.000000 0.000000 0.000000 -0.146665 0.000000 0.000000
# 5 0.000000 0.000000 0.000000 0.000000 0.067068 0.000000
# 6 0.000000 0.000000 0.000000 0.000000 0.000000 0.020649
#
#
# Mechanical properties :
#
#
# Convention : Reuss Voigt Hill
#
# Bulk Modulus (GPa) = 16.11545 88.33029 52.22287
# Shear Modulus (GPa) = 58.94218 27.00131 42.97174
#
# Velocity S-wave (km/s) = 5.34833 3.61991 4.56664
# Velocity P-wave (km/s) = 6.77940 7.76777 7.29036
#
# Compressibility (1/GPa) = 0.06205227
#
# Stress axis : x y z
#
# Youngs Moduli (GPa) = 62.60253 91.97996 15.21443
#
# Poissons Ratio (x) = 0.92696 -0.00858
# Poissons Ratio (y) = 0.63090 0.08743
# Poissons Ratio (z) = -0.03532 0.52857
#
# Static dielectric constant tensor:
#      x y z
#    x 1.717910 0.000000 0.000000 
#    y 0.000000 1.750790 0.000000 
#    z 0.000000 0.000000 1.821330 
# 
# From -- ./inp_files/29846.got.cif
#   From: 2010.05.17/outbox.cif.g08.bks.cpg/sg24_15_cif.got.tgz:29846.got - 2010.06.04 00:33:39.
