data_PCOD9333035
_publ_section_title
;
Structure prediction by ZEFSAII (Michael W. Deem and Ramdas Pophale) SiO2 
 PCOD9333035
Probable space group: I 21 21 21
;
_chemical_formula_sum "Si O2"
_cell_formula_units_Z 32
_cell_length_a 11.020742
_cell_length_b 18.012038
_cell_length_c 5.664562
_cell_angle_alpha 90.000000
_cell_angle_beta 90.000000
_cell_angle_gamma 90.000000
_cell_volume 1124.449679
_symmetry_space_group_name_H-M "I 21 21 21"
_symmetry_group_IT_number 24
_symmetry_cell_setting 'orthorhombic'
loop_
_space_group_symop_operation_xyz
x,y,z
-x,1/2-y,z
x,-y,1/2-z
1/2-x,y,-z
1/2+x,1/2+y,1/2+z
1/2-x,-y,1/2+z
1/2+x,1/2-y,-z
-x,1/2+y,1/2-z
loop_
_atom_site_type_symbol
_atom_site_label
_atom_site_fract_x
_atom_site_fract_y
_atom_site_fract_z
Si Si1 0.113854 0.162239 0.860895
Si Si2 0.250000 0.074655 0.500000
Si Si3 0.000000 0.250000 0.491850
Si Si4 0.999871 0.520427 0.492691
Si Si5 0.750000 0.175682 0.500000
Si Si6 0.250000 0.307390 0.000000
O O1 0.230792 0.123096 0.739109
O O2 0.031446 0.175312 0.632348
O O3 0.036598 0.107056 0.018785
O O4 0.143898 0.244355 0.953526
O O5 0.129594 0.024435 0.490078
O O6 0.136274 0.272221 0.422036
O O7 0.051768 0.500000 0.750000
O O8 0.065372 0.500000 0.250000
O O9 0.764703 0.142868 0.763174
#
# Coordination Sequence:
#
# PCOD9333035 Si02
#       6
#     8   4   4   8   4   4
#     4  10  19  33  55  84 124 167 211 261 330 394
#     4  10  18  32  52  80 116 156 202 262 314 358
#     4  10  22  40  60  90 132 184 220 264 326 404
#     4  10  19  30  48  76 111 150 195 254 315 361
#     4  10  23  38  56  81 120 171 223 256 308 384
#     4  10  19  34  54  79 114 163 209 256 304 374
#
# _framework density 28.458364
#
# number of rings (size 3 to 8) (size 9 to 14) (size 15 to 20)
#    0.000    2.000    0.000    7.500    0.000    8.000 
#    0.000    0.000    0.000    0.000    0.000    0.000 
#    0.000  174.000    0.000   39.500    0.000    0.000 
#
# Total GULP energy -89118.669126 kJ/mol
# GULP energy per Si atom -5569.916820 kJ/mol
# Density = 2.839359 g / cm^3
# Si number density = 28.458364 Si / 1000 Ang^3
#
#
#
# Elastic Constant Matrix: (Units=GPa)
#
#
# Indices 1 2 3 4 5 6 
#
# 1 90.2302 6.2020 -31.3932 0.0054 0.0000 0.0000
# 2 6.2020 82.8923 10.3284 -0.0056 0.0000 0.0000
# 3 -31.3932 10.3284 237.5890 -0.0877 0.0003 -0.0002
# 4 0.0054 -0.0056 -0.0877 4825.3583 -0.0201 -0.0098
# 5 0.0000 0.0000 0.0003 -0.0201 5.0336 0.0001
# 6 0.0000 0.0000 -0.0002 -0.0098 0.0001 37.8286
#
#
#
# Elastic Compliance Matrix: (Units=1/GPa)
#
#
# Indices 1 2 3 4 5 6 
#
# 1 0.011711 -0.001075 0.001594 0.000000 0.000000 0.000000
# 2 -0.001075 0.012228 -0.000674 0.000000 0.000000 0.000000
# 3 0.001594 -0.000674 0.004449 0.000000 0.000000 0.000000
# 4 0.000000 0.000000 0.000000 0.000207 0.000001 0.000000
# 5 0.000000 0.000000 0.000000 0.000001 0.198663 0.000000
# 6 0.000000 0.000000 0.000000 0.000000 0.000000 0.026435
#
#
# Mechanical properties :
#
#
# Convention : Reuss Voigt Hill
#
# Bulk Modulus (GPa) = 35.61284 42.33175 38.97229
# Shear Modulus (GPa) = 18.98524 1002.01573 510.50049
#
# Velocity S-wave (km/s) = 2.58568 18.78465 13.40800
# Velocity P-wave (km/s) = 4.63200 22.03160 15.91928
#
# Compressibility (1/GPa) = 0.02807976
#
# Stress axis : x y z
#
# Youngs Moduli (GPa) = 85.38765 81.77817 224.77605
#
# Poissons Ratio (x) = 0.08790 -0.35833
# Poissons Ratio (y) = 0.09178 0.15141
# Poissons Ratio (z) = -0.13612 0.05509
#
# Static dielectric constant tensor:
#      x y z
#    x -1.743280 0.000030 0.000020 
#    y 0.000030 2.145940 0.000000 
#    z 0.000020 0.000000 2.705560 
# 
# From -- ./inp_files/2048.got.cif
#   From: 2010.05.17/outbox.cif.g08.bks.cpg/sg24_2_cif.got.tgz:2048.got - 2010.06.04 00:33:39.
