data_PCOD9333886
_publ_section_title
;
Structure prediction by ZEFSAII (Michael W. Deem and Ramdas Pophale) SiO2 
 PCOD9333886
Probable space group: I 21 21 21
;
_chemical_formula_sum "Si O2"
_cell_formula_units_Z 44
_cell_length_a 24.856662
_cell_length_b 7.072632
_cell_length_c 10.082175
_cell_angle_alpha 90.000000
_cell_angle_beta 90.000000
_cell_angle_gamma 90.000000
_cell_volume 1772.466762
_symmetry_space_group_name_H-M "I 21 21 21"
_symmetry_group_IT_number 24
_symmetry_cell_setting 'orthorhombic'
loop_
_space_group_symop_operation_xyz
x,y,z
-x,1/2-y,z
x,-y,1/2-z
1/2-x,y,-z
1/2+x,1/2+y,1/2+z
1/2-x,-y,1/2+z
1/2+x,1/2-y,-z
-x,1/2+y,1/2-z
loop_
_atom_site_type_symbol
_atom_site_label
_atom_site_fract_x
_atom_site_fract_y
_atom_site_fract_z
Si Si1 0.589514 0.704331 0.016957
Si Si2 0.917655 0.159207 0.941629
Si Si3 0.294707 0.697798 0.396262
Si Si4 0.000000 0.750000 0.793667
Si Si5 0.793071 0.261516 0.607184
Si Si6 0.937997 0.220854 0.236880
O O1 0.538273 0.630513 0.102767
O O2 0.647572 0.661746 0.077254
O O3 0.582847 0.933039 0.033445
O O4 0.590704 0.671203 0.858202
O O5 0.857691 0.233877 0.916342
O O6 0.954793 0.185162 0.812978
O O7 0.934027 0.258687 0.079974
O O8 0.250000 0.756710 0.500000
O O9 0.277584 0.788644 0.258350
O O10 0.294668 0.468372 0.398923
O O11 0.750000 0.324476 0.500000
O O12 0.000000 0.250000 0.273172
O O13 0.922209 0.000000 0.250000
#
# Coordination Sequence:
#
# PCOD9333886 Si02
#       6
#     8   8   8   4   8   8
#     4  10  20  32  47  69 100 133 167 210 253 307
#     4  10  20  32  47  69 100 133 167 210 253 307
#     4   9  17  28  42  63  92 127 163 199 250 309
#     4  12  18  30  50  66 100 130 170 206 254 292
#     4   9  17  28  42  63  92 127 163 199 250 309
#     4  10  20  34  49  70 100 134 168 203 252 304
#
# _framework density 24.824161
#
# number of rings (size 3 to 8) (size 9 to 14) (size 15 to 20)
#    0.000    2.182    3.636    0.545    2.545    0.000 
#    0.000    0.000    0.000    0.000    0.000    0.000 
#    0.000   18.909    0.000    0.000    0.000    0.000 
#
# Total GULP energy -122862.090426 kJ/mol
# GULP energy per Si atom -5584.640474 kJ/mol
# Density = 2.476766 g / cm^3
# Si number density = 24.824161 Si / 1000 Ang^3
#
#
#
# Elastic Constant Matrix: (Units=GPa)
#
#
# Indices 1 2 3 4 5 6 
#
# 1 179.4683 -4.9160 100.1533 0.0000 0.0000 0.0000
# 2 -4.9160 113.4743 7.4720 0.0000 0.0000 0.0000
# 3 100.1533 7.4720 244.8429 0.0000 0.0000 0.0000
# 4 0.0000 0.0000 0.0000 11.0063 0.0000 0.0000
# 5 0.0000 0.0000 0.0000 0.0000 62.9484 0.0000
# 6 0.0000 0.0000 0.0000 0.0000 0.0000 0.9223
#
#
#
# Elastic Compliance Matrix: (Units=1/GPa)
#
#
# Indices 1 2 3 4 5 6 
#
# 1 0.007250 0.000510 -0.002981 0.000000 0.000000 0.000000
# 2 0.000510 0.008866 -0.000479 0.000000 0.000000 0.000000
# 3 -0.002981 -0.000479 0.005318 0.000000 0.000000 0.000000
# 4 0.000000 0.000000 0.000000 0.090857 0.000000 0.000000
# 5 0.000000 0.000000 0.000000 0.000000 0.015886 0.000000
# 6 0.000000 0.000000 0.000000 0.000000 0.000000 1.084187
#
#
# Mechanical properties :
#
#
# Convention : Reuss Voigt Hill
#
# Bulk Modulus (GPa) = 64.37458 82.57824 73.47641
# Shear Modulus (GPa) = 4.08683 43.98049 24.03366
#
# Velocity S-wave (km/s) = 1.28448 4.21370 3.11490
# Velocity P-wave (km/s) = 5.30927 7.55057 6.52685
#
# Compressibility (1/GPa) = 0.01553408
#
# Stress axis : x y z
#
# Youngs Moduli (GPa) = 137.93918 112.78738 188.03099
#
# Poissons Ratio (x) = -0.05756 0.56052
# Poissons Ratio (y) = -0.07040 0.09013
# Poissons Ratio (z) = 0.41120 0.05406
#
# Static dielectric constant tensor:
#      x y z
#    x 1.897740 0.000000 0.000000 
#    y 0.000000 2.145550 0.000000 
#    z 0.000000 0.000000 1.943580 
# 
# From -- ./inp_files/11193.got.cif
#   From: 2010.05.17/outbox.cif.g08.bks.cpg/sg24_6_cif.got.tgz:11193.got - 2010.06.04 00:33:39.
