data_PCOD9333308
_publ_section_title
;
Structure prediction by ZEFSAII (Michael W. Deem and Ramdas Pophale) SiO2 
 PCOD9333308
Probable space group: I 21 21 21
;
_chemical_formula_sum "Si O2"
_cell_formula_units_Z 48
_cell_length_a 10.757176
_cell_length_b 13.696648
_cell_length_c 13.095149
_cell_angle_alpha 90.000000
_cell_angle_beta 90.000000
_cell_angle_gamma 90.000000
_cell_volume 1929.403283
_symmetry_space_group_name_H-M "I 21 21 21"
_symmetry_group_IT_number 24
_symmetry_cell_setting 'orthorhombic'
loop_
_space_group_symop_operation_xyz
x,y,z
-x,1/2-y,z
x,-y,1/2-z
1/2-x,y,-z
1/2+x,1/2+y,1/2+z
1/2-x,-y,1/2+z
1/2+x,1/2-y,-z
-x,1/2+y,1/2-z
loop_
_atom_site_type_symbol
_atom_site_label
_atom_site_fract_x
_atom_site_fract_y
_atom_site_fract_z
Si Si1 0.996268 0.136918 0.212105
Si Si2 0.374280 0.190603 0.446664
Si Si3 0.884896 0.320764 0.796664
Si Si4 0.750000 0.001577 0.000000
Si Si5 0.982922 0.457606 0.419273
Si Si6 0.216563 0.367335 0.809236
Si Si7 0.987455 0.000000 0.750000
O O1 0.054086 0.108229 0.320724
O O2 0.852297 0.108630 0.229493
O O3 0.000000 0.250000 0.190151
O O4 0.039163 0.067317 0.120374
O O5 0.500000 0.250000 0.472219
O O6 0.250000 0.230232 0.500000
O O7 0.364069 0.184926 0.325299
O O8 0.400337 0.083355 0.490443
O O9 0.779053 0.248158 0.835699
O O10 0.000000 0.250000 0.825926
O O11 0.919401 0.432567 0.817927
O O12 0.804576 0.071176 0.911371
O O13 0.627826 0.949094 0.954532
O O14 0.113044 0.411096 0.729709
#
# Coordination Sequence:
#
# PCOD9333308 Si02
#       7
#     8   8   8   4   8   8   4
#     4  10  22  41  64  96 131 180 223 276 348 413
#     4  11  25  41  63 102 136 175 228 286 344 400
#     4   9  21  38  60  91 126 166 218 276 338 393
#     4  10  20  38  68 100 130 178 232 278 334 410
#     4  10  22  40  67  97 134 178 226 286 337 406
#     4  10  20  37  64  92 131 171 220 276 342 411
#     4  10  18  40  64  88 120 176 218 270 340 408
#
# _framework density 24.878157999999999
#
# number of rings (size 3 to 8) (size 9 to 14) (size 15 to 20)
#    0.000    2.000    0.000    3.500    5.833    1.333 
#    3.000   13.333    1.833    0.000    0.000    0.000 
#    0.000    0.000    0.000    0.000    0.000    0.000 
#
# Total GULP energy -133750.625083 kJ/mol
# GULP energy per Si atom -5572.942712 kJ/mol
# Density = 2.482153 g / cm^3
# Si number density = 24.878158 Si / 1000 Ang^3
#
#
#
# Elastic Constant Matrix: (Units=GPa)
#
#
# Indices 1 2 3 4 5 6 
#
# 1 82.1666 18.8236 11.2498 0.0000 0.0000 0.0000
# 2 18.8236 167.8580 16.3412 0.0000 0.0000 0.0000
# 3 11.2498 16.3412 65.2675 0.0000 0.0000 0.0000
# 4 0.0000 0.0000 0.0000 18.8627 0.0000 0.0000
# 5 0.0000 0.0000 0.0000 0.0000 16.4663 0.0000
# 6 0.0000 0.0000 0.0000 0.0000 0.0000 37.7559
#
#
#
# Elastic Compliance Matrix: (Units=1/GPa)
#
#
# Indices 1 2 3 4 5 6 
#
# 1 0.012712 -0.001243 -0.001880 0.000000 0.000000 0.000000
# 2 -0.001243 0.006228 -0.001345 0.000000 0.000000 0.000000
# 3 -0.001880 -0.001345 0.015982 0.000000 0.000000 0.000000
# 4 0.000000 0.000000 0.000000 0.053015 0.000000 0.000000
# 5 0.000000 0.000000 0.000000 0.000000 0.060730 0.000000
# 6 0.000000 0.000000 0.000000 0.000000 0.000000 0.026486
#
#
# Mechanical properties :
#
#
# Convention : Reuss Voigt Hill
#
# Bulk Modulus (GPa) = 38.48055 45.34681 41.91368
# Shear Modulus (GPa) = 25.94023 32.54217 29.24120
#
# Velocity S-wave (km/s) = 3.23258 3.62064 3.43210
# Velocity P-wave (km/s) = 5.42530 5.97878 5.70875
#
# Compressibility (1/GPa) = 0.02598715
#
# Stress axis : x y z
#
# Youngs Moduli (GPa) = 78.66303 160.57291 62.56892
#
# Poissons Ratio (x) = 0.19952 0.11763
# Poissons Ratio (y) = 0.09774 0.08416
# Poissons Ratio (z) = 0.14789 0.21598
#
# Static dielectric constant tensor:
#      x y z
#    x 2.250480 0.000000 0.000000 
#    y 0.000000 2.066220 0.000000 
#    z 0.000000 0.000000 2.016210 
# 
# From -- ./inp_files/25756.got.cif
#   From: 2010.05.17/outbox.cif.g08.bks.cpg/sg24_13_cif.got.tgz:25756.got - 2010.06.04 00:33:39.
