data_PCOD9333624
_publ_section_title
;
Structure prediction by ZEFSAII (Michael W. Deem and Ramdas Pophale) SiO2 
 PCOD9333624
Probable space group: I 21 21 21
;
_chemical_formula_sum "Si O2"
_cell_formula_units_Z 40
_cell_length_a 8.523730
_cell_length_b 7.883759
_cell_length_c 27.568720
_cell_angle_alpha 90.000000
_cell_angle_beta 90.000000
_cell_angle_gamma 90.000000
_cell_volume 1852.591328
_symmetry_space_group_name_H-M "I 21 21 21"
_symmetry_group_IT_number 24
_symmetry_cell_setting 'orthorhombic'
loop_
_space_group_symop_operation_xyz
x,y,z
-x,1/2-y,z
x,-y,1/2-z
1/2-x,y,-z
1/2+x,1/2+y,1/2+z
1/2-x,-y,1/2+z
1/2+x,1/2-y,-z
-x,1/2+y,1/2-z
loop_
_atom_site_type_symbol
_atom_site_label
_atom_site_fract_x
_atom_site_fract_y
_atom_site_fract_z
Si Si1 0.250000 0.925771 0.000000
Si Si2 0.250983 0.439453 0.369095
Si Si3 0.500000 0.750000 0.930678
Si Si4 0.825946 0.808221 0.228636
Si Si5 0.559365 0.443724 0.088674
Si Si6 0.318128 0.796179 0.323401
O O1 0.368478 0.824295 0.965980
O O2 0.146530 0.025343 0.961025
O O3 0.270502 0.325036 0.321041
O O4 0.407591 0.439312 0.401939
O O5 0.240209 0.633376 0.349878
O O6 0.095942 0.382286 0.397348
O O7 0.763422 0.688263 0.271638
O O8 0.000000 0.750000 0.216022
O O9 0.827818 0.000000 0.250000
O O10 0.500000 0.250000 0.087435
O O11 0.671140 0.444701 0.136574
O O12 0.500000 0.750000 0.312243
#
# Coordination Sequence:
#
# PCOD9333624 Si02
#       6
#     4   8   4   8   8   8
#     4  12  26  40  64  88 118 166 206 256 312 354
#     4   9  19  39  61  85 127 160 198 252 304 369
#     4  12  24  40  58  88 126 160 204 248 308 376
#     4  10  19  35  59  90 126 165 199 247 304 370
#     4   9  21  42  64  89 120 156 209 258 302 360
#     4   8  18  38  60  88 123 158 201 246 298 362
#
# _framework density 21.591377999999999
#
# number of rings (size 3 to 8) (size 9 to 14) (size 15 to 20)
#    0.000    2.800    1.000    1.200    0.000    6.400 
#    3.600    3.000    0.000    0.000    0.000    0.000 
#    0.000    0.000    0.000    0.000    0.000    0.000 
#
# Total GULP energy -111579.840114 kJ/mol
# GULP energy per Si atom -5578.992006 kJ/mol
# Density = 2.154224 g / cm^3
# Si number density = 21.591378 Si / 1000 Ang^3
#
#
#
# Elastic Constant Matrix: (Units=GPa)
#
#
# Indices 1 2 3 4 5 6 
#
# 1 106.2285 41.7415 72.7826 0.0000 0.0000 0.0000
# 2 41.7415 58.2356 31.4884 0.0000 0.0000 0.0000
# 3 72.7826 31.4884 134.0778 0.0000 0.0000 0.0000
# 4 0.0000 0.0000 0.0000 11.3664 0.0000 0.0000
# 5 0.0000 0.0000 0.0000 0.0000 53.7054 0.0000
# 6 0.0000 0.0000 0.0000 0.0000 0.0000 36.8679
#
#
#
# Elastic Compliance Matrix: (Units=1/GPa)
#
#
# Indices 1 2 3 4 5 6 
#
# 1 0.018258 -0.008852 -0.007832 0.000000 0.000000 0.000000
# 2 -0.008852 0.023961 -0.000822 0.000000 0.000000 0.000000
# 3 -0.007832 -0.000822 0.011903 0.000000 0.000000 0.000000
# 4 0.000000 0.000000 0.000000 0.087979 0.000000 0.000000
# 5 0.000000 0.000000 0.000000 0.000000 0.018620 0.000000
# 6 0.000000 0.000000 0.000000 0.000000 0.000000 0.027124
#
#
# Mechanical properties :
#
#
# Convention : Reuss Voigt Hill
#
# Bulk Modulus (GPa) = 52.33002 65.61855 58.97429
# Shear Modulus (GPa) = 21.81235 30.55658 26.18446
#
# Velocity S-wave (km/s) = 3.18187 3.76602 3.48620
# Velocity P-wave (km/s) = 6.14721 7.02621 6.60136
#
# Compressibility (1/GPa) = 0.01910949
#
# Stress axis : x y z
#
# Youngs Moduli (GPa) = 54.76936 41.73456 84.01120
#
# Poissons Ratio (x) = 0.36943 0.65801
# Poissons Ratio (y) = 0.48482 0.06906
# Poissons Ratio (z) = 0.42898 0.03431
#
# Static dielectric constant tensor:
#      x y z
#    x 1.790200 0.000000 0.000000 
#    y 0.000000 1.748880 0.000000 
#    z 0.000000 0.000000 1.825340 
# 
# From -- ./inp_files/36783.got.cif
#   From: 2010.05.17/outbox.cif.g08.bks.cpg/sg24_19_cif.got.tgz:36783.got - 2010.06.04 00:33:39.
