data_PCOD9333549
_publ_section_title
;
Structure prediction by ZEFSAII (Michael W. Deem and Ramdas Pophale) SiO2 
 PCOD9333549
Probable space group: I 21 21 21
;
_chemical_formula_sum "Si O2"
_cell_formula_units_Z 40
_cell_length_a 14.829679
_cell_length_b 5.907989
_cell_length_c 21.193686
_cell_angle_alpha 90.000000
_cell_angle_beta 90.000000
_cell_angle_gamma 90.000000
_cell_volume 1856.854712
_symmetry_space_group_name_H-M "I 21 21 21"
_symmetry_group_IT_number 24
_symmetry_cell_setting 'orthorhombic'
loop_
_space_group_symop_operation_xyz
x,y,z
-x,1/2-y,z
x,-y,1/2-z
1/2-x,y,-z
1/2+x,1/2+y,1/2+z
1/2-x,-y,1/2+z
1/2+x,1/2-y,-z
-x,1/2+y,1/2-z
loop_
_atom_site_type_symbol
_atom_site_label
_atom_site_fract_x
_atom_site_fract_y
_atom_site_fract_z
Si Si1 0.328087 0.528200 0.542652
Si Si2 0.413762 0.857003 0.869407
Si Si3 0.745861 0.347379 0.851164
Si Si4 0.789835 0.000000 0.750000
Si Si5 0.000000 0.250000 0.042543
Si Si6 0.586554 0.630344 0.185547
O O1 0.250000 0.426671 0.500000
O O2 0.369478 0.336946 0.587396
O O3 0.279839 0.725060 0.583621
O O4 0.414827 0.638190 0.507754
O O5 0.500000 0.750000 0.834037
O O6 0.329352 0.966314 0.834749
O O7 0.456646 0.055494 0.913022
O O8 0.737423 0.157243 0.797966
O O9 0.845656 0.458502 0.850044
O O10 0.851161 0.164459 0.708237
O O11 0.500000 0.750000 0.154078
O O12 0.556377 0.500000 0.250000
#
# Coordination Sequence:
#
# PCOD9333549 Si02
#       6
#     8   8   8   4   4   8
#     4  10  20  37  60  90 123 155 200 243 295 353
#     4   9  18  36  60  89 109 156 202 242 300 352
#     4  10  21  35  59  92 113 160 200 245 293 357
#     4  10  20  36  56  86 114 150 202 242 298 350
#     4   8  18  36  60  84 110 160 194 240 296 350
#     4  10  19  34  58  87 116 157 202 237 292 357
#
# _framework density 21.541802000000001
#
# number of rings (size 3 to 8) (size 9 to 14) (size 15 to 20)
#    0.000    2.400    1.000    1.200    0.000    3.200 
#    0.000    4.000    0.000    2.400  618.800    0.000 
#    0.000    0.000    0.000    0.000    0.000    0.000 
#
# Total GULP energy -111484.539225 kJ/mol
# GULP energy per Si atom -5574.226961 kJ/mol
# Density = 2.149277 g / cm^3
# Si number density = 21.541802 Si / 1000 Ang^3
#
#
#
# Elastic Constant Matrix: (Units=GPa)
#
#
# Indices 1 2 3 4 5 6 
#
# 1 134.9081 40.2514 27.6380 0.0000 0.0000 0.0000
# 2 40.2514 92.2830 5.2129 0.0000 0.0000 0.0000
# 3 27.6380 5.2129 10.6041 0.0000 0.0000 0.0000
# 4 0.0000 0.0000 0.0000 10.7190 0.0000 0.0000
# 5 0.0000 0.0000 0.0000 0.0000 19.4667 0.0000
# 6 0.0000 0.0000 0.0000 0.0000 0.0000 46.9934
#
#
#
# Elastic Compliance Matrix: (Units=1/GPa)
#
#
# Indices 1 2 3 4 5 6 
#
# 1 0.018199 -0.005409 -0.044773 0.000000 0.000000 0.000000
# 2 -0.005409 0.012753 0.007827 0.000000 0.000000 0.000000
# 3 -0.044773 0.007827 0.207149 0.000000 0.000000 0.000000
# 4 0.000000 0.000000 0.000000 0.093293 0.000000 0.000000
# 5 0.000000 0.000000 0.000000 0.000000 0.051370 0.000000
# 6 0.000000 0.000000 0.000000 0.000000 0.000000 0.021280
#
#
# Mechanical properties :
#
#
# Convention : Reuss Voigt Hill
#
# Bulk Modulus (GPa) = 6.51924 42.66663 24.59293
# Shear Modulus (GPa) = 9.26128 26.41533 17.83830
#
# Velocity S-wave (km/s) = 2.07570 3.50556 2.88076
# Velocity P-wave (km/s) = 2.96270 6.01953 4.74407
#
# Compressibility (1/GPa) = 0.15339221
#
# Stress axis : x y z
#
# Youngs Moduli (GPa) = 54.94926 78.41189 4.82744
#
# Poissons Ratio (x) = 0.42410 0.21614
# Poissons Ratio (y) = 0.29720 -0.03779
# Poissons Ratio (z) = 2.46024 -0.61375
#
# Static dielectric constant tensor:
#      x y z
#    x 1.821390 0.000000 0.000000 
#    y 0.000000 1.824600 0.000000 
#    z 0.000000 0.000000 1.802260 
# 
# From -- ./inp_files/22821.got.cif
#   From: 2010.05.17/outbox.cif.g08.bks.cpg/sg24_12_cif.got.tgz:22821.got - 2010.06.04 00:33:39.
