data_PCOD9333889
_publ_section_title
;
Structure prediction by ZEFSAII (Michael W. Deem and Ramdas Pophale) SiO2 
 PCOD9333889
Probable space group: I 21 21 21
;
_chemical_formula_sum "Si O2"
_cell_formula_units_Z 64
_cell_length_a 15.094676
_cell_length_b 8.763995
_cell_length_c 28.804133
_cell_angle_alpha 90.000000
_cell_angle_beta 90.000000
_cell_angle_gamma 90.000000
_cell_volume 3810.489105
_symmetry_space_group_name_H-M "I 21 21 21"
_symmetry_group_IT_number 24
_symmetry_cell_setting 'orthorhombic'
loop_
_space_group_symop_operation_xyz
x,y,z
-x,1/2-y,z
x,-y,1/2-z
1/2-x,y,-z
1/2+x,1/2+y,1/2+z
1/2-x,-y,1/2+z
1/2+x,1/2-y,-z
-x,1/2+y,1/2-z
loop_
_atom_site_type_symbol
_atom_site_label
_atom_site_fract_x
_atom_site_fract_y
_atom_site_fract_z
Si Si1 0.531954 0.021452 0.613965
Si Si2 0.938262 0.608565 0.207211
Si Si3 0.306139 0.575089 0.078811
Si Si4 0.180144 0.767565 0.131633
Si Si5 0.849678 0.138531 0.047481
Si Si6 0.411762 0.829676 0.020881
Si Si7 0.152909 0.989392 0.438568
Si Si8 0.539977 0.087938 0.048501
O O1 0.492527 0.022337 0.665854
O O2 0.592617 0.175947 0.611604
O O3 0.448010 0.999520 0.580502
O O4 0.596512 0.890223 0.595298
O O5 0.919394 0.500000 0.250000
O O6 0.851758 0.677739 0.181756
O O7 0.000000 0.750000 0.221888
O O8 0.259043 0.649489 0.123173
O O9 0.230499 0.481789 0.051037
O O10 0.355266 0.707794 0.049529
O O11 0.385590 0.457434 0.085399
O O12 0.203254 0.916955 0.101232
O O13 0.822747 0.316378 0.048677
O O14 0.910656 0.100491 0.002449
O O15 0.500000 0.750000 0.999161
O O16 0.460688 0.965498 0.048293
O O17 0.348935 0.906307 0.983668
O O18 0.500000 0.250000 0.057700
#
# Coordination Sequence:
#
# PCOD9333889 Si02
#       8
#     8   8   8   8   8   8   8   8
#     4   9  17  32  49  69 102 135 174 211 253 304
#     4   9  18  32  52  79 104 136 171 207 247 315
#     4  10  24  35  47  65  95 134 177 225 270 310
#     4   9  20  33  48  70  99 135 174 215 257 308
#     4  11  20  32  46  71  97 126 176 234 271 286
#     4  10  20  32  49  63  89 133 179 216 262 312
#     4  11  18  28  46  68  94 130 173 220 256 298
#     4  11  20  35  48  66  92 129 183 231 265 299
#
# _framework density 16.795743999999999
#
# number of rings (size 3 to 8) (size 9 to 14) (size 15 to 20)
#    0.000    2.000    2.500    2.625    7.000    3.000 
#    2.250    0.000    0.000    0.000    0.000    0.000 
#    0.000    0.000    0.000  135.000    0.000   29.375 
#
# Total GULP energy -178229.868312 kJ/mol
# GULP energy per Si atom -5569.683385 kJ/mol
# Density = 1.675752 g / cm^3
# Si number density = 16.795744 Si / 1000 Ang^3
#
#
#
# Elastic Constant Matrix: (Units=GPa)
#
#
# Indices 1 2 3 4 5 6 
#
# 1 72.0934 48.0189 38.9152 0.0000 0.0000 0.0000
# 2 48.0189 103.5943 33.4964 0.0000 0.0000 0.0000
# 3 38.9152 33.4964 56.3379 0.0000 0.0000 0.0000
# 4 0.0000 0.0000 0.0000 21.7949 0.0000 0.0000
# 5 0.0000 0.0000 0.0000 0.0000 9.5334 0.0000
# 6 0.0000 0.0000 0.0000 0.0000 0.0000 27.8730
#
#
#
# Elastic Compliance Matrix: (Units=1/GPa)
#
#
# Indices 1 2 3 4 5 6 
#
# 1 0.026445 -0.007863 -0.013592 0.000000 0.000000 0.000000
# 2 -0.007863 0.014289 -0.003064 0.000000 0.000000 0.000000
# 3 -0.013592 -0.003064 0.028960 0.000000 0.000000 0.000000
# 4 0.000000 0.000000 0.000000 0.045882 0.000000 0.000000
# 5 0.000000 0.000000 0.000000 0.000000 0.104895 0.000000
# 6 0.000000 0.000000 0.000000 0.000000 0.000000 0.035877
#
#
# Mechanical properties :
#
#
# Convention : Reuss Voigt Hill
#
# Bulk Modulus (GPa) = 48.41186 52.54294 50.47740
# Shear Modulus (GPa) = 16.01178 19.27993 17.64585
#
# Velocity S-wave (km/s) = 3.09094 3.39175 3.24483
# Velocity P-wave (km/s) = 6.45175 6.83301 6.64511
#
# Compressibility (1/GPa) = 0.02065610
#
# Stress axis : x y z
#
# Youngs Moduli (GPa) = 37.81453 69.98607 34.53032
#
# Poissons Ratio (x) = 0.55032 0.46932
# Poissons Ratio (y) = 0.29734 0.10580
# Poissons Ratio (z) = 0.51396 0.21443
#
# Static dielectric constant tensor:
#      x y z
#    x 1.626850 0.000000 0.000000 
#    y 0.000000 1.629340 0.000000 
#    z 0.000000 0.000000 1.548800 
# 
# From -- ./inp_files/38773.got.cif
#   From: 2010.05.17/outbox.cif.g08.bks.cpg/sg24_20_cif.got.tgz:38773.got - 2010.06.04 00:33:39.
