data_PCOD9333204
_publ_section_title
;
Structure prediction by ZEFSAII (Michael W. Deem and Ramdas Pophale) SiO2 
 PCOD9333204
Probable space group: I 21 21 21
;
_chemical_formula_sum "Si O2"
_cell_formula_units_Z 64
_cell_length_a 9.057495
_cell_length_b 20.280258
_cell_length_c 15.960905
_cell_angle_alpha 90.000000
_cell_angle_beta 90.000000
_cell_angle_gamma 90.000000
_cell_volume 2931.832071
_symmetry_space_group_name_H-M "I 21 21 21"
_symmetry_group_IT_number 24
_symmetry_cell_setting 'orthorhombic'
loop_
_space_group_symop_operation_xyz
x,y,z
-x,1/2-y,z
x,-y,1/2-z
1/2-x,y,-z
1/2+x,1/2+y,1/2+z
1/2-x,-y,1/2+z
1/2+x,1/2-y,-z
-x,1/2+y,1/2-z
loop_
_atom_site_type_symbol
_atom_site_label
_atom_site_fract_x
_atom_site_fract_y
_atom_site_fract_z
Si Si1 0.402606 0.499698 0.346461
Si Si2 0.779792 0.854874 0.626420
Si Si3 0.996495 0.834750 0.489407
Si Si4 0.777635 0.517931 0.906819
Si Si5 0.669832 0.141542 0.320043
Si Si6 0.674560 0.745574 0.914575
Si Si7 0.316833 0.859802 0.201048
Si Si8 0.245195 0.128926 0.107793
O O1 0.459114 0.500000 0.250000
O O2 0.332186 0.568787 0.371094
O O3 0.546111 0.491602 0.402065
O O4 0.300637 0.435085 0.343287
O O5 0.626132 0.856541 0.576875
O O6 0.780913 0.838340 0.725264
O O7 0.890378 0.811039 0.567006
O O8 0.127365 0.815074 0.422354
O O9 0.114866 0.873505 0.545951
O O10 0.752129 0.571971 0.835499
O O11 0.694400 0.448084 0.892639
O O12 0.750000 0.543342 0.000000
O O13 0.751226 0.185950 0.387277
O O14 0.490735 0.147849 0.321820
O O15 0.500000 0.750000 0.924110
O O16 0.721549 0.696389 0.841528
O O17 0.750000 0.722277 0.000000
O O18 0.302388 0.856739 0.300199
#
# Coordination Sequence:
#
# PCOD9333204 Si02
#       8
#     8   8   8   8   8   8   8   8
#     4   9  17  34  58  89 126 165 203 242 304 374
#     4  10  18  36  59  97 129 171 198 247 308 371
#     4  10  20  32  59  90 136 167 203 241 306 376
#     4  11  18  32  57  91 125 165 206 251 307 375
#     4  10  21  41  69  88 123 165 208 258 310 366
#     4  12  28  51  69  91 118 159 213 263 307 359
#     4  11  23  40  67  89 124 166 210 258 314 368
#     4  11  19  37  57  96 131 171 198 250 308 376
#
# _framework density 21.829353000000001
#
# number of rings (size 3 to 8) (size 9 to 14) (size 15 to 20)
#    0.000    1.500    3.750    3.375    1.750    1.000 
#    4.500    1.250    0.000    4.500    0.000    0.000 
#    0.000    0.000    0.000    0.000    0.000    0.000 
#
# Total GULP energy -178144.879038 kJ/mol
# GULP energy per Si atom -5567.027470 kJ/mol
# Density = 2.177967 g / cm^3
# Si number density = 21.829353 Si / 1000 Ang^3
#
#
#
# Elastic Constant Matrix: (Units=GPa)
#
#
# Indices 1 2 3 4 5 6 
#
# 1 101.2151 15.5519 41.2468 0.0000 0.0000 0.0000
# 2 15.5519 44.9095 14.8386 0.0000 0.0000 0.0000
# 3 41.2468 14.8386 58.5053 0.0000 0.0000 0.0000
# 4 0.0000 0.0000 0.0000 -27.1746 0.0000 0.0000
# 5 0.0000 0.0000 0.0000 0.0000 35.1709 0.0000
# 6 0.0000 0.0000 0.0000 0.0000 0.0000 13.0248
#
#
#
# Elastic Compliance Matrix: (Units=1/GPa)
#
#
# Indices 1 2 3 4 5 6 
#
# 1 0.013985 -0.001730 -0.009421 0.000000 0.000000 0.000000
# 2 -0.001730 0.024518 -0.004999 0.000000 0.000000 0.000000
# 3 -0.009421 -0.004999 0.025002 0.000000 0.000000 0.000000
# 4 0.000000 0.000000 0.000000 -0.036799 0.000000 0.000000
# 5 0.000000 0.000000 0.000000 0.000000 0.028433 0.000000
# 6 0.000000 0.000000 0.000000 0.000000 0.000000 0.076777
#
#
# Mechanical properties :
#
#
# Convention : Reuss Voigt Hill
#
# Bulk Modulus (GPa) = 32.04548 38.65607 35.35077
# Shear Modulus (GPa) = 28.63434 13.07039 20.85237
#
# Velocity S-wave (km/s) = 3.62572 2.44960 3.09406
# Velocity P-wave (km/s) = 5.67800 5.07419 5.38457
#
# Compressibility (1/GPa) = 0.03120565
#
# Stress axis : x y z
#
# Youngs Moduli (GPa) = 71.50583 40.78679 39.99695
#
# Poissons Ratio (x) = 0.07057 0.37680
# Poissons Ratio (y) = 0.12372 0.19993
# Poissons Ratio (z) = 0.67363 0.20388
#
# Static dielectric constant tensor:
#      x y z
#    x 1.799270 0.000000 0.000000 
#    y 0.000000 1.894120 0.000000 
#    z 0.000000 0.000000 1.798420 
# 
# From -- ./inp_files/25221.got.cif
#   From: 2010.05.17/outbox.cif.g08.bks.cpg/sg24_13_cif.got.tgz:25221.got - 2010.06.04 00:33:39.
