data_PCOD9333586
_publ_section_title
;
Structure prediction by ZEFSAII (Michael W. Deem and Ramdas Pophale) SiO2 
 PCOD9333586
Probable space group: I 21 21 21
;
_chemical_formula_sum "Si O2"
_cell_formula_units_Z 60
_cell_length_a 16.215441
_cell_length_b 19.730620
_cell_length_c 10.383955
_cell_angle_alpha 90.000000
_cell_angle_beta 90.000000
_cell_angle_gamma 90.000000
_cell_volume 3322.249878
_symmetry_space_group_name_H-M "I 21 21 21"
_symmetry_group_IT_number 24
_symmetry_cell_setting 'orthorhombic'
loop_
_space_group_symop_operation_xyz
x,y,z
-x,1/2-y,z
x,-y,1/2-z
1/2-x,y,-z
1/2+x,1/2+y,1/2+z
1/2-x,-y,1/2+z
1/2+x,1/2-y,-z
-x,1/2+y,1/2-z
loop_
_atom_site_type_symbol
_atom_site_label
_atom_site_fract_x
_atom_site_fract_y
_atom_site_fract_z
Si Si1 0.451480 0.179621 0.578014
Si Si2 0.651161 0.004507 0.500797
Si Si3 0.481445 0.142246 0.292522
Si Si4 0.210155 0.249467 0.369818
Si Si5 0.875301 0.236100 0.794050
Si Si6 0.612128 0.873480 0.824308
Si Si7 0.450206 0.500000 0.250000
Si Si8 0.346343 0.648236 0.533367
O O1 0.500000 0.250000 0.551291
O O2 0.447226 0.142957 0.439250
O O3 0.367813 0.199790 0.651298
O O4 0.515294 0.138135 0.663351
O O5 0.750000 0.004776 0.500000
O O6 0.620858 0.927176 0.507507
O O7 0.628450 0.052034 0.620900
O O8 0.609269 0.025221 0.366519
O O9 0.569159 0.182685 0.287697
O O10 0.419528 0.191456 0.215596
O O11 0.494359 0.067571 0.234045
O O12 0.250000 0.222032 0.500000
O O13 0.283075 0.257984 0.265203
O O14 0.168028 0.321618 0.407287
O O15 0.879298 0.205449 0.937859
O O16 0.639007 0.847369 0.684346
O O17 0.250000 0.646351 0.500000
#
# Coordination Sequence:
#
# PCOD9333586 Si02
#       8
#     8   8   8   8   8   8   4   8
#     4  10  19  35  55  90 116 152 199 257 312 366
#     4  11  25  34  58  86 127 168 204 240 304 378
#     4  11  21  39  61  88 126 152 208 264 323 379
#     4  11  20  33  61  87 115 153 205 263 310 362
#     4  11  21  39  60  88 119 163 209 261 315 371
#     4  11  22  37  55  85 128 164 205 253 303 377
#     4  12  24  40  60  92 122 164 208 262 322 380
#     4  11  23  39  55  86 124 166 208 243 304 388
#
# _framework density 18.060051000000001
#
# number of rings (size 3 to 8) (size 9 to 14) (size 15 to 20)
#    0.000    1.067    6.667    1.600    5.600    0.000 
#    7.200    0.000    0.000    0.000    6.933    0.000 
#    0.000    0.000    0.000    0.000    0.000    0.000 
#
# Total GULP energy -167005.268866 kJ/mol
# GULP energy per Si atom -5566.842296 kJ/mol
# Density = 1.801895 g / cm^3
# Si number density = 18.060051 Si / 1000 Ang^3
#
#
#
# Elastic Constant Matrix: (Units=GPa)
#
#
# Indices 1 2 3 4 5 6 
#
# 1 99.6306 53.3448 42.2011 0.0000 0.0000 0.0000
# 2 53.3448 105.8853 35.7243 0.0000 0.0000 0.0000
# 3 42.2011 35.7243 90.8356 0.0000 0.0000 0.0000
# 4 0.0000 0.0000 0.0000 18.3812 0.0000 0.0000
# 5 0.0000 0.0000 0.0000 0.0000 19.6432 0.0000
# 6 0.0000 0.0000 0.0000 0.0000 0.0000 3.3872
#
#
#
# Elastic Compliance Matrix: (Units=1/GPa)
#
#
# Indices 1 2 3 4 5 6 
#
# 1 0.015309 -0.006126 -0.004703 0.000000 0.000000 0.000000
# 2 -0.006126 0.013340 -0.002400 0.000000 0.000000 0.000000
# 3 -0.004703 -0.002400 0.014138 0.000000 0.000000 0.000000
# 4 0.000000 0.000000 0.000000 0.054403 0.000000 0.000000
# 5 0.000000 0.000000 0.000000 0.000000 0.050908 0.000000
# 6 0.000000 0.000000 0.000000 0.000000 0.000000 0.295231
#
#
# Mechanical properties :
#
#
# Convention : Reuss Voigt Hill
#
# Bulk Modulus (GPa) = 61.24368 62.09910 61.67139
# Shear Modulus (GPa) = 10.52116 19.28773 14.90445
#
# Velocity S-wave (km/s) = 2.41626 3.27154 2.87587
# Velocity P-wave (km/s) = 6.46291 6.98069 6.72678
#
# Compressibility (1/GPa) = 0.01632821
#
# Stress axis : x y z
#
# Youngs Moduli (GPa) = 65.32002 74.96078 70.73113
#
# Poissons Ratio (x) = 0.45921 0.33267
# Poissons Ratio (y) = 0.40015 0.16979
# Poissons Ratio (z) = 0.30722 0.17994
#
# Static dielectric constant tensor:
#      x y z
#    x 1.709020 0.000000 0.000000 
#    y 0.000000 1.662010 0.000000 
#    z 0.000000 0.000000 1.773840 
# 
# From -- ./inp_files/21016.got.cif
#   From: 2010.05.17/outbox.cif.g08.bks.cpg/sg24_11_cif.got.tgz:21016.got - 2010.06.04 00:33:39.
