data_PCOD9333475
_publ_section_title
;
Structure prediction by ZEFSAII (Michael W. Deem and Ramdas Pophale) SiO2 
 PCOD9333475
Probable space group: I 21 21 21
;
_chemical_formula_sum "Si O2"
_cell_formula_units_Z 64
_cell_length_a 19.937284
_cell_length_b 20.859360
_cell_length_c 9.248759
_cell_angle_alpha 90.000000
_cell_angle_beta 90.000000
_cell_angle_gamma 90.000000
_cell_volume 3846.364500
_symmetry_space_group_name_H-M "I 21 21 21"
_symmetry_group_IT_number 24
_symmetry_cell_setting 'orthorhombic'
loop_
_space_group_symop_operation_xyz
x,y,z
-x,1/2-y,z
x,-y,1/2-z
1/2-x,y,-z
1/2+x,1/2+y,1/2+z
1/2-x,-y,1/2+z
1/2+x,1/2-y,-z
-x,1/2+y,1/2-z
loop_
_atom_site_type_symbol
_atom_site_label
_atom_site_fract_x
_atom_site_fract_y
_atom_site_fract_z
Si Si1 0.818542 0.230844 0.419878
Si Si2 0.047927 0.927183 0.578631
Si Si3 0.681553 0.385421 0.580283
Si Si4 0.047927 0.072817 0.578632
Si Si5 0.048268 0.689269 0.577392
Si Si6 0.181458 0.269156 0.080122
Si Si7 0.181553 0.114579 0.080283
Si Si8 0.951732 0.189269 0.577392
O O1 0.750000 0.212165 0.500000
O O2 0.825281 0.308156 0.435500
O O3 0.814640 0.216588 0.250000
O O4 0.883007 0.198733 0.492299
O O5 0.061830 0.917789 0.750000
O O6 0.116362 0.915911 0.492178
O O7 0.992620 0.874583 0.537257
O O8 0.024516 0.000000 0.557508
O O9 0.750000 0.404789 0.500000
O O10 0.616362 0.415911 0.507822
O O11 0.685607 0.400489 0.750000
O O12 0.992620 0.125417 0.537257
O O13 0.116993 0.698733 0.492299
O O14 0.061545 0.688232 0.750000
O O15 0.000000 0.750000 0.548462
O O16 0.174719 0.191844 0.064500
O O17 0.250000 0.287835 0.000000
O O18 0.250000 0.095211 0.000000
O O19 0.000000 0.250000 0.548462
#
# Coordination Sequence:
#
# PCOD9333475 Si02
#       8
#     8   8   8   8   8   8   8   8
#     4  10  20  33  53  80 108 136 171 216 262 307
#     4  10  21  36  53  75 105 140 175 212 257 308
#     4  10  20  33  51  75 105 140 177 214 254 304
#     4  10  21  36  53  75 105 140 175 212 257 308
#     4  10  19  33  55  79 104 136 173 214 259 306
#     4  10  20  33  53  80 108 136 171 216 262 307
#     4  10  20  33  51  75 105 140 177 214 254 304
#     4  10  19  33  55  79 104 136 173 214 259 306
#
# _framework density 16.639088000000001
#
# number of rings (size 3 to 8) (size 9 to 14) (size 15 to 20)
#    0.000    2.000    2.500    1.500    0.000    4.500 
#    0.000    0.000    0.000    0.750    0.000    0.000 
#    0.000    0.000    0.000    0.000    0.000    0.000 
#
# Total GULP energy -178667.158025 kJ/mol
# GULP energy per Si atom -5583.348688 kJ/mol
# Density = 1.660122 g / cm^3
# Si number density = 16.639088 Si / 1000 Ang^3
#
#
#
# Elastic Constant Matrix: (Units=GPa)
#
#
# Indices 1 2 3 4 5 6 
#
# 1 135.3663 62.0002 74.3033 0.0000 0.0000 0.0000
# 2 62.0002 82.8986 55.2311 0.0000 0.0000 0.0000
# 3 74.3033 55.2311 73.2675 0.0000 0.0000 0.0000
# 4 0.0000 0.0000 0.0000 57.8183 0.0000 0.0000
# 5 0.0000 0.0000 0.0000 0.0000 38.6577 0.0000
# 6 0.0000 0.0000 0.0000 0.0000 0.0000 17.9255
#
#
#
# Elastic Compliance Matrix: (Units=1/GPa)
#
#
# Indices 1 2 3 4 5 6 
#
# 1 0.016908 -0.002454 -0.015297 0.000000 0.000000 0.000000
# 2 -0.002454 0.024590 -0.016048 0.000000 0.000000 0.000000
# 3 -0.015297 -0.016048 0.041260 0.000000 0.000000 0.000000
# 4 0.000000 0.000000 0.000000 0.017296 0.000000 0.000000
# 5 0.000000 0.000000 0.000000 0.000000 0.025868 0.000000
# 6 0.000000 0.000000 0.000000 0.000000 0.000000 0.055786
#
#
# Mechanical properties :
#
#
# Convention : Reuss Voigt Hill
#
# Bulk Modulus (GPa) = 65.96627 74.95576 70.46102
# Shear Modulus (GPa) = 19.65712 29.54681 24.60197
#
# Velocity S-wave (km/s) = 3.44085 4.21853 3.84938
# Velocity P-wave (km/s) = 7.45100 8.29903 7.88642
#
# Compressibility (1/GPa) = 0.01515926
#
# Stress axis : x y z
#
# Youngs Moduli (GPa) = 59.14352 40.66635 24.23653
#
# Poissons Ratio (x) = 0.09978 0.37076
# Poissons Ratio (y) = 0.14512 0.38896
# Poissons Ratio (z) = 0.90474 0.65263
#
# Static dielectric constant tensor:
#      x y z
#    x 1.519260 0.000000 0.000000 
#    y 0.000000 1.562800 0.000000 
#    z 0.000000 0.000000 1.553740 
# 
# From -- ./inp_files/14597.got.cif
#   From: 2010.05.17/outbox.cif.g08.bks.cpg/sg24_8_cif.got.tgz:14597.got - 2010.06.04 00:33:39.
