data_PCOD9333346
_publ_section_title
;
Structure prediction by ZEFSAII (Michael W. Deem and Ramdas Pophale) SiO2 
 PCOD9333346
Probable space group: I 21 21 21
;
_chemical_formula_sum "Si O2"
_cell_formula_units_Z 64
_cell_length_a 20.693590
_cell_length_b 22.344498
_cell_length_c 5.599215
_cell_angle_alpha 90.000000
_cell_angle_beta 90.000000
_cell_angle_gamma 90.000000
_cell_volume 2589.009156
_symmetry_space_group_name_H-M "I 21 21 21"
_symmetry_group_IT_number 24
_symmetry_cell_setting 'orthorhombic'
loop_
_space_group_symop_operation_xyz
x,y,z
-x,1/2-y,z
x,-y,1/2-z
1/2-x,y,-z
1/2+x,1/2+y,1/2+z
1/2-x,-y,1/2+z
1/2+x,1/2-y,-z
-x,1/2+y,1/2-z
loop_
_atom_site_type_symbol
_atom_site_label
_atom_site_fract_x
_atom_site_fract_y
_atom_site_fract_z
Si Si1 0.030832 0.590248 0.334524
Si Si2 0.574979 0.919723 0.168085
Si Si3 0.773891 0.069262 0.749178
Si Si4 0.118948 0.097961 0.245908
Si Si5 0.267561 0.184602 0.751002
Si Si6 0.428009 0.276877 0.354330
Si Si7 0.678626 0.564481 0.248068
Si Si8 0.926000 0.225218 0.143342
O O1 0.034699 0.561057 0.597790
O O2 0.068717 0.653097 0.362441
O O3 0.957368 0.605675 0.268977
O O4 0.059411 0.558270 0.099640
O O5 0.649034 0.931287 0.234908
O O6 0.564473 0.848214 0.147751
O O7 0.750000 0.097432 0.500000
O O8 0.749405 0.000000 0.750000
O O9 0.750000 0.096378 0.000000
O O10 0.160433 0.158396 0.239892
O O11 0.137444 0.069241 0.502637
O O12 0.139084 0.066583 0.996398
O O13 0.250000 0.214928 0.500000
O O14 0.224939 0.122206 0.748770
O O15 0.250000 0.215948 0.000000
O O16 0.500000 0.250000 0.356645
O O17 0.395583 0.260755 0.602387
O O18 0.396336 0.255640 0.108687
O O19 0.713444 0.500000 0.250000
O O20 0.000000 0.250000 0.144788
#
# Coordination Sequence:
#
# PCOD9333346 Si02
#       8
#     8   8   8   8   8   8   8   8
#     4  10  19  31  47  70 103 129 151 191 248 316
#     4  10  19  33  53  75 103 133 165 204 255 312
#     4  10  21  38  58  76  97 132 184 235 272 312
#     4  10  19  30  43  63  90 119 153 194 241 289
#     4   8  16  27  42  59  78 108 152 201 237 264
#     4   8  14  25  44  72 103 126 150 184 228 290
#     4  10  19  31  45  59  80 116 164 211 243 268
#     4   8  14  25  42  64  92 121 151 180 213 271
#
# _framework density 24.719882999999999
#
# number of rings (size 3 to 8) (size 9 to 14) (size 15 to 20)
#    0.000    2.750    0.000    1.875    0.000    4.500 
#    0.000    3.750    0.000    0.000    0.000    0.000 
#    0.000  288.000    0.000    0.000    0.000    0.250 
#
# Total GULP energy -178608.273384 kJ/mol
# GULP energy per Si atom -5581.508543 kJ/mol
# Density = 2.466362 g / cm^3
# Si number density = 24.719883 Si / 1000 Ang^3
#
#
#
# Elastic Constant Matrix: (Units=GPa)
#
#
# Indices 1 2 3 4 5 6 
#
# 1 73.2222 -5.3431 38.6219 0.0000 0.0000 0.0000
# 2 -5.3431 66.3221 18.7913 0.0000 0.0000 0.0000
# 3 38.6219 18.7913 326.3241 0.0000 0.0000 0.0000
# 4 0.0000 0.0000 0.0000 11.6919 0.0000 0.0000
# 5 0.0000 0.0000 0.0000 0.0000 33.7874 0.0000
# 6 0.0000 0.0000 0.0000 0.0000 0.0000 20.2723
#
#
#
# Elastic Compliance Matrix: (Units=1/GPa)
#
#
# Indices 1 2 3 4 5 6 
#
# 1 0.014755 0.001711 -0.001845 0.000000 0.000000 0.000000
# 2 0.001711 0.015527 -0.001097 0.000000 0.000000 0.000000
# 3 -0.001845 -0.001097 0.003346 0.000000 0.000000 0.000000
# 4 0.000000 0.000000 0.000000 0.085530 0.000000 0.000000
# 5 0.000000 0.000000 0.000000 0.000000 0.029597 0.000000
# 6 0.000000 0.000000 0.000000 0.000000 0.000000 0.049328
#
#
# Mechanical properties :
#
#
# Convention : Reuss Voigt Hill
#
# Bulk Modulus (GPa) = 32.08487 63.33427 47.70957
# Shear Modulus (GPa) = 23.70437 40.73689 32.22063
#
# Velocity S-wave (km/s) = 3.10000 4.06389 3.61422
# Velocity P-wave (km/s) = 5.08143 6.90628 6.06290
#
# Compressibility (1/GPa) = 0.03116734
#
# Stress axis : x y z
#
# Youngs Moduli (GPa) = 67.77338 64.40593 298.86998
#
# Poissons Ratio (x) = -0.11023 0.55138
# Poissons Ratio (y) = -0.11599 0.32775
# Poissons Ratio (z) = 0.12503 0.07063
#
# Static dielectric constant tensor:
#      x y z
#    x 1.882220 0.000000 0.000000 
#    y 0.000000 1.937730 0.000000 
#    z 0.000000 0.000000 2.076670 
# 
# From -- ./inp_files/5105.got.cif
#   From: 2010.05.17/outbox.cif.g08.bks.cpg/sg24_3_cif.got.tgz:5105.got - 2010.06.04 00:33:39.
