data_PCOD9333742
_publ_section_title
;
Structure prediction by ZEFSAII (Michael W. Deem and Ramdas Pophale) SiO2 
 PCOD9333742
Probable space group: I 21 21 21
;
_chemical_formula_sum "Si O2"
_cell_formula_units_Z 48
_cell_length_a 15.438851
_cell_length_b 7.579734
_cell_length_c 18.118592
_cell_angle_alpha 90.000000
_cell_angle_beta 90.000000
_cell_angle_gamma 90.000000
_cell_volume 2120.280828
_symmetry_space_group_name_H-M "I 21 21 21"
_symmetry_group_IT_number 24
_symmetry_cell_setting 'orthorhombic'
loop_
_space_group_symop_operation_xyz
x,y,z
-x,1/2-y,z
x,-y,1/2-z
1/2-x,y,-z
1/2+x,1/2+y,1/2+z
1/2-x,-y,1/2+z
1/2+x,1/2-y,-z
-x,1/2+y,1/2-z
loop_
_atom_site_type_symbol
_atom_site_label
_atom_site_fract_x
_atom_site_fract_y
_atom_site_fract_z
Si Si1 0.208694 0.635996 0.109965
Si Si2 0.928723 0.492863 0.937464
Si Si3 0.041456 0.495393 0.166083
Si Si4 0.112934 0.137573 0.094102
Si Si5 0.119740 0.408649 0.549187
Si Si6 0.278615 0.013033 0.162195
O O1 0.129811 0.607397 0.165932
O O2 0.302198 0.539775 0.104623
O O3 0.243162 0.833156 0.123808
O O4 0.161236 0.591322 0.032518
O O5 0.908326 0.702797 0.943940
O O6 0.875017 0.442373 0.864916
O O7 0.032619 0.479025 0.940070
O O8 0.888772 0.386624 0.006542
O O9 0.011035 0.500000 0.250000
O O10 0.075056 0.315676 0.128730
O O11 0.952373 0.521985 0.120175
O O12 0.207782 0.141284 0.128165
O O13 0.273465 0.000000 0.250000
#
# Coordination Sequence:
#
# PCOD9333742 Si02
#       6
#     8   8   8   8   8   8
#     4  10  19  37  63  87 118 156 208 248 310 371
#     4  10  19  38  61  90 122 163 213 260 305 369
#     4  11  24  39  56  87 125 159 199 253 327 383
#     4  11  22  39  58  88 123 162 202 260 317 376
#     4   9  18  35  64  89 111 159 210 258 294 366
#     4  11  22  37  62  93 125 163 210 260 316 373
#
# _framework density 22.638508999999999
#
# number of rings (size 3 to 8) (size 9 to 14) (size 15 to 20)
#    0.000    1.667    3.333    2.000    0.000    2.000 
#    6.000    0.833    0.000   10.000    0.000    0.000 
#    0.000    0.000    0.000    0.000    0.000    0.000 
#
# Total GULP energy -133690.397405 kJ/mol
# GULP energy per Si atom -5570.433225 kJ/mol
# Density = 2.258698 g / cm^3
# Si number density = 22.638509 Si / 1000 Ang^3
#
#
#
# Elastic Constant Matrix: (Units=GPa)
#
#
# Indices 1 2 3 4 5 6 
#
# 1 162.8178 22.8775 31.0474 0.0000 0.0000 0.0000
# 2 22.8775 42.4664 11.8286 0.0000 0.0000 0.0000
# 3 31.0474 11.8286 38.4292 0.0000 0.0000 0.0000
# 4 0.0000 0.0000 0.0000 -79.3604 0.0000 0.0000
# 5 0.0000 0.0000 0.0000 0.0000 37.8028 0.0000
# 6 0.0000 0.0000 0.0000 0.0000 0.0000 23.8096
#
#
#
# Elastic Compliance Matrix: (Units=1/GPa)
#
#
# Indices 1 2 3 4 5 6 
#
# 1 0.007510 -0.002577 -0.005274 0.000000 0.000000 0.000000
# 2 -0.002577 0.026640 -0.006118 0.000000 0.000000 0.000000
# 3 -0.005274 -0.006118 0.032166 0.000000 0.000000 0.000000
# 4 0.000000 0.000000 0.000000 -0.012601 0.000000 0.000000
# 5 0.000000 0.000000 0.000000 0.000000 0.026453 0.000000
# 6 0.000000 0.000000 0.000000 0.000000 0.000000 0.042000
#
#
# Mechanical properties :
#
#
# Convention : Reuss Voigt Hill
#
# Bulk Modulus (GPa) = 26.05650 41.69117 33.87383
# Shear Modulus (GPa) = 30.69396 8.31437 19.50417
#
# Velocity S-wave (km/s) = 3.68615 1.91850 2.93840
# Velocity P-wave (km/s) = 5.44534 4.83358 5.14856
#
# Compressibility (1/GPa) = 0.03837815
#
# Stress axis : x y z
#
# Youngs Moduli (GPa) = 133.16376 37.53719 31.08866
#
# Poissons Ratio (x) = 0.09672 0.16396
# Poissons Ratio (y) = 0.34310 0.19021
# Poissons Ratio (z) = 0.70231 0.22967
#
# Static dielectric constant tensor:
#      x y z
#    x 1.980850 0.000000 0.000000 
#    y 0.000000 1.927180 0.000000 
#    z 0.000000 0.000000 1.828390 
# 
# From -- ./inp_files/12778.got.cif
#   From: 2010.05.17/outbox.cif.g08.bks.cpg/sg24_7_cif.got.tgz:12778.got - 2010.06.04 00:33:39.
