data_PCOD9333164
_publ_section_title
;
Structure prediction by ZEFSAII (Michael W. Deem and Ramdas Pophale) SiO2 
 PCOD9333164
Probable space group: I 21 21 21
;
_chemical_formula_sum "Si O2"
_cell_formula_units_Z 48
_cell_length_a 20.949131
_cell_length_b 15.559265
_cell_length_c 7.949498
_cell_angle_alpha 90.000000
_cell_angle_beta 90.000000
_cell_angle_gamma 90.000000
_cell_volume 2591.163364
_symmetry_space_group_name_H-M "I 21 21 21"
_symmetry_group_IT_number 24
_symmetry_cell_setting 'orthorhombic'
loop_
_space_group_symop_operation_xyz
x,y,z
-x,1/2-y,z
x,-y,1/2-z
1/2-x,y,-z
1/2+x,1/2+y,1/2+z
1/2-x,-y,1/2+z
1/2+x,1/2-y,-z
-x,1/2+y,1/2-z
loop_
_atom_site_type_symbol
_atom_site_label
_atom_site_fract_x
_atom_site_fract_y
_atom_site_fract_z
Si Si1 0.940964 0.682112 0.595517
Si Si2 0.495674 0.097342 0.781914
Si Si3 0.875993 0.174719 0.091040
Si Si4 0.176457 0.498216 0.048030
Si Si5 0.822085 0.190037 0.441729
Si Si6 0.438231 0.812207 0.031650
O O1 0.957391 0.611998 0.454805
O O2 0.884448 0.743418 0.527335
O O3 0.932983 0.647266 0.782839
O O4 0.000000 0.750000 0.600368
O O5 0.558106 0.157299 0.805825
O O6 0.452972 0.126489 0.625069
O O7 0.516536 0.000000 0.750000
O O8 0.862193 0.085958 0.992468
O O9 0.824517 0.188078 0.237854
O O10 0.170955 0.500000 0.250000
O O11 0.157960 0.594299 0.993107
O O12 0.250000 0.486093 0.000000
O O13 0.750000 0.206077 0.500000
O O14 0.874133 0.258015 0.501486
O O15 0.500000 0.750000 0.035515
#
# Coordination Sequence:
#
# PCOD9333164 Si02
#       6
#     8   8   8   8   8   8
#     4   9  20  34  52  84 110 144 194 233 282 348
#     4  11  20  35  60  81 111 148 193 249 296 332
#     4  10  18  35  53  80 120 157 192 232 282 350
#     4   9  19  31  50  78 120 156 191 222 273 343
#     4  10  19  33  54  84 114 153 192 227 282 349
#     4  11  20  36  59  80 115 150 186 243 291 337
#
# _framework density 18.524498000000001
#
# number of rings (size 3 to 8) (size 9 to 14) (size 15 to 20)
#    0.000    2.000    3.333    2.000    0.000    4.667 
#    0.000    0.000    0.000    0.000    4.333    0.000 
#    0.000    0.000    0.000    0.000    0.000    0.000 
#
# Total GULP energy -133800.271020 kJ/mol
# GULP energy per Si atom -5575.011292 kJ/mol
# Density = 1.848234 g / cm^3
# Si number density = 18.524498 Si / 1000 Ang^3
#
#
#
# Elastic Constant Matrix: (Units=GPa)
#
#
# Indices 1 2 3 4 5 6 
#
# 1 67.9559 15.6904 22.1473 0.0000 0.0000 0.0000
# 2 15.6904 19.1651 22.0343 0.0000 0.0000 0.0000
# 3 22.1473 22.0343 103.7036 0.0000 0.0000 0.0000
# 4 0.0000 0.0000 0.0000 1.6669 0.0000 0.0000
# 5 0.0000 0.0000 0.0000 0.0000 22.4568 0.0000
# 6 0.0000 0.0000 0.0000 0.0000 0.0000 29.6704
#
#
#
# Elastic Compliance Matrix: (Units=1/GPa)
#
#
# Indices 1 2 3 4 5 6 
#
# 1 0.018217 -0.013816 -0.000955 0.000000 0.000000 0.000000
# 2 -0.013816 0.079523 -0.013946 0.000000 0.000000 0.000000
# 3 -0.000955 -0.013946 0.012810 0.000000 0.000000 0.000000
# 4 0.000000 0.000000 0.000000 0.599907 0.000000 0.000000
# 5 0.000000 0.000000 0.000000 0.000000 0.044530 0.000000
# 6 0.000000 0.000000 0.000000 0.000000 0.000000 0.033704
#
#
# Mechanical properties :
#
#
# Convention : Reuss Voigt Hill
#
# Bulk Modulus (GPa) = 18.82677 34.50762 26.66720
# Shear Modulus (GPa) = 5.78818 19.48899 12.63859
#
# Velocity S-wave (km/s) = 1.76957 3.24708 2.61485
# Velocity P-wave (km/s) = 3.78952 5.72071 4.85216
#
# Compressibility (1/GPa) = 0.05311586
#
# Stress axis : x y z
#
# Youngs Moduli (GPa) = 54.89482 12.57496 78.06437
#
# Poissons Ratio (x) = 0.17374 0.07454
# Poissons Ratio (y) = 0.75843 1.08868
# Poissons Ratio (z) = 0.05242 0.17537
#
# Static dielectric constant tensor:
#      x y z
#    x 1.646680 0.000000 0.000000 
#    y 0.000000 1.661400 0.000000 
#    z 0.000000 0.000000 1.710120 
# 
# From -- ./inp_files/15096.got.cif
#   From: 2010.05.17/outbox.cif.g08.bks.cpg/sg24_8_cif.got.tgz:15096.got - 2010.06.04 00:33:39.
