data_PCOD9333476
_publ_section_title
;
Structure prediction by ZEFSAII (Michael W. Deem and Ramdas Pophale) SiO2 
 PCOD9333476
Probable space group: I 21 21 21
;
_chemical_formula_sum "Si O2"
_cell_formula_units_Z 48
_cell_length_a 5.077872
_cell_length_b 16.041655
_cell_length_c 30.891033
_cell_angle_alpha 90.000000
_cell_angle_beta 90.000000
_cell_angle_gamma 90.000000
_cell_volume 2516.305417
_symmetry_space_group_name_H-M "I 21 21 21"
_symmetry_group_IT_number 24
_symmetry_cell_setting 'orthorhombic'
loop_
_space_group_symop_operation_xyz
x,y,z
-x,1/2-y,z
x,-y,1/2-z
1/2-x,y,-z
1/2+x,1/2+y,1/2+z
1/2-x,-y,1/2+z
1/2+x,1/2-y,-z
-x,1/2+y,1/2-z
loop_
_atom_site_type_symbol
_atom_site_label
_atom_site_fract_x
_atom_site_fract_y
_atom_site_fract_z
Si Si1 0.497540 0.156815 0.468705
Si Si2 0.733438 0.803903 0.783642
Si Si3 0.061642 0.541227 0.162464
Si Si4 0.062374 0.979611 0.894594
Si Si5 0.407550 0.362284 0.812206
Si Si6 0.097205 0.163030 0.871862
O O1 0.500000 0.250000 0.447530
O O2 0.250000 0.158052 0.500000
O O3 0.456034 0.081653 0.435302
O O4 0.750000 0.146302 0.500000
O O5 0.500000 0.750000 0.803781
O O6 0.710987 0.888786 0.810147
O O7 0.649635 0.824373 0.734451
O O8 0.000000 0.750000 0.784575
O O9 0.269645 0.520156 0.124964
O O10 0.022468 0.459820 0.191980
O O11 0.780971 0.556408 0.139157
O O12 0.134358 0.078497 0.900017
O O13 0.644502 0.326601 0.841761
O O14 0.137579 0.355788 0.838503
O O15 0.000000 0.250000 0.893463
#
# Coordination Sequence:
#
# PCOD9333476 Si02
#       6
#     8   8   8   8   8   8
#     4  10  21  38  61  86 109 139 178 218 265 330
#     4  12  23  34  50  74 105 143 189 237 284 326
#     4  10  22  37  52  76 107 144 182 224 282 336
#     4  10  21  37  58  81 109 142 176 223 278 333
#     4  10  20  35  53  72 103 146 192 234 271 320
#     4  10  19  33  55  81 107 140 185 230 273 321
#
# _framework density 19.075583999999999
#
# number of rings (size 3 to 8) (size 9 to 14) (size 15 to 20)
#    0.000    1.667    0.000    5.500    0.000    2.000 
#    0.000    6.667    0.000    1.000    0.000    0.000 
#    0.000    0.000    0.000    0.000    0.000    0.000 
#
# Total GULP energy -133722.098478 kJ/mol
# GULP energy per Si atom -5571.754103 kJ/mol
# Density = 1.903217 g / cm^3
# Si number density = 19.075584 Si / 1000 Ang^3
#
#
#
# Elastic Constant Matrix: (Units=GPa)
#
#
# Indices 1 2 3 4 5 6 
#
# 1 129.1092 30.4799 13.5911 0.0000 0.0000 0.0000
# 2 30.4799 167.4305 59.1912 0.0000 0.0000 0.0000
# 3 13.5911 59.1912 38.0339 0.0000 0.0000 0.0000
# 4 0.0000 0.0000 0.0000 10.1827 0.0000 0.0000
# 5 0.0000 0.0000 0.0000 0.0000 17.4204 0.0000
# 6 0.0000 0.0000 0.0000 0.0000 0.0000 31.2485
#
#
#
# Elastic Compliance Matrix: (Units=1/GPa)
#
#
# Indices 1 2 3 4 5 6 
#
# 1 0.008124 -0.001006 -0.001337 0.000000 0.000000 0.000000
# 2 -0.001006 0.013403 -0.020499 0.000000 0.000000 0.000000
# 3 -0.001337 -0.020499 0.058671 0.000000 0.000000 0.000000
# 4 0.000000 0.000000 0.000000 0.098206 0.000000 0.000000
# 5 0.000000 0.000000 0.000000 0.000000 0.057404 0.000000
# 6 0.000000 0.000000 0.000000 0.000000 0.000000 0.032002
#
#
# Mechanical properties :
#
#
# Convention : Reuss Voigt Hill
#
# Bulk Modulus (GPa) = 28.97358 60.12199 44.54778
# Shear Modulus (GPa) = 15.38473 27.19106 21.28790
#
# Velocity S-wave (km/s) = 2.84300 3.77959 3.34425
# Velocity P-wave (km/s) = 5.09889 7.11571 6.18999
#
# Compressibility (1/GPa) = 0.03451421
#
# Stress axis : x y z
#
# Youngs Moduli (GPa) = 123.09709 74.61241 17.04408
#
# Poissons Ratio (x) = 0.07508 0.02279
# Poissons Ratio (y) = 0.12386 0.34938
# Poissons Ratio (z) = 0.16458 1.52945
#
# Static dielectric constant tensor:
#      x y z
#    x 1.650410 0.000000 0.000000 
#    y 0.000000 1.751240 0.000000 
#    z 0.000000 0.000000 1.616130 
# 
# From -- ./inp_files/23908.got.cif
#   From: 2010.05.17/outbox.cif.g08.bks.cpg/sg24_12_cif.got.tgz:23908.got - 2010.06.04 00:33:39.
