data_PCOD9333310
_publ_section_title
;
Structure prediction by ZEFSAII (Michael W. Deem and Ramdas Pophale) SiO2 
 PCOD9333310
Probable space group: I 21 21 21
;
_chemical_formula_sum "Si O2"
_cell_formula_units_Z 56
_cell_length_a 17.234787
_cell_length_b 11.146734
_cell_length_c 14.043878
_cell_angle_alpha 90.000000
_cell_angle_beta 90.000000
_cell_angle_gamma 90.000000
_cell_volume 2697.991679
_symmetry_space_group_name_H-M "I 21 21 21"
_symmetry_group_IT_number 24
_symmetry_cell_setting 'orthorhombic'
loop_
_space_group_symop_operation_xyz
x,y,z
-x,1/2-y,z
x,-y,1/2-z
1/2-x,y,-z
1/2+x,1/2+y,1/2+z
1/2-x,-y,1/2+z
1/2+x,1/2-y,-z
-x,1/2+y,1/2-z
loop_
_atom_site_type_symbol
_atom_site_label
_atom_site_fract_x
_atom_site_fract_y
_atom_site_fract_z
Si Si1 0.609931 0.924488 0.866606
Si Si2 0.568346 0.571482 0.386850
Si Si3 0.836604 0.704156 0.464385
Si Si4 0.586880 0.693579 0.191282
Si Si5 0.395350 0.451187 0.055801
Si Si6 0.219019 0.368833 0.609506
Si Si7 0.079640 0.697978 0.304493
O O1 0.698897 0.892964 0.842105
O O2 0.570296 0.818352 0.808497
O O3 0.590022 0.059320 0.833730
O O4 0.592916 0.940767 0.978528
O O5 0.606637 0.609062 0.486103
O O6 0.595567 0.661797 0.303505
O O7 0.588536 0.435861 0.359367
O O8 0.475313 0.577156 0.393531
O O9 0.750000 0.679697 0.500000
O O10 0.862687 0.833052 0.506020
O O11 0.852866 0.721671 0.351869
O O12 0.500000 0.750000 0.177490
O O13 0.658258 0.772899 0.151566
O O14 0.327002 0.505844 0.117719
O O15 0.250000 0.344649 0.500000
O O16 0.000000 0.750000 0.345867
#
# Coordination Sequence:
#
# PCOD9333310 Si02
#       7
#     8   8   8   8   8   8   8
#     4   9  20  37  64  98 124 168 219 270 333 391
#     4  11  24  40  64  95 132 178 220 273 351 421
#     4  11  22  36  62  93 130 173 217 270 341 401
#     4  11  23  43  63  97 135 172 223 282 346 426
#     4  10  18  40  64  94 127 167 221 272 328 407
#     4  10  21  40  67  95 129 170 225 283 333 402
#     4  10  20  39  62  93 134 162 215 281 326 403
#
# _framework density 20.756178999999999
#
# number of rings (size 3 to 8) (size 9 to 14) (size 15 to 20)
#    0.000    1.714    1.429    5.143    2.000    0.571 
#   10.286    0.000    6.286    0.000    0.000    0.000 
#    0.000    0.000    0.000    0.000    0.000    0.000 
#
# Total GULP energy -155961.371985 kJ/mol
# GULP energy per Si atom -5570.048999 kJ/mol
# Density = 2.070894 g / cm^3
# Si number density = 20.756179 Si / 1000 Ang^3
#
#
#
# Elastic Constant Matrix: (Units=GPa)
#
#
# Indices 1 2 3 4 5 6 
#
# 1 117.5614 37.9741 13.2279 0.0000 0.0000 0.0000
# 2 37.9741 71.8752 22.4432 0.0000 0.0000 0.0000
# 3 13.2279 22.4432 47.9294 0.0000 0.0000 0.0000
# 4 0.0000 0.0000 0.0000 26.4273 0.0000 0.0000
# 5 0.0000 0.0000 0.0000 0.0000 26.0417 0.0000
# 6 0.0000 0.0000 0.0000 0.0000 0.0000 29.3329
#
#
#
# Elastic Compliance Matrix: (Units=1/GPa)
#
#
# Indices 1 2 3 4 5 6 
#
# 1 0.010261 -0.005314 -0.000344 0.000000 0.000000 0.000000
# 2 -0.005314 0.019048 -0.007453 0.000000 0.000000 0.000000
# 3 -0.000344 -0.007453 0.024449 0.000000 0.000000 0.000000
# 4 0.000000 0.000000 0.000000 0.037840 0.000000 0.000000
# 5 0.000000 0.000000 0.000000 0.000000 0.038400 0.000000
# 6 0.000000 0.000000 0.000000 0.000000 0.000000 0.034091
#
#
# Mechanical properties :
#
#
# Convention : Reuss Voigt Hill
#
# Bulk Modulus (GPa) = 36.31476 42.73958 39.52717
# Shear Modulus (GPa) = 25.06412 27.27511 26.16961
#
# Velocity S-wave (km/s) = 3.47875 3.62895 3.55464
# Velocity P-wave (km/s) = 5.80254 6.18021 5.99435
#
# Compressibility (1/GPa) = 0.02753701
#
# Stress axis : x y z
#
# Youngs Moduli (GPa) = 97.45256 52.49975 40.90222
#
# Poissons Ratio (x) = 0.27899 0.01406
# Poissons Ratio (y) = 0.51788 0.30483
# Poissons Ratio (z) = 0.03349 0.39126
#
# Static dielectric constant tensor:
#      x y z
#    x 1.778570 0.000000 0.000000 
#    y 0.000000 1.788240 0.000000 
#    z 0.000000 0.000000 1.990810 
# 
# From -- ./inp_files/26535.got.cif
#   From: 2010.05.17/outbox.cif.g08.bks.cpg/sg24_14_cif.got.tgz:26535.got - 2010.06.04 00:33:39.
