data_PCOD9333054
_publ_section_title
;
Structure prediction by ZEFSAII (Michael W. Deem and Ramdas Pophale) SiO2 
 PCOD9333054
Probable space group: I 21 21 21
;
_chemical_formula_sum "Si O2"
_cell_formula_units_Z 40
_cell_length_a 9.141454
_cell_length_b 17.022078
_cell_length_c 11.882197
_cell_angle_alpha 90.000000
_cell_angle_beta 90.000000
_cell_angle_gamma 90.000000
_cell_volume 1848.947599
_symmetry_space_group_name_H-M "I 21 21 21"
_symmetry_group_IT_number 24
_symmetry_cell_setting 'orthorhombic'
loop_
_space_group_symop_operation_xyz
x,y,z
-x,1/2-y,z
x,-y,1/2-z
1/2-x,y,-z
1/2+x,1/2+y,1/2+z
1/2-x,-y,1/2+z
1/2+x,1/2-y,-z
-x,1/2+y,1/2-z
loop_
_atom_site_type_symbol
_atom_site_label
_atom_site_fract_x
_atom_site_fract_y
_atom_site_fract_z
Si Si1 0.176250 0.748254 0.779203
Si Si2 0.730587 0.400280 0.177325
Si Si3 0.499824 0.000000 0.750000
Si Si4 0.750000 0.658236 0.000000
Si Si5 0.434363 0.964964 0.098453
Si Si6 0.750885 0.912325 0.872626
O O1 0.222577 0.806294 0.677977
O O2 0.225346 0.658205 0.784322
O O3 0.000000 0.750000 0.789372
O O4 0.246064 0.787902 0.890564
O O5 0.637487 0.449587 0.086693
O O6 0.644846 0.425469 0.292776
O O7 0.891370 0.436370 0.193306
O O8 0.608684 0.039449 0.660656
O O9 0.613357 0.597757 0.003748
O O10 0.604729 0.966424 0.123179
O O11 0.750000 0.879537 0.000000
#
# Coordination Sequence:
#
# PCOD9333054 Si02
#       6
#     8   8   4   4   8   8
#     4  11  21  34  58  90 122 157 195 250 319 365
#     4   9  20  38  57  75 123 170 204 239 299 378
#     4  10  24  40  54  88 128 166 210 250 304 376
#     4  10  18  32  56  86 122 146 198 244 300 376
#     4   9  19  35  55  76 118 165 201 234 289 379
#     4  12  24  35  61  95 129 160 197 261 317 367
#
# _framework density 21.633928999999998
#
# number of rings (size 3 to 8) (size 9 to 14) (size 15 to 20)
#    0.000    2.000    5.000    1.200    8.400    0.800 
#    0.000    0.000    0.000    0.000    2.600    0.000 
#    0.000    0.000    0.000    0.000    0.000    0.000 
#
# Total GULP energy -111555.933252 kJ/mol
# GULP energy per Si atom -5577.796663 kJ/mol
# Density = 2.158469 g / cm^3
# Si number density = 21.633929 Si / 1000 Ang^3
#
#
#
# Elastic Constant Matrix: (Units=GPa)
#
#
# Indices 1 2 3 4 5 6 
#
# 1 164.2916 55.8442 24.4742 0.0000 0.0000 0.0000
# 2 55.8442 109.5728 23.2442 -0.0001 0.0000 0.0000
# 3 24.4742 23.2442 25.9301 -0.0003 0.0001 0.0001
# 4 0.0000 -0.0001 -0.0003 29.6479 0.0001 0.0000
# 5 0.0000 0.0000 0.0001 0.0001 28.8617 0.0000
# 6 0.0000 0.0000 0.0001 0.0000 0.0000 22.1150
#
#
#
# Elastic Compliance Matrix: (Units=1/GPa)
#
#
# Indices 1 2 3 4 5 6 
#
# 1 0.007798 -0.002980 -0.004689 0.000000 0.000000 0.000000
# 2 -0.002980 0.012408 -0.008310 0.000000 0.000000 0.000000
# 3 -0.004689 -0.008310 0.050441 0.000000 0.000000 0.000000
# 4 0.000000 0.000000 0.000000 0.033729 0.000000 0.000000
# 5 0.000000 0.000000 0.000000 0.000000 0.034648 0.000000
# 6 0.000000 0.000000 0.000000 0.000000 0.000000 0.045218
#
#
# Mechanical properties :
#
#
# Convention : Reuss Voigt Hill
#
# Bulk Modulus (GPa) = 25.84762 56.32442 41.08602
# Shear Modulus (GPa) = 21.82487 29.20705 25.51596
#
# Velocity S-wave (km/s) = 3.17965 3.67830 3.43803
# Velocity P-wave (km/s) = 5.04518 6.64316 5.89854
#
# Compressibility (1/GPa) = 0.03868828
#
# Stress axis : x y z
#
# Youngs Moduli (GPa) = 128.23682 80.59449 19.82524
#
# Poissons Ratio (x) = 0.24014 0.09297
# Poissons Ratio (y) = 0.38209 0.16475
# Poissons Ratio (z) = 0.60134 0.66977
#
# Static dielectric constant tensor:
#      x y z
#    x 1.779620 0.000000 0.000000 
#    y 0.000000 1.858680 0.000000 
#    z 0.000000 0.000000 1.916410 
# 
# From -- ./inp_files/24664.got.cif
#   From: 2010.05.17/outbox.cif.g08.bks.cpg/sg24_13_cif.got.tgz:24664.got - 2010.06.04 00:33:39.
