data_PCOD9333067
_publ_section_title
;
Structure prediction by ZEFSAII (Michael W. Deem and Ramdas Pophale) SiO2 
 PCOD9333067
Probable space group: I 21 21 21
;
_chemical_formula_sum "Si O2"
_cell_formula_units_Z 52
_cell_length_a 16.754924
_cell_length_b 9.622111
_cell_length_c 17.942771
_cell_angle_alpha 90.000000
_cell_angle_beta 90.000000
_cell_angle_gamma 90.000000
_cell_volume 2892.692963
_symmetry_space_group_name_H-M "I 21 21 21"
_symmetry_group_IT_number 24
_symmetry_cell_setting 'orthorhombic'
loop_
_space_group_symop_operation_xyz
x,y,z
-x,1/2-y,z
x,-y,1/2-z
1/2-x,y,-z
1/2+x,1/2+y,1/2+z
1/2-x,-y,1/2+z
1/2+x,1/2-y,-z
-x,1/2+y,1/2-z
loop_
_atom_site_type_symbol
_atom_site_label
_atom_site_fract_x
_atom_site_fract_y
_atom_site_fract_z
Si Si1 0.663684 0.422555 0.027532
Si Si2 0.500000 0.250000 0.683729
Si Si3 0.975094 0.491086 0.076830
Si Si4 0.616514 0.353252 0.795266
Si Si5 0.420958 0.652726 0.469790
Si Si6 0.573493 0.139734 0.201660
Si Si7 0.301311 0.869708 0.305130
O O1 0.649224 0.258847 0.010313
O O2 0.661196 0.422196 0.116860
O O3 0.750000 0.468629 0.000000
O O4 0.593906 0.506867 0.986033
O O5 0.510530 0.379741 0.629895
O O6 0.575939 0.244210 0.739286
O O7 0.937931 0.374685 0.131945
O O8 0.056104 0.454261 0.033710
O O9 0.615099 0.500000 0.750000
O O10 0.708407 0.330141 0.816021
O O11 0.500000 0.750000 0.467993
O O12 0.414545 0.598407 0.385556
O O13 0.500000 0.250000 0.207270
O O14 0.649722 0.235462 0.221901
O O15 0.563058 0.000000 0.250000
O O16 0.305692 0.000000 0.250000
#
# Coordination Sequence:
#
# PCOD9333067 Si02
#       7
#     8   4   8   8   8   8   8
#     4  10  18  32  59  83 106 150 194 237 283 340
#     4  10  22  36  54  86 120 152 186 240 298 356
#     4  10  19  36  55  82 114 148 194 235 284 353
#     4   9  19  34  56  81 111 148 189 233 285 347
#     4   8  18  33  53  76 107 141 189 232 271 338
#     4  10  20  37  57  82 115 147 192 238 292 349
#     4  10  20  37  59  86 115 151 199 243 289 353
#
# _framework density 17.976327000000001
#
# number of rings (size 3 to 8) (size 9 to 14) (size 15 to 20)
#    0.000    2.462    1.538    1.385    3.231    0.000 
#    4.154    5.385    0.000    0.923    0.000    0.000 
#    0.000    0.000    0.000    0.000    0.000    0.000 
#
# Total GULP energy -144786.179300 kJ/mol
# GULP energy per Si atom -5568.699204 kJ/mol
# Density = 1.793541 g / cm^3
# Si number density = 17.976327 Si / 1000 Ang^3
#
#
#
# Elastic Constant Matrix: (Units=GPa)
#
#
# Indices 1 2 3 4 5 6 
#
# 1 73.7241 35.5715 27.7664 0.0000 0.0000 0.0000
# 2 35.5715 66.4304 50.1741 0.0000 0.0000 0.0000
# 3 27.7664 50.1741 104.4417 0.0000 0.0000 0.0000
# 4 0.0000 0.0000 0.0000 28.1233 0.0000 0.0000
# 5 0.0000 0.0000 0.0000 0.0000 25.6833 0.0000
# 6 0.0000 0.0000 0.0000 0.0000 0.0000 21.6892
#
#
#
# Elastic Compliance Matrix: (Units=1/GPa)
#
#
# Indices 1 2 3 4 5 6 
#
# 1 0.018293 -0.009609 -0.000247 0.000000 0.000000 0.000000
# 2 -0.009609 0.028673 -0.011220 0.000000 0.000000 0.000000
# 3 -0.000247 -0.011220 0.015031 0.000000 0.000000 0.000000
# 4 0.000000 0.000000 0.000000 0.035558 0.000000 0.000000
# 5 0.000000 0.000000 0.000000 0.000000 0.038936 0.000000
# 6 0.000000 0.000000 0.000000 0.000000 0.000000 0.046106
#
#
# Mechanical properties :
#
#
# Convention : Reuss Voigt Hill
#
# Bulk Modulus (GPa) = 50.39126 52.40224 51.39675
# Shear Modulus (GPa) = 21.61103 23.83812 22.72457
#
# Velocity S-wave (km/s) = 3.47103 3.64549 3.55933
# Velocity P-wave (km/s) = 6.64507 6.85080 6.74872
#
# Compressibility (1/GPa) = 0.01984471
#
# Stress axis : x y z
#
# Youngs Moduli (GPa) = 54.66447 34.87614 66.53099
#
# Poissons Ratio (x) = 0.33512 0.01645
# Poissons Ratio (y) = 0.52526 0.74648
# Poissons Ratio (z) = 0.01352 0.39131
#
# Static dielectric constant tensor:
#      x y z
#    x 1.652590 0.000000 0.000000 
#    y 0.000000 1.622710 0.000000 
#    z 0.000000 0.000000 1.648400 
# 
# From -- ./inp_files/31136.got.cif
#   From: 2010.05.17/outbox.cif.g08.bks.cpg/sg24_16_cif.got.tgz:31136.got - 2010.06.04 00:33:39.
