data_PCOD9333515
_publ_section_title
;
Structure prediction by ZEFSAII (Michael W. Deem and Ramdas Pophale) SiO2 
 PCOD9333515
Probable space group: I 21 21 21
;
_chemical_formula_sum "Si O2"
_cell_formula_units_Z 28
_cell_length_a 6.581625
_cell_length_b 15.323513
_cell_length_c 9.983298
_cell_angle_alpha 90.000000
_cell_angle_beta 90.000000
_cell_angle_gamma 90.000000
_cell_volume 1006.851705
_symmetry_space_group_name_H-M "I 21 21 21"
_symmetry_group_IT_number 24
_symmetry_cell_setting 'orthorhombic'
loop_
_space_group_symop_operation_xyz
x,y,z
-x,1/2-y,z
x,-y,1/2-z
1/2-x,y,-z
1/2+x,1/2+y,1/2+z
1/2-x,-y,1/2+z
1/2+x,1/2-y,-z
-x,1/2+y,1/2-z
loop_
_atom_site_type_symbol
_atom_site_label
_atom_site_fract_x
_atom_site_fract_y
_atom_site_fract_z
Si Si1 0.500000 0.250000 0.540140
Si Si2 0.463956 0.154717 0.786372
Si Si3 0.983052 0.923843 0.547323
Si Si4 0.597698 0.110407 0.322878
O O1 0.367756 0.191948 0.647574
O O2 0.579419 0.179883 0.437003
O O3 0.500000 0.250000 0.856590
O O4 0.666463 0.109404 0.723728
O O5 0.399051 0.091695 0.907683
O O6 0.750000 0.904907 0.500000
O O7 0.017143 0.868149 0.683265
O O8 0.976290 0.020901 0.608760
#
# Coordination Sequence:
#
# PCOD9333515 Si02
#       4
#     4   8   8   8
#     4  10  20  28  52  80 118 140 188 238 282 340
#     4   9  20  33  51  85 114 141 178 238 296 331
#     4   9  18  33  56  78 110 140 193 235 279 330
#     4  10  19  34  54  85 106 147 188 239 283 336
#
# _framework density 27.809459
#
# number of rings (size 3 to 8) (size 9 to 14) (size 15 to 20)
#    0.857    1.714    0.000    2.571    2.000    3.429 
#    0.000    0.000    0.000    0.000   29.714    0.000 
#    0.000    0.000    0.000    0.000    0.000    0.000 
#
# Total GULP energy -77995.780987 kJ/mol
# GULP energy per Si atom -5571.127213 kJ/mol
# Density = 2.774616 g / cm^3
# Si number density = 27.809459 Si / 1000 Ang^3
#
#
#
# Elastic Constant Matrix: (Units=GPa)
#
#
# Indices 1 2 3 4 5 6 
#
# 1 60.1380 6.9876 61.5317 0.0000 0.0000 0.0000
# 2 6.9876 131.5052 107.8617 0.0002 0.0000 -0.0001
# 3 61.5317 107.8617 367.2584 0.0002 0.0000 -0.0001
# 4 0.0000 0.0002 0.0002 66.4396 0.0000 -0.0001
# 5 0.0000 0.0000 0.0000 0.0000 62.2364 0.0000
# 6 0.0000 -0.0001 -0.0001 -0.0001 0.0000 31.8326
#
#
#
# Elastic Compliance Matrix: (Units=1/GPa)
#
#
# Indices 1 2 3 4 5 6 
#
# 1 0.020577 0.002285 -0.004119 0.000000 0.000000 0.000000
# 2 0.002285 0.010271 -0.003399 0.000000 0.000000 0.000000
# 3 -0.004119 -0.003399 0.004411 0.000000 0.000000 0.000000
# 4 0.000000 0.000000 0.000000 0.015051 0.000000 0.000000
# 5 0.000000 0.000000 0.000000 0.000000 0.016068 0.000000
# 6 0.000000 0.000000 0.000000 0.000000 0.000000 0.031414
#
#
# Mechanical properties :
#
#
# Convention : Reuss Voigt Hill
#
# Bulk Modulus (GPa) = 40.33414 101.29596 70.81505
# Shear Modulus (GPa) = 42.90990 57.60310 50.25650
#
# Velocity S-wave (km/s) = 3.93236 4.55615 4.25570
# Velocity P-wave (km/s) = 5.92901 8.01137 7.04752
#
# Compressibility (1/GPa) = 0.02479289
#
# Stress axis : x y z
#
# Youngs Moduli (GPa) = 48.59806 97.36140 226.69202
#
# Poissons Ratio (x) = -0.22244 0.93364
# Poissons Ratio (y) = -0.11103 0.77060
# Poissons Ratio (z) = 0.20015 0.33096
#
# Static dielectric constant tensor:
#      x y z
#    x 2.595730 0.000000 0.000000 
#    y 0.000000 2.168430 0.000000 
#    z 0.000000 0.000000 2.101190 
# 
# From -- ./inp_files/8746.got.cif
#   From: 2010.05.17/outbox.cif.g08.bks.cpg/sg24_5_cif.got.tgz:8746.got - 2010.06.04 00:33:39.
