data_PCOD9333968
_publ_section_title
;
Structure prediction by ZEFSAII (Michael W. Deem and Ramdas Pophale) SiO2 
 PCOD9333968
Probable space group: I 21 21 21
;
_chemical_formula_sum "Si O2"
_cell_formula_units_Z 40
_cell_length_a 22.759772
_cell_length_b 14.606684
_cell_length_c 6.196941
_cell_angle_alpha 90.000000
_cell_angle_beta 90.000000
_cell_angle_gamma 90.000000
_cell_volume 2060.140796
_symmetry_space_group_name_H-M "I 21 21 21"
_symmetry_group_IT_number 24
_symmetry_cell_setting 'orthorhombic'
loop_
_space_group_symop_operation_xyz
x,y,z
-x,1/2-y,z
x,-y,1/2-z
1/2-x,y,-z
1/2+x,1/2+y,1/2+z
1/2-x,-y,1/2+z
1/2+x,1/2-y,-z
-x,1/2+y,1/2-z
loop_
_atom_site_type_symbol
_atom_site_label
_atom_site_fract_x
_atom_site_fract_y
_atom_site_fract_z
Si Si1 0.643557 0.226715 0.724271
Si Si2 0.750000 0.214921 0.000000
Si Si3 0.012916 0.000000 0.750000
Si Si4 0.557431 0.088876 0.870820
Si Si5 0.806912 0.088178 0.635232
Si Si6 0.962141 0.335421 0.469500
O O1 0.605314 0.167055 0.892084
O O2 0.659582 0.154069 0.533560
O O3 0.599001 0.299531 0.624187
O O4 0.700569 0.263276 0.851022
O O5 0.716658 0.152031 0.173466
O O6 0.971625 0.945642 0.586428
O O7 0.047686 0.079000 0.625830
O O8 0.505410 0.127968 0.718783
O O9 0.583372 0.000000 0.750000
O O10 0.750000 0.052995 0.500000
O O11 0.836247 0.000000 0.750000
O O12 0.000000 0.250000 0.566824
#
# Coordination Sequence:
#
# PCOD9333968 Si02
#       6
#     8   4   4   8   8   8
#     4  10  22  36  54  83 126 160 201 251 298 365
#     4  10  22  34  52  78 118 166 202 240 292 352
#     4  10  20  38  66  86 114 164 206 246 308 366
#     4   9  20  35  54  82 117 153 198 249 299 357
#     4  10  20  34  51  77 117 158 204 235 283 355
#     4   9  20  39  55  86 125 155 202 255 305 367
#
# _framework density 19.416148
#
# number of rings (size 3 to 8) (size 9 to 14) (size 15 to 20)
#    0.000    2.400    1.000    0.000    2.800    8.800 
#    7.200    0.000    0.000    0.000    0.000    0.000 
#  216.000    0.000    0.000    0.000    0.000    0.000 
#
# Total GULP energy -111569.397573 kJ/mol
# GULP energy per Si atom -5578.469879 kJ/mol
# Density = 1.937196 g / cm^3
# Si number density = 19.416148 Si / 1000 Ang^3
#
#
#
# Elastic Constant Matrix: (Units=GPa)
#
#
# Indices 1 2 3 4 5 6 
#
# 1 95.7621 52.0064 31.4917 0.0000 0.0000 0.0000
# 2 52.0064 89.8406 40.7025 0.0000 0.0000 0.0000
# 3 31.4917 40.7025 64.4578 0.0000 0.0000 0.0000
# 4 0.0000 0.0000 0.0000 29.4475 0.0000 0.0000
# 5 0.0000 0.0000 0.0000 0.0000 10.1697 0.0000
# 6 0.0000 0.0000 0.0000 0.0000 0.0000 24.3851
#
#
#
# Elastic Compliance Matrix: (Units=1/GPa)
#
#
# Indices 1 2 3 4 5 6 
#
# 1 0.015554 -0.007790 -0.002680 0.000000 0.000000 0.000000
# 2 -0.007790 0.019492 -0.008503 0.000000 0.000000 0.000000
# 3 -0.002680 -0.008503 0.022193 0.000000 0.000000 0.000000
# 4 0.000000 0.000000 0.000000 0.033959 0.000000 0.000000
# 5 0.000000 0.000000 0.000000 0.000000 0.098331 0.000000
# 6 0.000000 0.000000 0.000000 0.000000 0.000000 0.041009
#
#
# Mechanical properties :
#
#
# Convention : Reuss Voigt Hill
#
# Bulk Modulus (GPa) = 51.83072 55.38462 53.60767
# Shear Modulus (GPa) = 18.18743 21.19112 19.68928
#
# Velocity S-wave (km/s) = 3.06390 3.30724 3.18790
# Velocity P-wave (km/s) = 6.26652 6.57045 6.42028
#
# Compressibility (1/GPa) = 0.01929358
#
# Stress axis : x y z
#
# Youngs Moduli (GPa) = 64.29039 51.30225 45.05963
#
# Poissons Ratio (x) = 0.39963 0.12078
# Poissons Ratio (y) = 0.50080 0.38314
# Poissons Ratio (z) = 0.17233 0.43622
#
# Static dielectric constant tensor:
#      x y z
#    x 1.699530 0.000000 0.000000 
#    y 0.000000 1.670010 0.000000 
#    z 0.000000 0.000000 1.724210 
# 
# From -- ./inp_files/5511.got.cif
#   From: 2010.05.17/outbox.cif.g08.bks.cpg/sg24_3_cif.got.tgz:5511.got - 2010.06.04 00:33:39.
