data_PCOD9333448
_publ_section_title
;
Structure prediction by ZEFSAII (Michael W. Deem and Ramdas Pophale) SiO2 
 PCOD9333448
Probable space group: I 21 21 21
;
_chemical_formula_sum "Si O2"
_cell_formula_units_Z 64
_cell_length_a 7.790709
_cell_length_b 15.220820
_cell_length_c 30.892044
_cell_angle_alpha 90.000000
_cell_angle_beta 90.000000
_cell_angle_gamma 90.000000
_cell_volume 3663.208832
_symmetry_space_group_name_H-M "I 21 21 21"
_symmetry_group_IT_number 24
_symmetry_cell_setting 'orthorhombic'
loop_
_space_group_symop_operation_xyz
x,y,z
-x,1/2-y,z
x,-y,1/2-z
1/2-x,y,-z
1/2+x,1/2+y,1/2+z
1/2-x,-y,1/2+z
1/2+x,1/2-y,-z
-x,1/2+y,1/2-z
loop_
_atom_site_type_symbol
_atom_site_label
_atom_site_fract_x
_atom_site_fract_y
_atom_site_fract_z
Si Si1 0.699281 0.067545 0.365042
Si Si2 0.298686 0.942069 0.710135
Si Si3 0.701483 0.750000 0.719753
Si Si4 0.800719 0.432455 0.634958
Si Si5 0.798686 0.942069 0.289865
Si Si6 0.298797 0.750000 0.823584
Si Si7 0.706652 0.649240 0.048880
Si Si8 0.206652 0.350760 0.548880
O O1 0.500000 0.042418 0.368013
O O2 0.714706 0.162525 0.342250
O O3 0.770207 0.085322 0.413235
O O4 0.786413 0.997600 0.333656
O O5 0.223555 0.844132 0.705738
O O6 0.500000 0.929057 0.721235
O O7 0.224906 0.000000 0.750000
O O8 0.286413 0.997600 0.666344
O O9 0.500000 0.750000 0.706170
O O10 0.776445 0.844132 0.705738
O O11 0.710473 0.750000 0.771843
O O12 0.785294 0.337475 0.657750
O O13 0.729793 0.414678 0.586765
O O14 0.724906 0.000000 0.250000
O O15 0.500000 0.750000 0.835533
O O16 0.769963 0.750000 0.055215
O O17 0.500000 0.652278 0.052950
O O18 0.750000 0.622993 0.000000
O O19 0.250000 0.377007 0.500000
#
# Coordination Sequence:
#
# PCOD9333448 Si02
#       8
#     8   8   8   8   8   8   8   8
#     4  11  21  33  47  72 104 131 161 204 250 289
#     4  10  19  33  51  71  96 131 172 204 236 284
#     4   9  18  33  49  68  97 128 167 214 237 264
#     4  11  21  33  47  72 104 131 161 204 250 289
#     4  10  19  33  51  71  96 131 172 204 236 284
#     4  11  19  31  50  70  95 134 173 202 236 286
#     4   9  18  32  47  67  97 128 158 196 241 291
#     4   9  18  32  47  67  97 128 158 196 241 291
#
# _framework density 17.471022000000001
#
# number of rings (size 3 to 8) (size 9 to 14) (size 15 to 20)
#    0.000    2.000    3.750    1.125    0.000    2.500 
#    0.000    0.625    0.000    0.000    0.000    0.875 
#    0.000    0.000    0.000    0.000    0.000    0.000 
#
# Total GULP energy -178446.644755 kJ/mol
# GULP energy per Si atom -5576.457649 kJ/mol
# Density = 1.743126 g / cm^3
# Si number density = 17.471022 Si / 1000 Ang^3
#
#
#
# Elastic Constant Matrix: (Units=GPa)
#
#
# Indices 1 2 3 4 5 6 
#
# 1 23.2821 -0.6574 -4.4652 0.0000 0.0000 0.0000
# 2 -0.6574 136.5293 55.3909 0.0000 0.0000 0.0000
# 3 -4.4652 55.3909 101.2612 0.0000 0.0000 0.0000
# 4 0.0000 0.0000 0.0000 15.1175 0.0000 0.0000
# 5 0.0000 0.0000 0.0000 0.0000 18.6542 0.0000
# 6 0.0000 0.0000 0.0000 0.0000 0.0000 10.2532
#
#
#
# Elastic Compliance Matrix: (Units=1/GPa)
#
#
# Indices 1 2 3 4 5 6 
#
# 1 0.043374 -0.000729 0.002311 0.000000 0.000000 0.000000
# 2 -0.000729 0.009426 -0.005188 0.000000 0.000000 0.000000
# 3 0.002311 -0.005188 0.012815 0.000000 0.000000 0.000000
# 4 0.000000 0.000000 0.000000 0.066149 0.000000 0.000000
# 5 0.000000 0.000000 0.000000 0.000000 0.053607 0.000000
# 6 0.000000 0.000000 0.000000 0.000000 0.000000 0.097530
#
#
# Mechanical properties :
#
#
# Convention : Reuss Voigt Hill
#
# Bulk Modulus (GPa) = 17.12215 40.17880 28.65048
# Shear Modulus (GPa) = 16.15087 22.85860 19.50474
#
# Velocity S-wave (km/s) = 3.04376 3.62107 3.34489
# Velocity P-wave (km/s) = 4.70895 6.36633 5.59930
#
# Compressibility (1/GPa) = 0.05840387
#
# Stress axis : x y z
#
# Youngs Moduli (GPa) = 23.05523 106.09183 78.03148
#
# Poissons Ratio (x) = 0.07733 -0.18036
# Poissons Ratio (y) = 0.01680 0.40484
# Poissons Ratio (z) = -0.05329 0.55042
#
# Static dielectric constant tensor:
#      x y z
#    x 1.637290 0.000000 0.000000 
#    y 0.000000 1.602190 0.000000 
#    z 0.000000 0.000000 1.598680 
# 
# From -- ./inp_files/38469.got.cif
#   From: 2010.05.17/outbox.cif.g08.bks.cpg/sg24_20_cif.got.tgz:38469.got - 2010.06.04 00:33:39.
