data_PCOD9333315
_publ_section_title
;
Structure prediction by ZEFSAII (Michael W. Deem and Ramdas Pophale) SiO2 
 PCOD9333315
Probable space group: I 21 21 21
;
_chemical_formula_sum "Si O2"
_cell_formula_units_Z 36
_cell_length_a 14.093069
_cell_length_b 19.264101
_cell_length_c 5.604009
_cell_angle_alpha 90.000000
_cell_angle_beta 90.000000
_cell_angle_gamma 90.000000
_cell_volume 1521.434110
_symmetry_space_group_name_H-M "I 21 21 21"
_symmetry_group_IT_number 24
_symmetry_cell_setting 'orthorhombic'
loop_
_space_group_symop_operation_xyz
x,y,z
-x,1/2-y,z
x,-y,1/2-z
1/2-x,y,-z
1/2+x,1/2+y,1/2+z
1/2-x,-y,1/2+z
1/2+x,1/2-y,-z
-x,1/2+y,1/2-z
loop_
_atom_site_type_symbol
_atom_site_label
_atom_site_fract_x
_atom_site_fract_y
_atom_site_fract_z
Si Si1 0.069397 0.500000 0.750000
Si Si2 0.750000 0.455591 0.500000
Si Si3 0.798920 0.777422 0.252177
Si Si4 0.500000 0.750000 0.918190
Si Si5 0.374433 0.423638 0.855718
Si Si6 0.954825 0.604536 0.058666
O O1 0.131915 0.559915 0.633541
O O2 0.000691 0.460667 0.572383
O O3 0.763345 0.500000 0.750000
O O4 0.843181 0.408805 0.447374
O O5 0.750000 0.755529 0.500000
O O6 0.905276 0.748589 0.238201
O O7 0.813091 0.860660 0.262491
O O8 0.750000 0.759314 0.000000
O O9 0.510331 0.677297 0.056173
O O10 0.353871 0.500000 0.750000
O O11 0.484433 0.400509 0.804176
#
# Coordination Sequence:
#
# PCOD9333315 Si02
#       6
#     4   4   8   4   8   8
#     4  10  18  40  72 100 138 196 234 304 374 442
#     4  12  24  42  70 110 146 188 254 320 376 456
#     4  11  27  48  72 106 144 192 250 301 370 449
#     4  10  26  52  72 104 152 206 246 322 374 460
#     4   9  21  39  67  99 139 186 234 295 369 435
#     4  10  22  42  66 102 145 194 249 306 385 440
#
# _framework density 23.661888000000001
#
# number of rings (size 3 to 8) (size 9 to 14) (size 15 to 20)
#    0.000    1.778    1.111    2.000   10.889    1.778 
#    6.000    0.000    0.000    0.000    0.000    0.000 
#    0.000    0.000    0.000    0.000    0.000    0.000 
#
# Total GULP energy -100337.052520 kJ/mol
# GULP energy per Si atom -5574.280696 kJ/mol
# Density = 2.360803 g / cm^3
# Si number density = 23.661888 Si / 1000 Ang^3
#
#
#
# Elastic Constant Matrix: (Units=GPa)
#
#
# Indices 1 2 3 4 5 6 
#
# 1 153.5811 18.7790 58.3837 0.0000 0.0000 0.0000
# 2 18.7790 83.0315 6.1604 0.0000 0.0000 0.0000
# 3 58.3837 6.1604 105.4508 0.0000 0.0000 0.0000
# 4 0.0000 0.0000 0.0000 7.7324 0.0000 0.0000
# 5 0.0000 0.0000 0.0000 0.0000 13.4016 0.0000
# 6 0.0000 0.0000 0.0000 0.0000 0.0000 43.3573
#
#
#
# Elastic Compliance Matrix: (Units=1/GPa)
#
#
# Indices 1 2 3 4 5 6 
#
# 1 0.008446 -0.001570 -0.004584 0.000000 0.000000 0.000000
# 2 -0.001570 0.012388 0.000146 0.000000 0.000000 0.000000
# 3 -0.004584 0.000146 0.012013 0.000000 0.000000 0.000000
# 4 0.000000 0.000000 0.000000 0.129326 0.000000 0.000000
# 5 0.000000 0.000000 0.000000 0.000000 0.074618 0.000000
# 6 0.000000 0.000000 0.000000 0.000000 0.000000 0.023064
#
#
# Mechanical properties :
#
#
# Convention : Reuss Voigt Hill
#
# Bulk Modulus (GPa) = 48.01041 56.52331 52.26686
# Shear Modulus (GPa) = 17.93303 30.14762 24.04033
#
# Velocity S-wave (km/s) = 2.75596 3.57333 3.19092
# Velocity P-wave (km/s) = 5.51918 6.40036 5.97603
#
# Compressibility (1/GPa) = 0.02082881
#
# Stress axis : x y z
#
# Youngs Moduli (GPa) = 118.39961 80.72383 83.24445
#
# Poissons Ratio (x) = 0.12674 0.38163
# Poissons Ratio (y) = 0.18589 -0.01212
# Poissons Ratio (z) = 0.54280 -0.01175
#
# Static dielectric constant tensor:
#      x y z
#    x 1.973060 0.000000 0.000000 
#    y 0.000000 1.935010 0.000000 
#    z 0.000000 0.000000 2.105180 
# 
# From -- ./inp_files/3387.got.cif
#   From: 2010.05.17/outbox.cif.g08.bks.cpg/sg24_2_cif.got.tgz:3387.got - 2010.06.04 00:33:39.
