data_PCOD9333817
_publ_section_title
;
Structure prediction by ZEFSAII (Michael W. Deem and Ramdas Pophale) SiO2 
 PCOD9333817
Probable space group: I 21 21 21
;
_chemical_formula_sum "Si O2"
_cell_formula_units_Z 36
_cell_length_a 7.356294
_cell_length_b 15.326604
_cell_length_c 14.816813
_cell_angle_alpha 90.000000
_cell_angle_beta 90.000000
_cell_angle_gamma 90.000000
_cell_volume 1670.551290
_symmetry_space_group_name_H-M "I 21 21 21"
_symmetry_group_IT_number 24
_symmetry_cell_setting 'orthorhombic'
loop_
_space_group_symop_operation_xyz
x,y,z
-x,1/2-y,z
x,-y,1/2-z
1/2-x,y,-z
1/2+x,1/2+y,1/2+z
1/2-x,-y,1/2+z
1/2+x,1/2-y,-z
-x,1/2+y,1/2-z
loop_
_atom_site_type_symbol
_atom_site_label
_atom_site_fract_x
_atom_site_fract_y
_atom_site_fract_z
Si Si1 0.750000 0.625743 0.500000
Si Si2 0.869176 0.579555 0.311478
Si Si3 0.051464 0.595955 0.743979
Si Si4 0.836887 0.188782 0.586796
Si Si5 0.500000 0.750000 0.379971
Si Si6 0.000000 0.250000 0.290277
O O1 0.862518 0.573973 0.421393
O O2 0.621507 0.689992 0.443514
O O3 0.940572 0.500000 0.250000
O O4 0.656228 0.585545 0.286032
O O5 0.963074 0.666634 0.273382
O O6 0.139118 0.500000 0.750000
O O7 0.109404 0.679862 0.682829
O O8 0.062625 0.625563 0.845882
O O9 0.750000 0.144999 0.500000
O O10 0.676237 0.234235 0.645343
O O11 0.000000 0.250000 0.553699
#
# Coordination Sequence:
#
# PCOD9333817 Si02
#       6
#     4   8   8   8   4   4
#     4  10  20  38  64  96 128 178 226 274 344 412
#     4  10  22  42  66 101 138 180 228 289 348 413
#     4  10  21  42  67  90 136 183 218 287 353 398
#     4  12  23  43  66  99 134 181 235 281 349 419
#     4  10  19  39  64  88 130 170 223 276 335 410
#     4  12  23  41  70  94 142 180 225 290 347 420
#
# _framework density 21.549772999999998
#
# number of rings (size 3 to 8) (size 9 to 14) (size 15 to 20)
#    0.000    1.333    4.444    2.000    0.000    0.889 
#   16.000    0.000    0.000    0.000    0.000    0.000 
#    0.000    0.000    0.000    0.000    0.000    0.000 
#
# Total GULP energy -100258.028512 kJ/mol
# GULP energy per Si atom -5569.890473 kJ/mol
# Density = 2.150072 g / cm^3
# Si number density = 21.549773 Si / 1000 Ang^3
#
#
#
# Elastic Constant Matrix: (Units=GPa)
#
#
# Indices 1 2 3 4 5 6 
#
# 1 58.6525 -6.5924 11.1735 0.0000 0.0000 0.0000
# 2 -6.5924 117.1384 60.5111 0.0000 0.0000 0.0000
# 3 11.1735 60.5111 175.8897 0.0000 0.0000 0.0000
# 4 0.0000 0.0000 0.0000 -23.4221 0.0000 0.0000
# 5 0.0000 0.0000 0.0000 0.0000 44.7539 0.0000
# 6 0.0000 0.0000 0.0000 0.0000 0.0000 10.1869
#
#
#
# Elastic Compliance Matrix: (Units=1/GPa)
#
#
# Indices 1 2 3 4 5 6 
#
# 1 0.017602 0.001907 -0.001774 0.000000 0.000000 0.000000
# 2 0.001907 0.010589 -0.003764 0.000000 0.000000 0.000000
# 3 -0.001774 -0.003764 0.007093 0.000000 0.000000 0.000000
# 4 0.000000 0.000000 0.000000 -0.042695 0.000000 0.000000
# 5 0.000000 0.000000 0.000000 0.000000 0.022344 0.000000
# 6 0.000000 0.000000 0.000000 0.000000 0.000000 0.098165
#
#
# Mechanical properties :
#
#
# Convention : Reuss Voigt Hill
#
# Bulk Modulus (GPa) = 35.68697 53.54055 44.61376
# Shear Modulus (GPa) = 38.55031 25.40966 31.97998
#
# Velocity S-wave (km/s) = 4.23412 3.43755 3.85646
# Velocity P-wave (km/s) = 6.36396 6.37610 6.37003
#
# Compressibility (1/GPa) = 0.02802143
#
# Stress axis : x y z
#
# Youngs Moduli (GPa) = 56.81194 94.44105 140.98403
#
# Poissons Ratio (x) = -0.18012 0.25015
# Poissons Ratio (y) = -0.10835 0.53066
# Poissons Ratio (z) = 0.10080 0.35547
#
# Static dielectric constant tensor:
#      x y z
#    x 1.837530 0.000000 0.000000 
#    y 0.000000 1.804060 0.000000 
#    z 0.000000 0.000000 1.799850 
# 
# From -- ./inp_files/12242.got.cif
#   From: 2010.05.17/outbox.cif.g08.bks.cpg/sg24_7_cif.got.tgz:12242.got - 2010.06.04 00:33:39.
