data_PCOD9333118
_publ_section_title
;
Structure prediction by ZEFSAII (Michael W. Deem and Ramdas Pophale) SiO2 
 PCOD9333118
Probable space group: I 21 21 21
;
_chemical_formula_sum "Si O2"
_cell_formula_units_Z 64
_cell_length_a 21.158462
_cell_length_b 19.401835
_cell_length_c 8.660867
_cell_angle_alpha 90.000000
_cell_angle_beta 90.000000
_cell_angle_gamma 90.000000
_cell_volume 3555.398396
_symmetry_space_group_name_H-M "I 21 21 21"
_symmetry_group_IT_number 24
_symmetry_cell_setting 'orthorhombic'
loop_
_space_group_symop_operation_xyz
x,y,z
-x,1/2-y,z
x,-y,1/2-z
1/2-x,y,-z
1/2+x,1/2+y,1/2+z
1/2-x,-y,1/2+z
1/2+x,1/2-y,-z
-x,1/2+y,1/2-z
loop_
_atom_site_type_symbol
_atom_site_label
_atom_site_fract_x
_atom_site_fract_y
_atom_site_fract_z
Si Si1 0.723584 0.731738 0.328429
Si Si2 0.183712 0.339705 0.579883
Si Si3 0.351643 0.230373 0.674257
Si Si4 0.437750 0.282669 0.929202
Si Si5 0.536616 0.322366 0.512196
Si Si6 0.093389 0.164940 0.830141
Si Si7 0.438527 0.572002 0.066476
Si Si8 0.482401 0.579762 0.421471
O O1 0.750000 0.745008 0.500000
O O2 0.697206 0.801560 0.244095
O O3 0.782455 0.706682 0.224173
O O4 0.668643 0.674284 0.333776
O O5 0.250000 0.359106 0.500000
O O6 0.155154 0.278561 0.474744
O O7 0.133762 0.401932 0.569621
O O8 0.379260 0.274454 0.815967
O O9 0.405850 0.175930 0.632955
O O10 0.500000 0.250000 0.850702
O O11 0.428505 0.233407 0.077506
O O12 0.450437 0.359555 0.981920
O O13 0.500000 0.250000 0.509130
O O14 0.568573 0.332391 0.344290
O O15 0.482266 0.378469 0.535984
O O16 0.057053 0.100727 0.911483
O O17 0.459708 0.583169 0.244033
O O18 0.458112 0.494402 0.023962
#
# Coordination Sequence:
#
# PCOD9333118 Si02
#       8
#     8   8   8   8   8   8   8   8
#     4  11  20  34  55  86 116 151 186 241 291 341
#     4  10  21  35  55  83 119 150 192 232 280 354
#     4  11  21  30  53  86 115 146 188 235 291 345
#     4  10  19  32  53  83 115 139 188 246 281 332
#     4  11  18  31  57  85 109 144 190 240 292 337
#     4  10  18  34  56  85 107 144 195 237 287 334
#     4  10  19  36  60  81 115 153 193 239 287 337
#     4   9  20  34  59  86 106 152 196 240 280 337
#
# _framework density 18.000796999999999
#
# number of rings (size 3 to 8) (size 9 to 14) (size 15 to 20)
#    0.000    1.750    3.750    3.000    0.000    0.000 
#    0.000    0.625   13.750    0.000   13.000    0.000 
#    0.000    0.000    0.000    0.000    0.000    0.000 
#
# Total GULP energy -178305.610238 kJ/mol
# GULP energy per Si atom -5572.050320 kJ/mol
# Density = 1.795983 g / cm^3
# Si number density = 18.000797 Si / 1000 Ang^3
#
#
#
# Elastic Constant Matrix: (Units=GPa)
#
#
# Indices 1 2 3 4 5 6 
#
# 1 139.1768 49.6071 13.5281 0.0000 0.0000 0.0000
# 2 49.6071 89.4818 10.6106 0.0000 0.0000 0.0000
# 3 13.5281 10.6106 48.0147 0.0000 0.0000 0.0000
# 4 0.0000 0.0000 0.0000 8.8378 0.0000 0.0000
# 5 0.0000 0.0000 0.0000 0.0000 33.9138 0.0000
# 6 0.0000 0.0000 0.0000 0.0000 0.0000 21.6180
#
#
#
# Elastic Compliance Matrix: (Units=1/GPa)
#
#
# Indices 1 2 3 4 5 6 
#
# 1 0.009056 -0.004845 -0.001481 0.000000 0.000000 0.000000
# 2 -0.004845 0.014068 -0.001744 0.000000 0.000000 0.000000
# 3 -0.001481 -0.001744 0.021630 0.000000 0.000000 0.000000
# 4 0.000000 0.000000 0.000000 0.113150 0.000000 0.000000
# 5 0.000000 0.000000 0.000000 0.000000 0.029486 0.000000
# 6 0.000000 0.000000 0.000000 0.000000 0.000000 0.046258
#
#
# Mechanical properties :
#
#
# Convention : Reuss Voigt Hill
#
# Bulk Modulus (GPa) = 34.94729 47.12944 41.03836
# Shear Modulus (GPa) = 19.28085 26.40244 22.84165
#
# Velocity S-wave (km/s) = 3.27633 3.83396 3.56606
# Velocity P-wave (km/s) = 5.81110 6.77035 6.30898
#
# Compressibility (1/GPa) = 0.02861452
#
# Stress axis : x y z
#
# Youngs Moduli (GPa) = 110.42529 71.08273 46.23310
#
# Poissons Ratio (x) = 0.34438 0.06846
# Poissons Ratio (y) = 0.53499 0.08062
# Poissons Ratio (z) = 0.16352 0.12396
#
# Static dielectric constant tensor:
#      x y z
#    x 1.680670 0.000000 0.000000 
#    y 0.000000 1.604890 0.000000 
#    z 0.000000 0.000000 1.659120 
# 
# From -- ./inp_files/15425.got.cif
#   From: 2010.05.17/outbox.cif.g08.bks.cpg/sg24_8_cif.got.tgz:15425.got - 2010.06.04 00:33:39.
