data_PCOD9333509
_publ_section_title
;
Structure prediction by ZEFSAII (Michael W. Deem and Ramdas Pophale) SiO2 
 PCOD9333509
Probable space group: I 21 21 21
;
_chemical_formula_sum "Si O2"
_cell_formula_units_Z 44
_cell_length_a 16.683500
_cell_length_b 16.154048
_cell_length_c 7.936670
_cell_angle_alpha 90.000000
_cell_angle_beta 90.000000
_cell_angle_gamma 90.000000
_cell_volume 2138.980660
_symmetry_space_group_name_H-M "I 21 21 21"
_symmetry_group_IT_number 24
_symmetry_cell_setting 'orthorhombic'
loop_
_space_group_symop_operation_xyz
x,y,z
-x,1/2-y,z
x,-y,1/2-z
1/2-x,y,-z
1/2+x,1/2+y,1/2+z
1/2-x,-y,1/2+z
1/2+x,1/2-y,-z
-x,1/2+y,1/2-z
loop_
_atom_site_type_symbol
_atom_site_label
_atom_site_fract_x
_atom_site_fract_y
_atom_site_fract_z
Si Si1 0.416961 0.899316 0.996898
Si Si2 0.824213 0.500000 0.750000
Si Si3 0.870285 0.757875 0.835368
Si Si4 0.283690 0.158786 0.767300
Si Si5 0.159132 0.304387 0.020503
Si Si6 0.441853 0.331419 0.661350
O O1 0.423689 0.824555 0.133621
O O2 0.380425 0.976172 0.093912
O O3 0.349642 0.867667 0.867521
O O4 0.499022 0.904290 0.896184
O O5 0.768013 0.423105 0.799214
O O6 0.779875 0.723592 0.811549
O O7 0.884984 0.803041 0.658548
O O8 0.885190 0.811159 0.001893
O O9 0.326807 0.208532 0.917393
O O10 0.108670 0.344158 0.170652
O O11 0.250000 0.338201 0.000000
O O12 0.500000 0.250000 0.685699
#
# Coordination Sequence:
#
# PCOD9333509 Si02
#       6
#     8   4   8   8   8   8
#     4  10  20  34  51  73 116 162 199 254 295 348
#     4  10  20  30  56  76 110 166 220 216 288 382
#     4   9  18  30  52  74 103 149 196 238 296 349
#     4  10  19  34  51  78 116 156 203 252 282 361
#     4  10  20  30  54  80 107 154 201 245 298 365
#     4  10  19  34  50  74 113 152 197 253 305 334
#
# _framework density 20.570546
#
# number of rings (size 3 to 8) (size 9 to 14) (size 15 to 20)
#    0.000    2.182    3.636    2.182    2.545    9.455 
#    0.000    0.000    0.000    0.000    0.000    0.000 
#    0.000    0.000   37.091    5.091   14.909    0.000 
#
# Total GULP energy -122747.922007 kJ/mol
# GULP energy per Si atom -5579.451000 kJ/mol
# Density = 2.052373 g / cm^3
# Si number density = 20.570546 Si / 1000 Ang^3
#
#
#
# Elastic Constant Matrix: (Units=GPa)
#
#
# Indices 1 2 3 4 5 6 
#
# 1 102.0733 25.6204 67.8012 0.0000 0.0000 0.0000
# 2 25.6204 22.6623 9.8169 0.0000 0.0000 0.0000
# 3 67.8012 9.8169 154.0700 0.0000 0.0000 0.0000
# 4 0.0000 0.0000 0.0000 23.1937 0.0000 0.0000
# 5 0.0000 0.0000 0.0000 0.0000 50.1318 0.0000
# 6 0.0000 0.0000 0.0000 0.0000 0.0000 22.7231
#
#
#
# Elastic Compliance Matrix: (Units=1/GPa)
#
#
# Indices 1 2 3 4 5 6 
#
# 1 0.019362 -0.018715 -0.007328 0.000000 0.000000 0.000000
# 2 -0.018715 0.063468 0.004192 0.000000 0.000000 0.000000
# 3 -0.007328 0.004192 0.009448 0.000000 0.000000 0.000000
# 4 0.000000 0.000000 0.000000 0.043115 0.000000 0.000000
# 5 0.000000 0.000000 0.000000 0.000000 0.019947 0.000000
# 6 0.000000 0.000000 0.000000 0.000000 0.000000 0.044008
#
#
# Mechanical properties :
#
#
# Convention : Reuss Voigt Hill
#
# Bulk Modulus (GPa) = 20.58630 53.92027 37.25329
# Shear Modulus (GPa) = 19.28690 30.91417 25.10054
#
# Velocity S-wave (km/s) = 3.06534 3.88085 3.49695
# Velocity P-wave (km/s) = 4.74951 6.80813 5.86977
#
# Compressibility (1/GPa) = 0.04857600
#
# Stress axis : x y z
#
# Youngs Moduli (GPa) = 51.64776 15.75596 105.83891
#
# Poissons Ratio (x) = 0.29487 0.77560
# Poissons Ratio (y) = 0.96658 -0.44366
# Poissons Ratio (z) = 0.37848 -0.06605
#
# Static dielectric constant tensor:
#      x y z
#    x 1.795550 0.000000 0.000000 
#    y 0.000000 1.736420 0.000000 
#    z 0.000000 0.000000 1.815790 
# 
# From -- ./inp_files/12656.got.cif
#   From: 2010.05.17/outbox.cif.g08.bks.cpg/sg24_7_cif.got.tgz:12656.got - 2010.06.04 00:33:39.
