data_PCOD9333103
_publ_section_title
;
Structure prediction by ZEFSAII (Michael W. Deem and Ramdas Pophale) SiO2 
 PCOD9333103
Probable space group: I 21 21 21
;
_chemical_formula_sum "Si O2"
_cell_formula_units_Z 56
_cell_length_a 31.793312
_cell_length_b 13.639441
_cell_length_c 5.627258
_cell_angle_alpha 90.000000
_cell_angle_beta 90.000000
_cell_angle_gamma 90.000000
_cell_volume 2440.221059
_symmetry_space_group_name_H-M "I 21 21 21"
_symmetry_group_IT_number 24
_symmetry_cell_setting 'orthorhombic'
loop_
_space_group_symop_operation_xyz
x,y,z
-x,1/2-y,z
x,-y,1/2-z
1/2-x,y,-z
1/2+x,1/2+y,1/2+z
1/2-x,-y,1/2+z
1/2+x,1/2-y,-z
-x,1/2+y,1/2-z
loop_
_atom_site_type_symbol
_atom_site_label
_atom_site_fract_x
_atom_site_fract_y
_atom_site_fract_z
Si Si1 0.305243 0.700840 0.658443
Si Si2 0.404598 0.916116 0.558276
Si Si3 0.250000 0.164765 0.500000
Si Si4 0.506073 0.369914 0.124584
Si Si5 0.668166 0.357366 0.229658
Si Si6 0.025670 0.352788 0.384188
Si Si7 0.387546 0.742812 0.905646
Si Si8 0.767561 0.000000 0.250000
O O1 0.316607 0.764731 0.428366
O O2 0.346677 0.687482 0.816099
O O3 0.289785 0.591817 0.622118
O O4 0.272380 0.767567 0.803270
O O5 0.445405 0.901779 0.397727
O O6 0.358354 0.929512 0.441310
O O7 0.402171 0.813604 0.695573
O O8 0.412194 0.000000 0.750000
O O9 0.290072 0.110488 0.375573
O O10 0.500000 0.250000 0.136915
O O11 0.491614 0.406482 0.383023
O O12 0.481827 0.396667 0.878623
O O13 0.630914 0.314265 0.393792
O O14 0.073544 0.326949 0.450935
O O15 0.000000 0.250000 0.370123
O O16 0.750000 0.048243 0.500000
#
# Coordination Sequence:
#
# PCOD9333103 Si02
#       8
#     8   8   4   8   8   8   8   4
#     4  10  22  37  64  96 129 168 216 270 333 401
#     4  11  23  39  61  99 131 169 230 300 345 399
#     4  10  18  38  60  96 118 166 218 266 332 418
#     4  10  19  35  61  89 124 167 218 267 330 389
#     4  10  21  37  62  93 127 169 224 276 339 412
#     4  10  18  33  62  87 121 164 221 257 317 387
#     4  10  21  38  61  97 123 177 224 273 328 407
#     4  12  24  40  66 100 138 166 214 274 336 392
#
# _framework density 22.948739
#
# number of rings (size 3 to 8) (size 9 to 14) (size 15 to 20)
#    0.000    1.714    3.571    3.000    4.000    0.571 
#    0.000    0.000    1.571    1.714  133.714    0.000 
#    0.000    0.000    0.000    0.000    0.000    0.000 
#
# Total GULP energy -156204.287866 kJ/mol
# GULP energy per Si atom -5578.724567 kJ/mol
# Density = 2.289651 g / cm^3
# Si number density = 22.948739 Si / 1000 Ang^3
#
#
#
# Elastic Constant Matrix: (Units=GPa)
#
#
# Indices 1 2 3 4 5 6 
#
# 1 176.5597 17.7942 41.5788 0.0003 0.0004 -0.0003
# 2 17.7942 54.1420 9.5323 0.0002 0.0003 -0.0001
# 3 41.5788 9.5323 127.7886 0.0018 0.0006 -0.0008
# 4 0.0003 0.0002 0.0018 37.4605 0.0003 -0.0002
# 5 0.0004 0.0003 0.0006 0.0003 55.8101 -0.0001
# 6 -0.0003 -0.0001 -0.0008 -0.0002 -0.0001 13.3294
#
#
#
# Elastic Compliance Matrix: (Units=1/GPa)
#
#
# Indices 1 2 3 4 5 6 
#
# 1 0.006290 -0.001730 -0.001917 0.000000 0.000000 0.000000
# 2 -0.001730 0.019191 -0.000869 0.000000 0.000000 0.000000
# 3 -0.001917 -0.000869 0.008514 0.000000 0.000000 0.000000
# 4 0.000000 0.000000 0.000000 0.026695 0.000000 0.000000
# 5 0.000000 0.000000 0.000000 0.000000 0.017918 0.000000
# 6 0.000000 0.000000 0.000000 0.000000 0.000000 0.075022
#
#
# Mechanical properties :
#
#
# Convention : Reuss Voigt Hill
#
# Bulk Modulus (GPa) = 40.05857 55.14456 47.60156
# Shear Modulus (GPa) = 29.24266 40.62565 34.93416
#
# Velocity S-wave (km/s) = 3.57355 4.21203 3.90586
# Velocity P-wave (km/s) = 5.87542 6.90917 6.41316
#
# Compressibility (1/GPa) = 0.02496345
#
# Stress axis : x y z
#
# Youngs Moduli (GPa) = 158.99090 52.10685 117.45197
#
# Poissons Ratio (x) = 0.09012 0.22521
# Poissons Ratio (y) = 0.27498 0.10204
# Poissons Ratio (z) = 0.30486 0.04527
#
# Static dielectric constant tensor:
#      x y z
#    x 1.908340 0.000000 0.000000 
#    y 0.000000 1.865870 0.000000 
#    z 0.000000 0.000000 1.467230 
# 
# From -- ./inp_files/7768.got.cif
#   From: 2010.05.17/outbox.cif.g08.bks.cpg/sg24_4_cif.got.tgz:7768.got - 2010.06.04 00:33:39.
