data_PCOD9333176
_publ_section_title
;
Structure prediction by ZEFSAII (Michael W. Deem and Ramdas Pophale) SiO2 
 PCOD9333176
Probable space group: I 21 21 21
;
_chemical_formula_sum "Si O2"
_cell_formula_units_Z 56
_cell_length_a 18.319223
_cell_length_b 11.136925
_cell_length_c 12.027591
_cell_angle_alpha 90.000000
_cell_angle_beta 90.000000
_cell_angle_gamma 90.000000
_cell_volume 2453.866862
_symmetry_space_group_name_H-M "I 21 21 21"
_symmetry_group_IT_number 24
_symmetry_cell_setting 'orthorhombic'
loop_
_space_group_symop_operation_xyz
x,y,z
-x,1/2-y,z
x,-y,1/2-z
1/2-x,y,-z
1/2+x,1/2+y,1/2+z
1/2-x,-y,1/2+z
1/2+x,1/2-y,-z
-x,1/2+y,1/2-z
loop_
_atom_site_type_symbol
_atom_site_label
_atom_site_fract_x
_atom_site_fract_y
_atom_site_fract_z
Si Si1 0.903812 0.543298 0.973905
Si Si2 0.778114 0.145946 0.239963
Si Si3 0.067033 0.592537 0.922720
Si Si4 0.914543 0.717005 0.540347
Si Si5 0.185745 0.420047 0.953048
Si Si6 0.858879 0.292805 0.705454
Si Si7 0.916907 0.762223 0.142991
O O1 0.894331 0.408633 0.016703
O O2 0.854757 0.588633 0.870813
O O3 0.985846 0.543655 0.922288
O O4 0.900121 0.641638 0.072028
O O5 0.742013 0.159314 0.118320
O O6 0.716138 0.218134 0.307774
O O7 0.855187 0.203423 0.269845
O O8 0.782290 0.000000 0.250000
O O9 0.127954 0.498408 0.885029
O O10 0.079264 0.710926 0.852143
O O11 0.083100 0.631248 0.050216
O O12 0.871033 0.829849 0.490136
O O13 0.885754 0.696880 0.667594
O O14 0.000000 0.750000 0.539541
O O15 0.250000 0.506631 0.000000
O O16 0.000000 0.750000 0.186207
#
# Coordination Sequence:
#
# PCOD9333176 Si02
#       7
#     8   8   8   8   8   8   8
#     4  10  20  37  58  87 128 175 210 258 324 408
#     4  11  21  38  63  95 126 159 214 280 337 393
#     4  10  18  35  59  90 125 162 208 262 323 399
#     4  11  21  36  57  84 124 168 215 262 324 405
#     4  11  23  38  59  88 123 161 212 271 337 389
#     4  10  21  32  56  96 125 161 205 263 341 396
#     4   9  21  39  65  91 122 165 221 266 326 391
#
# _framework density 22.821124000000001
#
# number of rings (size 3 to 8) (size 9 to 14) (size 15 to 20)
#    0.000    1.714    2.857    3.429    0.000    1.714 
#    2.571    0.714    0.000    0.000    0.000    0.000 
#    0.000    0.000    0.000    0.000    0.000    0.000 
#
# Total GULP energy -155997.384579 kJ/mol
# GULP energy per Si atom -5571.335164 kJ/mol
# Density = 2.276918 g / cm^3
# Si number density = 22.821124 Si / 1000 Ang^3
#
#
#
# Elastic Constant Matrix: (Units=GPa)
#
#
# Indices 1 2 3 4 5 6 
#
# 1 160.5190 41.5226 37.6480 0.0000 0.0000 0.0000
# 2 41.5226 101.8443 2.7788 0.0000 0.0000 0.0000
# 3 37.6480 2.7788 42.4100 0.0000 0.0000 0.0000
# 4 0.0000 0.0000 0.0000 8.7653 0.0000 0.0000
# 5 0.0000 0.0000 0.0000 0.0000 30.2315 0.0000
# 6 0.0000 0.0000 0.0000 0.0000 0.0000 37.4768
#
#
#
# Elastic Compliance Matrix: (Units=1/GPa)
#
#
# Indices 1 2 3 4 5 6 
#
# 1 0.008921 -0.003427 -0.007695 0.000000 0.000000 0.000000
# 2 -0.003427 0.011153 0.002312 0.000000 0.000000 0.000000
# 3 -0.007695 0.002312 0.030259 0.000000 0.000000 0.000000
# 4 0.000000 0.000000 0.000000 0.114086 0.000000 0.000000
# 5 0.000000 0.000000 0.000000 0.000000 0.033078 0.000000
# 6 0.000000 0.000000 0.000000 0.000000 0.000000 0.026683
#
#
# Mechanical properties :
#
#
# Convention : Reuss Voigt Hill
#
# Bulk Modulus (GPa) = 30.56973 52.07467 41.32220
# Shear Modulus (GPa) = 19.78590 30.14965 24.96778
#
# Velocity S-wave (km/s) = 2.94768 3.63868 3.31125
# Velocity P-wave (km/s) = 5.00095 6.36565 5.72412
#
# Compressibility (1/GPa) = 0.03271210
#
# Stress axis : x y z
#
# Youngs Moduli (GPa) = 112.09404 89.66086 33.04831
#
# Poissons Ratio (x) = 0.30729 0.25430
# Poissons Ratio (y) = 0.38417 -0.07640
# Poissons Ratio (z) = 0.86254 -0.20726
#
# Static dielectric constant tensor:
#      x y z
#    x 1.868380 0.000000 0.000000 
#    y 0.000000 1.940930 0.000000 
#    z 0.000000 0.000000 2.196020 
# 
# From -- ./inp_files/26499.got.cif
#   From: 2010.05.17/outbox.cif.g08.bks.cpg/sg24_14_cif.got.tgz:26499.got - 2010.06.04 00:33:39.
