data_PCOD9333707
_publ_section_title
;
Structure prediction by ZEFSAII (Michael W. Deem and Ramdas Pophale) SiO2 
 PCOD9333707
Probable space group: I 21 21 21
;
_chemical_formula_sum "Si O2"
_cell_formula_units_Z 56
_cell_length_a 5.356328
_cell_length_b 31.201793
_cell_length_c 15.967182
_cell_angle_alpha 90.000000
_cell_angle_beta 90.000000
_cell_angle_gamma 90.000000
_cell_volume 2668.547825
_symmetry_space_group_name_H-M "I 21 21 21"
_symmetry_group_IT_number 24
_symmetry_cell_setting 'orthorhombic'
loop_
_space_group_symop_operation_xyz
x,y,z
-x,1/2-y,z
x,-y,1/2-z
1/2-x,y,-z
1/2+x,1/2+y,1/2+z
1/2-x,-y,1/2+z
1/2+x,1/2-y,-z
-x,1/2+y,1/2-z
loop_
_atom_site_type_symbol
_atom_site_label
_atom_site_fract_x
_atom_site_fract_y
_atom_site_fract_z
Si Si1 0.507208 0.590952 0.051414
Si Si2 0.129930 0.658911 0.408978
Si Si3 0.046012 0.900647 0.273863
Si Si4 0.778043 0.666166 0.144203
Si Si5 0.911473 0.206764 0.777826
Si Si6 0.547661 0.950146 0.229062
Si Si7 0.000000 0.250000 0.052152
Si Si8 0.500000 0.750000 0.843958
O O1 0.603975 0.636915 0.086362
O O2 0.458520 0.560291 0.130159
O O3 0.250000 0.595197 0.000000
O O4 0.750000 0.574901 0.000000
O O5 0.250000 0.650358 0.500000
O O6 0.345698 0.670320 0.343098
O O7 0.977856 0.703843 0.404580
O O8 0.972352 0.622453 0.363731
O O9 0.041435 0.866310 0.195966
O O10 0.304147 0.925971 0.264771
O O11 0.804339 0.930334 0.263660
O O12 0.613026 0.686955 0.216989
O O13 0.897174 0.709088 0.104656
O O14 0.694039 0.225606 0.717943
O O15 0.000000 0.250000 0.823915
O O16 0.534050 0.000000 0.250000
O O17 0.250000 0.255392 0.000000
#
# Coordination Sequence:
#
# PCOD9333707 Si02
#       8
#     8   8   8   8   8   8   4   4
#     4  11  24  42  73 105 133 166 214 273 335 395
#     4  11  23  37  57  90 137 184 235 282 329 375
#     4  11  23  41  69 100 129 175 225 276 334 397
#     4  10  22  38  66  91 133 175 231 272 325 392
#     4  10  21  36  56  85 124 183 242 282 318 368
#     4  11  25  49  77 102 131 167 215 268 341 434
#     4  10  25  38  52  78 126 185 228 272 315 364
#     4  10  19  36  64  88 126 185 242 278 315 380
#
# _framework density 20.985195000000001
#
# number of rings (size 3 to 8) (size 9 to 14) (size 15 to 20)
#    0.000    1.429    1.429    4.286    8.000    2.286 
#    0.000    2.143    4.714    0.000    0.000    0.000 
#    0.000    0.000    0.000    0.000    0.000    0.000 
#
# Total GULP energy -156345.093480 kJ/mol
# GULP energy per Si atom -5583.753339 kJ/mol
# Density = 2.093743 g / cm^3
# Si number density = 20.985195 Si / 1000 Ang^3
#
#
#
# Elastic Constant Matrix: (Units=GPa)
#
#
# Indices 1 2 3 4 5 6 
#
# 1 110.0307 59.6136 40.6246 0.0000 0.0000 0.0000
# 2 59.6136 155.7088 54.9701 0.0000 0.0000 0.0000
# 3 40.6246 54.9701 93.8978 0.0000 0.0000 0.0000
# 4 0.0000 0.0000 0.0000 14.6735 0.0000 0.0000
# 5 0.0000 0.0000 0.0000 0.0000 20.2335 0.0000
# 6 0.0000 0.0000 0.0000 0.0000 0.0000 33.1011
#
#
#
# Elastic Compliance Matrix: (Units=1/GPa)
#
#
# Indices 1 2 3 4 5 6 
#
# 1 0.012186 -0.003535 -0.003203 0.000000 0.000000 0.000000
# 2 -0.003535 0.009121 -0.003810 0.000000 0.000000 0.000000
# 3 -0.003203 -0.003810 0.014266 0.000000 0.000000 0.000000
# 4 0.000000 0.000000 0.000000 0.068150 0.000000 0.000000
# 5 0.000000 0.000000 0.000000 0.000000 0.049423 0.000000
# 6 0.000000 0.000000 0.000000 0.000000 0.000000 0.030210
#
#
# Mechanical properties :
#
#
# Convention : Reuss Voigt Hill
#
# Bulk Modulus (GPa) = 69.07412 74.45045 71.76228
# Shear Modulus (GPa) = 23.89170 27.23022 25.56096
#
# Velocity S-wave (km/s) = 3.37783 3.60612 3.49384
# Velocity P-wave (km/s) = 6.94263 7.27279 7.10962
#
# Compressibility (1/GPa) = 0.01447720
#
# Stress axis : x y z
#
# Youngs Moduli (GPa) = 82.06134 109.64162 70.09583
#
# Poissons Ratio (x) = 0.38755 0.22451
# Poissons Ratio (y) = 0.29006 0.26708
# Poissons Ratio (z) = 0.26284 0.41775
#
# Static dielectric constant tensor:
#      x y z
#    x 1.985120 0.000000 0.000000 
#    y 0.000000 1.779050 0.000000 
#    z 0.000000 0.000000 1.791400 
# 
# From -- ./inp_files/24092.got.cif
#   From: 2010.05.17/outbox.cif.g08.bks.cpg/sg24_13_cif.got.tgz:24092.got - 2010.06.04 00:33:39.
