data_PCOD9333917
_publ_section_title
;
Structure prediction by ZEFSAII (Michael W. Deem and Ramdas Pophale) SiO2 
 PCOD9333917
Probable space group: I 21 21 21
;
_chemical_formula_sum "Si O2"
_cell_formula_units_Z 52
_cell_length_a 16.742610
_cell_length_b 9.904712
_cell_length_c 16.012324
_cell_angle_alpha 90.000000
_cell_angle_beta 90.000000
_cell_angle_gamma 90.000000
_cell_volume 2655.335381
_symmetry_space_group_name_H-M "I 21 21 21"
_symmetry_group_IT_number 24
_symmetry_cell_setting 'orthorhombic'
loop_
_space_group_symop_operation_xyz
x,y,z
-x,1/2-y,z
x,-y,1/2-z
1/2-x,y,-z
1/2+x,1/2+y,1/2+z
1/2-x,-y,1/2+z
1/2+x,1/2-y,-z
-x,1/2+y,1/2-z
loop_
_atom_site_type_symbol
_atom_site_label
_atom_site_fract_x
_atom_site_fract_y
_atom_site_fract_z
Si Si1 0.190755 0.498964 0.921208
Si Si2 0.500000 0.750000 0.286242
Si Si3 0.629722 0.736369 0.148269
Si Si4 0.407965 0.712909 0.509000
Si Si5 0.660149 0.906120 0.676592
Si Si6 0.763372 0.641106 0.269604
Si Si7 0.382529 0.932183 0.393490
O O1 0.146437 0.640412 0.912621
O O2 0.252146 0.466816 0.846469
O O3 0.250000 0.499178 0.000000
O O4 0.126306 0.380766 0.934273
O O5 0.570308 0.788134 0.221049
O O6 0.457049 0.862875 0.343746
O O7 0.712600 0.697476 0.192437
O O8 0.603136 0.593239 0.108227
O O9 0.500000 0.750000 0.512063
O O10 0.386493 0.624796 0.590574
O O11 0.371007 0.859243 0.483175
O O12 0.675842 0.755546 0.707159
O O13 0.625412 0.000000 0.750000
O O14 0.804223 0.500000 0.250000
O O15 0.696089 0.605445 0.339304
#
# Coordination Sequence:
#
# PCOD9333917 Si02
#       7
#     8   4   8   8   8   8   8
#     4  10  22  40  62  90 123 165 212 271 327 382
#     4  10  20  32  58  90 132 172 202 244 314 396
#     4  10  21  35  56  90 128 166 209 251 319 380
#     4  11  24  40  62  89 127 168 210 262 327 389
#     4  11  21  41  66  90 117 166 221 270 314 380
#     4   9  18  35  57  88 119 154 208 259 304 369
#     4  10  20  36  55  89 131 165 204 250 318 394
#
# _framework density 19.583214000000002
#
# number of rings (size 3 to 8) (size 9 to 14) (size 15 to 20)
#    0.000    1.846    3.846    1.385    2.154    1.231 
#    5.538    0.769    0.000    0.000    0.000    0.000 
#    0.000    0.000    0.000    0.000    0.000    0.000 
#
# Total GULP energy -144790.518719 kJ/mol
# GULP energy per Si atom -5568.866105 kJ/mol
# Density = 1.953864 g / cm^3
# Si number density = 19.583214 Si / 1000 Ang^3
#
#
#
# Elastic Constant Matrix: (Units=GPa)
#
#
# Indices 1 2 3 4 5 6 
#
# 1 47.1502 31.1294 12.9406 0.0000 0.0000 0.0000
# 2 31.1294 121.9984 26.4782 0.0000 0.0000 0.0000
# 3 12.9406 26.4782 62.7913 0.0000 0.0000 0.0000
# 4 0.0000 0.0000 0.0000 10.1343 0.0000 0.0000
# 5 0.0000 0.0000 0.0000 0.0000 6.8449 0.0000
# 6 0.0000 0.0000 0.0000 0.0000 0.0000 11.5983
#
#
#
# Elastic Compliance Matrix: (Units=1/GPa)
#
#
# Indices 1 2 3 4 5 6 
#
# 1 0.025949 -0.006011 -0.002813 0.000000 0.000000 0.000000
# 2 -0.006011 0.010415 -0.003153 0.000000 0.000000 0.000000
# 3 -0.002813 -0.003153 0.017835 0.000000 0.000000 0.000000
# 4 0.000000 0.000000 0.000000 0.098674 0.000000 0.000000
# 5 0.000000 0.000000 0.000000 0.000000 0.146093 0.000000
# 6 0.000000 0.000000 0.000000 0.000000 0.000000 0.086220
#
#
# Mechanical properties :
#
#
# Convention : Reuss Voigt Hill
#
# Bulk Modulus (GPa) = 33.06296 41.44847 37.25572
# Shear Modulus (GPa) = 11.92684 16.47496 14.20090
#
# Velocity S-wave (km/s) = 2.47054 2.90363 2.69580
# Velocity P-wave (km/s) = 5.00580 5.69672 5.36240
#
# Compressibility (1/GPa) = 0.03024532
#
# Stress axis : x y z
#
# Youngs Moduli (GPa) = 38.53668 96.01657 56.06903
#
# Poissons Ratio (x) = 0.57713 0.15774
# Poissons Ratio (y) = 0.23163 0.17679
# Poissons Ratio (z) = 0.10841 0.30275
#
# Static dielectric constant tensor:
#      x y z
#    x 1.703340 0.000000 0.000000 
#    y 0.000000 1.701150 0.000000 
#    z 0.000000 0.000000 1.965560 
# 
# From -- ./inp_files/31132.got.cif
#   From: 2010.05.17/outbox.cif.g08.bks.cpg/sg24_16_cif.got.tgz:31132.got - 2010.06.04 00:33:39.
