data_PCOD9333077
_publ_section_title
;
Structure prediction by ZEFSAII (Michael W. Deem and Ramdas Pophale) SiO2 
 PCOD9333077
Probable space group: I 21 21 21
;
_chemical_formula_sum "Si O2"
_cell_formula_units_Z 48
_cell_length_a 5.409640
_cell_length_b 17.136340
_cell_length_c 23.147266
_cell_angle_alpha 90.000000
_cell_angle_beta 90.000000
_cell_angle_gamma 90.000000
_cell_volume 2145.784666
_symmetry_space_group_name_H-M "I 21 21 21"
_symmetry_group_IT_number 24
_symmetry_cell_setting 'orthorhombic'
loop_
_space_group_symop_operation_xyz
x,y,z
-x,1/2-y,z
x,-y,1/2-z
1/2-x,y,-z
1/2+x,1/2+y,1/2+z
1/2-x,-y,1/2+z
1/2+x,1/2-y,-z
-x,1/2+y,1/2-z
loop_
_atom_site_type_symbol
_atom_site_label
_atom_site_fract_x
_atom_site_fract_y
_atom_site_fract_z
Si Si1 0.750000 0.603875 0.000000
Si Si2 0.758798 0.296111 0.909735
Si Si3 0.269712 0.032007 0.905291
Si Si4 0.733633 0.974748 0.123074
Si Si5 0.896535 0.669494 0.724303
Si Si6 0.389225 0.409256 0.736159
Si Si7 0.750000 0.889357 0.000000
O O1 0.773217 0.542617 0.052731
O O2 0.505843 0.654004 0.999353
O O3 0.500000 0.250000 0.917241
O O4 0.758875 0.383937 0.934151
O O5 0.809191 0.311063 0.841162
O O6 0.000000 0.250000 0.931905
O O7 0.535534 0.033898 0.874865
O O8 0.031895 0.013704 0.865933
O O9 0.800487 0.908703 0.169253
O O10 0.728784 0.942787 0.057431
O O11 0.647817 0.635478 0.753625
O O12 0.000000 0.750000 0.751015
O O13 0.146846 0.618280 0.728521
O O14 0.433255 0.500000 0.750000
#
# Coordination Sequence:
#
# PCOD9333077 Si02
#       7
#     4   8   8   8   8   8   4
#     4   8  16  28  48  67  96 135 166 204 266 316
#     4  11  21  34  50  68  94 139 184 214 249 311
#     4  10  18  33  49  72 102 134 169 217 267 312
#     4  10  19  32  53  78 105 132 166 217 273 317
#     4  11  23  39  54  75 112 151 180 213 271 341
#     4  12  22  35  57  87 111 139 183 235 271 306
#     4   8  16  30  48  73 102 133 164 200 264 334
#
# _framework density 22.369439
#
# number of rings (size 3 to 8) (size 9 to 14) (size 15 to 20)
#    0.000    1.667    0.000    7.000    0.000    0.000 
#    0.000    0.833    0.000    0.000    0.000    2.333 
#    0.000    1.333    0.000    0.000    0.000    0.000 
#
# Total GULP energy -133738.949728 kJ/mol
# GULP energy per Si atom -5572.456239 kJ/mol
# Density = 2.231852 g / cm^3
# Si number density = 22.369439 Si / 1000 Ang^3
#
#
#
# Elastic Constant Matrix: (Units=GPa)
#
#
# Indices 1 2 3 4 5 6 
#
# 1 245.9259 48.0039 16.4348 0.0000 0.0000 0.0000
# 2 48.0039 79.0955 18.7772 0.0000 0.0000 0.0000
# 3 16.4348 18.7772 76.1753 0.0000 0.0000 0.0000
# 4 0.0000 0.0000 0.0000 -29.2716 0.0000 0.0000
# 5 0.0000 0.0000 0.0000 0.0000 3.3567 0.0000
# 6 0.0000 0.0000 0.0000 0.0000 0.0000 40.0470
#
#
#
# Elastic Compliance Matrix: (Units=1/GPa)
#
#
# Indices 1 2 3 4 5 6 
#
# 1 0.004620 -0.002727 -0.000325 0.000000 0.000000 0.000000
# 2 -0.002727 0.015038 -0.003119 0.000000 0.000000 0.000000
# 3 -0.000325 -0.003119 0.013966 0.000000 0.000000 0.000000
# 4 0.000000 0.000000 0.000000 -0.034163 0.000000 0.000000
# 5 0.000000 0.000000 0.000000 0.000000 0.297911 0.000000
# 6 0.000000 0.000000 0.000000 0.000000 0.000000 0.024971
#
#
# Mechanical properties :
#
#
# Convention : Reuss Voigt Hill
#
# Bulk Modulus (GPa) = 46.98246 63.06982 55.02614
# Shear Modulus (GPa) = 14.62933 24.02516 19.32725
#
# Velocity S-wave (km/s) = 2.56009 3.28078 2.94258
# Velocity P-wave (km/s) = 5.45778 6.52742 6.01641
#
# Compressibility (1/GPa) = 0.02128454
#
# Stress axis : x y z
#
# Youngs Moduli (GPa) = 216.43789 66.49663 71.60051
#
# Poissons Ratio (x) = 0.18134 0.02324
# Poissons Ratio (y) = 0.59023 0.22329
# Poissons Ratio (z) = 0.07026 0.20738
#
# Static dielectric constant tensor:
#      x y z
#    x 1.909570 0.000000 0.000000 
#    y 0.000000 1.800610 0.000000 
#    z 0.000000 0.000000 1.836120 
# 
# From -- ./inp_files/36481.got.cif
#   From: 2010.05.17/outbox.cif.g08.bks.cpg/sg24_19_cif.got.tgz:36481.got - 2010.06.04 00:33:39.
