data_PCOD9333720
_publ_section_title
;
Structure prediction by ZEFSAII (Michael W. Deem and Ramdas Pophale) SiO2 
 PCOD9333720
Probable space group: I 21 21 21
;
_chemical_formula_sum "Si O2"
_cell_formula_units_Z 48
_cell_length_a 14.006157
_cell_length_b 5.796442
_cell_length_c 27.957421
_cell_angle_alpha 90.000000
_cell_angle_beta 90.000000
_cell_angle_gamma 90.000000
_cell_volume 2269.747734
_symmetry_space_group_name_H-M "I 21 21 21"
_symmetry_group_IT_number 24
_symmetry_cell_setting 'orthorhombic'
loop_
_space_group_symop_operation_xyz
x,y,z
-x,1/2-y,z
x,-y,1/2-z
1/2-x,y,-z
1/2+x,1/2+y,1/2+z
1/2-x,-y,1/2+z
1/2+x,1/2-y,-z
-x,1/2+y,1/2-z
loop_
_atom_site_type_symbol
_atom_site_label
_atom_site_fract_x
_atom_site_fract_y
_atom_site_fract_z
Si Si1 0.223756 0.913770 0.132837
Si Si2 0.365132 0.657397 0.496066
Si Si3 0.151532 0.166550 0.469685
Si Si4 0.782042 0.978094 0.800820
Si Si5 0.891443 0.329665 0.204759
Si Si6 0.389859 0.265652 0.115062
O O1 0.182446 0.799234 0.085415
O O2 0.252056 0.768521 0.179534
O O3 0.137128 0.063943 0.153658
O O4 0.320427 0.043739 0.117153
O O5 0.250000 0.652778 0.500000
O O6 0.399195 0.408211 0.516201
O O7 0.388631 0.656444 0.439899
O O8 0.392159 0.907997 0.519807
O O9 0.250000 0.159658 0.500000
O O10 0.686869 0.128285 0.792432
O O11 0.840692 0.074100 0.845575
O O12 0.834822 0.000000 0.750000
O O13 0.880785 0.500000 0.250000
O O14 0.000000 0.250000 0.204970
O O15 0.500000 0.250000 0.128894
#
# Coordination Sequence:
#
# PCOD9333720 Si02
#       6
#     8   8   8   8   8   8
#     4  11  23  42  70  99 137 185 230 285 360 420
#     4  10  19  39  67  95 126 179 226 289 351 410
#     4  10  19  36  69  95 130 176 224 284 346 414
#     4  11  23  44  68  98 135 181 231 290 351 423
#     4  11  24  42  70 102 137 177 227 287 365 442
#     4  11  25  43  67  99 139 187 242 289 348 416
#
# _framework density 21.147722999999999
#
# number of rings (size 3 to 8) (size 9 to 14) (size 15 to 20)
#    0.000    1.333    5.000    2.500    2.333    0.667 
#    3.000    0.833    3.667    0.000    0.000    0.000 
#    0.000    0.000    0.000    0.000    0.000    0.000 
#
# Total GULP energy -133740.379682 kJ/mol
# GULP energy per Si atom -5572.515820 kJ/mol
# Density = 2.109959 g / cm^3
# Si number density = 21.147723 Si / 1000 Ang^3
#
#
#
# Elastic Constant Matrix: (Units=GPa)
#
#
# Indices 1 2 3 4 5 6 
#
# 1 100.9566 24.4026 19.7845 0.0000 0.0000 0.0000
# 2 24.4026 116.9962 30.2697 0.0000 0.0000 0.0000
# 3 19.7845 30.2697 116.7780 0.0000 0.0000 0.0000
# 4 0.0000 0.0000 0.0000 21.6319 0.0000 0.0000
# 5 0.0000 0.0000 0.0000 0.0000 101.1487 0.0000
# 6 0.0000 0.0000 0.0000 0.0000 0.0000 55.2683
#
#
#
# Elastic Compliance Matrix: (Units=1/GPa)
#
#
# Indices 1 2 3 4 5 6 
#
# 1 0.010616 -0.001875 -0.001313 0.000000 0.000000 0.000000
# 2 -0.001875 0.009493 -0.002143 0.000000 0.000000 0.000000
# 3 -0.001313 -0.002143 0.009341 0.000000 0.000000 0.000000
# 4 0.000000 0.000000 0.000000 0.046228 0.000000 0.000000
# 5 0.000000 0.000000 0.000000 0.000000 0.009886 0.000000
# 6 0.000000 0.000000 0.000000 0.000000 0.000000 0.018094
#
#
# Mechanical properties :
#
#
# Convention : Reuss Voigt Hill
#
# Bulk Modulus (GPa) = 53.22226 53.73826 53.48026
# Shear Modulus (GPa) = 41.46601 52.96139 47.21370
#
# Velocity S-wave (km/s) = 4.43287 5.00978 4.73013
# Velocity P-wave (km/s) = 7.17091 7.67658 7.42805
#
# Compressibility (1/GPa) = 0.01878913
#
# Stress axis : x y z
#
# Youngs Moduli (GPa) = 94.20120 105.34389 107.05360
#
# Poissons Ratio (x) = 0.19747 0.14052
# Poissons Ratio (y) = 0.17659 0.22942
# Poissons Ratio (z) = 0.12365 0.22575
#
# Static dielectric constant tensor:
#      x y z
#    x 1.742180 0.000000 0.000000 
#    y 0.000000 1.879750 0.000000 
#    z 0.000000 0.000000 1.811830 
# 
# From -- ./inp_files/23909.got.cif
#   From: 2010.05.17/outbox.cif.g08.bks.cpg/sg24_12_cif.got.tgz:23909.got - 2010.06.04 00:33:39.
