data_PCOD9333480
_publ_section_title
;
Structure prediction by ZEFSAII (Michael W. Deem and Ramdas Pophale) SiO2 
 PCOD9333480
Probable space group: I 21 21 21
;
_chemical_formula_sum "Si O2"
_cell_formula_units_Z 36
_cell_length_a 13.739737
_cell_length_b 5.166231
_cell_length_c 24.351125
_cell_angle_alpha 90.000000
_cell_angle_beta 90.000000
_cell_angle_gamma 90.000000
_cell_volume 1728.507510
_symmetry_space_group_name_H-M "I 21 21 21"
_symmetry_group_IT_number 24
_symmetry_cell_setting 'orthorhombic'
loop_
_space_group_symop_operation_xyz
x,y,z
-x,1/2-y,z
x,-y,1/2-z
1/2-x,y,-z
1/2+x,1/2+y,1/2+z
1/2-x,-y,1/2+z
1/2+x,1/2-y,-z
-x,1/2+y,1/2-z
loop_
_atom_site_type_symbol
_atom_site_label
_atom_site_fract_x
_atom_site_fract_y
_atom_site_fract_z
Si Si1 0.148448 0.306797 0.073881
Si Si2 0.623252 0.153494 0.049000
Si Si3 0.563606 0.500000 0.750000
Si Si4 0.598085 0.341005 0.381846
Si Si5 0.673897 0.309472 0.643047
O O1 0.261488 0.321418 0.057490
O O2 0.136848 0.537888 0.117851
O O3 0.135454 0.030796 0.101931
O O4 0.098006 0.326885 0.014915
O O5 0.587201 0.381077 0.089411
O O6 0.600169 0.868938 0.069775
O O7 0.500000 0.250000 0.768768
O O8 0.629453 0.382703 0.701473
O O9 0.500000 0.250000 0.349194
O O10 0.706664 0.320561 0.355305
#
# Coordination Sequence:
#
# PCOD9333480 Si02
#       5
#     8   8   4   8   8
#     4   9  17  33  56  82 113 153 192 228 276 335
#     4   9  17  30  52  82 119 157 188 218 264 334
#     4  12  26  46  66  84 108 146 202 262 312 346
#     4  10  19  33  55  86 121 155 185 223 283 357
#     4  10  21  38  61  82 111 151 193 245 298 342
#
# _framework density 20.827217999999998
#
# number of rings (size 3 to 8) (size 9 to 14) (size 15 to 20)
#    0.000    2.222    0.000    3.333    0.000    5.333 
#    0.000   11.111    0.000    9.333    0.000    0.000 
#    0.000    0.000    0.000    0.000    0.000    0.000 
#
# Total GULP energy -100329.414469 kJ/mol
# GULP energy per Si atom -5573.856359 kJ/mol
# Density = 2.077981 g / cm^3
# Si number density = 20.827218 Si / 1000 Ang^3
#
#
#
# Elastic Constant Matrix: (Units=GPa)
#
#
# Indices 1 2 3 4 5 6 
#
# 1 114.8110 42.4596 45.8015 0.0000 0.0000 0.0000
# 2 42.4596 98.0016 -0.5421 0.0000 0.0000 0.0000
# 3 45.8015 -0.5421 69.4969 0.0000 0.0000 0.0000
# 4 0.0000 0.0000 0.0000 -22.5568 0.0000 0.0000
# 5 0.0000 0.0000 0.0000 0.0000 164.0728 0.0000
# 6 0.0000 0.0000 0.0000 0.0000 0.0000 19.1423
#
#
#
# Elastic Compliance Matrix: (Units=1/GPa)
#
#
# Indices 1 2 3 4 5 6 
#
# 1 0.015170 -0.006628 -0.010050 0.000000 0.000000 0.000000
# 2 -0.006628 0.013100 0.004470 0.000000 0.000000 0.000000
# 3 -0.010050 0.004470 0.021047 0.000000 0.000000 0.000000
# 4 0.000000 0.000000 0.000000 -0.044333 0.000000 0.000000
# 5 0.000000 0.000000 0.000000 0.000000 0.006095 0.000000
# 6 0.000000 0.000000 0.000000 0.000000 0.000000 0.052240
#
#
# Mechanical properties :
#
#
# Convention : Reuss Voigt Hill
#
# Bulk Modulus (GPa) = 40.15563 50.86081 45.50822
# Shear Modulus (GPa) = 52.06378 45.10437 48.58408
#
# Velocity S-wave (km/s) = 5.00522 4.65870 4.83506
# Velocity P-wave (km/s) = 7.26121 7.30831 7.28480
#
# Compressibility (1/GPa) = 0.02490311
#
# Stress axis : x y z
#
# Youngs Moduli (GPa) = 65.91838 76.33397 47.51248
#
# Poissons Ratio (x) = 0.50595 0.47748
# Poissons Ratio (y) = 0.43692 -0.21240
# Poissons Ratio (z) = 0.66245 -0.34125
#
# Static dielectric constant tensor:
#      x y z
#    x 2.103660 0.000000 0.000000 
#    y 0.000000 1.726360 0.000000 
#    z 0.000000 0.000000 1.708930 
# 
# From -- ./inp_files/33565.got.cif
#   From: 2010.05.17/outbox.cif.g08.bks.cpg/sg24_17_cif.got.tgz:33565.got - 2010.06.04 00:33:39.
