data_PCOD9333784
_publ_section_title
;
Structure prediction by ZEFSAII (Michael W. Deem and Ramdas Pophale) SiO2 
 PCOD9333784
Probable space group: I 21 21 21
;
_chemical_formula_sum "Si O2"
_cell_formula_units_Z 32
_cell_length_a 10.583176
_cell_length_b 20.066131
_cell_length_c 7.596986
_cell_angle_alpha 90.000000
_cell_angle_beta 90.000000
_cell_angle_gamma 90.000000
_cell_volume 1613.321746
_symmetry_space_group_name_H-M "I 21 21 21"
_symmetry_group_IT_number 24
_symmetry_cell_setting 'orthorhombic'
loop_
_space_group_symop_operation_xyz
x,y,z
-x,1/2-y,z
x,-y,1/2-z
1/2-x,y,-z
1/2+x,1/2+y,1/2+z
1/2-x,-y,1/2+z
1/2+x,1/2-y,-z
-x,1/2+y,1/2-z
loop_
_atom_site_type_symbol
_atom_site_label
_atom_site_fract_x
_atom_site_fract_y
_atom_site_fract_z
Si Si1 0.504140 0.327922 0.166982
Si Si2 0.250000 0.109989 0.000000
Si Si3 0.638264 0.500000 0.750000
Si Si4 0.998034 0.450024 0.596610
Si Si5 0.244430 0.500000 0.750000
Si Si6 0.750000 0.887957 0.500000
O O1 0.500000 0.250000 0.204937
O O2 0.518876 0.374992 0.338225
O O3 0.626030 0.347092 0.048598
O O4 0.371023 0.349135 0.075600
O O5 0.287338 0.061192 0.839222
O O6 0.559243 0.469136 0.588661
O O7 0.947640 0.500000 0.750000
O O8 0.145453 0.467574 0.609956
O O9 0.303836 0.563399 0.654314
#
# Coordination Sequence:
#
# PCOD9333784 Si02
#       6
#     8   4   4   8   4   4
#     4  11  23  41  61  94 138 174 209 264 325 401
#     4  12  23  36  66 102 125 172 216 270 331 366
#     4  12  20  40  72 100 132 160 226 284 320 378
#     4   9  19  41  64  98 126 167 218 270 319 374
#     4   8  18  34  60  96 126 164 226 268 310 366
#     4  10  19  38  62  88 129 176 218 264 323 370
#
# _framework density 19.834852999999999
#
# number of rings (size 3 to 8) (size 9 to 14) (size 15 to 20)
#    0.750    1.000    2.500    2.250    0.000    4.000 
#    0.000    1.250    0.000   18.000    0.000    0.000 
#    0.000    0.000    0.000    0.000    0.000    0.000 
#
# Total GULP energy -89185.950532 kJ/mol
# GULP energy per Si atom -5574.121908 kJ/mol
# Density = 1.978971 g / cm^3
# Si number density = 19.834853 Si / 1000 Ang^3
#
#
#
# Elastic Constant Matrix: (Units=GPa)
#
#
# Indices 1 2 3 4 5 6 
#
# 1 96.0570 58.8466 54.6199 0.0000 0.0000 -0.0030
# 2 58.8466 188.4105 68.5942 0.0000 0.0000 0.0007
# 3 54.6199 68.5942 124.6584 0.0001 -0.0002 0.0055
# 4 0.0000 0.0000 0.0001 30.8093 0.0000 0.0032
# 5 0.0000 0.0000 -0.0002 0.0000 36.6139 0.0132
# 6 -0.0030 0.0007 0.0055 0.0032 0.0132-1577.9551
#
#
#
# Elastic Compliance Matrix: (Units=1/GPa)
#
#
# Indices 1 2 3 4 5 6 
#
# 1 0.015010 -0.002868 -0.004998 0.000000 0.000000 0.000000
# 2 -0.002868 0.007185 -0.002697 0.000000 0.000000 0.000000
# 3 -0.004998 -0.002697 0.011696 0.000000 0.000000 0.000000
# 4 0.000000 0.000000 0.000000 0.032458 0.000000 0.000000
# 5 0.000000 0.000000 0.000000 0.000000 0.027312 0.000000
# 6 0.000000 0.000000 0.000000 0.000000 0.000000 -0.000634
#
#
# Mechanical properties :
#
#
# Convention : Reuss Voigt Hill
#
# Bulk Modulus (GPa) = 78.34627 85.91638 82.13132
# Shear Modulus (GPa) = 42.22646 -286.96869 -122.37112
#
# Velocity S-wave (km/s) = 4.61901 -12.04131 -7.86314
# Velocity P-wave (km/s) = 8.24815 12.24395 6.39852
#
# Compressibility (1/GPa) = 0.01276385
#
# Stress axis : x y z
#
# Youngs Moduli (GPa) = 66.62298 139.17267 85.49909
#
# Poissons Ratio (x) = 0.39919 0.42735
# Poissons Ratio (y) = 0.19110 0.23059
# Poissons Ratio (z) = 0.33300 0.37535
#
# Static dielectric constant tensor:
#      x y z
#    x 1.794180 0.000000 -0.000050 
#    y 0.000000 1.664460 0.000000 
#    z -0.000050 0.000000 18.587340 
# 
# From -- ./inp_files/10639.got.cif
#   From: 2010.05.17/outbox.cif.g08.bks.cpg/sg24_6_cif.got.tgz:10639.got - 2010.06.04 00:33:39.
