data_PCOD9333292
_publ_section_title
;
Structure prediction by ZEFSAII (Michael W. Deem and Ramdas Pophale) SiO2 
 PCOD9333292
Probable space group: I 21 21 21
;
_chemical_formula_sum "Si O2"
_cell_formula_units_Z 48
_cell_length_a 33.373645
_cell_length_b 8.674871
_cell_length_c 8.716552
_cell_angle_alpha 90.000000
_cell_angle_beta 90.000000
_cell_angle_gamma 90.000000
_cell_volume 2523.546971
_symmetry_space_group_name_H-M "I 21 21 21"
_symmetry_group_IT_number 24
_symmetry_cell_setting 'orthorhombic'
loop_
_space_group_symop_operation_xyz
x,y,z
-x,1/2-y,z
x,-y,1/2-z
1/2-x,y,-z
1/2+x,1/2+y,1/2+z
1/2-x,-y,1/2+z
1/2+x,1/2-y,-z
-x,1/2+y,1/2-z
loop_
_atom_site_type_symbol
_atom_site_label
_atom_site_fract_x
_atom_site_fract_y
_atom_site_fract_z
Si Si1 0.149047 0.825577 0.224461
Si Si2 0.483329 0.500000 0.750000
Si Si3 0.420951 0.309387 0.557552
Si Si4 0.291281 0.415533 0.585132
Si Si5 0.568627 0.177789 0.222309
Si Si6 0.362998 0.603025 0.486609
Si Si7 0.000000 0.250000 0.013915
O O1 0.106917 0.815877 0.136293
O O2 0.182503 0.734081 0.127551
O O3 0.141200 0.729068 0.379965
O O4 0.161200 0.000000 0.250000
O O5 0.456203 0.372606 0.663055
O O6 0.504806 0.401187 0.880397
O O7 0.434314 0.251460 0.390780
O O8 0.392707 0.462784 0.536604
O O9 0.285115 0.500000 0.750000
O O10 0.250000 0.383920 0.500000
O O11 0.319577 0.524036 0.478559
O O12 0.556707 0.000000 0.250000
O O13 0.614384 0.173996 0.159827
O O14 0.538989 0.238660 0.093493
#
# Coordination Sequence:
#
# PCOD9333292 Si02
#       7
#     8   4   8   8   8   8   4
#     4  10  19  35  60  89 121 162 204 245 305 374
#     4  12  22  42  60  88 118 166 216 258 320 394
#     4  10  18  39  64  80 112 159 210 261 293 369
#     4   9  19  34  60  90 120 155 204 248 297 369
#     4  10  20  39  61  85 115 152 205 272 309 354
#     4   9  17  37  62  84 114 154 208 249 297 362
#     4  12  24  40  62  86 122 164 212 258 344 372
#
# _framework density 19.020845999999999
#
# number of rings (size 3 to 8) (size 9 to 14) (size 15 to 20)
#    0.000    2.000    5.000    1.000    0.000    4.000 
#    6.000    4.167    0.000    0.000    0.000    0.000 
#    0.000    0.000    0.000    0.000    0.000    0.000 
#
# Total GULP energy -133882.655648 kJ/mol
# GULP energy per Si atom -5578.443985 kJ/mol
# Density = 1.897755 g / cm^3
# Si number density = 19.020846 Si / 1000 Ang^3
#
#
#
# Elastic Constant Matrix: (Units=GPa)
#
#
# Indices 1 2 3 4 5 6 
#
# 1 87.0315 40.7077 64.5464 0.0000 0.0000 0.0000
# 2 40.7077 58.4879 39.6108 0.0000 0.0000 0.0000
# 3 64.5464 39.6108 112.8955 0.0000 0.0000 0.0000
# 4 0.0000 0.0000 0.0000 25.9770 0.0000 0.0000
# 5 0.0000 0.0000 0.0000 0.0000 34.3193 0.0000
# 6 0.0000 0.0000 0.0000 0.0000 0.0000 9.8234
#
#
#
# Elastic Compliance Matrix: (Units=1/GPa)
#
#
# Indices 1 2 3 4 5 6 
#
# 1 0.023358 -0.009461 -0.010035 0.000000 0.000000 0.000000
# 2 -0.009461 0.026259 -0.003804 0.000000 0.000000 0.000000
# 3 -0.010035 -0.003804 0.015930 0.000000 0.000000 0.000000
# 4 0.000000 0.000000 0.000000 0.038496 0.000000 0.000000
# 5 0.000000 0.000000 0.000000 0.000000 0.029138 0.000000
# 6 0.000000 0.000000 0.000000 0.000000 0.000000 0.101797
#
#
# Mechanical properties :
#
#
# Convention : Reuss Voigt Hill
#
# Bulk Modulus (GPa) = 52.78059 60.90496 56.84278
# Shear Modulus (GPa) = 17.36760 21.59394 19.48077
#
# Velocity S-wave (km/s) = 3.02500 3.37304 3.20375
# Velocity P-wave (km/s) = 6.32534 6.87456 6.60566
#
# Compressibility (1/GPa) = 0.01894636
#
# Stress axis : x y z
#
# Youngs Moduli (GPa) = 42.81260 38.08275 62.77543
#
# Poissons Ratio (x) = 0.36029 0.62995
# Poissons Ratio (y) = 0.40504 0.23880
# Poissons Ratio (z) = 0.42962 0.14487
#
# Static dielectric constant tensor:
#      x y z
#    x 1.666900 0.000000 0.000000 
#    y 0.000000 1.665950 0.000000 
#    z 0.000000 0.000000 1.712300 
# 
# From -- ./inp_files/9795.got.cif
#   From: 2010.05.17/outbox.cif.g08.bks.cpg/sg24_5_cif.got.tgz:9795.got - 2010.06.04 00:33:39.
