data_PCOD9333061
_publ_section_title
;
Structure prediction by ZEFSAII (Michael W. Deem and Ramdas Pophale) SiO2 
 PCOD9333061
Probable space group: I 21 21 21
;
_chemical_formula_sum "Si O2"
_cell_formula_units_Z 64
_cell_length_a 9.656954
_cell_length_b 14.439764
_cell_length_c 22.641167
_cell_angle_alpha 90.000000
_cell_angle_beta 90.000000
_cell_angle_gamma 90.000000
_cell_volume 3157.177987
_symmetry_space_group_name_H-M "I 21 21 21"
_symmetry_group_IT_number 24
_symmetry_cell_setting 'orthorhombic'
loop_
_space_group_symop_operation_xyz
x,y,z
-x,1/2-y,z
x,-y,1/2-z
1/2-x,y,-z
1/2+x,1/2+y,1/2+z
1/2-x,-y,1/2+z
1/2+x,1/2-y,-z
-x,1/2+y,1/2-z
loop_
_atom_site_type_symbol
_atom_site_label
_atom_site_fract_x
_atom_site_fract_y
_atom_site_fract_z
Si Si1 0.983323 0.961821 0.067374
Si Si2 0.746812 0.616467 0.124731
Si Si3 0.518381 0.034467 0.430043
Si Si4 0.254098 0.673191 0.896002
Si Si5 0.330070 0.108159 0.749265
Si Si6 0.666055 0.246718 0.840223
Si Si7 0.158401 0.391633 0.265097
Si Si8 0.750638 0.110063 0.070708
O O1 0.884303 0.872556 0.071131
O O2 0.115205 0.940321 0.107467
O O3 0.885641 0.047453 0.087987
O O4 0.019962 0.976789 0.998993
O O5 0.617524 0.554747 0.106786
O O6 0.748586 0.717214 0.094426
O O7 0.744721 0.642823 0.193570
O O8 0.618641 0.122598 0.420662
O O9 0.614130 0.947532 0.411892
O O10 0.277824 0.641528 0.827304
O O11 0.295304 0.156215 0.810806
O O12 0.492004 0.125100 0.733867
O O13 0.308836 0.000000 0.750000
O O14 0.500000 0.250000 0.849193
O O15 0.703990 0.171672 0.789619
O O16 0.736465 0.209042 0.898892
O O17 0.182035 0.500000 0.250000
O O18 0.750000 0.115326 0.000000
#
# Coordination Sequence:
#
# PCOD9333061 Si02
#       8
#     8   8   8   8   8   8   8   8
#     4  10  21  35  60  89 121 169 217 263 318 362
#     4  12  22  35  56  85 129 166 214 264 314 377
#     4  10  23  38  55  85 127 176 211 253 318 392
#     4  11  20  34  55  86 124 163 213 268 319 371
#     4  10  22  37  59  91 125 150 203 268 317 366
#     4  10  20  35  67 102 118 154 212 263 318 370
#     4  10  18  32  57  93 120 155 205 268 315 368
#     4   9  20  42  67  94 128 158 210 266 312 383
#
# _framework density 20.271267999999999
#
# number of rings (size 3 to 8) (size 9 to 14) (size 15 to 20)
#    0.000    1.750    2.500    3.750    3.500    3.000 
#    0.000    1.875    5.500    0.000    0.000    0.000 
#    0.000    0.000    0.000    0.000    0.000    0.000 
#
# Total GULP energy -178680.076968 kJ/mol
# GULP energy per Si atom -5583.752405 kJ/mol
# Density = 2.022513 g / cm^3
# Si number density = 20.271268 Si / 1000 Ang^3
#
#
#
# Elastic Constant Matrix: (Units=GPa)
#
#
# Indices 1 2 3 4 5 6 
#
# 1 76.2538 27.8228 20.6803 0.0000 0.0000 0.0000
# 2 27.8228 90.3139 31.9415 0.0000 0.0000 0.0000
# 3 20.6803 31.9415 45.1593 0.0000 0.0000 0.0000
# 4 0.0000 0.0000 0.0000 26.9072 0.0000 0.0000
# 5 0.0000 0.0000 0.0000 0.0000 14.2911 0.0000
# 6 0.0000 0.0000 0.0000 0.0000 0.0000 9.8622
#
#
#
# Elastic Compliance Matrix: (Units=1/GPa)
#
#
# Indices 1 2 3 4 5 6 
#
# 1 0.015573 -0.003034 -0.004985 0.000000 0.000000 0.000000
# 2 -0.003034 0.015358 -0.009473 0.000000 0.000000 0.000000
# 3 -0.004985 -0.009473 0.031127 0.000000 0.000000 0.000000
# 4 0.000000 0.000000 0.000000 0.037165 0.000000 0.000000
# 5 0.000000 0.000000 0.000000 0.000000 0.069973 0.000000
# 6 0.000000 0.000000 0.000000 0.000000 0.000000 0.101398
#
#
# Mechanical properties :
#
#
# Convention : Reuss Voigt Hill
#
# Bulk Modulus (GPa) = 36.93782 41.40179 39.16981
# Shear Modulus (GPa) = 15.89301 18.96425 17.42863
#
# Velocity S-wave (km/s) = 2.80307 3.06195 2.93536
# Velocity P-wave (km/s) = 5.36074 5.74186 5.55457
#
# Compressibility (1/GPa) = 0.02707252
#
# Stress axis : x y z
#
# Youngs Moduli (GPa) = 64.21230 65.11416 32.12626
#
# Poissons Ratio (x) = 0.19759 0.16016
# Poissons Ratio (y) = 0.19485 0.30433
# Poissons Ratio (z) = 0.32012 0.61683
#
# Static dielectric constant tensor:
#      x y z
#    x 1.726300 0.000000 0.000000 
#    y 0.000000 1.757360 0.000000 
#    z 0.000000 0.000000 1.761040 
# 
# From -- ./inp_files/35302.got.cif
#   From: 2010.05.17/outbox.cif.g08.bks.cpg/sg24_18_cif.got.tgz:35302.got - 2010.06.04 00:33:39.
