data_PCOD9333267
_publ_section_title
;
Structure prediction by ZEFSAII (Michael W. Deem and Ramdas Pophale) SiO2 
 PCOD9333267
Probable space group: I 21 21 21
;
_chemical_formula_sum "Si O2"
_cell_formula_units_Z 40
_cell_length_a 11.559155
_cell_length_b 12.917414
_cell_length_c 13.771935
_cell_angle_alpha 90.000000
_cell_angle_beta 90.000000
_cell_angle_gamma 90.000000
_cell_volume 2056.348082
_symmetry_space_group_name_H-M "I 21 21 21"
_symmetry_group_IT_number 24
_symmetry_cell_setting 'orthorhombic'
loop_
_space_group_symop_operation_xyz
x,y,z
-x,1/2-y,z
x,-y,1/2-z
1/2-x,y,-z
1/2+x,1/2+y,1/2+z
1/2-x,-y,1/2+z
1/2+x,1/2-y,-z
-x,1/2+y,1/2-z
loop_
_atom_site_type_symbol
_atom_site_label
_atom_site_fract_x
_atom_site_fract_y
_atom_site_fract_z
Si Si1 0.943276 0.357606 0.488354
Si Si2 0.358991 0.129104 0.167249
Si Si3 0.260865 0.921100 0.126510
Si Si4 0.669130 0.929193 0.091690
Si Si5 0.135057 0.638792 0.691862
O O1 0.841358 0.341617 0.566722
O O2 0.872552 0.412016 0.402399
O O3 0.000000 0.250000 0.457136
O O4 0.041873 0.419569 0.545060
O O5 0.285885 0.107212 0.263891
O O6 0.495889 0.118856 0.190263
O O7 0.341779 0.249607 0.144281
O O8 0.314127 0.034517 0.101735
O O9 0.672362 0.866282 0.194253
O O10 0.690190 0.045968 0.130186
O O11 0.750000 0.901846 0.000000
#
# Coordination Sequence:
#
# PCOD9333267 Si02
#       5
#     8   8   8   8   8
#     4  11  22  34  56  92 116 152 199 254 302 351
#     4  10  18  38  62  84 113 158 203 250 301 349
#     4  10  20  36  60  86 117 150 202 256 294 358
#     4  11  22  38  58  88 123 157 202 249 303 361
#     4  10  20  38  60  88 119 157 205 250 293 360
#
# _framework density 19.45196
#
# number of rings (size 3 to 8) (size 9 to 14) (size 15 to 20)
#    0.000    1.600    4.000    2.400    5.600    0.000 
#    3.600    4.000    0.000    0.000    0.000    0.000 
#    0.000    0.000    0.000    0.000    0.000    0.000 
#
# Total GULP energy -111357.619324 kJ/mol
# GULP energy per Si atom -5567.880966 kJ/mol
# Density = 1.940769 g / cm^3
# Si number density = 19.451960 Si / 1000 Ang^3
#
#
#
# Elastic Constant Matrix: (Units=GPa)
#
#
# Indices 1 2 3 4 5 6 
#
# 1 73.1524 27.2367 32.3020 0.0000 0.0000 0.0000
# 2 27.2367 123.2116 6.3407 0.0000 0.0000 0.0000
# 3 32.3020 6.3407 55.9340 0.0000 0.0000 0.0000
# 4 0.0000 0.0000 0.0000 11.2166 0.0000 0.0000
# 5 0.0000 0.0000 0.0000 0.0000 33.4302 0.0000
# 6 0.0000 0.0000 0.0000 0.0000 0.0000 14.0257
#
#
#
# Elastic Compliance Matrix: (Units=1/GPa)
#
#
# Indices 1 2 3 4 5 6 
#
# 1 0.020016 -0.003852 -0.011122 0.000000 0.000000 0.000000
# 2 -0.003852 0.008905 0.001215 0.000000 0.000000 0.000000
# 3 -0.011122 0.001215 0.024164 0.000000 0.000000 0.000000
# 4 0.000000 0.000000 0.000000 0.089153 0.000000 0.000000
# 5 0.000000 0.000000 0.000000 0.000000 0.029913 0.000000
# 6 0.000000 0.000000 0.000000 0.000000 0.000000 0.071298
#
#
# Mechanical properties :
#
#
# Convention : Reuss Voigt Hill
#
# Bulk Modulus (GPa) = 39.11504 42.67296 40.89400
# Shear Modulus (GPa) = 17.88975 24.16240 21.02608
#
# Velocity S-wave (km/s) = 3.03593 3.52825 3.29131
# Velocity P-wave (km/s) = 5.69573 6.21155 5.95922
#
# Compressibility (1/GPa) = 0.02556562
#
# Stress axis : x y z
#
# Youngs Moduli (GPa) = 49.96075 112.29468 41.38442
#
# Poissons Ratio (x) = 0.43258 0.46029
# Poissons Ratio (y) = 0.19246 -0.05029
# Poissons Ratio (z) = 0.55568 -0.13646
#
# Static dielectric constant tensor:
#      x y z
#    x 1.703460 0.000000 0.000000 
#    y 0.000000 1.783800 0.000000 
#    z 0.000000 0.000000 1.729270 
# 
# From -- ./inp_files/24531.got.cif
#   From: 2010.05.17/outbox.cif.g08.bks.cpg/sg24_13_cif.got.tgz:24531.got - 2010.06.04 00:33:39.
