data_PCOD9333279
_publ_section_title
;
Structure prediction by ZEFSAII (Michael W. Deem and Ramdas Pophale) SiO2 
 PCOD9333279
Probable space group: I 21 21 21
;
_chemical_formula_sum "Si O2"
_cell_formula_units_Z 44
_cell_length_a 21.399480
_cell_length_b 15.137752
_cell_length_c 5.447174
_cell_angle_alpha 90.000000
_cell_angle_beta 90.000000
_cell_angle_gamma 90.000000
_cell_volume 1764.557661
_symmetry_space_group_name_H-M "I 21 21 21"
_symmetry_group_IT_number 24
_symmetry_cell_setting 'orthorhombic'
loop_
_space_group_symop_operation_xyz
x,y,z
-x,1/2-y,z
x,-y,1/2-z
1/2-x,y,-z
1/2+x,1/2+y,1/2+z
1/2-x,-y,1/2+z
1/2+x,1/2-y,-z
-x,1/2+y,1/2-z
loop_
_atom_site_type_symbol
_atom_site_label
_atom_site_fract_x
_atom_site_fract_y
_atom_site_fract_z
Si Si1 0.684079 0.101427 0.608195
Si Si2 0.342052 0.218608 0.320512
Si Si3 0.589380 0.450775 0.503162
Si Si4 0.562362 0.195258 0.995703
Si Si5 0.750000 0.212408 0.000000
Si Si6 0.057556 0.587448 0.991481
O O1 0.750000 0.067448 0.500000
O O2 0.664412 0.189487 0.462399
O O3 0.624859 0.040130 0.537044
O O4 0.701148 0.142689 0.874892
O O5 0.376602 0.143996 0.474871
O O6 0.384275 0.236553 0.078995
O O7 0.273011 0.218928 0.207869
O O8 0.610169 0.500000 0.750000
O O9 0.513319 0.447637 0.514167
O O10 0.605849 0.500000 0.250000
O O11 0.500000 0.250000 0.019444
O O12 0.559413 0.123497 0.213873
O O13 0.561507 0.154308 0.725595
#
# Coordination Sequence:
#
# PCOD9333279 Si02
#       6
#     8   8   8   8   4   8
#     4   9  20  35  62  99 127 158 199 277 351 397
#     4  10  22  38  64  94 132 163 212 271 331 391
#     4  12  28  44  63  90 135 187 230 261 303 380
#     4  11  20  33  63  96 122 154 197 271 354 382
#     4  10  18  38  66  98 130 160 202 272 352 402
#     4  11  22  38  61  93 130 162 208 271 333 388
#
# _framework density 24.935426
#
# number of rings (size 3 to 8) (size 9 to 14) (size 15 to 20)
#    0.000    1.455    3.636    1.636    5.091    0.000 
#    0.000    0.000    6.000    1.091    0.000    0.000 
#    0.000    0.000    0.000    0.000    0.000    0.000 
#
# Total GULP energy -122603.053017 kJ/mol
# GULP energy per Si atom -5572.866046 kJ/mol
# Density = 2.487867 g / cm^3
# Si number density = 24.935426 Si / 1000 Ang^3
#
#
#
# Elastic Constant Matrix: (Units=GPa)
#
#
# Indices 1 2 3 4 5 6 
#
# 1 80.6989 36.1518 32.4760 0.0000 0.0000 0.0000
# 2 36.1518 72.3864 44.7797 0.0000 0.0000 0.0000
# 3 32.4760 44.7797 143.1306 0.0000 0.0000 0.0000
# 4 0.0000 0.0000 0.0000 48.6912 0.0000 0.0000
# 5 0.0000 0.0000 0.0000 0.0000 11.5048 0.0000
# 6 0.0000 0.0000 0.0000 0.0000 0.0000 -11.0288
#
#
#
# Elastic Compliance Matrix: (Units=1/GPa)
#
#
# Indices 1 2 3 4 5 6 
#
# 1 0.016192 -0.007209 -0.001418 0.000000 0.000000 0.000000
# 2 -0.007209 0.020340 -0.004728 0.000000 0.000000 0.000000
# 3 -0.001418 -0.004728 0.008788 0.000000 0.000000 0.000000
# 4 0.000000 0.000000 0.000000 0.020538 0.000000 0.000000
# 5 0.000000 0.000000 0.000000 0.000000 0.086920 0.000000
# 6 0.000000 0.000000 0.000000 0.000000 0.000000 -0.090672
#
#
# Mechanical properties :
#
#
# Convention : Reuss Voigt Hill
#
# Bulk Modulus (GPa) = 53.73843 58.11452 55.92648
# Shear Modulus (GPa) = 52.62033 22.02066 37.32049
#
# Velocity S-wave (km/s) = 4.59874 2.97494 3.87290
# Velocity P-wave (km/s) = 7.05661 5.92933 6.51739
#
# Compressibility (1/GPa) = 0.01860866
#
# Stress axis : x y z
#
# Youngs Moduli (GPa) = 61.75782 49.16417 113.79684
#
# Poissons Ratio (x) = 0.35444 0.16142
# Poissons Ratio (y) = 0.44524 0.53800
# Poissons Ratio (z) = 0.08760 0.23244
#
# Static dielectric constant tensor:
#      x y z
#    x 2.255520 0.000000 0.000000 
#    y 0.000000 2.013510 0.000000 
#    z 0.000000 0.000000 2.144820 
# 
# From -- ./inp_files/5575.got.cif
#   From: 2010.05.17/outbox.cif.g08.bks.cpg/sg24_3_cif.got.tgz:5575.got - 2010.06.04 00:33:39.
