data_PCOD9333387
_publ_section_title
;
Structure prediction by ZEFSAII (Michael W. Deem and Ramdas Pophale) SiO2 
 PCOD9333387
Probable space group: I 21 21 21
;
_chemical_formula_sum "Si O2"
_cell_formula_units_Z 52
_cell_length_a 14.245145
_cell_length_b 9.100603
_cell_length_c 19.692011
_cell_angle_alpha 90.000000
_cell_angle_beta 90.000000
_cell_angle_gamma 90.000000
_cell_volume 2552.860674
_symmetry_space_group_name_H-M "I 21 21 21"
_symmetry_group_IT_number 24
_symmetry_cell_setting 'orthorhombic'
loop_
_space_group_symop_operation_xyz
x,y,z
-x,1/2-y,z
x,-y,1/2-z
1/2-x,y,-z
1/2+x,1/2+y,1/2+z
1/2-x,-y,1/2+z
1/2+x,1/2-y,-z
-x,1/2+y,1/2-z
loop_
_atom_site_type_symbol
_atom_site_label
_atom_site_fract_x
_atom_site_fract_y
_atom_site_fract_z
Si Si1 0.279744 0.604332 0.144535
Si Si2 0.017710 0.421881 0.593593
Si Si3 0.250000 0.499279 0.500000
Si Si4 0.946443 0.899334 0.465538
Si Si5 0.077931 0.123641 0.808654
Si Si6 0.897141 0.912928 0.312992
Si Si7 0.274642 0.828171 0.741637
O O1 0.388157 0.553837 0.139952
O O2 0.257657 0.606871 0.064682
O O3 0.204780 0.489767 0.174344
O O4 0.259326 0.749561 0.188275
O O5 0.024225 0.467034 0.514631
O O6 0.000000 0.250000 0.600151
O O7 0.941204 0.530967 0.624035
O O8 0.162788 0.605429 0.485877
O O9 0.950715 0.921708 0.384335
O O10 0.000000 0.750000 0.482900
O O11 0.182530 0.188043 0.805734
O O12 0.000000 0.250000 0.800195
O O13 0.070974 0.000000 0.750000
O O14 0.866008 0.752131 0.288327
O O15 0.941927 0.000000 0.250000
O O16 0.291668 0.000000 0.750000
#
# Coordination Sequence:
#
# PCOD9333387 Si02
#       7
#     8   8   4   8   8   8   8
#     4   9  17  34  55  76 106 150 188 220 274 349
#     4  11  21  34  52  79 115 150 185 229 280 340
#     4   8  18  36  62  82 110 152 190 222 276 348
#     4  10  21  39  60  85 112 146 191 235 282 340
#     4  11  20  30  49  80 117 152 181 222 278 340
#     4   9  19  38  60  77 104 147 190 229 279 342
#     4  10  19  31  52  83 111 138 184 238 280 323
#
# _framework density 20.369305000000001
#
# number of rings (size 3 to 8) (size 9 to 14) (size 15 to 20)
#    0.000    2.154    0.000    4.615    0.000    3.692 
#    0.000    7.692    0.000    1.846    0.000    0.000 
#    0.000    0.000    0.000    0.000    0.000    0.000 
#
# Total GULP energy -144934.995330 kJ/mol
# GULP energy per Si atom -5574.422897 kJ/mol
# Density = 2.032294 g / cm^3
# Si number density = 20.369305 Si / 1000 Ang^3
#
#
#
# Elastic Constant Matrix: (Units=GPa)
#
#
# Indices 1 2 3 4 5 6 
#
# 1 22.1434 10.6420 14.5662 0.0000 0.0000 0.0000
# 2 10.6420 97.0936 24.5091 0.0000 0.0000 0.0000
# 3 14.5662 24.5091 118.1458 0.0000 0.0000 0.0000
# 4 0.0000 0.0000 0.0000 14.2871 0.0000 0.0000
# 5 0.0000 0.0000 0.0000 0.0000 -0.6286 0.0000
# 6 0.0000 0.0000 0.0000 0.0000 0.0000 12.2801
#
#
#
# Elastic Compliance Matrix: (Units=1/GPa)
#
#
# Indices 1 2 3 4 5 6 
#
# 1 0.050719 -0.004201 -0.005382 0.000000 0.000000 0.000000
# 2 -0.004201 0.011216 -0.001809 0.000000 0.000000 0.000000
# 3 -0.005382 -0.001809 0.009503 0.000000 0.000000 0.000000
# 4 0.000000 0.000000 0.000000 0.069993 0.000000 0.000000
# 5 0.000000 0.000000 0.000000 0.000000 -1.590771 0.000000
# 6 0.000000 0.000000 0.000000 0.000000 0.000000 0.081433
#
#
# Mechanical properties :
#
#
# Convention : Reuss Voigt Hill
#
# Bulk Modulus (GPa) = 20.55248 37.42416 28.98832
# Shear Modulus (GPa) = -3.76250 17.69874 6.96812
#
# Velocity S-wave (km/s) = -1.36057 2.95090 1.85157
# Velocity P-wave (km/s) = 2.76471 5.47933 4.33974
#
# Compressibility (1/GPa) = 0.04865592
#
# Stress axis : x y z
#
# Youngs Moduli (GPa) = 19.71635 89.15539 105.23114
#
# Poissons Ratio (x) = 0.37451 0.56633
# Poissons Ratio (y) = 0.08282 0.19035
# Poissons Ratio (z) = 0.10611 0.16127
#
# Static dielectric constant tensor:
#      x y z
#    x 1.787230 0.000000 0.000000 
#    y 0.000000 1.710500 0.000000 
#    z 0.000000 0.000000 1.761210 
# 
# From -- ./inp_files/33718.got.cif
#   From: 2010.05.17/outbox.cif.g08.bks.cpg/sg24_17_cif.got.tgz:33718.got - 2010.06.04 00:33:39.
