data_PCOD9333257
_publ_section_title
;
Structure prediction by ZEFSAII (Michael W. Deem and Ramdas Pophale) SiO2 
 PCOD9333257
Probable space group: I 21 21 21
;
_chemical_formula_sum "Si O2"
_cell_formula_units_Z 36
_cell_length_a 5.866764
_cell_length_b 11.618399
_cell_length_c 27.837138
_cell_angle_alpha 90.000000
_cell_angle_beta 90.000000
_cell_angle_gamma 90.000000
_cell_volume 1897.446274
_symmetry_space_group_name_H-M "I 21 21 21"
_symmetry_group_IT_number 24
_symmetry_cell_setting 'orthorhombic'
loop_
_space_group_symop_operation_xyz
x,y,z
-x,1/2-y,z
x,-y,1/2-z
1/2-x,y,-z
1/2+x,1/2+y,1/2+z
1/2-x,-y,1/2+z
1/2+x,1/2-y,-z
-x,1/2+y,1/2-z
loop_
_atom_site_type_symbol
_atom_site_label
_atom_site_fract_x
_atom_site_fract_y
_atom_site_fract_z
Si Si1 0.500000 0.250000 0.836624
Si Si2 0.346904 0.069489 0.174529
Si Si3 0.532181 0.115454 0.665678
Si Si4 0.283492 0.431996 0.102405
Si Si5 0.291176 0.500000 0.250000
Si Si6 0.750000 0.179914 0.000000
O O1 0.322493 0.170049 0.809591
O O2 0.365799 0.337730 0.869994
O O3 0.461411 0.087446 0.122548
O O4 0.548409 0.064277 0.212404
O O5 0.206799 0.951825 0.170153
O O6 0.500000 0.250000 0.657635
O O7 0.650277 0.086407 0.716679
O O8 0.682691 0.052114 0.623848
O O9 0.263080 0.401319 0.046947
O O10 0.500000 0.250000 0.998435
#
# Coordination Sequence:
#
# PCOD9333257 Si02
#       6
#     4   8   8   8   4   4
#     4  10  18  38  58  90 124 168 200 264 336 392
#     4  10  21  40  59  89 128 168 215 267 332 396
#     4  10  23  45  62  87 130 175 221 271 326 396
#     4  10  22  39  65  94 131 173 209 268 336 399
#     4  10  22  42  56  96 116 170 222 272 326 382
#     4  12  24  40  72 112 142 170 218 284 346 408
#
# _framework density 18.972868999999999
#
# number of rings (size 3 to 8) (size 9 to 14) (size 15 to 20)
#    0.000    1.778    1.111    2.667    3.111    3.556 
#   48.000    0.000    4.889    0.000    0.000    0.000 
#    0.000    0.000    0.000    0.000    0.000    0.000 
#
# Total GULP energy -100409.692808 kJ/mol
# GULP energy per Si atom -5578.316267 kJ/mol
# Density = 1.892969 g / cm^3
# Si number density = 18.972869 Si / 1000 Ang^3
#
#
#
# Elastic Constant Matrix: (Units=GPa)
#
#
# Indices 1 2 3 4 5 6 
#
# 1 106.1527 52.5528 44.4879 0.0000 0.0000 0.0000
# 2 52.5528 151.3031 43.7579 0.0000 0.0000 0.0000
# 3 44.4879 43.7579 126.5773 0.0000 0.0000 0.0000
# 4 0.0000 0.0000 0.0000 18.7912 0.0000 0.0000
# 5 0.0000 0.0000 0.0000 0.0000 15.5287 0.0000
# 6 0.0000 0.0000 0.0000 0.0000 0.0000 -11.6974
#
#
#
# Elastic Compliance Matrix: (Units=1/GPa)
#
#
# Indices 1 2 3 4 5 6 
#
# 1 0.012443 -0.003397 -0.003199 0.000000 0.000000 0.000000
# 2 -0.003397 0.008271 -0.001665 0.000000 0.000000 0.000000
# 3 -0.003199 -0.001665 0.009600 0.000000 0.000000 0.000000
# 4 0.000000 0.000000 0.000000 0.053216 0.000000 0.000000
# 5 0.000000 0.000000 0.000000 0.000000 0.064397 0.000000
# 6 0.000000 0.000000 0.000000 0.000000 0.000000 -0.085489
#
#
# Mechanical properties :
#
#
# Convention : Reuss Voigt Hill
#
# Bulk Modulus (GPa) = 72.50717 73.95893 73.23305
# Shear Modulus (GPa) = 59.83912 20.74012 40.28962
#
# Velocity S-wave (km/s) = 5.62208 3.30986 4.61319
# Velocity P-wave (km/s) = 8.96900 7.32618 8.18889
#
# Compressibility (1/GPa) = 0.01379174
#
# Stress axis : x y z
#
# Youngs Moduli (GPa) = 80.36905 120.90967 104.16260
#
# Poissons Ratio (x) = 0.41068 0.33321
# Poissons Ratio (y) = 0.27298 0.17347
# Poissons Ratio (z) = 0.25710 0.20136
#
# Static dielectric constant tensor:
#      x y z
#    x 1.735480 0.000000 0.000000 
#    y 0.000000 1.667300 0.000000 
#    z 0.000000 0.000000 1.753300 
# 
# From -- ./inp_files/17563.got.cif
#   From: 2010.05.17/outbox.cif.g08.bks.cpg/sg24_9_cif.got.tgz:17563.got - 2010.06.04 00:33:39.
