data_PCOD9333561
_publ_section_title
;
Structure prediction by ZEFSAII (Michael W. Deem and Ramdas Pophale) SiO2 
 PCOD9333561
Probable space group: I 21 21 21
;
_chemical_formula_sum "Si O2"
_cell_formula_units_Z 64
_cell_length_a 30.113718
_cell_length_b 8.957410
_cell_length_c 11.745156
_cell_angle_alpha 90.000000
_cell_angle_beta 90.000000
_cell_angle_gamma 90.000000
_cell_volume 3168.149170
_symmetry_space_group_name_H-M "I 21 21 21"
_symmetry_group_IT_number 24
_symmetry_cell_setting 'orthorhombic'
loop_
_space_group_symop_operation_xyz
x,y,z
-x,1/2-y,z
x,-y,1/2-z
1/2-x,y,-z
1/2+x,1/2+y,1/2+z
1/2-x,-y,1/2+z
1/2+x,1/2-y,-z
-x,1/2+y,1/2-z
loop_
_atom_site_type_symbol
_atom_site_label
_atom_site_fract_x
_atom_site_fract_y
_atom_site_fract_z
Si Si1 0.083074 0.138086 0.320443
Si Si2 0.133645 0.613066 0.845707
Si Si3 0.508330 0.427935 0.370211
Si Si4 0.436460 0.408200 0.543085
Si Si5 0.701081 0.894619 0.469876
Si Si6 0.618279 0.815288 0.614158
Si Si7 0.101017 0.957633 0.535589
Si Si8 0.320293 0.138016 0.194627
O O1 0.053231 0.265099 0.379095
O O2 0.113888 0.226906 0.231783
O O3 0.061603 0.000000 0.250000
O O4 0.108631 0.060845 0.425089
O O5 0.114691 0.500000 0.750000
O O6 0.173483 0.520805 0.903675
O O7 0.153714 0.756473 0.783947
O O8 0.096904 0.642062 0.941144
O O9 0.500000 0.250000 0.361867
O O10 0.495566 0.500000 0.250000
O O11 0.478492 0.475126 0.477985
O O12 0.558116 0.480099 0.399567
O O13 0.409774 0.532988 0.612552
O O14 0.750000 0.946529 0.500000
O O15 0.668458 0.848182 0.573575
O O16 0.705522 0.751346 0.387055
O O17 0.596303 0.708813 0.517208
O O18 0.142300 0.942124 0.618456
O O19 0.294198 0.000000 0.250000
#
# Coordination Sequence:
#
# PCOD9333561 Si02
#       8
#     8   8   8   8   8   8   8   8
#     4  10  20  39  59  83 115 161 212 248 299 361
#     4   9  19  36  61  88 119 163 201 240 310 382
#     4  12  27  39  59  92 128 159 204 268 323 373
#     4  11  21  38  58  87 123 156 211 257 300 374
#     4   9  19  39  61  89 125 156 202 261 308 365
#     4   9  21  38  64  86 115 164 209 255 301 370
#     4  10  21  39  59  83 125 163 201 252 313 364
#     4  10  19  34  60  88 118 164 197 240 312 385
#
# _framework density 20.201069
#
# number of rings (size 3 to 8) (size 9 to 14) (size 15 to 20)
#    0.000    2.000    1.250    2.625    3.500    0.000 
#    0.000   17.500    0.000    0.000    0.000    0.000 
#    0.000    0.000    0.000    0.000    0.000    0.000 
#
# Total GULP energy -178568.122661 kJ/mol
# GULP energy per Si atom -5580.253833 kJ/mol
# Density = 2.015509 g / cm^3
# Si number density = 20.201069 Si / 1000 Ang^3
#
#
#
# Elastic Constant Matrix: (Units=GPa)
#
#
# Indices 1 2 3 4 5 6 
#
# 1 61.7161 11.4074 23.9465 0.0000 0.0000 0.0000
# 2 11.4074 83.3634 32.8778 0.0000 0.0000 0.0000
# 3 23.9465 32.8778 93.0714 0.0000 0.0000 0.0000
# 4 0.0000 0.0000 0.0000 34.6948 0.0000 0.0000
# 5 0.0000 0.0000 0.0000 0.0000 5.5267 0.0000
# 6 0.0000 0.0000 0.0000 0.0000 0.0000 10.8648
#
#
#
# Elastic Compliance Matrix: (Units=1/GPa)
#
#
# Indices 1 2 3 4 5 6 
#
# 1 0.018040 -0.000741 -0.004380 0.000000 0.000000 0.000000
# 2 -0.000741 0.013968 -0.004743 0.000000 0.000000 0.000000
# 3 -0.004380 -0.004743 0.013547 0.000000 0.000000 0.000000
# 4 0.000000 0.000000 0.000000 0.028823 0.000000 0.000000
# 5 0.000000 0.000000 0.000000 0.000000 0.180941 0.000000
# 6 0.000000 0.000000 0.000000 0.000000 0.000000 0.092040
#
#
# Mechanical properties :
#
#
# Convention : Reuss Voigt Hill
#
# Bulk Modulus (GPa) = 38.72107 41.62381 40.17244
# Shear Modulus (GPa) = 13.30866 21.54522 17.42694
#
# Velocity S-wave (km/s) = 2.56951 3.26933 2.94032
# Velocity P-wave (km/s) = 5.29270 5.90770 5.60863
#
# Compressibility (1/GPa) = 0.02582574
#
# Stress axis : x y z
#
# Youngs Moduli (GPa) = 55.43373 71.59283 73.81759
#
# Poissons Ratio (x) = 0.05307 0.32329
# Poissons Ratio (y) = 0.04109 0.35015
# Poissons Ratio (z) = 0.24278 0.33960
#
# Static dielectric constant tensor:
#      x y z
#    x 1.662130 0.000000 0.000000 
#    y 0.000000 1.763240 0.000000 
#    z 0.000000 0.000000 1.762320 
# 
# From -- ./inp_files/11659.got.cif
#   From: 2010.05.17/outbox.cif.g08.bks.cpg/sg24_6_cif.got.tgz:11659.got - 2010.06.04 00:33:39.
