data_PCOD9333692
_publ_section_title
;
Structure prediction by ZEFSAII (Michael W. Deem and Ramdas Pophale) SiO2 
 PCOD9333692
Probable space group: I 21 21 21
;
_chemical_formula_sum "Si O2"
_cell_formula_units_Z 52
_cell_length_a 9.477120
_cell_length_b 10.132831
_cell_length_c 26.078318
_cell_angle_alpha 90.000000
_cell_angle_beta 90.000000
_cell_angle_gamma 90.000000
_cell_volume 2504.302320
_symmetry_space_group_name_H-M "I 21 21 21"
_symmetry_group_IT_number 24
_symmetry_cell_setting 'orthorhombic'
loop_
_space_group_symop_operation_xyz
x,y,z
-x,1/2-y,z
x,-y,1/2-z
1/2-x,y,-z
1/2+x,1/2+y,1/2+z
1/2-x,-y,1/2+z
1/2+x,1/2-y,-z
-x,1/2+y,1/2-z
loop_
_atom_site_type_symbol
_atom_site_label
_atom_site_fract_x
_atom_site_fract_y
_atom_site_fract_z
Si Si1 0.696129 0.500000 0.750000
Si Si2 0.155593 0.605280 0.787250
Si Si3 0.381094 0.164670 0.882801
Si Si4 0.962572 0.040946 0.320090
Si Si5 0.500000 0.750000 0.906837
Si Si6 0.500000 0.250000 0.379818
Si Si7 0.745689 0.411214 0.440333
Si Si8 0.342426 0.789788 0.307861
O O1 0.581050 0.591792 0.779917
O O2 0.794418 0.438385 0.794026
O O3 0.078011 0.500000 0.750000
O O4 0.305212 0.541147 0.800271
O O5 0.083482 0.654969 0.839362
O O6 0.178603 0.725385 0.748139
O O7 0.500000 0.250000 0.912828
O O8 0.260496 0.248663 0.854249
O O9 0.476202 0.098291 0.838146
O O10 0.301108 0.043283 0.910927
O O11 0.959653 0.131470 0.369643
O O12 0.365463 0.798602 0.937085
O O13 0.606930 0.342057 0.414023
O O14 0.750000 0.448083 0.500000
O O15 0.500000 0.750000 0.322666
#
# Coordination Sequence:
#
# PCOD9333692 Si02
#       8
#     4   8   8   8   4   4   8   8
#     4  10  22  36  56  86 128 188 230 252 306 384
#     4  12  24  37  60  99 144 182 213 261 343 423
#     4  10  24  45  66  92 131 182 233 277 335 423
#     4  10  19  36  62  89 125 176 224 268 301 402
#     4  10  19  38  68  96 122 160 226 275 352 392
#     4  12  27  42  70 106 144 176 232 297 364 414
#     4  11  25  47  75  97 129 170 231 311 361 411
#     4  11  25  36  60  92 142 177 220 268 330 414
#
# _framework density 20.764264000000001
#
# number of rings (size 3 to 8) (size 9 to 14) (size 15 to 20)
#    0.000    1.231    3.077    2.308    9.692    0.000 
#    0.000    0.769    0.000    0.000    0.000    0.000 
#    0.000    0.000    0.000    0.000    0.000    0.000 
#
# Total GULP energy -144821.261388 kJ/mol
# GULP energy per Si atom -5570.048515 kJ/mol
# Density = 2.071700 g / cm^3
# Si number density = 20.764264 Si / 1000 Ang^3
#
#
#
# Elastic Constant Matrix: (Units=GPa)
#
#
# Indices 1 2 3 4 5 6 
#
# 1 176.3422 53.4433 62.7930 0.0000 0.0000 0.0000
# 2 53.4433 57.0551 28.2638 0.0000 0.0000 0.0000
# 3 62.7930 28.2638 110.9258 0.0000 0.0000 0.0000
# 4 0.0000 0.0000 0.0000 12.6547 0.0000 0.0000
# 5 0.0000 0.0000 0.0000 0.0000 17.7687 0.0000
# 6 0.0000 0.0000 0.0000 0.0000 0.0000 33.6016
#
#
#
# Elastic Compliance Matrix: (Units=1/GPa)
#
#
# Indices 1 2 3 4 5 6 
#
# 1 0.008875 -0.006666 -0.003326 0.000000 0.000000 0.000000
# 2 -0.006666 0.025065 -0.002613 0.000000 0.000000 0.000000
# 3 -0.003326 -0.002613 0.011563 0.000000 0.000000 0.000000
# 4 0.000000 0.000000 0.000000 0.079022 0.000000 0.000000
# 5 0.000000 0.000000 0.000000 0.000000 0.056279 0.000000
# 6 0.000000 0.000000 0.000000 0.000000 0.000000 0.029761
#
#
# Mechanical properties :
#
#
# Convention : Reuss Voigt Hill
#
# Bulk Modulus (GPa) = 49.27423 70.36924 59.82174
# Shear Modulus (GPa) = 20.61520 26.12653 23.37086
#
# Velocity S-wave (km/s) = 3.15432 3.55102 3.35854
# Velocity P-wave (km/s) = 6.08672 7.12574 6.62663
#
# Compressibility (1/GPa) = 0.02029458
#
# Stress axis : x y z
#
# Youngs Moduli (GPa) = 112.67330 39.89565 86.47942
#
# Poissons Ratio (x) = 0.26594 0.28760
# Poissons Ratio (y) = 0.75107 0.22599
# Poissons Ratio (z) = 0.37471 0.10425
#
# Static dielectric constant tensor:
#      x y z
#    x 1.851370 0.000000 0.000000 
#    y 0.000000 1.917450 0.000000 
#    z 0.000000 0.000000 1.772060 
# 
# From -- ./inp_files/36912.got.cif
#   From: 2010.05.17/outbox.cif.g08.bks.cpg/sg24_19_cif.got.tgz:36912.got - 2010.06.04 00:33:39.
