data_PCOD9333634
_publ_section_title
;
Structure prediction by ZEFSAII (Michael W. Deem and Ramdas Pophale) SiO2 
 PCOD9333634
Probable space group: I 21 21 21
;
_chemical_formula_sum "Si O2"
_cell_formula_units_Z 64
_cell_length_a 30.291586
_cell_length_b 8.824833
_cell_length_c 11.628900
_cell_angle_alpha 90.000000
_cell_angle_beta 90.000000
_cell_angle_gamma 90.000000
_cell_volume 3108.616474
_symmetry_space_group_name_H-M "I 21 21 21"
_symmetry_group_IT_number 24
_symmetry_cell_setting 'orthorhombic'
loop_
_space_group_symop_operation_xyz
x,y,z
-x,1/2-y,z
x,-y,1/2-z
1/2-x,y,-z
1/2+x,1/2+y,1/2+z
1/2-x,-y,1/2+z
1/2+x,1/2-y,-z
-x,1/2+y,1/2-z
loop_
_atom_site_type_symbol
_atom_site_label
_atom_site_fract_x
_atom_site_fract_y
_atom_site_fract_z
Si Si1 0.081050 0.138255 0.322961
Si Si2 0.133642 0.616077 0.845197
Si Si3 0.506485 0.431356 0.125764
Si Si4 0.437745 0.402963 0.535294
Si Si5 0.701134 0.900397 0.479557
Si Si6 0.620965 0.830084 0.622431
Si Si7 0.103447 0.945477 0.534534
Si Si8 0.317767 0.137149 0.190203
O O1 0.050488 0.261128 0.384902
O O2 0.111739 0.234286 0.236578
O O3 0.059847 0.000000 0.250000
O O4 0.107235 0.055566 0.425370
O O5 0.114799 0.500000 0.750000
O O6 0.170953 0.520547 0.912007
O O7 0.157240 0.752520 0.779613
O O8 0.095030 0.655095 0.933839
O O9 0.500000 0.250000 0.126013
O O10 0.495158 0.500000 0.250000
O O11 0.557314 0.468555 0.097682
O O12 0.477065 0.509137 0.026896
O O13 0.408511 0.520032 0.610567
O O14 0.750000 0.959387 0.500000
O O15 0.672026 0.862890 0.592788
O O16 0.705457 0.750181 0.399756
O O17 0.604166 0.724225 0.517631
O O18 0.144330 0.949325 0.618936
O O19 0.291267 0.000000 0.250000
#
# Coordination Sequence:
#
# PCOD9333634 Si02
#       8
#     8   8   8   8   8   8   8   8
#     4  10  22  39  61  85 115 161 215 251 296 353
#     4   9  19  35  61  89 117 161 198 234 302 373
#     4  12  27  39  60  92 126 156 204 264 324 373
#     4  11  21  38  62  86 122 159 205 254 302 367
#     4   9  19  37  60  88 123 154 196 255 301 355
#     4   9  19  40  62  83 115 159 205 251 294 360
#     4  10  21  39  57  85 123 155 200 250 307 363
#     4  10  19  35  60  85 120 157 194 238 305 374
#
# _framework density 20.587935999999999
#
# number of rings (size 3 to 8) (size 9 to 14) (size 15 to 20)
#    0.000    2.000    1.250    2.625    3.500    0.000 
#    0.000   17.500    0.000    0.000    0.000    0.000 
#    0.000    0.000    0.000    0.000    0.000    0.000 
#
# Total GULP energy -178651.843898 kJ/mol
# GULP energy per Si atom -5582.870122 kJ/mol
# Density = 2.054108 g / cm^3
# Si number density = 20.587936 Si / 1000 Ang^3
#
#
#
# Elastic Constant Matrix: (Units=GPa)
#
#
# Indices 1 2 3 4 5 6 
#
# 1 69.7221 1.4674 23.4246 0.0000 0.0000 0.0000
# 2 1.4674 100.3598 46.7456 0.0000 0.0000 0.0000
# 3 23.4246 46.7456 89.2473 0.0000 0.0000 0.0000
# 4 0.0000 0.0000 0.0000 38.0418 0.0000 0.0000
# 5 0.0000 0.0000 0.0000 0.0000 3.3527 0.0000
# 6 0.0000 0.0000 0.0000 0.0000 0.0000 5.8274
#
#
#
# Elastic Compliance Matrix: (Units=1/GPa)
#
#
# Indices 1 2 3 4 5 6 
#
# 1 0.016120 0.002295 -0.005433 0.000000 0.000000 0.000000
# 2 0.002295 0.013506 -0.007677 0.000000 0.000000 0.000000
# 3 -0.005433 -0.007677 0.016652 0.000000 0.000000 0.000000
# 4 0.000000 0.000000 0.000000 0.026287 0.000000 0.000000
# 5 0.000000 0.000000 0.000000 0.000000 0.298268 0.000000
# 6 0.000000 0.000000 0.000000 0.000000 0.000000 0.171602
#
#
# Mechanical properties :
#
#
# Convention : Reuss Voigt Hill
#
# Bulk Modulus (GPa) = 40.57087 44.73383 42.65235
# Shear Modulus (GPa) = 8.73699 21.95715 15.34707
#
# Velocity S-wave (km/s) = 2.06227 3.26928 2.73324
# Velocity P-wave (km/s) = 5.04178 6.00219 5.54282
#
# Compressibility (1/GPa) = 0.02464823
#
# Stress axis : x y z
#
# Youngs Moduli (GPa) = 62.03612 74.04020 60.05435
#
# Poissons Ratio (x) = -0.16991 0.32627
# Poissons Ratio (y) = -0.14236 0.46101
# Poissons Ratio (z) = 0.33704 0.56837
#
# Static dielectric constant tensor:
#      x y z
#    x 1.675510 0.000000 0.000000 
#    y 0.000000 1.781690 0.000000 
#    z 0.000000 0.000000 1.766900 
# 
# From -- ./inp_files/11641.got.cif
#   From: 2010.05.17/outbox.cif.g08.bks.cpg/sg24_6_cif.got.tgz:11641.got - 2010.06.04 00:33:39.
