data_PCOD9333883
_publ_section_title
;
Structure prediction by ZEFSAII (Michael W. Deem and Ramdas Pophale) SiO2 
 PCOD9333883
Probable space group: I 21 21 21
;
_chemical_formula_sum "Si O2"
_cell_formula_units_Z 60
_cell_length_a 5.244972
_cell_length_b 24.102216
_cell_length_c 25.874713
_cell_angle_alpha 90.000000
_cell_angle_beta 90.000000
_cell_angle_gamma 90.000000
_cell_volume 3270.963437
_symmetry_space_group_name_H-M "I 21 21 21"
_symmetry_group_IT_number 24
_symmetry_cell_setting 'orthorhombic'
loop_
_space_group_symop_operation_xyz
x,y,z
-x,1/2-y,z
x,-y,1/2-z
1/2-x,y,-z
1/2+x,1/2+y,1/2+z
1/2-x,-y,1/2+z
1/2+x,1/2-y,-z
-x,1/2+y,1/2-z
loop_
_atom_site_type_symbol
_atom_site_label
_atom_site_fract_x
_atom_site_fract_y
_atom_site_fract_z
Si Si1 0.386721 0.694345 0.452416
Si Si2 0.500000 0.750000 0.627083
Si Si3 0.997101 0.382821 0.533391
Si Si4 0.990455 0.602264 0.622486
Si Si5 0.014690 0.137151 0.180714
Si Si6 0.001633 0.984785 0.533642
Si Si7 0.003696 0.183855 0.292322
Si Si8 0.995454 0.815429 0.860843
O O1 0.500000 0.750000 0.477355
O O2 0.250000 0.664063 0.500000
O O3 0.206483 0.721559 0.409465
O O4 0.555615 0.651140 0.420608
O O5 0.591678 0.699279 0.661800
O O6 0.750000 0.366988 0.500000
O O7 0.984913 0.449109 0.542634
O O8 0.998803 0.350991 0.587341
O O9 0.250000 0.371178 0.500000
O O10 0.251278 0.617411 0.653314
O O11 0.750442 0.600502 0.660765
O O12 0.013539 0.547863 0.587466
O O13 0.987314 0.145354 0.241794
O O14 0.250000 0.968351 0.500000
O O15 0.750000 0.973560 0.500000
O O16 0.261502 0.173500 0.324294
O O17 0.000000 0.250000 0.278315
O O18 0.760961 0.173845 0.328630
O O19 0.000000 0.750000 0.874071
#
# Coordination Sequence:
#
# PCOD9333883 Si02
#       8
#     8   4   8   8   8   8   8   8
#     4  11  20  30  43  64 100 135 172 221 295 341
#     4  10  20  32  44  68  96 138 178 230 274 334
#     4  10  21  38  63  90 118 150 178 217 269 335
#     4  11  23  34  53  76 102 142 193 244 280 323
#     4  11  21  35  54  75 106 141 193 238 282 315
#     4  10  21  39  59  80 108 147 192 231 280 337
#     4  10  20  36  57  81 116 155 187 229 268 334
#     4  10  21  36  59  92 120 148 180 213 274 334
#
# _framework density 18.343219999999999
#
# number of rings (size 3 to 8) (size 9 to 14) (size 15 to 20)
#    0.000    1.600    2.667    2.800    0.000    2.133 
#    0.000    0.000    0.000    4.800    0.000    0.000 
#    0.000    0.000    0.000    0.000    0.000    0.000 
#
# Total GULP energy -167383.864076 kJ/mol
# GULP energy per Si atom -5579.462136 kJ/mol
# Density = 1.830147 g / cm^3
# Si number density = 18.343220 Si / 1000 Ang^3
#
#
#
# Elastic Constant Matrix: (Units=GPa)
#
#
# Indices 1 2 3 4 5 6 
#
# 1 133.1224 34.5817 63.0573 0.0000 0.0000 0.0000
# 2 34.5817 47.5899 58.2998 0.0000 0.0000 0.0000
# 3 63.0573 58.2998 139.9696 0.0000 0.0000 0.0000
# 4 0.0000 0.0000 0.0000 52.1574 0.0000 0.0000
# 5 0.0000 0.0000 0.0000 0.0000 19.0821 0.0000
# 6 0.0000 0.0000 0.0000 0.0000 0.0000 -0.6328
#
#
#
# Elastic Compliance Matrix: (Units=1/GPa)
#
#
# Indices 1 2 3 4 5 6 
#
# 1 0.009828 -0.003507 -0.002967 0.000000 0.000000 0.000000
# 2 -0.003507 0.044157 -0.016812 0.000000 0.000000 0.000000
# 3 -0.002967 -0.016812 0.015484 0.000000 0.000000 0.000000
# 4 0.000000 0.000000 0.000000 0.019173 0.000000 0.000000
# 5 0.000000 0.000000 0.000000 0.000000 0.052405 0.000000
# 6 0.000000 0.000000 0.000000 0.000000 0.000000 -1.580339
#
#
# Mechanical properties :
#
#
# Convention : Reuss Voigt Hill
#
# Bulk Modulus (GPa) = 43.67503 70.28439 56.97971
# Shear Modulus (GPa) = -3.60988 25.10420 10.74716
#
# Velocity S-wave (km/s) = -1.40436 3.70345 2.42315
# Velocity P-wave (km/s) = 4.60781 7.52907 6.24175
#
# Compressibility (1/GPa) = 0.02289638
#
# Stress axis : x y z
#
# Youngs Moduli (GPa) = 101.74657 22.64636 64.58449
#
# Poissons Ratio (x) = 0.07943 0.19162
# Poissons Ratio (y) = 0.35685 1.08581
# Poissons Ratio (z) = 0.30187 0.38074
#
# Static dielectric constant tensor:
#      x y z
#    x 1.685740 0.000000 0.000000 
#    y 0.000000 1.630850 0.000000 
#    z 0.000000 0.000000 1.608460 
# 
# From -- ./inp_files/32299.got.cif
#   From: 2010.05.17/outbox.cif.g08.bks.cpg/sg24_17_cif.got.tgz:32299.got - 2010.06.04 00:33:39.
