data_PCOD9333377
_publ_section_title
;
Structure prediction by ZEFSAII (Michael W. Deem and Ramdas Pophale) SiO2 
 PCOD9333377
Probable space group: I 21 21 21
;
_chemical_formula_sum "Si O2"
_cell_formula_units_Z 40
_cell_length_a 9.266367
_cell_length_b 5.505208
_cell_length_c 30.180462
_cell_angle_alpha 90.000000
_cell_angle_beta 90.000000
_cell_angle_gamma 90.000000
_cell_volume 1539.604290
_symmetry_space_group_name_H-M "I 21 21 21"
_symmetry_group_IT_number 24
_symmetry_cell_setting 'orthorhombic'
loop_
_space_group_symop_operation_xyz
x,y,z
-x,1/2-y,z
x,-y,1/2-z
1/2-x,y,-z
1/2+x,1/2+y,1/2+z
1/2-x,-y,1/2+z
1/2+x,1/2-y,-z
-x,1/2+y,1/2-z
loop_
_atom_site_type_symbol
_atom_site_label
_atom_site_fract_x
_atom_site_fract_y
_atom_site_fract_z
Si Si1 0.003603 0.999667 0.874150
Si Si2 0.320428 0.999727 0.831263
Si Si3 0.255096 0.504688 0.299433
Si Si4 0.173691 0.698325 0.044770
Si Si5 0.648217 0.304862 0.924099
O O1 0.000000 0.250000 0.900171
O O2 0.153067 0.995440 0.847111
O O3 0.880477 0.007202 0.836341
O O4 0.000000 0.750000 0.900185
O O5 0.331622 0.242391 0.802310
O O6 0.396304 0.066509 0.877511
O O7 0.339127 0.735794 0.809879
O O8 0.317737 0.500000 0.250000
O O9 0.206322 0.472607 0.078731
O O10 0.000000 0.750000 0.042763
O O11 0.233418 0.970754 0.054837
O O12 0.250000 0.614867 0.000000
O O13 0.500000 0.250000 0.950031
#
# Coordination Sequence:
#
# PCOD9333377 Si02
#       5
#     8   8   8   8   8
#     4   8  16  27  42  66  99 134 172 218 268 329
#     4  10  19  32  50  75 104 142 189 229 274 337
#     4  10  19  31  49  74 108 147 186 235 293 348
#     4  10  21  40  64  92 121 153 192 233 286 350
#     4  10  21  38  61  83 112 152 192 235 285 348
#
# _framework density 25.980702999999998
#
# number of rings (size 3 to 8) (size 9 to 14) (size 15 to 20)
#    0.000    2.400    0.000    2.400    0.000    7.200 
#    0.000    9.000    0.000    2.400    0.000    0.000 
#    0.000    0.000    0.000    0.000    0.000    0.000 
#
# Total GULP energy -111469.103757 kJ/mol
# GULP energy per Si atom -5573.455188 kJ/mol
# Density = 2.592157 g / cm^3
# Si number density = 25.980703 Si / 1000 Ang^3
#
#
#
# Elastic Constant Matrix: (Units=GPa)
#
#
# Indices 1 2 3 4 5 6 
#
# 1 99.4745 21.8106 14.3419 0.0000 0.0000 0.0000
# 2 21.8106 283.5477 10.4007 0.0000 0.0000 0.0000
# 3 14.3419 10.4007 69.0462 0.0000 0.0000 0.0000
# 4 0.0000 0.0000 0.0000 17.5710 0.0000 0.0000
# 5 0.0000 0.0000 0.0000 0.0000 17.8975 0.0000
# 6 0.0000 0.0000 0.0000 0.0000 0.0000 11.1919
#
#
#
# Elastic Compliance Matrix: (Units=1/GPa)
#
#
# Indices 1 2 3 4 5 6 
#
# 1 0.010512 -0.000733 -0.002073 0.000000 0.000000 0.000000
# 2 -0.000733 0.003597 -0.000390 0.000000 0.000000 0.000000
# 3 -0.002073 -0.000390 0.014972 0.000000 0.000000 0.000000
# 4 0.000000 0.000000 0.000000 0.056912 0.000000 0.000000
# 5 0.000000 0.000000 0.000000 0.000000 0.055874 0.000000
# 6 0.000000 0.000000 0.000000 0.000000 0.000000 0.089351
#
#
# Mechanical properties :
#
#
# Convention : Reuss Voigt Hill
#
# Bulk Modulus (GPa) = 44.07007 60.57496 52.32251
# Shear Modulus (GPa) = 20.39375 36.36643 28.38009
#
# Velocity S-wave (km/s) = 2.80475 3.74538 3.30866
# Velocity P-wave (km/s) = 5.24293 6.48612 5.89738
#
# Compressibility (1/GPa) = 0.02269114
#
# Stress axis : x y z
#
# Youngs Moduli (GPa) = 95.12611 277.97952 66.78955
#
# Poissons Ratio (x) = 0.20364 0.13847
# Poissons Ratio (y) = 0.06969 0.02603
# Poissons Ratio (z) = 0.19722 0.10833
#
# Static dielectric constant tensor:
#      x y z
#    x 2.164280 0.000000 0.000000 
#    y 0.000000 2.218330 0.000000 
#    z 0.000000 0.000000 2.004650 
# 
# From -- ./inp_files/6890.got.cif
#   From: 2010.05.17/outbox.cif.g08.bks.cpg/sg24_4_cif.got.tgz:6890.got - 2010.06.04 00:33:39.
