data_PCOD9333299
_publ_section_title
;
Structure prediction by ZEFSAII (Michael W. Deem and Ramdas Pophale) SiO2 
 PCOD9333299
Probable space group: I 21 21 21
;
_chemical_formula_sum "Si O2"
_cell_formula_units_Z 40
_cell_length_a 12.524724
_cell_length_b 29.836355
_cell_length_c 5.255493
_cell_angle_alpha 90.000000
_cell_angle_beta 90.000000
_cell_angle_gamma 90.000000
_cell_volume 1963.936276
_symmetry_space_group_name_H-M "I 21 21 21"
_symmetry_group_IT_number 24
_symmetry_cell_setting 'orthorhombic'
loop_
_space_group_symop_operation_xyz
x,y,z
-x,1/2-y,z
x,-y,1/2-z
1/2-x,y,-z
1/2+x,1/2+y,1/2+z
1/2-x,-y,1/2+z
1/2+x,1/2-y,-z
-x,1/2+y,1/2-z
loop_
_atom_site_type_symbol
_atom_site_label
_atom_site_fract_x
_atom_site_fract_y
_atom_site_fract_z
Si Si1 0.634227 0.375652 0.614802
Si Si2 0.050869 0.794997 0.780094
Si Si3 0.250000 0.180767 0.000000
Si Si4 0.310336 0.500000 0.750000
Si Si5 0.576436 0.088080 0.552005
Si Si6 0.629131 0.854028 0.450996
O O1 0.750000 0.384943 0.500000
O O2 0.576884 0.333815 0.478861
O O3 0.552174 0.415144 0.563928
O O4 0.664506 0.354526 0.884304
O O5 0.169494 0.788527 0.661414
O O6 0.000000 0.750000 0.890554
O O7 0.957719 0.815182 0.599881
O O8 0.250000 0.519871 0.500000
O O9 0.373270 0.459639 0.614801
O O10 0.618704 0.111806 0.292926
O O11 0.600840 0.119670 0.792514
O O12 0.750000 0.837976 0.500000
#
# Coordination Sequence:
#
# PCOD9333299 Si02
#       6
#     8   8   4   4   8   8
#     4   9  20  39  62  83 118 164 210 258 313 368
#     4  10  22  36  57  90 122 164 207 260 316 369
#     4  10  18  40  60  80 114 164 206 258 298 374
#     4  12  24  40  66  94 128 164 198 256 318 392
#     4  11  22  41  63  92 124 161 211 250 319 380
#     4  11  22  39  60  91 126 168 205 258 308 379
#
# _framework density 20.367260999999999
#
# number of rings (size 3 to 8) (size 9 to 14) (size 15 to 20)
#    0.000    1.600    2.000    3.600    1.400    0.800 
#    0.000    4.000    2.200    0.000    0.000    0.000 
#    0.000    0.000    0.000    0.000    0.000    0.000 
#
# Total GULP energy -111349.119731 kJ/mol
# GULP energy per Si atom -5567.455987 kJ/mol
# Density = 2.032090 g / cm^3
# Si number density = 20.367261 Si / 1000 Ang^3
#
#
#
# Elastic Constant Matrix: (Units=GPa)
#
#
# Indices 1 2 3 4 5 6 
#
# 1 125.0371 42.8303 26.6382 0.0148 0.0149 0.0198
# 2 42.8303 29.9906 -0.1884 0.0086 0.0114 0.0013
# 3 26.6382 -0.1884 84.7736 0.0114 -0.0103 0.0564
# 4 0.0148 0.0086 0.0114 8.2496 0.0087 -0.0192
# 5 0.0149 0.0114 -0.0103 0.0087 20.5490 -0.0173
# 6 0.0198 0.0013 0.0564 -0.0192 -0.0173 25.0384
#
#
#
# Elastic Compliance Matrix: (Units=1/GPa)
#
#
# Indices 1 2 3 4 5 6 
#
# 1 0.018074 -0.025847 -0.005737 0.000002 -0.000002 0.000000
# 2 -0.025847 0.070309 0.008278 -0.000038 -0.000016 -0.000002
# 3 -0.005737 0.008278 0.013617 -0.000017 0.000006 -0.000027
# 4 0.000002 -0.000038 -0.000017 0.121218 -0.000051 0.000093
# 5 -0.000002 -0.000016 0.000006 -0.000051 0.048664 0.000034
# 6 0.000000 -0.000002 -0.000027 0.000093 0.000034 0.039939
#
#
# Mechanical properties :
#
#
# Convention : Reuss Voigt Hill
#
# Bulk Modulus (GPa) = 18.05437 42.04018 30.04728
# Shear Modulus (GPa) = 13.26629 22.13549 17.70089
#
# Velocity S-wave (km/s) = 2.55493 3.30027 2.95122
# Velocity P-wave (km/s) = 4.19371 5.93365 5.13787
#
# Compressibility (1/GPa) = 0.05538824
#
# Stress axis : x y z
#
# Youngs Moduli (GPa) = 55.32947 14.22291 73.43675
#
# Poissons Ratio (x) = 0.36762 0.42128
# Poissons Ratio (y) = 1.43012 -0.60793
# Poissons Ratio (z) = 0.31741 -0.11774
#
# Static dielectric constant tensor:
#      x y z
#    x 1.912310 0.000010 0.000000 
#    y 0.000010 1.700950 -0.000010 
#    z 0.000000 -0.000010 1.821600 
# 
# From -- ./inp_files/2680.got.cif
#   From: 2010.05.17/outbox.cif.g08.bks.cpg/sg24_2_cif.got.tgz:2680.got - 2010.06.04 00:33:39.
