data_PCOD9333421
_publ_section_title
;
Structure prediction by ZEFSAII (Michael W. Deem and Ramdas Pophale) SiO2 
 PCOD9333421
Probable space group: I 21 21 21
;
_chemical_formula_sum "Si O2"
_cell_formula_units_Z 40
_cell_length_a 20.068591
_cell_length_b 5.254494
_cell_length_c 19.621010
_cell_angle_alpha 90.000000
_cell_angle_beta 90.000000
_cell_angle_gamma 90.000000
_cell_volume 2069.041214
_symmetry_space_group_name_H-M "I 21 21 21"
_symmetry_group_IT_number 24
_symmetry_cell_setting 'orthorhombic'
loop_
_space_group_symop_operation_xyz
x,y,z
-x,1/2-y,z
x,-y,1/2-z
1/2-x,y,-z
1/2+x,1/2+y,1/2+z
1/2-x,-y,1/2+z
1/2+x,1/2-y,-z
-x,1/2+y,1/2-z
loop_
_atom_site_type_symbol
_atom_site_label
_atom_site_fract_x
_atom_site_fract_y
_atom_site_fract_z
Si Si1 0.089154 0.344381 0.187903
Si Si2 0.758943 0.753912 0.288917
Si Si3 0.672087 0.559802 0.021710
Si Si4 0.427204 0.835316 0.898972
Si Si5 0.704045 0.070848 0.067816
O O1 0.052882 0.500000 0.250000
O O2 0.160852 0.257023 0.215518
O O3 0.099722 0.580273 0.137166
O O4 0.063830 0.087173 0.149619
O O5 0.735885 0.500000 0.250000
O O6 0.742215 0.809366 0.367860
O O7 0.732480 0.000000 0.250000
O O8 0.650990 0.287799 0.050640
O O9 0.672666 0.792251 0.074891
O O10 0.750000 0.530520 0.000000
O O11 0.626011 0.608952 0.957165
O O12 0.500000 0.750000 0.924197
O O13 0.750000 0.038273 0.000000
#
# Coordination Sequence:
#
# PCOD9333421 Si02
#       5
#     8   8   8   8   8
#     4  11  22  37  53  73 107 157 200 228 266 320
#     4  11  21  35  55  83 117 149 189 237 280 328
#     4  10  19  34  56  77 101 135 179 226 283 333
#     4  12  24  38  55  78 110 145 191 242 280 322
#     4  10  19  32  54  79 107 142 183 227 282 339
#
# _framework density 19.332626000000001
#
# number of rings (size 3 to 8) (size 9 to 14) (size 15 to 20)
#    0.000    1.200    0.000   10.800    0.000    1.600 
#    0.000    1.000    0.000    0.000    0.000    0.000 
#    0.000   16.000    0.000    0.000    0.000    0.000 
#
# Total GULP energy -111376.741524 kJ/mol
# GULP energy per Si atom -5568.837076 kJ/mol
# Density = 1.928862 g / cm^3
# Si number density = 19.332626 Si / 1000 Ang^3
#
#
#
# Elastic Constant Matrix: (Units=GPa)
#
#
# Indices 1 2 3 4 5 6 
#
# 1 48.4516 2.1898 19.2304 0.0000 0.0000 0.0000
# 2 2.1898 134.6909 2.7411 0.0000 0.0000 0.0000
# 3 19.2304 2.7411 70.6857 0.0000 0.0000 0.0000
# 4 0.0000 0.0000 0.0000 37.5692 0.0000 0.0000
# 5 0.0000 0.0000 0.0000 0.0000 22.2125 0.0000
# 6 0.0000 0.0000 0.0000 0.0000 0.0000 14.2874
#
#
#
# Elastic Compliance Matrix: (Units=1/GPa)
#
#
# Indices 1 2 3 4 5 6 
#
# 1 0.023146 -0.000248 -0.006287 0.000000 0.000000 0.000000
# 2 -0.000248 0.007433 -0.000221 0.000000 0.000000 0.000000
# 3 -0.006287 -0.000221 0.015866 0.000000 0.000000 0.000000
# 4 0.000000 0.000000 0.000000 0.026618 0.000000 0.000000
# 5 0.000000 0.000000 0.000000 0.000000 0.045020 0.000000
# 6 0.000000 0.000000 0.000000 0.000000 0.000000 0.069992
#
#
# Mechanical properties :
#
#
# Convention : Reuss Voigt Hill
#
# Bulk Modulus (GPa) = 30.36535 33.57230 31.96882
# Shear Modulus (GPa) = 23.52235 30.12495 26.82365
#
# Velocity S-wave (km/s) = 3.49193 3.95174 3.72893
# Velocity P-wave (km/s) = 5.65677 6.18264 5.92554
#
# Compressibility (1/GPa) = 0.03293227
#
# Stress axis : x y z
#
# Youngs Moduli (GPa) = 43.20441 134.53637 63.02715
#
# Poissons Ratio (x) = 0.03341 0.39627
# Poissons Ratio (y) = 0.01073 0.01391
# Poissons Ratio (z) = 0.27164 0.02969
#
# Static dielectric constant tensor:
#      x y z
#    x 1.523450 0.000000 0.000000 
#    y 0.000000 1.800360 0.000000 
#    z 0.000000 0.000000 1.675210 
# 
# From -- ./inp_files/4504.got.cif
#   From: 2010.05.17/outbox.cif.g08.bks.cpg/sg24_3_cif.got.tgz:4504.got - 2010.06.04 00:33:39.
