data_PCOD9333673
_publ_section_title
;
Structure prediction by ZEFSAII (Michael W. Deem and Ramdas Pophale) SiO2 
 PCOD9333673
Probable space group: I 21 21 21
;
_chemical_formula_sum "Si O2"
_cell_formula_units_Z 52
_cell_length_a 9.659093
_cell_length_b 20.094956
_cell_length_c 14.814044
_cell_angle_alpha 90.000000
_cell_angle_beta 90.000000
_cell_angle_gamma 90.000000
_cell_volume 2875.391850
_symmetry_space_group_name_H-M "I 21 21 21"
_symmetry_group_IT_number 24
_symmetry_cell_setting 'orthorhombic'
loop_
_space_group_symop_operation_xyz
x,y,z
-x,1/2-y,z
x,-y,1/2-z
1/2-x,y,-z
1/2+x,1/2+y,1/2+z
1/2-x,-y,1/2+z
1/2+x,1/2-y,-z
-x,1/2+y,1/2-z
loop_
_atom_site_type_symbol
_atom_site_label
_atom_site_fract_x
_atom_site_fract_y
_atom_site_fract_z
Si Si1 0.009267 0.408836 0.056660
Si Si2 0.202735 0.842547 0.317369
Si Si3 0.990579 0.879532 0.653462
Si Si4 0.850301 0.949895 0.085287
Si Si5 0.016802 0.675974 0.165194
Si Si6 0.663700 0.000000 0.250000
Si Si7 0.707715 0.808122 0.660571
O O1 0.059297 0.484068 0.069494
O O2 0.129025 0.359095 0.094311
O O3 0.874975 0.393530 0.116747
O O4 0.986772 0.393622 0.952222
O O5 0.363314 0.857816 0.306137
O O6 0.184907 0.769181 0.361382
O O7 0.120059 0.841355 0.223079
O O8 0.929274 0.944980 0.700943
O O9 0.869002 0.825239 0.662293
O O10 0.940381 0.883854 0.100683
O O11 0.760333 0.965149 0.175008
O O12 0.750000 0.941856 0.000000
O O13 0.136208 0.681645 0.242042
O O14 0.000000 0.750000 0.124759
#
# Coordination Sequence:
#
# PCOD9333673 Si02
#       7
#     8   8   8   8   8   4   8
#     4  11  21  36  57  91 119 158 210 244 297 371
#     4  10  23  36  55  89 130 167 187 251 312 365
#     4  12  22  35  56  88 125 158 207 249 307 362
#     4  12  21  40  71  90 112 160 209 255 302 356
#     4   9  20  40  65  87 113 155 207 248 305 364
#     4  12  22  38  60  94 114 154 202 270 284 364
#     4  10  19  36  59  86 122 165 207 241 292 367
#
# _framework density 18.084491
#
# number of rings (size 3 to 8) (size 9 to 14) (size 15 to 20)
#    0.000    1.231    4.615    3.692    0.000    4.923 
#    0.000    0.000    6.769    0.000    0.000    0.000 
#    0.000    0.000    0.000    0.000    0.000    0.000 
#
# Total GULP energy -145246.772766 kJ/mol
# GULP energy per Si atom -5586.414337 kJ/mol
# Density = 1.804333 g / cm^3
# Si number density = 18.084491 Si / 1000 Ang^3
#
#
#
# Elastic Constant Matrix: (Units=GPa)
#
#
# Indices 1 2 3 4 5 6 
#
# 1 114.5307 35.7715 17.6702 0.0000 0.0000 0.0000
# 2 35.7715 134.1136 36.2933 0.0000 0.0000 0.0000
# 3 17.6702 36.2933 42.3636 0.0000 0.0000 0.0000
# 4 0.0000 0.0000 0.0000 11.3150 0.0000 0.0000
# 5 0.0000 0.0000 0.0000 0.0000 6.7397 0.0000
# 6 0.0000 0.0000 0.0000 0.0000 0.0000 23.9919
#
#
#
# Elastic Compliance Matrix: (Units=1/GPa)
#
#
# Indices 1 2 3 4 5 6 
#
# 1 0.009706 -0.001944 -0.002383 0.000000 0.000000 0.000000
# 2 -0.001944 0.010096 -0.007839 0.000000 0.000000 0.000000
# 3 -0.002383 -0.007839 0.031315 0.000000 0.000000 0.000000
# 4 0.000000 0.000000 0.000000 0.088378 0.000000 0.000000
# 5 0.000000 0.000000 0.000000 0.000000 0.148374 0.000000
# 6 0.000000 0.000000 0.000000 0.000000 0.000000 0.041681
#
#
# Mechanical properties :
#
#
# Convention : Reuss Voigt Hill
#
# Bulk Modulus (GPa) = 37.33364 52.27535 44.80450
# Shear Modulus (GPa) = 13.78132 21.82751 17.80442
#
# Velocity S-wave (km/s) = 2.76352 3.47792 3.14110
# Velocity P-wave (km/s) = 5.55622 6.71542 6.16313
#
# Compressibility (1/GPa) = 0.02678549
#
# Stress axis : x y z
#
# Youngs Moduli (GPa) = 103.02784 99.04790 31.93401
#
# Poissons Ratio (x) = 0.19255 0.07610
# Poissons Ratio (y) = 0.20028 0.25032
# Poissons Ratio (z) = 0.24552 0.77640
#
# Static dielectric constant tensor:
#      x y z
#    x 1.619600 0.000000 0.000000 
#    y 0.000000 1.628220 0.000000 
#    z 0.000000 0.000000 1.593170 
# 
# From -- ./inp_files/24992.got.cif
#   From: 2010.05.17/outbox.cif.g08.bks.cpg/sg24_13_cif.got.tgz:24992.got - 2010.06.04 00:33:39.
