data_PCOD9333858
_publ_section_title
;
Structure prediction by ZEFSAII (Michael W. Deem and Ramdas Pophale) SiO2 
 PCOD9333858
Probable space group: I 21 21 21
;
_chemical_formula_sum "Si O2"
_cell_formula_units_Z 36
_cell_length_a 9.039879
_cell_length_b 8.053735
_cell_length_c 20.051093
_cell_angle_alpha 90.000000
_cell_angle_beta 90.000000
_cell_angle_gamma 90.000000
_cell_volume 1459.815613
_symmetry_space_group_name_H-M "I 21 21 21"
_symmetry_group_IT_number 24
_symmetry_cell_setting 'orthorhombic'
loop_
_space_group_symop_operation_xyz
x,y,z
-x,1/2-y,z
x,-y,1/2-z
1/2-x,y,-z
1/2+x,1/2+y,1/2+z
1/2-x,-y,1/2+z
1/2+x,1/2-y,-z
-x,1/2+y,1/2-z
loop_
_atom_site_type_symbol
_atom_site_label
_atom_site_fract_x
_atom_site_fract_y
_atom_site_fract_z
Si Si1 0.161916 0.228911 0.127448
Si Si2 0.404670 0.010182 0.990066
Si Si3 0.236908 0.432195 0.677353
Si Si4 0.000000 0.250000 0.385951
Si Si5 0.448996 0.934850 0.356532
O O1 0.234319 0.408519 0.130369
O O2 0.272368 0.087724 0.156621
O O3 0.000000 0.250000 0.159243
O O4 0.138890 0.173660 0.051224
O O5 0.492447 0.904654 0.936378
O O6 0.250000 0.912682 0.000000
O O7 0.464155 0.042178 0.063364
O O8 0.278023 0.500000 0.750000
O O9 0.349610 0.286595 0.656124
O O10 0.056983 0.426902 0.674725
O O11 0.500000 0.750000 0.336089
#
# Coordination Sequence:
#
# PCOD9333858 Si02
#       5
#     8   8   8   4   8
#     4  10  19  43  70  95 131 181 240 288 346 444
#     4  10  22  39  63 104 140 174 232 294 382 434
#     4  11  26  45  67 100 143 195 247 291 355 439
#     4  12  26  38  66 102 146 192 224 318 372 422
#     4   9  21  41  70  99 131 184 231 301 352 425
#
# _framework density 24.66065
#
# number of rings (size 3 to 8) (size 9 to 14) (size 15 to 20)
#    0.000    1.778    2.222    0.667    4.667    1.778 
#    0.000   14.444    0.000    0.000    0.000    0.000 
#    0.000    0.000    0.000    0.000    0.000    0.000 
#
# Total GULP energy -100256.116365 kJ/mol
# GULP energy per Si atom -5569.784243 kJ/mol
# Density = 2.460452 g / cm^3
# Si number density = 24.660650 Si / 1000 Ang^3
#
#
#
# Elastic Constant Matrix: (Units=GPa)
#
#
# Indices 1 2 3 4 5 6 
#
# 1 185.3371 35.4702 15.3080 0.0000 0.0000 0.0000
# 2 35.4702 95.3928 30.1677 0.0000 0.0000 0.0000
# 3 15.3080 30.1677 84.5496 0.0000 0.0000 0.0000
# 4 0.0000 0.0000 0.0000 13.8655 0.0000 0.0000
# 5 0.0000 0.0000 0.0000 0.0000 23.3468 0.0000
# 6 0.0000 0.0000 0.0000 0.0000 0.0000 44.7911
#
#
#
# Elastic Compliance Matrix: (Units=1/GPa)
#
#
# Indices 1 2 3 4 5 6 
#
# 1 0.005816 -0.002062 -0.000317 0.000000 0.000000 0.000000
# 2 -0.002062 0.012548 -0.004104 0.000000 0.000000 0.000000
# 3 -0.000317 -0.004104 0.013349 0.000000 0.000000 0.000000
# 4 0.000000 0.000000 0.000000 0.072122 0.000000 0.000000
# 5 0.000000 0.000000 0.000000 0.000000 0.042833 0.000000
# 6 0.000000 0.000000 0.000000 0.000000 0.000000 0.022326
#
#
# Mechanical properties :
#
#
# Convention : Reuss Voigt Hill
#
# Bulk Modulus (GPa) = 53.34320 58.57459 55.95890
# Shear Modulus (GPa) = 26.56629 35.35625 30.96127
#
# Velocity S-wave (km/s) = 3.28575 3.79055 3.54714
# Velocity P-wave (km/s) = 6.00605 6.55450 6.28626
#
# Compressibility (1/GPa) = 0.01874653
#
# Stress axis : x y z
#
# Youngs Moduli (GPa) = 171.92506 79.69641 74.91194
#
# Poissons Ratio (x) = 0.16437 0.02376
# Poissons Ratio (y) = 0.35459 0.30741
# Poissons Ratio (z) = 0.05454 0.32705
#
# Static dielectric constant tensor:
#      x y z
#    x 2.234180 0.000000 0.000000 
#    y 0.000000 2.028760 0.000000 
#    z 0.000000 0.000000 1.926170 
# 
# From -- ./inp_files/32501.got.cif
#   From: 2010.05.17/outbox.cif.g08.bks.cpg/sg24_17_cif.got.tgz:32501.got - 2010.06.04 00:33:39.
