data_PCOD9333626
_publ_section_title
;
Structure prediction by ZEFSAII (Michael W. Deem and Ramdas Pophale) SiO2 
 PCOD9333626
Probable space group: I 21 21 21
;
_chemical_formula_sum "Si O2"
_cell_formula_units_Z 56
_cell_length_a 12.243785
_cell_length_b 11.561672
_cell_length_c 18.932637
_cell_angle_alpha 90.000000
_cell_angle_beta 90.000000
_cell_angle_gamma 90.000000
_cell_volume 2680.078084
_symmetry_space_group_name_H-M "I 21 21 21"
_symmetry_group_IT_number 24
_symmetry_cell_setting 'orthorhombic'
loop_
_space_group_symop_operation_xyz
x,y,z
-x,1/2-y,z
x,-y,1/2-z
1/2-x,y,-z
1/2+x,1/2+y,1/2+z
1/2-x,-y,1/2+z
1/2+x,1/2-y,-z
-x,1/2+y,1/2-z
loop_
_atom_site_type_symbol
_atom_site_label
_atom_site_fract_x
_atom_site_fract_y
_atom_site_fract_z
Si Si1 0.572136 0.945932 0.864569
Si Si2 0.725408 0.661822 0.274717
Si Si3 0.044016 0.000000 0.750000
Si Si4 0.757111 0.737267 0.115979
Si Si5 0.063143 0.414610 0.615916
Si Si6 0.409924 0.000000 0.750000
Si Si7 0.432400 0.130595 0.516767
Si Si8 0.769523 0.077464 0.822333
O O1 0.655298 0.838509 0.868037
O O2 0.487872 0.928771 0.801382
O O3 0.500551 0.955979 0.934063
O O4 0.648558 0.054976 0.850894
O O5 0.621620 0.584591 0.294133
O O6 0.732695 0.672486 0.189002
O O7 0.833034 0.588324 0.292644
O O8 0.715768 0.789649 0.304189
O O9 0.980420 0.915933 0.803658
O O10 0.646206 0.808765 0.096940
O O11 0.817877 0.658662 0.057024
O O12 0.142598 0.526567 0.621981
O O13 0.960599 0.412382 0.562568
O O14 0.500000 0.250000 0.523209
O O15 0.775202 0.000000 0.750000
#
# Coordination Sequence:
#
# PCOD9333626 Si02
#       8
#     8   8   4   8   8   4   8   8
#     4  10  19  35  59  97 129 171 223 271 363 414
#     4  11  22  38  61  96 130 173 229 283 339 399
#     4  11  26  41  64  96 132 185 232 287 338 406
#     4  10  20  38  63  92 135 169 216 277 346 420
#     4  11  23  42  61  94 129 175 224 272 347 416
#     4  11  20  33  62  92 136 169 218 299 340 412
#     4  10  23  37  62  98 131 172 213 284 360 411
#     4  11  20  36  63  91 128 180 228 282 331 422
#
# _framework density 20.894915000000001
#
# number of rings (size 3 to 8) (size 9 to 14) (size 15 to 20)
#    0.000    1.429    5.714    0.000    2.000    8.571 
#    0.000    0.000    0.000    5.143    0.000    0.000 
#    0.000    0.000    0.000    0.000    0.000    0.000 
#
# Total GULP energy -156111.479116 kJ/mol
# GULP energy per Si atom -5575.409968 kJ/mol
# Density = 2.084736 g / cm^3
# Si number density = 20.894915 Si / 1000 Ang^3
#
#
#
# Elastic Constant Matrix: (Units=GPa)
#
#
# Indices 1 2 3 4 5 6 
#
# 1 103.8967 38.8852 39.4867 0.0000 0.0000 0.0000
# 2 38.8852 105.6041 16.3555 0.0000 0.0000 0.0000
# 3 39.4867 16.3555 83.8744 0.0000 0.0000 0.0000
# 4 0.0000 0.0000 0.0000 24.6265 0.0000 0.0000
# 5 0.0000 0.0000 0.0000 0.0000 37.4097 0.0000
# 6 0.0000 0.0000 0.0000 0.0000 0.0000 15.1065
#
#
#
# Elastic Compliance Matrix: (Units=1/GPa)
#
#
# Indices 1 2 3 4 5 6 
#
# 1 0.013191 -0.004017 -0.005427 0.000000 0.000000 0.000000
# 2 -0.004017 0.010987 -0.000252 0.000000 0.000000 0.000000
# 3 -0.005427 -0.000252 0.014526 0.000000 0.000000 0.000000
# 4 0.000000 0.000000 0.000000 0.040607 0.000000 0.000000
# 5 0.000000 0.000000 0.000000 0.000000 0.026731 0.000000
# 6 0.000000 0.000000 0.000000 0.000000 0.000000 0.066196
#
#
# Mechanical properties :
#
#
# Convention : Reuss Voigt Hill
#
# Bulk Modulus (GPa) = 51.77415 53.64778 52.71096
# Shear Modulus (GPa) = 25.24404 28.67173 26.95789
#
# Velocity S-wave (km/s) = 3.47961 3.70832 3.59578
# Velocity P-wave (km/s) = 6.40122 6.63825 6.52081
#
# Compressibility (1/GPa) = 0.01931466
#
# Stress axis : x y z
#
# Youngs Moduli (GPa) = 75.81106 91.01449 68.83982
#
# Poissons Ratio (x) = 0.36557 0.37358
# Poissons Ratio (y) = 0.30450 0.01732
# Poissons Ratio (z) = 0.41141 0.02290
#
# Static dielectric constant tensor:
#      x y z
#    x 1.853510 0.000000 0.000000 
#    y 0.000000 1.723620 0.000000 
#    z 0.000000 0.000000 1.809060 
# 
# From -- ./inp_files/33420.got.cif
#   From: 2010.05.17/outbox.cif.g08.bks.cpg/sg24_17_cif.got.tgz:33420.got - 2010.06.04 00:33:39.
