data_PCOD9333661
_publ_section_title
;
Structure prediction by ZEFSAII (Michael W. Deem and Ramdas Pophale) SiO2 
 PCOD9333661
Probable space group: I 21 21 21
;
_chemical_formula_sum "Si O2"
_cell_formula_units_Z 60
_cell_length_a 17.878017
_cell_length_b 5.287969
_cell_length_c 27.276640
_cell_angle_alpha 90.000000
_cell_angle_beta 90.000000
_cell_angle_gamma 90.000000
_cell_volume 2578.689894
_symmetry_space_group_name_H-M "I 21 21 21"
_symmetry_group_IT_number 24
_symmetry_cell_setting 'orthorhombic'
loop_
_space_group_symop_operation_xyz
x,y,z
-x,1/2-y,z
x,-y,1/2-z
1/2-x,y,-z
1/2+x,1/2+y,1/2+z
1/2-x,-y,1/2+z
1/2+x,1/2-y,-z
-x,1/2+y,1/2-z
loop_
_atom_site_type_symbol
_atom_site_label
_atom_site_fract_x
_atom_site_fract_y
_atom_site_fract_z
Si Si1 0.406244 0.478191 0.950333
Si Si2 0.399102 0.923644 0.196256
Si Si3 0.418485 0.607482 0.438378
Si Si4 0.672261 0.103815 0.156632
Si Si5 0.500000 0.750000 0.120528
Si Si6 0.415795 0.957307 0.697121
Si Si7 0.428675 0.984440 0.909948
Si Si8 0.680525 0.957213 0.803519
O O1 0.382494 0.741286 0.926475
O O2 0.496993 0.498942 0.943354
O O3 0.382665 0.236806 0.919326
O O4 0.389949 0.421906 0.006695
O O5 0.371046 0.636560 0.183145
O O6 0.466463 0.956996 0.157271
O O7 0.427356 0.000000 0.250000
O O8 0.336649 0.136536 0.186895
O O9 0.500000 0.750000 0.438666
O O10 0.360056 0.686113 0.396563
O O11 0.436390 0.331634 0.416666
O O12 0.757083 0.012166 0.156522
O O13 0.383118 0.674079 0.695146
O O14 0.454002 0.000000 0.750000
O O15 0.456667 0.009847 0.645988
O O16 0.351945 0.174859 0.695553
O O17 0.717486 0.000000 0.750000
#
# Coordination Sequence:
#
# PCOD9333661 Si02
#       8
#     8   8   8   8   4   8   8   8
#     4  10  21  34  60  85 116 152 184 229 282 354
#     4  11  22  34  49  73 107 146 184 234 299 346
#     4  11  20  37  56  82 112 145 203 232 292 340
#     4  11  23  36  58  80 110 148 198 249 281 341
#     4  10  22  32  50  74 110 142 188 240 278 350
#     4  10  21  37  62  86 116 150 190 234 280 345
#     4  10  19  36  57  89 115 149 189 223 285 345
#     4  10  20  37  58  83 110 152 198 238 287 335
#
# _framework density 23.267631000000002
#
# number of rings (size 3 to 8) (size 9 to 14) (size 15 to 20)
#    0.000    1.600    2.667    3.600    0.000    3.200 
#    0.000    2.667    0.000    4.800    0.000    0.000 
#    0.000    0.000    0.000    0.000    0.000    0.000 
#
# Total GULP energy -167215.047836 kJ/mol
# GULP energy per Si atom -5573.834928 kJ/mol
# Density = 2.321467 g / cm^3
# Si number density = 23.267631 Si / 1000 Ang^3
#
#
#
# Elastic Constant Matrix: (Units=GPa)
#
#
# Indices 1 2 3 4 5 6 
#
# 1 39.5932 17.3426 8.4576 0.0000 0.0000 0.0000
# 2 17.3426 154.6532 31.6254 0.0000 0.0000 0.0000
# 3 8.4576 31.6254 161.6978 0.0000 0.0000 0.0000
# 4 0.0000 0.0000 0.0000 11.6239 0.0000 0.0000
# 5 0.0000 0.0000 0.0000 0.0000 5.5503 0.0000
# 6 0.0000 0.0000 0.0000 0.0000 0.0000 29.3922
#
#
#
# Elastic Compliance Matrix: (Units=1/GPa)
#
#
# Indices 1 2 3 4 5 6 
#
# 1 0.026672 -0.002818 -0.000844 0.000000 0.000000 0.000000
# 2 -0.002818 0.007033 -0.001228 0.000000 0.000000 0.000000
# 3 -0.000844 -0.001228 0.006469 0.000000 0.000000 0.000000
# 4 0.000000 0.000000 0.000000 0.086030 0.000000 0.000000
# 5 0.000000 0.000000 0.000000 0.000000 0.180169 0.000000
# 6 0.000000 0.000000 0.000000 0.000000 0.000000 0.034023
#
#
# Mechanical properties :
#
#
# Convention : Reuss Voigt Hill
#
# Bulk Modulus (GPa) = 32.90247 52.31060 42.60653
# Shear Modulus (GPa) = 13.87706 29.21453 21.54580
#
# Velocity S-wave (km/s) = 2.44480 3.54727 3.04632
# Velocity P-wave (km/s) = 4.70542 6.26964 5.54299
#
# Compressibility (1/GPa) = 0.03039286
#
# Stress axis : x y z
#
# Youngs Moduli (GPa) = 37.49307 142.18125 154.58995
#
# Poissons Ratio (x) = 0.40072 0.13045
# Poissons Ratio (y) = 0.10567 0.18986
# Poissons Ratio (z) = 0.03164 0.17462
#
# Static dielectric constant tensor:
#      x y z
#    x 1.991910 0.000000 0.000000 
#    y 0.000000 2.205180 0.000000 
#    z 0.000000 0.000000 1.877720 
# 
# From -- ./inp_files/36096.got.cif
#   From: 2010.05.17/outbox.cif.g08.bks.cpg/sg24_19_cif.got.tgz:36096.got - 2010.06.04 00:33:39.
