data_PCOD9333224
_publ_section_title
;
Structure prediction by ZEFSAII (Michael W. Deem and Ramdas Pophale) SiO2 
 PCOD9333224
Probable space group: I 21 21 21
;
_chemical_formula_sum "Si O2"
_cell_formula_units_Z 48
_cell_length_a 18.438773
_cell_length_b 8.303453
_cell_length_c 15.069235
_cell_angle_alpha 90.000000
_cell_angle_beta 90.000000
_cell_angle_gamma 90.000000
_cell_volume 2307.182533
_symmetry_space_group_name_H-M "I 21 21 21"
_symmetry_group_IT_number 24
_symmetry_cell_setting 'orthorhombic'
loop_
_space_group_symop_operation_xyz
x,y,z
-x,1/2-y,z
x,-y,1/2-z
1/2-x,y,-z
1/2+x,1/2+y,1/2+z
1/2-x,-y,1/2+z
1/2+x,1/2-y,-z
-x,1/2+y,1/2-z
loop_
_atom_site_type_symbol
_atom_site_label
_atom_site_fract_x
_atom_site_fract_y
_atom_site_fract_z
Si Si1 0.436963 0.121862 0.669462
Si Si2 0.283321 0.727743 0.405168
Si Si3 0.557797 0.110294 0.162687
Si Si4 0.287128 0.805591 0.766341
Si Si5 0.537994 0.581841 0.021606
Si Si6 0.698108 0.385435 0.419477
O O1 0.500000 0.250000 0.675772
O O2 0.361628 0.218349 0.681221
O O3 0.440885 0.022856 0.577192
O O4 0.443106 0.000000 0.750000
O O5 0.250000 0.671359 0.500000
O O6 0.363521 0.665820 0.376301
O O7 0.227137 0.707569 0.323130
O O8 0.289119 0.922429 0.410740
O O9 0.500000 0.250000 0.189375
O O10 0.568156 0.000000 0.250000
O O11 0.513933 0.023812 0.082537
O O12 0.220824 0.785906 0.833338
O O13 0.288305 0.000000 0.750000
O O14 0.500000 0.750000 0.005948
O O15 0.613346 0.624630 0.067213
O O16 0.750000 0.331982 0.500000
#
# Coordination Sequence:
#
# PCOD9333224 Si02
#       6
#     8   8   8   8   8   8
#     4  10  22  40  63  97 127 171 221 272 328 386
#     4  10  23  41  64  96 127 171 225 270 328 399
#     4  12  27  44  67  99 137 176 220 275 346 412
#     4   9  19  34  62  91 122 163 218 265 312 387
#     4  11  24  41  64  97 135 171 220 273 337 402
#     4  10  18  36  65  94 126 170 220 266 319 391
#
# _framework density 20.804596
#
# number of rings (size 3 to 8) (size 9 to 14) (size 15 to 20)
#    0.000    1.667    3.333    0.500    7.000    2.000 
#    0.000    5.000    0.000    0.000    0.000    0.000 
#    0.000    0.000    0.000    0.000    0.000    0.000 
#
# Total GULP energy -133804.712882 kJ/mol
# GULP energy per Si atom -5575.196370 kJ/mol
# Density = 2.075724 g / cm^3
# Si number density = 20.804596 Si / 1000 Ang^3
#
#
#
# Elastic Constant Matrix: (Units=GPa)
#
#
# Indices 1 2 3 4 5 6 
#
# 1 129.4475 15.8179 73.2874 0.0000 0.0000 0.0000
# 2 15.8179 21.1121 31.8915 0.0000 0.0000 0.0000
# 3 73.2874 31.8915 172.6746 0.0000 0.0000 0.0000
# 4 0.0000 0.0000 0.0000 10.8228 0.0000 0.0000
# 5 0.0000 0.0000 0.0000 0.0000 36.9138 0.0000
# 6 0.0000 0.0000 0.0000 0.0000 0.0000 6.4097
#
#
#
# Elastic Compliance Matrix: (Units=1/GPa)
#
#
# Indices 1 2 3 4 5 6 
#
# 1 0.010204 -0.001530 -0.004048 0.000000 0.000000 0.000000
# 2 -0.001530 0.065924 -0.011526 0.000000 0.000000 0.000000
# 3 -0.004048 -0.011526 0.009638 0.000000 0.000000 0.000000
# 4 0.000000 0.000000 0.000000 0.092398 0.000000 0.000000
# 5 0.000000 0.000000 0.000000 0.000000 0.027090 0.000000
# 6 0.000000 0.000000 0.000000 0.000000 0.000000 0.156014
#
#
# Mechanical properties :
#
#
# Convention : Reuss Voigt Hill
#
# Bulk Modulus (GPa) = 19.39595 62.80310 41.09953
# Shear Modulus (GPa) = 12.11642 24.31173 18.21407
#
# Velocity S-wave (km/s) = 2.41590 3.42215 2.96207
# Velocity P-wave (km/s) = 4.13826 6.77255 5.61216
#
# Compressibility (1/GPa) = 0.05155716
#
# Stress axis : x y z
#
# Youngs Moduli (GPa) = 98.00027 15.16902 103.75362
#
# Poissons Ratio (x) = 0.02321 0.42002
# Poissons Ratio (y) = 0.14994 1.19588
# Poissons Ratio (z) = 0.39673 0.17484
#
# Static dielectric constant tensor:
#      x y z
#    x 1.758420 0.000000 0.000000 
#    y 0.000000 1.736170 0.000000 
#    z 0.000000 0.000000 1.872620 
# 
# From -- ./inp_files/14142.got.cif
#   From: 2010.05.17/outbox.cif.g08.bks.cpg/sg24_8_cif.got.tgz:14142.got - 2010.06.04 00:33:39.
