data_PCOD9333786
_publ_section_title
;
Structure prediction by ZEFSAII (Michael W. Deem and Ramdas Pophale) SiO2 
 PCOD9333786
Probable space group: I 21 21 21
;
_chemical_formula_sum "Si O2"
_cell_formula_units_Z 64
_cell_length_a 11.808351
_cell_length_b 8.674544
_cell_length_c 29.884726
_cell_angle_alpha 90.000000
_cell_angle_beta 90.000000
_cell_angle_gamma 90.000000
_cell_volume 3061.154056
_symmetry_space_group_name_H-M "I 21 21 21"
_symmetry_group_IT_number 24
_symmetry_cell_setting 'orthorhombic'
loop_
_space_group_symop_operation_xyz
x,y,z
-x,1/2-y,z
x,-y,1/2-z
1/2-x,y,-z
1/2+x,1/2+y,1/2+z
1/2-x,-y,1/2+z
1/2+x,1/2-y,-z
-x,1/2+y,1/2-z
loop_
_atom_site_type_symbol
_atom_site_label
_atom_site_fract_x
_atom_site_fract_y
_atom_site_fract_z
Si Si1 0.107191 0.863513 0.213387
Si Si2 0.006703 0.937610 0.702959
Si Si3 0.273902 0.960423 0.450456
Si Si4 0.913970 0.556972 0.374849
Si Si5 0.614931 0.167721 0.080752
Si Si6 0.536221 0.419892 0.390279
Si Si7 0.244842 0.588117 0.793407
Si Si8 0.343504 0.619139 0.634298
O O1 0.224309 0.765109 0.214028
O O2 0.000000 0.750000 0.222285
O O3 0.107656 0.000000 0.250000
O O4 0.096125 0.926648 0.162568
O O5 0.000000 0.750000 0.704917
O O6 0.055744 0.000000 0.750000
O O7 0.883331 0.024931 0.700087
O O8 0.062690 0.991366 0.656468
O O9 0.250000 0.016378 0.500000
O O10 0.165108 0.947804 0.418394
O O11 0.338951 0.793117 0.454814
O O12 0.356400 0.068939 0.422136
O O13 0.877463 0.712387 0.347737
O O14 0.043101 0.572918 0.391844
O O15 0.500000 0.250000 0.098290
O O16 0.724359 0.149519 0.111066
O O17 0.564586 0.996310 0.079728
O O18 0.500000 0.250000 0.377749
O O19 0.286845 0.500000 0.750000
O O20 0.319726 0.519991 0.832818
#
# Coordination Sequence:
#
# PCOD9333786 Si02
#       8
#     8   8   8   8   8   8   8   8
#     4  12  25  41  65  97 142 194 244 290 348 428
#     4  11  24  44  70 102 142 186 241 293 348 428
#     4  10  23  46  71  98 137 177 238 303 368 444
#     4  10  23  38  65  99 132 183 229 302 359 422
#     4   9  19  40  67  97 126 180 228 287 361 430
#     4  11  23  42  72 100 142 186 233 288 367 429
#     4  11  23  39  64  95 133 185 235 292 340 427
#     4  10  19  38  62  92 137 168 233 291 355 411
#
# _framework density 20.907147999999999
#
# number of rings (size 3 to 8) (size 9 to 14) (size 15 to 20)
#    0.000    1.500    2.500    2.625    5.250    0.000 
#   13.500    1.250    0.000    0.000    0.000    0.000 
#    0.000    0.000    0.000    0.000    0.000    0.000 
#
# Total GULP energy -178150.191421 kJ/mol
# GULP energy per Si atom -5567.193482 kJ/mol
# Density = 2.085956 g / cm^3
# Si number density = 20.907148 Si / 1000 Ang^3
#
#
#
# Elastic Constant Matrix: (Units=GPa)
#
#
# Indices 1 2 3 4 5 6 
#
# 1 130.1684 28.7020 35.8112 0.0000 0.0000 0.0000
# 2 28.7020 102.1961 40.1920 0.0000 0.0000 0.0000
# 3 35.8112 40.1920 118.9398 0.0000 0.0000 0.0000
# 4 0.0000 0.0000 0.0000 18.2531 0.0000 0.0000
# 5 0.0000 0.0000 0.0000 0.0000 21.0059 0.0000
# 6 0.0000 0.0000 0.0000 0.0000 0.0000 24.0669
#
#
#
# Elastic Compliance Matrix: (Units=1/GPa)
#
#
# Indices 1 2 3 4 5 6 
#
# 1 0.008600 -0.001611 -0.002045 0.000000 0.000000 0.000000
# 2 -0.001611 0.011587 -0.003430 0.000000 0.000000 0.000000
# 3 -0.002045 -0.003430 0.010182 0.000000 0.000000 0.000000
# 4 0.000000 0.000000 0.000000 0.054785 0.000000 0.000000
# 5 0.000000 0.000000 0.000000 0.000000 0.047606 0.000000
# 6 0.000000 0.000000 0.000000 0.000000 0.000000 0.041551
#
#
# Mechanical properties :
#
#
# Convention : Reuss Voigt Hill
#
# Bulk Modulus (GPa) = 61.74129 62.30162 62.02145
# Shear Modulus (GPa) = 25.78881 29.10514 27.44697
#
# Velocity S-wave (km/s) = 3.51592 3.73515 3.62719
# Velocity P-wave (km/s) = 6.78805 6.96173 6.87544
#
# Compressibility (1/GPa) = 0.01619662
#
# Stress axis : x y z
#
# Youngs Moduli (GPa) = 116.27617 86.30615 98.20789
#
# Poissons Ratio (x) = 0.13905 0.20083
# Poissons Ratio (y) = 0.18734 0.33688
# Poissons Ratio (z) = 0.23778 0.29605
#
# Static dielectric constant tensor:
#      x y z
#    x 1.809120 0.000000 0.000000 
#    y 0.000000 1.885690 0.000000 
#    z 0.000000 0.000000 1.720530 
# 
# From -- ./inp_files/38614.got.cif
#   From: 2010.05.17/outbox.cif.g08.bks.cpg/sg24_20_cif.got.tgz:38614.got - 2010.06.04 00:33:39.
