data_PCOD9333285
_publ_section_title
;
Structure prediction by ZEFSAII (Michael W. Deem and Ramdas Pophale) SiO2 
 PCOD9333285
Probable space group: I 21 21 21
;
_chemical_formula_sum "Si O2"
_cell_formula_units_Z 40
_cell_length_a 12.631610
_cell_length_b 13.623160
_cell_length_c 8.920699
_cell_angle_alpha 90.000000
_cell_angle_beta 90.000000
_cell_angle_gamma 90.000000
_cell_volume 1535.095687
_symmetry_space_group_name_H-M "I 21 21 21"
_symmetry_group_IT_number 24
_symmetry_cell_setting 'orthorhombic'
loop_
_space_group_symop_operation_xyz
x,y,z
-x,1/2-y,z
x,-y,1/2-z
1/2-x,y,-z
1/2+x,1/2+y,1/2+z
1/2-x,-y,1/2+z
1/2+x,1/2-y,-z
-x,1/2+y,1/2-z
loop_
_atom_site_type_symbol
_atom_site_label
_atom_site_fract_x
_atom_site_fract_y
_atom_site_fract_z
Si Si1 0.658131 0.606972 0.241261
Si Si2 0.958222 0.912358 0.982748
Si Si3 0.697131 0.801608 0.356333
Si Si4 0.513754 0.380085 0.973406
Si Si5 0.791191 0.000000 0.750000
Si Si6 0.000000 0.250000 0.298347
O O1 0.716120 0.500000 0.250000
O O2 0.563611 0.603839 0.118219
O O3 0.703084 0.717745 0.230144
O O4 0.604081 0.609746 0.403994
O O5 0.864812 0.942740 0.870042
O O6 0.936769 0.820660 0.089005
O O7 0.978475 0.011627 0.072467
O O8 0.750000 0.755807 0.500000
O O9 0.581148 0.832671 0.422428
O O10 0.759364 0.903902 0.323412
O O11 0.549356 0.323424 0.824700
#
# Coordination Sequence:
#
# PCOD9333285 Si02
#       6
#     8   8   8   8   4   4
#     4  10  18  38  69  83 107 160 217 248 280 358
#     4  10  19  33  62  86 110 153 203 249 282 357
#     4  11  21  37  61  83 121 161 192 248 305 360
#     4  10  20  37  56  89 120 145 196 253 306 349
#     4  10  20  40  58  90 114 162 214 230 290 374
#     4  12  20  28  56  92 122 140 178 260 316 342
#
# _framework density 26.057008
#
# number of rings (size 3 to 8) (size 9 to 14) (size 15 to 20)
#    0.000    1.600    7.000    1.800    0.000    0.000 
#    7.200    0.000    8.800    0.000    0.000    0.000 
#    0.000    0.000    0.000    0.000    0.000    0.000 
#
# Total GULP energy -111526.179401 kJ/mol
# GULP energy per Si atom -5576.308970 kJ/mol
# Density = 2.599770 g / cm^3
# Si number density = 26.057008 Si / 1000 Ang^3
#
#
#
# Elastic Constant Matrix: (Units=GPa)
#
#
# Indices 1 2 3 4 5 6 
#
# 1 30.4721 36.6071 10.4542 0.0000 0.0000 0.0000
# 2 36.6071 207.0463 63.6081 0.0000 0.0000 0.0000
# 3 10.4542 63.6081 122.1645 0.0000 0.0000 0.0000
# 4 0.0000 0.0000 0.0000 70.1891 0.0000 0.0000
# 5 0.0000 0.0000 0.0000 0.0000 17.7624 0.0000
# 6 0.0000 0.0000 0.0000 0.0000 0.0000 14.9310
#
#
#
# Elastic Compliance Matrix: (Units=1/GPa)
#
#
# Indices 1 2 3 4 5 6 
#
# 1 0.041678 -0.007468 0.000322 0.000000 0.000000 0.000000
# 2 -0.007468 0.007088 -0.003051 0.000000 0.000000 0.000000
# 3 0.000322 -0.003051 0.009747 0.000000 0.000000 0.000000
# 4 0.000000 0.000000 0.000000 0.014247 0.000000 0.000000
# 5 0.000000 0.000000 0.000000 0.000000 0.056299 0.000000
# 6 0.000000 0.000000 0.000000 0.000000 0.000000 0.066975
#
#
# Mechanical properties :
#
#
# Convention : Reuss Voigt Hill
#
# Bulk Modulus (GPa) = 26.23461 64.55796 45.39629
# Shear Modulus (GPa) = 21.82135 37.17740 29.49938
#
# Velocity S-wave (km/s) = 2.89701 3.78136 3.36833
# Velocity P-wave (km/s) = 4.61305 6.62528 5.70853
#
# Compressibility (1/GPa) = 0.03811758
#
# Stress axis : x y z
#
# Youngs Moduli (GPa) = 23.99364 141.09184 102.59692
#
# Poissons Ratio (x) = 1.05363 -0.03301
# Poissons Ratio (y) = 0.17918 0.31305
# Poissons Ratio (z) = -0.00772 0.43051
#
# Static dielectric constant tensor:
#      x y z
#    x 2.162100 0.000000 0.000000 
#    y 0.000000 2.248020 0.000000 
#    z 0.000000 0.000000 2.021610 
# 
# From -- ./inp_files/12377.got.cif
#   From: 2010.05.17/outbox.cif.g08.bks.cpg/sg24_7_cif.got.tgz:12377.got - 2010.06.04 00:33:39.
