data_PCOD9333363
_publ_section_title
;
Structure prediction by ZEFSAII (Michael W. Deem and Ramdas Pophale) SiO2 
 PCOD9333363
Probable space group: I 21 21 21
;
_chemical_formula_sum "Si O2"
_cell_formula_units_Z 32
_cell_length_a 14.737972
_cell_length_b 4.989047
_cell_length_c 20.891363
_cell_angle_alpha 90.000000
_cell_angle_beta 90.000000
_cell_angle_gamma 90.000000
_cell_volume 1536.109226
_symmetry_space_group_name_H-M "I 21 21 21"
_symmetry_group_IT_number 24
_symmetry_cell_setting 'orthorhombic'
loop_
_space_group_symop_operation_xyz
x,y,z
-x,1/2-y,z
x,-y,1/2-z
1/2-x,y,-z
1/2+x,1/2+y,1/2+z
1/2-x,-y,1/2+z
1/2+x,1/2-y,-z
-x,1/2+y,1/2-z
loop_
_atom_site_type_symbol
_atom_site_label
_atom_site_fract_x
_atom_site_fract_y
_atom_site_fract_z
Si Si1 0.630535 0.503987 0.894599
Si Si2 0.000000 0.250000 0.008349
Si Si3 0.756333 0.002042 0.077264
Si Si4 0.939386 0.007756 0.884466
Si Si5 0.500000 0.750000 0.709431
O O1 0.665300 0.805949 0.895817
O O2 0.578815 0.390163 0.832696
O O3 0.713917 0.309069 0.912540
O O4 0.557485 0.451385 0.949908
O O5 0.061782 0.414524 0.959839
O O6 0.667395 0.959244 0.122174
O O7 0.750000 0.947546 0.000000
O O8 0.000000 0.750000 0.873643
O O9 0.000000 0.250000 0.854759
O O10 0.462230 0.500000 0.750000
#
# Coordination Sequence:
#
# PCOD9333363 Si02
#       5
#     8   4   8   8   4
#     4  11  23  34  57  82 110 155 207 244 305 352
#     4   9  20  32  46  72 110 156 192 218 277 360
#     4  12  20  33  51  83 119 153 196 241 283 370
#     4  10  19  31  46  69 111 160 184 214 275 342
#     4  11  24  46  64  82 116 158 216 276 301 340
#
# _framework density 20.831851
#
# number of rings (size 3 to 8) (size 9 to 14) (size 15 to 20)
#    0.750    0.500    2.500    5.250    0.000    2.000 
#    0.000    0.000    0.000    0.000    0.000    0.000 
#    0.000   56.000    0.000    0.000    0.000    0.000 
#
# Total GULP energy -89153.998060 kJ/mol
# GULP energy per Si atom -5572.124879 kJ/mol
# Density = 2.078444 g / cm^3
# Si number density = 20.831851 Si / 1000 Ang^3
#
#
#
# Elastic Constant Matrix: (Units=GPa)
#
#
# Indices 1 2 3 4 5 6 
#
# 1 62.7346 -14.0013 -18.2670 0.0000 0.0000 0.0000
# 2 -14.0013 76.4611 -1.3451 0.0000 0.0000 0.0000
# 3 -18.2670 -1.3451 23.2602 0.0000 0.0000 0.0000
# 4 0.0000 0.0000 0.0000 52.8024 0.0000 0.0000
# 5 0.0000 0.0000 0.0000 0.0000 8.6898 0.0000
# 6 0.0000 0.0000 0.0000 0.0000 0.0000 50.0074
#
#
#
# Elastic Compliance Matrix: (Units=1/GPa)
#
#
# Indices 1 2 3 4 5 6 
#
# 1 0.022016 0.004340 0.017541 0.000000 0.000000 0.000000
# 2 0.004340 0.013947 0.004215 0.000000 0.000000 0.000000
# 3 0.017541 0.004215 0.057011 0.000000 0.000000 0.000000
# 4 0.000000 0.000000 0.000000 0.018939 0.000000 0.000000
# 5 0.000000 0.000000 0.000000 0.000000 0.115077 0.000000
# 6 0.000000 0.000000 0.000000 0.000000 0.000000 0.019997
#
#
# Mechanical properties :
#
#
# Convention : Reuss Voigt Hill
#
# Bulk Modulus (GPa) = 6.88856 10.58101 8.73479
# Shear Modulus (GPa) = 20.56052 35.37122 27.96587
#
# Velocity S-wave (km/s) = 3.14502 4.12508 3.66793
# Velocity P-wave (km/s) = 4.06228 5.27054 4.70536
#
# Compressibility (1/GPa) = 0.14516815
#
# Stress axis : x y z
#
# Youngs Moduli (GPa) = 45.42061 71.69769 17.54036
#
# Poissons Ratio (x) = -0.31118 -0.30768
# Poissons Ratio (y) = -0.19713 -0.07393
# Poissons Ratio (z) = -0.79673 -0.30221
#
# Static dielectric constant tensor:
#      x y z
#    x 1.889960 0.000000 0.000000 
#    y 0.000000 1.724720 0.000000 
#    z 0.000000 0.000000 1.759310 
# 
# From -- ./inp_files/37283.got.cif
#   From: 2010.05.17/outbox.cif.g08.bks.cpg/sg24_19_cif.got.tgz:37283.got - 2010.06.04 00:33:39.
