data_PCOD9333397
_publ_section_title
;
Structure prediction by ZEFSAII (Michael W. Deem and Ramdas Pophale) SiO2 
 PCOD9333397
Probable space group: I 21 21 21
;
_chemical_formula_sum "Si O2"
_cell_formula_units_Z 48
_cell_length_a 34.507397
_cell_length_b 18.982877
_cell_length_c 5.289672
_cell_angle_alpha 90.000000
_cell_angle_beta 90.000000
_cell_angle_gamma 90.000000
_cell_volume 3464.997913
_symmetry_space_group_name_H-M "I 21 21 21"
_symmetry_group_IT_number 24
_symmetry_cell_setting 'orthorhombic'
loop_
_space_group_symop_operation_xyz
x,y,z
-x,1/2-y,z
x,-y,1/2-z
1/2-x,y,-z
1/2+x,1/2+y,1/2+z
1/2-x,-y,1/2+z
1/2+x,1/2-y,-z
-x,1/2+y,1/2-z
loop_
_atom_site_type_symbol
_atom_site_label
_atom_site_fract_x
_atom_site_fract_y
_atom_site_fract_z
Si Si1 0.772504 0.085607 0.248925
Si Si2 0.091812 0.376099 0.713435
Si Si3 0.453294 0.765183 0.356882
Si Si4 0.028890 0.818387 0.134022
Si Si5 0.137038 0.584806 0.280806
Si Si6 0.018204 0.542384 0.989105
O O1 0.750000 0.109338 0.500000
O O2 0.817685 0.104177 0.235451
O O3 0.771340 0.000000 0.250000
O O4 0.750000 0.109864 0.000000
O O5 0.070268 0.306239 0.816590
O O6 0.115375 0.374965 0.449150
O O7 0.057118 0.428774 0.641329
O O8 0.118775 0.399843 0.945003
O O9 0.500000 0.750000 0.357338
O O10 0.447288 0.808799 0.610761
O O11 0.444905 0.810434 0.110691
O O12 0.000000 0.750000 0.135856
O O13 0.004957 0.889311 0.091228
O O14 0.133557 0.500000 0.250000
O O15 0.999162 0.500000 0.750000
O O16 0.025956 0.500000 0.250000
#
# Coordination Sequence:
#
# PCOD9333397 Si02
#       6
#     8   8   8   8   8   8
#     4   9  17  31  48  60  77 111 146 169 206 279
#     4  12  21  33  44  64  89 112 137 185 240 285
#     4  10  19  32  49  57  75 115 154 173 206 285
#     4  10  19  34  47  58  78 110 153 178 209 287
#     4  11  22  32  43  66  92 109 134 184 245 284
#     4  12  23  32  46  66  87 111 144 191 246 286
#
# _framework density 13.852822
#
# number of rings (size 3 to 8) (size 9 to 14) (size 15 to 20)
#    0.000    1.333    3.333    6.000    4.667    2.667 
#    0.000    0.000    0.000    0.000    0.000    0.000 
#    0.000    0.000    0.000    0.000    0.000    0.000 
#
# Total GULP energy -133613.757148 kJ/mol
# GULP energy per Si atom -5567.239881 kJ/mol
# Density = 1.382129 g / cm^3
# Si number density = 13.852822 Si / 1000 Ang^3
#
#
#
# Elastic Constant Matrix: (Units=GPa)
#
#
# Indices 1 2 3 4 5 6 
#
# 1 55.8883 32.9796 33.9415 0.0000 0.0002 0.0001
# 2 32.9796 57.8459 39.8472 -0.0001 0.0001 0.0000
# 3 33.9415 39.8472 157.2606 -0.0002 -0.0001 -0.0005
# 4 0.0000 -0.0001 -0.0002 24.4889 0.0000 0.0000
# 5 0.0002 0.0001 -0.0001 0.0000 13.2793 0.0004
# 6 0.0001 0.0000 -0.0005 0.0000 0.0004 8.5482
#
#
#
# Elastic Compliance Matrix: (Units=1/GPa)
#
#
# Indices 1 2 3 4 5 6 
#
# 1 0.027689 -0.014137 -0.002394 0.000000 0.000000 0.000000
# 2 -0.014137 0.028161 -0.004084 0.000000 0.000000 0.000000
# 3 -0.002394 -0.004084 0.007910 0.000000 0.000000 0.000001
# 4 0.000000 0.000000 0.000000 0.040835 0.000000 0.000000
# 5 0.000000 0.000000 0.000000 0.000000 0.075305 -0.000003
# 6 0.000000 0.000000 0.000001 0.000000 -0.000003 0.116983
#
#
# Mechanical properties :
#
#
# Convention : Reuss Voigt Hill
#
# Bulk Modulus (GPa) = 44.38643 53.83680 49.11161
# Shear Modulus (GPa) = 14.46657 20.21171 17.33914
#
# Velocity S-wave (km/s) = 3.23508 3.82387 3.54173
# Velocity P-wave (km/s) = 6.78714 7.64485 7.22873
#
# Compressibility (1/GPa) = 0.02252941
#
# Stress axis : x y z
#
# Youngs Moduli (GPa) = 36.11528 35.51037 126.41519
#
# Poissons Ratio (x) = 0.50202 0.30264
# Poissons Ratio (y) = 0.51057 0.51631
# Poissons Ratio (z) = 0.08646 0.14503
#
# Static dielectric constant tensor:
#      x y z
#    x 1.442000 0.000000 0.000000 
#    y 0.000000 1.552480 0.000000 
#    z 0.000000 0.000000 1.493390 
# 
# From -- ./inp_files/6412.got.cif
#   From: 2010.05.17/outbox.cif.g08.bks.cpg/sg24_4_cif.got.tgz:6412.got - 2010.06.04 00:33:39.
