data_PCOD9333827
_publ_section_title
;
Structure prediction by ZEFSAII (Michael W. Deem and Ramdas Pophale) SiO2 
 PCOD9333827
Probable space group: I 21 21 21
;
_chemical_formula_sum "Si O2"
_cell_formula_units_Z 36
_cell_length_a 10.772975
_cell_length_b 18.995868
_cell_length_c 7.146365
_cell_angle_alpha 90.000000
_cell_angle_beta 90.000000
_cell_angle_gamma 90.000000
_cell_volume 1462.446505
_symmetry_space_group_name_H-M "I 21 21 21"
_symmetry_group_IT_number 24
_symmetry_cell_setting 'orthorhombic'
loop_
_space_group_symop_operation_xyz
x,y,z
-x,1/2-y,z
x,-y,1/2-z
1/2-x,y,-z
1/2+x,1/2+y,1/2+z
1/2-x,-y,1/2+z
1/2+x,1/2-y,-z
-x,1/2+y,1/2-z
loop_
_atom_site_type_symbol
_atom_site_label
_atom_site_fract_x
_atom_site_fract_y
_atom_site_fract_z
Si Si1 0.900103 0.949564 0.994627
Si Si2 0.514136 0.904040 0.421595
Si Si3 0.250000 0.851006 0.500000
Si Si4 0.163101 0.719453 0.727868
Si Si5 0.082793 0.311748 0.349036
O O1 0.959459 0.929579 0.792601
O O2 0.750000 0.938319 0.000000
O O3 0.966246 0.890149 0.121836
O O4 0.920845 0.031721 0.031156
O O5 0.374441 0.897513 0.499561
O O6 0.569150 0.824605 0.401095
O O7 0.209734 0.796130 0.664502
O O8 0.291733 0.677997 0.735182
O O9 0.116359 0.716774 0.941752
O O10 0.000000 0.250000 0.266471
#
# Coordination Sequence:
#
# PCOD9333827 Si02
#       5
#     8   8   4   8   8
#     4  10  19  42  71  93 133 183 233 289 324 404
#     4  10  22  40  66 100 135 177 230 280 352 406
#     4  12  24  40  64  98 148 180 206 288 358 408
#     4  10  21  40  62  94 135 180 226 275 332 411
#     4  10  19  39  69  97 125 176 239 280 327 397
#
# _framework density 24.616285999999999
#
# number of rings (size 3 to 8) (size 9 to 14) (size 15 to 20)
#    0.000    1.778    4.444    3.333    1.556    1.778 
#    0.000    6.667    0.000    0.000    0.000    0.000 
#    0.000    0.000    0.000    0.000    0.000    0.000 
#
# Total GULP energy -100320.033801 kJ/mol
# GULP energy per Si atom -5573.335211 kJ/mol
# Density = 2.456026 g / cm^3
# Si number density = 24.616286 Si / 1000 Ang^3
#
#
#
# Elastic Constant Matrix: (Units=GPa)
#
#
# Indices 1 2 3 4 5 6 
#
# 1 169.6310 58.8697 41.9562 0.0001 0.0000 0.0000
# 2 58.8697 143.0598 25.2817 0.0004 -0.0001 0.0000
# 3 41.9562 25.2817 79.9574 0.0015 -0.0002 -0.0001
# 4 0.0001 0.0004 0.0015 38.3143 -0.0003 -0.0001
# 5 0.0000 -0.0001 -0.0002 -0.0003 22.9034 0.0000
# 6 0.0000 0.0000 -0.0001 -0.0001 0.0000 54.2018
#
#
#
# Elastic Compliance Matrix: (Units=1/GPa)
#
#
# Indices 1 2 3 4 5 6 
#
# 1 0.007563 -0.002554 -0.003161 0.000000 0.000000 0.000000
# 2 -0.002554 0.008266 -0.001274 0.000000 0.000000 0.000000
# 3 -0.003161 -0.001274 0.014568 -0.000001 0.000000 0.000000
# 4 0.000000 0.000000 -0.000001 0.026100 0.000000 0.000000
# 5 0.000000 0.000000 0.000000 0.000000 0.043662 0.000000
# 6 0.000000 0.000000 0.000000 0.000000 0.000000 0.018450
#
#
# Mechanical properties :
#
#
# Convention : Reuss Voigt Hill
#
# Bulk Modulus (GPa) = 60.90000 71.65150 66.27575
# Shear Modulus (GPa) = 36.21635 40.85327 38.53481
#
# Velocity S-wave (km/s) = 3.83983 4.07824 3.96083
# Velocity P-wave (km/s) = 6.66727 7.16566 6.92095
#
# Compressibility (1/GPa) = 0.01642036
#
# Stress axis : x y z
#
# Youngs Moduli (GPa) = 132.21770 120.97749 68.64278
#
# Poissons Ratio (x) = 0.30894 0.21700
# Poissons Ratio (y) = 0.33764 0.08743
# Poissons Ratio (z) = 0.41797 0.15408
#
# Static dielectric constant tensor:
#      x y z
#    x 2.051430 0.000000 0.000000 
#    y 0.000000 1.958360 0.000000 
#    z 0.000000 0.000000 2.143900 
# 
# From -- ./inp_files/9090.got.cif
#   From: 2010.05.17/outbox.cif.g08.bks.cpg/sg24_5_cif.got.tgz:9090.got - 2010.06.04 00:33:39.
