data_PCOD9333121
_publ_section_title
;
Structure prediction by ZEFSAII (Michael W. Deem and Ramdas Pophale) SiO2 
 PCOD9333121
Probable space group: I 21 21 21
;
_chemical_formula_sum "Si O2"
_cell_formula_units_Z 40
_cell_length_a 28.626611
_cell_length_b 8.766111
_cell_length_c 8.972214
_cell_angle_alpha 90.000000
_cell_angle_beta 90.000000
_cell_angle_gamma 90.000000
_cell_volume 2251.523715
_symmetry_space_group_name_H-M "I 21 21 21"
_symmetry_group_IT_number 24
_symmetry_cell_setting 'orthorhombic'
loop_
_space_group_symop_operation_xyz
x,y,z
-x,1/2-y,z
x,-y,1/2-z
1/2-x,y,-z
1/2+x,1/2+y,1/2+z
1/2-x,-y,1/2+z
1/2+x,1/2-y,-z
-x,1/2+y,1/2-z
loop_
_atom_site_type_symbol
_atom_site_label
_atom_site_fract_x
_atom_site_fract_y
_atom_site_fract_z
Si Si1 0.791758 0.500000 0.250000
Si Si2 0.602806 0.000000 0.750000
Si Si3 0.409278 0.500000 0.250000
Si Si4 0.618909 0.471827 0.588074
Si Si5 0.352978 0.306918 0.011623
Si Si6 0.053608 0.706286 0.006692
Si Si7 0.750000 0.710684 0.500000
O O1 0.829294 0.414159 0.359065
O O2 0.761575 0.606815 0.355680
O O3 0.633259 0.898200 0.637709
O O4 0.571512 0.109812 0.648116
O O5 0.377584 0.390533 0.148272
O O6 0.439472 0.602470 0.138560
O O7 0.594975 0.500000 0.750000
O O8 0.628601 0.633085 0.508838
O O9 0.588065 0.352428 0.499221
O O10 0.297304 0.302407 0.028503
O O11 0.000000 0.750000 0.023988
#
# Coordination Sequence:
#
# PCOD9333121 Si02
#       7
#     4   4   4   8   8   8   4
#     4   8  18  31  56  85 116 135 194 237 280 316
#     4  10  20  38  58  84 118 148 186 242 282 330
#     4  10  26  41  50  89 122 157 166 241 308 328
#     4   9  18  38  59  84 107 151 185 240 275 316
#     4  10  21  38  60  81 121 148 192 228 289 335
#     4  11  23  38  62  84 114 150 195 231 282 344
#     4  10  18  34  56  86 106 152 192 230 270 346
#
# _framework density 17.765747000000001
#
# number of rings (size 3 to 8) (size 9 to 14) (size 15 to 20)
#    0.600    1.600    2.000    0.000    1.400    6.400 
#    0.000    4.000    0.000    1.200    0.000    0.000 
#    0.000    0.000    0.000    0.000    0.000    0.000 
#
# Total GULP energy -111451.103821 kJ/mol
# GULP energy per Si atom -5572.555191 kJ/mol
# Density = 1.772531 g / cm^3
# Si number density = 17.765747 Si / 1000 Ang^3
#
#
#
# Elastic Constant Matrix: (Units=GPa)
#
#
# Indices 1 2 3 4 5 6 
#
# 1 149.2727 67.9596 50.1290 0.0000 0.0000 0.0000
# 2 67.9596 100.5676 43.2622 0.0000 0.0000 0.0000
# 3 50.1290 43.2622 87.3831 0.0000 0.0000 0.0000
# 4 0.0000 0.0000 0.0000 24.9596 0.0000 0.0000
# 5 0.0000 0.0000 0.0000 0.0000 6.5881 0.0000
# 6 0.0000 0.0000 0.0000 0.0000 0.0000 25.3919
#
#
#
# Elastic Compliance Matrix: (Units=1/GPa)
#
#
# Indices 1 2 3 4 5 6 
#
# 1 0.010309 -0.005619 -0.003132 0.000000 0.000000 0.000000
# 2 -0.005619 0.015697 -0.004548 0.000000 0.000000 0.000000
# 3 -0.003132 -0.004548 0.015492 0.000000 0.000000 0.000000
# 4 0.000000 0.000000 0.000000 0.040065 0.000000 0.000000
# 5 0.000000 0.000000 0.000000 0.000000 0.151790 0.000000
# 6 0.000000 0.000000 0.000000 0.000000 0.000000 0.039383
#
#
# Mechanical properties :
#
#
# Convention : Reuss Voigt Hill
#
# Bulk Modulus (GPa) = 67.11284 73.32500 70.21892
# Shear Modulus (GPa) = 16.43108 23.11275 19.77192
#
# Velocity S-wave (km/s) = 3.04447 3.61081 3.33967
# Velocity P-wave (km/s) = 7.08639 7.66465 7.38118
#
# Compressibility (1/GPa) = 0.01490028
#
# Stress axis : x y z
#
# Youngs Moduli (GPa) = 97.00031 63.70549 64.54839
#
# Poissons Ratio (x) = 0.35798 0.20217
# Poissons Ratio (y) = 0.54507 0.29356
# Poissons Ratio (z) = 0.30381 0.28973
#
# Static dielectric constant tensor:
#      x y z
#    x 1.581380 0.000000 0.000000 
#    y 0.000000 1.616520 0.000000 
#    z 0.000000 0.000000 1.613530 
# 
# From -- ./inp_files/16308.got.cif
#   From: 2010.05.17/outbox.cif.g08.bks.cpg/sg24_9_cif.got.tgz:16308.got - 2010.06.04 00:33:39.
