data_PCOD9333680
_publ_section_title
;
Structure prediction by ZEFSAII (Michael W. Deem and Ramdas Pophale) SiO2 
 PCOD9333680
Probable space group: I 21 21 21
;
_chemical_formula_sum "Si O2"
_cell_formula_units_Z 52
_cell_length_a 8.216574
_cell_length_b 21.649677
_cell_length_c 13.973705
_cell_angle_alpha 90.000000
_cell_angle_beta 90.000000
_cell_angle_gamma 90.000000
_cell_volume 2485.728907
_symmetry_space_group_name_H-M "I 21 21 21"
_symmetry_group_IT_number 24
_symmetry_cell_setting 'orthorhombic'
loop_
_space_group_symop_operation_xyz
x,y,z
-x,1/2-y,z
x,-y,1/2-z
1/2-x,y,-z
1/2+x,1/2+y,1/2+z
1/2-x,-y,1/2+z
1/2+x,1/2-y,-z
-x,1/2+y,1/2-z
loop_
_atom_site_type_symbol
_atom_site_label
_atom_site_fract_x
_atom_site_fract_y
_atom_site_fract_z
Si Si1 0.500000 0.750000 0.119035
Si Si2 0.741891 0.716915 0.719688
Si Si3 0.612951 0.121642 0.368071
Si Si4 0.105852 0.658610 0.271293
Si Si5 0.427126 0.490466 0.031630
Si Si6 0.104772 0.098463 0.820378
Si Si7 0.955244 0.458917 0.163874
O O1 0.648584 0.731166 0.188240
O O2 0.555764 0.815969 0.075708
O O3 0.572810 0.685601 0.752947
O O4 0.700597 0.784519 0.679748
O O5 0.836589 0.668107 0.653205
O O6 0.788253 0.135644 0.319231
O O7 0.494975 0.108583 0.277028
O O8 0.599896 0.059078 0.427278
O O9 0.067359 0.601623 0.339440
O O10 0.501575 0.442058 0.106441
O O11 0.250000 0.468704 0.000000
O O12 0.539593 0.492048 0.937540
O O13 0.273797 0.061821 0.808257
O O14 0.021760 0.500000 0.250000
#
# Coordination Sequence:
#
# PCOD9333680 Si02
#       7
#     4   8   8   8   8   8   8
#     4   8  16  32  60  88 118 158 198 238 296 356
#     4   8  16  32  60  92 118 153 196 240 296 364
#     4  10  19  36  60  88 121 158 198 244 298 359
#     4   9  17  33  59  88 119 155 197 241 295 359
#     4  12  24  36  56  86 121 159 201 247 298 356
#     4  10  21  38  61  87 119 155 195 247 306 362
#     4  11  22  37  58  86 120 159 201 247 297 354
#
# _framework density 20.919416999999999
#
# number of rings (size 3 to 8) (size 9 to 14) (size 15 to 20)
#    0.000    2.154    0.000    3.692    0.000    0.000 
#    0.000    1.538    0.000   68.308    0.000    0.000 
#    0.000    0.000    0.000    0.000    0.000    0.000 
#
# Total GULP energy -144911.690065 kJ/mol
# GULP energy per Si atom -5573.526541 kJ/mol
# Density = 2.087180 g / cm^3
# Si number density = 20.919417 Si / 1000 Ang^3
#
#
#
# Elastic Constant Matrix: (Units=GPa)
#
#
# Indices 1 2 3 4 5 6 
#
# 1 74.3172 55.5345 12.1108 0.0000 0.0000 0.0000
# 2 55.5345 185.9542 53.1451 0.0000 0.0000 0.0000
# 3 12.1108 53.1451 39.9942 0.0002 -0.0001 0.0001
# 4 0.0000 0.0000 0.0002 -0.5764 0.0000 0.0000
# 5 0.0000 0.0000 -0.0001 0.0000 9.7074 0.0000
# 6 0.0000 0.0000 0.0001 0.0000 0.0000 21.6173
#
#
#
# Elastic Compliance Matrix: (Units=1/GPa)
#
#
# Indices 1 2 3 4 5 6 
#
# 1 0.017494 -0.005983 0.002652 0.000002 0.000000 0.000000
# 2 -0.005983 0.010716 -0.012429 -0.000004 0.000000 0.000000
# 3 0.002652 -0.012429 0.040716 0.000014 0.000000 0.000000
# 4 0.000002 -0.000004 0.000014 -1.734917 -0.000008 0.000002
# 5 0.000000 0.000000 0.000000 -0.000008 0.103014 0.000000
# 6 0.000000 0.000000 0.000000 0.000002 0.000000 0.046259
#
#
# Mechanical properties :
#
#
# Convention : Reuss Voigt Hill
#
# Bulk Modulus (GPa) = 26.73177 60.20516 43.46846
# Shear Modulus (GPa) = -3.39506 18.11468 7.35981
#
# Velocity S-wave (km/s) = -1.27532 2.94586 1.87771
# Velocity P-wave (km/s) = 3.26153 6.35711 5.05225
#
# Compressibility (1/GPa) = 0.03740867
#
# Stress axis : x y z
#
# Youngs Moduli (GPa) = 57.16185 93.31513 24.56054
#
# Poissons Ratio (x) = 0.55827 -0.06514
# Poissons Ratio (y) = 0.34198 0.30525
# Poissons Ratio (z) = -0.15161 1.15977
#
# Static dielectric constant tensor:
#      x y z
#    x 1.787020 0.000000 0.000000 
#    y 0.000000 1.812490 0.000000 
#    z 0.000000 0.000000 1.706520 
# 
# From -- ./inp_files/24993.got.cif
#   From: 2010.05.17/outbox.cif.g08.bks.cpg/sg24_13_cif.got.tgz:24993.got - 2010.06.04 00:33:39.
