data_PCOD9333691
_publ_section_title
;
Structure prediction by ZEFSAII (Michael W. Deem and Ramdas Pophale) SiO2 
 PCOD9333691
Probable space group: I 21 21 21
;
_chemical_formula_sum "Si O2"
_cell_formula_units_Z 32
_cell_length_a 9.134207
_cell_length_b 20.408220
_cell_length_c 8.992538
_cell_angle_alpha 90.000000
_cell_angle_beta 90.000000
_cell_angle_gamma 90.000000
_cell_volume 1676.325141
_symmetry_space_group_name_H-M "I 21 21 21"
_symmetry_group_IT_number 24
_symmetry_cell_setting 'orthorhombic'
loop_
_space_group_symop_operation_xyz
x,y,z
-x,1/2-y,z
x,-y,1/2-z
1/2-x,y,-z
1/2+x,1/2+y,1/2+z
1/2-x,-y,1/2+z
1/2+x,1/2-y,-z
-x,1/2+y,1/2-z
loop_
_atom_site_type_symbol
_atom_site_label
_atom_site_fract_x
_atom_site_fract_y
_atom_site_fract_z
Si Si1 0.133237 0.298998 0.364030
Si Si2 0.750000 0.614895 0.500000
Si Si3 0.250000 0.113283 0.500000
Si Si4 0.967696 0.428893 0.259851
Si Si5 0.357596 0.206827 0.242145
O O1 0.250000 0.309781 0.500000
O O2 0.221205 0.256461 0.243387
O O3 0.000000 0.250000 0.408183
O O4 0.070356 0.366018 0.293891
O O5 0.860195 0.580493 0.382638
O O6 0.852455 0.660483 0.600931
O O7 0.139341 0.071575 0.402602
O O8 0.334998 0.160000 0.384728
O O9 0.042345 0.500000 0.250000
O O10 0.500000 0.250000 0.249834
#
# Coordination Sequence:
#
# PCOD9333691 Si02
#       5
#     8   4   4   8   8
#     4  12  21  39  67  93 120 160 214 257 302 366
#     4  10  23  38  62  92 129 162 200 256 321 364
#     4  10  19  36  62  88 115 162 210 240 299 366
#     4  11  23  40  61  91 127 166 205 255 305 377
#     4  11  22  36  63  96 123 159 204 261 312 365
#
# _framework density 19.089376999999999
#
# number of rings (size 3 to 8) (size 9 to 14) (size 15 to 20)
#    0.000    1.000    6.250    3.000    3.500    0.000 
#    0.000    2.500    0.000    3.000    0.000    0.000 
#    0.000    0.000    0.000    0.000    0.000    0.000 
#
# Total GULP energy -89232.233237 kJ/mol
# GULP energy per Si atom -5577.014577 kJ/mol
# Density = 1.904593 g / cm^3
# Si number density = 19.089377 Si / 1000 Ang^3
#
#
#
# Elastic Constant Matrix: (Units=GPa)
#
#
# Indices 1 2 3 4 5 6 
#
# 1 85.0440 45.5618 19.4266 -0.0001 0.0000 0.0000
# 2 45.5618 154.2559 43.9166 -0.0002 0.0000 0.0000
# 3 19.4266 43.9166 93.0183 -0.0003 0.0000 0.0000
# 4 -0.0001 -0.0002 -0.0003 3.8986 0.0000 0.0000
# 5 0.0000 0.0000 0.0000 0.0000 8.2306 0.0000
# 6 0.0000 0.0000 0.0000 0.0000 0.0000 29.5180
#
#
#
# Elastic Compliance Matrix: (Units=1/GPa)
#
#
# Indices 1 2 3 4 5 6 
#
# 1 0.014071 -0.003835 -0.001128 0.000000 0.000000 0.000000
# 2 -0.003835 0.008535 -0.003229 0.000000 0.000000 0.000000
# 3 -0.001128 -0.003229 0.012510 0.000001 0.000000 0.000000
# 4 0.000000 0.000000 0.000001 0.256505 0.000001 0.000000
# 5 0.000000 0.000000 0.000000 0.000001 0.121497 0.000000
# 6 0.000000 0.000000 0.000000 0.000000 0.000000 0.033878
#
#
# Mechanical properties :
#
#
# Convention : Reuss Voigt Hill
#
# Bulk Modulus (GPa) = 53.38207 61.12536 57.25371
# Shear Modulus (GPa) = 10.64683 23.22365 16.93524
#
# Velocity S-wave (km/s) = 2.36421 3.49173 2.98175
# Velocity P-wave (km/s) = 5.95631 6.95315 6.47395
#
# Compressibility (1/GPa) = 0.01873288
#
# Stress axis : x y z
#
# Youngs Moduli (GPa) = 71.06912 117.17041 79.93318
#
# Poissons Ratio (x) = 0.44933 0.09017
# Poissons Ratio (y) = 0.27254 0.25807
# Poissons Ratio (z) = 0.08017 0.37829
#
# Static dielectric constant tensor:
#      x y z
#    x 1.705610 0.000000 0.000000 
#    y 0.000000 1.684060 0.000000 
#    z 0.000000 0.000000 1.676320 
# 
# From -- ./inp_files/8960.got.cif
#   From: 2010.05.17/outbox.cif.g08.bks.cpg/sg24_5_cif.got.tgz:8960.got - 2010.06.04 00:33:39.
