data_PCOD9333165
_publ_section_title
;
Structure prediction by ZEFSAII (Michael W. Deem and Ramdas Pophale) SiO2 
 PCOD9333165
Probable space group: I 21 21 21
;
_chemical_formula_sum "Si O2"
_cell_formula_units_Z 48
_cell_length_a 8.653311
_cell_length_b 13.666024
_cell_length_c 21.079019
_cell_angle_alpha 90.000000
_cell_angle_beta 90.000000
_cell_angle_gamma 90.000000
_cell_volume 2492.727971
_symmetry_space_group_name_H-M "I 21 21 21"
_symmetry_group_IT_number 24
_symmetry_cell_setting 'orthorhombic'
loop_
_space_group_symop_operation_xyz
x,y,z
-x,1/2-y,z
x,-y,1/2-z
1/2-x,y,-z
1/2+x,1/2+y,1/2+z
1/2-x,-y,1/2+z
1/2+x,1/2-y,-z
-x,1/2+y,1/2-z
loop_
_atom_site_type_symbol
_atom_site_label
_atom_site_fract_x
_atom_site_fract_y
_atom_site_fract_z
Si Si1 0.250000 0.856486 0.500000
Si Si2 0.500000 0.750000 0.788653
Si Si3 0.950663 0.638341 0.608002
Si Si4 0.500000 0.250000 0.908793
Si Si5 0.261433 0.883073 0.264985
Si Si6 0.720692 0.899694 0.667033
Si Si7 0.000000 0.750000 0.816294
Si Si8 0.257342 0.618354 0.819681
O O1 0.130690 0.909231 0.547262
O O2 0.365357 0.795873 0.546442
O O3 0.402779 0.830912 0.748820
O O4 0.385765 0.695404 0.834538
O O5 0.824901 0.632934 0.664180
O O6 0.000000 0.750000 0.592376
O O7 0.112094 0.598853 0.633476
O O8 0.597066 0.171075 0.866627
O O9 0.382333 0.818233 0.224084
O O10 0.260773 0.000000 0.250000
O O11 0.753292 0.876682 0.741602
O O12 0.677946 0.012911 0.664403
O O13 0.101937 0.664384 0.848082
#
# Coordination Sequence:
#
# PCOD9333165 Si02
#       8
#     4   4   8   4   8   8   4   8
#     4  12  26  36  56  82 122 170 212 234 290 354
#     4  10  23  36  48  81 124 153 194 241 296 364
#     4  12  21  39  54  84 120 166 198 244 290 350
#     4  12  23  39  58  82 124 170 199 247 288 352
#     4  11  22  36  59  83 118 164 201 242 305 371
#     4  11  22  35  59  83 120 157 208 243 300 361
#     4  10  18  35  54  79 120 153 189 244 292 366
#     4  10  21  35  55  87 115 161 196 245 305 374
#
# _framework density 19.256012999999999
#
# number of rings (size 3 to 8) (size 9 to 14) (size 15 to 20)
#    0.000    1.000    5.000    2.500    4.667    0.000 
#    0.000    0.000    0.000    0.000    0.000    0.000 
#    0.000  112.000    0.000    0.000    0.000    0.000 
#
# Total GULP energy -133625.013139 kJ/mol
# GULP energy per Si atom -5567.708881 kJ/mol
# Density = 1.921219 g / cm^3
# Si number density = 19.256013 Si / 1000 Ang^3
#
#
#
# Elastic Constant Matrix: (Units=GPa)
#
#
# Indices 1 2 3 4 5 6 
#
# 1 108.7471 25.8040 26.6921 0.0000 0.0000 0.0000
# 2 25.8040 102.6051 7.6550 0.0000 0.0000 0.0000
# 3 26.6921 7.6550 42.9999 0.0000 0.0000 0.0000
# 4 0.0000 0.0000 0.0000 11.1672 0.0000 0.0000
# 5 0.0000 0.0000 0.0000 0.0000 15.2156 0.0000
# 6 0.0000 0.0000 0.0000 0.0000 0.0000 26.4105
#
#
#
# Elastic Compliance Matrix: (Units=1/GPa)
#
#
# Indices 1 2 3 4 5 6 
#
# 1 0.011389 -0.002368 -0.006648 0.000000 0.000000 0.000000
# 2 -0.002368 0.010370 -0.000376 0.000000 0.000000 0.000000
# 3 -0.006648 -0.000376 0.027450 0.000000 0.000000 0.000000
# 4 0.000000 0.000000 0.000000 0.089548 0.000000 0.000000
# 5 0.000000 0.000000 0.000000 0.000000 0.065722 0.000000
# 6 0.000000 0.000000 0.000000 0.000000 0.000000 0.037864
#
#
# Mechanical properties :
#
#
# Convention : Reuss Voigt Hill
#
# Bulk Modulus (GPa) = 32.86906 41.62823 37.24865
# Shear Modulus (GPa) = 18.43191 23.50542 20.96866
#
# Velocity S-wave (km/s) = 3.09723 3.49761 3.30349
# Velocity P-wave (km/s) = 5.46781 6.16249 5.82552
#
# Compressibility (1/GPa) = 0.03042374
#
# Stress axis : x y z
#
# Youngs Moduli (GPa) = 87.80054 96.43431 36.43023
#
# Poissons Ratio (x) = 0.22839 0.24220
# Poissons Ratio (y) = 0.20794 0.01370
# Poissons Ratio (z) = 0.58373 0.03625
#
# Static dielectric constant tensor:
#      x y z
#    x 1.749770 0.000000 0.000000 
#    y 0.000000 1.779660 0.000000 
#    z 0.000000 0.000000 1.695800 
# 
# From -- ./inp_files/32759.got.cif
#   From: 2010.05.17/outbox.cif.g08.bks.cpg/sg24_17_cif.got.tgz:32759.got - 2010.06.04 00:33:39.
