data_PCOD9333870
_publ_section_title
;
Structure prediction by ZEFSAII (Michael W. Deem and Ramdas Pophale) SiO2 
 PCOD9333870
Probable space group: I 21 21 21
;
_chemical_formula_sum "Si O2"
_cell_formula_units_Z 60
_cell_length_a 23.597109
_cell_length_b 9.874536
_cell_length_c 13.090772
_cell_angle_alpha 90.000000
_cell_angle_beta 90.000000
_cell_angle_gamma 90.000000
_cell_volume 3050.287359
_symmetry_space_group_name_H-M "I 21 21 21"
_symmetry_group_IT_number 24
_symmetry_cell_setting 'orthorhombic'
loop_
_space_group_symop_operation_xyz
x,y,z
-x,1/2-y,z
x,-y,1/2-z
1/2-x,y,-z
1/2+x,1/2+y,1/2+z
1/2-x,-y,1/2+z
1/2+x,1/2-y,-z
-x,1/2+y,1/2-z
loop_
_atom_site_type_symbol
_atom_site_label
_atom_site_fract_x
_atom_site_fract_y
_atom_site_fract_z
Si Si1 0.919430 0.978891 0.023587
Si Si2 0.250000 0.544508 0.000000
Si Si3 0.978607 0.404389 0.347696
Si Si4 0.282647 0.150024 0.720054
Si Si5 0.366731 0.823900 0.950816
Si Si6 0.649207 0.625616 0.182521
Si Si7 0.150670 0.583036 0.846105
Si Si8 0.831418 0.896100 0.343761
O O1 0.897075 0.000001 0.908669
O O2 0.891728 0.829057 0.042886
O O3 0.983758 0.959630 0.057420
O O4 0.890853 0.090341 0.097077
O O5 0.296572 0.611870 0.076027
O O6 0.213288 0.452227 0.075236
O O7 0.987048 0.500000 0.250000
O O8 0.913602 0.399533 0.382813
O O9 0.000000 0.250000 0.326321
O O10 0.308215 0.183973 0.609759
O O11 0.214767 0.147925 0.715434
O O12 0.309897 0.255547 0.798782
O O13 0.300705 0.000000 0.750000
O O14 0.358096 0.893990 0.060591
O O15 0.627645 0.500000 0.250000
O O16 0.624274 0.776574 0.194072
O O17 0.172992 0.500000 0.750000
O O18 0.834754 0.000000 0.250000
#
# Coordination Sequence:
#
# PCOD9333870 Si02
#       8
#     8   4   8   8   8   8   8   8
#     4   9  20  35  61  85 110 148 189 245 292 347
#     4  10  20  30  54  88 112 152 194 240 290 358
#     4  10  21  38  61  88 115 146 191 241 299 349
#     4  11  22  35  53  83 115 150 188 237 288 347
#     4  10  20  38  59  80 111 155 196 228 289 361
#     4  10  22  38  55  79 115 157 194 235 286 348
#     4  10  20  36  57  84 115 150 196 242 292 350
#     4  11  19  34  56  80 115 149 191 232 294 349
#
# _framework density 19.670279000000001
#
# number of rings (size 3 to 8) (size 9 to 14) (size 15 to 20)
#    0.000    1.867    1.333    3.200    5.600    0.000 
#    9.600    0.667    0.000    0.000    0.000    0.000 
#    0.000    0.000    0.000    0.000    0.000    0.000 
#
# Total GULP energy -167218.584430 kJ/mol
# GULP energy per Si atom -5573.952814 kJ/mol
# Density = 1.962551 g / cm^3
# Si number density = 19.670279 Si / 1000 Ang^3
#
#
#
# Elastic Constant Matrix: (Units=GPa)
#
#
# Indices 1 2 3 4 5 6 
#
# 1 47.8940 1.3165 6.7830 0.0000 0.0000 0.0000
# 2 1.3165 78.1326 40.0294 0.0000 0.0000 0.0000
# 3 6.7830 40.0294 98.8150 0.0000 0.0000 0.0000
# 4 0.0000 0.0000 0.0000 35.6071 0.0000 0.0000
# 5 0.0000 0.0000 0.0000 0.0000 18.4173 0.0000
# 6 0.0000 0.0000 0.0000 0.0000 0.0000 8.6937
#
#
#
# Elastic Compliance Matrix: (Units=1/GPa)
#
#
# Indices 1 2 3 4 5 6 
#
# 1 0.021099 0.000488 -0.001646 0.000000 0.000000 0.000000
# 2 0.000488 0.016162 -0.006581 0.000000 0.000000 0.000000
# 3 -0.001646 -0.006581 0.012899 0.000000 0.000000 0.000000
# 4 0.000000 0.000000 0.000000 0.028084 0.000000 0.000000
# 5 0.000000 0.000000 0.000000 0.000000 0.054297 0.000000
# 6 0.000000 0.000000 0.000000 0.000000 0.000000 0.115026
#
#
# Mechanical properties :
#
#
# Convention : Reuss Voigt Hill
#
# Bulk Modulus (GPa) = 28.83320 35.67770 32.25545
# Shear Modulus (GPa) = 18.20797 24.32446 21.26622
#
# Velocity S-wave (km/s) = 3.04576 3.52036 3.29163
# Velocity P-wave (km/s) = 5.20183 5.89077 5.55699
#
# Compressibility (1/GPa) = 0.03468224
#
# Stress axis : x y z
#
# Youngs Moduli (GPa) = 47.39530 61.87374 77.52738
#
# Poissons Ratio (x) = -0.03018 0.12760
# Poissons Ratio (y) = -0.02312 0.51018
# Poissons Ratio (z) = 0.07801 0.40717
#
# Static dielectric constant tensor:
#      x y z
#    x 1.721960 0.000000 0.000000 
#    y 0.000000 1.715580 0.000000 
#    z 0.000000 0.000000 1.726700 
# 
# From -- ./inp_files/22995.got.cif
#   From: 2010.05.17/outbox.cif.g08.bks.cpg/sg24_12_cif.got.tgz:22995.got - 2010.06.04 00:33:39.
