data_PCOD9333076
_publ_section_title
;
Structure prediction by ZEFSAII (Michael W. Deem and Ramdas Pophale) SiO2 
 PCOD9333076
Probable space group: I 21 21 21
;
_chemical_formula_sum "Si O2"
_cell_formula_units_Z 36
_cell_length_a 11.104824
_cell_length_b 14.109951
_cell_length_c 9.148685
_cell_angle_alpha 90.000000
_cell_angle_beta 90.000000
_cell_angle_gamma 90.000000
_cell_volume 1433.493936
_symmetry_space_group_name_H-M "I 21 21 21"
_symmetry_group_IT_number 24
_symmetry_cell_setting 'orthorhombic'
loop_
_space_group_symop_operation_xyz
x,y,z
-x,1/2-y,z
x,-y,1/2-z
1/2-x,y,-z
1/2+x,1/2+y,1/2+z
1/2-x,-y,1/2+z
1/2+x,1/2-y,-z
-x,1/2+y,1/2-z
loop_
_atom_site_type_symbol
_atom_site_label
_atom_site_fract_x
_atom_site_fract_y
_atom_site_fract_z
Si Si1 0.988023 0.139886 0.328381
Si Si2 0.279295 0.301216 0.274039
Si Si3 0.449546 0.450364 0.405867
Si Si4 0.285341 0.901885 0.671148
Si Si5 0.750000 0.093067 0.000000
O O1 0.845182 0.138168 0.295727
O O2 0.039258 0.081822 0.467129
O O3 0.000000 0.250000 0.359800
O O4 0.070780 0.113192 0.191684
O O5 0.378153 0.351850 0.372783
O O6 0.266224 0.188397 0.265197
O O7 0.307624 0.332623 0.111718
O O8 0.478276 0.500000 0.250000
O O9 0.359788 0.518685 0.494954
O O10 0.250000 0.898522 0.500000
O O11 0.251207 0.000000 0.750000
#
# Coordination Sequence:
#
# PCOD9333076 Si02
#       5
#     8   8   8   8   4
#     4  10  22  40  68  99 134 179 231 282 333 410
#     4  10  20  40  69 100 138 167 223 282 355 399
#     4  10  20  35  66 109 142 172 209 281 358 407
#     4  11  26  46  69  92 134 194 236 278 329 397
#     4  10  18  32  70  98 140 162 200 284 358 400
#
# _framework density 25.113464
#
# number of rings (size 3 to 8) (size 9 to 14) (size 15 to 20)
#    0.000    1.778    3.333    0.000    3.111    3.556 
#    0.000    3.333    0.000    0.000    0.000    0.000 
#    0.000    0.000    0.000    0.000    0.000    0.000 
#
# Total GULP energy -100237.511972 kJ/mol
# GULP energy per Si atom -5568.750665 kJ/mol
# Density = 2.505630 g / cm^3
# Si number density = 25.113464 Si / 1000 Ang^3
#
#
#
# Elastic Constant Matrix: (Units=GPa)
#
#
# Indices 1 2 3 4 5 6 
#
# 1 50.4018 19.1734 39.9434 0.0000 0.0000 0.0000
# 2 19.1734 194.9305 65.9415 0.0000 0.0000 0.0000
# 3 39.9434 65.9415 91.6126 0.0000 0.0000 0.0000
# 4 0.0000 0.0000 0.0000 41.8944 0.0000 0.0000
# 5 0.0000 0.0000 0.0000 0.0000 -0.1191 0.0000
# 6 0.0000 0.0000 0.0000 0.0000 0.0000 4.3686
#
#
#
# Elastic Compliance Matrix: (Units=1/GPa)
#
#
# Indices 1 2 3 4 5 6 
#
# 1 0.030898 0.002007 -0.014916 0.000000 0.000000 0.000000
# 2 0.002007 0.006912 -0.005850 0.000000 0.000000 0.000000
# 3 -0.014916 -0.005850 0.021630 0.000000 0.000000 0.000000
# 4 0.000000 0.000000 0.000000 0.023870 0.000000 0.000000
# 5 0.000000 0.000000 0.000000 0.000000 -8.398507 0.000000
# 6 0.000000 0.000000 0.000000 0.000000 0.000000 0.228905
#
#
# Mechanical properties :
#
#
# Convention : Reuss Voigt Hill
#
# Bulk Modulus (GPa) = 45.61842 65.22907 55.42375
# Shear Modulus (GPa) = -0.62178 23.35456 11.36639
#
# Velocity S-wave (km/s) = -0.49812 3.05284 2.12975
# Velocity P-wave (km/s) = 4.22771 6.20133 5.30707
#
# Compressibility (1/GPa) = 0.02192097
#
# Stress axis : x y z
#
# Youngs Moduli (GPa) = 32.36440 144.68602 46.23306
#
# Poissons Ratio (x) = -0.29034 0.68962
# Poissons Ratio (y) = -0.06495 0.27045
# Poissons Ratio (z) = 0.48275 0.84638
#
# Static dielectric constant tensor:
#      x y z
#    x 2.198230 0.000000 0.000000 
#    y 0.000000 2.006870 0.000000 
#    z 0.000000 0.000000 2.203310 
# 
# From -- ./inp_files/12225.got.cif
#   From: 2010.05.17/outbox.cif.g08.bks.cpg/sg24_7_cif.got.tgz:12225.got - 2010.06.04 00:33:39.
