data_PCOD9333813
_publ_section_title
;
Structure prediction by ZEFSAII (Michael W. Deem and Ramdas Pophale) SiO2 
 PCOD9333813
Probable space group: I 21 21 21
;
_chemical_formula_sum "Si O2"
_cell_formula_units_Z 48
_cell_length_a 30.737432
_cell_length_b 9.510695
_cell_length_c 8.111962
_cell_angle_alpha 90.000000
_cell_angle_beta 90.000000
_cell_angle_gamma 90.000000
_cell_volume 2371.405064
_symmetry_space_group_name_H-M "I 21 21 21"
_symmetry_group_IT_number 24
_symmetry_cell_setting 'orthorhombic'
loop_
_space_group_symop_operation_xyz
x,y,z
-x,1/2-y,z
x,-y,1/2-z
1/2-x,y,-z
1/2+x,1/2+y,1/2+z
1/2-x,-y,1/2+z
1/2+x,1/2-y,-z
-x,1/2+y,1/2-z
loop_
_atom_site_type_symbol
_atom_site_label
_atom_site_fract_x
_atom_site_fract_y
_atom_site_fract_z
Si Si1 0.434110 0.524103 0.449072
Si Si2 0.703341 0.939110 0.566018
Si Si3 0.145372 0.326570 0.557872
Si Si4 0.112270 0.944671 0.065673
Si Si5 0.479989 0.096530 0.409887
Si Si6 0.629534 0.255869 0.062818
O O1 0.436739 0.500000 0.250000
O O2 0.395769 0.419466 0.503679
O O3 0.481634 0.482618 0.510101
O O4 0.416137 0.679442 0.482603
O O5 0.750000 0.892591 0.500000
O O6 0.667653 0.816449 0.543377
O O7 0.705219 0.000000 0.750000
O O8 0.686132 0.071271 0.458691
O O9 0.145507 0.183656 0.455702
O O10 0.138070 0.286112 0.747846
O O11 0.109479 0.000000 0.250000
O O12 0.065262 0.890623 0.004273
O O13 0.126058 0.079033 0.958545
O O14 0.500000 0.250000 0.366676
O O15 0.471146 0.000000 0.250000
#
# Coordination Sequence:
#
# PCOD9333813 Si02
#       6
#     8   8   8   8   8   8
#     4   8  17  33  57  82 109 149 203 252 296 351
#     4  11  22  40  66  98 127 156 192 244 301 367
#     4  10  19  39  63  86 117 159 207 247 299 364
#     4  12  25  39  55  87 126 164 203 259 317 358
#     4  11  22  38  60  85 115 160 213 263 303 367
#     4  10  21  39  63  88 115 163 207 250 299 368
#
# _framework density 20.241164999999999
#
# number of rings (size 3 to 8) (size 9 to 14) (size 15 to 20)
#    0.000    1.667    1.667    5.000    4.667    0.000 
#    3.000    1.667    0.000    0.000    0.000    0.000 
#    0.000    0.000    0.000    0.000    0.000    0.000 
#
# Total GULP energy -134066.258669 kJ/mol
# GULP energy per Si atom -5586.094111 kJ/mol
# Density = 2.019509 g / cm^3
# Si number density = 20.241165 Si / 1000 Ang^3
#
#
#
# Elastic Constant Matrix: (Units=GPa)
#
#
# Indices 1 2 3 4 5 6 
#
# 1 71.8778 5.9930 -5.9169 0.0000 0.0000 0.0000
# 2 5.9930 97.2028 -1.2330 0.0000 0.0000 0.0000
# 3 -5.9169 -1.2330 47.8146 0.0000 0.0000 0.0000
# 4 0.0000 0.0000 0.0000 19.3003 0.0000 0.0000
# 5 0.0000 0.0000 0.0000 0.0000 15.6374 0.0000
# 6 0.0000 0.0000 0.0000 0.0000 0.0000 16.6344
#
#
#
# Elastic Compliance Matrix: (Units=1/GPa)
#
#
# Indices 1 2 3 4 5 6 
#
# 1 0.014125 -0.000849 0.001726 0.000000 0.000000 0.000000
# 2 -0.000849 0.010342 0.000162 0.000000 0.000000 0.000000
# 3 0.001726 0.000162 0.021132 0.000000 0.000000 0.000000
# 4 0.000000 0.000000 0.000000 0.051813 0.000000 0.000000
# 5 0.000000 0.000000 0.000000 0.000000 0.063949 0.000000
# 6 0.000000 0.000000 0.000000 0.000000 0.000000 0.060116
#
#
# Mechanical properties :
#
#
# Convention : Reuss Voigt Hill
#
# Bulk Modulus (GPa) = 20.97453 23.84237 22.40845
# Shear Modulus (GPa) = 21.25014 24.85123 23.05068
#
# Velocity S-wave (km/s) = 3.24365 3.50774 3.37828
# Velocity P-wave (km/s) = 4.94097 5.31134 5.12950
#
# Compressibility (1/GPa) = 0.04767688
#
# Stress axis : x y z
#
# Youngs Moduli (GPa) = 70.79452 96.69158 47.32184
#
# Poissons Ratio (x) = 0.08209 -0.08168
# Poissons Ratio (y) = 0.06010 -0.00765
# Poissons Ratio (z) = -0.12220 -0.01563
#
# Static dielectric constant tensor:
#      x y z
#    x 1.724140 0.000000 0.000000 
#    y 0.000000 1.732060 0.000000 
#    z 0.000000 0.000000 1.751320 
# 
# From -- ./inp_files/16813.got.cif
#   From: 2010.05.17/outbox.cif.g08.bks.cpg/sg24_9_cif.got.tgz:16813.got - 2010.06.04 00:33:39.
