data_PCOD9333053
_publ_section_title
;
Structure prediction by ZEFSAII (Michael W. Deem and Ramdas Pophale) SiO2 
 PCOD9333053
Probable space group: I 21 21 21
;
_chemical_formula_sum "Si O2"
_cell_formula_units_Z 40
_cell_length_a 7.955716
_cell_length_b 26.657291
_cell_length_c 8.587813
_cell_angle_alpha 90.000000
_cell_angle_beta 90.000000
_cell_angle_gamma 90.000000
_cell_volume 1821.284802
_symmetry_space_group_name_H-M "I 21 21 21"
_symmetry_group_IT_number 24
_symmetry_cell_setting 'orthorhombic'
loop_
_space_group_symop_operation_xyz
x,y,z
-x,1/2-y,z
x,-y,1/2-z
1/2-x,y,-z
1/2+x,1/2+y,1/2+z
1/2-x,-y,1/2+z
1/2+x,1/2-y,-z
-x,1/2+y,1/2-z
loop_
_atom_site_type_symbol
_atom_site_label
_atom_site_fract_x
_atom_site_fract_y
_atom_site_fract_z
Si Si1 0.466805 0.691782 0.381883
Si Si2 0.872952 0.603298 0.777989
Si Si3 0.079437 0.694130 0.276332
Si Si4 0.496560 0.500000 0.750000
Si Si5 0.992249 0.903107 0.099085
Si Si6 0.750000 0.459216 0.000000
O O1 0.500000 0.750000 0.382833
O O2 0.581039 0.659736 0.267906
O O3 0.274557 0.691177 0.325150
O O4 0.502258 0.674969 0.560504
O O5 0.685404 0.598278 0.842709
O O6 0.865738 0.571971 0.619408
O O7 0.000434 0.587282 0.914574
O O8 0.000000 0.750000 0.244299
O O9 0.064160 0.653184 0.140686
O O10 0.407077 0.448159 0.698464
O O11 0.620348 0.489731 0.894970
#
# Coordination Sequence:
#
# PCOD9333053 Si02
#       6
#     8   8   8   4   8   4
#     4  10  20  35  58  83 110 149 190 231 284 340
#     4  10  20  34  55  82 113 148 189 232 281 332
#     4  10  21  37  58  84 114 147 188 235 283 337
#     4  10  18  32  56  82 112 146 186 230 280 330
#     4  10  21  35  55  83 114 148 188 235 281 332
#     4  10  18  32  56  84 112 144 186 234 276 336
#
# _framework density 21.962517999999999
#
# number of rings (size 3 to 8) (size 9 to 14) (size 15 to 20)
#    0.000    2.000    0.000    6.000    0.000    4.800 
#    0.000    0.000    0.000   14.400    0.000    0.000 
#    0.000    0.000    0.000    0.000    0.000    0.000 
#
# Total GULP energy -111489.199412 kJ/mol
# GULP energy per Si atom -5574.459971 kJ/mol
# Density = 2.191253 g / cm^3
# Si number density = 21.962518 Si / 1000 Ang^3
#
#
#
# Elastic Constant Matrix: (Units=GPa)
#
#
# Indices 1 2 3 4 5 6 
#
# 1 22.1010 12.2810 16.9997 0.0000 -0.0003 0.0001
# 2 12.2810 87.0800 48.2253 0.0000 -0.0002 0.0001
# 3 16.9997 48.2253 121.7458 0.0013 0.0000 0.0004
# 4 0.0000 0.0000 0.0013 39.7397 0.0002 0.0000
# 5 -0.0003 -0.0002 0.0000 0.0002 -46.0456 0.0001
# 6 0.0001 0.0001 0.0004 0.0000 0.0001 18.0755
#
#
#
# Elastic Compliance Matrix: (Units=1/GPa)
#
#
# Indices 1 2 3 4 5 6 
#
# 1 0.051882 -0.004234 -0.005567 0.000000 0.000000 0.000000
# 2 -0.004234 0.015056 -0.005373 0.000000 0.000000 0.000000
# 3 -0.005567 -0.005373 0.011119 0.000000 0.000000 0.000000
# 4 0.000000 0.000000 0.000000 0.025164 0.000000 0.000000
# 5 0.000000 0.000000 0.000000 0.000000 -0.021718 0.000000
# 6 0.000000 0.000000 0.000000 0.000000 0.000000 0.055324
#
#
# Mechanical properties :
#
#
# Convention : Reuss Voigt Hill
#
# Bulk Modulus (GPa) = 20.96013 42.88210 31.92111
# Shear Modulus (GPa) = 27.31069 12.58196 19.94633
#
# Velocity S-wave (km/s) = 3.53017 2.39609 3.01690
# Velocity P-wave (km/s) = 5.11669 5.21752 5.16735
#
# Compressibility (1/GPa) = 0.04770964
#
# Stress axis : x y z
#
# Youngs Moduli (GPa) = 19.27460 66.41739 89.93215
#
# Poissons Ratio (x) = 0.28119 0.50069
# Poissons Ratio (y) = 0.08160 0.48319
# Poissons Ratio (z) = 0.10731 0.35685
#
# Static dielectric constant tensor:
#      x y z
#    x 1.813180 0.000000 0.000000 
#    y 0.000000 1.919950 0.000000 
#    z 0.000000 0.000000 1.856130 
# 
# From -- ./inp_files/9334.got.cif
#   From: 2010.05.17/outbox.cif.g08.bks.cpg/sg24_5_cif.got.tgz:9334.got - 2010.06.04 00:33:39.
