data_PCOD9333550
_publ_section_title
;
Structure prediction by ZEFSAII (Michael W. Deem and Ramdas Pophale) SiO2 
 PCOD9333550
Probable space group: I 21 21 21
;
_chemical_formula_sum "Si O2"
_cell_formula_units_Z 56
_cell_length_a 14.033862
_cell_length_b 21.017178
_cell_length_c 8.361856
_cell_angle_alpha 90.000000
_cell_angle_beta 90.000000
_cell_angle_gamma 90.000000
_cell_volume 2466.347620
_symmetry_space_group_name_H-M "I 21 21 21"
_symmetry_group_IT_number 24
_symmetry_cell_setting 'orthorhombic'
loop_
_space_group_symop_operation_xyz
x,y,z
-x,1/2-y,z
x,-y,1/2-z
1/2-x,y,-z
1/2+x,1/2+y,1/2+z
1/2-x,-y,1/2+z
1/2+x,1/2-y,-z
-x,1/2+y,1/2-z
loop_
_atom_site_type_symbol
_atom_site_label
_atom_site_fract_x
_atom_site_fract_y
_atom_site_fract_z
Si Si1 0.692112 0.883444 0.656405
Si Si2 0.669306 0.043219 0.389400
Si Si3 0.011123 0.928724 0.418590
Si Si4 0.913611 0.301465 0.942483
Si Si5 0.522808 0.573047 0.953170
Si Si6 0.615574 0.249189 0.735690
Si Si7 0.906301 0.296551 0.593259
O O1 0.750000 0.863878 0.500000
O O2 0.766544 0.909770 0.784310
O O3 0.603842 0.928361 0.602163
O O4 0.644256 0.822377 0.733474
O O5 0.750000 0.010413 0.500000
O O6 0.588863 0.074108 0.498121
O O7 0.623746 0.000000 0.250000
O O8 0.042321 0.915427 0.235017
O O9 0.041851 0.871666 0.533594
O O10 0.046700 0.997996 0.474788
O O11 0.856923 0.287724 0.105082
O O12 0.000000 0.250000 0.942596
O O13 0.863852 0.293884 0.771204
O O14 0.567801 0.629951 0.054429
O O15 0.500000 0.250000 0.727829
O O16 0.648698 0.273492 0.564030
O O17 0.000000 0.250000 0.601654
#
# Coordination Sequence:
#
# PCOD9333550 Si02
#       7
#     8   8   8   8   8   8   8
#     4  12  24  38  56  81 117 162 209 246 296 361
#     4  12  25  37  49  76 119 168 210 241 286 358
#     4  11  20  38  54  78 118 161 204 245 297 349
#     4  10  19  34  59  80 102 150 199 244 304 345
#     4  11  23  35  54  79 115 163 202 249 294 350
#     4  10  19  40  58  74 109 152 196 257 300 339
#     4  10  21  34  55  79 103 148 202 245 303 343
#
# _framework density 22.705641
#
# number of rings (size 3 to 8) (size 9 to 14) (size 15 to 20)
#    0.000    1.143    5.714    3.000    4.000    0.000 
#    0.000    0.000    0.000    0.000    0.000    0.000 
#    0.000    0.000   19.429    0.429    0.571    1.286 
#
# Total GULP energy -156393.276593 kJ/mol
# GULP energy per Si atom -5585.474164 kJ/mol
# Density = 2.265396 g / cm^3
# Si number density = 22.705641 Si / 1000 Ang^3
#
#
#
# Elastic Constant Matrix: (Units=GPa)
#
#
# Indices 1 2 3 4 5 6 
#
# 1 21.4071 11.5140 20.8050 0.0000 0.0000 0.0000
# 2 11.5140 134.8467 36.6966 0.0000 0.0000 0.0000
# 3 20.8050 36.6966 185.4927 0.0000 0.0000 0.0000
# 4 0.0000 0.0000 0.0000 12.5355 0.0000 0.0000
# 5 0.0000 0.0000 0.0000 0.0000 12.0822 0.0000
# 6 0.0000 0.0000 0.0000 0.0000 0.0000 1.4193
#
#
#
# Elastic Compliance Matrix: (Units=1/GPa)
#
#
# Indices 1 2 3 4 5 6 
#
# 1 0.053635 -0.003110 -0.005400 0.000000 0.000000 0.000000
# 2 -0.003110 0.008018 -0.001237 0.000000 0.000000 0.000000
# 3 -0.005400 -0.001237 0.006242 0.000000 0.000000 0.000000
# 4 0.000000 0.000000 0.000000 0.079773 0.000000 0.000000
# 5 0.000000 0.000000 0.000000 0.000000 0.082767 0.000000
# 6 0.000000 0.000000 0.000000 0.000000 0.000000 0.704567
#
#
# Mechanical properties :
#
#
# Convention : Reuss Voigt Hill
#
# Bulk Modulus (GPa) = 20.66172 53.30864 36.98518
# Shear Modulus (GPa) = 5.15130 23.38947 14.27038
#
# Velocity S-wave (km/s) = 1.50786 3.21303 2.50970
# Velocity P-wave (km/s) = 3.48584 6.10687 4.97217
#
# Compressibility (1/GPa) = 0.04839867
#
# Stress axis : x y z
#
# Youngs Moduli (GPa) = 18.64464 124.71747 160.21604
#
# Poissons Ratio (x) = 0.38787 0.86524
# Poissons Ratio (y) = 0.05798 0.19826
# Poissons Ratio (z) = 0.10069 0.15433
#
# Static dielectric constant tensor:
#      x y z
#    x 1.798720 0.000000 0.000000 
#    y 0.000000 1.888560 0.000000 
#    z 0.000000 0.000000 1.907080 
# 
# From -- ./inp_files/13128.got.cif
#   From: 2010.05.17/outbox.cif.g08.bks.cpg/sg24_7_cif.got.tgz:13128.got - 2010.06.04 00:33:39.
