data_PCOD9333497
_publ_section_title
;
Structure prediction by ZEFSAII (Michael W. Deem and Ramdas Pophale) SiO2 
 PCOD9333497
Probable space group: I 21 21 21
;
_chemical_formula_sum "Si O2"
_cell_formula_units_Z 44
_cell_length_a 17.379501
_cell_length_b 5.161126
_cell_length_c 19.074976
_cell_angle_alpha 90.000000
_cell_angle_beta 90.000000
_cell_angle_gamma 90.000000
_cell_volume 1710.983277
_symmetry_space_group_name_H-M "I 21 21 21"
_symmetry_group_IT_number 24
_symmetry_cell_setting 'orthorhombic'
loop_
_space_group_symop_operation_xyz
x,y,z
-x,1/2-y,z
x,-y,1/2-z
1/2-x,y,-z
1/2+x,1/2+y,1/2+z
1/2-x,-y,1/2+z
1/2+x,1/2-y,-z
-x,1/2+y,1/2-z
loop_
_atom_site_type_symbol
_atom_site_label
_atom_site_fract_x
_atom_site_fract_y
_atom_site_fract_z
Si Si1 0.054772 0.500906 0.673114
Si Si2 0.075721 0.136511 0.324149
Si Si3 0.721016 0.386787 0.861668
Si Si4 0.555485 0.002424 0.486474
Si Si5 0.787170 0.115459 0.432599
Si Si6 0.808607 0.000000 0.250000
O O1 0.097247 0.500000 0.750000
O O2 0.089380 0.516856 0.594061
O O3 0.000000 0.750000 0.675920
O O4 0.000000 0.250000 0.672832
O O5 0.132440 0.372556 0.305342
O O6 0.000000 0.250000 0.356638
O O7 0.055063 0.000000 0.250000
O O8 0.128144 0.936229 0.365532
O O9 0.746366 0.678806 0.874816
O O10 0.732961 0.237374 0.788383
O O11 0.743050 0.170804 0.916643
O O12 0.500000 0.750000 0.499494
O O13 0.500000 0.250000 0.485523
O O14 0.624280 0.064957 0.541810
O O15 0.750000 0.240131 0.500000
#
# Coordination Sequence:
#
# PCOD9333497 Si02
#       6
#     8   8   8   8   8   4
#     4   8  14  27  52  83 113 148 190 253 327 384
#     4  10  19  33  59  93 135 172 215 272 342 395
#     4  11  24  41  64  91 121 180 228 279 327 397
#     4  10  21  39  63  94 130 166 219 282 329 400
#     4  12  26  45  64  92 135 184 226 272 352 414
#     4  10  20  42  62  94 132 166 230 276 342 384
#
# _framework density 25.716208999999999
#
# number of rings (size 3 to 8) (size 9 to 14) (size 15 to 20)
#    0.000    1.818    2.727    1.636    0.000    2.182 
#    3.273    0.000    2.000    0.000   14.182    0.000 
#    0.000    0.000    0.000    0.000    0.000    0.000 
#
# Total GULP energy -122535.082070 kJ/mol
# GULP energy per Si atom -5569.776458 kJ/mol
# Density = 2.565768 g / cm^3
# Si number density = 25.716209 Si / 1000 Ang^3
#
#
#
# Elastic Constant Matrix: (Units=GPa)
#
#
# Indices 1 2 3 4 5 6 
#
# 1 58.7100 26.2816 -2.4433 0.0000 0.0000 0.0000
# 2 26.2816 205.5634 24.2898 0.0000 0.0000 0.0000
# 3 -2.4433 24.2898 118.5703 0.0000 0.0000 0.0000
# 4 0.0000 0.0000 0.0000 42.1019 0.0000 0.0000
# 5 0.0000 0.0000 0.0000 0.0000 15.6677 0.0000
# 6 0.0000 0.0000 0.0000 0.0000 0.0000 3.0543
#
#
#
# Elastic Compliance Matrix: (Units=1/GPa)
#
#
# Indices 1 2 3 4 5 6 
#
# 1 0.018154 -0.002424 0.000871 0.000000 0.000000 0.000000
# 2 -0.002424 0.005309 -0.001138 0.000000 0.000000 0.000000
# 3 0.000871 -0.001138 0.008685 0.000000 0.000000 0.000000
# 4 0.000000 0.000000 0.000000 0.023752 0.000000 0.000000
# 5 0.000000 0.000000 0.000000 0.000000 0.063825 0.000000
# 6 0.000000 0.000000 0.000000 0.000000 0.000000 0.327407
#
#
# Mechanical properties :
#
#
# Convention : Reuss Voigt Hill
#
# Bulk Modulus (GPa) = 37.36033 53.23335 45.29684
# Shear Modulus (GPa) = 10.83573 34.47915 22.65744
#
# Velocity S-wave (km/s) = 2.05493 3.66561 2.97148
# Velocity P-wave (km/s) = 4.49330 6.21778 5.42451
#
# Compressibility (1/GPa) = 0.02676636
#
# Stress axis : x y z
#
# Youngs Moduli (GPa) = 55.08370 188.35961 115.14392
#
# Poissons Ratio (x) = 0.45657 -0.10025
# Poissons Ratio (y) = 0.13352 0.13098
# Poissons Ratio (z) = -0.04796 0.21426
#
# Static dielectric constant tensor:
#      x y z
#    x 2.056900 0.000000 0.000000 
#    y 0.000000 1.995120 0.000000 
#    z 0.000000 0.000000 2.342940 
# 
# From -- ./inp_files/34054.got.cif
#   From: 2010.05.17/outbox.cif.g08.bks.cpg/sg24_18_cif.got.tgz:34054.got - 2010.06.04 00:33:39.
