data_PCOD9333493
_publ_section_title
;
Structure prediction by ZEFSAII (Michael W. Deem and Ramdas Pophale) SiO2 
 PCOD9333493
Probable space group: I 21 21 21
;
_chemical_formula_sum "Si O2"
_cell_formula_units_Z 52
_cell_length_a 7.921607
_cell_length_b 11.079244
_cell_length_c 27.421254
_cell_angle_alpha 90.000000
_cell_angle_beta 90.000000
_cell_angle_gamma 90.000000
_cell_volume 2406.637787
_symmetry_space_group_name_H-M "I 21 21 21"
_symmetry_group_IT_number 24
_symmetry_cell_setting 'orthorhombic'
loop_
_space_group_symop_operation_xyz
x,y,z
-x,1/2-y,z
x,-y,1/2-z
1/2-x,y,-z
1/2+x,1/2+y,1/2+z
1/2-x,-y,1/2+z
1/2+x,1/2-y,-z
-x,1/2+y,1/2-z
loop_
_atom_site_type_symbol
_atom_site_label
_atom_site_fract_x
_atom_site_fract_y
_atom_site_fract_z
Si Si1 0.297052 0.737355 0.054522
Si Si2 0.901687 0.375153 0.686438
Si Si3 0.295467 0.243276 0.115159
Si Si4 0.807358 0.512171 0.914736
Si Si5 0.697402 0.254337 0.772141
Si Si6 0.146975 0.500000 0.750000
Si Si7 0.700682 0.980987 0.442763
O O1 0.500000 0.750000 0.061391
O O2 0.221660 0.871565 0.060587
O O3 0.240850 0.611681 0.079743
O O4 0.250000 0.706193 0.000000
O O5 0.816031 0.433081 0.639892
O O6 0.786904 0.343239 0.733367
O O7 0.000000 0.250000 0.674298
O O8 0.033258 0.475461 0.703171
O O9 0.500000 0.250000 0.113961
O O10 0.244780 0.226722 0.171519
O O11 0.238912 0.367348 0.089402
O O12 0.233955 0.122253 0.087288
O O13 0.995768 0.492225 0.937233
O O14 0.500000 0.250000 0.766220
O O15 0.755830 0.121255 0.758234
O O16 0.750000 0.962151 0.500000
#
# Coordination Sequence:
#
# PCOD9333493 Si02
#       7
#     8   8   8   8   8   4   8
#     4   9  18  34  54  78 107 141 184 240 299 360
#     4  10  19  35  60  86 112 157 215 257 308 397
#     4  10  20  37  59  83 116 163 212 255 314 403
#     4  10  19  33  59  86 110 149 204 258 304 373
#     4  11  24  39  57  91 130 162 206 275 344 390
#     4  10  20  36  62  82 112 166 212 252 308 394
#     4   9  18  34  57  84 116 154 202 261 315 366
#
# _framework density 21.606908000000001
#
# number of rings (size 3 to 8) (size 9 to 14) (size 15 to 20)
#    0.000    2.154    0.000    5.538    0.000    3.692 
#    0.000    7.692    0.000    1.846    0.000    0.000 
#    0.000    0.000    0.000    0.000    0.000    0.000 
#
# Total GULP energy -144867.288046 kJ/mol
# GULP energy per Si atom -5571.818771 kJ/mol
# Density = 2.155773 g / cm^3
# Si number density = 21.606908 Si / 1000 Ang^3
#
#
#
# Elastic Constant Matrix: (Units=GPa)
#
#
# Indices 1 2 3 4 5 6 
#
# 1 35.6645 22.3079 12.6860 0.0000 0.0000 0.0000
# 2 22.3079 157.2422 37.6984 0.0000 0.0000 0.0000
# 3 12.6860 37.6984 87.5887 0.0000 0.0000 0.0000
# 4 0.0000 0.0000 0.0000 526.9566 0.0000 0.0000
# 5 0.0000 0.0000 0.0000 0.0000 -10.7543 0.0000
# 6 0.0000 0.0000 0.0000 0.0000 0.0000 6.9520
#
#
#
# Elastic Compliance Matrix: (Units=1/GPa)
#
#
# Indices 1 2 3 4 5 6 
#
# 1 0.031433 -0.003755 -0.002936 0.000000 0.000000 0.000000
# 2 -0.003755 0.007540 -0.002701 0.000000 0.000000 0.000000
# 3 -0.002936 -0.002701 0.013005 0.000000 0.000000 0.000000
# 4 0.000000 0.000000 0.000000 0.001898 0.000000 0.000000
# 5 0.000000 0.000000 0.000000 0.000000 -0.092986 0.000000
# 6 0.000000 0.000000 0.000000 0.000000 0.000000 0.143844
#
#
# Mechanical properties :
#
#
# Convention : Reuss Voigt Hill
#
# Bulk Modulus (GPa) = 30.12813 47.31999 38.72406
# Shear Modulus (GPa) = 37.15180 118.48438 77.81809
#
# Velocity S-wave (km/s) = 4.15111 7.41319 6.00779
# Velocity P-wave (km/s) = 6.07862 9.75817 8.12931
#
# Compressibility (1/GPa) = 0.03319157
#
# Stress axis : x y z
#
# Youngs Moduli (GPa) = 31.81420 132.62555 76.89389
#
# Poissons Ratio (x) = 0.49806 0.22578
# Poissons Ratio (y) = 0.11947 0.20772
# Poissons Ratio (z) = 0.09341 0.35827
#
# Static dielectric constant tensor:
#      x y z
#    x 1.373370 0.000000 0.000000 
#    y 0.000000 1.870080 0.000000 
#    z 0.000000 0.000000 1.850990 
# 
# From -- ./inp_files/36877.got.cif
#   From: 2010.05.17/outbox.cif.g08.bks.cpg/sg24_19_cif.got.tgz:36877.got - 2010.06.04 00:33:39.
