data_PCOD9333202
_publ_section_title
;
Structure prediction by ZEFSAII (Michael W. Deem and Ramdas Pophale) SiO2 
 PCOD9333202
Probable space group: I 21 21 21
;
_chemical_formula_sum "Si O2"
_cell_formula_units_Z 36
_cell_length_a 20.182161
_cell_length_b 10.213942
_cell_length_c 9.261031
_cell_angle_alpha 90.000000
_cell_angle_beta 90.000000
_cell_angle_gamma 90.000000
_cell_volume 1909.063576
_symmetry_space_group_name_H-M "I 21 21 21"
_symmetry_group_IT_number 24
_symmetry_cell_setting 'orthorhombic'
loop_
_space_group_symop_operation_xyz
x,y,z
-x,1/2-y,z
x,-y,1/2-z
1/2-x,y,-z
1/2+x,1/2+y,1/2+z
1/2-x,-y,1/2+z
1/2+x,1/2-y,-z
-x,1/2+y,1/2-z
loop_
_atom_site_type_symbol
_atom_site_label
_atom_site_fract_x
_atom_site_fract_y
_atom_site_fract_z
Si Si1 0.152830 0.817843 0.774644
Si Si2 0.982106 0.895476 0.360547
Si Si3 0.054074 0.635524 0.681261
Si Si4 0.775143 0.500000 0.250000
Si Si5 0.117616 0.990481 0.497426
O O1 0.124999 0.673832 0.749409
O O2 0.125008 0.891619 0.631703
O O3 0.227671 0.873851 0.776746
O O4 0.120896 0.870620 0.922590
O O5 0.941358 0.875682 0.508050
O O6 0.000000 0.750000 0.302036
O O7 0.050738 0.960634 0.414043
O O8 0.951860 0.000000 0.250000
O O9 0.030164 0.500000 0.750000
O O10 0.000000 0.750000 0.711590
O O11 0.821430 0.522408 0.387896
#
# Coordination Sequence:
#
# PCOD9333202 Si02
#       5
#     8   8   8   4   8
#     4  10  19  34  59  86 115 155 207 252 306 353
#     4  11  22  36  56  84 121 156 196 247 312 373
#     4  11  22  38  59  86 123 161 205 254 308 373
#     4  10  20  34  64  92 118 158 212 266 302 362
#     4  10  18  36  59  88 116 152 205 255 301 368
#
# _framework density 18.857413999999999
#
# number of rings (size 3 to 8) (size 9 to 14) (size 15 to 20)
#    0.000    1.778    5.556    4.000    1.556    2.667 
#    0.000    0.000    0.000    6.667    0.000    0.000 
#    0.000    0.000    0.000    0.000    0.000    0.000 
#
# Total GULP energy -100296.228138 kJ/mol
# GULP energy per Si atom -5572.012674 kJ/mol
# Density = 1.881449 g / cm^3
# Si number density = 18.857414 Si / 1000 Ang^3
#
#
#
# Elastic Constant Matrix: (Units=GPa)
#
#
# Indices 1 2 3 4 5 6 
#
# 1 80.8275 13.5978 18.6789 0.0000 0.0000 0.0000
# 2 13.5978 101.8486 41.3551 0.0000 0.0000 0.0000
# 3 18.6789 41.3551 62.0278 0.0000 0.0000 0.0000
# 4 0.0000 0.0000 0.0000 32.2812 0.0000 0.0000
# 5 0.0000 0.0000 0.0000 0.0000 9.5512 0.0000
# 6 0.0000 0.0000 0.0000 0.0000 0.0000 19.8180
#
#
#
# Elastic Compliance Matrix: (Units=1/GPa)
#
#
# Indices 1 2 3 4 5 6 
#
# 1 0.013301 -0.000205 -0.003869 0.000000 0.000000 0.000000
# 2 -0.000205 0.013466 -0.008917 0.000000 0.000000 0.000000
# 3 -0.003869 -0.008917 0.023232 0.000000 0.000000 0.000000
# 4 0.000000 0.000000 0.000000 0.030978 0.000000 0.000000
# 5 0.000000 0.000000 0.000000 0.000000 0.104699 0.000000
# 6 0.000000 0.000000 0.000000 0.000000 0.000000 0.050459
#
#
# Mechanical properties :
#
#
# Convention : Reuss Voigt Hill
#
# Bulk Modulus (GPa) = 41.63500 43.55194 42.59347
# Shear Modulus (GPa) = 18.51024 23.73488 21.12256
#
# Velocity S-wave (km/s) = 3.13643 3.55159 3.35045
# Velocity P-wave (km/s) = 5.93659 6.32171 6.13217
#
# Compressibility (1/GPa) = 0.02401825
#
# Stress axis : x y z
#
# Youngs Moduli (GPa) = 75.18494 74.25897 43.04470
#
# Poissons Ratio (x) = 0.01522 0.16653
# Poissons Ratio (y) = 0.01541 0.38381
# Poissons Ratio (z) = 0.29087 0.66214
#
# Static dielectric constant tensor:
#      x y z
#    x 1.703700 0.000000 0.000000 
#    y 0.000000 1.725630 0.000000 
#    z 0.000000 0.000000 1.678940 
# 
# From -- ./inp_files/14929.got.cif
#   From: 2010.05.17/outbox.cif.g08.bks.cpg/sg24_8_cif.got.tgz:14929.got - 2010.06.04 00:33:39.
