data_PCOD9333430
_publ_section_title
;
Structure prediction by ZEFSAII (Michael W. Deem and Ramdas Pophale) SiO2 
 PCOD9333430
Probable space group: I 21 21 21
;
_chemical_formula_sum "Si O2"
_cell_formula_units_Z 56
_cell_length_a 11.035085
_cell_length_b 13.653523
_cell_length_c 16.568540
_cell_angle_alpha 90.000000
_cell_angle_beta 90.000000
_cell_angle_gamma 90.000000
_cell_volume 2496.345253
_symmetry_space_group_name_H-M "I 21 21 21"
_symmetry_group_IT_number 24
_symmetry_cell_setting 'orthorhombic'
loop_
_space_group_symop_operation_xyz
x,y,z
-x,1/2-y,z
x,-y,1/2-z
1/2-x,y,-z
1/2+x,1/2+y,1/2+z
1/2-x,-y,1/2+z
1/2+x,1/2-y,-z
-x,1/2+y,1/2-z
loop_
_atom_site_type_symbol
_atom_site_label
_atom_site_fract_x
_atom_site_fract_y
_atom_site_fract_z
Si Si1 0.388967 0.469707 0.923430
Si Si2 0.108024 0.581784 0.596694
Si Si3 0.333683 0.776141 0.323623
Si Si4 0.865780 0.709220 0.870945
Si Si5 0.122564 0.006453 0.843759
Si Si6 0.881610 0.819732 0.107326
Si Si7 0.594679 0.834146 0.711796
O O1 0.245779 0.455355 0.905962
O O2 0.406804 0.583236 0.943541
O O3 0.449620 0.421353 0.845134
O O4 0.427986 0.412035 0.003164
O O5 0.092898 0.686048 0.638710
O O6 0.022693 0.508657 0.645591
O O7 0.361929 0.784743 0.227742
O O8 0.337510 0.882689 0.365696
O O9 0.201545 0.727221 0.329578
O O10 0.841582 0.593641 0.888041
O O11 0.748445 0.767506 0.904470
O O12 0.000000 0.750000 0.895341
O O13 0.158004 0.000000 0.750000
O O14 0.869188 0.865035 0.198311
O O15 0.000000 0.750000 0.100999
O O16 0.500000 0.750000 0.726226
#
# Coordination Sequence:
#
# PCOD9333430 Si02
#       7
#     8   8   8   8   8   8   8
#     4  10  21  36  55  79 109 151 191 230 276 332
#     4  10  20  35  54  81 111 145 186 230 281 333
#     4   9  18  32  53  84 118 142 175 228 284 334
#     4  10  19  33  57  88 114 144 186 231 274 326
#     4  10  19  32  55  86 116 143 174 225 285 334
#     4  10  21  38  58  81 112 150 192 235 277 328
#     4   9  19  34  55  81 109 147 191 232 276 331
#
# _framework density 22.432794999999999
#
# number of rings (size 3 to 8) (size 9 to 14) (size 15 to 20)
#    0.000    2.286    0.000    3.429    0.000    4.571 
#    0.000    7.857    0.000    1.714    0.000    0.000 
#    0.000    0.000    0.000    0.000    0.000    0.000 
#
# Total GULP energy -156016.851356 kJ/mol
# GULP energy per Si atom -5572.030406 kJ/mol
# Density = 2.238174 g / cm^3
# Si number density = 22.432795 Si / 1000 Ang^3
#
#
#
# Elastic Constant Matrix: (Units=GPa)
#
#
# Indices 1 2 3 4 5 6 
#
# 1 51.1605 17.3382 -8.0202 0.0000 0.0000 0.0000
# 2 17.3382 125.6564 20.2512 0.0000 0.0000 0.0000
# 3 -8.0202 20.2512 43.2123 0.0000 0.0000 0.0000
# 4 0.0000 0.0000 0.0000 -12.8555 0.0000 0.0000
# 5 0.0000 0.0000 0.0000 0.0000 5.1186 0.0000
# 6 0.0000 0.0000 0.0000 0.0000 0.0000 23.7281
#
#
#
# Elastic Compliance Matrix: (Units=1/GPa)
#
#
# Indices 1 2 3 4 5 6 
#
# 1 0.021815 -0.003962 0.005905 0.000000 0.000000 0.000000
# 2 -0.003962 0.009328 -0.005107 0.000000 0.000000 0.000000
# 3 0.005905 -0.005107 0.026631 0.000000 0.000000 0.000000
# 4 0.000000 0.000000 0.000000 -0.077788 0.000000 0.000000
# 5 0.000000 0.000000 0.000000 0.000000 0.195366 0.000000
# 6 0.000000 0.000000 0.000000 0.000000 0.000000 0.042144
#
#
# Mechanical properties :
#
#
# Convention : Reuss Voigt Hill
#
# Bulk Modulus (GPa) = 19.43732 31.01862 25.22797
# Shear Modulus (GPa) = 20.74937 15.89557 18.32247
#
# Velocity S-wave (km/s) = 3.04461 2.66482 2.86102
# Velocity P-wave (km/s) = 4.58727 4.82967 4.71003
#
# Compressibility (1/GPa) = 0.05144741
#
# Stress axis : x y z
#
# Youngs Moduli (GPa) = 45.84054 107.20542 37.55038
#
# Poissons Ratio (x) = 0.42472 -0.22175
# Poissons Ratio (y) = 0.18161 0.19176
# Poissons Ratio (z) = -0.27071 0.54747
#
# Static dielectric constant tensor:
#      x y z
#    x 1.967510 0.000000 0.000000 
#    y 0.000000 1.889540 0.000000 
#    z 0.000000 0.000000 1.884290 
# 
# From -- ./inp_files/33371.got.cif
#   From: 2010.05.17/outbox.cif.g08.bks.cpg/sg24_17_cif.got.tgz:33371.got - 2010.06.04 00:33:39.
