data_PCOD9333021
_publ_section_title
;
Structure prediction by ZEFSAII (Michael W. Deem and Ramdas Pophale) SiO2 
 PCOD9333021
Probable space group: I 21 21 21
;
_chemical_formula_sum "Si O2"
_cell_formula_units_Z 56
_cell_length_a 9.914890
_cell_length_b 13.537237
_cell_length_c 27.266277
_cell_angle_alpha 90.000000
_cell_angle_beta 90.000000
_cell_angle_gamma 90.000000
_cell_volume 3659.685582
_symmetry_space_group_name_H-M "I 21 21 21"
_symmetry_group_IT_number 24
_symmetry_cell_setting 'orthorhombic'
loop_
_space_group_symop_operation_xyz
x,y,z
-x,1/2-y,z
x,-y,1/2-z
1/2-x,y,-z
1/2+x,1/2+y,1/2+z
1/2-x,-y,1/2+z
1/2+x,1/2-y,-z
-x,1/2+y,1/2-z
loop_
_atom_site_type_symbol
_atom_site_label
_atom_site_fract_x
_atom_site_fract_y
_atom_site_fract_z
Si Si1 0.750000 0.934342 0.799698
Si Si2 0.250002 0.198280 0.708995
Si Si3 0.041090 0.053017 0.655225
Si Si4 0.091797 0.153734 0.443831
Si Si5 0.750001 0.575192 0.296543
Si Si6 0.958912 0.446983 0.344776
Si Si7 0.908203 0.346266 0.556170
O O1 0.749998 0.815185 0.795279
O O2 0.611751 0.955753 0.828150
O O3 0.888251 0.955751 0.828149
O O4 0.749999 0.000000 0.750000
O O5 0.121222 0.143746 0.683059
O O6 0.250002 0.176091 0.767262
O O7 0.378782 0.143746 0.683058
O O8 0.056196 0.075623 0.597966
O O9 0.121260 0.955398 0.671937
O O10 0.056195 0.075622 0.402035
O O11 0.070897 0.120242 0.500000
O O12 0.250000 0.179657 0.438372
O O13 0.000000 0.250000 0.435858
O O14 0.750002 0.500000 0.250000
O O15 0.878741 0.544602 0.328063
O O16 0.000000 0.250000 0.564143
#
# Coordination Sequence:
#
# PCOD9333021 Si02
#       7
#     8   8   8   8   8   8   8
#     4  12  22  30  45  70  94 118 157 192 229 280
#     4  10  18  32  48  61  90 124 154 185 232 274
#     4  10  19  31  46  66  91 124 154 189 224 270
#     4  10  19  30  45  67  94 124 159 192 227 275
#     4   8  16  32  46  61  85 120 155 187 226 266
#     4  10  19  31  46  66  91 124 154 189 224 270
#     4  10  19  30  45  67  94 124 159 192 227 275
#
# _framework density 15.301861000000001
#
# number of rings (size 3 to 8) (size 9 to 14) (size 15 to 20)
#    0.000    2.286    2.857    5.143    2.000    0.000 
#    0.000    0.000    0.000    0.000    0.000    0.000 
#    0.000    6.857    0.000    0.000    0.000    0.000 
#
# Total GULP energy -155925.981703 kJ/mol
# GULP energy per Si atom -5568.785061 kJ/mol
# Density = 1.526703 g / cm^3
# Si number density = 15.301861 Si / 1000 Ang^3
#
#
#
# Elastic Constant Matrix: (Units=GPa)
#
#
# Indices 1 2 3 4 5 6 
#
# 1 135.2133 12.8644 48.0738 0.0000 0.0000 0.0000
# 2 12.8644 13.9373 10.8429 0.0000 0.0000 0.0000
# 3 48.0738 10.8429 106.8828 0.0000 0.0000 0.0000
# 4 0.0000 0.0000 0.0000 21.3072 0.0000 0.0000
# 5 0.0000 0.0000 0.0000 0.0000 25.9308 0.0000
# 6 0.0000 0.0000 0.0000 0.0000 0.0000 9.2796
#
#
#
# Elastic Compliance Matrix: (Units=1/GPa)
#
#
# Indices 1 2 3 4 5 6 
#
# 1 0.009206 -0.005728 -0.003560 0.000000 0.000000 0.000000
# 2 -0.005728 0.081462 -0.005688 0.000000 0.000000 0.000000
# 3 -0.003560 -0.005688 0.011534 0.000000 0.000000 0.000000
# 4 0.000000 0.000000 0.000000 0.046932 0.000000 0.000000
# 5 0.000000 0.000000 0.000000 0.000000 0.038564 0.000000
# 6 0.000000 0.000000 0.000000 0.000000 0.000000 0.107764
#
#
# Mechanical properties :
#
#
# Convention : Reuss Voigt Hill
#
# Bulk Modulus (GPa) = 13.84057 44.39952 29.12004
# Shear Modulus (GPa) = 14.30624 23.58700 18.94662
#
# Velocity S-wave (km/s) = 3.06099 3.93039 3.52261
# Velocity P-wave (km/s) = 4.64301 7.04812 5.96798
#
# Compressibility (1/GPa) = 0.07225136
#
# Stress axis : x y z
#
# Youngs Moduli (GPa) = 108.62080 12.27565 86.69924
#
# Poissons Ratio (x) = 0.07032 0.30862
# Poissons Ratio (y) = 0.62221 0.49311
# Poissons Ratio (z) = 0.38666 0.06982
#
# Static dielectric constant tensor:
#      x y z
#    x 1.528580 0.000000 0.000000 
#    y 0.000000 1.515460 0.000000 
#    z 0.000000 0.000000 1.529830 
# 
# From -- ./inp_files/38451.got.cif
#   From: 2010.05.17/outbox.cif.g08.bks.cpg/sg24_20_cif.got.tgz:38451.got - 2010.06.04 00:33:39.
