data_PCOD9333169
_publ_section_title
;
Structure prediction by ZEFSAII (Michael W. Deem and Ramdas Pophale) SiO2 
 PCOD9333169
Probable space group: I 21 21 21
;
_chemical_formula_sum "Si O2"
_cell_formula_units_Z 56
_cell_length_a 20.328716
_cell_length_b 9.460066
_cell_length_c 15.172201
_cell_angle_alpha 90.000000
_cell_angle_beta 90.000000
_cell_angle_gamma 90.000000
_cell_volume 2917.781071
_symmetry_space_group_name_H-M "I 21 21 21"
_symmetry_group_IT_number 24
_symmetry_cell_setting 'orthorhombic'
loop_
_space_group_symop_operation_xyz
x,y,z
-x,1/2-y,z
x,-y,1/2-z
1/2-x,y,-z
1/2+x,1/2+y,1/2+z
1/2-x,-y,1/2+z
1/2+x,1/2-y,-z
-x,1/2+y,1/2-z
loop_
_atom_site_type_symbol
_atom_site_label
_atom_site_fract_x
_atom_site_fract_y
_atom_site_fract_z
Si Si1 0.790039 0.858421 0.406043
Si Si2 0.567130 0.664813 0.997210
Si Si3 0.304137 0.678986 0.922781
Si Si4 0.563655 0.654522 0.207772
Si Si5 0.672476 0.684163 0.341983
Si Si6 0.128774 0.882436 0.465603
Si Si7 0.723855 0.543400 0.842168
O O1 0.750000 0.851898 0.500000
O O2 0.734384 0.789633 0.344672
O O3 0.855175 0.759750 0.410171
O O4 0.808535 0.019380 0.389237
O O5 0.500000 0.750000 0.979276
O O6 0.574805 0.650373 0.102952
O O7 0.627183 0.758072 0.958892
O O8 0.572048 0.502254 0.960811
O O9 0.278219 0.790465 0.851704
O O10 0.250000 0.680412 0.000000
O O11 0.500000 0.750000 0.223337
O O12 0.553092 0.500000 0.250000
O O13 0.624819 0.716089 0.262058
O O14 0.634009 0.674816 0.434755
O O15 0.705377 0.528994 0.338330
O O16 0.189926 0.976767 0.428858
O O17 0.689774 0.500000 0.750000
#
# Coordination Sequence:
#
# PCOD9333169 Si02
#       7
#     8   8   8   8   8   8   8
#     4   8  17  34  54  80 109 147 200 248 304 351
#     4  10  21  38  58  86 120 159 209 245 291 367
#     4  10  20  36  58  85 119 153 200 264 300 357
#     4  11  23  40  54  84 123 164 206 240 281 362
#     4  10  18  35  56  75 113 162 194 242 303 366
#     4   9  17  35  55  75 111 155 193 238 292 367
#     4  10  19  29  55  87 109 141 193 247 303 360
#
# _framework density 19.192667
#
# number of rings (size 3 to 8) (size 9 to 14) (size 15 to 20)
#    0.000    2.286    1.429    3.429    2.000    0.571 
#   15.429    3.571    3.143    0.000    0.000   36.000 
#    0.000    0.000    0.000    0.000    0.000    0.000 
#
# Total GULP energy -155900.672105 kJ/mol
# GULP energy per Si atom -5567.881147 kJ/mol
# Density = 1.914898 g / cm^3
# Si number density = 19.192667 Si / 1000 Ang^3
#
#
#
# Elastic Constant Matrix: (Units=GPa)
#
#
# Indices 1 2 3 4 5 6 
#
# 1 78.5372 48.9437 21.8550 0.0000 0.0000 0.0000
# 2 48.9437 179.9879 26.4268 0.0000 0.0000 0.0000
# 3 21.8550 26.4268 40.8012 0.0000 0.0000 0.0000
# 4 0.0000 0.0000 0.0000 9.5302 0.0000 0.0000
# 5 0.0000 0.0000 0.0000 0.0000 20.8931 0.0000
# 6 0.0000 0.0000 0.0000 0.0000 0.0000 22.6612
#
#
#
# Elastic Compliance Matrix: (Units=1/GPa)
#
#
# Indices 1 2 3 4 5 6 
#
# 1 0.016835 -0.003596 -0.006689 0.000000 0.000000 0.000000
# 2 -0.003596 0.006908 -0.002548 0.000000 0.000000 0.000000
# 3 -0.006689 -0.002548 0.029742 0.000000 0.000000 0.000000
# 4 0.000000 0.000000 0.000000 0.104929 0.000000 0.000000
# 5 0.000000 0.000000 0.000000 0.000000 0.047863 0.000000
# 6 0.000000 0.000000 0.000000 0.000000 0.000000 0.044128
#
#
# Mechanical properties :
#
#
# Convention : Reuss Voigt Hill
#
# Bulk Modulus (GPa) = 35.94534 54.86414 45.40474
# Shear Modulus (GPa) = 17.52273 24.09029 20.80651
#
# Velocity S-wave (km/s) = 3.02485 3.54670 3.29612
# Velocity P-wave (km/s) = 5.56498 6.73945 6.18017
#
# Compressibility (1/GPa) = 0.02782001
#
# Stress axis : x y z
#
# Youngs Moduli (GPa) = 59.40015 144.76248 33.62227
#
# Poissons Ratio (x) = 0.52054 0.22488
# Poissons Ratio (y) = 0.21359 0.08567
# Poissons Ratio (z) = 0.39730 0.36887
#
# Static dielectric constant tensor:
#      x y z
#    x 1.670070 0.000000 0.000000 
#    y 0.000000 1.708260 0.000000 
#    z 0.000000 0.000000 1.728220 
# 
# From -- ./inp_files/27527.got.cif
#   From: 2010.05.17/outbox.cif.g08.bks.cpg/sg24_14_cif.got.tgz:27527.got - 2010.06.04 00:33:39.
