data_PCOD9333104
_publ_section_title
;
Structure prediction by ZEFSAII (Michael W. Deem and Ramdas Pophale) SiO2 
 PCOD9333104
Probable space group: I 21 21 21
;
_chemical_formula_sum "Si O2"
_cell_formula_units_Z 60
_cell_length_a 29.294253
_cell_length_b 12.555786
_cell_length_c 7.596925
_cell_angle_alpha 90.000000
_cell_angle_beta 90.000000
_cell_angle_gamma 90.000000
_cell_volume 2794.243002
_symmetry_space_group_name_H-M "I 21 21 21"
_symmetry_group_IT_number 24
_symmetry_cell_setting 'orthorhombic'
loop_
_space_group_symop_operation_xyz
x,y,z
-x,1/2-y,z
x,-y,1/2-z
1/2-x,y,-z
1/2+x,1/2+y,1/2+z
1/2-x,-y,1/2+z
1/2+x,1/2-y,-z
-x,1/2+y,1/2-z
loop_
_atom_site_type_symbol
_atom_site_label
_atom_site_fract_x
_atom_site_fract_y
_atom_site_fract_z
Si Si1 0.750000 0.226501 0.000000
Si Si2 0.381256 0.172920 0.558363
Si Si3 0.582674 0.758472 0.605776
Si Si4 0.120687 0.399102 0.596358
Si Si5 0.069456 0.024735 0.037219
Si Si6 0.659340 0.096724 0.012164
Si Si7 0.964913 0.027608 0.043172
Si Si8 0.721055 0.379328 0.680496
O O1 0.707804 0.148362 0.031156
O O2 0.760448 0.300167 0.168712
O O3 0.420394 0.215763 0.694938
O O4 0.374257 0.276098 0.443759
O O5 0.332953 0.142569 0.648008
O O6 0.399355 0.068178 0.460154
O O7 0.583961 0.646698 0.502719
O O8 0.628975 0.827313 0.608115
O O9 0.546998 0.845906 0.536622
O O10 0.155051 0.470927 0.475849
O O11 0.133925 0.401840 0.800168
O O12 0.071155 0.450682 0.553888
O O13 0.016796 0.011171 0.987050
O O14 0.073599 0.000000 0.250000
O O15 0.960914 0.000000 0.250000
O O16 0.726036 0.500000 0.750000
O O17 0.750000 0.366244 0.500000
#
# Coordination Sequence:
#
# PCOD9333104 Si02
#       8
#     4   8   8   8   8   8   8   8
#     4  12  24  46  68 100 136 176 230 282 338 410
#     4  11  21  39  63  93 128 166 219 276 328 400
#     4  10  18  36  61  86 128 164 209 266 330 383
#     4  10  22  42  62  90 129 169 212 271 339 396
#     4   9  20  32  59  96 124 162 215 271 323 393
#     4  10  23  42  64  89 127 174 212 274 338 399
#     4  10  18  33  62  93 121 165 219 269 323 397
#     4  12  25  43  69 100 134 180 228 277 345 416
#
# _framework density 21.472722999999998
#
# number of rings (size 3 to 8) (size 9 to 14) (size 15 to 20)
#    0.000    1.600    3.333    2.400    0.000    0.533 
#    6.000    0.667   20.533    0.000    0.000    0.000 
#    0.000    0.000    0.000    0.000    0.000    0.000 
#
# Total GULP energy -167317.295232 kJ/mol
# GULP energy per Si atom -5577.243174 kJ/mol
# Density = 2.142385 g / cm^3
# Si number density = 21.472723 Si / 1000 Ang^3
#
#
#
# Elastic Constant Matrix: (Units=GPa)
#
#
# Indices 1 2 3 4 5 6 
#
# 1 86.4079 48.3791 8.4910 0.0000 0.0000 0.0000
# 2 48.3791 179.7212 24.6500 0.0000 0.0000 0.0000
# 3 8.4910 24.6500 50.2172 0.0000 0.0000 0.0000
# 4 0.0000 0.0000 0.0000 21.2722 0.0000 0.0000
# 5 0.0000 0.0000 0.0000 0.0000 -4.5035 0.0000
# 6 0.0000 0.0000 0.0000 0.0000 0.0000 8.2468
#
#
#
# Elastic Compliance Matrix: (Units=1/GPa)
#
#
# Indices 1 2 3 4 5 6 
#
# 1 0.013640 -0.003598 -0.000540 0.000000 0.000000 0.000000
# 2 -0.003598 0.006915 -0.002786 0.000000 0.000000 0.000000
# 3 -0.000540 -0.002786 0.021372 0.000000 0.000000 0.000000
# 4 0.000000 0.000000 0.000000 0.047010 0.000000 0.000000
# 5 0.000000 0.000000 0.000000 0.000000 -0.222051 0.000000
# 6 0.000000 0.000000 0.000000 0.000000 0.000000 0.121260
#
#
# Mechanical properties :
#
#
# Convention : Reuss Voigt Hill
#
# Bulk Modulus (GPa) = 35.61316 53.26517 44.43917
# Shear Modulus (GPa) = 440.36783 20.65819 230.51301
#
# Velocity S-wave (km/s) = 14.33624 3.10508 10.37230
# Velocity P-wave (km/s) = 17.04870 6.14127 12.81354
#
# Compressibility (1/GPa) = 0.02807951
#
# Stress axis : x y z
#
# Youngs Moduli (GPa) = 73.31131 144.61822 46.78940
#
# Poissons Ratio (x) = 0.52030 0.02528
# Poissons Ratio (y) = 0.26376 0.13035
# Poissons Ratio (z) = 0.03962 0.40289
#
# Static dielectric constant tensor:
#      x y z
#    x 1.787920 0.000000 0.000000 
#    y 0.000000 1.979310 0.000000 
#    z 0.000000 0.000000 1.858120 
# 
# From -- ./inp_files/16449.got.cif
#   From: 2010.05.17/outbox.cif.g08.bks.cpg/sg24_9_cif.got.tgz:16449.got - 2010.06.04 00:33:39.
