data_PCOD9333984
_publ_section_title
;
Structure prediction by ZEFSAII (Michael W. Deem and Ramdas Pophale) SiO2 
 PCOD9333984
Probable space group: I 21 21 21
;
_chemical_formula_sum "Si O2"
_cell_formula_units_Z 44
_cell_length_a 15.747969
_cell_length_b 5.116096
_cell_length_c 26.526021
_cell_angle_alpha 90.000000
_cell_angle_beta 90.000000
_cell_angle_gamma 90.000000
_cell_volume 2137.151675
_symmetry_space_group_name_H-M "I 21 21 21"
_symmetry_group_IT_number 24
_symmetry_cell_setting 'orthorhombic'
loop_
_space_group_symop_operation_xyz
x,y,z
-x,1/2-y,z
x,-y,1/2-z
1/2-x,y,-z
1/2+x,1/2+y,1/2+z
1/2-x,-y,1/2+z
1/2+x,1/2-y,-z
-x,1/2+y,1/2-z
loop_
_atom_site_type_symbol
_atom_site_label
_atom_site_fract_x
_atom_site_fract_y
_atom_site_fract_z
Si Si1 0.250000 0.425560 0.500000
Si Si2 0.500000 0.750000 0.582533
Si Si3 0.252000 0.442474 0.887375
Si Si4 0.138912 0.948775 0.143456
Si Si5 0.944640 0.993625 0.616961
Si Si6 0.058451 0.000000 0.250000
Si Si7 0.424471 0.430491 0.501026
O O1 0.243711 0.584585 0.551823
O O2 0.337167 0.271603 0.501872
O O3 0.550753 0.539216 0.616223
O O4 0.428006 0.648722 0.543688
O O5 0.294564 0.184654 0.864917
O O6 0.155137 0.493612 0.868126
O O7 0.315083 0.686211 0.876187
O O8 0.114656 0.924178 0.201886
O O9 0.941014 0.978239 0.555642
O O10 0.000000 0.250000 0.629132
O O11 0.000000 0.750000 0.635628
O O12 0.000000 0.250000 0.237173
O O13 0.500000 0.250000 0.516372
#
# Coordination Sequence:
#
# PCOD9333984 Si02
#       7
#     4   4   8   8   8   4   8
#     4  10  20  38  54  88 132 170 214 266 318 390
#     4  12  22  36  60  86 126 170 220 262 326 390
#     4  11  24  40  62  96 131 170 221 267 328 401
#     4  12  26  42  65  95 127 173 222 279 334 397
#     4  10  20  37  60  89 128 174 213 254 315 382
#     4  12  26  48  72  96 128 174 230 288 348 396
#     4  10  20  34  53  82 124 173 214 258 310 381
#
# _framework density 20.588151
#
# number of rings (size 3 to 8) (size 9 to 14) (size 15 to 20)
#    0.000    1.091    3.636    3.273    0.000    0.727 
#    0.000    0.000    0.000    0.000    0.000   12.727 
#    0.000    0.000    0.000    0.000    0.000    0.000 
#
# Total GULP energy -122745.787572 kJ/mol
# GULP energy per Si atom -5579.353981 kJ/mol
# Density = 2.054129 g / cm^3
# Si number density = 20.588151 Si / 1000 Ang^3
#
#
#
# Elastic Constant Matrix: (Units=GPa)
#
#
# Indices 1 2 3 4 5 6 
#
# 1 138.6349 39.6081 2.8609 0.0000 0.0000 0.0000
# 2 39.6081 103.3613 14.4424 0.0000 0.0000 0.0000
# 3 2.8609 14.4424 65.5747 0.0000 0.0000 0.0000
# 4 0.0000 0.0000 0.0000 -131.9915 0.0000 0.0000
# 5 0.0000 0.0000 0.0000 0.0000 19.5501 0.0000
# 6 0.0000 0.0000 0.0000 0.0000 0.0000 31.9778
#
#
#
# Elastic Compliance Matrix: (Units=1/GPa)
#
#
# Indices 1 2 3 4 5 6 
#
# 1 0.008107 -0.003154 0.000341 0.000000 0.000000 0.000000
# 2 -0.003154 0.011209 -0.002331 0.000000 0.000000 0.000000
# 3 0.000341 -0.002331 0.015748 0.000000 0.000000 0.000000
# 4 0.000000 0.000000 0.000000 -0.007576 0.000000 0.000000
# 5 0.000000 0.000000 0.000000 0.000000 0.051151 0.000000
# 6 0.000000 0.000000 0.000000 0.000000 0.000000 0.031272
#
#
# Mechanical properties :
#
#
# Convention : Reuss Voigt Hill
#
# Bulk Modulus (GPa) = 40.36173 46.82150 43.59162
# Shear Modulus (GPa) = 38.92297 0.61790 19.77044
#
# Velocity S-wave (km/s) = 4.35277 0.54843 3.10220
# Velocity P-wave (km/s) = 6.70142 4.81585 5.83530
#
# Compressibility (1/GPa) = 0.02477594
#
# Stress axis : x y z
#
# Youngs Moduli (GPa) = 123.34458 89.21164 63.49878
#
# Poissons Ratio (x) = 0.28141 -0.02166
# Poissons Ratio (y) = 0.38908 0.14803
# Poissons Ratio (z) = -0.04206 0.20797
#
# Static dielectric constant tensor:
#      x y z
#    x 1.856310 0.000000 0.000000 
#    y 0.000000 1.817900 0.000000 
#    z 0.000000 0.000000 1.704690 
# 
# From -- ./inp_files/28008.got.cif
#   From: 2010.05.17/outbox.cif.g08.bks.cpg/sg24_15_cif.got.tgz:28008.got - 2010.06.04 00:33:39.
