data_PCOD9333240
_publ_section_title
;
Structure prediction by ZEFSAII (Michael W. Deem and Ramdas Pophale) SiO2 
 PCOD9333240
Probable space group: I 21 21 21
;
_chemical_formula_sum "Si O2"
_cell_formula_units_Z 48
_cell_length_a 15.371208
_cell_length_b 10.148444
_cell_length_c 16.194987
_cell_angle_alpha 90.000000
_cell_angle_beta 90.000000
_cell_angle_gamma 90.000000
_cell_volume 2526.318269
_symmetry_space_group_name_H-M "I 21 21 21"
_symmetry_group_IT_number 24
_symmetry_cell_setting 'orthorhombic'
loop_
_space_group_symop_operation_xyz
x,y,z
-x,1/2-y,z
x,-y,1/2-z
1/2-x,y,-z
1/2+x,1/2+y,1/2+z
1/2-x,-y,1/2+z
1/2+x,1/2-y,-z
-x,1/2+y,1/2-z
loop_
_atom_site_type_symbol
_atom_site_label
_atom_site_fract_x
_atom_site_fract_y
_atom_site_fract_z
Si Si1 0.240502 0.636338 0.292346
Si Si2 0.799162 0.386213 0.313695
Si Si3 0.384907 0.665718 0.563192
Si Si4 0.897991 0.233632 0.872727
Si Si5 0.941659 0.529072 0.417027
Si Si6 0.825118 0.502216 0.563439
O O1 0.220523 0.500000 0.250000
O O2 0.199844 0.751422 0.236096
O O3 0.200916 0.640378 0.384499
O O4 0.343369 0.657962 0.304155
O O5 0.774082 0.500000 0.250000
O O6 0.890618 0.437419 0.352330
O O7 0.724902 0.390800 0.384816
O O8 0.386092 0.669442 0.463867
O O9 0.455918 0.555183 0.589381
O O10 0.409493 0.817684 0.586630
O O11 0.854026 0.377445 0.879736
O O12 0.000000 0.250000 0.857375
O O13 0.908077 0.473950 0.505557
O O14 0.750000 0.551144 0.500000
#
# Coordination Sequence:
#
# PCOD9333240 Si02
#       6
#     8   8   8   8   8   8
#     4  12  26  41  54  90 134 166 187 243 329 372
#     4  11  19  34  61  85 119 156 204 249 294 358
#     4  10  18  37  62  89 120 152 202 255 295 353
#     4  11  19  37  64  88 112 155 214 252 290 358
#     4   9  17  33  60  96 111 146 206 254 294 341
#     4   9  16  32  59  90 110 144 203 261 287 341
#
# _framework density 18.999980000000001
#
# number of rings (size 3 to 8) (size 9 to 14) (size 15 to 20)
#    0.000    1.667    6.667    2.500    0.000    0.667 
#    3.000    5.000    0.000    0.000    0.000    0.000 
#    0.000    0.000    0.000    0.000    0.000    0.000 
#
# Total GULP energy -133666.637170 kJ/mol
# GULP energy per Si atom -5569.443215 kJ/mol
# Density = 1.895674 g / cm^3
# Si number density = 18.999980 Si / 1000 Ang^3
#
#
#
# Elastic Constant Matrix: (Units=GPa)
#
#
# Indices 1 2 3 4 5 6 
#
# 1 92.7983 22.5183 26.8107 0.0000 0.0000 0.0000
# 2 22.5183 74.3417 28.2883 0.0000 0.0000 0.0000
# 3 26.8107 28.2883 41.6306 0.0000 0.0000 0.0000
# 4 0.0000 0.0000 0.0000 12.7379 0.0000 0.0000
# 5 0.0000 0.0000 0.0000 0.0000 15.7817 0.0000
# 6 0.0000 0.0000 0.0000 0.0000 0.0000 7.5331
#
#
#
# Elastic Compliance Matrix: (Units=1/GPa)
#
#
# Indices 1 2 3 4 5 6 
#
# 1 0.013299 -0.001037 -0.007859 0.000000 0.000000 0.000000
# 2 -0.001037 0.018223 -0.011715 0.000000 0.000000 0.000000
# 3 -0.007859 -0.011715 0.037043 0.000000 0.000000 0.000000
# 4 0.000000 0.000000 0.000000 0.078506 0.000000 0.000000
# 5 0.000000 0.000000 0.000000 0.000000 0.063364 0.000000
# 6 0.000000 0.000000 0.000000 0.000000 0.000000 0.132748
#
#
# Mechanical properties :
#
#
# Convention : Reuss Voigt Hill
#
# Bulk Modulus (GPa) = 36.57491 40.44502 38.50996
# Shear Modulus (GPa) = 12.70584 15.95410 14.32997
#
# Velocity S-wave (km/s) = 2.58879 2.90088 2.74927
# Velocity P-wave (km/s) = 5.31296 5.70555 5.51275
#
# Compressibility (1/GPa) = 0.02734115
#
# Stress axis : x y z
#
# Youngs Moduli (GPa) = 75.19633 54.87475 26.99589
#
# Poissons Ratio (x) = 0.05693 0.21217
# Poissons Ratio (y) = 0.07802 0.31625
# Poissons Ratio (z) = 0.59100 0.64284
#
# Static dielectric constant tensor:
#      x y z
#    x 1.714840 0.000000 0.000000 
#    y 0.000000 1.638240 0.000000 
#    z 0.000000 0.000000 1.724150 
# 
# From -- ./inp_files/30724.got.cif
#   From: 2010.05.17/outbox.cif.g08.bks.cpg/sg24_16_cif.got.tgz:30724.got - 2010.06.04 00:33:39.
