data_PCOD9333266
_publ_section_title
;
Structure prediction by ZEFSAII (Michael W. Deem and Ramdas Pophale) SiO2 
 PCOD9333266
Probable space group: I 21 21 21
;
_chemical_formula_sum "Si O2"
_cell_formula_units_Z 40
_cell_length_a 8.627835
_cell_length_b 13.756408
_cell_length_c 12.743127
_cell_angle_alpha 90.000000
_cell_angle_beta 90.000000
_cell_angle_gamma 90.000000
_cell_volume 1512.456492
_symmetry_space_group_name_H-M "I 21 21 21"
_symmetry_group_IT_number 24
_symmetry_cell_setting 'orthorhombic'
loop_
_space_group_symop_operation_xyz
x,y,z
-x,1/2-y,z
x,-y,1/2-z
1/2-x,y,-z
1/2+x,1/2+y,1/2+z
1/2-x,-y,1/2+z
1/2+x,1/2-y,-z
-x,1/2+y,1/2-z
loop_
_atom_site_type_symbol
_atom_site_label
_atom_site_fract_x
_atom_site_fract_y
_atom_site_fract_z
Si Si1 0.250000 0.214897 0.000000
Si Si2 0.838213 0.380704 0.329332
Si Si3 0.699485 0.000000 0.250000
Si Si4 0.750000 0.224144 0.500000
Si Si5 0.943650 0.641419 0.687273
Si Si6 0.391502 0.454681 0.559898
Si Si7 0.000000 0.750000 0.339138
O O1 0.363429 0.151958 0.073691
O O2 0.143167 0.272457 0.083036
O O3 0.792903 0.291836 0.404443
O O4 0.677957 0.400552 0.270789
O O5 0.944935 0.336573 0.236125
O O6 0.930338 0.461625 0.398870
O O7 0.589673 0.072486 0.187531
O O8 0.805835 0.059045 0.329190
O O9 0.609458 0.145758 0.492759
O O10 0.000000 0.750000 0.716276
O O11 0.250000 0.511975 0.500000
#
# Coordination Sequence:
#
# PCOD9333266 Si02
#       7
#     4   8   4   4   8   8   4
#     4  10  22  40  70 102 150 184 252 284 372 424
#     4  11  22  40  75 105 150 183 248 301 378 431
#     4  12  28  50  68 108 146 190 252 308 364 442
#     4  10  20  38  72 112 136 186 234 304 366 442
#     4  11  26  48  75 108 147 199 243 309 364 450
#     4  10  24  44  66 104 143 190 238 303 370 433
#     4  10  18  38  62 110 128 192 232 298 346 442
#
# _framework density 26.447042
#
# number of rings (size 3 to 8) (size 9 to 14) (size 15 to 20)
#    0.600    0.800    3.000    1.200    5.600    0.800 
#   12.600    0.000    0.000    0.000    0.000    0.000 
#    0.000    0.000    0.000    0.000    0.000    0.000 
#
# Total GULP energy -111569.115063 kJ/mol
# GULP energy per Si atom -5578.455753 kJ/mol
# Density = 2.638685 g / cm^3
# Si number density = 26.447042 Si / 1000 Ang^3
#
#
#
# Elastic Constant Matrix: (Units=GPa)
#
#
# Indices 1 2 3 4 5 6 
#
# 1 130.8713 36.6931 56.2596 0.0000 0.0000 0.0000
# 2 36.6931 89.3140 15.9326 0.0000 0.0000 0.0000
# 3 56.2596 15.9326 106.8589 0.0000 0.0000 0.0000
# 4 0.0000 0.0000 0.0000 8.9968 0.0000 0.0000
# 5 0.0000 0.0000 0.0000 0.0000 67.8942 0.0000
# 6 0.0000 0.0000 0.0000 0.0000 0.0000 7.9135
#
#
#
# Elastic Compliance Matrix: (Units=1/GPa)
#
#
# Indices 1 2 3 4 5 6 
#
# 1 0.010865 -0.003537 -0.005193 0.000000 0.000000 0.000000
# 2 -0.003537 0.012654 -0.000024 0.000000 0.000000 0.000000
# 3 -0.005193 -0.000024 0.012096 0.000000 0.000000 0.000000
# 4 0.000000 0.000000 0.000000 0.111150 0.000000 0.000000
# 5 0.000000 0.000000 0.000000 0.000000 0.014729 0.000000
# 6 0.000000 0.000000 0.000000 0.000000 0.000000 0.126366
#
#
# Mechanical properties :
#
#
# Convention : Reuss Voigt Hill
#
# Bulk Modulus (GPa) = 55.23125 60.53499 57.88312
# Shear Modulus (GPa) = 16.05627 31.50483 23.78055
#
# Velocity S-wave (km/s) = 2.46663 3.45518 3.00188
# Velocity P-wave (km/s) = 5.38901 6.23350 5.82658
#
# Compressibility (1/GPa) = 0.01810569
#
# Stress axis : x y z
#
# Youngs Moduli (GPa) = 92.03616 79.02590 82.67340
#
# Poissons Ratio (x) = 0.27955 0.42932
# Poissons Ratio (y) = 0.32557 0.00201
# Poissons Ratio (z) = 0.47794 0.00192
#
# Static dielectric constant tensor:
#      x y z
#    x 2.098760 0.000000 0.000000 
#    y 0.000000 2.220290 0.000000 
#    z 0.000000 0.000000 2.086320 
# 
# From -- ./inp_files/18298.got.cif
#   From: 2010.05.17/outbox.cif.g08.bks.cpg/sg24_10_cif.got.tgz:18298.got - 2010.06.04 00:33:39.
