data_PCOD9333921
_publ_section_title
;
Structure prediction by ZEFSAII (Michael W. Deem and Ramdas Pophale) SiO2 
 PCOD9333921
Probable space group: I 21 21 21
;
_chemical_formula_sum "Si O2"
_cell_formula_units_Z 48
_cell_length_a 8.672666
_cell_length_b 13.506885
_cell_length_c 17.118087
_cell_angle_alpha 90.000000
_cell_angle_beta 90.000000
_cell_angle_gamma 90.000000
_cell_volume 2005.224733
_symmetry_space_group_name_H-M "I 21 21 21"
_symmetry_group_IT_number 24
_symmetry_cell_setting 'orthorhombic'
loop_
_space_group_symop_operation_xyz
x,y,z
-x,1/2-y,z
x,-y,1/2-z
1/2-x,y,-z
1/2+x,1/2+y,1/2+z
1/2-x,-y,1/2+z
1/2+x,1/2-y,-z
-x,1/2+y,1/2-z
loop_
_atom_site_type_symbol
_atom_site_label
_atom_site_fract_x
_atom_site_fract_y
_atom_site_fract_z
Si Si1 0.250000 0.513913 0.000000
Si Si2 0.254924 0.309242 0.784556
Si Si3 0.648390 0.179612 0.383547
Si Si4 0.250000 0.174983 0.500000
Si Si5 0.045370 0.975286 0.071717
Si Si6 0.570354 0.608075 0.760865
Si Si7 0.000000 0.250000 0.908678
Si Si8 0.250000 0.123228 0.000000
O O1 0.173315 0.581558 0.933146
O O2 0.393451 0.467121 0.956312
O O3 0.170788 0.344413 0.706249
O O4 0.412950 0.373733 0.788795
O O5 0.319092 0.198767 0.761480
O O6 0.128316 0.304394 0.853114
O O7 0.500000 0.250000 0.390542
O O8 0.767848 0.254390 0.425605
O O9 0.105367 0.102143 0.493782
O O10 0.021647 0.908255 0.148402
O O11 0.181442 0.055602 0.070197
O O12 0.644163 0.500000 0.750000
O O13 0.110008 0.184284 0.963402
#
# Coordination Sequence:
#
# PCOD9333921 Si02
#       8
#     4   8   8   4   8   8   4   4
#     4  11  22  32  66 105 158 190 226 273 351 453
#     4  11  24  43  74 104 143 189 243 298 372 436
#     4  11  19  33  60 103 145 194 222 279 340 431
#     4  10  20  32  60  94 152 188 228 264 344 434
#     4  11  22  42  65 106 143 191 234 295 361 433
#     4  11  24  42  67 105 148 188 237 302 369 440
#     4  12  28  56  76 100 130 194 260 314 372 430
#     4  11  30  50  80  97 136 188 260 321 367 445
#
# _framework density 23.937466000000001
#
# number of rings (size 3 to 8) (size 9 to 14) (size 15 to 20)
#    0.000    1.000    5.833    1.000    0.000    4.667 
#    0.000    0.833    0.000    0.000    0.000    0.000 
#    0.000    0.000    0.000    0.000    0.000    0.000 
#
# Total GULP energy -133745.101301 kJ/mol
# GULP energy per Si atom -5572.712554 kJ/mol
# Density = 2.388298 g / cm^3
# Si number density = 23.937466 Si / 1000 Ang^3
#
#
#
# Elastic Constant Matrix: (Units=GPa)
#
#
# Indices 1 2 3 4 5 6 
#
# 1 111.7844 20.3274 29.7329 0.0000 0.0000 0.0000
# 2 20.3274 50.9685 16.1414 0.0000 0.0000 0.0000
# 3 29.7329 16.1414 103.1238 0.0000 0.0000 0.0000
# 4 0.0000 0.0000 0.0000 2.0798 0.0000 0.0000
# 5 0.0000 0.0000 0.0000 0.0000 42.7257 0.0000
# 6 0.0000 0.0000 0.0000 0.0000 0.0000 32.1015
#
#
#
# Elastic Compliance Matrix: (Units=1/GPa)
#
#
# Indices 1 2 3 4 5 6 
#
# 1 0.010189 -0.003297 -0.002422 0.000000 0.000000 0.000000
# 2 -0.003297 0.021710 -0.002448 0.000000 0.000000 0.000000
# 3 -0.002422 -0.002448 0.010778 0.000000 0.000000 0.000000
# 4 0.000000 0.000000 0.000000 0.480822 0.000000 0.000000
# 5 0.000000 0.000000 0.000000 0.000000 0.023405 0.000000
# 6 0.000000 0.000000 0.000000 0.000000 0.000000 0.031151
#
#
# Mechanical properties :
#
#
# Convention : Reuss Voigt Hill
#
# Bulk Modulus (GPa) = 37.95729 44.25334 41.10531
# Shear Modulus (GPa) = 8.28953 28.69306 18.49130
#
# Velocity S-wave (km/s) = 1.86293 3.46593 2.78237
# Velocity P-wave (km/s) = 4.52975 5.87742 5.24703
#
# Compressibility (1/GPa) = 0.02634540
#
# Stress axis : x y z
#
# Youngs Moduli (GPa) = 98.14056 46.06187 92.77769
#
# Poissons Ratio (x) = 0.15186 0.22469
# Poissons Ratio (y) = 0.32355 0.22708
# Poissons Ratio (z) = 0.23768 0.11274
#
# Static dielectric constant tensor:
#      x y z
#    x 1.971730 0.000000 0.000000 
#    y 0.000000 1.906920 0.000000 
#    z 0.000000 0.000000 2.004180 
# 
# From -- ./inp_files/29541.got.cif
#   From: 2010.05.17/outbox.cif.g08.bks.cpg/sg24_15_cif.got.tgz:29541.got - 2010.06.04 00:33:39.
