data_PCOD9333384
_publ_section_title
;
Structure prediction by ZEFSAII (Michael W. Deem and Ramdas Pophale) SiO2 
 PCOD9333384
Probable space group: I 21 21 21
;
_chemical_formula_sum "Si O2"
_cell_formula_units_Z 60
_cell_length_a 19.128234
_cell_length_b 27.942467
_cell_length_c 6.117598
_cell_angle_alpha 90.000000
_cell_angle_beta 90.000000
_cell_angle_gamma 90.000000
_cell_volume 3269.795244
_symmetry_space_group_name_H-M "I 21 21 21"
_symmetry_group_IT_number 24
_symmetry_cell_setting 'orthorhombic'
loop_
_space_group_symop_operation_xyz
x,y,z
-x,1/2-y,z
x,-y,1/2-z
1/2-x,y,-z
1/2+x,1/2+y,1/2+z
1/2-x,-y,1/2+z
1/2+x,1/2-y,-z
-x,1/2+y,1/2-z
loop_
_atom_site_type_symbol
_atom_site_label
_atom_site_fract_x
_atom_site_fract_y
_atom_site_fract_z
Si Si1 0.984990 0.198129 0.087592
Si Si2 0.250000 0.274473 0.000000
Si Si3 0.832310 0.618386 0.999048
Si Si4 0.956214 0.124075 0.473892
Si Si5 0.825137 0.275010 0.380877
Si Si6 0.551679 0.443370 0.745813
Si Si7 0.630853 0.193542 0.293942
Si Si8 0.069866 0.873191 0.639561
O O1 0.928131 0.201390 0.892761
O O2 0.000000 0.250000 0.179527
O O3 0.055173 0.175677 0.986386
O O4 0.963693 0.161475 0.275496
O O5 0.305612 0.243514 0.860241
O O6 0.205112 0.304647 0.827411
O O7 0.850256 0.670362 0.103719
O O8 0.881934 0.579525 0.116214
O O9 0.750000 0.608543 0.000000
O O10 0.855096 0.622351 0.746707
O O11 0.886353 0.142637 0.592511
O O12 0.978913 0.073722 0.368111
O O13 0.015486 0.129130 0.659663
O O14 0.750000 0.277191 0.500000
O O15 0.868248 0.236239 0.524656
O O16 0.556863 0.500000 0.750000
O O17 0.553876 0.417589 0.981649
#
# Coordination Sequence:
#
# PCOD9333384 Si02
#       8
#     8   4   8   8   8   8   8   8
#     4  10  19  31  51  77 108 146 184 221 265 328
#     4  10  20  32  50  76 116 160 186 224 260 334
#     4  10  21  36  52  76 104 141 192 235 284 345
#     4   9  20  34  51  75 104 137 172 225 274 339
#     4   9  19  32  48  72 110 153 185 217 265 326
#     4  10  22  40  57  76  98 138 181 246 300 340
#     4  10  19  32  50  77 109 150 181 225 267 333
#     4   9  20  36  53  73 103 140 176 229 283 326
#
# _framework density 18.349774
#
# number of rings (size 3 to 8) (size 9 to 14) (size 15 to 20)
#    0.000    2.400    0.000    1.600    0.000   14.400 
#    2.400    0.000    0.000    0.000    0.000    0.000 
#    0.000    0.000  714.000    0.000    0.533    0.000 
#
# Total GULP energy -167163.611928 kJ/mol
# GULP energy per Si atom -5572.120398 kJ/mol
# Density = 1.830801 g / cm^3
# Si number density = 18.349774 Si / 1000 Ang^3
#
#
#
# Elastic Constant Matrix: (Units=GPa)
#
#
# Indices 1 2 3 4 5 6 
#
# 1 62.4886 58.2666 30.4651 0.0000 0.0000 0.0000
# 2 58.2666 134.6279 41.3884 0.0000 0.0000 0.0000
# 3 30.4651 41.3884 80.0126 0.0000 0.0000 0.0000
# 4 0.0000 0.0000 0.0000 14.9128 0.0000 0.0000
# 5 0.0000 0.0000 0.0000 0.0000 38.4992 0.0000
# 6 0.0000 0.0000 0.0000 0.0000 0.0000 24.2635
#
#
#
# Elastic Compliance Matrix: (Units=1/GPa)
#
#
# Indices 1 2 3 4 5 6 
#
# 1 0.028629 -0.010749 -0.005341 0.000000 0.000000 0.000000
# 2 -0.010749 0.012868 -0.002564 0.000000 0.000000 0.000000
# 3 -0.005341 -0.002564 0.015858 0.000000 0.000000 0.000000
# 4 0.000000 0.000000 0.000000 0.067056 0.000000 0.000000
# 5 0.000000 0.000000 0.000000 0.000000 0.025975 0.000000
# 6 0.000000 0.000000 0.000000 0.000000 0.000000 0.041214
#
#
# Mechanical properties :
#
#
# Convention : Reuss Voigt Hill
#
# Bulk Modulus (GPa) = 49.87850 59.70770 54.79310
# Shear Modulus (GPa) = 21.22339 25.33569 23.27954
#
# Velocity S-wave (km/s) = 3.40458 3.71982 3.56568
# Velocity P-wave (km/s) = 6.53421 7.14554 6.84670
#
# Compressibility (1/GPa) = 0.02004872
#
# Stress axis : x y z
#
# Youngs Moduli (GPa) = 34.92942 77.71182 63.06123
#
# Poissons Ratio (x) = 0.83531 0.33679
# Poissons Ratio (y) = 0.37545 0.16167
# Poissons Ratio (z) = 0.18655 0.19923
#
# Static dielectric constant tensor:
#      x y z
#    x 1.682880 0.000000 0.000000 
#    y 0.000000 1.613160 0.000000 
#    z 0.000000 0.000000 1.697690 
# 
# From -- ./inp_files/5861.got.cif
#   From: 2010.05.17/outbox.cif.g08.bks.cpg/sg24_3_cif.got.tgz:5861.got - 2010.06.04 00:33:39.
