data_PCOD9333555
_publ_section_title
;
Structure prediction by ZEFSAII (Michael W. Deem and Ramdas Pophale) SiO2 
 PCOD9333555
Probable space group: I 21 21 21
;
_chemical_formula_sum "Si O2"
_cell_formula_units_Z 44
_cell_length_a 21.025326
_cell_length_b 11.568010
_cell_length_c 8.008560
_cell_angle_alpha 90.000000
_cell_angle_beta 90.000000
_cell_angle_gamma 90.000000
_cell_volume 1947.851425
_symmetry_space_group_name_H-M "I 21 21 21"
_symmetry_group_IT_number 24
_symmetry_cell_setting 'orthorhombic'
loop_
_space_group_symop_operation_xyz
x,y,z
-x,1/2-y,z
x,-y,1/2-z
1/2-x,y,-z
1/2+x,1/2+y,1/2+z
1/2-x,-y,1/2+z
1/2+x,1/2-y,-z
-x,1/2+y,1/2-z
loop_
_atom_site_type_symbol
_atom_site_label
_atom_site_fract_x
_atom_site_fract_y
_atom_site_fract_z
Si Si1 0.430536 0.122061 0.659807
Si Si2 0.110906 0.626119 0.698434
Si Si3 0.745990 0.154204 0.812333
Si Si4 0.106804 0.626069 0.298804
Si Si5 0.500000 0.750000 0.114913
Si Si6 0.218321 0.117023 0.328185
O O1 0.426874 0.253306 0.743266
O O2 0.475572 0.145024 0.502038
O O3 0.355659 0.104140 0.627069
O O4 0.447482 0.000000 0.750000
O O5 0.088141 0.500000 0.750000
O O6 0.184075 0.636160 0.762545
O O7 0.111377 0.636143 0.498637
O O8 0.061307 0.714555 0.777926
O O9 0.679472 0.119518 0.726356
O O10 0.732858 0.290025 0.813197
O O11 0.750000 0.105212 0.000000
O O12 0.079792 0.500000 0.250000
O O13 0.250000 0.153567 0.500000
O O14 0.243711 0.000000 0.250000
#
# Coordination Sequence:
#
# PCOD9333555 Si02
#       6
#     8   8   8   8   4   8
#     4  10  24  44  65  91 125 170 218 258 312 379
#     4  11  24  41  62  94 129 164 210 263 314 369
#     4   9  19  37  62  93 125 154 195 254 319 378
#     4  10  21  41  70  98 126 163 205 258 323 389
#     4  12  26  42  62  90 126 172 220 266 308 362
#     4  10  19  34  59  90 122 158 200 253 314 375
#
# _framework density 22.588991
#
# number of rings (size 3 to 8) (size 9 to 14) (size 15 to 20)
#    0.000    1.818    0.000    3.273    0.000    7.273 
#    0.000    2.727    0.000    0.000    0.000    0.000 
#    0.000    0.000    0.000    0.000    0.000    0.000 
#
# Total GULP energy -122546.606376 kJ/mol
# GULP energy per Si atom -5570.300290 kJ/mol
# Density = 2.253758 g / cm^3
# Si number density = 22.588991 Si / 1000 Ang^3
#
#
#
# Elastic Constant Matrix: (Units=GPa)
#
#
# Indices 1 2 3 4 5 6 
#
# 1 161.3108 31.8578 48.9348 0.0000 0.0000 0.0000
# 2 31.8578 139.3478 8.9854 0.0000 0.0000 0.0000
# 3 48.9348 8.9854 72.2282 0.0000 0.0000 0.0000
# 4 0.0000 0.0000 0.0000 22.8571 0.0000 0.0000
# 5 0.0000 0.0000 0.0000 0.0000 107.0470 0.0000
# 6 0.0000 0.0000 0.0000 0.0000 0.0000 546.8025
#
#
#
# Elastic Compliance Matrix: (Units=1/GPa)
#
#
# Indices 1 2 3 4 5 6 
#
# 1 0.008107 -0.001511 -0.005304 0.000000 0.000000 0.000000
# 2 -0.001511 0.007516 0.000089 0.000000 0.000000 0.000000
# 3 -0.005304 0.000089 0.017428 0.000000 0.000000 0.000000
# 4 0.000000 0.000000 0.000000 0.043750 0.000000 0.000000
# 5 0.000000 0.000000 0.000000 0.000000 0.009342 0.000000
# 6 0.000000 0.000000 0.000000 0.000000 0.000000 0.001829
#
#
# Mechanical properties :
#
#
# Convention : Reuss Voigt Hill
#
# Bulk Modulus (GPa) = 51.02829 61.38251 56.20540
# Shear Modulus (GPa) = 46.31474 154.21525 100.26499
#
# Velocity S-wave (km/s) = 4.53296 8.27154 6.66956
# Velocity P-wave (km/s) = 7.07361 10.88380 9.17859
#
# Compressibility (1/GPa) = 0.01959697
#
# Stress axis : x y z
#
# Youngs Moduli (GPa) = 123.35305 133.04804 57.38005
#
# Poissons Ratio (x) = 0.20108 0.30436
# Poissons Ratio (y) = 0.18643 -0.00510
# Poissons Ratio (z) = 0.65431 -0.01183
#
# Static dielectric constant tensor:
#      x y z
#    x 1.878780 0.000000 0.000000 
#    y 0.000000 1.856990 0.000000 
#    z 0.000000 0.000000 1.596770 
# 
# From -- ./inp_files/15782.got.cif
#   From: 2010.05.17/outbox.cif.g08.bks.cpg/sg24_8_cif.got.tgz:15782.got - 2010.06.04 00:33:39.
