data_PCOD9333885
_publ_section_title
;
Structure prediction by ZEFSAII (Michael W. Deem and Ramdas Pophale) SiO2 
 PCOD9333885
Probable space group: I 21 21 21
;
_chemical_formula_sum "Si O2"
_cell_formula_units_Z 48
_cell_length_a 27.978162
_cell_length_b 16.046967
_cell_length_c 5.267659
_cell_angle_alpha 90.000000
_cell_angle_beta 90.000000
_cell_angle_gamma 90.000000
_cell_volume 2364.992639
_symmetry_space_group_name_H-M "I 21 21 21"
_symmetry_group_IT_number 24
_symmetry_cell_setting 'orthorhombic'
loop_
_space_group_symop_operation_xyz
x,y,z
-x,1/2-y,z
x,-y,1/2-z
1/2-x,y,-z
1/2+x,1/2+y,1/2+z
1/2-x,-y,1/2+z
1/2+x,1/2-y,-z
-x,1/2+y,1/2-z
loop_
_atom_site_type_symbol
_atom_site_label
_atom_site_fract_x
_atom_site_fract_y
_atom_site_fract_z
Si Si1 0.305022 0.056651 0.000981
Si Si2 0.303154 0.468255 0.498866
Si Si3 0.146344 0.221425 0.849691
Si Si4 0.834473 0.803116 0.151723
Si Si5 0.565000 0.903156 0.830751
Si Si6 0.957036 0.187583 0.833742
O O1 0.343519 0.129893 0.041089
O O2 0.307894 0.000000 0.250000
O O3 0.250000 0.090828 0.000000
O O4 0.311801 0.000000 0.750000
O O5 0.329047 0.500000 0.250000
O O6 0.250000 0.507644 0.500000
O O7 0.300042 0.370582 0.526389
O O8 0.327568 0.500000 0.750000
O O9 0.162820 0.230066 0.556995
O O10 0.092450 0.258431 0.847265
O O11 0.174672 0.277452 0.059057
O O12 0.884244 0.854376 0.159611
O O13 0.536725 0.856240 0.605968
O O14 0.567037 0.000000 0.750000
O O15 0.545605 0.881828 0.111506
O O16 0.000000 0.250000 0.778379
#
# Coordination Sequence:
#
# PCOD9333885 Si02
#       6
#     8   8   8   8   8   8
#     4  10  21  38  59  82 110 143 182 233 286 336
#     4  10  20  32  46  69 104 142 175 209 255 303
#     4  10  21  36  56  81 105 140 181 218 277 337
#     4  10  20  33  53  78 106 138 176 223 262 309
#     4  10  20  35  57  82 107 142 186 221 263 326
#     4  10  21  38  57  80 115 147 178 230 281 325
#
# _framework density 20.296044999999999
#
# number of rings (size 3 to 8) (size 9 to 14) (size 15 to 20)
#    0.000    2.000    0.000    3.500    0.000    4.000 
#    0.000    2.500    0.000    0.000    0.000    0.000 
#    0.000    0.000    0.000    0.000    0.000    0.000 
#
# Total GULP energy -133668.605850 kJ/mol
# GULP energy per Si atom -5569.525244 kJ/mol
# Density = 2.024985 g / cm^3
# Si number density = 20.296045 Si / 1000 Ang^3
#
#
#
# Elastic Constant Matrix: (Units=GPa)
#
#
# Indices 1 2 3 4 5 6 
#
# 1 31.2637 25.4406 27.5894 0.0000 0.0000 0.0000
# 2 25.4406 91.0211 37.8861 0.0000 0.0000 0.0000
# 3 27.5894 37.8861 157.2725 0.0000 0.0000 0.0000
# 4 0.0000 0.0000 0.0000 34.5105 0.0000 0.0000
# 5 0.0000 0.0000 0.0000 0.0000 41.6867 0.0000
# 6 0.0000 0.0000 0.0000 0.0000 0.0000 22.3326
#
#
#
# Elastic Compliance Matrix: (Units=1/GPa)
#
#
# Indices 1 2 3 4 5 6 
#
# 1 0.045227 -0.010379 -0.005434 0.000000 0.000000 0.000000
# 2 -0.010379 0.014593 -0.001695 0.000000 0.000000 0.000000
# 3 -0.005434 -0.001695 0.007720 0.000000 0.000000 0.000000
# 4 0.000000 0.000000 0.000000 0.028977 0.000000 0.000000
# 5 0.000000 0.000000 0.000000 0.000000 0.023988 0.000000
# 6 0.000000 0.000000 0.000000 0.000000 0.000000 0.044778
#
#
# Mechanical properties :
#
#
# Convention : Reuss Voigt Hill
#
# Bulk Modulus (GPa) = 30.74585 51.26549 41.00567
# Shear Modulus (GPa) = 23.68104 32.28205 27.98155
#
# Velocity S-wave (km/s) = 3.41952 3.99251 3.71707
# Velocity P-wave (km/s) = 5.54729 6.82402 6.21851
#
# Compressibility (1/GPa) = 0.03252471
#
# Stress axis : x y z
#
# Youngs Moduli (GPa) = 22.11057 68.52665 129.53749
#
# Poissons Ratio (x) = 0.71127 0.70385
# Poissons Ratio (y) = 0.22950 0.21951
# Poissons Ratio (z) = 0.12014 0.11612
#
# Static dielectric constant tensor:
#      x y z
#    x 1.745790 0.000000 0.000000 
#    y 0.000000 1.674720 0.000000 
#    z 0.000000 0.000000 1.791820 
# 
# From -- ./inp_files/7092.got.cif
#   From: 2010.05.17/outbox.cif.g08.bks.cpg/sg24_4_cif.got.tgz:7092.got - 2010.06.04 00:33:39.
