data_PCOD9333531
_publ_section_title
;
Structure prediction by ZEFSAII (Michael W. Deem and Ramdas Pophale) SiO2 
 PCOD9333531
Probable space group: I 21 21 21
;
_chemical_formula_sum "Si O2"
_cell_formula_units_Z 48
_cell_length_a 10.867634
_cell_length_b 23.976236
_cell_length_c 9.474215
_cell_angle_alpha 90.000000
_cell_angle_beta 90.000000
_cell_angle_gamma 90.000000
_cell_volume 2468.648429
_symmetry_space_group_name_H-M "I 21 21 21"
_symmetry_group_IT_number 24
_symmetry_cell_setting 'orthorhombic'
loop_
_space_group_symop_operation_xyz
x,y,z
-x,1/2-y,z
x,-y,1/2-z
1/2-x,y,-z
1/2+x,1/2+y,1/2+z
1/2-x,-y,1/2+z
1/2+x,1/2-y,-z
-x,1/2+y,1/2-z
loop_
_atom_site_type_symbol
_atom_site_label
_atom_site_fract_x
_atom_site_fract_y
_atom_site_fract_z
Si Si1 0.771957 0.550821 0.669723
Si Si2 0.031145 0.100442 0.225517
Si Si3 0.508287 0.627746 0.293330
Si Si4 0.894833 0.033085 0.988301
Si Si5 0.102094 0.403257 0.509536
Si Si6 0.598991 0.703919 0.525536
O O1 0.835343 0.500000 0.750000
O O2 0.750000 0.543973 0.500000
O O3 0.647596 0.561709 0.754857
O O4 0.854898 0.603797 0.698566
O O5 0.084305 0.151278 0.131937
O O6 0.946097 0.061329 0.129283
O O7 0.958576 0.116829 0.364292
O O8 0.432232 0.577946 0.369982
O O9 0.450950 0.631763 0.139708
O O10 0.526137 0.683227 0.384440
O O11 0.750000 0.030619 0.000000
O O12 0.935439 0.968865 0.970266
O O13 0.250000 0.400376 0.500000
O O14 0.500000 0.750000 0.581551
O O15 0.750000 0.715287 0.500000
#
# Coordination Sequence:
#
# PCOD9333531 Si02
#       6
#     8   8   8   8   8   8
#     4  12  22  36  60  94 138 166 212 248 316 390
#     4  11  22  39  59  90 129 161 215 261 312 385
#     4  11  22  39  59  90 129 161 215 261 312 385
#     4  10  19  34  56  85 130 178 212 245 302 379
#     4  11  23  36  57  93 134 170 206 250 314 393
#     4  11  24  48  71  94 118 162 220 289 332 390
#
# _framework density 19.443836999999998
#
# number of rings (size 3 to 8) (size 9 to 14) (size 15 to 20)
#    0.000    1.000    5.000    4.000    2.333    6.667 
#    0.000    0.833    0.000    0.000    0.000    0.000 
#    0.000    0.000    0.000    0.000    0.000    0.000 
#
# Total GULP energy -133700.789517 kJ/mol
# GULP energy per Si atom -5570.866230 kJ/mol
# Density = 1.939958 g / cm^3
# Si number density = 19.443837 Si / 1000 Ang^3
#
#
#
# Elastic Constant Matrix: (Units=GPa)
#
#
# Indices 1 2 3 4 5 6 
#
# 1 95.5615 15.8752 31.8912 0.0000 0.0003 0.0000
# 2 15.8752 53.4541 -7.1636 0.0001 0.0001 0.0000
# 3 31.8912 -7.1636 98.8333 0.0000 0.0031 -0.0001
# 4 0.0000 0.0001 0.0000 12.3833 0.0003 0.0000
# 5 0.0003 0.0001 0.0031 0.0003 -81.3403 0.0001
# 6 0.0000 0.0000 -0.0001 0.0000 0.0001 29.4471
#
#
#
# Elastic Compliance Matrix: (Units=1/GPa)
#
#
# Indices 1 2 3 4 5 6 
#
# 1 0.012655 -0.004348 -0.004398 0.000000 0.000000 0.000000
# 2 -0.004348 0.020385 0.002880 0.000000 0.000000 0.000000
# 3 -0.004398 0.002880 0.011746 0.000000 0.000000 0.000000
# 4 0.000000 0.000000 0.000000 0.080754 0.000000 0.000000
# 5 0.000000 0.000000 0.000000 0.000000 -0.012294 0.000000
# 6 0.000000 0.000000 0.000000 0.000000 0.000000 0.033959
#
#
# Mechanical properties :
#
#
# Convention : Reuss Voigt Hill
#
# Bulk Modulus (GPa) = 30.25342 36.56160 33.40751
# Shear Modulus (GPa) = 29.41967 5.91442 17.66704
#
# Velocity S-wave (km/s) = 3.89403 1.74597 3.01760
# Velocity P-wave (km/s) = 5.98424 4.78634 5.41849
#
# Compressibility (1/GPa) = 0.03305411
#
# Stress axis : x y z
#
# Youngs Moduli (GPa) = 79.02257 49.05593 85.13455
#
# Poissons Ratio (x) = 0.21328 0.37446
# Poissons Ratio (y) = 0.34357 -0.24523
# Poissons Ratio (z) = 0.34758 -0.14130
#
# Static dielectric constant tensor:
#      x y z
#    x 1.744810 0.000000 0.000000 
#    y 0.000000 1.716740 0.000000 
#    z 0.000000 0.000000 1.702330 
# 
# From -- ./inp_files/11288.got.cif
#   From: 2010.05.17/outbox.cif.g08.bks.cpg/sg24_6_cif.got.tgz:11288.got - 2010.06.04 00:33:39.
