data_PCOD9333772
_publ_section_title
;
Structure prediction by ZEFSAII (Michael W. Deem and Ramdas Pophale) SiO2 
 PCOD9333772
Probable space group: I 21 21 21
;
_chemical_formula_sum "Si O2"
_cell_formula_units_Z 48
_cell_length_a 11.250070
_cell_length_b 18.214878
_cell_length_c 11.593113
_cell_angle_alpha 90.000000
_cell_angle_beta 90.000000
_cell_angle_gamma 90.000000
_cell_volume 2375.645095
_symmetry_space_group_name_H-M "I 21 21 21"
_symmetry_group_IT_number 24
_symmetry_cell_setting 'orthorhombic'
loop_
_space_group_symop_operation_xyz
x,y,z
-x,1/2-y,z
x,-y,1/2-z
1/2-x,y,-z
1/2+x,1/2+y,1/2+z
1/2-x,-y,1/2+z
1/2+x,1/2-y,-z
-x,1/2+y,1/2-z
loop_
_atom_site_type_symbol
_atom_site_label
_atom_site_fract_x
_atom_site_fract_y
_atom_site_fract_z
Si Si1 0.582259 0.561584 0.343385
Si Si2 0.456981 0.666503 0.678557
Si Si3 0.280230 0.297364 0.633324
Si Si4 0.250000 0.679631 0.500000
Si Si5 0.750000 0.473628 0.500000
Si Si6 0.088997 0.311491 0.808219
Si Si7 0.805257 0.628713 0.215104
O O1 0.545991 0.500000 0.250000
O O2 0.641357 0.521675 0.451380
O O3 0.476575 0.618549 0.361047
O O4 0.689529 0.607256 0.286843
O O5 0.500000 0.750000 0.647470
O O6 0.396464 0.668994 0.806027
O O7 0.352152 0.644478 0.586744
O O8 0.579033 0.623035 0.702419
O O9 0.250000 0.304917 0.500000
O O10 0.171200 0.332683 0.702666
O O11 0.291556 0.211457 0.667580
O O12 0.171546 0.722780 0.592136
O O13 0.800874 0.424687 0.395264
O O14 0.000000 0.250000 0.766879
#
# Coordination Sequence:
#
# PCOD9333772 Si02
#       7
#     8   8   8   4   4   8   8
#     4  10  23  39  60  90 124 159 213 254 323 387
#     4   9  20  35  56  88 126 160 206 258 309 379
#     4  10  20  35  60  94 123 159 209 262 322 377
#     4  10  22  37  56  88 125 160 212 250 310 373
#     4  10  22  37  62  92 125 166 198 266 322 387
#     4  11  22  38  64  89 122 168 205 264 316 376
#     4  10  19  38  59  90 124 163 207 259 325 382
#
# _framework density 20.205037999999998
#
# number of rings (size 3 to 8) (size 9 to 14) (size 15 to 20)
#    0.000    2.000    2.500    0.500    2.333    5.333 
#    0.000    0.000    9.167    0.000    0.000    0.000 
#    0.000    0.000    0.000    0.000    0.000    0.000 
#
# Total GULP energy -133689.341448 kJ/mol
# GULP energy per Si atom -5570.389227 kJ/mol
# Density = 2.015905 g / cm^3
# Si number density = 20.205038 Si / 1000 Ang^3
#
#
#
# Elastic Constant Matrix: (Units=GPa)
#
#
# Indices 1 2 3 4 5 6 
#
# 1 87.2135 22.6383 36.0652 0.0000 0.0000 0.0000
# 2 22.6383 48.9537 12.5549 -0.0004 0.0000 0.0002
# 3 36.0652 12.5549 112.3576 -0.0003 0.0000 0.0001
# 4 0.0000 -0.0004 -0.0003 11.4749 0.0000 0.0002
# 5 0.0000 0.0000 0.0000 0.0000 29.6997 0.0000
# 6 0.0000 0.0002 0.0001 0.0002 0.0000 21.6911
#
#
#
# Elastic Compliance Matrix: (Units=1/GPa)
#
#
# Indices 1 2 3 4 5 6 
#
# 1 0.014630 -0.005725 -0.004056 0.000000 0.000000 0.000000
# 2 -0.005725 0.023271 -0.000763 0.000001 0.000000 0.000000
# 3 -0.004056 -0.000763 0.010287 0.000000 0.000000 0.000000
# 4 0.000000 0.000001 0.000000 0.087146 0.000000 -0.000001
# 5 0.000000 0.000000 0.000000 0.000000 0.033670 0.000000
# 6 0.000000 0.000000 0.000000 -0.000001 0.000000 0.046102
#
#
# Mechanical properties :
#
#
# Convention : Reuss Voigt Hill
#
# Bulk Modulus (GPa) = 36.90064 43.44906 40.17485
# Shear Modulus (GPa) = 20.38927 24.39090 22.39009
#
# Velocity S-wave (km/s) = 3.18011 3.47820 3.33249
# Velocity P-wave (km/s) = 5.63798 6.13851 5.89356
#
# Compressibility (1/GPa) = 0.02709980
#
# Stress axis : x y z
#
# Youngs Moduli (GPa) = 68.35489 42.97273 97.20689
#
# Poissons Ratio (x) = 0.24602 0.39429
# Poissons Ratio (y) = 0.39134 0.07413
# Poissons Ratio (z) = 0.27726 0.03277
#
# Static dielectric constant tensor:
#      x y z
#    x 1.748150 0.000000 0.000000 
#    y 0.000000 1.720650 0.000000 
#    z 0.000000 0.000000 1.732380 
# 
# From -- ./inp_files/19760.got.cif
#   From: 2010.05.17/outbox.cif.g08.bks.cpg/sg24_10_cif.got.tgz:19760.got - 2010.06.04 00:33:39.
