data_PCOD9333483
_publ_section_title
;
Structure prediction by ZEFSAII (Michael W. Deem and Ramdas Pophale) SiO2 
 PCOD9333483
Probable space group: I 21 21 21
;
_chemical_formula_sum "Si O2"
_cell_formula_units_Z 64
_cell_length_a 7.591897
_cell_length_b 22.298154
_cell_length_c 17.133148
_cell_angle_alpha 90.000000
_cell_angle_beta 90.000000
_cell_angle_gamma 90.000000
_cell_volume 2900.389901
_symmetry_space_group_name_H-M "I 21 21 21"
_symmetry_group_IT_number 24
_symmetry_cell_setting 'orthorhombic'
loop_
_space_group_symop_operation_xyz
x,y,z
-x,1/2-y,z
x,-y,1/2-z
1/2-x,y,-z
1/2+x,1/2+y,1/2+z
1/2-x,-y,1/2+z
1/2+x,1/2-y,-z
-x,1/2+y,1/2-z
loop_
_atom_site_type_symbol
_atom_site_label
_atom_site_fract_x
_atom_site_fract_y
_atom_site_fract_z
Si Si1 0.846414 0.142726 0.200841
Si Si2 0.230303 0.552285 0.809915
Si Si3 0.124537 0.919530 0.870962
Si Si4 0.824407 0.042659 0.083562
Si Si5 0.764397 0.373216 0.228529
Si Si6 0.716528 0.752388 0.789561
Si Si7 0.405328 0.690562 0.058360
Si Si8 0.741524 0.453646 0.913997
O O1 0.832193 0.110568 0.285147
O O2 0.764459 0.096560 0.140322
O O3 0.760319 0.205961 0.213609
O O4 0.053387 0.147766 0.188165
O O5 0.281605 0.500000 0.750000
O O6 0.254401 0.522615 0.893124
O O7 0.027189 0.568653 0.806810
O O8 0.285591 0.909002 0.810653
O O9 0.044560 0.863524 0.921023
O O10 0.163558 0.981339 0.915677
O O11 0.032802 0.037347 0.096493
O O12 0.750000 0.057634 0.000000
O O13 0.696398 0.310905 0.265597
O O14 0.687464 0.414560 0.159015
O O15 0.500000 0.750000 0.803213
O O16 0.812464 0.781965 0.863785
O O17 0.500000 0.750000 0.023040
O O18 0.250000 0.669697 0.000000
O O19 0.750000 0.424820 0.000000
#
# Coordination Sequence:
#
# PCOD9333483 Si02
#       8
#     8   8   8   8   8   8   8   8
#     4   9  19  37  62  92 119 162 221 277 321 395
#     4  10  19  33  56  84 119 158 205 264 318 380
#     4  12  23  39  64  93 129 173 220 265 333 405
#     4  10  21  38  59  85 127 171 214 270 341 393
#     4  10  21  40  67  90 125 173 224 270 334 404
#     4  10  20  42  69  94 123 173 222 273 328 399
#     4  12  26  45  64  96 135 178 221 277 333 402
#     4  11  24  41  60  94 133 170 216 280 345 399
#
# _framework density 22.065998
#
# number of rings (size 3 to 8) (size 9 to 14) (size 15 to 20)
#    0.000    1.500    2.500    3.000    0.000    5.000 
#    4.500    0.625    0.000    0.000    0.000    0.000 
#    0.000    0.000    0.000    0.000    0.000    0.000 
#
# Total GULP energy -178165.903054 kJ/mol
# GULP energy per Si atom -5567.684470 kJ/mol
# Density = 2.201577 g / cm^3
# Si number density = 22.065998 Si / 1000 Ang^3
#
#
#
# Elastic Constant Matrix: (Units=GPa)
#
#
# Indices 1 2 3 4 5 6 
#
# 1 69.7610 4.8170 8.7116 0.0000 0.0000 0.0000
# 2 4.8170 86.5085 37.9258 0.0000 0.0000 0.0000
# 3 8.7116 37.9258 103.3378 0.0000 0.0000 0.0000
# 4 0.0000 0.0000 0.0000 12.6375 0.0000 0.0000
# 5 0.0000 0.0000 0.0000 0.0000 25.6265 0.0000
# 6 0.0000 0.0000 0.0000 0.0000 0.0000 23.9172
#
#
#
# Elastic Compliance Matrix: (Units=1/GPa)
#
#
# Indices 1 2 3 4 5 6 
#
# 1 0.014495 -0.000323 -0.001103 0.000000 0.000000 0.000000
# 2 -0.000323 0.013783 -0.005031 0.000000 0.000000 0.000000
# 3 -0.001103 -0.005031 0.011617 0.000000 0.000000 0.000000
# 4 0.000000 0.000000 0.000000 0.079129 0.000000 0.000000
# 5 0.000000 0.000000 0.000000 0.000000 0.039022 0.000000
# 6 0.000000 0.000000 0.000000 0.000000 0.000000 0.041811
#
#
# Mechanical properties :
#
#
# Convention : Reuss Voigt Hill
#
# Bulk Modulus (GPa) = 37.06636 40.27957 38.67296
# Shear Modulus (GPa) = 22.54628 26.31310 24.42969
#
# Velocity S-wave (km/s) = 3.19998 3.45697 3.33095
# Velocity P-wave (km/s) = 5.52155 5.85046 5.68839
#
# Compressibility (1/GPa) = 0.02697864
#
# Stress axis : x y z
#
# Youngs Moduli (GPa) = 68.99043 72.55142 86.08415
#
# Poissons Ratio (x) = 0.02347 0.09497
# Poissons Ratio (y) = 0.02231 0.43312
# Poissons Ratio (z) = 0.07611 0.36503
#
# Static dielectric constant tensor:
#      x y z
#    x 2.108010 0.000000 0.000000 
#    y 0.000000 1.877510 0.000000 
#    z 0.000000 0.000000 1.830400 
# 
# From -- ./inp_files/29814.got.cif
#   From: 2010.05.17/outbox.cif.g08.bks.cpg/sg24_15_cif.got.tgz:29814.got - 2010.06.04 00:33:39.
