data_PCOD9333027
_publ_section_title
;
Structure prediction by ZEFSAII (Michael W. Deem and Ramdas Pophale) SiO2 
 PCOD9333027
Probable space group: I 21 21 21
;
_chemical_formula_sum "Si O2"
_cell_formula_units_Z 40
_cell_length_a 32.979191
_cell_length_b 13.706385
_cell_length_c 5.333159
_cell_angle_alpha 90.000000
_cell_angle_beta 90.000000
_cell_angle_gamma 90.000000
_cell_volume 2410.723804
_symmetry_space_group_name_H-M "I 21 21 21"
_symmetry_group_IT_number 24
_symmetry_cell_setting 'orthorhombic'
loop_
_space_group_symop_operation_xyz
x,y,z
-x,1/2-y,z
x,-y,1/2-z
1/2-x,y,-z
1/2+x,1/2+y,1/2+z
1/2-x,-y,1/2+z
1/2+x,1/2-y,-z
-x,1/2+y,1/2-z
loop_
_atom_site_type_symbol
_atom_site_label
_atom_site_fract_x
_atom_site_fract_y
_atom_site_fract_z
Si Si1 0.475435 0.000000 0.250000
Si Si2 0.453451 0.215450 0.136288
Si Si3 0.796954 0.095373 0.997144
Si Si4 0.169720 0.622232 0.010988
Si Si5 0.079664 0.690389 0.148699
Si Si6 0.529221 0.000000 0.750000
O O1 0.452145 0.101226 0.206676
O O2 0.502602 0.008284 0.499874
O O3 0.500000 0.250000 0.080641
O O4 0.440196 0.271578 0.389819
O O5 0.426876 0.237410 0.886621
O O6 0.811607 0.152840 0.753650
O O7 0.823982 0.996147 0.003127
O O8 0.750000 0.065119 0.000000
O O9 0.804136 0.153473 0.250752
O O10 0.124833 0.658252 0.070124
O O11 0.057088 0.594664 0.250247
#
# Coordination Sequence:
#
# PCOD9333027 Si02
#       6
#     4   8   8   8   8   4
#     4  12  24  36  58  70  96 133 190 227 286 344
#     4  12  23  41  53  76  99 140 183 243 288 333
#     4  10  18  32  51  74 113 152 182 204 246 330
#     4  10  19  30  46  74 102 142 182 209 258 305
#     4  12  23  35  55  76 111 135 181 241 273 314
#     4  12  20  34  54  78  96 137 172 231 288 322
#
# _framework density 16.592525999999999
#
# number of rings (size 3 to 8) (size 9 to 14) (size 15 to 20)
#    0.000    0.800    4.000    7.200    0.000    3.200 
#    0.000    0.000    0.000    0.000    0.000    0.000 
#    0.000    0.000    0.000   81.000    0.000    0.400 
#
# Total GULP energy -111442.072740 kJ/mol
# GULP energy per Si atom -5572.103637 kJ/mol
# Density = 1.655476 g / cm^3
# Si number density = 16.592526 Si / 1000 Ang^3
#
#
#
# Elastic Constant Matrix: (Units=GPa)
#
#
# Indices 1 2 3 4 5 6 
#
# 1 96.8615 37.3974 51.5583 -0.0001 -0.0003 0.0000
# 2 37.3974 62.1117 19.1578 0.0000 0.0010 0.0003
# 3 51.5583 19.1578 172.3253 -0.0006 0.0016 0.0007
# 4 -0.0001 0.0000 -0.0006 23.4663 0.0004 0.0002
# 5 -0.0003 0.0010 0.0016 0.0004 28.7645 0.0005
# 6 0.0000 0.0003 0.0007 0.0002 0.0005 11.3694
#
#
#
# Elastic Compliance Matrix: (Units=1/GPa)
#
#
# Indices 1 2 3 4 5 6 
#
# 1 0.015451 -0.008157 -0.003716 0.000000 0.000001 0.000000
# 2 -0.008157 0.020978 0.000108 0.000000 -0.000001 -0.000001
# 3 -0.003716 0.000108 0.006903 0.000000 0.000000 0.000000
# 4 0.000000 0.000000 0.000000 0.042614 -0.000001 -0.000001
# 5 0.000001 -0.000001 0.000000 -0.000001 0.034765 -0.000001
# 6 0.000000 -0.000001 0.000000 -0.000001 -0.000001 0.087955
#
#
# Mechanical properties :
#
#
# Convention : Reuss Voigt Hill
#
# Bulk Modulus (GPa) = 50.49864 60.83616 55.66740
# Shear Modulus (GPa) = 20.93826 27.59906 24.26866
#
# Velocity S-wave (km/s) = 3.55619 4.08283 3.82858
# Velocity P-wave (km/s) = 6.88205 7.67922 7.29154
#
# Compressibility (1/GPa) = 0.01980251
#
# Stress axis : x y z
#
# Youngs Moduli (GPa) = 64.71884 47.66902 144.86967
#
# Poissons Ratio (x) = 0.38884 0.53835
# Poissons Ratio (y) = 0.52792 -0.01570
# Poissons Ratio (z) = 0.24050 -0.00517
#
# Static dielectric constant tensor:
#      x y z
#    x 1.575770 0.000000 0.000000 
#    y 0.000000 1.526480 0.000000 
#    z 0.000000 0.000000 1.655330 
# 
# From -- ./inp_files/2676.got.cif
#   From: 2010.05.17/outbox.cif.g08.bks.cpg/sg24_2_cif.got.tgz:2676.got - 2010.06.04 00:33:39.
