data_PCOD9333992
_publ_section_title
;
Structure prediction by ZEFSAII (Michael W. Deem and Ramdas Pophale) SiO2 
 PCOD9333992
Probable space group: I 21 21 21
;
_chemical_formula_sum "Si O2"
_cell_formula_units_Z 52
_cell_length_a 20.985446
_cell_length_b 10.553968
_cell_length_c 11.692906
_cell_angle_alpha 90.000000
_cell_angle_beta 90.000000
_cell_angle_gamma 90.000000
_cell_volume 2589.741612
_symmetry_space_group_name_H-M "I 21 21 21"
_symmetry_group_IT_number 24
_symmetry_cell_setting 'orthorhombic'
loop_
_space_group_symop_operation_xyz
x,y,z
-x,1/2-y,z
x,-y,1/2-z
1/2-x,y,-z
1/2+x,1/2+y,1/2+z
1/2-x,-y,1/2+z
1/2+x,1/2-y,-z
-x,1/2+y,1/2-z
loop_
_atom_site_type_symbol
_atom_site_label
_atom_site_fract_x
_atom_site_fract_y
_atom_site_fract_z
Si Si1 0.563531 0.613322 0.600206
Si Si2 0.925123 0.142287 0.983150
Si Si3 0.378723 0.356208 0.266522
Si Si4 0.705902 0.382024 0.323477
Si Si5 0.000000 0.250000 0.309584
Si Si6 0.840574 0.381506 0.418436
Si Si7 0.908517 0.127174 0.477020
O O1 0.497265 0.611377 0.526593
O O2 0.600066 0.730363 0.540822
O O3 0.544068 0.330531 0.776425
O O4 0.605377 0.487366 0.601881
O O5 0.920874 0.160688 0.847150
O O6 0.886856 0.018165 0.024511
O O7 0.352927 0.500000 0.250000
O O8 0.324872 0.248678 0.278551
O O9 0.417386 0.349043 0.386736
O O10 0.682651 0.500000 0.250000
O O11 0.782521 0.382958 0.329832
O O12 0.683970 0.405448 0.453082
O O13 0.031778 0.350686 0.394609
O O14 0.863607 0.236428 0.428245
#
# Coordination Sequence:
#
# PCOD9333992 Si02
#       7
#     8   8   8   8   4   8   8
#     4  10  22  36  55  85 125 162 196 249 297 366
#     4   9  19  37  58  84 115 157 196 250 312 357
#     4   9  19  38  61  83 117 148 200 261 306 361
#     4  10  21  38  62  87 115 161 203 253 301 354
#     4  10  22  34  56  86 124 162 202 234 302 370
#     4  10  22  38  58  88 120 157 208 246 300 361
#     4  10  20  34  55  84 115 156 197 247 302 365
#
# _framework density 20.079224
#
# number of rings (size 3 to 8) (size 9 to 14) (size 15 to 20)
#    0.000    2.462    0.000    1.846    2.154    6.154 
#    0.000   13.077    0.000    5.538    0.000    0.000 
#    0.000    0.000    0.000    0.000    0.000    0.000 
#
# Total GULP energy -144822.314136 kJ/mol
# GULP energy per Si atom -5570.089005 kJ/mol
# Density = 2.003352 g / cm^3
# Si number density = 20.079224 Si / 1000 Ang^3
#
#
#
# Elastic Constant Matrix: (Units=GPa)
#
#
# Indices 1 2 3 4 5 6 
#
# 1 57.3570 49.3773 41.3991 0.0000 0.0000 0.0000
# 2 49.3773 141.7345 65.1755 0.0000 0.0000 0.0000
# 3 41.3991 65.1755 112.3391 0.0000 0.0000 0.0000
# 4 0.0000 0.0000 0.0000 36.6032 0.0000 0.0000
# 5 0.0000 0.0000 0.0000 0.0000 158.8002 0.0000
# 6 0.0000 0.0000 0.0000 0.0000 0.0000 10.1632
#
#
#
# Elastic Compliance Matrix: (Units=1/GPa)
#
#
# Indices 1 2 3 4 5 6 
#
# 1 0.027845 -0.006795 -0.006319 0.000000 0.000000 0.000000
# 2 -0.006795 0.011281 -0.004041 0.000000 0.000000 0.000000
# 3 -0.006319 -0.004041 0.013575 0.000000 0.000000 0.000000
# 4 0.000000 0.000000 0.000000 0.027320 0.000000 0.000000
# 5 0.000000 0.000000 0.000000 0.000000 0.006297 0.000000
# 6 0.000000 0.000000 0.000000 0.000000 0.000000 0.098394
#
#
# Mechanical properties :
#
#
# Convention : Reuss Voigt Hill
#
# Bulk Modulus (GPa) = 54.37447 69.25937 61.81692
# Shear Modulus (GPa) = 22.20715 51.47856 36.84285
#
# Velocity S-wave (km/s) = 3.32923 5.06886 4.28819
# Velocity P-wave (km/s) = 6.47434 8.29613 7.44120
#
# Compressibility (1/GPa) = 0.01839098
#
# Stress axis : x y z
#
# Youngs Moduli (GPa) = 35.91253 88.64702 73.66635
#
# Poissons Ratio (x) = 0.60234 0.46553
# Poissons Ratio (y) = 0.24402 0.29766
# Poissons Ratio (z) = 0.22695 0.35819
#
# Static dielectric constant tensor:
#      x y z
#    x 1.771970 0.000000 0.000000 
#    y 0.000000 1.667450 0.000000 
#    z 0.000000 0.000000 1.717690 
# 
# From -- ./inp_files/28104.got.cif
#   From: 2010.05.17/outbox.cif.g08.bks.cpg/sg24_15_cif.got.tgz:28104.got - 2010.06.04 00:33:39.
