data_PCOD9333037
_publ_section_title
;
Structure prediction by ZEFSAII (Michael W. Deem and Ramdas Pophale) SiO2 
 PCOD9333037
Probable space group: I 21 21 21
;
_chemical_formula_sum "Si O2"
_cell_formula_units_Z 48
_cell_length_a 7.298118
_cell_length_b 12.254673
_cell_length_c 21.261030
_cell_angle_alpha 90.000000
_cell_angle_beta 90.000000
_cell_angle_gamma 90.000000
_cell_volume 1901.502534
_symmetry_space_group_name_H-M "I 21 21 21"
_symmetry_group_IT_number 24
_symmetry_cell_setting 'orthorhombic'
loop_
_space_group_symop_operation_xyz
x,y,z
-x,1/2-y,z
x,-y,1/2-z
1/2-x,y,-z
1/2+x,1/2+y,1/2+z
1/2-x,-y,1/2+z
1/2+x,1/2-y,-z
-x,1/2+y,1/2-z
loop_
_atom_site_type_symbol
_atom_site_label
_atom_site_fract_x
_atom_site_fract_y
_atom_site_fract_z
Si Si1 0.544328 0.447214 0.009955
Si Si2 0.500000 0.750000 0.257320
Si Si3 0.918176 0.564633 0.646479
Si Si4 0.013081 0.381525 0.126994
Si Si5 0.764641 0.644632 0.181198
Si Si6 0.835616 0.684945 0.943673
Si Si7 0.554967 0.000000 0.750000
O O1 0.441287 0.419243 0.945195
O O2 0.750000 0.399134 0.000000
O O3 0.484438 0.411117 0.079869
O O4 0.581529 0.575731 0.024492
O O5 0.515402 0.646330 0.301557
O O6 0.682345 0.748415 0.215661
O O7 0.699442 0.582476 0.636155
O O8 0.906622 0.440956 0.672202
O O9 0.124272 0.442517 0.184028
O O10 0.000000 0.250000 0.131574
O O11 0.814376 0.663345 0.109116
O O12 0.923858 0.594349 0.221947
O O13 0.000000 0.750000 0.913324
O O14 0.750000 0.752570 0.000000
#
# Coordination Sequence:
#
# PCOD9333037 Si02
#       7
#     8   4   8   8   8   8   4
#     4   8  17  34  53  76 101 139 181 221 256 323
#     4  12  16  28  58  82 104 134 172 226 272 316
#     4   9  19  32  53  81 103 133 179 219 266 320
#     4  10  19  34  57  74 104 140 180 214 263 319
#     4  10  18  32  53  79 103 136 178 226 262 319
#     4  10  19  33  57  78 105 144 185 222 271 327
#     4  10  18  36  52  76 106 136 184 220 258 324
#
# _framework density 25.243198
#
# number of rings (size 3 to 8) (size 9 to 14) (size 15 to 20)
#    0.000    2.333    4.167    3.000    1.167    0.000 
#    0.000    3.333   11.000    0.000    0.000    0.000 
#    0.000    0.000    0.000    0.000    0.000    0.000 
#
# Total GULP energy -133767.692085 kJ/mol
# GULP energy per Si atom -5573.653837 kJ/mol
# Density = 2.518574 g / cm^3
# Si number density = 25.243198 Si / 1000 Ang^3
#
#
#
# Elastic Constant Matrix: (Units=GPa)
#
#
# Indices 1 2 3 4 5 6 
#
# 1 32.2398 -2.1819 6.3317 0.0000 0.0000 0.0000
# 2 -2.1819 55.7976 26.1243 0.0000 0.0000 0.0000
# 3 6.3317 26.1243 223.7731 0.0000 0.0000 0.0000
# 4 0.0000 0.0000 0.0000 34.9093 0.0000 0.0000
# 5 0.0000 0.0000 0.0000 0.0000 15.7166 0.0000
# 6 0.0000 0.0000 0.0000 0.0000 0.0000 24.7407
#
#
#
# Elastic Compliance Matrix: (Units=1/GPa)
#
#
# Indices 1 2 3 4 5 6 
#
# 1 0.031349 0.001736 -0.001090 0.000000 0.000000 0.000000
# 2 0.001736 0.019054 -0.002274 0.000000 0.000000 0.000000
# 3 -0.001090 -0.002274 0.004765 0.000000 0.000000 0.000000
# 4 0.000000 0.000000 0.000000 0.028646 0.000000 0.000000
# 5 0.000000 0.000000 0.000000 0.000000 0.063627 0.000000
# 6 0.000000 0.000000 0.000000 0.000000 0.000000 0.040419
#
#
# Mechanical properties :
#
#
# Convention : Reuss Voigt Hill
#
# Bulk Modulus (GPa) = 19.26264 41.37319 30.31792
# Shear Modulus (GPa) = 23.99009 33.84241 28.91625
#
# Velocity S-wave (km/s) = 3.08613 3.66547 3.38820
# Velocity P-wave (km/s) = 4.51069 5.86000 5.22905
#
# Compressibility (1/GPa) = 0.05191397
#
# Stress axis : x y z
#
# Youngs Moduli (GPa) = 31.89885 52.48164 209.86026
#
# Poissons Ratio (x) = -0.09111 0.22869
# Poissons Ratio (y) = -0.05538 0.47714
# Poissons Ratio (z) = 0.03476 0.11932
#
# Static dielectric constant tensor:
#      x y z
#    x 2.023230 0.000000 0.000000 
#    y 0.000000 2.036740 0.000000 
#    z 0.000000 0.000000 2.084720 
# 
# From -- ./inp_files/32747.got.cif
#   From: 2010.05.17/outbox.cif.g08.bks.cpg/sg24_17_cif.got.tgz:32747.got - 2010.06.04 00:33:39.
