data_PCOD9333110
_publ_section_title
;
Structure prediction by ZEFSAII (Michael W. Deem and Ramdas Pophale) SiO2 
 PCOD9333110
Probable space group: I 21 21 21
;
_chemical_formula_sum "Si O2"
_cell_formula_units_Z 64
_cell_length_a 9.309400
_cell_length_b 20.454358
_cell_length_c 19.019889
_cell_angle_alpha 90.000000
_cell_angle_beta 90.000000
_cell_angle_gamma 90.000000
_cell_volume 3621.725427
_symmetry_space_group_name_H-M "I 21 21 21"
_symmetry_group_IT_number 24
_symmetry_cell_setting 'orthorhombic'
loop_
_space_group_symop_operation_xyz
x,y,z
-x,1/2-y,z
x,-y,1/2-z
1/2-x,y,-z
1/2+x,1/2+y,1/2+z
1/2-x,-y,1/2+z
1/2+x,1/2-y,-z
-x,1/2+y,1/2-z
loop_
_atom_site_type_symbol
_atom_site_label
_atom_site_fract_x
_atom_site_fract_y
_atom_site_fract_z
Si Si1 0.535559 0.040865 0.675763
Si Si2 0.289408 0.548180 0.575920
Si Si3 0.513527 0.607171 0.381581
Si Si4 0.086443 0.685780 0.223958
Si Si5 0.464139 0.860726 0.631405
Si Si6 0.215522 0.774713 0.575700
Si Si7 0.886567 0.800185 0.717243
Si Si8 0.244546 0.975964 0.328268
O O1 0.552796 0.117566 0.686446
O O2 0.540909 0.000000 0.750000
O O3 0.659285 0.008374 0.628738
O O4 0.376066 0.026763 0.645076
O O5 0.250000 0.520749 0.500000
O O6 0.142884 0.585950 0.593581
O O7 0.423147 0.599234 0.583686
O O8 0.596516 0.665800 0.423453
O O9 0.477199 0.636221 0.304406
O O10 0.618741 0.545027 0.374003
O O11 0.256721 0.693443 0.229656
O O12 0.000000 0.750000 0.199584
O O13 0.045023 0.673754 0.305381
O O14 0.365728 0.809870 0.591656
O O15 0.350897 0.909625 0.669419
O O16 0.250000 0.742564 0.500000
O O17 0.169793 0.729599 0.641586
O O18 0.000000 0.750000 0.746854
O O19 0.284826 0.000000 0.250000
#
# Coordination Sequence:
#
# PCOD9333110 Si02
#       8
#     8   8   8   8   8   8   8   8
#     4  10  19  37  58  80 108 143 187 238 283 335
#     4  11  21  34  54  83 111 145 187 233 286 343
#     4  10  20  32  47  74 105 139 179 229 281 326
#     4  12  20  35  58  78 106 146 195 233 277 338
#     4  10  18  34  53  75 103 145 190 227 267 327
#     4  10  20  34  46  66 106 155 193 220 260 317
#     4  10  21  33  43  71 110 143 177 225 269 322
#     4   9  17  32  55  74 101 138 177 231 278 325
#
# _framework density 17.671136000000001
#
# number of rings (size 3 to 8) (size 9 to 14) (size 15 to 20)
#    0.000    1.750    6.250    0.750    0.000    2.000 
#    6.750    0.000    0.000    0.000    0.000    2.625 
#    0.000    0.000    0.000    0.000    0.000    0.000 
#
# Total GULP energy -178174.305478 kJ/mol
# GULP energy per Si atom -5567.947046 kJ/mol
# Density = 1.763092 g / cm^3
# Si number density = 17.671136 Si / 1000 Ang^3
#
#
#
# Elastic Constant Matrix: (Units=GPa)
#
#
# Indices 1 2 3 4 5 6 
#
# 1 93.0893 29.9927 4.0977 0.0000 0.0000 0.0000
# 2 29.9927 87.9235 13.3453 0.0000 0.0000 0.0000
# 3 4.0977 13.3453 25.2833 0.0000 0.0000 0.0000
# 4 0.0000 0.0000 0.0000 11.7897 0.0000 0.0000
# 5 0.0000 0.0000 0.0000 0.0000 6.4824 0.0000
# 6 0.0000 0.0000 0.0000 0.0000 0.0000 20.4454
#
#
#
# Elastic Compliance Matrix: (Units=1/GPa)
#
#
# Indices 1 2 3 4 5 6 
#
# 1 0.012070 -0.004153 0.000236 0.000000 0.000000 0.000000
# 2 -0.004153 0.013793 -0.006607 0.000000 0.000000 0.000000
# 3 0.000236 -0.006607 0.043001 0.000000 0.000000 0.000000
# 4 0.000000 0.000000 0.000000 0.084820 0.000000 0.000000
# 5 0.000000 0.000000 0.000000 0.000000 0.154264 0.000000
# 6 0.000000 0.000000 0.000000 0.000000 0.000000 0.048911
#
#
# Mechanical properties :
#
#
# Convention : Reuss Voigt Hill
#
# Bulk Modulus (GPa) = 20.91385 33.46305 27.18845
# Shear Modulus (GPa) = 12.69531 18.33420 15.51476
#
# Velocity S-wave (km/s) = 2.68324 3.22455 2.96627
# Velocity P-wave (km/s) = 4.63254 5.73074 5.21065
#
# Compressibility (1/GPa) = 0.04781521
#
# Stress axis : x y z
#
# Youngs Moduli (GPa) = 82.84928 72.49982 23.25524
#
# Poissons Ratio (x) = 0.30111 -0.00549
# Poissons Ratio (y) = 0.34409 0.15365
# Poissons Ratio (z) = -0.01955 0.47903
#
# Static dielectric constant tensor:
#      x y z
#    x 1.661390 0.000000 0.000000 
#    y 0.000000 1.646090 0.000000 
#    z 0.000000 0.000000 1.619160 
# 
# From -- ./inp_files/33017.got.cif
#   From: 2010.05.17/outbox.cif.g08.bks.cpg/sg24_17_cif.got.tgz:33017.got - 2010.06.04 00:33:39.
