data_PCOD9333185
_publ_section_title
;
Structure prediction by ZEFSAII (Michael W. Deem and Ramdas Pophale) SiO2 
 PCOD9333185
Probable space group: I 21 21 21
;
_chemical_formula_sum "Si O2"
_cell_formula_units_Z 48
_cell_length_a 22.165622
_cell_length_b 7.808565
_cell_length_c 12.563969
_cell_angle_alpha 90.000000
_cell_angle_beta 90.000000
_cell_angle_gamma 90.000000
_cell_volume 2174.593115
_symmetry_space_group_name_H-M "I 21 21 21"
_symmetry_group_IT_number 24
_symmetry_cell_setting 'orthorhombic'
loop_
_space_group_symop_operation_xyz
x,y,z
-x,1/2-y,z
x,-y,1/2-z
1/2-x,y,-z
1/2+x,1/2+y,1/2+z
1/2-x,-y,1/2+z
1/2+x,1/2-y,-z
-x,1/2+y,1/2-z
loop_
_atom_site_type_symbol
_atom_site_label
_atom_site_fract_x
_atom_site_fract_y
_atom_site_fract_z
Si Si1 0.532971 0.997608 0.876058
Si Si2 0.818877 0.758242 0.535965
Si Si3 0.908939 0.646080 0.379220
Si Si4 0.138439 0.343175 0.500250
Si Si5 0.822470 0.807619 0.770205
Si Si6 0.192498 0.816252 0.206336
O O1 0.460081 0.001181 0.876544
O O2 0.556210 0.182700 0.911301
O O3 0.548204 0.000000 0.750000
O O4 0.571249 0.870418 0.950227
O O5 0.750000 0.736584 0.500000
O O6 0.858012 0.628966 0.466523
O O7 0.833972 0.716877 0.658171
O O8 0.834573 0.960318 0.510411
O O9 0.869684 0.691383 0.274285
O O10 0.148327 0.260474 0.616698
O O11 0.174247 0.232874 0.412944
O O12 0.749452 0.805749 0.774700
O O13 0.844130 0.000000 0.750000
O O14 0.215707 0.000000 0.250000
#
# Coordination Sequence:
#
# PCOD9333185 Si02
#       6
#     8   8   8   8   8   8
#     4  10  19  36  63  91 123 159 222 286 329 390
#     4  10  18  35  64  95 131 171 224 274 332 418
#     4  10  21  34  58  97 124 164 213 280 339 392
#     4  10  21  37  62  95 126 175 226 277 334 409
#     4  10  21  39  65  94 131 178 228 274 336 420
#     4  12  23  37  57  97 137 172 213 277 347 408
#
# _framework density 22.073094999999999
#
# number of rings (size 3 to 8) (size 9 to 14) (size 15 to 20)
#    0.000    1.667    3.333    3.000    2.333    0.000 
#    6.000    0.000    0.000    0.000   82.333    0.000 
#    0.000    0.000    0.000    0.000    0.000    0.000 
#
# Total GULP energy -133617.350480 kJ/mol
# GULP energy per Si atom -5567.389603 kJ/mol
# Density = 2.202286 g / cm^3
# Si number density = 22.073095 Si / 1000 Ang^3
#
#
#
# Elastic Constant Matrix: (Units=GPa)
#
#
# Indices 1 2 3 4 5 6 
#
# 1 113.2619 10.0979 50.6746 0.0000 0.0000 0.0000
# 2 10.0979 46.2576 13.8932 0.0000 0.0000 0.0000
# 3 50.6746 13.8932 178.3691 0.0000 0.0000 0.0000
# 4 0.0000 0.0000 0.0000 9.5327 0.0000 0.0000
# 5 0.0000 0.0000 0.0000 0.0000 30.2736 0.0000
# 6 0.0000 0.0000 0.0000 0.0000 0.0000 21.5484
#
#
#
# Elastic Compliance Matrix: (Units=1/GPa)
#
#
# Indices 1 2 3 4 5 6 
#
# 1 0.010201 -0.001389 -0.002790 0.000000 0.000000 0.000000
# 2 -0.001389 0.022325 -0.001344 0.000000 0.000000 0.000000
# 3 -0.002790 -0.001344 0.006504 0.000000 0.000000 0.000000
# 4 0.000000 0.000000 0.000000 0.104902 0.000000 0.000000
# 5 0.000000 0.000000 0.000000 0.000000 0.033032 0.000000
# 6 0.000000 0.000000 0.000000 0.000000 0.000000 0.046407
#
#
# Mechanical properties :
#
#
# Convention : Reuss Voigt Hill
#
# Bulk Modulus (GPa) = 35.73534 54.13553 44.93544
# Shear Modulus (GPa) = 20.51324 29.81915 25.16619
#
# Velocity S-wave (km/s) = 3.05180 3.67948 3.38024
# Velocity P-wave (km/s) = 5.35189 6.52919 5.96963
#
# Compressibility (1/GPa) = 0.02798350
#
# Stress axis : x y z
#
# Youngs Moduli (GPa) = 98.02777 44.79275 153.75885
#
# Poissons Ratio (x) = 0.06221 0.42898
# Poissons Ratio (y) = 0.13615 0.20670
# Poissons Ratio (z) = 0.27349 0.06022
#
# Static dielectric constant tensor:
#      x y z
#    x 1.845170 0.000000 0.000000 
#    y 0.000000 1.898410 0.000000 
#    z 0.000000 0.000000 1.924310 
# 
# From -- ./inp_files/22582.got.cif
#   From: 2010.05.17/outbox.cif.g08.bks.cpg/sg24_12_cif.got.tgz:22582.got - 2010.06.04 00:33:39.
