data_PCOD9333474
_publ_section_title
;
Structure prediction by ZEFSAII (Michael W. Deem and Ramdas Pophale) SiO2 
 PCOD9333474
Probable space group: I 21 21 21
;
_chemical_formula_sum "Si O2"
_cell_formula_units_Z 32
_cell_length_a 7.357952
_cell_length_b 5.190125
_cell_length_c 37.128447
_cell_angle_alpha 90.000000
_cell_angle_beta 90.000000
_cell_angle_gamma 90.000000
_cell_volume 1417.886776
_symmetry_space_group_name_H-M "I 21 21 21"
_symmetry_group_IT_number 24
_symmetry_cell_setting 'orthorhombic'
loop_
_space_group_symop_operation_xyz
x,y,z
-x,1/2-y,z
x,-y,1/2-z
1/2-x,y,-z
1/2+x,1/2+y,1/2+z
1/2-x,-y,1/2+z
1/2+x,1/2-y,-z
-x,1/2+y,1/2-z
loop_
_atom_site_type_symbol
_atom_site_label
_atom_site_fract_x
_atom_site_fract_y
_atom_site_fract_z
Si Si1 0.715865 0.739976 0.855417
Si Si2 0.779195 0.232065 0.106066
Si Si3 0.123782 0.498747 0.033323
Si Si4 0.281510 0.753819 0.229033
O O1 0.500000 0.750000 0.861986
O O2 0.787299 0.510391 0.880935
O O3 0.739925 0.711110 0.812959
O O4 0.790029 0.017471 0.866504
O O5 0.755321 0.111744 0.066413
O O6 0.000000 0.250000 0.108288
O O7 0.000000 0.250000 0.023403
O O8 0.250000 0.573894 0.000000
O O9 0.000000 0.750000 0.043505
O O10 0.500000 0.750000 0.231503
O O11 0.216648 0.500000 0.250000
O O12 0.210612 0.000000 0.250000
#
# Coordination Sequence:
#
# PCOD9333474 Si02
#       4
#     8   8   8   8
#     4  10  19  33  55  79 101 135 183 227 270 328
#     4   9  18  34  55  78 108 144 179 225 286 339
#     4  11  22  39  62  88 121 160 201 247 303 362
#     4  10  21  36  52  73 106 143 175 217 281 343
#
# _framework density 22.568801000000001
#
# number of rings (size 3 to 8) (size 9 to 14) (size 15 to 20)
#    0.000    2.000    0.000    6.000    0.000    1.000 
#    0.000    3.750    0.000    0.000    0.000    0.000 
#    0.000    0.000    0.000    0.000    0.000    0.000 
#
# Total GULP energy -89307.657122 kJ/mol
# GULP energy per Si atom -5581.728570 kJ/mol
# Density = 2.251743 g / cm^3
# Si number density = 22.568801 Si / 1000 Ang^3
#
#
#
# Elastic Constant Matrix: (Units=GPa)
#
#
# Indices 1 2 3 4 5 6 
#
# 1 57.7269 8.1067 -0.1093 0.0000 0.0000 0.0000
# 2 8.1067 162.7798 60.6522 0.0000 0.0000 0.0000
# 3 -0.1093 60.6522 165.2605 0.0000 0.0000 0.0000
# 4 0.0000 0.0000 0.0000 41.2811 0.0000 0.0000
# 5 0.0000 0.0000 0.0000 0.0000 59.4526 0.0000
# 6 0.0000 0.0000 0.0000 0.0000 0.0000 -30.6082
#
#
#
# Elastic Compliance Matrix: (Units=1/GPa)
#
#
# Indices 1 2 3 4 5 6 
#
# 1 0.017466 -0.001013 0.000383 0.000000 0.000000 0.000000
# 2 -0.001013 0.007175 -0.002634 0.000000 0.000000 0.000000
# 3 0.000383 -0.002634 0.007018 0.000000 0.000000 0.000000
# 4 0.000000 0.000000 0.000000 0.024224 0.000000 0.000000
# 5 0.000000 0.000000 0.000000 0.000000 0.016820 0.000000
# 6 0.000000 0.000000 0.000000 0.000000 0.000000 -0.032671
#
#
# Mechanical properties :
#
#
# Convention : Reuss Voigt Hill
#
# Bulk Modulus (GPa) = 39.78964 58.11847 48.95406
# Shear Modulus (GPa) = 91.01407 35.16627 63.09017
#
# Velocity S-wave (km/s) = 6.35727 3.95166 5.29295
# Velocity P-wave (km/s) = 8.45903 6.82850 7.68712
#
# Compressibility (1/GPa) = 0.02513217
#
# Stress axis : x y z
#
# Youngs Moduli (GPa) = 57.25449 139.37012 142.49039
#
# Poissons Ratio (x) = 0.14113 -0.05460
# Poissons Ratio (y) = 0.05798 0.37532
# Poissons Ratio (z) = -0.02194 0.36710
#
# Static dielectric constant tensor:
#      x y z
#    x 1.873050 0.000000 0.000000 
#    y 0.000000 1.826890 0.000000 
#    z 0.000000 0.000000 1.847770 
# 
# From -- ./inp_files/1153.got.cif
#   From: 2010.05.17/outbox.cif.g08.bks.cpg/sg24_1_cif.got.tgz:1153.got - 2010.06.04 00:33:39.
