data_PCOD9333207
_publ_section_title
;
Structure prediction by ZEFSAII (Michael W. Deem and Ramdas Pophale) SiO2 
 PCOD9333207
Probable space group: I 21 21 21
;
_chemical_formula_sum "Si O2"
_cell_formula_units_Z 52
_cell_length_a 9.175125
_cell_length_b 11.171771
_cell_length_c 28.107530
_cell_angle_alpha 90.000000
_cell_angle_beta 90.000000
_cell_angle_gamma 90.000000
_cell_volume 2881.089154
_symmetry_space_group_name_H-M "I 21 21 21"
_symmetry_group_IT_number 24
_symmetry_cell_setting 'orthorhombic'
loop_
_space_group_symop_operation_xyz
x,y,z
-x,1/2-y,z
x,-y,1/2-z
1/2-x,y,-z
1/2+x,1/2+y,1/2+z
1/2-x,-y,1/2+z
1/2+x,1/2-y,-z
-x,1/2+y,1/2-z
loop_
_atom_site_type_symbol
_atom_site_label
_atom_site_fract_x
_atom_site_fract_y
_atom_site_fract_z
Si Si1 0.021710 0.107600 0.624569
Si Si2 0.740740 0.493607 0.057703
Si Si3 0.552257 0.616457 0.630024
Si Si4 0.000000 0.750000 0.188771
Si Si5 0.728438 0.446534 0.701035
Si Si6 0.164955 0.755371 0.047657
Si Si7 0.801657 0.072458 0.374061
O O1 0.082225 0.024484 0.580760
O O2 0.142771 0.098656 0.666278
O O3 0.000000 0.250000 0.611974
O O4 0.865000 0.058755 0.642138
O O5 0.835574 0.394128 0.085164
O O6 0.817191 0.618750 0.074161
O O7 0.750000 0.479494 0.000000
O O8 0.500000 0.750000 0.640507
O O9 0.639117 0.548403 0.672099
O O10 0.403647 0.542101 0.621238
O O11 0.111926 0.841543 0.213412
O O12 0.105693 0.666443 0.157233
O O13 0.787297 0.500000 0.750000
O O14 0.212808 0.640285 0.075963
O O15 0.000000 0.750000 0.034560
O O16 0.250000 0.766748 0.000000
#
# Coordination Sequence:
#
# PCOD9333207 Si02
#       7
#     8   8   8   4   8   8   8
#     4  11  20  36  59  89 124 153 182 244 314 350
#     4  10  21  35  55  86 125 155 196 248 294 347
#     4  10  22  42  61  80 117 163 206 240 282 351
#     4  10  18  36  62  82 114 146 190 240 292 348
#     4  10  22  39  62  91 120 149 198 245 294 356
#     4  11  20  29  50  87 119 145 187 249 295 342
#     4  11  19  35  57  85 112 157 192 234 300 344
#
# _framework density 18.048731
#
# number of rings (size 3 to 8) (size 9 to 14) (size 15 to 20)
#    0.000    1.538    5.385    0.923    5.385    0.000 
#    0.000   10.000    0.000    0.000    0.000    0.000 
#    0.000    0.000    0.000    0.000    0.000    0.000 
#
# Total GULP energy -144758.567769 kJ/mol
# GULP energy per Si atom -5567.637222 kJ/mol
# Density = 1.800765 g / cm^3
# Si number density = 18.048731 Si / 1000 Ang^3
#
#
#
# Elastic Constant Matrix: (Units=GPa)
#
#
# Indices 1 2 3 4 5 6 
#
# 1 119.8189 18.9126 18.8660 0.0000 0.0000 0.0000
# 2 18.9126 74.0277 6.2408 0.0000 0.0000 0.0000
# 3 18.8660 6.2408 71.1900 0.0000 0.0000 0.0000
# 4 0.0000 0.0000 0.0000 19.9700 0.0000 0.0000
# 5 0.0000 0.0000 0.0000 0.0000 41.8547 0.0000
# 6 0.0000 0.0000 0.0000 0.0000 0.0000 22.3265
#
#
#
# Elastic Compliance Matrix: (Units=1/GPa)
#
#
# Indices 1 2 3 4 5 6 
#
# 1 0.009028 -0.002120 -0.002207 0.000000 0.000000 0.000000
# 2 -0.002120 0.014107 -0.000675 0.000000 0.000000 0.000000
# 3 -0.002207 -0.000675 0.014691 0.000000 0.000000 0.000000
# 4 0.000000 0.000000 0.000000 0.050075 0.000000 0.000000
# 5 0.000000 0.000000 0.000000 0.000000 0.023892 0.000000
# 6 0.000000 0.000000 0.000000 0.000000 0.000000 0.044790
#
#
# Mechanical properties :
#
#
# Convention : Reuss Voigt Hill
#
# Bulk Modulus (GPa) = 35.94236 39.23058 37.58647
# Shear Modulus (GPa) = 28.43154 31.56471 29.99813
#
# Velocity S-wave (km/s) = 3.97327 4.18647 4.08126
# Velocity P-wave (km/s) = 6.40363 6.71951 6.56347
#
# Compressibility (1/GPa) = 0.02782233
#
# Stress axis : x y z
#
# Youngs Moduli (GPa) = 110.76560 70.88640 68.06962
#
# Poissons Ratio (x) = 0.15031 0.15020
# Poissons Ratio (y) = 0.23487 0.04593
# Poissons Ratio (z) = 0.24442 0.04783
#
# Static dielectric constant tensor:
#      x y z
#    x 1.661880 0.000000 0.000000 
#    y 0.000000 1.615890 0.000000 
#    z 0.000000 0.000000 1.635530 
# 
# From -- ./inp_files/22911.got.cif
#   From: 2010.05.17/outbox.cif.g08.bks.cpg/sg24_12_cif.got.tgz:22911.got - 2010.06.04 00:33:39.
