data_PCOD9333580
_publ_section_title
;
Structure prediction by ZEFSAII (Michael W. Deem and Ramdas Pophale) SiO2 
 PCOD9333580
Probable space group: I 21 21 21
;
_chemical_formula_sum "Si O2"
_cell_formula_units_Z 60
_cell_length_a 10.351064
_cell_length_b 24.466034
_cell_length_c 10.451822
_cell_angle_alpha 90.000000
_cell_angle_beta 90.000000
_cell_angle_gamma 90.000000
_cell_volume 2646.918526
_symmetry_space_group_name_H-M "I 21 21 21"
_symmetry_group_IT_number 24
_symmetry_cell_setting 'orthorhombic'
loop_
_space_group_symop_operation_xyz
x,y,z
-x,1/2-y,z
x,-y,1/2-z
1/2-x,y,-z
1/2+x,1/2+y,1/2+z
1/2-x,-y,1/2+z
1/2+x,1/2-y,-z
-x,1/2+y,1/2-z
loop_
_atom_site_type_symbol
_atom_site_label
_atom_site_fract_x
_atom_site_fract_y
_atom_site_fract_z
Si Si1 0.750000 0.956991 0.500000
Si Si2 0.563034 0.352789 0.731316
Si Si3 0.612925 0.287364 0.471501
Si Si4 0.921848 0.963258 0.874404
Si Si5 0.391193 0.183399 0.010370
Si Si6 0.187710 0.899331 0.862936
Si Si7 0.150047 0.693783 0.610021
Si Si8 0.223517 0.387181 0.261418
O O1 0.739520 0.921209 0.628546
O O2 0.876398 0.996517 0.511855
O O3 0.574965 0.314228 0.607548
O O4 0.562042 0.317687 0.862590
O O5 0.688343 0.393217 0.730271
O O6 0.428221 0.383937 0.713825
O O7 0.500000 0.250000 0.422667
O O8 0.750000 0.259371 0.500000
O O9 0.636296 0.337142 0.374504
O O10 0.815813 0.915526 0.863640
O O11 0.064672 0.938490 0.857196
O O12 0.903270 0.000000 0.750000
O O13 0.250000 0.156716 0.000000
O O14 0.514799 0.161937 0.088250
O O15 0.368245 0.241927 0.080276
O O16 0.250000 0.911946 0.000000
O O17 0.250000 0.678285 0.500000
O O18 0.219258 0.673606 0.736929
#
# Coordination Sequence:
#
# PCOD9333580 Si02
#       8
#     4   8   8   8   8   8   8   8
#     4  10  22  42  66  90 124 144 210 264 312 366
#     4  10  21  38  62  90 124 165 208 244 300 376
#     4   9  21  38  61  86 124 161 210 253 289 351
#     4  10  24  42  67  94 120 155 207 263 314 373
#     4  10  21  32  54  87 126 170 198 236 299 352
#     4   9  22  45  62  87 129 159 203 261 311 357
#     4  10  19  35  54  82 129 160 198 241 288 351
#     4  11  21  40  66  92 121 164 205 253 309 372
#
# _framework density 22.667867000000001
#
# number of rings (size 3 to 8) (size 9 to 14) (size 15 to 20)
#    0.000    2.400    2.000    0.000    7.467    1.067 
#    2.400    2.667    0.000    0.000    0.000    0.000 
#    0.000    0.000    0.000    0.000    0.000    0.000 
#
# Total GULP energy -167208.847613 kJ/mol
# GULP energy per Si atom -5573.628254 kJ/mol
# Density = 2.261627 g / cm^3
# Si number density = 22.667867 Si / 1000 Ang^3
#
#
#
# Elastic Constant Matrix: (Units=GPa)
#
#
# Indices 1 2 3 4 5 6 
#
# 1 165.9601 34.2446 6.9108 0.0007 0.0005 0.0001
# 2 34.2446 47.1445 6.5468 0.0014 0.0004 0.0001
# 3 6.9108 6.5468 39.7733 0.0105 0.0031 0.0016
# 4 0.0007 0.0014 0.0105 -57.7851 0.0036 0.0012
# 5 0.0005 0.0004 0.0031 0.0036 27.3225 0.0005
# 6 0.0001 0.0001 0.0016 0.0012 0.0005 33.2083
#
#
#
# Elastic Compliance Matrix: (Units=1/GPa)
#
#
# Indices 1 2 3 4 5 6 
#
# 1 0.007094 -0.005098 -0.000393 0.000000 0.000000 0.000000
# 2 -0.005098 0.025371 -0.003290 0.000000 0.000000 0.000000
# 3 -0.000393 -0.003290 0.025752 0.000005 -0.000003 -0.000001
# 4 0.000000 0.000000 0.000005 -0.017306 0.000002 0.000001
# 5 0.000000 0.000000 -0.000003 0.000002 0.036600 -0.000001
# 6 0.000000 0.000000 -0.000001 0.000001 -0.000001 0.030113
#
#
# Mechanical properties :
#
#
# Convention : Reuss Voigt Hill
#
# Bulk Modulus (GPa) = 24.59793 38.69804 31.64798
# Shear Modulus (GPa) = 36.03851 14.22753 25.13302
#
# Velocity S-wave (km/s) = 3.99162 2.50802 3.33340
# Velocity P-wave (km/s) = 5.66737 5.04932 5.36725
#
# Compressibility (1/GPa) = 0.04065384
#
# Stress axis : x y z
#
# Youngs Moduli (GPa) = 140.96622 39.41432 38.83123
#
# Poissons Ratio (x) = 0.20094 0.01528
# Poissons Ratio (y) = 0.71867 0.12777
# Poissons Ratio (z) = 0.05546 0.12969
#
# Static dielectric constant tensor:
#      x y z
#    x 2.124690 0.000010 0.000000 
#    y 0.000010 1.911370 0.000000 
#    z 0.000000 0.000000 1.870270 
# 
# From -- ./inp_files/18886.got.cif
#   From: 2010.05.17/outbox.cif.g08.bks.cpg/sg24_10_cif.got.tgz:18886.got - 2010.06.04 00:33:39.
