data_PCOD9333990
_publ_section_title
;
Structure prediction by ZEFSAII (Michael W. Deem and Ramdas Pophale) SiO2 
 PCOD9333990
Probable space group: I 21 21 21
;
_chemical_formula_sum "Si O2"
_cell_formula_units_Z 40
_cell_length_a 4.898791
_cell_length_b 22.031872
_cell_length_c 19.498741
_cell_angle_alpha 90.000000
_cell_angle_beta 90.000000
_cell_angle_gamma 90.000000
_cell_volume 2104.490074
_symmetry_space_group_name_H-M "I 21 21 21"
_symmetry_group_IT_number 24
_symmetry_cell_setting 'orthorhombic'
loop_
_space_group_symop_operation_xyz
x,y,z
-x,1/2-y,z
x,-y,1/2-z
1/2-x,y,-z
1/2+x,1/2+y,1/2+z
1/2-x,-y,1/2+z
1/2+x,1/2-y,-z
-x,1/2+y,1/2-z
loop_
_atom_site_type_symbol
_atom_site_label
_atom_site_fract_x
_atom_site_fract_y
_atom_site_fract_z
Si Si1 0.194117 0.375941 0.728740
Si Si2 0.672829 0.547603 0.807841
Si Si3 0.645050 0.543466 0.425160
Si Si4 0.638157 0.877991 0.612387
Si Si5 0.500000 0.250000 0.863502
Si Si6 0.500000 0.750000 0.264301
O O1 0.424483 0.405783 0.680752
O O2 0.298717 0.379606 0.806828
O O3 0.923625 0.415458 0.723031
O O4 0.113369 0.305796 0.719991
O O5 0.574073 0.500000 0.750000
O O6 0.791184 0.510480 0.872099
O O7 0.750000 0.525028 0.500000
O O8 0.346710 0.574158 0.421896
O O9 0.838912 0.598064 0.401777
O O10 0.626855 0.806460 0.594821
O O11 0.749227 0.271120 0.813517
#
# Coordination Sequence:
#
# PCOD9333990 Si02
#       6
#     8   8   8   8   4   4
#     4  11  20  35  60  87 113 149 185 244 286 337
#     4  12  21  36  59  86 114 149 195 233 289 343
#     4  12  25  38  55  82 117 156 192 238 287 340
#     4  11  20  38  57  80 115 151 197 235 284 332
#     4  10  20  34  58  83 112 157 194 244 276 326
#     4  10  20  34  54  93 124 139 188 240 302 336
#
# _framework density 19.006979000000001
#
# number of rings (size 3 to 8) (size 9 to 14) (size 15 to 20)
#    0.000    0.800    4.000    7.200    0.000    0.000 
#    0.000    2.000    0.000    1.200    0.000    2.800 
#    0.000    1.600    0.000    0.000    0.000    0.000 
#
# Total GULP energy -111653.501354 kJ/mol
# GULP energy per Si atom -5582.675068 kJ/mol
# Density = 1.896372 g / cm^3
# Si number density = 19.006979 Si / 1000 Ang^3
#
#
#
# Elastic Constant Matrix: (Units=GPa)
#
#
# Indices 1 2 3 4 5 6 
#
# 1 78.7253 15.0762 -7.8328 0.0000 0.0000 0.0000
# 2 15.0762 92.4227 42.8502 0.0000 0.0000 0.0000
# 3 -7.8328 42.8502 48.6790 0.0000 0.0000 0.0000
# 4 0.0000 0.0000 0.0000 6.0996 0.0000 0.0000
# 5 0.0000 0.0000 0.0000 0.0000 12.4424 0.0000
# 6 0.0000 0.0000 0.0000 0.0000 0.0000 42.3330
#
#
#
# Elastic Compliance Matrix: (Units=1/GPa)
#
#
# Indices 1 2 3 4 5 6 
#
# 1 0.014569 -0.005851 0.007495 0.000000 0.000000 0.000000
# 2 -0.005851 0.020631 -0.019102 0.000000 0.000000 0.000000
# 3 0.007495 -0.019102 0.038563 0.000000 0.000000 0.000000
# 4 0.000000 0.000000 0.000000 0.163946 0.000000 0.000000
# 5 0.000000 0.000000 0.000000 0.000000 0.080370 0.000000
# 6 0.000000 0.000000 0.000000 0.000000 0.000000 0.023622
#
#
# Mechanical properties :
#
#
# Convention : Reuss Voigt Hill
#
# Bulk Modulus (GPa) = 25.74266 35.55713 30.64990
# Shear Modulus (GPa) = 12.83478 23.49055 18.16266
#
# Velocity S-wave (km/s) = 2.60141 3.51934 3.09460
# Velocity P-wave (km/s) = 4.75356 5.93821 5.37860
#
# Compressibility (1/GPa) = 0.03884602
#
# Stress axis : x y z
#
# Youngs Moduli (GPa) = 68.64052 48.47187 25.93144
#
# Poissons Ratio (x) = 0.28363 -0.19435
# Poissons Ratio (y) = 0.40164 0.49534
# Poissons Ratio (z) = -0.51445 0.92590
#
# Static dielectric constant tensor:
#      x y z
#    x 1.687660 0.000000 0.000000 
#    y 0.000000 1.726290 0.000000 
#    z 0.000000 0.000000 1.653350 
# 
# From -- ./inp_files/4698.got.cif
#   From: 2010.05.17/outbox.cif.g08.bks.cpg/sg24_3_cif.got.tgz:4698.got - 2010.06.04 00:33:39.
