data_PCOD9333678
_publ_section_title
;
Structure prediction by ZEFSAII (Michael W. Deem and Ramdas Pophale) SiO2 
 PCOD9333678
Probable space group: I 21 21 21
;
_chemical_formula_sum "Si O2"
_cell_formula_units_Z 64
_cell_length_a 10.668692
_cell_length_b 32.703537
_cell_length_c 9.133725
_cell_angle_alpha 90.000000
_cell_angle_beta 90.000000
_cell_angle_gamma 90.000000
_cell_volume 3186.792855
_symmetry_space_group_name_H-M "I 21 21 21"
_symmetry_group_IT_number 24
_symmetry_cell_setting 'orthorhombic'
loop_
_space_group_symop_operation_xyz
x,y,z
-x,1/2-y,z
x,-y,1/2-z
1/2-x,y,-z
1/2+x,1/2+y,1/2+z
1/2-x,-y,1/2+z
1/2+x,1/2-y,-z
-x,1/2+y,1/2-z
loop_
_atom_site_type_symbol
_atom_site_label
_atom_site_fract_x
_atom_site_fract_y
_atom_site_fract_z
Si Si1 0.113257 0.906938 0.046058
Si Si2 0.953053 0.883691 0.783040
Si Si3 0.575660 0.318199 0.100538
Si Si4 0.821889 0.765354 0.643312
Si Si5 0.621732 0.500064 0.070237
Si Si6 0.779366 0.829102 0.169238
Si Si7 0.491710 0.130366 0.828909
Si Si8 0.895593 0.059268 0.967700
O O1 0.090632 0.895644 0.214700
O O2 0.250000 0.890659 0.000000
O O3 0.000024 0.889335 0.947393
O O4 0.113959 0.954534 0.998943
O O5 0.826297 0.858331 0.761645
O O6 0.923178 0.925304 0.697893
O O7 0.061769 0.857184 0.705322
O O8 0.452565 0.289672 0.126725
O O9 0.675508 0.283664 0.140507
O O10 0.576825 0.338254 0.939487
O O11 0.750000 0.779546 0.500000
O O12 0.750420 0.783191 0.781742
O O13 0.629320 0.500000 0.250000
O O14 0.498161 0.476262 0.015391
O O15 0.750000 0.481655 0.000000
O O16 0.911045 0.843646 0.231665
O O17 0.750000 0.833015 0.000000
O O18 0.566820 0.097828 0.929844
O O19 0.750000 0.048752 0.000000
#
# Coordination Sequence:
#
# PCOD9333678 Si02
#       8
#     8   8   8   8   8   8   8   8
#     4  11  25  43  63  91 134 178 224 272 331 405
#     4  10  20  39  63  93 129 166 209 272 332 391
#     4   9  21  36  60  90 120 160 213 257 318 392
#     4  10  19  36  60  86 122 163 207 258 314 394
#     4  11  26  47  67  93 139 186 226 277 343 414
#     4  11  20  36  65  93 130 166 208 270 346 399
#     4  11  22  39  66  98 125 171 221 275 338 398
#     4  11  23  41  69 103 131 172 232 289 334 401
#
# _framework density 20.082885999999998
#
# number of rings (size 3 to 8) (size 9 to 14) (size 15 to 20)
#    0.000    1.500    5.000    0.000    3.500    1.000 
#    4.500    4.375    2.750    0.000    0.000    0.000 
#    0.000    0.000    0.000    0.000    0.000    0.000 
#
# Total GULP energy -178286.340272 kJ/mol
# GULP energy per Si atom -5571.448134 kJ/mol
# Density = 2.003718 g / cm^3
# Si number density = 20.082886 Si / 1000 Ang^3
#
#
#
# Elastic Constant Matrix: (Units=GPa)
#
#
# Indices 1 2 3 4 5 6 
#
# 1 73.1032 31.7582 8.6708 0.0007 -0.0008 -0.0003
# 2 31.7582 78.1215 27.2067 0.0004 -0.0001 -0.0001
# 3 8.6708 27.2067 76.6811 0.0042 0.0009 0.0001
# 4 0.0007 0.0004 0.0042 19.6042 0.0001 -0.0004
# 5 -0.0008 -0.0001 0.0009 0.0001 24.8191 0.0008
# 6 -0.0003 -0.0001 0.0001 -0.0004 0.0008 35.3022
#
#
#
# Elastic Compliance Matrix: (Units=1/GPa)
#
#
# Indices 1 2 3 4 5 6 
#
# 1 0.016637 -0.006969 0.000591 -0.000001 0.000000 0.000000
# 2 -0.006969 0.017525 -0.005430 0.000001 0.000000 0.000000
# 3 0.000591 -0.005430 0.014901 -0.000003 -0.000001 0.000000
# 4 -0.000001 0.000001 -0.000003 0.051010 0.000000 0.000001
# 5 0.000000 0.000000 -0.000001 0.000000 0.040292 -0.000001
# 6 0.000000 0.000000 0.000000 0.000001 -0.000001 0.028327
#
#
# Mechanical properties :
#
#
# Convention : Reuss Voigt Hill
#
# Bulk Modulus (GPa) = 39.29722 40.35303 39.82512
# Shear Modulus (GPa) = 24.90195 26.62976 25.76586
#
# Velocity S-wave (km/s) = 3.52513 3.64537 3.58575
# Velocity P-wave (km/s) = 6.01487 6.15265 6.08415
#
# Compressibility (1/GPa) = 0.02544709
#
# Stress axis : x y z
#
# Youngs Moduli (GPa) = 60.10789 57.06239 67.11118
#
# Poissons Ratio (x) = 0.39768 -0.03969
# Poissons Ratio (y) = 0.41890 0.36440
# Poissons Ratio (z) = -0.03555 0.30984
#
# Static dielectric constant tensor:
#      x y z
#    x 1.737570 0.000000 0.000000 
#    y 0.000000 1.725980 0.000000 
#    z 0.000000 0.000000 1.681700 
# 
# From -- ./inp_files/11650.got.cif
#   From: 2010.05.17/outbox.cif.g08.bks.cpg/sg24_6_cif.got.tgz:11650.got - 2010.06.04 00:33:39.
