data_PCOD9333526
_publ_section_title
;
Structure prediction by ZEFSAII (Michael W. Deem and Ramdas Pophale) SiO2 
 PCOD9333526
Probable space group: I 21 21 21
;
_chemical_formula_sum "Si O2"
_cell_formula_units_Z 48
_cell_length_a 8.959172
_cell_length_b 14.996939
_cell_length_c 18.375694
_cell_angle_alpha 90.000000
_cell_angle_beta 90.000000
_cell_angle_gamma 90.000000
_cell_volume 2468.961112
_symmetry_space_group_name_H-M "I 21 21 21"
_symmetry_group_IT_number 24
_symmetry_cell_setting 'orthorhombic'
loop_
_space_group_symop_operation_xyz
x,y,z
-x,1/2-y,z
x,-y,1/2-z
1/2-x,y,-z
1/2+x,1/2+y,1/2+z
1/2-x,-y,1/2+z
1/2+x,1/2-y,-z
-x,1/2+y,1/2-z
loop_
_atom_site_type_symbol
_atom_site_label
_atom_site_fract_x
_atom_site_fract_y
_atom_site_fract_z
Si Si1 0.104059 0.399842 0.221161
Si Si2 0.073954 0.157706 0.638940
Si Si3 0.072739 0.963331 0.416663
Si Si4 0.934908 0.154397 0.797431
Si Si5 0.071285 0.032707 0.919684
Si Si6 0.571799 0.660375 0.861767
O O1 0.140827 0.500000 0.250000
O O2 0.257230 0.346794 0.211808
O O3 0.015899 0.411628 0.145752
O O4 0.000720 0.356112 0.282605
O O5 0.251022 0.171014 0.644727
O O6 0.000000 0.250000 0.614619
O O7 0.008078 0.135272 0.718724
O O8 0.045416 0.073065 0.588217
O O9 0.032566 0.937437 0.498809
O O10 0.251333 0.951955 0.407504
O O11 0.042823 0.069058 0.405465
O O12 0.000000 0.250000 0.819976
O O13 0.981390 0.082858 0.857414
O O14 0.500000 0.750000 0.893516
#
# Coordination Sequence:
#
# PCOD9333526 Si02
#       6
#     8   8   8   8   8   8
#     4  10  20  36  57  82 109 142 182 226 274 326
#     4  10  20  34  57  85 110 144 184 222 273 326
#     4   9  21  37  56  79 109 149 184 216 276 330
#     4  11  22  36  55  81 109 141 186 232 274 321
#     4  10  20  39  57  77 114 150 179 225 273 326
#     4  10  19  34  56  82 112 142 179 227 271 323
#
# _framework density 19.441374
#
# number of rings (size 3 to 8) (size 9 to 14) (size 15 to 20)
#    0.000    2.000    0.000    4.500    0.000    5.333 
#    0.000    4.167    0.000    0.000    0.000    0.000 
#    0.000    0.000    0.000    0.000    0.000    0.000 
#
# Total GULP energy -134083.530349 kJ/mol
# GULP energy per Si atom -5586.813765 kJ/mol
# Density = 1.939713 g / cm^3
# Si number density = 19.441374 Si / 1000 Ang^3
#
#
#
# Elastic Constant Matrix: (Units=GPa)
#
#
# Indices 1 2 3 4 5 6 
#
# 1 68.4229 23.4723 18.1246 0.0000 0.0000 0.0000
# 2 23.4723 43.6569 -1.4347 0.0000 0.0000 0.0000
# 3 18.1246 -1.4347 55.3586 0.0000 0.0000 0.0000
# 4 0.0000 0.0000 0.0000 10.0988 0.0000 0.0000
# 5 0.0000 0.0000 0.0000 0.0000 7.4063 0.0000
# 6 0.0000 0.0000 0.0000 0.0000 0.0000 36.0229
#
#
#
# Elastic Compliance Matrix: (Units=1/GPa)
#
#
# Indices 1 2 3 4 5 6 
#
# 1 0.020264 -0.011123 -0.006923 0.000000 0.000000 0.000000
# 2 -0.011123 0.029030 0.004394 0.000000 0.000000 0.000000
# 3 -0.006923 0.004394 0.020445 0.000000 0.000000 0.000000
# 4 0.000000 0.000000 0.000000 0.099022 0.000000 0.000000
# 5 0.000000 0.000000 0.000000 0.000000 0.135020 0.000000
# 6 0.000000 0.000000 0.000000 0.000000 0.000000 0.027760
#
#
# Mechanical properties :
#
#
# Convention : Reuss Voigt Hill
#
# Bulk Modulus (GPa) = 23.56484 27.52919 25.54702
# Shear Modulus (GPa) = 13.40518 19.19068 16.29793
#
# Velocity S-wave (km/s) = 2.62872 3.14523 2.89850
# Velocity P-wave (km/s) = 4.62178 5.23267 4.93668
#
# Compressibility (1/GPa) = 0.04243610
#
# Stress axis : x y z
#
# Youngs Moduli (GPa) = 49.34751 34.44653 48.91288
#
# Poissons Ratio (x) = 0.38314 0.33862
# Poissons Ratio (y) = 0.54888 -0.21492
# Poissons Ratio (z) = 0.34163 -0.15136
#
# Static dielectric constant tensor:
#      x y z
#    x 1.651030 0.000000 0.000000 
#    y 0.000000 1.696450 0.000000 
#    z 0.000000 0.000000 1.651530 
# 
# From -- ./inp_files/12771.got.cif
#   From: 2010.05.17/outbox.cif.g08.bks.cpg/sg24_7_cif.got.tgz:12771.got - 2010.06.04 00:33:39.
