data_PCOD9333643
_publ_section_title
;
Structure prediction by ZEFSAII (Michael W. Deem and Ramdas Pophale) SiO2 
 PCOD9333643
Probable space group: I 21 21 21
;
_chemical_formula_sum "Si O2"
_cell_formula_units_Z 32
_cell_length_a 14.433494
_cell_length_b 13.777214
_cell_length_c 7.308292
_cell_angle_alpha 90.000000
_cell_angle_beta 90.000000
_cell_angle_gamma 90.000000
_cell_volume 1453.278242
_symmetry_space_group_name_H-M "I 21 21 21"
_symmetry_group_IT_number 24
_symmetry_cell_setting 'orthorhombic'
loop_
_space_group_symop_operation_xyz
x,y,z
-x,1/2-y,z
x,-y,1/2-z
1/2-x,y,-z
1/2+x,1/2+y,1/2+z
1/2-x,-y,1/2+z
1/2+x,1/2-y,-z
-x,1/2+y,1/2-z
loop_
_atom_site_type_symbol
_atom_site_label
_atom_site_fract_x
_atom_site_fract_y
_atom_site_fract_z
Si Si1 0.750000 0.345606 0.000000
Si Si2 0.682146 0.000000 0.750000
Si Si3 0.847673 0.526846 0.964362
Si Si4 0.452188 0.568919 0.073374
Si Si5 0.702202 0.807183 0.193561
O O1 0.669090 0.421519 0.940273
O O2 0.714876 0.277603 0.161679
O O3 0.616336 0.021629 0.576626
O O4 0.746957 0.905149 0.731385
O O5 0.847958 0.500000 0.750000
O O6 0.944221 0.577153 0.006007
O O7 0.750000 0.578951 0.000000
O O8 0.457658 0.500000 0.250000
O O9 0.403372 0.665934 0.145989
O O10 0.750000 0.788071 0.000000
#
# Coordination Sequence:
#
# PCOD9333643 Si02
#       5
#     4   4   8   8   8
#     4  10  22  40  66  94 134 170 228 282 324 394
#     4  10  20  34  64  92 128 176 216 274 352 410
#     4   9  22  41  64  89 126 180 221 277 331 417
#     4  10  19  35  61  91 124 170 223 264 343 404
#     4  10  20  36  62  97 130 168 217 285 329 403
#
# _framework density 22.019183999999999
#
# number of rings (size 3 to 8) (size 9 to 14) (size 15 to 20)
#    0.750    1.500    1.250    1.500    3.500    1.000 
#    0.000   11.250    0.000   12.000    0.000    0.000 
#    0.000    0.000    0.000    0.000    0.000    0.000 
#
# Total GULP energy -89303.185804 kJ/mol
# GULP energy per Si atom -5581.449113 kJ/mol
# Density = 2.196907 g / cm^3
# Si number density = 22.019184 Si / 1000 Ang^3
#
#
#
# Elastic Constant Matrix: (Units=GPa)
#
#
# Indices 1 2 3 4 5 6 
#
# 1 203.0097 64.0623 37.6398 0.0000 0.0000 0.0000
# 2 64.0623 125.0375 31.0592 0.0000 0.0000 0.0000
# 3 37.6398 31.0592 77.5412 0.0000 0.0000 0.0000
# 4 0.0000 0.0000 0.0000 39.2115 0.0000 0.0000
# 5 0.0000 0.0000 0.0000 0.0000 31.1687 0.0000
# 6 0.0000 0.0000 0.0000 0.0000 0.0000 -58.6734
#
#
#
# Elastic Compliance Matrix: (Units=1/GPa)
#
#
# Indices 1 2 3 4 5 6 
#
# 1 0.006119 -0.002662 -0.001904 0.000000 0.000000 0.000000
# 2 -0.002662 0.010039 -0.002729 0.000000 0.000000 0.000000
# 3 -0.001904 -0.002729 0.014914 0.000000 0.000000 0.000000
# 4 0.000000 0.000000 0.000000 0.025503 0.000000 0.000000
# 5 0.000000 0.000000 0.000000 0.000000 0.032083 0.000000
# 6 0.000000 0.000000 0.000000 0.000000 0.000000 -0.017043
#
#
# Mechanical properties :
#
#
# Convention : Reuss Voigt Hill
#
# Bulk Modulus (GPa) = 60.67273 74.56787 67.62030
# Shear Modulus (GPa) = 54.52635 20.52984 37.52810
#
# Velocity S-wave (km/s) = 4.98165 3.05677 4.13284
# Velocity P-wave (km/s) = 7.79124 6.81153 7.31780
#
# Compressibility (1/GPa) = 0.01648187
#
# Stress axis : x y z
#
# Youngs Moduli (GPa) = 163.42735 99.60758 67.05245
#
# Poissons Ratio (x) = 0.26516 0.12766
# Poissons Ratio (y) = 0.43505 0.18299
# Poissons Ratio (z) = 0.31115 0.27184
#
# Static dielectric constant tensor:
#      x y z
#    x 1.848900 0.000000 0.000000 
#    y 0.000000 1.828970 0.000000 
#    z 0.000000 0.000000 1.836880 
# 
# From -- ./inp_files/12112.got.cif
#   From: 2010.05.17/outbox.cif.g08.bks.cpg/sg24_7_cif.got.tgz:12112.got - 2010.06.04 00:33:39.
