data_PCOD9333409
_publ_section_title
;
Structure prediction by ZEFSAII (Michael W. Deem and Ramdas Pophale) SiO2 
 PCOD9333409
Probable space group: I 21 21 21
;
_chemical_formula_sum "Si O2"
_cell_formula_units_Z 64
_cell_length_a 12.027684
_cell_length_b 17.621895
_cell_length_c 13.772289
_cell_angle_alpha 90.000000
_cell_angle_beta 90.000000
_cell_angle_gamma 90.000000
_cell_volume 2919.044704
_symmetry_space_group_name_H-M "I 21 21 21"
_symmetry_group_IT_number 24
_symmetry_cell_setting 'orthorhombic'
loop_
_space_group_symop_operation_xyz
x,y,z
-x,1/2-y,z
x,-y,1/2-z
1/2-x,y,-z
1/2+x,1/2+y,1/2+z
1/2-x,-y,1/2+z
1/2+x,1/2-y,-z
-x,1/2+y,1/2-z
loop_
_atom_site_type_symbol
_atom_site_label
_atom_site_fract_x
_atom_site_fract_y
_atom_site_fract_z
Si Si1 0.692958 0.631969 0.092170
Si Si2 0.079041 0.522852 0.364472
Si Si3 0.230660 0.339346 0.179590
Si Si4 0.792864 0.675229 0.681304
Si Si5 0.019260 0.557612 0.879731
Si Si6 0.514887 0.108068 0.160083
Si Si7 0.675099 0.520650 0.637626
Si Si8 0.232700 0.386156 0.397921
O O1 0.706729 0.669634 0.199184
O O2 0.564267 0.614234 0.066090
O O3 0.752241 0.549339 0.099733
O O4 0.750000 0.671240 0.000000
O O5 0.083842 0.500000 0.250000
O O6 0.147041 0.601635 0.371607
O O7 0.142710 0.452746 0.413694
O O8 0.951686 0.527161 0.396010
O O9 0.228907 0.251323 0.152154
O O10 0.357808 0.365544 0.159562
O O11 0.208172 0.344745 0.296405
O O12 0.736752 0.600877 0.635458
O O13 0.920729 0.671094 0.645043
O O14 0.987912 0.577893 0.768554
O O15 0.001726 0.469137 0.900315
O O16 0.148923 0.574310 0.880626
O O17 0.664632 0.500000 0.750000
O O18 0.250000 0.343531 0.500000
#
# Coordination Sequence:
#
# PCOD9333409 Si02
#       8
#     8   8   8   8   8   8   8   8
#     4  10  20  32  51  77 104 133 165 205 250 300
#     4   9  18  33  51  71  96 132 176 210 239 286
#     4  10  19  32  52  77 104 133 165 204 251 300
#     4  10  19  32  52  77 104 133 165 204 251 300
#     4   9  16  30  52  74  97 126 172 213 245 284
#     4   9  15  30  52  76  98 124 168 217 246 282
#     4   9  18  33  51  71  96 132 176 210 239 286
#     4  10  20  32  51  77 104 133 165 205 250 300
#
# _framework density 21.924982
#
# number of rings (size 3 to 8) (size 9 to 14) (size 15 to 20)
#    0.000    2.500    2.500    0.375    1.750    1.000 
#    0.000    0.000    0.000    0.750    0.000    0.000 
#    0.000    0.000    0.000    0.000    0.000    0.000 
#
# Total GULP energy -178410.184676 kJ/mol
# GULP energy per Si atom -5575.318271 kJ/mol
# Density = 2.187508 g / cm^3
# Si number density = 21.924982 Si / 1000 Ang^3
#
#
#
# Elastic Constant Matrix: (Units=GPa)
#
#
# Indices 1 2 3 4 5 6 
#
# 1 90.4588 17.0009 -23.3673 0.0000 0.0000 0.0000
# 2 17.0009 103.3741 -19.4318 0.0000 0.0000 0.0000
# 3 -23.3673 -19.4318 31.3173 0.0000 0.0000 0.0000
# 4 0.0000 0.0000 0.0000 3.4232 0.0000 0.0000
# 5 0.0000 0.0000 0.0000 0.0000 1.6170 0.0000
# 6 0.0000 0.0000 0.0000 0.0000 0.0000 7.3296
#
#
#
# Elastic Compliance Matrix: (Units=1/GPa)
#
#
# Indices 1 2 3 4 5 6 
#
# 1 0.013707 -0.000376 0.009994 0.000000 0.000000 0.000000
# 2 -0.000376 0.010961 0.006521 0.000000 0.000000 0.000000
# 3 0.009994 0.006521 0.043435 0.000000 0.000001 0.000000
# 4 0.000000 0.000000 0.000000 0.292121 0.000000 0.000001
# 5 0.000000 0.000000 0.000001 0.000000 0.618417 -0.000001
# 6 0.000000 0.000000 0.000000 0.000001 -0.000001 0.136434
#
#
# Mechanical properties :
#
#
# Convention : Reuss Voigt Hill
#
# Bulk Modulus (GPa) = 9.96186 19.28375 14.62281
# Shear Modulus (GPa) = 4.47926 19.20386 11.84156
#
# Velocity S-wave (km/s) = 1.43088 2.96275 2.32651
# Velocity P-wave (km/s) = 2.69877 4.52971 3.72838
#
# Compressibility (1/GPa) = 0.10038287
#
# Stress axis : x y z
#
# Youngs Moduli (GPa) = 72.95484 91.23126 23.02303
#
# Poissons Ratio (x) = 0.03426 -0.23010
# Poissons Ratio (y) = 0.02740 -0.15013
# Poissons Ratio (z) = -0.72915 -0.59492
#
# Static dielectric constant tensor:
#      x y z
#    x 1.796340 0.000000 0.000000 
#    y 0.000000 1.792350 0.000000 
#    z 0.000000 0.000000 2.031320 
# 
# From -- ./inp_files/26016.got.cif
#   From: 2010.05.17/outbox.cif.g08.bks.cpg/sg24_14_cif.got.tgz:26016.got - 2010.06.04 00:33:39.
