data_PCOD9333895
_publ_section_title
;
Structure prediction by ZEFSAII (Michael W. Deem and Ramdas Pophale) SiO2 
 PCOD9333895
Probable space group: I 21 21 21
;
_chemical_formula_sum "Si O2"
_cell_formula_units_Z 48
_cell_length_a 9.631523
_cell_length_b 14.587440
_cell_length_c 15.609517
_cell_angle_alpha 90.000000
_cell_angle_beta 90.000000
_cell_angle_gamma 90.000000
_cell_volume 2193.125648
_symmetry_space_group_name_H-M "I 21 21 21"
_symmetry_group_IT_number 24
_symmetry_cell_setting 'orthorhombic'
loop_
_space_group_symop_operation_xyz
x,y,z
-x,1/2-y,z
x,-y,1/2-z
1/2-x,y,-z
1/2+x,1/2+y,1/2+z
1/2-x,-y,1/2+z
1/2+x,1/2-y,-z
-x,1/2+y,1/2-z
loop_
_atom_site_type_symbol
_atom_site_label
_atom_site_fract_x
_atom_site_fract_y
_atom_site_fract_z
Si Si1 0.149240 0.752116 0.348985
Si Si2 0.826071 0.378032 0.584015
Si Si3 0.149807 0.728210 0.155187
Si Si4 0.864523 0.092501 0.634291
Si Si5 0.613905 0.117021 0.159936
Si Si6 0.806036 0.435954 0.835826
O O1 0.123798 0.706067 0.255128
O O2 0.283014 0.693076 0.378670
O O3 0.190322 0.858284 0.336958
O O4 0.000000 0.750000 0.395522
O O5 0.750000 0.342320 0.500000
O O6 0.757193 0.313116 0.655363
O O7 0.782331 0.483216 0.596695
O O8 0.992291 0.376876 0.589726
O O9 0.228774 0.647244 0.107536
O O10 0.000000 0.750000 0.117077
O O11 0.881522 0.116981 0.735677
O O12 0.842859 0.984246 0.628990
O O13 0.449090 0.117389 0.143842
O O14 0.823171 0.500000 0.750000
#
# Coordination Sequence:
#
# PCOD9333895 Si02
#       6
#     8   8   8   8   8   8
#     4  10  20  32  53  85 114 138 176 232 289 322
#     4  11  22  35  53  78 108 146 186 230 273 325
#     4  10  20  32  50  81 114 147 178 214 274 342
#     4   9  17  33  54  78 110 141 186 221 268 324
#     4   9  16  32  56  83 105 142 183 226 271 325
#     4  11  18  35  56  78 104 145 188 229 271 330
#
# _framework density 21.886571
#
# number of rings (size 3 to 8) (size 9 to 14) (size 15 to 20)
#    0.000    2.000    5.000    1.000    0.000    5.333 
#    3.000    0.000    0.000    4.000    0.000    0.000 
#    0.000    0.000    0.000    0.000    0.000    0.000 
#
# Total GULP energy -133735.830673 kJ/mol
# GULP energy per Si atom -5572.326278 kJ/mol
# Density = 2.183676 g / cm^3
# Si number density = 21.886571 Si / 1000 Ang^3
#
#
#
# Elastic Constant Matrix: (Units=GPa)
#
#
# Indices 1 2 3 4 5 6 
#
# 1 136.5233 80.5869 0.6147 0.0000 0.0000 0.0000
# 2 80.5869 83.8337 -9.7062 0.0000 0.0000 0.0000
# 3 0.6147 -9.7062 11.9967 0.0000 0.0000 0.0000
# 4 0.0000 0.0000 0.0000 6.0534 0.0000 0.0000
# 5 0.0000 0.0000 0.0000 0.0000 6.1616 0.0000
# 6 0.0000 0.0000 0.0000 0.0000 0.0000 32.2479
#
#
#
# Elastic Compliance Matrix: (Units=1/GPa)
#
#
# Indices 1 2 3 4 5 6 
#
# 1 0.020016 -0.021360 -0.018308 0.000000 0.000000 0.000000
# 2 -0.021360 0.035956 0.030186 0.000000 0.000000 0.000000
# 3 -0.018308 0.030186 0.108717 0.000000 0.000000 0.000000
# 4 0.000000 0.000000 0.000000 0.165196 0.000000 0.000000
# 5 0.000000 0.000000 0.000000 0.000000 0.162296 0.000000
# 6 0.000000 0.000000 0.000000 0.000000 0.000000 0.031010
#
#
# Mechanical properties :
#
#
# Convention : Reuss Voigt Hill
#
# Bulk Modulus (GPa) = 6.86224 41.70494 24.28359
# Shear Modulus (GPa) = 8.46412 19.61646 14.04029
#
# Velocity S-wave (km/s) = 1.96867 2.99704 2.53554
# Velocity P-wave (km/s) = 2.88266 5.57429 4.43748
#
# Compressibility (1/GPa) = 0.14572493
#
# Stress axis : x y z
#
# Youngs Moduli (GPa) = 49.96109 27.81175 9.19819
#
# Poissons Ratio (x) = 0.59406 0.16840
# Poissons Ratio (y) = 1.06717 -0.27765
# Poissons Ratio (z) = 0.91466 -0.83952
#
# Static dielectric constant tensor:
#      x y z
#    x 1.838190 0.000000 0.000000 
#    y 0.000000 1.822220 0.000000 
#    z 0.000000 0.000000 1.929570 
# 
# From -- ./inp_files/14204.got.cif
#   From: 2010.05.17/outbox.cif.g08.bks.cpg/sg24_8_cif.got.tgz:14204.got - 2010.06.04 00:33:39.
