data_PCOD9333349
_publ_section_title
;
Structure prediction by ZEFSAII (Michael W. Deem and Ramdas Pophale) SiO2 
 PCOD9333349
Probable space group: I 21 21 21
;
_chemical_formula_sum "Si O2"
_cell_formula_units_Z 40
_cell_length_a 7.216707
_cell_length_b 15.183573
_cell_length_c 14.218281
_cell_angle_alpha 90.000000
_cell_angle_beta 90.000000
_cell_angle_gamma 90.000000
_cell_volume 1557.973793
_symmetry_space_group_name_H-M "I 21 21 21"
_symmetry_group_IT_number 24
_symmetry_cell_setting 'orthorhombic'
loop_
_space_group_symop_operation_xyz
x,y,z
-x,1/2-y,z
x,-y,1/2-z
1/2-x,y,-z
1/2+x,1/2+y,1/2+z
1/2-x,-y,1/2+z
1/2+x,1/2-y,-z
-x,1/2+y,1/2-z
loop_
_atom_site_type_symbol
_atom_site_label
_atom_site_fract_x
_atom_site_fract_y
_atom_site_fract_z
Si Si1 0.535516 0.356378 0.106491
Si Si2 0.038352 0.096897 0.288667
Si Si3 0.469968 0.855934 0.990718
Si Si4 0.523203 0.647727 0.593419
Si Si5 0.463837 0.145991 0.306791
O O1 0.500000 0.250000 0.111588
O O2 0.757553 0.371819 0.102445
O O3 0.471050 0.393340 0.207106
O O4 0.461111 0.392707 0.006792
O O5 0.957517 0.102983 0.393401
O O6 0.938474 0.137849 0.197560
O O7 0.240707 0.139025 0.302672
O O8 0.068162 0.000000 0.250000
O O9 0.500000 0.750000 0.983016
O O10 0.250000 0.872719 0.000000
O O11 0.538381 0.887847 0.093184
O O12 0.500000 0.750000 0.574866
O O13 0.500000 0.250000 0.308285
#
# Coordination Sequence:
#
# PCOD9333349 Si02
#       5
#     8   8   8   8   8
#     4   8  14  26  44  68  91 114 152 201 241 276
#     4  10  19  30  44  75 105 128 158 208 260 298
#     4   9  17  31  51  76  96 129 170 211 248 290
#     4   9  16  27  44  68  92 125 163 193 238 291
#     4   8  15  30  47  66  95 127 164 202 239 288
#
# _framework density 25.674372000000002
#
# number of rings (size 3 to 8) (size 9 to 14) (size 15 to 20)
#    0.000    3.200    0.000    0.600    0.000    0.000 
#   21.600    0.000    0.000    0.000   10.400   53.200 
#    0.000    0.000    0.000    0.000    0.000    0.000 
#
# Total GULP energy -111408.176366 kJ/mol
# GULP energy per Si atom -5570.408818 kJ/mol
# Density = 2.561594 g / cm^3
# Si number density = 25.674372 Si / 1000 Ang^3
#
#
#
# Elastic Constant Matrix: (Units=GPa)
#
#
# Indices 1 2 3 4 5 6 
#
# 1 110.8720 -8.8479 20.2341 0.0000 0.0000 0.0000
# 2 -8.8479 39.3595 35.0144 0.0000 0.0000 0.0000
# 3 20.2341 35.0144 410.2447 0.0000 0.0000 0.0000
# 4 0.0000 0.0000 0.0000 -9.1749 0.0000 0.0000
# 5 0.0000 0.0000 0.0000 0.0000 -7.0777 0.0000
# 6 0.0000 0.0000 0.0000 0.0000 0.0000 -7.8784
#
#
#
# Elastic Compliance Matrix: (Units=1/GPa)
#
#
# Indices 1 2 3 4 5 6 
#
# 1 0.009363 0.002722 -0.000694 0.000000 0.000000 0.000000
# 2 0.002722 0.028286 -0.002548 0.000000 0.000000 0.000000
# 3 -0.000694 -0.002548 0.002689 0.000000 0.000000 0.000000
# 4 0.000000 0.000000 0.000000 -0.108993 0.000000 0.000000
# 5 0.000000 0.000000 0.000000 0.000000 -0.141290 0.000000
# 6 0.000000 0.000000 0.000000 0.000000 0.000000 -0.126929
#
#
# Mechanical properties :
#
#
# Convention : Reuss Voigt Hill
#
# Bulk Modulus (GPa) = 25.44651 72.58636 49.01644
# Shear Modulus (GPa) = -15.49268 29.44551 6.97641
#
# Velocity S-wave (km/s) = -2.45915 3.39024 1.65020
# Velocity P-wave (km/s) = 1.36732 6.60744 4.77115
#
# Compressibility (1/GPa) = 0.03929811
#
# Stress axis : x y z
#
# Youngs Moduli (GPa) = 106.79936 35.35323 371.84116
#
# Poissons Ratio (x) = -0.09625 0.25812
# Poissons Ratio (y) = -0.29075 0.94763
# Poissons Ratio (z) = 0.07414 0.09010
#
# Static dielectric constant tensor:
#      x y z
#    x 1.980390 0.000000 0.000000 
#    y 0.000000 1.989650 0.000000 
#    z 0.000000 0.000000 2.228920 
# 
# From -- ./inp_files/20604.got.cif
#   From: 2010.05.17/outbox.cif.g08.bks.cpg/sg24_11_cif.got.tgz:20604.got - 2010.06.04 00:33:39.
