data_PCOD9333270
_publ_section_title
;
Structure prediction by ZEFSAII (Michael W. Deem and Ramdas Pophale) SiO2 
 PCOD9333270
Probable space group: I 21 21 21
;
_chemical_formula_sum "Si O2"
_cell_formula_units_Z 56
_cell_length_a 5.195740
_cell_length_b 15.415751
_cell_length_c 31.949848
_cell_angle_alpha 90.000000
_cell_angle_beta 90.000000
_cell_angle_gamma 90.000000
_cell_volume 2559.062505
_symmetry_space_group_name_H-M "I 21 21 21"
_symmetry_group_IT_number 24
_symmetry_cell_setting 'orthorhombic'
loop_
_space_group_symop_operation_xyz
x,y,z
-x,1/2-y,z
x,-y,1/2-z
1/2-x,y,-z
1/2+x,1/2+y,1/2+z
1/2-x,-y,1/2+z
1/2+x,1/2-y,-z
-x,1/2+y,1/2-z
loop_
_atom_site_type_symbol
_atom_site_label
_atom_site_fract_x
_atom_site_fract_y
_atom_site_fract_z
Si Si1 0.000000 0.750000 0.975117
Si Si2 0.672981 0.834258 0.254587
Si Si3 0.343391 0.080155 0.724544
Si Si4 0.250000 0.053352 0.000000
Si Si5 0.972662 0.911597 0.421218
Si Si6 0.349966 0.000734 0.359094
Si Si7 0.409628 0.566234 0.061793
Si Si8 0.326267 0.335974 0.151115
O O1 0.114907 0.665039 0.952234
O O2 0.250000 0.784038 0.000000
O O3 0.500000 0.750000 0.245687
O O4 0.435376 0.900947 0.245971
O O5 0.788318 0.826672 0.301946
O O6 0.926094 0.850357 0.226936
O O7 0.290591 0.049393 0.677722
O O8 0.460726 0.000000 0.750000
O O9 0.096311 0.110530 0.034124
O O10 0.428899 0.989934 0.027905
O O11 0.802323 0.844012 0.394989
O O12 0.834410 0.003948 0.430967
O O13 0.179364 0.935024 0.386192
O O14 0.455171 0.067026 0.393207
O O15 0.562452 0.933514 0.343254
O O16 0.500000 0.250000 0.148611
#
# Coordination Sequence:
#
# PCOD9333270 Si02
#       8
#     4   8   8   4   8   8   8   8
#     4  12  24  40  66  98 132 170 228 280 334 394
#     4  11  25  43  66  97 140 183 235 292 349 408
#     4  12  23  41  69  97 136 185 235 286 346 418
#     4  10  18  38  62  98 122 170 216 274 338 418
#     4  10  21  38  65  96 131 171 225 277 351 415
#     4  10  23  40  63  99 128 178 229 277 344 414
#     4  10  22  39  63  95 130 173 222 279 334 403
#     4  10  22  41  65 101 132 174 233 296 345 413
#
# _framework density 21.883013999999999
#
# number of rings (size 3 to 8) (size 9 to 14) (size 15 to 20)
#    0.000    1.429    2.143    3.000    6.000    0.571 
#    1.286    1.429    0.000    0.000  133.714    0.000 
#    0.000    0.000    0.000    0.000    0.000    0.000 
#
# Total GULP energy -155914.156672 kJ/mol
# GULP energy per Si atom -5568.362738 kJ/mol
# Density = 2.183321 g / cm^3
# Si number density = 21.883014 Si / 1000 Ang^3
#
#
#
# Elastic Constant Matrix: (Units=GPa)
#
#
# Indices 1 2 3 4 5 6 
#
# 1 62.1971 1.3112 38.6188 0.0000 0.0000 0.0000
# 2 1.3112 55.7885 22.4147 0.0000 0.0000 0.0000
# 3 38.6188 22.4147 151.6361 0.0000 0.0000 0.0000
# 4 0.0000 0.0000 0.0000 21.1324 0.0000 0.0000
# 5 0.0000 0.0000 0.0000 0.0000 -57.3371 0.0000
# 6 0.0000 0.0000 0.0000 0.0000 0.0000 12.7950
#
#
#
# Elastic Compliance Matrix: (Units=1/GPa)
#
#
# Indices 1 2 3 4 5 6 
#
# 1 0.019233 0.001612 -0.005137 0.000000 0.000000 0.000000
# 2 0.001612 0.019192 -0.003247 0.000000 0.000000 0.000000
# 3 -0.005137 -0.003247 0.008383 0.000000 0.000000 0.000000
# 4 0.000000 0.000000 0.000000 0.047321 0.000000 0.000000
# 5 0.000000 0.000000 0.000000 0.000000 -0.017441 0.000000
# 6 0.000000 0.000000 0.000000 0.000000 0.000000 0.078155
#
#
# Mechanical properties :
#
#
# Convention : Reuss Voigt Hill
#
# Bulk Modulus (GPa) = 30.06298 43.81234 36.93766
# Shear Modulus (GPa) = 27.85893 9.13654 18.49773
#
# Velocity S-wave (km/s) = 3.57190 2.04554 2.91056
# Velocity P-wave (km/s) = 5.54790 5.06395 5.31144
#
# Compressibility (1/GPa) = 0.03326350
#
# Stress axis : x y z
#
# Youngs Moduli (GPa) = 51.99316 52.10587 119.28970
#
# Poissons Ratio (x) = -0.08398 0.61274
# Poissons Ratio (y) = -0.08380 0.38738
# Poissons Ratio (z) = 0.26707 0.16921
#
# Static dielectric constant tensor:
#      x y z
#    x 1.823140 0.000000 0.000000 
#    y 0.000000 2.043640 0.000000 
#    z 0.000000 0.000000 1.853860 
# 
# From -- ./inp_files/37932.got.cif
#   From: 2010.05.17/outbox.cif.g08.bks.cpg/sg24_19_cif.got.tgz:37932.got - 2010.06.04 00:33:39.
