data_PCOD9333407
_publ_section_title
;
Structure prediction by ZEFSAII (Michael W. Deem and Ramdas Pophale) SiO2 
 PCOD9333407
Probable space group: I 21 21 21
;
_chemical_formula_sum "Si O2"
_cell_formula_units_Z 24
_cell_length_a 21.250276
_cell_length_b 10.918135
_cell_length_c 5.066865
_cell_angle_alpha 90.000000
_cell_angle_beta 90.000000
_cell_angle_gamma 90.000000
_cell_volume 1175.580486
_symmetry_space_group_name_H-M "I 21 21 21"
_symmetry_group_IT_number 24
_symmetry_cell_setting 'orthorhombic'
loop_
_space_group_symop_operation_xyz
x,y,z
-x,1/2-y,z
x,-y,1/2-z
1/2-x,y,-z
1/2+x,1/2+y,1/2+z
1/2-x,-y,1/2+z
1/2+x,1/2-y,-z
-x,1/2+y,1/2-z
loop_
_atom_site_type_symbol
_atom_site_label
_atom_site_fract_x
_atom_site_fract_y
_atom_site_fract_z
Si Si1 0.503135 0.500000 0.750000
Si Si2 0.605806 0.194125 0.855159
Si Si3 0.065176 0.824900 0.855462
Si Si4 0.709740 0.000000 0.750000
O O1 0.456653 0.392880 0.853462
O O2 0.544344 0.448469 0.508144
O O3 0.607758 0.256243 0.570890
O O4 0.664744 0.104252 0.875077
O O5 0.597910 0.298089 0.076447
O O6 0.000000 0.750000 0.840631
O O7 0.750000 0.046167 0.500000
#
# Coordination Sequence:
#
# PCOD9333407 Si02
#       4
#     4   8   8   4
#     4   9  20  34  54  80 120 158 182 219 284 348
#     4  10  21  34  52  82 114 147 194 234 270 336
#     4  10  19  32  51  79 116 154 184 221 272 340
#     4  11  22  38  58  78 108 152 196 245 292 320
#
# _framework density 20.415445999999999
#
# number of rings (size 3 to 8) (size 9 to 14) (size 15 to 20)
#    0.000    2.000    0.000    5.000    0.000   17.333 
#    0.000    0.000    0.000    0.000    0.000    7.000 
#    0.000    5.333    0.000    0.333    0.000    0.000 
#
# Total GULP energy -66937.254581 kJ/mol
# GULP energy per Si atom -5578.104548 kJ/mol
# Density = 2.036898 g / cm^3
# Si number density = 20.415446 Si / 1000 Ang^3
#
#
#
# Elastic Constant Matrix: (Units=GPa)
#
#
# Indices 1 2 3 4 5 6 
#
# 1 64.1254 31.3639 28.7890 0.0000 0.0000 0.0000
# 2 31.3639 84.5558 36.1581 0.0000 0.0000 0.0000
# 3 28.7890 36.1581 133.2340 0.0000 0.0000 0.0000
# 4 0.0000 0.0000 0.0000 35.6917 0.0000 0.0000
# 5 0.0000 0.0000 0.0000 0.0000 15.2183 0.0000
# 6 0.0000 0.0000 0.0000 0.0000 0.0000 16.5578
#
#
#
# Elastic Compliance Matrix: (Units=1/GPa)
#
#
# Indices 1 2 3 4 5 6 
#
# 1 0.019808 -0.006241 -0.002586 0.000000 0.000000 0.000000
# 2 -0.006241 0.015346 -0.002816 0.000000 0.000000 0.000000
# 3 -0.002586 -0.002816 0.008829 0.000000 0.000000 0.000000
# 4 0.000000 0.000000 0.000000 0.028018 0.000000 0.000000
# 5 0.000000 0.000000 0.000000 0.000000 0.065711 0.000000
# 6 0.000000 0.000000 0.000000 0.000000 0.000000 0.060394
#
#
# Mechanical properties :
#
#
# Convention : Reuss Voigt Hill
#
# Bulk Modulus (GPa) = 48.32026 52.72634 50.52330
# Shear Modulus (GPa) = 21.90185 25.86718 23.88451
#
# Velocity S-wave (km/s) = 3.27893 3.56341 3.42413
# Velocity P-wave (km/s) = 6.16888 6.54319 6.35879
#
# Compressibility (1/GPa) = 0.02069525
#
# Stress axis : x y z
#
# Youngs Moduli (GPa) = 50.48402 65.16434 113.26737
#
# Poissons Ratio (x) = 0.40672 0.29294
# Poissons Ratio (y) = 0.31509 0.31896
# Poissons Ratio (z) = 0.13057 0.18351
#
# Static dielectric constant tensor:
#      x y z
#    x 1.701260 0.000000 0.000000 
#    y 0.000000 1.863980 0.000000 
#    z 0.000000 0.000000 1.764020 
# 
# From -- ./inp_files/1736.got.cif
#   From: 2010.05.17/outbox.cif.g08.bks.cpg/sg24_1_cif.got.tgz:1736.got - 2010.06.04 00:33:39.
