data_PCOD9333250
_publ_section_title
;
Structure prediction by ZEFSAII (Michael W. Deem and Ramdas Pophale) SiO2 
 PCOD9333250
Probable space group: I 21 21 21
;
_chemical_formula_sum "Si O2"
_cell_formula_units_Z 52
_cell_length_a 5.392428
_cell_length_b 23.059646
_cell_length_c 16.885482
_cell_angle_alpha 90.000000
_cell_angle_beta 90.000000
_cell_angle_gamma 90.000000
_cell_volume 2099.667148
_symmetry_space_group_name_H-M "I 21 21 21"
_symmetry_group_IT_number 24
_symmetry_cell_setting 'orthorhombic'
loop_
_space_group_symop_operation_xyz
x,y,z
-x,1/2-y,z
x,-y,1/2-z
1/2-x,y,-z
1/2+x,1/2+y,1/2+z
1/2-x,-y,1/2+z
1/2+x,1/2-y,-z
-x,1/2+y,1/2-z
loop_
_atom_site_type_symbol
_atom_site_label
_atom_site_fract_x
_atom_site_fract_y
_atom_site_fract_z
Si Si1 0.089149 0.311644 0.630731
Si Si2 0.055692 0.881186 0.575019
Si Si3 0.500000 0.750000 0.450116
Si Si4 0.776224 0.643500 0.269633
Si Si5 0.995049 0.936513 0.914130
Si Si6 0.501585 0.952053 0.816337
Si Si7 0.250000 0.473554 0.000000
Si Si8 0.500000 0.750000 0.763312
O O1 0.066433 0.367738 0.573086
O O2 0.330167 0.287339 0.676857
O O3 0.000000 0.250000 0.593663
O O4 0.918384 0.336973 0.702234
O O5 0.250000 0.887075 0.500000
O O6 0.967726 0.814605 0.586206
O O7 0.183955 0.894415 0.658109
O O8 0.828770 0.925631 0.565090
O O9 0.250000 0.757284 0.500000
O O10 0.997551 0.608471 0.229937
O O11 0.866670 0.706197 0.295653
O O12 0.761578 0.957275 0.860814
O O13 0.253492 0.946903 0.869712
O O14 0.970582 0.979440 0.989042
O O15 0.472600 0.000000 0.750000
#
# Coordination Sequence:
#
# PCOD9333250 Si02
#       8
#     8   8   4   8   8   8   4   4
#     4   9  20  40  67 101 135 169 223 292 351 414
#     4  11  26  43  62  94 132 191 233 284 333 414
#     4  10  22  45  60  86 130 175 232 276 320 384
#     4  10  22  37  64  97 135 172 232 278 357 399
#     4  11  25  44  69 100 138 181 230 285 353 422
#     4  11  23  43  67 101 134 176 229 293 340 413
#     4  12  28  46  70  90 142 190 236 282 358 422
#     4  10  18  37  66 100 126 175 214 300 352 410
#
# _framework density 24.765830999999999
#
# number of rings (size 3 to 8) (size 9 to 14) (size 15 to 20)
#    0.000    1.538    2.308    1.385    7.538    4.923 
#    0.000    0.000    1.692    0.000    0.000    0.000 
#    0.000    0.000    0.000    0.000    0.000    0.000 
#
# Total GULP energy -144792.927317 kJ/mol
# GULP energy per Si atom -5568.958743 kJ/mol
# Density = 2.470946 g / cm^3
# Si number density = 24.765831 Si / 1000 Ang^3
#
#
#
# Elastic Constant Matrix: (Units=GPa)
#
#
# Indices 1 2 3 4 5 6 
#
# 1 91.5974 44.4927 22.7242 0.0000 0.0000 0.0000
# 2 44.4927 203.8127 35.0761 0.0000 0.0000 0.0000
# 3 22.7242 35.0761 49.1751 0.0000 0.0000 0.0000
# 4 0.0000 0.0000 0.0000 0.7645 0.0000 0.0000
# 5 0.0000 0.0000 0.0000 0.0000 22.2510 0.0000
# 6 0.0000 0.0000 0.0000 0.0000 0.0000 43.2560
#
#
#
# Elastic Compliance Matrix: (Units=1/GPa)
#
#
# Indices 1 2 3 4 5 6 
#
# 1 0.013051 -0.002065 -0.004558 0.000000 0.000000 0.000000
# 2 -0.002065 0.005920 -0.003268 0.000000 0.000000 0.000000
# 3 -0.004558 -0.003268 0.024773 -0.000001 0.000000 0.000000
# 4 0.000000 0.000000 -0.000001 1.308066 0.000000 0.000000
# 5 0.000000 0.000000 0.000000 0.000000 0.044942 0.000000
# 6 0.000000 0.000000 0.000000 0.000000 0.000000 0.023118
#
#
# Mechanical properties :
#
#
# Convention : Reuss Voigt Hill
#
# Bulk Modulus (GPa) = 41.73389 61.01902 51.37646
# Shear Modulus (GPa) = 3.45390 29.40711 16.43050
#
# Velocity S-wave (km/s) = 1.18222 3.44961 2.57852
# Velocity P-wave (km/s) = 4.33030 6.36854 5.44563
#
# Compressibility (1/GPa) = 0.02396134
#
# Stress axis : x y z
#
# Youngs Moduli (GPa) = 76.62206 168.92884 40.36615
#
# Poissons Ratio (x) = 0.34877 0.18400
# Poissons Ratio (y) = 0.15819 0.13193
# Poissons Ratio (z) = 0.34927 0.55212
#
# Static dielectric constant tensor:
#      x y z
#    x 1.982810 0.000000 0.000000 
#    y 0.000000 2.035920 0.000000 
#    z 0.000000 0.000000 2.067750 
# 
# From -- ./inp_files/32215.got.cif
#   From: 2010.05.17/outbox.cif.g08.bks.cpg/sg24_17_cif.got.tgz:32215.got - 2010.06.04 00:33:39.
