data_PCOD9333652
_publ_section_title
;
Structure prediction by ZEFSAII (Michael W. Deem and Ramdas Pophale) SiO2 
 PCOD9333652
Probable space group: I 21 21 21
;
_chemical_formula_sum "Si O2"
_cell_formula_units_Z 36
_cell_length_a 8.423929
_cell_length_b 14.379353
_cell_length_c 15.197042
_cell_angle_alpha 90.000000
_cell_angle_beta 90.000000
_cell_angle_gamma 90.000000
_cell_volume 1840.827556
_symmetry_space_group_name_H-M "I 21 21 21"
_symmetry_group_IT_number 24
_symmetry_cell_setting 'orthorhombic'
loop_
_space_group_symop_operation_xyz
x,y,z
-x,1/2-y,z
x,-y,1/2-z
1/2-x,y,-z
1/2+x,1/2+y,1/2+z
1/2-x,-y,1/2+z
1/2+x,1/2-y,-z
-x,1/2+y,1/2-z
loop_
_atom_site_type_symbol
_atom_site_label
_atom_site_fract_x
_atom_site_fract_y
_atom_site_fract_z
Si Si1 0.131228 0.180241 0.744315
Si Si2 0.136894 0.309406 0.357666
Si Si3 0.061903 0.500000 0.750000
Si Si4 0.197418 0.514794 0.404907
Si Si5 0.460290 0.151103 0.828782
O O1 0.218704 0.241650 0.668950
O O2 0.274268 0.150082 0.808407
O O3 0.000000 0.250000 0.783853
O O4 0.043258 0.086072 0.716618
O O5 0.182428 0.403440 0.404958
O O6 0.054229 0.342285 0.265134
O O7 0.000000 0.250000 0.404672
O O8 0.174087 0.535695 0.671200
O O9 0.250000 0.548661 0.500000
O O10 0.033341 0.563885 0.378058
O O11 0.500000 0.250000 0.873720
#
# Coordination Sequence:
#
# PCOD9333652 Si02
#       5
#     8   8   4   8   8
#     4  10  19  35  66  95 117 168 212 272 327 376
#     4   9  19  38  63  89 121 171 213 256 326 393
#     4  12  22  38  64  88 128 162 220 270 316 392
#     4  12  23  41  64  94 129 174 211 267 329 397
#     4   9  19  38  67  88 119 170 215 257 323 384
#
# _framework density 19.556421
#
# number of rings (size 3 to 8) (size 9 to 14) (size 15 to 20)
#    0.000    2.222    4.444    1.333    6.222    0.000 
#    4.000    6.667    0.000    0.000    0.000    0.000 
#    0.000    0.000    0.000    0.000    0.000    0.000 
#
# Total GULP energy -100341.489464 kJ/mol
# GULP energy per Si atom -5574.527192 kJ/mol
# Density = 1.951191 g / cm^3
# Si number density = 19.556421 Si / 1000 Ang^3
#
#
#
# Elastic Constant Matrix: (Units=GPa)
#
#
# Indices 1 2 3 4 5 6 
#
# 1 128.0026 47.7559 23.0328 0.0000 0.0000 0.0000
# 2 47.7559 98.9490 4.8440 0.0000 0.0000 0.0000
# 3 23.0328 4.8440 50.1887 0.0000 0.0000 0.0000
# 4 0.0000 0.0000 0.0000 2.9425 0.0000 0.0000
# 5 0.0000 0.0000 0.0000 0.0000 6.0704 0.0000
# 6 0.0000 0.0000 0.0000 0.0000 0.0000 50.3616
#
#
#
# Elastic Compliance Matrix: (Units=1/GPa)
#
#
# Indices 1 2 3 4 5 6 
#
# 1 0.010376 -0.004797 -0.004299 0.000000 0.000000 0.000000
# 2 -0.004797 0.012372 0.001007 0.000000 0.000000 0.000000
# 3 -0.004299 0.001007 0.021800 0.000000 0.000000 0.000000
# 4 0.000000 0.000000 0.000000 0.339844 0.000000 0.000000
# 5 0.000000 0.000000 0.000000 0.000000 0.164734 0.000000
# 6 0.000000 0.000000 0.000000 0.000000 0.000000 0.019856
#
#
# Mechanical properties :
#
#
# Convention : Reuss Voigt Hill
#
# Bulk Modulus (GPa) = 35.24679 47.60062 41.42371
# Shear Modulus (GPa) = 8.40878 25.30875 16.85877
#
# Velocity S-wave (km/s) = 2.07583 3.60132 2.93927
# Velocity P-wave (km/s) = 4.87931 6.45644 5.72247
#
# Compressibility (1/GPa) = 0.02837138
#
# Stress axis : x y z
#
# Youngs Moduli (GPa) = 96.38025 80.82668 45.87092
#
# Poissons Ratio (x) = 0.38774 0.19718
# Poissons Ratio (y) = 0.46235 -0.04621
# Poissons Ratio (z) = 0.41430 -0.08143
#
# Static dielectric constant tensor:
#      x y z
#    x 1.712980 0.000000 0.000000 
#    y 0.000000 1.727910 0.000000 
#    z 0.000000 0.000000 1.682370 
# 
# From -- ./inp_files/24464.got.cif
#   From: 2010.05.17/outbox.cif.g08.bks.cpg/sg24_13_cif.got.tgz:24464.got - 2010.06.04 00:33:39.
