data_PCOD9333090
_publ_section_title
;
Structure prediction by ZEFSAII (Michael W. Deem and Ramdas Pophale) SiO2 
 PCOD9333090
Probable space group: I 21 21 21
;
_chemical_formula_sum "Si O2"
_cell_formula_units_Z 60
_cell_length_a 12.414058
_cell_length_b 21.016896
_cell_length_c 12.208940
_cell_angle_alpha 90.000000
_cell_angle_beta 90.000000
_cell_angle_gamma 90.000000
_cell_volume 3185.373075
_symmetry_space_group_name_H-M "I 21 21 21"
_symmetry_group_IT_number 24
_symmetry_cell_setting 'orthorhombic'
loop_
_space_group_symop_operation_xyz
x,y,z
-x,1/2-y,z
x,-y,1/2-z
1/2-x,y,-z
1/2+x,1/2+y,1/2+z
1/2-x,-y,1/2+z
1/2+x,1/2-y,-z
-x,1/2+y,1/2-z
loop_
_atom_site_type_symbol
_atom_site_label
_atom_site_fract_x
_atom_site_fract_y
_atom_site_fract_z
Si Si1 0.536114 0.318021 0.589068
Si Si2 0.560304 0.829825 0.666727
Si Si3 0.597267 0.791439 0.271768
Si Si4 0.660096 0.693833 0.594642
Si Si5 0.477212 0.107151 0.381666
Si Si6 0.086967 0.500000 0.750000
Si Si7 0.268770 0.602402 0.374710
Si Si8 0.767092 0.323884 0.682678
O O1 0.500000 0.250000 0.540559
O O2 0.484594 0.322094 0.709919
O O3 0.503972 0.374907 0.508217
O O4 0.664710 0.317168 0.604517
O O5 0.621301 0.765049 0.629284
O O6 0.457559 0.839812 0.586201
O O7 0.649959 0.883891 0.670867
O O8 0.500000 0.750000 0.322276
O O9 0.544668 0.841586 0.189123
O O10 0.663641 0.832014 0.359342
O O11 0.672105 0.743090 0.203753
O O12 0.750000 0.695107 0.500000
O O13 0.719086 0.661383 0.697654
O O14 0.514586 0.039295 0.336607
O O15 0.353347 0.124592 0.356034
O O16 0.163657 0.549224 0.687091
O O17 0.250000 0.586550 0.500000
#
# Coordination Sequence:
#
# PCOD9333090 Si02
#       8
#     8   8   8   8   8   4   8   8
#     4  11  18  34  59  92 131 152 185 245 321 379
#     4  10  20  35  54  91 127 153 193 245 290 393
#     4   9  18  33  52  89 124 145 188 237 304 388
#     4  10  19  33  54  86 130 163 180 230 308 371
#     4  10  22  36  58  80 114 167 204 258 303 349
#     4  10  26  46  56  80 118 154 232 266 294 358
#     4  11  22  40  61  83 113 161 201 253 309 357
#     4  10  18  33  55  92 124 152 197 239 303 394
#
# _framework density 18.836099000000001
#
# number of rings (size 3 to 8) (size 9 to 14) (size 15 to 20)
#    0.000    1.867    4.000    2.000    0.000    4.267 
#    2.400    2.000    0.000   11.200    0.000    1.867 
#    0.000    0.000    0.000    0.000    0.000    0.000 
#
# Total GULP energy -167310.746572 kJ/mol
# GULP energy per Si atom -5577.024886 kJ/mol
# Density = 1.879323 g / cm^3
# Si number density = 18.836099 Si / 1000 Ang^3
#
#
#
# Elastic Constant Matrix: (Units=GPa)
#
#
# Indices 1 2 3 4 5 6 
#
# 1 137.1715 55.5171 48.4886 0.0001 0.0000 0.0000
# 2 55.5171 84.4441 32.1776 0.0002 -0.0001 0.0000
# 3 48.4886 32.1776 88.0550 0.0003 -0.0001 0.0000
# 4 0.0001 0.0002 0.0003 19.4340 -0.0001 0.0000
# 5 0.0000 -0.0001 -0.0001 -0.0001 30.0320 0.0000
# 6 0.0000 0.0000 0.0000 0.0000 0.0000 24.7929
#
#
#
# Elastic Compliance Matrix: (Units=1/GPa)
#
#
# Indices 1 2 3 4 5 6 
#
# 1 0.011011 -0.005726 -0.003971 0.000000 0.000000 0.000000
# 2 -0.005726 0.016736 -0.002962 0.000000 0.000000 0.000000
# 3 -0.003971 -0.002962 0.014626 0.000000 0.000000 0.000000
# 4 0.000000 0.000000 0.000000 0.051456 0.000000 0.000000
# 5 0.000000 0.000000 0.000000 0.000000 0.033298 0.000000
# 6 0.000000 0.000000 0.000000 0.000000 0.000000 0.040334
#
#
# Mechanical properties :
#
#
# Convention : Reuss Voigt Hill
#
# Bulk Modulus (GPa) = 58.63913 64.67081 61.65497
# Shear Modulus (GPa) = 25.19337 26.41760 25.80549
#
# Velocity S-wave (km/s) = 3.66116 3.74906 3.70537
# Velocity P-wave (km/s) = 7.00507 7.29031 7.14911
#
# Compressibility (1/GPa) = 0.01705346
#
# Stress axis : x y z
#
# Youngs Moduli (GPa) = 90.81481 59.75269 68.37218
#
# Poissons Ratio (x) = 0.34215 0.27151
# Poissons Ratio (y) = 0.52002 0.20255
# Poissons Ratio (z) = 0.36063 0.17701
#
# Static dielectric constant tensor:
#      x y z
#    x 1.702350 0.000000 0.000000 
#    y 0.000000 1.644850 0.000000 
#    z 0.000000 0.000000 1.677140 
# 
# From -- ./inp_files/19988.got.cif
#   From: 2010.05.17/outbox.cif.g08.bks.cpg/sg24_10_cif.got.tgz:19988.got - 2010.06.04 00:33:39.
