data_PCOD9333770
_publ_section_title
;
Structure prediction by ZEFSAII (Michael W. Deem and Ramdas Pophale) SiO2 
 PCOD9333770
Probable space group: I 21 21 21
;
_chemical_formula_sum "Si O2"
_cell_formula_units_Z 48
_cell_length_a 10.656092
_cell_length_b 14.248265
_cell_length_c 16.052271
_cell_angle_alpha 90.000000
_cell_angle_beta 90.000000
_cell_angle_gamma 90.000000
_cell_volume 2437.229512
_symmetry_space_group_name_H-M "I 21 21 21"
_symmetry_group_IT_number 24
_symmetry_cell_setting 'orthorhombic'
loop_
_space_group_symop_operation_xyz
x,y,z
-x,1/2-y,z
x,-y,1/2-z
1/2-x,y,-z
1/2+x,1/2+y,1/2+z
1/2-x,-y,1/2+z
1/2+x,1/2-y,-z
-x,1/2+y,1/2-z
loop_
_atom_site_type_symbol
_atom_site_label
_atom_site_fract_x
_atom_site_fract_y
_atom_site_fract_z
Si Si1 0.065532 0.350101 0.765785
Si Si2 0.042586 0.480529 0.433815
Si Si3 0.619694 0.198580 0.637795
Si Si4 0.222968 0.114504 0.402495
Si Si5 0.659099 0.900583 0.702443
Si Si6 0.018090 0.019673 0.626996
O O1 0.205764 0.351767 0.803097
O O2 0.000000 0.250000 0.761544
O O3 0.064424 0.402591 0.676095
O O4 0.991404 0.422105 0.824828
O O5 0.139643 0.395352 0.414931
O O6 0.090411 0.570730 0.382510
O O7 0.908240 0.442947 0.397380
O O8 0.024659 0.492626 0.531822
O O9 0.500000 0.250000 0.597546
O O10 0.718419 0.282609 0.639256
O O11 0.586631 0.162740 0.730323
O O12 0.250000 0.131136 0.500000
O O13 0.339667 0.056025 0.369528
O O14 0.678394 0.000000 0.750000
#
# Coordination Sequence:
#
# PCOD9333770 Si02
#       6
#     8   8   8   8   8   8
#     4  11  23  40  59  86 121 158 208 255 305 380
#     4   9  20  36  62  84 124 159 197 254 306 360
#     4   9  18  33  55  92 119 149 194 243 302 364
#     4   9  18  36  59  91 122 151 200 253 315 369
#     4  10  19  38  55  85 121 152 197 250 298 367
#     4  10  21  40  61  88 120 161 204 252 319 363
#
# _framework density 19.694493000000001
#
# number of rings (size 3 to 8) (size 9 to 14) (size 15 to 20)
#    0.000    2.333    1.667    1.000    0.000    5.333 
#   18.000    0.833    7.333    0.000    0.000    0.000 
#    0.000    0.000    0.000    0.000    0.000    0.000 
#
# Total GULP energy -133782.238251 kJ/mol
# GULP energy per Si atom -5574.259927 kJ/mol
# Density = 1.964967 g / cm^3
# Si number density = 19.694493 Si / 1000 Ang^3
#
#
#
# Elastic Constant Matrix: (Units=GPa)
#
#
# Indices 1 2 3 4 5 6 
#
# 1 71.6319 24.7904 38.2865 0.0000 0.0000 0.0000
# 2 24.7904 78.9693 36.9333 0.0000 0.0000 0.0000
# 3 38.2865 36.9333 104.9540 0.0000 0.0000 0.0000
# 4 0.0000 0.0000 0.0000 20.5577 0.0000 0.0000
# 5 0.0000 0.0000 0.0000 0.0000 26.1213 0.0000
# 6 0.0000 0.0000 0.0000 0.0000 0.0000 32.3693
#
#
#
# Elastic Compliance Matrix: (Units=1/GPa)
#
#
# Indices 1 2 3 4 5 6 
#
# 1 0.017946 -0.003079 -0.005463 0.000000 0.000000 0.000000
# 2 -0.003079 0.015686 -0.004397 0.000000 0.000000 0.000000
# 3 -0.005463 -0.004397 0.013068 0.000000 0.000000 0.000000
# 4 0.000000 0.000000 0.000000 0.048644 0.000000 0.000000
# 5 0.000000 0.000000 0.000000 0.000000 0.038283 0.000000
# 6 0.000000 0.000000 0.000000 0.000000 0.000000 0.030893
#
#
# Mechanical properties :
#
#
# Convention : Reuss Voigt Hill
#
# Bulk Modulus (GPa) = 48.02441 50.61951 49.32196
# Shear Modulus (GPa) = 25.33728 26.17933 25.75831
#
# Velocity S-wave (km/s) = 3.59069 3.64987 3.62040
# Velocity P-wave (km/s) = 6.45201 6.59699 6.52490
#
# Compressibility (1/GPa) = 0.02082275
#
# Stress axis : x y z
#
# Youngs Moduli (GPa) = 55.72374 63.75137 76.52197
#
# Poissons Ratio (x) = 0.19626 0.41805
# Poissons Ratio (y) = 0.17155 0.33646
# Poissons Ratio (z) = 0.30443 0.28031
#
# Static dielectric constant tensor:
#      x y z
#    x 1.789240 0.000000 0.000000 
#    y 0.000000 1.689090 0.000000 
#    z 0.000000 0.000000 1.693650 
# 
# From -- ./inp_files/20742.got.cif
#   From: 2010.05.17/outbox.cif.g08.bks.cpg/sg24_11_cif.got.tgz:20742.got - 2010.06.04 00:33:39.
