data_PCOD9333302
_publ_section_title
;
Structure prediction by ZEFSAII (Michael W. Deem and Ramdas Pophale) SiO2 
 PCOD9333302
Probable space group: I 21 21 21
;
_chemical_formula_sum "Si O2"
_cell_formula_units_Z 48
_cell_length_a 15.227642
_cell_length_b 6.052508
_cell_length_c 23.152186
_cell_angle_alpha 90.000000
_cell_angle_beta 90.000000
_cell_angle_gamma 90.000000
_cell_volume 2133.831063
_symmetry_space_group_name_H-M "I 21 21 21"
_symmetry_group_IT_number 24
_symmetry_cell_setting 'orthorhombic'
loop_
_space_group_symop_operation_xyz
x,y,z
-x,1/2-y,z
x,-y,1/2-z
1/2-x,y,-z
1/2+x,1/2+y,1/2+z
1/2-x,-y,1/2+z
1/2+x,1/2-y,-z
-x,1/2+y,1/2-z
loop_
_atom_site_type_symbol
_atom_site_label
_atom_site_fract_x
_atom_site_fract_y
_atom_site_fract_z
Si Si1 0.057942 0.551003 0.813895
Si Si2 0.351461 0.459444 0.656884
Si Si3 0.000000 0.750000 0.364652
Si Si4 0.585805 0.635773 0.942909
Si Si5 0.222712 0.848336 0.803822
Si Si6 0.250000 0.898302 0.500000
Si Si7 0.313829 0.249602 0.119118
O O1 0.016911 0.500000 0.750000
O O2 0.148513 0.667985 0.798493
O O3 0.094624 0.351299 0.854996
O O4 0.000000 0.750000 0.841376
O O5 0.432129 0.611154 0.672906
O O6 0.379871 0.327930 0.599413
O O7 0.316697 0.267050 0.697406
O O8 0.267539 0.611840 0.644554
O O9 0.947665 0.575501 0.405302
O O10 0.500000 0.750000 0.972650
O O11 0.668847 0.548601 0.978341
O O12 0.213634 0.000000 0.750000
O O13 0.201610 0.998665 0.859389
O O14 0.294894 0.753486 0.449179
#
# Coordination Sequence:
#
# PCOD9333302 Si02
#       7
#     8   8   4   8   8   4   8
#     4  11  24  42  72 102 146 194 241 306 367 429
#     4  10  20  38  67  97 125 178 226 284 346 425
#     4  10  18  40  62 102 124 170 236 284 352 424
#     4  10  22  40  69  99 130 185 239 286 358 428
#     4  11  21  40  65 105 133 181 239 285 350 435
#     4  12  22  46  72  96 154 192 238 310 362 434
#     4  11  24  42  68 105 135 192 241 286 367 438
#
# _framework density 22.494751000000001
#
# number of rings (size 3 to 8) (size 9 to 14) (size 15 to 20)
#    0.000    1.333    5.000    0.500    0.000    0.667 
#    0.000    2.500    0.000    0.000   97.500    0.000 
#    0.000    0.000    0.000    0.000    0.000    0.000 
#
# Total GULP energy -133878.730166 kJ/mol
# GULP energy per Si atom -5578.280424 kJ/mol
# Density = 2.244355 g / cm^3
# Si number density = 22.494751 Si / 1000 Ang^3
#
#
#
# Elastic Constant Matrix: (Units=GPa)
#
#
# Indices 1 2 3 4 5 6 
#
# 1 135.5587 40.1089 14.5059 0.0000 0.0000 0.0000
# 2 40.1089 86.2065 4.6719 0.0000 0.0000 0.0000
# 3 14.5059 4.6719 51.7932 0.0000 0.0000 0.0000
# 4 0.0000 0.0000 0.0000 19.0946 0.0000 0.0000
# 5 0.0000 0.0000 0.0000 0.0000 27.8679 0.0000
# 6 0.0000 0.0000 0.0000 0.0000 0.0000 56.2988
#
#
#
# Elastic Compliance Matrix: (Units=1/GPa)
#
#
# Indices 1 2 3 4 5 6 
#
# 1 0.008776 -0.003969 -0.002100 0.000000 0.000000 0.000000
# 2 -0.003969 0.013452 -0.000102 0.000000 0.000000 0.000000
# 3 -0.002100 -0.000102 0.019905 0.000000 0.000000 0.000000
# 4 0.000000 0.000000 0.000000 0.052371 0.000000 0.000000
# 5 0.000000 0.000000 0.000000 0.000000 0.035884 0.000000
# 6 0.000000 0.000000 0.000000 0.000000 0.000000 0.017762
#
#
# Mechanical properties :
#
#
# Convention : Reuss Voigt Hill
#
# Bulk Modulus (GPa) = 33.56688 43.57019 38.56853
# Shear Modulus (GPa) = 29.33887 34.93705 32.13796
#
# Velocity S-wave (km/s) = 3.61536 3.94524 3.78390
# Velocity P-wave (km/s) = 5.69054 6.33753 6.02273
#
# Compressibility (1/GPa) = 0.02979127
#
# Stress axis : x y z
#
# Youngs Moduli (GPa) = 113.94670 74.33631 50.23906
#
# Poissons Ratio (x) = 0.29507 0.10550
# Poissons Ratio (y) = 0.45230 0.00511
# Poissons Ratio (z) = 0.23927 0.00756
#
# Static dielectric constant tensor:
#      x y z
#    x 1.867950 0.000000 0.000000 
#    y 0.000000 2.022970 0.000000 
#    z 0.000000 0.000000 1.927410 
# 
# From -- ./inp_files/37388.got.cif
#   From: 2010.05.17/outbox.cif.g08.bks.cpg/sg24_19_cif.got.tgz:37388.got - 2010.06.04 00:33:39.
