data_PCOD9333086
_publ_section_title
;
Structure prediction by ZEFSAII (Michael W. Deem and Ramdas Pophale) SiO2 
 PCOD9333086
Probable space group: I 21 21 21
;
_chemical_formula_sum "Si O2"
_cell_formula_units_Z 52
_cell_length_a 8.137434
_cell_length_b 19.731660
_cell_length_c 14.602387
_cell_angle_alpha 90.000000
_cell_angle_beta 90.000000
_cell_angle_gamma 90.000000
_cell_volume 2344.633451
_symmetry_space_group_name_H-M "I 21 21 21"
_symmetry_group_IT_number 24
_symmetry_cell_setting 'orthorhombic'
loop_
_space_group_symop_operation_xyz
x,y,z
-x,1/2-y,z
x,-y,1/2-z
1/2-x,y,-z
1/2+x,1/2+y,1/2+z
1/2-x,-y,1/2+z
1/2+x,1/2-y,-z
-x,1/2+y,1/2-z
loop_
_atom_site_type_symbol
_atom_site_label
_atom_site_fract_x
_atom_site_fract_y
_atom_site_fract_z
Si Si1 0.000000 0.750000 0.250905
Si Si2 0.610003 0.507277 0.640093
Si Si3 0.774288 0.942997 0.333391
Si Si4 0.345148 0.706846 0.276795
Si Si5 0.036458 0.995972 0.861042
Si Si6 0.077504 0.150308 0.398859
Si Si7 0.964529 0.337844 0.599137
O O1 0.179403 0.749916 0.295432
O O2 0.989307 0.816386 0.186733
O O3 0.628034 0.500000 0.750000
O O4 0.456331 0.556192 0.625091
O O5 0.791474 0.527236 0.606707
O O6 0.574374 0.431193 0.604301
O O7 0.703973 0.869301 0.307346
O O8 0.629989 0.971736 0.396722
O O9 0.788057 0.000000 0.250000
O O10 0.500000 0.750000 0.316803
O O11 0.410619 0.693897 0.172047
O O12 0.034513 0.000000 0.750000
O O13 0.030877 0.917862 0.884969
O O14 0.997372 0.174522 0.493218
O O15 0.267609 0.174876 0.391448
#
# Coordination Sequence:
#
# PCOD9333086 Si02
#       7
#     4   8   8   8   8   8   8
#     4  12  24  34  48  70 106 158 196 216 262 312
#     4   9  18  32  51  72  98 130 180 227 273 314
#     4  10  18  33  55  74  93 139 187 226 280 311
#     4  12  24  37  54  75 112 151 196 229 265 325
#     4   9  16  31  55  73  95 135 178 223 284 301
#     4  10  22  34  52  77 106 153 187 220 271 323
#     4  10  20  37  52  75 111 148 187 227 262 329
#
# _framework density 22.178305000000002
#
# number of rings (size 3 to 8) (size 9 to 14) (size 15 to 20)
#    0.000    1.846    4.615    1.846    1.077    1.846 
#    0.000    0.000    0.000    0.000    0.000    0.000 
#    0.000    0.000   44.462    0.000    2.462    0.000 
#
# Total GULP energy -144845.058539 kJ/mol
# GULP energy per Si atom -5570.963790 kJ/mol
# Density = 2.212783 g / cm^3
# Si number density = 22.178305 Si / 1000 Ang^3
#
#
#
# Elastic Constant Matrix: (Units=GPa)
#
#
# Indices 1 2 3 4 5 6 
#
# 1 192.8272 30.0915 -4.5615 0.0000 0.0000 0.0000
# 2 30.0915 79.9153 3.3000 0.0000 0.0000 0.0000
# 3 -4.5615 3.3000 23.0742 0.0000 0.0000 0.0000
# 4 0.0000 0.0000 0.0000 15.7508 0.0000 0.0000
# 5 0.0000 0.0000 0.0000 0.0000 2.7285 0.0000
# 6 0.0000 0.0000 0.0000 0.0000 0.0000 37.1283
#
#
#
# Elastic Compliance Matrix: (Units=1/GPa)
#
#
# Indices 1 2 3 4 5 6 
#
# 1 0.005555 -0.002150 0.001406 0.000000 0.000000 0.000000
# 2 -0.002150 0.013419 -0.002344 0.000000 0.000000 0.000000
# 3 0.001406 -0.002344 0.043952 0.000000 0.000000 0.000000
# 4 0.000000 0.000000 0.000000 0.063489 0.000000 0.000000
# 5 0.000000 0.000000 0.000000 0.000000 0.366501 0.000000
# 6 0.000000 0.000000 0.000000 0.000000 0.000000 0.026934
#
#
# Mechanical properties :
#
#
# Convention : Reuss Voigt Hill
#
# Bulk Modulus (GPa) = 17.62137 39.27519 28.44828
# Shear Modulus (GPa) = 9.17529 28.92063 19.04796
#
# Velocity S-wave (km/s) = 2.03618 3.61502 2.93380
# Velocity P-wave (km/s) = 3.67296 5.93058 4.93267
#
# Compressibility (1/GPa) = 0.05674927
#
# Stress axis : x y z
#
# Youngs Moduli (GPa) = 180.02779 74.51861 22.75230
#
# Poissons Ratio (x) = 0.16019 -0.03198
# Poissons Ratio (y) = 0.38699 0.05333
# Poissons Ratio (z) = -0.25303 0.17468
#
# Static dielectric constant tensor:
#      x y z
#    x 1.906180 0.000000 0.000000 
#    y 0.000000 1.860700 0.000000 
#    z 0.000000 0.000000 1.833950 
# 
# From -- ./inp_files/29643.got.cif
#   From: 2010.05.17/outbox.cif.g08.bks.cpg/sg24_15_cif.got.tgz:29643.got - 2010.06.04 00:33:39.
