data_PCOD9333722
_publ_section_title
;
Structure prediction by ZEFSAII (Michael W. Deem and Ramdas Pophale) SiO2 
 PCOD9333722
Probable space group: I 21 21 21
;
_chemical_formula_sum "Si O2"
_cell_formula_units_Z 52
_cell_length_a 24.406071
_cell_length_b 8.648598
_cell_length_c 12.963747
_cell_angle_alpha 90.000000
_cell_angle_beta 90.000000
_cell_angle_gamma 90.000000
_cell_volume 2736.365637
_symmetry_space_group_name_H-M "I 21 21 21"
_symmetry_group_IT_number 24
_symmetry_cell_setting 'orthorhombic'
loop_
_space_group_symop_operation_xyz
x,y,z
-x,1/2-y,z
x,-y,1/2-z
1/2-x,y,-z
1/2+x,1/2+y,1/2+z
1/2-x,-y,1/2+z
1/2+x,1/2-y,-z
-x,1/2+y,1/2-z
loop_
_atom_site_type_symbol
_atom_site_label
_atom_site_fract_x
_atom_site_fract_y
_atom_site_fract_z
Si Si1 0.420374 0.500000 0.250000
Si Si2 0.696081 0.361188 0.126600
Si Si3 0.265386 0.816197 0.146761
Si Si4 0.578146 0.496471 0.374670
Si Si5 0.750000 0.892104 0.500000
Si Si6 0.000000 0.750000 0.648163
Si Si7 0.873313 0.178170 0.559774
Si Si8 0.671321 0.084934 0.644202
O O1 0.457138 0.647864 0.284417
O O2 0.386281 0.554741 0.149799
O O3 0.737859 0.504775 0.114757
O O4 0.702182 0.312615 0.245076
O O5 0.636667 0.427254 0.106736
O O6 0.707255 0.218325 0.055556
O O7 0.309381 0.732602 0.072290
O O8 0.206522 0.740651 0.164329
O O9 0.570265 0.500000 0.250000
O O10 0.532054 0.615402 0.413656
O O11 0.586219 0.323937 0.418845
O O12 0.717732 0.982601 0.587619
O O13 0.874669 0.115188 0.442933
O O14 0.654718 0.000000 0.750000
#
# Coordination Sequence:
#
# PCOD9333722 Si02
#       8
#     4   8   8   8   4   4   8   8
#     4  12  22  36  62  90 126 146 192 248 336 374
#     4  10  21  35  56  82 119 164 198 244 298 360
#     4  10  19  37  52  77 118 160 203 243 294 353
#     4  11  20  38  56  88 125 160 193 243 318 382
#     4  12  24  32  58  84 116 164 222 252 288 338
#     4  12  22  36  60  96 128 144 188 260 312 416
#     4  11  23  36  57  81 121 171 194 250 312 370
#     4  12  25  37  52  84 124 169 220 255 287 357
#
# _framework density 19.003308000000001
#
# number of rings (size 3 to 8) (size 9 to 14) (size 15 to 20)
#    0.000    0.923    8.462    0.000    9.692    0.000 
#    0.000    0.000    0.000    0.000    0.000    3.231 
#    0.000    0.000    0.000    0.000    0.000    0.000 
#
# Total GULP energy -145021.031388 kJ/mol
# GULP energy per Si atom -5577.731976 kJ/mol
# Density = 1.896006 g / cm^3
# Si number density = 19.003308 Si / 1000 Ang^3
#
#
#
# Elastic Constant Matrix: (Units=GPa)
#
#
# Indices 1 2 3 4 5 6 
#
# 1 38.1954 34.4758 18.2691 0.0000 0.0000 0.0000
# 2 34.4758 87.0231 39.5995 0.0000 0.0000 0.0000
# 3 18.2691 39.5995 103.3742 0.0000 0.0000 0.0000
# 4 0.0000 0.0000 0.0000 18.5695 0.0000 0.0000
# 5 0.0000 0.0000 0.0000 0.0000 11.6420 0.0000
# 6 0.0000 0.0000 0.0000 0.0000 0.0000 35.9597
#
#
#
# Elastic Compliance Matrix: (Units=1/GPa)
#
#
# Indices 1 2 3 4 5 6 
#
# 1 0.040885 -0.015635 -0.001236 0.000000 0.000000 0.000000
# 2 -0.015635 0.019896 -0.004858 0.000000 0.000000 0.000000
# 3 -0.001236 -0.004858 0.011753 0.000000 0.000000 0.000000
# 4 0.000000 0.000000 0.000000 0.053852 0.000000 0.000000
# 5 0.000000 0.000000 0.000000 0.000000 0.085896 0.000000
# 6 0.000000 0.000000 0.000000 0.000000 0.000000 0.027809
#
#
# Mechanical properties :
#
#
# Convention : Reuss Voigt Hill
#
# Bulk Modulus (GPa) = 34.39384 45.92019 40.15701
# Shear Modulus (GPa) = 17.05084 22.31747 19.68416
#
# Velocity S-wave (km/s) = 2.99867 3.43067 3.22192
# Velocity P-wave (km/s) = 5.48886 6.31739 5.91764
#
# Compressibility (1/GPa) = 0.02907497
#
# Stress axis : x y z
#
# Youngs Moduli (GPa) = 24.45912 50.26140 85.08313
#
# Poissons Ratio (x) = 0.78582 0.10519
# Poissons Ratio (y) = 0.38241 0.41337
# Poissons Ratio (z) = 0.03024 0.24419
#
# Static dielectric constant tensor:
#      x y z
#    x 1.689650 0.000000 0.000000 
#    y 0.000000 1.735010 0.000000 
#    z 0.000000 0.000000 1.752420 
# 
# From -- ./inp_files/22950.got.cif
#   From: 2010.05.17/outbox.cif.g08.bks.cpg/sg24_12_cif.got.tgz:22950.got - 2010.06.04 00:33:39.
