data_PCOD9333227
_publ_section_title
;
Structure prediction by ZEFSAII (Michael W. Deem and Ramdas Pophale) SiO2 
 PCOD9333227
Probable space group: I 21 21 21
;
_chemical_formula_sum "Si O2"
_cell_formula_units_Z 36
_cell_length_a 11.293631
_cell_length_b 13.156755
_cell_length_c 11.993271
_cell_angle_alpha 90.000000
_cell_angle_beta 90.000000
_cell_angle_gamma 90.000000
_cell_volume 1782.050588
_symmetry_space_group_name_H-M "I 21 21 21"
_symmetry_group_IT_number 24
_symmetry_cell_setting 'orthorhombic'
loop_
_space_group_symop_operation_xyz
x,y,z
-x,1/2-y,z
x,-y,1/2-z
1/2-x,y,-z
1/2+x,1/2+y,1/2+z
1/2-x,-y,1/2+z
1/2+x,1/2-y,-z
-x,1/2+y,1/2-z
loop_
_atom_site_type_symbol
_atom_site_label
_atom_site_fract_x
_atom_site_fract_y
_atom_site_fract_z
Si Si1 0.691659 0.845533 0.379092
Si Si2 0.688778 0.645816 0.655231
Si Si3 0.355523 0.500000 0.750000
Si Si4 0.250000 0.967512 0.000000
Si Si5 0.957316 0.366295 0.382200
Si Si6 0.500000 0.750000 0.485921
O O1 0.750000 0.860275 0.500000
O O2 0.713971 0.732338 0.334469
O O3 0.554391 0.840054 0.410426
O O4 0.766266 0.918092 0.301269
O O5 0.743787 0.544374 0.604727
O O6 0.621893 0.633511 0.770400
O O7 0.594806 0.695038 0.567101
O O8 0.437659 0.444728 0.655513
O O9 0.129626 0.903154 0.018524
O O10 0.000000 0.250000 0.399892
#
# Coordination Sequence:
#
# PCOD9333227 Si02
#       6
#     8   8   4   4   8   4
#     4  10  21  36  67  99 129 167 237 287 339 410
#     4  11  19  40  70  98 125 177 234 274 339 424
#     4  12  22  40  72  96 124 194 232 282 360 420
#     4  12  24  38  68 108 130 182 232 290 352 410
#     4  12  24  43  69  97 139 177 233 290 348 434
#     4  10  18  36  66  98 138 162 226 308 322 396
#
# _framework density 20.201447000000002
#
# number of rings (size 3 to 8) (size 9 to 14) (size 15 to 20)
#    0.000    0.889    8.889    1.333    0.000    0.000 
#    2.000    2.222    2.444    0.000    0.000    0.000 
#    0.000    0.000    0.000    0.000    0.000    0.000 
#
# Total GULP energy -100264.884418 kJ/mol
# GULP energy per Si atom -5570.271357 kJ/mol
# Density = 2.015547 g / cm^3
# Si number density = 20.201447 Si / 1000 Ang^3
#
#
#
# Elastic Constant Matrix: (Units=GPa)
#
#
# Indices 1 2 3 4 5 6 
#
# 1 92.2423 44.0799 42.4075 0.0000 0.0000 0.0000
# 2 44.0799 128.6928 31.0084 0.0000 0.0000 0.0000
# 3 42.4075 31.0084 47.7324 0.0000 0.0000 0.0000
# 4 0.0000 0.0000 0.0000 19.7447 0.0000 0.0000
# 5 0.0000 0.0000 0.0000 0.0000 35.5862 0.0000
# 6 0.0000 0.0000 0.0000 0.0000 0.0000 37.1489
#
#
#
# Elastic Compliance Matrix: (Units=1/GPa)
#
#
# Indices 1 2 3 4 5 6 
#
# 1 0.019213 -0.002926 -0.015169 0.000000 0.000000 0.000000
# 2 -0.002926 0.009658 -0.003675 0.000000 0.000000 0.000000
# 3 -0.015169 -0.003675 0.036814 0.000000 0.000000 0.000000
# 4 0.000000 0.000000 0.000000 0.050647 0.000000 0.000000
# 5 0.000000 0.000000 0.000000 0.000000 0.028101 0.000000
# 6 0.000000 0.000000 0.000000 0.000000 0.000000 0.026919
#
#
# Mechanical properties :
#
#
# Convention : Reuss Voigt Hill
#
# Bulk Modulus (GPa) = 45.15466 55.96213 50.55840
# Shear Modulus (GPa) = 22.49499 28.57406 25.53453
#
# Velocity S-wave (km/s) = 3.34059 3.76501 3.55913
# Velocity P-wave (km/s) = 6.10574 6.83100 6.47853
#
# Compressibility (1/GPa) = 0.02214611
#
# Stress axis : x y z
#
# Youngs Moduli (GPa) = 52.04823 103.54081 27.16367
#
# Poissons Ratio (x) = 0.30295 0.41204
# Poissons Ratio (y) = 0.15229 0.09982
# Poissons Ratio (z) = 0.78951 0.38047
#
# Static dielectric constant tensor:
#      x y z
#    x 1.797390 0.000000 0.000000 
#    y 0.000000 1.785810 0.000000 
#    z 0.000000 0.000000 1.733060 
# 
# From -- ./inp_files/19243.got.cif
#   From: 2010.05.17/outbox.cif.g08.bks.cpg/sg24_10_cif.got.tgz:19243.got - 2010.06.04 00:33:39.
