data_PCOD9333380
_publ_section_title
;
Structure prediction by ZEFSAII (Michael W. Deem and Ramdas Pophale) SiO2 
 PCOD9333380
Probable space group: I 21 21 21
;
_chemical_formula_sum "Si O2"
_cell_formula_units_Z 36
_cell_length_a 5.087392
_cell_length_b 33.063207
_cell_length_c 13.639916
_cell_angle_alpha 90.000000
_cell_angle_beta 90.000000
_cell_angle_gamma 90.000000
_cell_volume 2294.308820
_symmetry_space_group_name_H-M "I 21 21 21"
_symmetry_group_IT_number 24
_symmetry_cell_setting 'orthorhombic'
loop_
_space_group_symop_operation_xyz
x,y,z
-x,1/2-y,z
x,-y,1/2-z
1/2-x,y,-z
1/2+x,1/2+y,1/2+z
1/2-x,-y,1/2+z
1/2+x,1/2-y,-z
-x,1/2+y,1/2-z
loop_
_atom_site_type_symbol
_atom_site_label
_atom_site_fract_x
_atom_site_fract_y
_atom_site_fract_z
Si Si1 0.000000 0.250000 0.429552
Si Si2 0.750000 0.465627 0.500000
Si Si3 0.750000 0.022645 0.000000
Si Si4 0.499797 0.160832 0.572433
Si Si5 0.891598 0.953959 0.714180
Si Si6 0.873797 0.582666 0.190526
O O1 0.750000 0.251437 0.500000
O O2 0.983527 0.205906 0.380586
O O3 0.499905 0.493865 0.512393
O O4 0.743807 0.437773 0.405078
O O5 0.804328 0.045967 0.899193
O O6 0.750000 0.153717 0.500000
O O7 0.457907 0.127187 0.655379
O O8 0.250000 0.159512 0.500000
O O9 0.639825 0.939753 0.776669
O O10 0.144632 0.925340 0.730366
O O11 0.958558 0.000000 0.750000
#
# Coordination Sequence:
#
# PCOD9333380 Si02
#       6
#     4   4   4   8   8   8
#     4   8  16  30  46  70 102 134 160 186 242 298
#     4  12  20  32  52  72  93 132 167 212 244 290
#     4  12  24  36  52  64  97 132 173 214 262 286
#     4  10  19  31  50  74 103 135 163 200 241 297
#     4  12  23  37  49  71  95 132 173 217 252 292
#     4  12  22  33  51  75  99 129 176 208 242 294
#
# _framework density 15.691000000000001
#
# number of rings (size 3 to 8) (size 9 to 14) (size 15 to 20)
#    0.000    0.889    5.556    3.333    1.556    0.000 
#    0.000    0.000    0.000    0.000    0.000    0.000 
#    0.000    3.556    0.000    0.000    0.000    0.000 
#
# Total GULP energy -100374.450152 kJ/mol
# GULP energy per Si atom -5576.358342 kJ/mol
# Density = 1.565529 g / cm^3
# Si number density = 15.691000 Si / 1000 Ang^3
#
#
#
# Elastic Constant Matrix: (Units=GPa)
#
#
# Indices 1 2 3 4 5 6 
#
# 1 111.3094 36.0247 10.2511 0.0000 0.0000 0.0000
# 2 36.0247 121.7771 47.4022 0.0000 0.0000 0.0000
# 3 10.2511 47.4022 59.5473 0.0000 0.0000 0.0000
# 4 0.0000 0.0000 0.0000 14.7733 0.0000 0.0000
# 5 0.0000 0.0000 0.0000 0.0000 25.9426 0.0000
# 6 0.0000 0.0000 0.0000 0.0000 0.0000 17.8284
#
#
#
# Elastic Compliance Matrix: (Units=1/GPa)
#
#
# Indices 1 2 3 4 5 6 
#
# 1 0.009969 -0.003305 0.000915 0.000000 0.000000 0.000000
# 2 -0.003305 0.012995 -0.009775 0.000000 0.000000 0.000000
# 3 0.000915 -0.009775 0.024417 0.000000 0.000000 0.000000
# 4 0.000000 0.000000 0.000000 0.067690 0.000000 0.000000
# 5 0.000000 0.000000 0.000000 0.000000 0.038547 0.000000
# 6 0.000000 0.000000 0.000000 0.000000 0.000000 0.056090
#
#
# Mechanical properties :
#
#
# Convention : Reuss Voigt Hill
#
# Bulk Modulus (GPa) = 43.38365 53.33220 48.35793
# Shear Modulus (GPa) = 20.68485 24.97257 22.82871
#
# Velocity S-wave (km/s) = 3.63473 3.99372 3.81844
# Velocity P-wave (km/s) = 6.73229 7.43836 7.09412
#
# Compressibility (1/GPa) = 0.02305016
#
# Stress axis : x y z
#
# Youngs Moduli (GPa) = 100.30620 76.95523 40.95450
#
# Poissons Ratio (x) = 0.25437 -0.03747
# Poissons Ratio (y) = 0.33155 0.40034
# Poissons Ratio (z) = -0.09178 0.75225
#
# Static dielectric constant tensor:
#      x y z
#    x 1.542790 0.000000 0.000000 
#    y 0.000000 1.571120 0.000000 
#    z 0.000000 0.000000 1.530940 
# 
# From -- ./inp_files/2637.got.cif
#   From: 2010.05.17/outbox.cif.g08.bks.cpg/sg24_2_cif.got.tgz:2637.got - 2010.06.04 00:33:39.
