data_PCOD9333537
_publ_section_title
;
Structure prediction by ZEFSAII (Michael W. Deem and Ramdas Pophale) SiO2 
 PCOD9333537
Probable space group: I 21 21 21
;
_chemical_formula_sum "Si O2"
_cell_formula_units_Z 48
_cell_length_a 8.765879
_cell_length_b 15.111249
_cell_length_c 18.778325
_cell_angle_alpha 90.000000
_cell_angle_beta 90.000000
_cell_angle_gamma 90.000000
_cell_volume 2487.440405
_symmetry_space_group_name_H-M "I 21 21 21"
_symmetry_group_IT_number 24
_symmetry_cell_setting 'orthorhombic'
loop_
_space_group_symop_operation_xyz
x,y,z
-x,1/2-y,z
x,-y,1/2-z
1/2-x,y,-z
1/2+x,1/2+y,1/2+z
1/2-x,-y,1/2+z
1/2+x,1/2-y,-z
-x,1/2+y,1/2-z
loop_
_atom_site_type_symbol
_atom_site_label
_atom_site_fract_x
_atom_site_fract_y
_atom_site_fract_z
Si Si1 0.444723 0.152218 0.295901
Si Si2 0.432595 0.342402 0.863149
Si Si3 0.933767 0.519205 0.921656
Si Si4 0.099718 0.100675 0.277066
Si Si5 0.570357 0.846156 0.360369
Si Si6 0.434037 0.023253 0.579660
O O1 0.500000 0.250000 0.315458
O O2 0.262056 0.149008 0.283408
O O3 0.521239 0.129739 0.220390
O O4 0.483413 0.083282 0.357889
O O5 0.500000 0.250000 0.890629
O O6 0.493911 0.355650 0.782313
O O7 0.251360 0.340700 0.865070
O O8 0.493374 0.427784 0.905130
O O9 0.749807 0.513168 0.917005
O O10 0.003890 0.422699 0.909924
O O11 0.974359 0.553446 0.000331
O O12 0.131754 0.000000 0.250000
O O13 0.026142 0.088269 0.354996
O O14 0.500000 0.750000 0.375920
#
# Coordination Sequence:
#
# PCOD9333537 Si02
#       6
#     8   8   8   8   8   8
#     4  10  19  34  57  83 109 142 185 227 269 321
#     4  11  21  35  56  81 110 142 181 229 274 325
#     4  10  20  37  58  80 112 149 181 223 272 326
#     4   9  18  36  58  80 108 143 181 223 273 328
#     4  11  22  35  56  84 111 142 183 228 275 324
#     4   9  20  37  57  78 108 148 184 216 273 332
#
# _framework density 19.296945999999998
#
# number of rings (size 3 to 8) (size 9 to 14) (size 15 to 20)
#    0.000    2.000    0.000    6.500    0.000    5.333 
#    0.000    0.833    0.000   10.000    0.000    0.000 
#    0.000    0.000    0.000    0.000    0.000    0.000 
#
# Total GULP energy -134053.873857 kJ/mol
# GULP energy per Si atom -5585.578077 kJ/mol
# Density = 1.925303 g / cm^3
# Si number density = 19.296946 Si / 1000 Ang^3
#
#
#
# Elastic Constant Matrix: (Units=GPa)
#
#
# Indices 1 2 3 4 5 6 
#
# 1 36.3695 12.9347 -5.3929 0.0000 0.0000 0.0000
# 2 12.9347 46.7115 -1.2879 0.0000 0.0000 0.0000
# 3 -5.3929 -1.2879 60.3268 0.0000 0.0000 0.0000
# 4 0.0000 0.0000 0.0000 12.0783 0.0000 0.0000
# 5 0.0000 0.0000 0.0000 0.0000 16.8255 0.0000
# 6 0.0000 0.0000 0.0000 0.0000 0.0000 31.0701
#
#
#
# Elastic Compliance Matrix: (Units=1/GPa)
#
#
# Indices 1 2 3 4 5 6 
#
# 1 0.030896 -0.008484 0.002581 0.000000 0.000000 0.000000
# 2 -0.008484 0.023750 -0.000251 0.000000 0.000000 0.000000
# 3 0.002581 -0.000251 0.016802 0.000000 0.000000 0.000000
# 4 0.000000 0.000000 0.000000 0.082793 0.000000 0.000000
# 5 0.000000 0.000000 0.000000 0.000000 0.059434 0.000000
# 6 0.000000 0.000000 0.000000 0.000000 0.000000 0.032185
#
#
# Mechanical properties :
#
#
# Convention : Reuss Voigt Hill
#
# Bulk Modulus (GPa) = 16.90949 17.32396 17.11673
# Shear Modulus (GPa) = 17.99325 21.13836 19.56581
#
# Velocity S-wave (km/s) = 3.05690 3.31331 3.18769
# Velocity P-wave (km/s) = 4.60883 4.86153 4.73686
#
# Compressibility (1/GPa) = 0.05913838
#
# Stress axis : x y z
#
# Youngs Moduli (GPa) = 32.36712 42.10461 59.51770
#
# Poissons Ratio (x) = 0.35722 -0.15360
# Poissons Ratio (y) = 0.27460 0.01496
# Poissons Ratio (z) = -0.08353 0.01059
#
# Static dielectric constant tensor:
#      x y z
#    x 1.642430 0.000000 0.000000 
#    y 0.000000 1.657240 0.000000 
#    z 0.000000 0.000000 1.709210 
# 
# From -- ./inp_files/12987.got.cif
#   From: 2010.05.17/outbox.cif.g08.bks.cpg/sg24_7_cif.got.tgz:12987.got - 2010.06.04 00:33:39.
