data_PCOD9333705
_publ_section_title
;
Structure prediction by ZEFSAII (Michael W. Deem and Ramdas Pophale) SiO2 
 PCOD9333705
Probable space group: I 21 21 21
;
_chemical_formula_sum "Si O2"
_cell_formula_units_Z 44
_cell_length_a 16.570174
_cell_length_b 14.494041
_cell_length_c 9.303964
_cell_angle_alpha 90.000000
_cell_angle_beta 90.000000
_cell_angle_gamma 90.000000
_cell_volume 2234.521695
_symmetry_space_group_name_H-M "I 21 21 21"
_symmetry_group_IT_number 24
_symmetry_cell_setting 'orthorhombic'
loop_
_space_group_symop_operation_xyz
x,y,z
-x,1/2-y,z
x,-y,1/2-z
1/2-x,y,-z
1/2+x,1/2+y,1/2+z
1/2-x,-y,1/2+z
1/2+x,1/2-y,-z
-x,1/2+y,1/2-z
loop_
_atom_site_type_symbol
_atom_site_label
_atom_site_fract_x
_atom_site_fract_y
_atom_site_fract_z
Si Si1 0.128536 0.736175 0.374805
Si Si2 0.000000 0.750000 0.128154
Si Si3 0.825665 0.500000 0.750000
Si Si4 0.436747 0.394473 0.120688
Si Si5 0.250000 0.880733 0.500000
Si Si6 0.754766 0.084560 0.834408
Si Si7 0.476057 0.909548 0.102710
O O1 0.075125 0.756920 0.237113
O O2 0.077069 0.672405 0.485638
O O3 0.171224 0.819033 0.460587
O O4 0.203955 0.676077 0.318926
O O5 0.007353 0.839498 0.025899
O O6 0.772561 0.561175 0.641812
O O7 0.885473 0.442191 0.643316
O O8 0.348762 0.401931 0.194542
O O9 0.472068 0.495616 0.079515
O O10 0.494759 0.363136 0.248131
O O11 0.718406 0.000000 0.750000
O O12 0.750000 0.058110 0.000000
#
# Coordination Sequence:
#
# PCOD9333705 Si02
#       7
#     8   4   4   8   4   8   8
#     4  11  26  42  67 103 137 179 226 291 342 424
#     4  12  30  38  68 106 142 180 228 288 334 428
#     4  10  28  48  76  90 138 186 236 298 340 428
#     4   9  19  43  71  93 131 177 217 276 352 408
#     4  12  26  52  72 100 128 192 246 292 356 406
#     4  10  19  36  64 100 132 168 209 267 341 400
#     4  10  24  46  67 102 133 186 225 276 350 418
#
# _framework density 19.691015
#
# number of rings (size 3 to 8) (size 9 to 14) (size 15 to 20)
#    0.000    1.818    4.545    0.000   15.273    0.000 
#    0.000    1.818    0.000    0.000    0.000    0.000 
#    0.000    0.000    0.000    0.000    0.000    0.000 
#
# Total GULP energy -122674.920634 kJ/mol
# GULP energy per Si atom -5576.132756 kJ/mol
# Density = 1.964620 g / cm^3
# Si number density = 19.691015 Si / 1000 Ang^3
#
#
#
# Elastic Constant Matrix: (Units=GPa)
#
#
# Indices 1 2 3 4 5 6 
#
# 1 61.6854 46.4510 53.7297 0.0000 0.0000 0.0000
# 2 46.4510 116.7451 75.7368 0.0000 0.0000 0.0000
# 3 53.7297 75.7368 95.6840 0.0000 0.0000 0.0000
# 4 0.0000 0.0000 0.0000 50.7995 0.0000 0.0000
# 5 0.0000 0.0000 0.0000 0.0000 31.5809 0.0000
# 6 0.0000 0.0000 0.0000 0.0000 0.0000 27.9678
#
#
#
# Elastic Compliance Matrix: (Units=1/GPa)
#
#
# Indices 1 2 3 4 5 6 
#
# 1 0.032007 -0.002210 -0.016223 0.000000 0.000000 0.000000
# 2 -0.002210 0.017759 -0.012816 0.000000 0.000000 0.000000
# 3 -0.016223 -0.012816 0.029705 0.000000 0.000000 0.000000
# 4 0.000000 0.000000 0.000000 0.019685 0.000000 0.000000
# 5 0.000000 0.000000 0.000000 0.000000 0.031665 0.000000
# 6 0.000000 0.000000 0.000000 0.000000 0.000000 0.035755
#
#
# Mechanical properties :
#
#
# Convention : Reuss Voigt Hill
#
# Bulk Modulus (GPa) = 58.91994 69.54995 64.23495
# Shear Modulus (GPa) = 21.30085 28.61610 24.95847
#
# Velocity S-wave (km/s) = 3.29257 3.81630 3.56407
# Velocity P-wave (km/s) = 6.66648 7.40379 7.04479
#
# Compressibility (1/GPa) = 0.01697218
#
# Stress axis : x y z
#
# Youngs Moduli (GPa) = 31.24349 56.30890 33.66430
#
# Poissons Ratio (x) = 0.12446 0.54614
# Poissons Ratio (y) = 0.06906 0.43143
# Poissons Ratio (z) = 0.50687 0.72164
#
# Static dielectric constant tensor:
#      x y z
#    x 1.942710 0.000000 0.000000 
#    y 0.000000 1.719530 0.000000 
#    z 0.000000 0.000000 1.686030 
# 
# From -- ./inp_files/14107.got.cif
#   From: 2010.05.17/outbox.cif.g08.bks.cpg/sg24_8_cif.got.tgz:14107.got - 2010.06.04 00:33:39.
