data_PCOD9333601
_publ_section_title
;
Structure prediction by ZEFSAII (Michael W. Deem and Ramdas Pophale) SiO2 
 PCOD9333601
Probable space group: I 21 21 21
;
_chemical_formula_sum "Si O2"
_cell_formula_units_Z 64
_cell_length_a 16.583827
_cell_length_b 12.881443
_cell_length_c 16.021400
_cell_angle_alpha 90.000000
_cell_angle_beta 90.000000
_cell_angle_gamma 90.000000
_cell_volume 3422.549501
_symmetry_space_group_name_H-M "I 21 21 21"
_symmetry_group_IT_number 24
_symmetry_cell_setting 'orthorhombic'
loop_
_space_group_symop_operation_xyz
x,y,z
-x,1/2-y,z
x,-y,1/2-z
1/2-x,y,-z
1/2+x,1/2+y,1/2+z
1/2-x,-y,1/2+z
1/2+x,1/2-y,-z
-x,1/2+y,1/2-z
loop_
_atom_site_type_symbol
_atom_site_label
_atom_site_fract_x
_atom_site_fract_y
_atom_site_fract_z
Si Si1 0.482099 0.994595 0.008890
Si Si2 0.664941 0.039858 0.451705
Si Si3 0.607820 0.787480 0.621568
Si Si4 0.580902 0.715814 0.434687
Si Si5 0.954379 0.404460 0.687715
Si Si6 0.871911 0.810224 0.814260
Si Si7 0.541210 0.570346 0.668197
Si Si8 0.711196 0.156655 0.153605
O O1 0.580054 0.987377 0.003332
O O2 0.459528 0.921717 0.087094
O O3 0.439420 0.099043 0.042773
O O4 0.452649 0.995360 0.913059
O O5 0.750000 0.040113 0.500000
O O6 0.651284 0.149256 0.405529
O O7 0.674195 0.948082 0.383991
O O8 0.586237 0.774324 0.523784
O O9 0.600455 0.670748 0.659779
O O10 0.544317 0.867635 0.661692
O O11 0.696971 0.830499 0.628726
O O12 0.500000 0.750000 0.386898
O O13 0.659348 0.748348 0.384874
O O14 0.934553 0.500000 0.750000
O O15 0.892565 0.310083 0.696659
O O16 0.045400 0.369425 0.710073
O O17 0.801620 0.841971 0.751759
O O18 0.549237 0.500000 0.750000
#
# Coordination Sequence:
#
# PCOD9333601 Si02
#       8
#     8   8   8   8   8   8   8   8
#     4  10  19  35  57  85 111 151 196 236 290 363
#     4  11  21  35  55  83 117 152 185 239 301 356
#     4  10  21  37  54  87 117 140 198 258 298 345
#     4  11  18  33  58  86 117 146 187 242 301 355
#     4  10  20  37  59  81 115 157 195 231 289 364
#     4  10  23  36  52  85 122 147 191 241 286 357
#     4  10  20  39  61  79 111 155 201 249 296 349
#     4  12  21  32  58  89 117 150 186 244 310 348
#
# _framework density 18.699511000000001
#
# number of rings (size 3 to 8) (size 9 to 14) (size 15 to 20)
#    0.000    1.500    3.750    4.500    1.750    2.000 
#    0.000    8.125    0.000    3.000    0.000    0.000 
#    0.000    0.000    0.000    0.000    0.000    0.000 
#
# Total GULP energy -178282.278496 kJ/mol
# GULP energy per Si atom -5571.321203 kJ/mol
# Density = 1.865695 g / cm^3
# Si number density = 18.699511 Si / 1000 Ang^3
#
#
#
# Elastic Constant Matrix: (Units=GPa)
#
#
# Indices 1 2 3 4 5 6 
#
# 1 30.6105 1.8069 -7.6493 0.0000 0.0000 0.0000
# 2 1.8069 67.1736 30.6938 0.0000 0.0000 0.0000
# 3 -7.6493 30.6938 84.9869 0.0000 0.0000 0.0000
# 4 0.0000 0.0000 0.0000 33.1234 0.0000 0.0000
# 5 0.0000 0.0000 0.0000 0.0000 14.1391 0.0000
# 6 0.0000 0.0000 0.0000 0.0000 0.0000 15.9813
#
#
#
# Elastic Compliance Matrix: (Units=1/GPa)
#
#
# Indices 1 2 3 4 5 6 
#
# 1 0.033841 -0.002757 0.004042 0.000000 0.000000 0.000000
# 2 -0.002757 0.018054 -0.006768 0.000000 0.000000 0.000000
# 3 0.004042 -0.006768 0.014575 0.000000 0.000000 0.000000
# 4 0.000000 0.000000 0.000000 0.030190 0.000000 0.000000
# 5 0.000000 0.000000 0.000000 0.000000 0.070726 0.000000
# 6 0.000000 0.000000 0.000000 0.000000 0.000000 0.062573
#
#
# Mechanical properties :
#
#
# Convention : Reuss Voigt Hill
#
# Bulk Modulus (GPa) = 18.01738 25.83043 21.92390
# Shear Modulus (GPa) = 19.27323 23.17672 21.22498
#
# Velocity S-wave (km/s) = 3.21391 3.52437 3.37271
# Velocity P-wave (km/s) = 4.84029 5.51407 5.18813
#
# Compressibility (1/GPa) = 0.05550198
#
# Stress axis : x y z
#
# Youngs Moduli (GPa) = 29.54979 55.39040 68.61177
#
# Poissons Ratio (x) = 0.15271 -0.27730
# Poissons Ratio (y) = 0.08147 0.46439
# Poissons Ratio (z) = -0.11943 0.37490
#
# Static dielectric constant tensor:
#      x y z
#    x 1.630280 0.000000 0.000000 
#    y 0.000000 1.688390 0.000000 
#    z 0.000000 0.000000 1.687940 
# 
# From -- ./inp_files/30888.got.cif
#   From: 2010.05.17/outbox.cif.g08.bks.cpg/sg24_16_cif.got.tgz:30888.got - 2010.06.04 00:33:39.
