data_PCOD9333594
_publ_section_title
;
Structure prediction by ZEFSAII (Michael W. Deem and Ramdas Pophale) SiO2 
 PCOD9333594
Probable space group: I 21 21 21
;
_chemical_formula_sum "Si O2"
_cell_formula_units_Z 40
_cell_length_a 14.458117
_cell_length_b 15.834252
_cell_length_c 7.468300
_cell_angle_alpha 90.000000
_cell_angle_beta 90.000000
_cell_angle_gamma 90.000000
_cell_volume 1709.743819
_symmetry_space_group_name_H-M "I 21 21 21"
_symmetry_group_IT_number 24
_symmetry_cell_setting 'orthorhombic'
loop_
_space_group_symop_operation_xyz
x,y,z
-x,1/2-y,z
x,-y,1/2-z
1/2-x,y,-z
1/2+x,1/2+y,1/2+z
1/2-x,-y,1/2+z
1/2+x,1/2-y,-z
-x,1/2+y,1/2-z
loop_
_atom_site_type_symbol
_atom_site_label
_atom_site_fract_x
_atom_site_fract_y
_atom_site_fract_z
Si Si1 0.472105 0.839421 0.601507
Si Si2 0.395426 0.815124 0.188359
Si Si3 0.780800 0.403152 0.204050
Si Si4 0.919756 0.120560 0.602622
Si Si5 0.640681 0.947948 0.491605
O O1 0.500000 0.750000 0.681199
O O2 0.433777 0.819716 0.396777
O O3 0.387037 0.877706 0.708683
O O4 0.563524 0.896776 0.602301
O O5 0.292336 0.849115 0.185601
O O6 0.396048 0.720136 0.110271
O O7 0.468853 0.876624 0.091598
O O8 0.768672 0.500000 0.250000
O O9 0.750000 0.390579 0.000000
O O10 0.888816 0.084288 0.794814
O O11 0.874679 0.048538 0.479002
O O12 0.750000 0.928970 0.500000
#
# Coordination Sequence:
#
# PCOD9333594 Si02
#       5
#     8   8   8   8   8
#     4  10  19  35  56  85 114 144 189 244 290 339
#     4   9  17  34  60  80 107 143 204 237 276 334
#     4  10  23  37  61  88 118 155 191 240 292 346
#     4   9  18  33  55  83 103 148 190 244 274 335
#     4  10  20  32  54  81 114 144 189 235 290 337
#
# _framework density 23.395320000000002
#
# number of rings (size 3 to 8) (size 9 to 14) (size 15 to 20)
#    0.000    2.400    4.000    0.000   11.200    0.000 
#    3.600    1.000    0.000    0.000    0.000    0.000 
#    0.000    0.000    0.000    0.000    0.000    0.000 
#
# Total GULP energy -111625.822812 kJ/mol
# GULP energy per Si atom -5581.291141 kJ/mol
# Density = 2.334207 g / cm^3
# Si number density = 23.395320 Si / 1000 Ang^3
#
#
#
# Elastic Constant Matrix: (Units=GPa)
#
#
# Indices 1 2 3 4 5 6 
#
# 1 231.6853 103.3488 41.9975 0.0000 0.0000 0.0000
# 2 103.3488 137.9794 11.4440 0.0000 0.0000 0.0000
# 3 41.9975 11.4440 51.1524 0.0000 0.0000 0.0000
# 4 0.0000 0.0000 0.0000 21.9591 0.0000 0.0000
# 5 0.0000 0.0000 0.0000 0.0000 4.3025 0.0000
# 6 0.0000 0.0000 0.0000 0.0000 0.0000 12.4322
#
#
#
# Elastic Compliance Matrix: (Units=1/GPa)
#
#
# Indices 1 2 3 4 5 6 
#
# 1 0.007575 -0.005255 -0.005043 0.000000 0.000000 0.000000
# 2 -0.005255 0.011031 0.001847 0.000000 0.000000 0.000000
# 3 -0.005043 0.001847 0.023277 0.000000 0.000000 0.000000
# 4 0.000000 0.000000 0.000000 0.045539 0.000000 0.000000
# 5 0.000000 0.000000 0.000000 0.000000 0.232425 0.000000
# 6 0.000000 0.000000 0.000000 0.000000 0.000000 0.080436
#
#
# Mechanical properties :
#
#
# Convention : Reuss Voigt Hill
#
# Bulk Modulus (GPa) = 40.03385 81.59973 60.81679
# Shear Modulus (GPa) = 11.75056 25.34054 18.54555
#
# Velocity S-wave (km/s) = 2.24355 3.29469 2.81855
# Velocity P-wave (km/s) = 4.88471 7.03048 6.05343
#
# Compressibility (1/GPa) = 0.02497886
#
# Stress axis : x y z
#
# Youngs Moduli (GPa) = 132.02017 90.65761 42.96111
#
# Poissons Ratio (x) = 0.47642 0.21666
# Poissons Ratio (y) = 0.69379 -0.07934
# Poissons Ratio (z) = 0.66581 -0.16743
#
# Static dielectric constant tensor:
#      x y z
#    x 1.757560 0.000000 0.000000 
#    y 0.000000 1.860840 0.000000 
#    z 0.000000 0.000000 2.018360 
# 
# From -- ./inp_files/12322.got.cif
#   From: 2010.05.17/outbox.cif.g08.bks.cpg/sg24_7_cif.got.tgz:12322.got - 2010.06.04 00:33:39.
