data_PCOD9333375
_publ_section_title
;
Structure prediction by ZEFSAII (Michael W. Deem and Ramdas Pophale) SiO2 
 PCOD9333375
Probable space group: I 21 21 21
;
_chemical_formula_sum "Si O2"
_cell_formula_units_Z 44
_cell_length_a 16.839380
_cell_length_b 5.243339
_cell_length_c 29.206203
_cell_angle_alpha 90.000000
_cell_angle_beta 90.000000
_cell_angle_gamma 90.000000
_cell_volume 2578.749366
_symmetry_space_group_name_H-M "I 21 21 21"
_symmetry_group_IT_number 24
_symmetry_cell_setting 'orthorhombic'
loop_
_space_group_symop_operation_xyz
x,y,z
-x,1/2-y,z
x,-y,1/2-z
1/2-x,y,-z
1/2+x,1/2+y,1/2+z
1/2-x,-y,1/2+z
1/2+x,1/2-y,-z
-x,1/2+y,1/2-z
loop_
_atom_site_type_symbol
_atom_site_label
_atom_site_fract_x
_atom_site_fract_y
_atom_site_fract_z
Si Si1 0.298125 0.794738 0.928421
Si Si2 0.415752 0.688294 0.426406
Si Si3 0.373169 0.192970 0.477880
Si Si4 0.000000 0.750000 0.281646
Si Si5 0.675326 0.250052 0.781817
Si Si6 0.753097 0.199966 0.123118
O O1 0.214807 0.780365 0.955964
O O2 0.295383 0.559267 0.893615
O O3 0.294551 0.062095 0.902234
O O4 0.364798 0.779155 0.967610
O O5 0.500000 0.750000 0.403156
O O6 0.419605 0.421536 0.453386
O O7 0.338813 0.689346 0.393489
O O8 0.401619 0.914197 0.463043
O O9 0.000718 0.500000 0.250000
O O10 0.913455 0.745774 0.304627
O O11 0.683618 0.500000 0.750000
O O12 0.737444 0.237033 0.822911
O O13 0.680841 0.000000 0.750000
#
# Coordination Sequence:
#
# PCOD9333375 Si02
#       6
#     8   8   8   4   8   8
#     4   9  17  30  49  72  94 124 162 204 248 286
#     4  10  19  31  49  71  99 135 172 203 232 281
#     4   9  17  30  49  70  93 127 168 203 241 286
#     4   8  16  30  50  70  88 116 148 186 240 298
#     4  10  19  33  53  75  97 124 159 200 248 299
#     4  10  19  31  51  75  98 128 166 206 244 287
#
# _framework density 17.062535
#
# number of rings (size 3 to 8) (size 9 to 14) (size 15 to 20)
#    0.000    2.545    0.000    2.727    0.000    4.364 
#    0.000    0.000   12.000    1.091    0.000    0.000 
#    0.000    0.000    0.000    0.000    0.000    0.000 
#
# Total GULP energy -122518.318903 kJ/mol
# GULP energy per Si atom -5569.014496 kJ/mol
# Density = 1.702370 g / cm^3
# Si number density = 17.062535 Si / 1000 Ang^3
#
#
#
# Elastic Constant Matrix: (Units=GPa)
#
#
# Indices 1 2 3 4 5 6 
#
# 1 60.2345 12.8450 29.5170 0.0000 0.0000 0.0000
# 2 12.8450 114.1636 23.4235 0.0000 0.0000 0.0000
# 3 29.5170 23.4235 76.4137 0.0000 0.0000 0.0000
# 4 0.0000 0.0000 0.0000 15.3150 0.0000 0.0000
# 5 0.0000 0.0000 0.0000 0.0000 11.8451 0.0000
# 6 0.0000 0.0000 0.0000 0.0000 0.0000 10.9084
#
#
#
# Elastic Compliance Matrix: (Units=1/GPa)
#
#
# Indices 1 2 3 4 5 6 
#
# 1 0.020535 -0.000729 -0.007709 0.000000 0.000000 0.000000
# 2 -0.000729 0.009373 -0.002592 0.000000 0.000000 0.000000
# 3 -0.007709 -0.002592 0.016859 0.000000 0.000000 0.000000
# 4 0.000000 0.000000 0.000000 0.065296 0.000000 0.000000
# 5 0.000000 0.000000 0.000000 0.000000 0.084423 0.000000
# 6 0.000000 0.000000 0.000000 0.000000 0.000000 0.091672
#
#
# Mechanical properties :
#
#
# Convention : Reuss Voigt Hill
#
# Bulk Modulus (GPa) = 40.47231 42.48698 41.47964
# Shear Modulus (GPa) = 15.70093 19.94878 17.82486
#
# Velocity S-wave (km/s) = 3.03677 3.42300 3.23565
# Velocity P-wave (km/s) = 6.00562 6.37004 6.19051
#
# Compressibility (1/GPa) = 0.02470825
#
# Stress axis : x y z
#
# Youngs Moduli (GPa) = 48.69796 106.68824 59.31617
#
# Poissons Ratio (x) = 0.07776 0.45725
# Poissons Ratio (y) = 0.03549 0.15373
# Poissons Ratio (z) = 0.37540 0.27650
#
# Static dielectric constant tensor:
#      x y z
#    x 1.629110 0.000000 0.000000 
#    y 0.000000 1.577590 0.000000 
#    z 0.000000 0.000000 1.542950 
# 
# From -- ./inp_files/34680.got.cif
#   From: 2010.05.17/outbox.cif.g08.bks.cpg/sg24_18_cif.got.tgz:34680.got - 2010.06.04 00:33:39.
