data_PCOD9333615
_publ_section_title
;
Structure prediction by ZEFSAII (Michael W. Deem and Ramdas Pophale) SiO2 
 PCOD9333615
Probable space group: I 21 21 21
;
_chemical_formula_sum "Si O2"
_cell_formula_units_Z 36
_cell_length_a 17.372647
_cell_length_b 10.141050
_cell_length_c 7.806490
_cell_angle_alpha 90.000000
_cell_angle_beta 90.000000
_cell_angle_gamma 90.000000
_cell_volume 1375.323066
_symmetry_space_group_name_H-M "I 21 21 21"
_symmetry_group_IT_number 24
_symmetry_cell_setting 'orthorhombic'
loop_
_space_group_symop_operation_xyz
x,y,z
-x,1/2-y,z
x,-y,1/2-z
1/2-x,y,-z
1/2+x,1/2+y,1/2+z
1/2-x,-y,1/2+z
1/2+x,1/2-y,-z
-x,1/2+y,1/2-z
loop_
_atom_site_type_symbol
_atom_site_label
_atom_site_fract_x
_atom_site_fract_y
_atom_site_fract_z
Si Si1 0.167007 0.691461 0.445182
Si Si2 0.335256 0.273130 0.538049
Si Si3 0.359567 0.988526 0.553557
Si Si4 0.500000 0.750000 0.127803
Si Si5 0.511654 0.104604 0.037927
O O1 0.250000 0.644132 0.500000
O O2 0.157538 0.705648 0.241933
O O3 0.159917 0.843165 0.514864
O O4 0.102709 0.593987 0.520599
O O5 0.250000 0.331897 0.500000
O O6 0.422125 0.296535 0.466393
O O7 0.328633 0.120586 0.470637
O O8 0.452746 0.993773 0.548777
O O9 0.334022 0.000000 0.750000
O O10 0.486292 0.865811 0.268067
O O11 0.500000 0.250000 0.948670
#
# Coordination Sequence:
#
# PCOD9333615 Si02
#       5
#     8   8   8   4   8
#     4  10  19  35  59  81 115 157 193 238 288 354
#     4  11  23  35  56  92 120 145 194 242 298 348
#     4   9  19  33  57  84 114 147 188 236 286 346
#     4  10  22  36  56  80 124 160 182 246 290 360
#     4   8  18  36  53  75 114 157 194 214 300 349
#
# _framework density 26.175671000000001
#
# number of rings (size 3 to 8) (size 9 to 14) (size 15 to 20)
#    0.667    1.778    0.000    2.000    7.778    0.889 
#    0.000    0.000    0.000    1.333    0.000    0.000 
#    0.000    0.000    0.000    0.000    0.000    0.000 
#
# Total GULP energy -100347.254103 kJ/mol
# GULP energy per Si atom -5574.847450 kJ/mol
# Density = 2.611609 g / cm^3
# Si number density = 26.175671 Si / 1000 Ang^3
#
#
#
# Elastic Constant Matrix: (Units=GPa)
#
#
# Indices 1 2 3 4 5 6 
#
# 1 237.1021 20.7816 44.2161 0.0000 0.0000 0.0000
# 2 20.7816 99.0311 -4.2079 0.0000 0.0000 0.0000
# 3 44.2161 -4.2079 113.9449 0.0000 0.0000 0.0000
# 4 0.0000 0.0000 0.0000 9.4633 0.0000 0.0000
# 5 0.0000 0.0000 0.0000 0.0000 47.7624 0.0000
# 6 0.0000 0.0000 0.0000 0.0000 0.0000 22.3029
#
#
#
# Elastic Compliance Matrix: (Units=1/GPa)
#
#
# Indices 1 2 3 4 5 6 
#
# 1 0.004654 -0.001055 -0.001845 0.000000 0.000000 0.000000
# 2 -0.001055 0.010353 0.000792 0.000000 0.000000 0.000000
# 3 -0.001845 0.000792 0.009521 0.000000 0.000000 0.000000
# 4 0.000000 0.000000 0.000000 0.105671 0.000000 0.000000
# 5 0.000000 0.000000 0.000000 0.000000 0.020937 0.000000
# 6 0.000000 0.000000 0.000000 0.000000 0.000000 0.044837
#
#
# Mechanical properties :
#
#
# Convention : Reuss Voigt Hill
#
# Bulk Modulus (GPa) = 49.23257 63.51751 56.37504
# Shear Modulus (GPa) = 24.15919 41.85829 33.00874
#
# Velocity S-wave (km/s) = 3.04133 4.00325 3.55497
# Velocity P-wave (km/s) = 5.58411 6.75918 6.19955
#
# Compressibility (1/GPa) = 0.02031176
#
# Stress axis : x y z
#
# Youngs Moduli (GPa) = 214.86297 96.59144 105.02708
#
# Poissons Ratio (x) = 0.10191 0.19377
# Poissons Ratio (y) = 0.22669 -0.08315
# Poissons Ratio (z) = 0.39642 -0.07648
#
# Static dielectric constant tensor:
#      x y z
#    x 2.181360 0.000000 0.000000 
#    y 0.000000 2.263810 0.000000 
#    z 0.000000 0.000000 1.990950 
# 
# From -- ./inp_files/12193.got.cif
#   From: 2010.05.17/outbox.cif.g08.bks.cpg/sg24_7_cif.got.tgz:12193.got - 2010.06.04 00:33:39.
