data_PCOD9333930
_publ_section_title
;
Structure prediction by ZEFSAII (Michael W. Deem and Ramdas Pophale) SiO2 
 PCOD9333930
Probable space group: I 21 21 21
;
_chemical_formula_sum "Si O2"
_cell_formula_units_Z 64
_cell_length_a 30.603461
_cell_length_b 8.973743
_cell_length_c 14.911628
_cell_angle_alpha 90.000000
_cell_angle_beta 90.000000
_cell_angle_gamma 90.000000
_cell_volume 4095.144519
_symmetry_space_group_name_H-M "I 21 21 21"
_symmetry_group_IT_number 24
_symmetry_cell_setting 'orthorhombic'
loop_
_space_group_symop_operation_xyz
x,y,z
-x,1/2-y,z
x,-y,1/2-z
1/2-x,y,-z
1/2+x,1/2+y,1/2+z
1/2-x,-y,1/2+z
1/2+x,1/2-y,-z
-x,1/2+y,1/2-z
loop_
_atom_site_type_symbol
_atom_site_label
_atom_site_fract_x
_atom_site_fract_y
_atom_site_fract_z
Si Si1 0.326396 0.671595 0.250000
Si Si2 0.632083 0.678369 0.076732
Si Si3 0.132083 0.821632 0.576733
Si Si4 0.792117 0.320906 0.439979
Si Si5 0.721654 0.829593 0.750000
Si Si6 0.047158 0.677994 0.855364
Si Si7 0.292118 0.179094 0.939979
Si Si8 0.452842 0.677994 0.355363
O O1 0.342599 0.500000 0.250000
O O2 0.342969 0.757155 0.162996
O O3 0.342970 0.757156 0.337003
O O4 0.274288 0.669651 0.250000
O O5 0.628174 0.500000 0.082977
O O6 0.584515 0.752422 0.082326
O O7 0.663256 0.714591 0.992878
O O8 0.163256 0.785409 0.492878
O O9 0.084515 0.747579 0.582326
O O10 0.750000 0.272007 0.500000
O O11 0.791887 0.250478 0.341788
O O12 0.788771 0.500000 0.431920
O O13 0.708112 0.749522 0.658212
O O14 0.706150 0.000000 0.750000
O O15 0.057934 0.710836 0.750000
O O16 0.045299 0.500000 0.864950
O O17 0.000000 0.750000 0.872904
O O18 0.250000 0.227993 0.000000
O O19 0.500000 0.750000 0.372904
#
# Coordination Sequence:
#
# PCOD9333930 Si02
#       8
#     8   8   8   8   8   8   8   8
#     4  11  21  31  46  72 105 138 172 213 258 301
#     4  11  21  33  52  75 101 138 178 213 254 304
#     4  11  21  33  52  75 101 138 178 213 254 304
#     4  10  21  36  53  74 101 138 178 214 255 305
#     4  11  23  35  51  74 103 138 175 221 263 297
#     4  10  20  33  50  74 105 137 170 209 257 306
#     4  10  21  36  53  74 101 138 178 214 255 305
#     4  10  20  33  50  74 105 137 170 209 257 306
#
# _framework density 15.628264
#
# number of rings (size 3 to 8) (size 9 to 14) (size 15 to 20)
#    0.000    1.500    3.750    2.250    0.000    4.500 
#    0.000    0.000    0.000    0.000    0.000    0.875 
#    0.000    0.000    0.000    0.000    0.000    0.000 
#
# Total GULP energy -178638.210005 kJ/mol
# GULP energy per Si atom -5582.444063 kJ/mol
# Density = 1.559269 g / cm^3
# Si number density = 15.628264 Si / 1000 Ang^3
#
#
#
# Elastic Constant Matrix: (Units=GPa)
#
#
# Indices 1 2 3 4 5 6 
#
# 1 120.4955 58.9340 63.4518 0.0000 0.0000 0.0000
# 2 58.9340 63.0999 53.8885 0.0000 0.0000 0.0000
# 3 63.4518 53.8885 127.3280 0.0000 0.0000 0.0000
# 4 0.0000 0.0000 0.0000 10.7018 0.0000 0.0000
# 5 0.0000 0.0000 0.0000 0.0000 -12.3702 0.0000
# 6 0.0000 0.0000 0.0000 0.0000 0.0000 29.3790
#
#
#
# Elastic Compliance Matrix: (Units=1/GPa)
#
#
# Indices 1 2 3 4 5 6 
#
# 1 0.015789 -0.012571 -0.002548 0.000000 0.000000 0.000000
# 2 -0.012571 0.034827 -0.008475 0.000000 0.000000 0.000000
# 3 -0.002548 -0.008475 0.012710 0.000000 0.000000 0.000000
# 4 0.000000 0.000000 0.000000 0.093442 0.000000 0.000000
# 5 0.000000 0.000000 0.000000 0.000000 -0.080839 0.000000
# 6 0.000000 0.000000 0.000000 0.000000 0.000000 0.034038
#
#
# Mechanical properties :
#
#
# Convention : Reuss Voigt Hill
#
# Bulk Modulus (GPa) = 61.96381 73.71911 67.84146
# Shear Modulus (GPa) = 30.76285 14.51872 22.64078
#
# Velocity S-wave (km/s) = 4.44149 3.05126 3.81032
# Velocity P-wave (km/s) = 8.12632 7.72570 7.92854
#
# Compressibility (1/GPa) = 0.01613845
#
# Stress axis : x y z
#
# Youngs Moduli (GPa) = 63.33487 28.71376 78.67591
#
# Poissons Ratio (x) = 0.36095 0.20047
# Poissons Ratio (y) = 0.79616 0.66679
# Poissons Ratio (z) = 0.16138 0.24335
#
# Static dielectric constant tensor:
#      x y z
#    x 1.531390 0.000000 0.000000 
#    y 0.000000 1.526380 0.000000 
#    z 0.000000 0.000000 1.491690 
# 
# From -- ./inp_files/23207.got.cif
#   From: 2010.05.17/outbox.cif.g08.bks.cpg/sg24_12_cif.got.tgz:23207.got - 2010.06.04 00:33:39.
