data_PCOD9333301
_publ_section_title
;
Structure prediction by ZEFSAII (Michael W. Deem and Ramdas Pophale) SiO2 
 PCOD9333301
Probable space group: I 21 21 21
;
_chemical_formula_sum "Si O2"
_cell_formula_units_Z 48
_cell_length_a 14.437195
_cell_length_b 11.097159
_cell_length_c 14.602175
_cell_angle_alpha 90.000000
_cell_angle_beta 90.000000
_cell_angle_gamma 90.000000
_cell_volume 2339.441448
_symmetry_space_group_name_H-M "I 21 21 21"
_symmetry_group_IT_number 24
_symmetry_cell_setting 'orthorhombic'
loop_
_space_group_symop_operation_xyz
x,y,z
-x,1/2-y,z
x,-y,1/2-z
1/2-x,y,-z
1/2+x,1/2+y,1/2+z
1/2-x,-y,1/2+z
1/2+x,1/2-y,-z
-x,1/2+y,1/2-z
loop_
_atom_site_type_symbol
_atom_site_label
_atom_site_fract_x
_atom_site_fract_y
_atom_site_fract_z
Si Si1 0.071180 0.064736 0.652027
Si Si2 0.031071 0.077394 0.024413
Si Si3 0.556312 0.853055 0.881227
Si Si4 0.882106 0.813203 0.914545
Si Si5 0.844806 0.790638 0.450181
Si Si6 0.233607 0.483692 0.344566
O O1 0.134693 0.182934 0.631833
O O2 0.968980 0.123107 0.636126
O O3 0.082039 0.000000 0.750000
O O4 0.078080 0.968899 0.569125
O O5 0.098115 0.171324 0.075223
O O6 0.929963 0.136300 0.000157
O O7 0.007168 0.964601 0.088398
O O8 0.500000 0.750000 0.831100
O O9 0.643525 0.902356 0.827504
O O10 0.592292 0.798508 0.978556
O O11 0.799541 0.908121 0.909759
O O12 0.750000 0.752886 0.500000
O O13 0.804027 0.890546 0.381781
O O14 0.286506 0.500000 0.250000
#
# Coordination Sequence:
#
# PCOD9333301 Si02
#       6
#     8   8   8   8   8   8
#     4  10  19  32  55  89 122 154 185 244 305 353
#     4   9  19  36  56  83 116 148 199 241 283 361
#     4  10  18  40  61  81 110 158 205 234 286 366
#     4  10  19  36  59  83 120 155 203 233 292 382
#     4  10  20  36  59  83 115 155 193 239 295 359
#     4  11  23  37  58  87 112 152 203 253 298 345
#
# _framework density 20.517720000000001
#
# number of rings (size 3 to 8) (size 9 to 14) (size 15 to 20)
#    0.000    2.000    3.333    4.000    0.000    4.000 
#    9.000    0.000    0.000    0.000    0.000    0.000 
#    0.000    0.000    0.000    0.000    0.000    0.000 
#
# Total GULP energy -133674.958502 kJ/mol
# GULP energy per Si atom -5569.789938 kJ/mol
# Density = 2.047102 g / cm^3
# Si number density = 20.517720 Si / 1000 Ang^3
#
#
#
# Elastic Constant Matrix: (Units=GPa)
#
#
# Indices 1 2 3 4 5 6 
#
# 1 67.1796 25.8896 2.8941 0.0000 0.0000 0.0000
# 2 25.8896 94.4500 7.7159 0.0000 0.0000 0.0000
# 3 2.8941 7.7159 36.8064 0.0000 0.0000 0.0000
# 4 0.0000 0.0000 0.0000 16.4256 0.0000 0.0000
# 5 0.0000 0.0000 0.0000 0.0000 16.3607 0.0000
# 6 0.0000 0.0000 0.0000 0.0000 0.0000 1.7876
#
#
#
# Elastic Compliance Matrix: (Units=1/GPa)
#
#
# Indices 1 2 3 4 5 6 
#
# 1 0.016648 -0.004534 -0.000359 0.000000 0.000000 0.000000
# 2 -0.004534 0.012007 -0.002161 0.000000 0.000000 0.000000
# 3 -0.000359 -0.002161 0.027650 0.000000 0.000000 0.000000
# 4 0.000000 0.000000 0.000000 0.060880 0.000000 0.000000
# 5 0.000000 0.000000 0.000000 0.000000 0.061122 0.000000
# 6 0.000000 0.000000 0.000000 0.000000 0.000000 0.559401
#
#
# Mechanical properties :
#
#
# Convention : Reuss Voigt Hill
#
# Bulk Modulus (GPa) = 23.69724 30.15948 26.92836
# Shear Modulus (GPa) = 6.52842 17.71055 12.11948
#
# Velocity S-wave (km/s) = 1.78571 2.94118 2.43304
# Velocity P-wave (km/s) = 3.97824 5.12496 4.58757
#
# Compressibility (1/GPa) = 0.04219901
#
# Stress axis : x y z
#
# Youngs Moduli (GPa) = 60.06623 83.28498 36.16599
#
# Poissons Ratio (x) = 0.37763 0.01297
# Poissons Ratio (y) = 0.27235 0.07814
# Poissons Ratio (z) = 0.02154 0.17994
#
# Static dielectric constant tensor:
#      x y z
#    x 1.742200 0.000000 0.000000 
#    y 0.000000 1.725810 0.000000 
#    z 0.000000 0.000000 1.725820 
# 
# From -- ./inp_files/26451.got.cif
#   From: 2010.05.17/outbox.cif.g08.bks.cpg/sg24_14_cif.got.tgz:26451.got - 2010.06.04 00:33:39.
