data_PCOD9333158
_publ_section_title
;
Structure prediction by ZEFSAII (Michael W. Deem and Ramdas Pophale) SiO2 
 PCOD9333158
Probable space group: I 21 21 21
;
_chemical_formula_sum "Si O2"
_cell_formula_units_Z 44
_cell_length_a 13.086923
_cell_length_b 12.123468
_cell_length_c 13.858927
_cell_angle_alpha 90.000000
_cell_angle_beta 90.000000
_cell_angle_gamma 90.000000
_cell_volume 2198.842005
_symmetry_space_group_name_H-M "I 21 21 21"
_symmetry_group_IT_number 24
_symmetry_cell_setting 'orthorhombic'
loop_
_space_group_symop_operation_xyz
x,y,z
-x,1/2-y,z
x,-y,1/2-z
1/2-x,y,-z
1/2+x,1/2+y,1/2+z
1/2-x,-y,1/2+z
1/2+x,1/2-y,-z
-x,1/2+y,1/2-z
loop_
_atom_site_type_symbol
_atom_site_label
_atom_site_fract_x
_atom_site_fract_y
_atom_site_fract_z
Si Si1 0.250000 0.521262 0.500000
Si Si2 0.500000 0.250000 0.462854
Si Si3 0.800674 0.833662 0.853193
Si Si4 0.266306 0.000000 0.750000
Si Si5 0.888558 0.225488 0.034467
Si Si6 0.834559 0.628683 0.075888
Si Si7 0.197315 0.216758 0.838988
O O1 0.268484 0.445792 0.406010
O O2 0.346828 0.601250 0.518740
O O3 0.409626 0.300383 0.398772
O O4 0.441717 0.158858 0.527536
O O5 0.716145 0.743277 0.886742
O O6 0.810001 0.815997 0.738380
O O7 0.335658 0.044609 0.663501
O O8 0.195902 0.101929 0.782516
O O9 0.880395 0.277802 0.927485
O O10 0.000000 0.250000 0.072646
O O11 0.806210 0.276083 0.107424
O O12 0.750000 0.585151 0.000000
#
# Coordination Sequence:
#
# PCOD9333158 Si02
#       7
#     4   4   8   4   8   8   8
#     4  10  20  42  68  90 130 166 208 272 334 360
#     4  10  18  34  64  94 130 154 206 284 308 366
#     4  10  19  39  62  97 123 161 216 268 316 365
#     4  10  20  38  62  84 120 180 192 252 334 356
#     4  10  24  44  61  88 130 169 206 259 321 400
#     4   9  19  35  58  91 130 155 212 268 306 375
#     4   9  22  42  61  89 132 157 215 269 302 388
#
# _framework density 20.010532999999999
#
# number of rings (size 3 to 8) (size 9 to 14) (size 15 to 20)
#    0.000    2.545    2.727    0.000    3.818    4.364 
#   13.091    0.000    0.000    0.000    0.000    0.000 
#    0.000    0.000    0.000    0.000    0.000    0.000 
#
# Total GULP energy -122683.401859 kJ/mol
# GULP energy per Si atom -5576.518266 kJ/mol
# Density = 1.996499 g / cm^3
# Si number density = 20.010533 Si / 1000 Ang^3
#
#
#
# Elastic Constant Matrix: (Units=GPa)
#
#
# Indices 1 2 3 4 5 6 
#
# 1 86.1841 12.2313 10.3663 0.0000 0.0000 0.0000
# 2 12.2313 97.0425 32.4279 0.0000 0.0000 0.0000
# 3 10.3663 32.4279 95.4809 0.0000 0.0000 0.0000
# 4 0.0000 0.0000 0.0000 301.3621 0.0000 0.0000
# 5 0.0000 0.0000 0.0000 0.0000 3.4091 0.0000
# 6 0.0000 0.0000 0.0000 0.0000 0.0000 7.0918
#
#
#
# Elastic Compliance Matrix: (Units=1/GPa)
#
#
# Indices 1 2 3 4 5 6 
#
# 1 0.011880 -0.001203 -0.000881 0.000000 0.000000 0.000000
# 2 -0.001203 0.011746 -0.003859 0.000000 0.000000 0.000000
# 3 -0.000881 -0.003859 0.011879 0.000000 0.000000 0.000000
# 4 0.000000 0.000000 0.000000 0.003318 0.000000 0.000000
# 5 0.000000 0.000000 0.000000 0.000000 0.293336 0.000000
# 6 0.000000 0.000000 0.000000 0.000000 0.000000 0.141008
#
#
# Mechanical properties :
#
#
# Convention : Reuss Voigt Hill
#
# Bulk Modulus (GPa) = 42.33770 43.19537 42.76653
# Shear Modulus (GPa) = 10.14352 77.28473 43.71413
#
# Velocity S-wave (km/s) = 2.25391 6.22140 4.67899
# Velocity P-wave (km/s) = 5.28934 8.55810 7.11400
#
# Compressibility (1/GPa) = 0.02361961
#
# Stress axis : x y z
#
# Youngs Moduli (GPa) = 84.17664 85.13706 84.17892
#
# Poissons Ratio (x) = 0.10241 0.07418
# Poissons Ratio (y) = 0.10125 0.32481
# Poissons Ratio (z) = 0.07418 0.32851
#
# Static dielectric constant tensor:
#      x y z
#    x 1.629430 0.000000 0.000000 
#    y 0.000000 1.739670 0.000000 
#    z 0.000000 0.000000 1.753330 
# 
# From -- ./inp_files/26427.got.cif
#   From: 2010.05.17/outbox.cif.g08.bks.cpg/sg24_14_cif.got.tgz:26427.got - 2010.06.04 00:33:39.
