data_PCOD9333317
_publ_section_title
;
Structure prediction by ZEFSAII (Michael W. Deem and Ramdas Pophale) SiO2 
 PCOD9333317
Probable space group: I 21 21 21
;
_chemical_formula_sum "Si O2"
_cell_formula_units_Z 44
_cell_length_a 8.777735
_cell_length_b 14.748046
_cell_length_c 17.710853
_cell_angle_alpha 90.000000
_cell_angle_beta 90.000000
_cell_angle_gamma 90.000000
_cell_volume 2292.748549
_symmetry_space_group_name_H-M "I 21 21 21"
_symmetry_group_IT_number 24
_symmetry_cell_setting 'orthorhombic'
loop_
_space_group_symop_operation_xyz
x,y,z
-x,1/2-y,z
x,-y,1/2-z
1/2-x,y,-z
1/2+x,1/2+y,1/2+z
1/2-x,-y,1/2+z
1/2+x,1/2-y,-z
-x,1/2+y,1/2-z
loop_
_atom_site_type_symbol
_atom_site_label
_atom_site_fract_x
_atom_site_fract_y
_atom_site_fract_z
Si Si1 0.834669 0.624364 0.577066
Si Si2 0.099207 0.515281 0.956097
Si Si3 0.068560 0.414139 0.702534
Si Si4 0.403764 0.840607 0.951472
Si Si5 0.714338 0.462118 0.672725
Si Si6 0.500000 0.250000 0.193771
O O1 0.750000 0.654184 0.500000
O O2 0.731207 0.546476 0.615492
O O3 0.993994 0.571481 0.561765
O O4 0.879155 0.699907 0.638730
O O5 0.136901 0.573280 0.880540
O O6 0.250000 0.488733 0.000000
O O7 0.998230 0.582025 0.006197
O O8 0.124885 0.500000 0.750000
O O9 0.886411 0.429033 0.690847
O O10 0.080698 0.323297 0.751287
O O11 0.500000 0.750000 0.948618
O O12 0.365979 0.880153 0.869343
O O13 0.250000 0.826731 0.000000
O O14 0.645387 0.500000 0.750000
#
# Coordination Sequence:
#
# PCOD9333317 Si02
#       6
#     8   8   8   8   8   4
#     4  11  21  42  70  94 127 177 218 270 331 397
#     4  11  22  40  65  93 136 175 210 273 338 381
#     4  10  20  38  63  96 126 170 222 273 318 385
#     4  12  23  39  65 101 129 166 219 269 332 400
#     4  10  18  41  69  86 130 178 210 263 338 384
#     4  12  22  36  72 102 120 170 242 266 310 416
#
# _framework density 19.190940999999999
#
# number of rings (size 3 to 8) (size 9 to 14) (size 15 to 20)
#    0.000    1.091   10.909    0.545    1.273    2.182 
#    0.000    0.909    6.000    0.000    0.000    0.000 
#    0.000    0.000    0.000    0.000    0.000    0.000 
#
# Total GULP energy -122794.003649 kJ/mol
# GULP energy per Si atom -5581.545620 kJ/mol
# Density = 1.914726 g / cm^3
# Si number density = 19.190941 Si / 1000 Ang^3
#
#
#
# Elastic Constant Matrix: (Units=GPa)
#
#
# Indices 1 2 3 4 5 6 
#
# 1 41.2827 16.4739 34.0407 0.0000 0.0000 0.0000
# 2 16.4739 80.3420 34.4406 0.0000 0.0000 0.0000
# 3 34.0407 34.4406 126.7021 0.0000 0.0000 0.0000
# 4 0.0000 0.0000 0.0000 46.3777 0.0000 0.0000
# 5 0.0000 0.0000 0.0000 0.0000 15.4031 0.0000
# 6 0.0000 0.0000 0.0000 0.0000 0.0000 12.8938
#
#
#
# Elastic Compliance Matrix: (Units=1/GPa)
#
#
# Indices 1 2 3 4 5 6 
#
# 1 0.031845 -0.003240 -0.007675 0.000000 0.000000 0.000000
# 2 -0.003240 0.014418 -0.003049 0.000000 0.000000 0.000000
# 3 -0.007675 -0.003049 0.010783 0.000000 0.000000 0.000000
# 4 0.000000 0.000000 0.000000 0.021562 0.000000 0.000000
# 5 0.000000 0.000000 0.000000 0.000000 0.064922 0.000000
# 6 0.000000 0.000000 0.000000 0.000000 0.000000 0.077557
#
#
# Mechanical properties :
#
#
# Convention : Reuss Voigt Hill
#
# Bulk Modulus (GPa) = 34.34162 46.47079 40.40621
# Shear Modulus (GPa) = 19.32594 25.82636 22.57615
#
# Velocity S-wave (km/s) = 3.17682 3.67244 3.43358
# Velocity P-wave (km/s) = 5.60266 6.49999 6.06794
#
# Compressibility (1/GPa) = 0.02911918
#
# Stress axis : x y z
#
# Youngs Moduli (GPa) = 31.40247 69.35787 92.73605
#
# Poissons Ratio (x) = 0.22469 0.71175
# Poissons Ratio (y) = 0.10173 0.28273
# Poissons Ratio (z) = 0.24102 0.21146
#
# Static dielectric constant tensor:
#      x y z
#    x 1.652650 0.000000 0.000000 
#    y 0.000000 1.665680 0.000000 
#    z 0.000000 0.000000 1.802020 
# 
# From -- ./inp_files/29420.got.cif
#   From: 2010.05.17/outbox.cif.g08.bks.cpg/sg24_15_cif.got.tgz:29420.got - 2010.06.04 00:33:39.
