data_PCOD9333183
_publ_section_title
;
Structure prediction by ZEFSAII (Michael W. Deem and Ramdas Pophale) SiO2 
 PCOD9333183
Probable space group: I 21 21 21
;
_chemical_formula_sum "Si O2"
_cell_formula_units_Z 36
_cell_length_a 5.622917
_cell_length_b 30.029495
_cell_length_c 8.030562
_cell_angle_alpha 90.000000
_cell_angle_beta 90.000000
_cell_angle_gamma 90.000000
_cell_volume 1355.987360
_symmetry_space_group_name_H-M "I 21 21 21"
_symmetry_group_IT_number 24
_symmetry_cell_setting 'orthorhombic'
loop_
_space_group_symop_operation_xyz
x,y,z
-x,1/2-y,z
x,-y,1/2-z
1/2-x,y,-z
1/2+x,1/2+y,1/2+z
1/2-x,-y,1/2+z
1/2+x,1/2-y,-z
-x,1/2+y,1/2-z
loop_
_atom_site_type_symbol
_atom_site_label
_atom_site_fract_x
_atom_site_fract_y
_atom_site_fract_z
Si Si1 0.500000 0.250000 0.803166
Si Si2 0.250000 0.419771 0.000000
Si Si3 0.097340 0.541043 0.836865
Si Si4 0.250000 0.287090 0.500000
Si Si5 0.008283 0.140745 0.664922
Si Si6 0.002278 0.846432 0.353612
O O1 0.290512 0.258718 0.667207
O O2 0.505422 0.294946 0.910117
O O3 0.250131 0.446448 0.827833
O O4 0.476002 0.386778 0.983820
O O5 0.950679 0.500000 0.750000
O O6 0.983462 0.588615 0.886065
O O7 0.250671 0.647052 0.743904
O O8 0.250000 0.528928 0.000000
O O9 0.029329 0.320675 0.528399
O O10 0.245877 0.148876 0.243561
#
# Coordination Sequence:
#
# PCOD9333183 Si02
#       6
#     4   4   8   4   8   8
#     4  10  20  36  66 106 144 202 258 314 376 460
#     4  10  24  47  72 104 156 188 254 317 394 462
#     4  11  22  44  77 112 148 198 257 321 393 481
#     4  10  18  35  64 108 158 192 262 323 376 472
#     4  10  22  41  69 106 150 199 248 315 395 456
#     4  10  23  42  69 102 149 201 251 315 383 460
#
# _framework density 26.548918
#
# number of rings (size 3 to 8) (size 9 to 14) (size 15 to 20)
#    0.000    1.778    2.222    1.333    0.000    8.889 
#    0.000    8.889    9.778    0.000    0.000    0.000 
#    0.000    0.000    0.000    0.000    0.000    0.000 
#
# Total GULP energy -100271.411428 kJ/mol
# GULP energy per Si atom -5570.633968 kJ/mol
# Density = 2.648849 g / cm^3
# Si number density = 26.548918 Si / 1000 Ang^3
#
#
#
# Elastic Constant Matrix: (Units=GPa)
#
#
# Indices 1 2 3 4 5 6 
#
# 1 163.6439 19.6004 56.5991 0.0001 0.0000 0.0000
# 2 19.6004 172.8458 21.8003 0.0004 0.0000 0.0000
# 3 56.5991 21.8003 130.5660 0.0002 0.0000 0.0001
# 4 0.0001 0.0004 0.0002 13.9252 0.0001 0.0000
# 5 0.0000 0.0000 0.0000 0.0001 61.4997 0.0000
# 6 0.0000 0.0000 0.0001 0.0000 0.0000 8.8397
#
#
#
# Elastic Compliance Matrix: (Units=1/GPa)
#
#
# Indices 1 2 3 4 5 6 
#
# 1 0.007220 -0.000433 -0.003058 0.000000 0.000000 0.000000
# 2 -0.000433 0.005936 -0.000803 0.000000 0.000000 0.000000
# 3 -0.003058 -0.000803 0.009119 0.000000 0.000000 0.000000
# 4 0.000000 0.000000 0.000000 0.071812 0.000000 0.000000
# 5 0.000000 0.000000 0.000000 0.000000 0.016260 0.000000
# 6 0.000000 0.000000 0.000000 0.000000 0.000000 0.113127
#
#
# Mechanical properties :
#
#
# Convention : Reuss Voigt Hill
#
# Bulk Modulus (GPa) = 73.06428 73.67281 73.36855
# Shear Modulus (GPa) = 21.13054 41.45664 31.29359
#
# Velocity S-wave (km/s) = 2.82425 3.95589 3.43697
# Velocity P-wave (km/s) = 6.18187 6.97678 6.59132
#
# Compressibility (1/GPa) = 0.01368658
#
# Stress axis : x y z
#
# Youngs Moduli (GPa) = 138.49978 168.46527 109.66683
#
# Poissons Ratio (x) = 0.07297 0.33532
# Poissons Ratio (y) = 0.05999 0.08810
# Poissons Ratio (z) = 0.42347 0.13534
#
# Static dielectric constant tensor:
#      x y z
#    x 2.066770 0.000000 0.000000 
#    y 0.000000 2.263020 0.000000 
#    z 0.000000 0.000000 2.431860 
# 
# From -- ./inp_files/9459.got.cif
#   From: 2010.05.17/outbox.cif.g08.bks.cpg/sg24_5_cif.got.tgz:9459.got - 2010.06.04 00:33:39.
