data_PCOD9333900
_publ_section_title
;
Structure prediction by ZEFSAII (Michael W. Deem and Ramdas Pophale) SiO2 
 PCOD9333900
Probable space group: I 21 21 21
;
_chemical_formula_sum "Si O2"
_cell_formula_units_Z 28
_cell_length_a 14.565897
_cell_length_b 19.647195
_cell_length_c 4.947274
_cell_angle_alpha 90.000000
_cell_angle_beta 90.000000
_cell_angle_gamma 90.000000
_cell_volume 1415.806019
_symmetry_space_group_name_H-M "I 21 21 21"
_symmetry_group_IT_number 24
_symmetry_cell_setting 'orthorhombic'
loop_
_space_group_symop_operation_xyz
x,y,z
-x,1/2-y,z
x,-y,1/2-z
1/2-x,y,-z
1/2+x,1/2+y,1/2+z
1/2-x,-y,1/2+z
1/2+x,1/2-y,-z
-x,1/2+y,1/2-z
loop_
_atom_site_type_symbol
_atom_site_label
_atom_site_fract_x
_atom_site_fract_y
_atom_site_fract_z
Si Si1 0.417130 0.646701 0.932076
Si Si2 0.810084 0.280104 0.249573
Si Si3 0.250000 0.549014 0.000000
Si Si4 0.974456 0.669610 0.557827
O O1 0.370317 0.721012 0.892825
O O2 0.455849 0.629929 0.637115
O O3 0.338398 0.597003 0.032470
O O4 0.502423 0.648895 0.138468
O O5 0.750000 0.307999 0.500000
O O6 0.875432 0.331904 0.084697
O O7 0.750000 0.249408 0.000000
O O8 0.235691 0.500000 0.250000
O O9 0.000000 0.750000 0.547964
#
# Coordination Sequence:
#
# PCOD9333900 Si02
#       4
#     8   8   4   8
#     4  11  21  36  52  71 115 148 187 231 279 314
#     4  11  20  32  55  82 114 146 185 220 281 352
#     4  12  26  38  56  78 106 154 212 236 264 316
#     4  10  20  32  52  78 106 148 183 216 280 352
#
# _framework density 19.776720999999998
#
# number of rings (size 3 to 8) (size 9 to 14) (size 15 to 20)
#    0.000    1.143    1.429    9.429    2.000    0.000 
#    0.000    0.000    0.000    0.000    0.000    0.000 
#    0.000   64.000    0.000    0.000    0.000    0.000 
#
# Total GULP energy -78073.988629 kJ/mol
# GULP energy per Si atom -5576.713474 kJ/mol
# Density = 1.973171 g / cm^3
# Si number density = 19.776721 Si / 1000 Ang^3
#
#
#
# Elastic Constant Matrix: (Units=GPa)
#
#
# Indices 1 2 3 4 5 6 
#
# 1 66.1844 19.9168 42.5637 0.0000 0.0000 0.0000
# 2 19.9168 29.7665 10.0885 0.0000 0.0000 0.0000
# 3 42.5637 10.0885 133.3142 0.0000 0.0000 0.0000
# 4 0.0000 0.0000 0.0000 18.0801 0.0000 0.0000
# 5 0.0000 0.0000 0.0000 0.0000 52.9308 0.0000
# 6 0.0000 0.0000 0.0000 0.0000 0.0000 13.6877
#
#
#
# Elastic Compliance Matrix: (Units=1/GPa)
#
#
# Indices 1 2 3 4 5 6 
#
# 1 0.023265 -0.013392 -0.006414 0.000000 0.000000 0.000000
# 2 -0.013392 0.042189 0.001083 0.000000 0.000000 0.000000
# 3 -0.006414 0.001083 0.009467 0.000000 0.000000 0.000000
# 4 0.000000 0.000000 0.000000 0.055310 0.000000 0.000000
# 5 0.000000 0.000000 0.000000 0.000000 0.018893 0.000000
# 6 0.000000 0.000000 0.000000 0.000000 0.000000 0.073058
#
#
# Mechanical properties :
#
#
# Convention : Reuss Voigt Hill
#
# Bulk Modulus (GPa) = 26.68574 41.60036 34.14305
# Shear Modulus (GPa) = 18.37436 27.38613 22.88025
#
# Velocity S-wave (km/s) = 3.05141 3.72528 3.40505
# Velocity P-wave (km/s) = 5.09289 6.29161 5.72372
#
# Compressibility (1/GPa) = 0.03747320
#
# Stress axis : x y z
#
# Youngs Moduli (GPa) = 42.98387 23.70311 105.62985
#
# Poissons Ratio (x) = 0.31744 0.67754
# Poissons Ratio (y) = 0.57566 -0.11442
# Poissons Ratio (z) = 0.27571 -0.02568
#
# Static dielectric constant tensor:
#      x y z
#    x 1.803380 0.000000 0.000000 
#    y 0.000000 1.643370 0.000000 
#    z 0.000000 0.000000 1.705560 
# 
# From -- ./inp_files/3021.got.cif
#   From: 2010.05.17/outbox.cif.g08.bks.cpg/sg24_2_cif.got.tgz:3021.got - 2010.06.04 00:33:39.
