data_PCOD9333081
_publ_section_title
;
Structure prediction by ZEFSAII (Michael W. Deem and Ramdas Pophale) SiO2 
 PCOD9333081
Probable space group: I 21 21 21
;
_chemical_formula_sum "Si O2"
_cell_formula_units_Z 48
_cell_length_a 16.656275
_cell_length_b 10.574311
_cell_length_c 14.386513
_cell_angle_alpha 90.000000
_cell_angle_beta 90.000000
_cell_angle_gamma 90.000000
_cell_volume 2533.876853
_symmetry_space_group_name_H-M "I 21 21 21"
_symmetry_group_IT_number 24
_symmetry_cell_setting 'orthorhombic'
loop_
_space_group_symop_operation_xyz
x,y,z
-x,1/2-y,z
x,-y,1/2-z
1/2-x,y,-z
1/2+x,1/2+y,1/2+z
1/2-x,-y,1/2+z
1/2+x,1/2-y,-z
-x,1/2+y,1/2-z
loop_
_atom_site_type_symbol
_atom_site_label
_atom_site_fract_x
_atom_site_fract_y
_atom_site_fract_z
Si Si1 0.585451 0.500000 0.250000
Si Si2 0.207611 0.187134 0.807965
Si Si3 0.986945 0.894879 0.910540
Si Si4 0.846528 0.500000 0.250000
Si Si5 0.750000 0.753647 0.000000
Si Si6 0.879887 0.464840 0.456027
Si Si7 0.815336 0.899707 0.831424
Si Si8 0.750000 0.320694 0.000000
O O1 0.644148 0.574154 0.319416
O O2 0.530553 0.412275 0.311949
O O3 0.169367 0.276788 0.732044
O O4 0.287298 0.118902 0.769770
O O5 0.226793 0.251384 0.906227
O O6 0.895615 0.933726 0.889110
O O7 0.000000 0.750000 0.938844
O O8 0.037484 0.970770 0.987340
O O9 0.892387 0.466574 0.344691
O O10 0.826367 0.657800 0.011674
O O11 0.744332 0.844698 0.090004
O O12 0.823121 0.585545 0.475039
O O13 0.792162 0.000000 0.750000
#
# Coordination Sequence:
#
# PCOD9333081 Si02
#       8
#     4   8   8   4   4   8   8   4
#     4  11  18  32  50  80 121 144 182 242 291 346
#     4  10  18  33  53  84 114 145 191 245 291 337
#     4  12  21  32  55  88 116 148 185 235 298 346
#     4   9  18  32  60  88 107 140 196 252 293 326
#     4  11  20  39  56  82 118 157 199 230 278 348
#     4  10  18  33  57  88 114 145 188 247 294 343
#     4  12  25  37  57  85 118 160 197 231 287 358
#     4   9  18  29  56  86 114 145 185 246 304 324
#
# _framework density 18.943304000000001
#
# number of rings (size 3 to 8) (size 9 to 14) (size 15 to 20)
#    0.000    1.333    7.500    0.000    0.000    0.667 
#    0.000    0.000    1.833    0.000    0.000    0.000 
#    0.000    0.000    0.000    0.000    0.000    0.000 
#
# Total GULP energy -133618.331542 kJ/mol
# GULP energy per Si atom -5567.430481 kJ/mol
# Density = 1.890019 g / cm^3
# Si number density = 18.943304 Si / 1000 Ang^3
#
#
#
# Elastic Constant Matrix: (Units=GPa)
#
#
# Indices 1 2 3 4 5 6 
#
# 1 45.7140 0.2787 21.2534 0.0000 0.0000 0.0000
# 2 0.2787 23.8068 1.6667 0.0000 0.0000 0.0000
# 3 21.2534 1.6667 101.6142 0.0000 0.0000 0.0000
# 4 0.0000 0.0000 0.0000 27.7762 0.0000 0.0000
# 5 0.0000 0.0000 0.0000 0.0000 28.6272 0.0000
# 6 0.0000 0.0000 0.0000 0.0000 0.0000 7.9988
#
#
#
# Elastic Compliance Matrix: (Units=1/GPa)
#
#
# Indices 1 2 3 4 5 6 
#
# 1 0.024232 0.000071 -0.005069 0.000000 0.000000 0.000000
# 2 0.000071 0.042053 -0.000705 0.000000 0.000000 0.000000
# 3 -0.005069 -0.000705 0.010913 0.000000 0.000000 0.000000
# 4 0.000000 0.000000 0.000000 0.036002 0.000000 0.000000
# 5 0.000000 0.000000 0.000000 0.000000 0.034932 0.000000
# 6 0.000000 0.000000 0.000000 0.000000 0.000000 0.125019
#
#
# Mechanical properties :
#
#
# Convention : Reuss Voigt Hill
#
# Bulk Modulus (GPa) = 15.19937 24.17030 19.68483
# Shear Modulus (GPa) = 16.31391 22.74284 19.52838
#
# Velocity S-wave (km/s) = 2.93780 3.46869 3.21422
# Velocity P-wave (km/s) = 4.42138 5.36930 4.91823
#
# Compressibility (1/GPa) = 0.06579222
#
# Stress axis : x y z
#
# Youngs Moduli (GPa) = 41.26852 23.77934 91.63380
#
# Poissons Ratio (x) = -0.00169 0.46453
# Poissons Ratio (y) = -0.00294 0.06457
# Poissons Ratio (z) = 0.20921 0.01676
#
# Static dielectric constant tensor:
#      x y z
#    x 1.658120 0.000000 0.000000 
#    y 0.000000 1.699700 0.000000 
#    z 0.000000 0.000000 1.707690 
# 
# From -- ./inp_files/26483.got.cif
#   From: 2010.05.17/outbox.cif.g08.bks.cpg/sg24_14_cif.got.tgz:26483.got - 2010.06.04 00:33:39.
