data_PCOD9333645
_publ_section_title
;
Structure prediction by ZEFSAII (Michael W. Deem and Ramdas Pophale) SiO2 
 PCOD9333645
Probable space group: I 21 21 21
;
_chemical_formula_sum "Si O2"
_cell_formula_units_Z 40
_cell_length_a 11.544628
_cell_length_b 9.006687
_cell_length_c 20.192475
_cell_angle_alpha 90.000000
_cell_angle_beta 90.000000
_cell_angle_gamma 90.000000
_cell_volume 2099.590348
_symmetry_space_group_name_H-M "I 21 21 21"
_symmetry_group_IT_number 24
_symmetry_cell_setting 'orthorhombic'
loop_
_space_group_symop_operation_xyz
x,y,z
-x,1/2-y,z
x,-y,1/2-z
1/2-x,y,-z
1/2+x,1/2+y,1/2+z
1/2-x,-y,1/2+z
1/2+x,1/2-y,-z
-x,1/2+y,1/2-z
loop_
_atom_site_type_symbol
_atom_site_label
_atom_site_fract_x
_atom_site_fract_y
_atom_site_fract_z
Si Si1 0.891822 0.070599 0.322861
Si Si2 0.168628 0.996874 0.937168
Si Si3 0.500000 0.250000 0.398283
Si Si4 0.500000 0.250000 0.104280
Si Si5 0.351200 0.075364 0.677326
Si Si6 0.148818 0.498329 0.828927
O O1 0.859120 0.245135 0.316010
O O2 0.779689 0.999506 0.356904
O O3 0.019626 0.042048 0.351664
O O4 0.901043 0.000000 0.250000
O O5 0.086136 0.140349 0.934145
O O6 0.084955 0.854102 0.939820
O O7 0.248824 0.976611 0.871327
O O8 0.250000 0.002643 0.000000
O O9 0.578278 0.140906 0.354060
O O10 0.420247 0.355307 0.148432
O O11 0.337678 0.000000 0.750000
O O12 0.156088 0.500000 0.750000
#
# Coordination Sequence:
#
# PCOD9333645 Si02
#       6
#     8   8   4   4   8   8
#     4   9  19  35  58  97 128 157 210 249 306 359
#     4  11  25  46  63  90 123 164 205 256 309 372
#     4  10  21  40  62  90 119 160 214 244 308 372
#     4  10  25  42  58  88 127 158 216 238 312 378
#     4  10  21  38  64  93 126 162 206 258 306 359
#     4  10  19  35  61  94 129 162 197 257 302 362
#
# _framework density 19.051335000000002
#
# number of rings (size 3 to 8) (size 9 to 14) (size 15 to 20)
#    0.000    2.000    2.000    0.600    5.600    4.800 
#    3.600    2.000    0.000    0.000    0.000    0.000 
#    0.000    0.000    0.000    0.000    0.000    0.000 
#
# Total GULP energy -111524.299145 kJ/mol
# GULP energy per Si atom -5576.214957 kJ/mol
# Density = 1.900797 g / cm^3
# Si number density = 19.051335 Si / 1000 Ang^3
#
#
#
# Elastic Constant Matrix: (Units=GPa)
#
#
# Indices 1 2 3 4 5 6 
#
# 1 169.3010 68.9435 48.7339 0.0000 0.0000 0.0000
# 2 68.9435 112.1170 37.5890 0.0000 0.0000 0.0000
# 3 48.7339 37.5890 65.9746 0.0000 0.0000 0.0000
# 4 0.0000 0.0000 0.0000 -1.9118 0.0000 0.0000
# 5 0.0000 0.0000 0.0000 0.0000 36.1213 0.0000
# 6 0.0000 0.0000 0.0000 0.0000 0.0000 18.2865
#
#
#
# Elastic Compliance Matrix: (Units=1/GPa)
#
#
# Indices 1 2 3 4 5 6 
#
# 1 0.008725 -0.003961 -0.004188 0.000000 0.000000 0.000000
# 2 -0.003961 0.012824 -0.004380 0.000000 0.000000 0.000000
# 3 -0.004188 -0.004380 0.020747 0.000000 0.000000 0.000000
# 4 0.000000 0.000000 0.000000 -0.523069 0.000000 0.000000
# 5 0.000000 0.000000 0.000000 0.000000 0.027684 0.000000
# 6 0.000000 0.000000 0.000000 0.000000 0.000000 0.054685
#
#
# Mechanical properties :
#
#
# Convention : Reuss Voigt Hill
#
# Bulk Modulus (GPa) = 58.01713 73.10284 65.55998
# Shear Modulus (GPa) = -13.60179 23.30761 4.85291
#
# Velocity S-wave (km/s) = -2.67489 3.50152 1.59775
# Velocity P-wave (km/s) = 4.58029 7.40286 6.15554
#
# Compressibility (1/GPa) = 0.01723629
#
# Stress axis : x y z
#
# Youngs Moduli (GPa) = 114.60821 77.98086 48.20028
#
# Poissons Ratio (x) = 0.30890 0.20188
# Poissons Ratio (y) = 0.45399 0.21113
# Poissons Ratio (z) = 0.48001 0.34157
#
# Static dielectric constant tensor:
#      x y z
#    x 1.713020 0.000000 0.000000 
#    y 0.000000 1.678470 0.000000 
#    z 0.000000 0.000000 1.608690 
# 
# From -- ./inp_files/11051.got.cif
#   From: 2010.05.17/outbox.cif.g08.bks.cpg/sg24_6_cif.got.tgz:11051.got - 2010.06.04 00:33:39.
