data_PCOD9333284
_publ_section_title
;
Structure prediction by ZEFSAII (Michael W. Deem and Ramdas Pophale) SiO2 
 PCOD9333284
Probable space group: I 21 21 21
;
_chemical_formula_sum "Si O2"
_cell_formula_units_Z 52
_cell_length_a 7.519749
_cell_length_b 16.760929
_cell_length_c 17.540817
_cell_angle_alpha 90.000000
_cell_angle_beta 90.000000
_cell_angle_gamma 90.000000
_cell_volume 2210.809126
_symmetry_space_group_name_H-M "I 21 21 21"
_symmetry_group_IT_number 24
_symmetry_cell_setting 'orthorhombic'
loop_
_space_group_symop_operation_xyz
x,y,z
-x,1/2-y,z
x,-y,1/2-z
1/2-x,y,-z
1/2+x,1/2+y,1/2+z
1/2-x,-y,1/2+z
1/2+x,1/2-y,-z
-x,1/2+y,1/2-z
loop_
_atom_site_type_symbol
_atom_site_label
_atom_site_fract_x
_atom_site_fract_y
_atom_site_fract_z
Si Si1 0.704764 0.000000 0.250000
Si Si2 0.241114 0.967003 0.418319
Si Si3 0.151350 0.466242 0.423338
Si Si4 0.141804 0.138189 0.617778
Si Si5 0.777867 0.345650 0.208645
Si Si6 0.237682 0.300737 0.396182
Si Si7 0.305186 0.670844 0.724525
O O1 0.763607 0.023178 0.338705
O O2 0.676672 0.094434 0.226267
O O3 0.250000 0.925667 0.500000
O O4 0.347926 0.050203 0.416569
O O5 0.038699 0.994925 0.411997
O O6 0.295758 0.910342 0.349915
O O7 0.250000 0.497682 0.500000
O O8 0.133076 0.370851 0.437464
O O9 0.209307 0.134064 0.706049
O O10 0.258881 0.208818 0.580646
O O11 0.941049 0.169123 0.611156
O O12 0.737475 0.253233 0.187576
O O13 0.994088 0.353078 0.201221
O O14 0.167025 0.301147 0.310839
#
# Coordination Sequence:
#
# PCOD9333284 Si02
#       7
#     4   8   8   8   8   8   8
#     4  10  18  38  68  96 116 164 212 262 320 384
#     4  12  25  40  58  89 131 172 219 267 327 386
#     4  11  23  41  64  93 130 168 223 272 323 393
#     4  10  20  38  63  93 128 165 211 269 330 396
#     4  10  20  38  62  89 122 170 210 266 319 386
#     4   9  20  37  61  97 127 160 212 269 336 397
#     4   9  18  36  66  90 120 161 219 262 311 391
#
# _framework density 23.520799
#
# number of rings (size 3 to 8) (size 9 to 14) (size 15 to 20)
#    0.000    1.846    1.538    3.231    0.000    2.462 
#   16.615    0.769    0.000    0.000    0.000    0.000 
#    0.000    0.000    0.000    0.000    0.000    0.000 
#
# Total GULP energy -144780.734162 kJ/mol
# GULP energy per Si atom -5568.489775 kJ/mol
# Density = 2.346726 g / cm^3
# Si number density = 23.520799 Si / 1000 Ang^3
#
#
#
# Elastic Constant Matrix: (Units=GPa)
#
#
# Indices 1 2 3 4 5 6 
#
# 1 63.5847 27.3095 17.5125 0.0000 0.0000 0.0000
# 2 27.3095 140.6087 45.1692 0.0000 0.0000 0.0000
# 3 17.5125 45.1692 137.9888 0.0000 0.0000 0.0000
# 4 0.0000 0.0000 0.0000 -114.1705 0.0000 0.0000
# 5 0.0000 0.0000 0.0000 0.0000 20.1249 0.0000
# 6 0.0000 0.0000 0.0000 0.0000 0.0000 3.6122
#
#
#
# Elastic Compliance Matrix: (Units=1/GPa)
#
#
# Indices 1 2 3 4 5 6 
#
# 1 0.017342 -0.002974 -0.001227 0.000000 0.000000 0.000000
# 2 -0.002974 0.008458 -0.002391 0.000000 0.000000 0.000000
# 3 -0.001227 -0.002391 0.008185 0.000000 0.000000 0.000000
# 4 0.000000 0.000000 0.000000 -0.008759 0.000000 0.000000
# 5 0.000000 0.000000 0.000000 0.000000 0.049690 0.000000
# 6 0.000000 0.000000 0.000000 0.000000 0.000000 0.276838
#
#
# Mechanical properties :
#
#
# Convention : Reuss Voigt Hill
#
# Bulk Modulus (GPa) = 48.07587 58.01829 53.04708
# Shear Modulus (GPa) = 13.44546 -1.27395 6.08575
#
# Velocity S-wave (km/s) = 2.39350 -0.73675 1.61028
# Velocity P-wave (km/s) = 5.30307 4.89863 5.10486
#
# Compressibility (1/GPa) = 0.02080046
#
# Stress axis : x y z
#
# Youngs Moduli (GPa) = 57.66200 118.23588 122.16806
#
# Poissons Ratio (x) = 0.35163 0.14996
# Poissons Ratio (y) = 0.17149 0.29212
# Poissons Ratio (z) = 0.07078 0.28271
#
# Static dielectric constant tensor:
#      x y z
#    x 2.298080 0.000000 0.000000 
#    y 0.000000 1.970100 0.000000 
#    z 0.000000 0.000000 1.925550 
# 
# From -- ./inp_files/29656.got.cif
#   From: 2010.05.17/outbox.cif.g08.bks.cpg/sg24_15_cif.got.tgz:29656.got - 2010.06.04 00:33:39.
