data_PCOD9333613
_publ_section_title
;
Structure prediction by ZEFSAII (Michael W. Deem and Ramdas Pophale) SiO2 
 PCOD9333613
Probable space group: I 21 21 21
;
_chemical_formula_sum "Si O2"
_cell_formula_units_Z 56
_cell_length_a 14.929501
_cell_length_b 20.023458
_cell_length_c 8.743369
_cell_angle_alpha 90.000000
_cell_angle_beta 90.000000
_cell_angle_gamma 90.000000
_cell_volume 2613.744794
_symmetry_space_group_name_H-M "I 21 21 21"
_symmetry_group_IT_number 24
_symmetry_cell_setting 'orthorhombic'
loop_
_space_group_symop_operation_xyz
x,y,z
-x,1/2-y,z
x,-y,1/2-z
1/2-x,y,-z
1/2+x,1/2+y,1/2+z
1/2-x,-y,1/2+z
1/2+x,1/2-y,-z
-x,1/2+y,1/2-z
loop_
_atom_site_type_symbol
_atom_site_label
_atom_site_fract_x
_atom_site_fract_y
_atom_site_fract_z
Si Si1 0.352412 0.395891 0.527994
Si Si2 0.722096 0.717640 0.652826
Si Si3 0.902802 0.762605 0.837058
Si Si4 0.335614 0.362794 0.892074
Si Si5 0.532104 0.022857 0.930471
Si Si6 0.845637 0.496772 0.430655
Si Si7 0.649508 0.345302 0.563291
O O1 0.250000 0.415944 0.500000
O O2 0.381771 0.333860 0.419101
O O3 0.345204 0.376028 0.708415
O O4 0.416194 0.459283 0.499812
O O5 0.750000 0.680025 0.500000
O O6 0.813238 0.743763 0.738792
O O7 0.666419 0.782844 0.601897
O O8 0.660957 0.673164 0.760984
O O9 0.000000 0.750000 0.758018
O O10 0.907516 0.708598 0.974430
O O11 0.413290 0.409693 0.954689
O O12 0.250000 0.381781 0.000000
O O13 0.527262 0.000000 0.750000
O O14 0.431424 0.037215 0.983376
O O15 0.833479 0.500000 0.250000
O O16 0.750000 0.511091 0.500000
O O17 0.876316 0.420741 0.465079
O O18 0.750000 0.338689 0.500000
#
# Coordination Sequence:
#
# PCOD9333613 Si02
#       7
#     8   8   8   8   8   8   8
#     4  11  18  34  58  88 118 161 201 248 303 355
#     4  10  20  37  62  85 124 160 196 246 312 366
#     4  11  20  34  59  89 120 154 205 254 299 360
#     4  10  19  35  58  86 125 165 194 247 301 363
#     4   9  20  34  57  86 120 157 207 250 299 364
#     4  10  21  40  63  84 118 157 202 257 310 359
#     4   9  18  36  60  85 110 155 200 244 297 356
#
# _framework density 21.4252
#
# number of rings (size 3 to 8) (size 9 to 14) (size 15 to 20)
#    0.000    2.000    2.857    1.714    0.000    0.571 
#    0.000    2.143   25.143    0.000    0.000    0.000 
#    0.000    0.000    0.000    0.000    0.000    0.000 
#
# Total GULP energy -155990.064159 kJ/mol
# GULP energy per Si atom -5571.073720 kJ/mol
# Density = 2.137644 g / cm^3
# Si number density = 21.425200 Si / 1000 Ang^3
#
#
#
# Elastic Constant Matrix: (Units=GPa)
#
#
# Indices 1 2 3 4 5 6 
#
# 1 122.9625 40.6711 -0.2024 0.0000 0.0000 0.0000
# 2 40.6711 33.1611 -1.7121 0.0000 0.0000 0.0000
# 3 -0.2024 -1.7121 41.2352 0.0000 0.0000 0.0000
# 4 0.0000 0.0000 0.0000 6.5051 0.0000 0.0000
# 5 0.0000 0.0000 0.0000 0.0000 6.0002 0.0000
# 6 0.0000 0.0000 0.0000 0.0000 0.0000 -6.3206
#
#
#
# Elastic Compliance Matrix: (Units=1/GPa)
#
#
# Indices 1 2 3 4 5 6 
#
# 1 0.013700 -0.016835 -0.000632 0.000000 0.000000 0.000000
# 2 -0.016835 0.050908 0.002031 0.000000 0.000000 0.000000
# 3 -0.000632 0.002031 0.024332 0.000000 0.000000 0.000000
# 4 0.000000 0.000000 0.000000 0.153725 0.000000 0.000000
# 5 0.000000 0.000000 0.000000 0.000000 0.166661 0.000000
# 6 0.000000 0.000000 0.000000 0.000000 0.000000 -0.158214
#
#
# Mechanical properties :
#
#
# Convention : Reuss Voigt Hill
#
# Bulk Modulus (GPa) = 17.22086 30.54134 23.88110
# Shear Modulus (GPa) = 16.59249 11.81043 14.20146
#
# Velocity S-wave (km/s) = 2.78589 2.35040 2.57736
# Velocity P-wave (km/s) = 4.28992 4.65313 4.47521
#
# Compressibility (1/GPa) = 0.05806911
#
# Stress axis : x y z
#
# Youngs Moduli (GPa) = 72.99313 19.64311 41.09756
#
# Poissons Ratio (x) = 0.33069 0.02596
# Poissons Ratio (y) = 1.22885 -0.08347
# Poissons Ratio (z) = 0.04611 -0.03990
#
# Static dielectric constant tensor:
#      x y z
#    x 1.808120 0.000000 0.000000 
#    y 0.000000 1.936940 0.000000 
#    z 0.000000 0.000000 1.913910 
# 
# From -- ./inp_files/13119.got.cif
#   From: 2010.05.17/outbox.cif.g08.bks.cpg/sg24_7_cif.got.tgz:13119.got - 2010.06.04 00:33:39.
