data_PCOD9333703
_publ_section_title
;
Structure prediction by ZEFSAII (Michael W. Deem and Ramdas Pophale) SiO2 
 PCOD9333703
Probable space group: I 21 21 21
;
_chemical_formula_sum "Si O2"
_cell_formula_units_Z 60
_cell_length_a 10.507846
_cell_length_b 9.541964
_cell_length_c 26.731252
_cell_angle_alpha 90.000000
_cell_angle_beta 90.000000
_cell_angle_gamma 90.000000
_cell_volume 2680.222033
_symmetry_space_group_name_H-M "I 21 21 21"
_symmetry_group_IT_number 24
_symmetry_cell_setting 'orthorhombic'
loop_
_space_group_symop_operation_xyz
x,y,z
-x,1/2-y,z
x,-y,1/2-z
1/2-x,y,-z
1/2+x,1/2+y,1/2+z
1/2-x,-y,1/2+z
1/2+x,1/2-y,-z
-x,1/2+y,1/2-z
loop_
_atom_site_type_symbol
_atom_site_label
_atom_site_fract_x
_atom_site_fract_y
_atom_site_fract_z
Si Si1 0.280042 0.475056 0.664053
Si Si2 0.931069 0.105297 0.536974
Si Si3 0.000000 0.750000 0.712515
Si Si4 0.278337 0.915410 0.868040
Si Si5 0.141187 0.787013 0.340635
Si Si6 0.357179 0.656968 0.930201
Si Si7 0.503431 0.005643 0.366267
Si Si8 0.723667 0.736500 0.765535
O O1 0.278634 0.642481 0.659770
O O2 0.376853 0.426585 0.621038
O O3 0.136644 0.425259 0.650499
O O4 0.309972 0.391945 0.714407
O O5 0.941855 0.105946 0.476788
O O6 0.783770 0.121316 0.550419
O O7 0.979015 0.981511 0.573612
O O8 0.000000 0.250000 0.551704
O O9 0.989733 0.618305 0.674376
O O10 0.127541 0.758234 0.746903
O O11 0.343167 0.817469 0.910211
O O12 0.310621 0.857202 0.813265
O O13 0.125229 0.906588 0.866175
O O14 0.308281 0.080309 0.870848
O O15 0.145700 0.819372 0.281623
O O16 0.000000 0.750000 0.356911
#
# Coordination Sequence:
#
# PCOD9333703 Si02
#       8
#     8   8   4   8   8   8   8   8
#     4  10  22  40  61  91 129 174 218 269 328 398
#     4  10  19  36  63  94 125 161 206 270 328 390
#     4  12  22  36  64 104 142 172 210 272 344 416
#     4  11  22  40  63  96 130 173 220 277 326 396
#     4  12  26  41  58  85 133 178 228 270 320 392
#     4   9  21  38  64  92 124 161 217 264 330 395
#     4  11  20  36  65  96 134 164 209 277 345 395
#     4  11  23  37  62  96 132 177 221 263 325 403
#
# _framework density 22.386206999999999
#
# number of rings (size 3 to 8) (size 9 to 14) (size 15 to 20)
#    0.000    1.333    4.000    1.600    0.000    4.267 
#    0.000    2.667    4.400    1.600    0.000    0.000 
#    0.000    0.000    0.000    0.000    0.000    0.000 
#
# Total GULP energy -167128.514070 kJ/mol
# GULP energy per Si atom -5570.950469 kJ/mol
# Density = 2.233525 g / cm^3
# Si number density = 22.386207 Si / 1000 Ang^3
#
#
#
# Elastic Constant Matrix: (Units=GPa)
#
#
# Indices 1 2 3 4 5 6 
#
# 1 27.3582 -0.8723 -1.9324 0.0000 0.0000 0.0000
# 2 -0.8723 104.1829 36.8931 0.0000 0.0000 0.0000
# 3 -1.9324 36.8931 113.3555 0.0000 0.0000 0.0000
# 4 0.0000 0.0000 0.0000 -10.5375 0.0000 0.0000
# 5 0.0000 0.0000 0.0000 0.0000 30.4354 0.0000
# 6 0.0000 0.0000 0.0000 0.0000 0.0000 5.7334
#
#
#
# Elastic Compliance Matrix: (Units=1/GPa)
#
#
# Indices 1 2 3 4 5 6 
#
# 1 0.036597 0.000097 0.000592 0.000000 0.000000 0.000000
# 2 0.000097 0.010849 -0.003529 0.000000 0.000000 0.000000
# 3 0.000592 -0.003529 0.009981 0.000000 0.000000 0.000000
# 4 0.000000 0.000000 0.000000 -0.094899 0.000000 0.000000
# 5 0.000000 0.000000 0.000000 0.000000 0.032856 0.000000
# 6 0.000000 0.000000 0.000000 0.000000 0.000000 0.174417
#
#
# Mechanical properties :
#
#
# Convention : Reuss Voigt Hill
#
# Bulk Modulus (GPa) = 19.32510 34.78593 27.05552
# Shear Modulus (GPa) = 25.94291 19.18013 22.56152
#
# Velocity S-wave (km/s) = 3.40792 2.93026 3.17808
# Velocity P-wave (km/s) = 4.91290 5.19820 5.05756
#
# Compressibility (1/GPa) = 0.05174616
#
# Stress axis : x y z
#
# Youngs Moduli (GPa) = 27.32460 92.17338 100.19460
#
# Poissons Ratio (x) = -0.00890 -0.05936
# Poissons Ratio (y) = -0.00264 0.35362
# Poissons Ratio (z) = -0.01619 0.32531
#
# Static dielectric constant tensor:
#      x y z
#    x 1.883340 0.000000 0.000000 
#    y 0.000000 1.878060 0.000000 
#    z 0.000000 0.000000 1.895790 
# 
# From -- ./inp_files/37230.got.cif
#   From: 2010.05.17/outbox.cif.g08.bks.cpg/sg24_19_cif.got.tgz:37230.got - 2010.06.04 00:33:39.
