data_PCOD9333716
_publ_section_title
;
Structure prediction by ZEFSAII (Michael W. Deem and Ramdas Pophale) SiO2 
 PCOD9333716
Probable space group: I 21 21 21
;
_chemical_formula_sum "Si O2"
_cell_formula_units_Z 64
_cell_length_a 10.444942
_cell_length_b 19.134764
_cell_length_c 18.240313
_cell_angle_alpha 90.000000
_cell_angle_beta 90.000000
_cell_angle_gamma 90.000000
_cell_volume 3645.536320
_symmetry_space_group_name_H-M "I 21 21 21"
_symmetry_group_IT_number 24
_symmetry_cell_setting 'orthorhombic'
loop_
_space_group_symop_operation_xyz
x,y,z
-x,1/2-y,z
x,-y,1/2-z
1/2-x,y,-z
1/2+x,1/2+y,1/2+z
1/2-x,-y,1/2+z
1/2+x,1/2-y,-z
-x,1/2+y,1/2-z
loop_
_atom_site_type_symbol
_atom_site_label
_atom_site_fract_x
_atom_site_fract_y
_atom_site_fract_z
Si Si1 0.626882 0.348223 0.949175
Si Si2 0.630657 0.485418 0.554180
Si Si3 0.722396 0.572214 0.795339
Si Si4 0.123484 0.352795 0.955515
Si Si5 0.131295 0.210770 0.213060
Si Si6 0.381011 0.478939 0.459445
Si Si7 0.119206 0.300754 0.789222
Si Si8 0.527727 0.931542 0.198954
O O1 0.626660 0.431188 0.929790
O O2 0.629597 0.306285 0.873825
O O3 0.750000 0.335401 0.000000
O O4 0.501028 0.334237 0.997134
O O5 0.750000 0.474844 0.500000
O O6 0.655830 0.442402 0.627264
O O7 0.500446 0.466029 0.513123
O O8 0.709945 0.500000 0.750000
O O9 0.659024 0.637701 0.754158
O O10 0.875125 0.583784 0.806343
O O11 0.125084 0.437112 0.947418
O O12 0.119330 0.320688 0.875083
O O13 0.250000 0.332182 0.000000
O O14 0.249825 0.261601 0.228409
O O15 0.000000 0.250000 0.232779
O O16 0.250000 0.457535 0.500000
O O17 0.411957 0.445273 0.380837
O O18 0.097475 0.368985 0.740624
O O19 0.000000 0.250000 0.776002
O O20 0.540010 0.000000 0.250000
#
# Coordination Sequence:
#
# PCOD9333716 Si02
#       8
#     8   8   8   8   8   8   8   8
#     4  10  21  35  58  89 124 166 212 243 299 374
#     4  10  19  36  65  94 118 154 210 265 304 354
#     4  11  22  40  68  93 120 167 220 260 302 362
#     4  10  21  37  56  87 129 170 202 243 303 377
#     4  12  26  41  57  91 134 170 202 258 318 369
#     4  10  21  38  62  94 125 156 203 261 317 363
#     4  12  24  39  62  91 125 170 214 249 311 370
#     4  11  22  40  68  93 121 167 217 262 302 362
#
# _framework density 17.555717000000001
#
# number of rings (size 3 to 8) (size 9 to 14) (size 15 to 20)
#    0.000    1.250    5.000    1.500    0.000    4.000 
#    0.000    1.250    0.000    4.500    0.000    0.000 
#    0.000    0.000    0.000    0.000    0.000    0.000 
#
# Total GULP energy -178873.849125 kJ/mol
# GULP energy per Si atom -5589.807785 kJ/mol
# Density = 1.751576 g / cm^3
# Si number density = 17.555717 Si / 1000 Ang^3
#
#
#
# Elastic Constant Matrix: (Units=GPa)
#
#
# Indices 1 2 3 4 5 6 
#
# 1 173.7913 70.0196 64.3188 0.0000 0.0000 0.0000
# 2 70.0196 113.3942 65.9236 0.0000 0.0000 0.0000
# 3 64.3188 65.9236 105.2835 0.0000 0.0000 0.0000
# 4 0.0000 0.0000 0.0000 39.1250 0.0000 0.0000
# 5 0.0000 0.0000 0.0000 0.0000 6.3316 0.0000
# 6 0.0000 0.0000 0.0000 0.0000 0.0000 37.8322
#
#
#
# Elastic Compliance Matrix: (Units=1/GPa)
#
#
# Indices 1 2 3 4 5 6 
#
# 1 0.008181 -0.003375 -0.002885 0.000000 0.000000 0.000000
# 2 -0.003375 0.015259 -0.007493 0.000000 0.000000 0.000000
# 3 -0.002885 -0.007493 0.015952 0.000000 0.000000 0.000000
# 4 0.000000 0.000000 0.000000 0.025559 0.000000 0.000000
# 5 0.000000 0.000000 0.000000 0.000000 0.157938 0.000000
# 6 0.000000 0.000000 0.000000 0.000000 0.000000 0.026433
#
#
# Mechanical properties :
#
#
# Convention : Reuss Voigt Hill
#
# Bulk Modulus (GPa) = 84.12158 88.11033 86.11596
# Shear Modulus (GPa) = 17.80699 29.47157 23.63928
#
# Velocity S-wave (km/s) = 3.18828 4.10169 3.67349
# Velocity P-wave (km/s) = 7.84694 8.52818 8.19464
#
# Compressibility (1/GPa) = 0.01188756
#
# Stress axis : x y z
#
# Youngs Moduli (GPa) = 122.22864 65.53717 62.68740
#
# Poissons Ratio (x) = 0.22116 0.18086
# Poissons Ratio (y) = 0.41248 0.46969
# Poissons Ratio (z) = 0.35264 0.49104
#
# Static dielectric constant tensor:
#      x y z
#    x 1.589460 0.000000 0.000000 
#    y 0.000000 1.598480 0.000000 
#    z 0.000000 0.000000 1.562090 
# 
# From -- ./inp_files/29805.got.cif
#   From: 2010.05.17/outbox.cif.g08.bks.cpg/sg24_15_cif.got.tgz:29805.got - 2010.06.04 00:33:39.
