data_PCOD9333031
_publ_section_title
;
Structure prediction by ZEFSAII (Michael W. Deem and Ramdas Pophale) SiO2 
 PCOD9333031
Probable space group: I 21 21 21
;
_chemical_formula_sum "Si O2"
_cell_formula_units_Z 60
_cell_length_a 5.747244
_cell_length_b 18.674894
_cell_length_c 23.972776
_cell_angle_alpha 90.000000
_cell_angle_beta 90.000000
_cell_angle_gamma 90.000000
_cell_volume 2572.978210
_symmetry_space_group_name_H-M "I 21 21 21"
_symmetry_group_IT_number 24
_symmetry_cell_setting 'orthorhombic'
loop_
_space_group_symop_operation_xyz
x,y,z
-x,1/2-y,z
x,-y,1/2-z
1/2-x,y,-z
1/2+x,1/2+y,1/2+z
1/2-x,-y,1/2+z
1/2+x,1/2-y,-z
-x,1/2+y,1/2-z
loop_
_atom_site_type_symbol
_atom_site_label
_atom_site_fract_x
_atom_site_fract_y
_atom_site_fract_z
Si Si1 0.249755 0.171912 0.566859
Si Si2 0.120559 0.657221 0.672700
Si Si3 0.989617 0.583854 0.403218
Si Si4 0.250000 0.563162 0.500000
Si Si5 0.245793 0.337417 0.608987
Si Si6 0.912196 0.673889 0.560720
Si Si7 0.230071 0.932602 0.288657
Si Si8 0.882841 0.179480 0.271368
O O1 0.250000 0.177590 0.500000
O O2 0.242861 0.252573 0.592464
O O3 0.498277 0.138933 0.586375
O O4 0.003696 0.135482 0.585074
O O5 0.322509 0.627281 0.633093
O O6 0.225090 0.706645 0.720054
O O7 0.934134 0.682080 0.627845
O O8 0.993184 0.595349 0.707401
O O9 0.097394 0.530604 0.449730
O O10 0.847430 0.642548 0.440246
O O11 0.839868 0.550615 0.353134
O O12 0.421782 0.612768 0.463359
O O13 0.249661 0.351718 0.675412
O O14 0.000000 0.750000 0.537464
O O15 0.065181 0.873430 0.258682
O O16 0.209928 0.000000 0.250000
O O17 0.000000 0.250000 0.295404
#
# Coordination Sequence:
#
# PCOD9333031 Si02
#       8
#     8   8   8   4   8   8   8   8
#     4  10  18  32  51  80 122 168 210 252 312 405
#     4   9  22  35  57  82 122 164 212 265 330 389
#     4   9  20  39  56  90 118 166 225 272 325 386
#     4  10  20  32  56  86 126 166 216 266 320 386
#     4  10  19  31  51  83 120 160 213 245 326 386
#     4  10  21  32  51  82 127 174 213 255 322 395
#     4  10  23  43  64  90 126 174 228 278 335 406
#     4  11  23  36  60  94 130 165 205 274 335 405
#
# _framework density 23.319279999999999
#
# number of rings (size 3 to 8) (size 9 to 14) (size 15 to 20)
#    0.000    2.133    1.333    2.400    9.333    3.200 
#    0.000    0.000    0.000    0.000    5.200    0.000 
#    0.000    0.000    0.000    0.000    0.000    0.000 
#
# Total GULP energy -167022.685441 kJ/mol
# GULP energy per Si atom -5567.422848 kJ/mol
# Density = 2.326620 g / cm^3
# Si number density = 23.319280 Si / 1000 Ang^3
#
#
#
# Elastic Constant Matrix: (Units=GPa)
#
#
# Indices 1 2 3 4 5 6 
#
# 1 137.2017 8.2304 47.6067 0.0000 0.0000 0.0000
# 2 8.2304 38.8777 2.1185 0.0000 0.0000 0.0000
# 3 47.6067 2.1185 158.1502 0.0000 0.0000 0.0000
# 4 0.0000 0.0000 0.0000 10.9844 0.0000 0.0000
# 5 0.0000 0.0000 0.0000 0.0000 47.1350 0.0000
# 6 0.0000 0.0000 0.0000 0.0000 0.0000 1.8501
#
#
#
# Elastic Compliance Matrix: (Units=1/GPa)
#
#
# Indices 1 2 3 4 5 6 
#
# 1 0.008238 -0.001610 -0.002458 0.000000 0.000000 0.000000
# 2 -0.001610 0.026055 0.000136 0.000000 0.000000 0.000000
# 3 -0.002458 0.000136 0.007061 0.000000 0.000000 0.000000
# 4 0.000000 0.000000 0.000000 0.091038 0.000000 0.000000
# 5 0.000000 0.000000 0.000000 0.000000 0.021216 0.000000
# 6 0.000000 0.000000 0.000000 0.000000 0.000000 0.540511
#
#
# Mechanical properties :
#
#
# Convention : Reuss Voigt Hill
#
# Bulk Modulus (GPa) = 29.86043 50.01564 39.93803
# Shear Modulus (GPa) = 7.01117 30.41217 18.71167
#
# Velocity S-wave (km/s) = 1.73584 3.61524 2.83576
# Velocity P-wave (km/s) = 4.10492 6.23870 5.28071
#
# Compressibility (1/GPa) = 0.03348914
#
# Stress axis : x y z
#
# Youngs Moduli (GPa) = 121.38717 38.38015 141.61732
#
# Poissons Ratio (x) = 0.06179 0.34814
# Poissons Ratio (y) = 0.19544 -0.01921
# Poissons Ratio (z) = 0.29840 -0.00521
#
# Static dielectric constant tensor:
#      x y z
#    x 2.080420 0.000000 0.000000 
#    y 0.000000 1.897360 0.000000 
#    z 0.000000 0.000000 1.899630 
# 
# From -- ./inp_files/34819.got.cif
#   From: 2010.05.17/outbox.cif.g08.bks.cpg/sg24_18_cif.got.tgz:34819.got - 2010.06.04 00:33:39.
