data_PCOD9333427
_publ_section_title
;
Structure prediction by ZEFSAII (Michael W. Deem and Ramdas Pophale) SiO2 
 PCOD9333427
Probable space group: I 21 21 21
;
_chemical_formula_sum "Si O2"
_cell_formula_units_Z 52
_cell_length_a 27.667540
_cell_length_b 7.316510
_cell_length_c 11.924109
_cell_angle_alpha 90.000000
_cell_angle_beta 90.000000
_cell_angle_gamma 90.000000
_cell_volume 2413.795395
_symmetry_space_group_name_H-M "I 21 21 21"
_symmetry_group_IT_number 24
_symmetry_cell_setting 'orthorhombic'
loop_
_space_group_symop_operation_xyz
x,y,z
-x,1/2-y,z
x,-y,1/2-z
1/2-x,y,-z
1/2+x,1/2+y,1/2+z
1/2-x,-y,1/2+z
1/2+x,1/2-y,-z
-x,1/2+y,1/2-z
loop_
_atom_site_type_symbol
_atom_site_label
_atom_site_fract_x
_atom_site_fract_y
_atom_site_fract_z
Si Si1 0.819688 0.792463 0.218119
Si Si2 0.376929 0.330590 0.116560
Si Si3 0.447005 0.195524 0.294701
Si Si4 0.334394 0.281493 0.467328
Si Si5 0.579646 0.493201 0.505492
Si Si6 0.283128 0.720396 0.260926
Si Si7 0.403043 0.000000 0.750000
O O1 0.771624 0.719269 0.280646
O O2 0.866103 0.671184 0.245712
O O3 0.830147 0.000000 0.250000
O O4 0.807519 0.803762 0.085322
O O5 0.407257 0.321573 0.234235
O O6 0.363533 0.528869 0.063382
O O7 0.324564 0.244575 0.147754
O O8 0.409046 0.198475 0.037867
O O9 0.500000 0.250000 0.253234
O O10 0.452011 0.138945 0.425365
O O11 0.430890 0.000000 0.250000
O O12 0.370491 0.116805 0.492773
O O13 0.303239 0.224064 0.360267
O O14 0.566712 0.500111 0.635686
O O15 0.280294 0.500000 0.250000
#
# Coordination Sequence:
#
# PCOD9333427 Si02
#       7
#     8   8   8   8   8   8   4
#     4  10  20  34  50  78 111 153 204 238 269 321
#     4  10  20  36  56  84 117 151 181 235 304 347
#     4  10  22  36  61  92 117 141 181 240 300 367
#     4  10  19  32  55  76 111 154 185 233 282 340
#     4  10  21  37  56  82 111 148 190 231 290 341
#     4   9  18  31  51  77 114 149 191 236 284 334
#     4  10  22  38  56  78 110 156 200 240 268 340
#
# _framework density 21.542836999999999
#
# number of rings (size 3 to 8) (size 9 to 14) (size 15 to 20)
#    0.000    2.154    1.538    1.385    2.154    1.231 
#    0.000    3.846    0.000    3.692    2.000    0.000 
#    0.000    0.000    0.000    0.000    0.000    0.000 
#
# Total GULP energy -144740.080400 kJ/mol
# GULP energy per Si atom -5566.926169 kJ/mol
# Density = 2.149380 g / cm^3
# Si number density = 21.542837 Si / 1000 Ang^3
#
#
#
# Elastic Constant Matrix: (Units=GPa)
#
#
# Indices 1 2 3 4 5 6 
#
# 1 40.0799 5.1182 -7.6954 0.0000 0.0000 0.0000
# 2 5.1182 85.9287 5.7788 0.0000 0.0000 0.0000
# 3 -7.6954 5.7788 89.1968 0.0000 0.0000 0.0000
# 4 0.0000 0.0000 0.0000 21.5299 0.0000 0.0000
# 5 0.0000 0.0000 0.0000 0.0000 16.2404 0.0000
# 6 0.0000 0.0000 0.0000 0.0000 0.0000 13.2220
#
#
#
# Elastic Compliance Matrix: (Units=1/GPa)
#
#
# Indices 1 2 3 4 5 6 
#
# 1 0.025610 -0.001681 0.002318 0.000000 0.000000 0.000000
# 2 -0.001681 0.011799 -0.000909 0.000000 0.000000 0.000000
# 3 0.002318 -0.000909 0.011470 0.000000 0.000000 0.000000
# 4 0.000000 0.000000 0.000000 0.046447 0.000000 0.000000
# 5 0.000000 0.000000 0.000000 0.000000 0.061575 0.000000
# 6 0.000000 0.000000 0.000000 0.000000 0.000000 0.075632
#
#
# Mechanical properties :
#
#
# Convention : Reuss Voigt Hill
#
# Bulk Modulus (GPa) = 20.68929 24.62319 22.65624
# Shear Modulus (GPa) = 20.06511 24.33204 22.19857
#
# Velocity S-wave (km/s) = 3.05520 3.36441 3.21353
# Velocity P-wave (km/s) = 4.69791 5.15238 4.93038
#
# Compressibility (1/GPa) = 0.04833419
#
# Stress axis : x y z
#
# Youngs Moduli (GPa) = 39.04723 84.75391 87.18320
#
# Poissons Ratio (x) = 0.14250 -0.20213
# Poissons Ratio (y) = 0.06565 0.07929
# Poissons Ratio (z) = -0.09053 0.07708
#
# Static dielectric constant tensor:
#      x y z
#    x 1.778470 0.000000 0.000000 
#    y 0.000000 1.791160 0.000000 
#    z 0.000000 0.000000 1.956900 
# 
# From -- ./inp_files/22925.got.cif
#   From: 2010.05.17/outbox.cif.g08.bks.cpg/sg24_12_cif.got.tgz:22925.got - 2010.06.04 00:33:39.
