data_PCOD9333116
_publ_section_title
;
Structure prediction by ZEFSAII (Michael W. Deem and Ramdas Pophale) SiO2 
 PCOD9333116
Probable space group: I 21 21 21
;
_chemical_formula_sum "Si O2"
_cell_formula_units_Z 48
_cell_length_a 20.712488
_cell_length_b 5.212374
_cell_length_c 17.851928
_cell_angle_alpha 90.000000
_cell_angle_beta 90.000000
_cell_angle_gamma 90.000000
_cell_volume 1927.316175
_symmetry_space_group_name_H-M "I 21 21 21"
_symmetry_group_IT_number 24
_symmetry_cell_setting 'orthorhombic'
loop_
_space_group_symop_operation_xyz
x,y,z
-x,1/2-y,z
x,-y,1/2-z
1/2-x,y,-z
1/2+x,1/2+y,1/2+z
1/2-x,-y,1/2+z
1/2+x,1/2-y,-z
-x,1/2+y,1/2-z
loop_
_atom_site_type_symbol
_atom_site_label
_atom_site_fract_x
_atom_site_fract_y
_atom_site_fract_z
Si Si1 0.396657 0.760578 0.709240
Si Si2 0.428413 0.879279 0.410305
Si Si3 0.266342 0.638992 0.912661
Si Si4 0.248781 0.851086 0.680295
Si Si5 0.100592 0.606978 0.445832
Si Si6 0.000000 0.750000 0.001208
Si Si7 0.954087 0.500000 0.750000
O O1 0.416725 0.500000 0.750000
O O2 0.318465 0.773770 0.714783
O O3 0.406958 0.803929 0.621183
O O4 0.426552 0.000000 0.750000
O O5 0.500000 0.750000 0.408290
O O6 0.387193 0.727138 0.471952
O O7 0.413339 0.921186 0.323641
O O8 0.442337 0.151304 0.448467
O O9 0.231295 0.417400 0.861873
O O10 0.342639 0.573168 0.914870
O O11 0.254092 0.923529 0.881581
O O12 0.250000 0.620964 0.000000
O O13 0.215450 0.000000 0.750000
O O14 0.032924 0.465766 0.451294
O O15 0.000000 0.250000 0.732380
#
# Coordination Sequence:
#
# PCOD9333116 Si02
#       7
#     8   8   8   8   8   4   4
#     4  10  20  35  60  90 118 159 212 252 297 359
#     4   9  19  34  56  84 112 152 199 245 295 359
#     4  11  23  38  62  95 123 158 203 259 312 368
#     4  10  19  37  63  91 117 160 210 251 298 367
#     4  10  22  36  62  86 123 159 204 256 305 368
#     4  10  20  36  60  88 112 166 200 246 302 366
#     4  10  18  34  56  84 110 146 202 244 282 352
#
# _framework density 24.905097999999999
#
# number of rings (size 3 to 8) (size 9 to 14) (size 15 to 20)
#    0.000    2.000    0.833    5.000    7.000    0.000 
#    0.000    0.000    7.333    2.000    0.000    0.000 
#    0.000    0.000    0.000    0.000    0.000    0.000 
#
# Total GULP energy -133918.850310 kJ/mol
# GULP energy per Si atom -5579.952096 kJ/mol
# Density = 2.484841 g / cm^3
# Si number density = 24.905098 Si / 1000 Ang^3
#
#
#
# Elastic Constant Matrix: (Units=GPa)
#
#
# Indices 1 2 3 4 5 6 
#
# 1 36.4100 4.2661 22.0630 0.0000 0.0000 0.0000
# 2 4.2661 147.2637 32.8363 0.0000 0.0000 0.0000
# 3 22.0630 32.8363 122.4887 0.0000 0.0000 0.0000
# 4 0.0000 0.0000 0.0000 49.3429 0.0000 0.0000
# 5 0.0000 0.0000 0.0000 0.0000 8.7082 0.0000
# 6 0.0000 0.0000 0.0000 0.0000 0.0000 -46.7859
#
#
#
# Elastic Compliance Matrix: (Units=1/GPa)
#
#
# Indices 1 2 3 4 5 6 
#
# 1 0.030849 0.000367 -0.005655 0.000000 0.000000 0.000000
# 2 0.000367 0.007227 -0.002003 0.000000 0.000000 0.000000
# 3 -0.005655 -0.002003 0.009720 0.000000 0.000000 0.000000
# 4 0.000000 0.000000 0.000000 0.020266 0.000000 0.000000
# 5 0.000000 0.000000 0.000000 0.000000 0.114834 0.000000
# 6 0.000000 0.000000 0.000000 0.000000 0.000000 -0.021374
#
#
# Mechanical properties :
#
#
# Convention : Reuss Voigt Hill
#
# Bulk Modulus (GPa) = 30.10905 47.16591 38.63748
# Shear Modulus (GPa) = 26.71300 18.71952 22.71626
#
# Velocity S-wave (km/s) = 3.27860 2.74457 3.02340
# Velocity P-wave (km/s) = 5.14276 5.38729 5.26645
#
# Compressibility (1/GPa) = 0.03321261
#
# Stress axis : x y z
#
# Youngs Moduli (GPa) = 32.41636 138.37733 102.88404
#
# Poissons Ratio (x) = -0.05082 0.58181
# Poissons Ratio (y) = -0.01191 0.20612
# Poissons Ratio (z) = 0.18331 0.27723
#
# Static dielectric constant tensor:
#      x y z
#    x 2.061280 0.000000 0.000000 
#    y 0.000000 2.086250 0.000000 
#    z 0.000000 0.000000 2.037750 
# 
# From -- ./inp_files/28040.got.cif
#   From: 2010.05.17/outbox.cif.g08.bks.cpg/sg24_15_cif.got.tgz:28040.got - 2010.06.04 00:33:39.
