data_PCOD9333712
_publ_section_title
;
Structure prediction by ZEFSAII (Michael W. Deem and Ramdas Pophale) SiO2 
 PCOD9333712
Probable space group: I 21 21 21
;
_chemical_formula_sum "Si O2"
_cell_formula_units_Z 32
_cell_length_a 14.063217
_cell_length_b 5.175141
_cell_length_c 18.928631
_cell_angle_alpha 90.000000
_cell_angle_beta 90.000000
_cell_angle_gamma 90.000000
_cell_volume 1377.609313
_symmetry_space_group_name_H-M "I 21 21 21"
_symmetry_group_IT_number 24
_symmetry_cell_setting 'orthorhombic'
loop_
_space_group_symop_operation_xyz
x,y,z
-x,1/2-y,z
x,-y,1/2-z
1/2-x,y,-z
1/2+x,1/2+y,1/2+z
1/2-x,-y,1/2+z
1/2+x,1/2-y,-z
-x,1/2+y,1/2-z
loop_
_atom_site_type_symbol
_atom_site_label
_atom_site_fract_x
_atom_site_fract_y
_atom_site_fract_z
Si Si1 0.750753 0.765110 0.293662
Si Si2 0.559124 0.011601 0.643037
Si Si3 0.364267 0.235863 0.499396
Si Si4 0.162115 0.266505 0.944111
O O1 0.763468 0.500000 0.250000
O O2 0.699470 0.694916 0.367192
O O3 0.701924 0.000000 0.250000
O O4 0.849615 0.898373 0.317295
O O5 0.500000 0.250000 0.679130
O O6 0.599003 0.154946 0.573145
O O7 0.500000 0.750000 0.628387
O O8 0.250000 0.194802 0.500000
O O9 0.384076 0.453123 0.441841
O O10 0.401150 0.956307 0.478261
O O11 0.250000 0.304343 0.000000
#
# Coordination Sequence:
#
# PCOD9333712 Si02
#       4
#     8   8   8   8
#     4  12  25  40  60  91 130 174 213 246 300 378
#     4  12  25  40  60  91 130 174 213 246 300 378
#     4  10  19  36  65  83 107 160 214 263 310 328
#     4  10  19  36  65  83 107 160 214 263 310 328
#
# _framework density 23.228646000000001
#
# number of rings (size 3 to 8) (size 9 to 14) (size 15 to 20)
#    0.000    1.000    5.000    4.500    7.000    2.000 
#    0.000    0.000    0.000    0.000    0.000    0.000 
#    0.000   56.000    0.000    0.000    0.000    0.000 
#
# Total GULP energy -89332.867372 kJ/mol
# GULP energy per Si atom -5583.304211 kJ/mol
# Density = 2.317578 g / cm^3
# Si number density = 23.228646 Si / 1000 Ang^3
#
#
#
# Elastic Constant Matrix: (Units=GPa)
#
#
# Indices 1 2 3 4 5 6 
#
# 1 42.5314 -11.8138 -3.6829 0.0000 0.0000 0.0000
# 2 -11.8138 183.9641 14.6162 0.0000 0.0000 0.0000
# 3 -3.6829 14.6162 109.1016 0.0000 0.0000 0.0000
# 4 0.0000 0.0000 0.0000 44.9188 0.0000 0.0000
# 5 0.0000 0.0000 0.0000 0.0000 17.1984 0.0000
# 6 0.0000 0.0000 0.0000 0.0000 0.0000 23.2496
#
#
#
# Elastic Compliance Matrix: (Units=1/GPa)
#
#
# Indices 1 2 3 4 5 6 
#
# 1 0.023979 0.001491 0.000610 0.000000 0.000000 0.000000
# 2 0.001491 0.005587 -0.000698 0.000000 0.000000 0.000000
# 3 0.000610 -0.000698 0.009280 0.000000 0.000000 0.000000
# 4 0.000000 0.000000 0.000000 0.022262 0.000000 0.000000
# 5 0.000000 0.000000 0.000000 0.000000 0.058145 0.000000
# 6 0.000000 0.000000 0.000000 0.000000 0.000000 0.043011
#
#
# Mechanical properties :
#
#
# Convention : Reuss Voigt Hill
#
# Bulk Modulus (GPa) = 24.00848 37.09290 30.55069
# Shear Modulus (GPa) = 28.84455 39.50520 34.17488
#
# Velocity S-wave (km/s) = 3.52769 4.12844 3.83983
# Velocity P-wave (km/s) = 5.19143 6.22323 5.73060
#
# Compressibility (1/GPa) = 0.04165196
#
# Stress axis : x y z
#
# Youngs Moduli (GPa) = 41.70301 178.98407 107.75999
#
# Poissons Ratio (x) = -0.26695 -0.06570
# Poissons Ratio (y) = -0.06220 0.07523
# Poissons Ratio (z) = -0.02542 0.12496
#
# Static dielectric constant tensor:
#      x y z
#    x 1.640520 0.000000 0.000000 
#    y 0.000000 1.987190 0.000000 
#    z 0.000000 0.000000 1.940360 
# 
# From -- ./inp_files/3047.got.cif
#   From: 2010.05.17/outbox.cif.g08.bks.cpg/sg24_2_cif.got.tgz:3047.got - 2010.06.04 00:33:39.
