data_PCOD9333890
_publ_section_title
;
Structure prediction by ZEFSAII (Michael W. Deem and Ramdas Pophale) SiO2 
 PCOD9333890
Probable space group: I 21 21 21
;
_chemical_formula_sum "Si O2"
_cell_formula_units_Z 48
_cell_length_a 7.431676
_cell_length_b 19.433640
_cell_length_c 18.744105
_cell_angle_alpha 90.000000
_cell_angle_beta 90.000000
_cell_angle_gamma 90.000000
_cell_volume 2707.108292
_symmetry_space_group_name_H-M "I 21 21 21"
_symmetry_group_IT_number 24
_symmetry_cell_setting 'orthorhombic'
loop_
_space_group_symop_operation_xyz
x,y,z
-x,1/2-y,z
x,-y,1/2-z
1/2-x,y,-z
1/2+x,1/2+y,1/2+z
1/2-x,-y,1/2+z
1/2+x,1/2-y,-z
-x,1/2+y,1/2-z
loop_
_atom_site_type_symbol
_atom_site_label
_atom_site_fract_x
_atom_site_fract_y
_atom_site_fract_z
Si Si1 0.805060 0.873409 0.356370
Si Si2 0.115024 0.907002 0.630447
Si Si3 0.750000 0.496174 0.000000
Si Si4 0.287151 0.232689 0.082759
Si Si5 0.775511 0.500000 0.250000
Si Si6 0.373116 0.432035 0.711265
Si Si7 0.113443 0.513789 0.066101
O O1 0.594571 0.890037 0.366482
O O2 0.826310 0.798709 0.391733
O O3 0.844042 0.874613 0.271368
O O4 0.903083 0.937547 0.396320
O O5 0.231770 0.836968 0.628149
O O6 0.157291 0.948252 0.558921
O O7 0.163898 0.954943 0.696100
O O8 0.916634 0.534573 0.037340
O O9 0.500000 0.250000 0.088284
O O10 0.250000 0.218478 0.000000
O O11 0.914395 0.449711 0.290825
O O12 0.289976 0.500000 0.750000
O O13 0.315888 0.435568 0.629073
O O14 0.250000 0.509486 0.000000
#
# Coordination Sequence:
#
# PCOD9333890 Si02
#       7
#     8   8   4   8   4   8   8
#     4  10  20  34  51  71 105 150 178 215 264 323
#     4  11  21  32  51  77 108 142 181 220 264 310
#     4  12  20  32  48  78 106 136 172 226 258 314
#     4  10  22  33  49  76 109 143 180 211 257 319
#     4  10  20  32  50  70 104 140 176 222 264 304
#     4   8  18  34  45  67  99 134 180 216 258 316
#     4  11  20  32  51  75 103 138 178 220 272 315
#
# _framework density 17.731096999999998
#
# number of rings (size 3 to 8) (size 9 to 14) (size 15 to 20)
#    0.500    1.333    4.167    0.500    5.833    1.333 
#    0.000    0.000    0.000    0.000    0.000    0.000 
#    2.500    0.333    0.000    0.000    0.000    0.000 
#
# Total GULP energy -133729.801735 kJ/mol
# GULP energy per Si atom -5572.075072 kJ/mol
# Density = 1.769074 g / cm^3
# Si number density = 17.731097 Si / 1000 Ang^3
#
#
#
# Elastic Constant Matrix: (Units=GPa)
#
#
# Indices 1 2 3 4 5 6 
#
# 1 51.8940 6.3645 21.5715 0.0000 0.0000 0.0000
# 2 6.3645 48.9834 40.3322 0.0000 0.0000 0.0000
# 3 21.5715 40.3322 130.4148 0.0000 0.0000 0.0000
# 4 0.0000 0.0000 0.0000 19.0722 0.0000 0.0000
# 5 0.0000 0.0000 0.0000 0.0000 28.8246 0.0000
# 6 0.0000 0.0000 0.0000 0.0000 0.0000 14.8093
#
#
#
# Elastic Compliance Matrix: (Units=1/GPa)
#
#
# Indices 1 2 3 4 5 6 
#
# 1 0.020694 0.000174 -0.003477 0.000000 0.000000 0.000000
# 2 0.000174 0.027391 -0.008500 0.000000 0.000000 0.000000
# 3 -0.003477 -0.008500 0.010872 0.000000 0.000000 0.000000
# 4 0.000000 0.000000 0.000000 0.052432 0.000000 0.000000
# 5 0.000000 0.000000 0.000000 0.000000 0.034693 0.000000
# 6 0.000000 0.000000 0.000000 0.000000 0.000000 0.067525
#
#
# Mechanical properties :
#
#
# Convention : Reuss Voigt Hill
#
# Bulk Modulus (GPa) = 28.28744 40.86984 34.57864
# Shear Modulus (GPa) = 20.08067 23.40948 21.74507
#
# Velocity S-wave (km/s) = 3.36893 3.63747 3.50577
# Velocity P-wave (km/s) = 5.57863 6.38290 5.99427
#
# Compressibility (1/GPa) = 0.03535138
#
# Stress axis : x y z
#
# Youngs Moduli (GPa) = 48.32337 36.50827 91.98322
#
# Poissons Ratio (x) = -0.00635 0.31980
# Poissons Ratio (y) = -0.00840 0.78183
# Poissons Ratio (z) = 0.16800 0.31031
#
# Static dielectric constant tensor:
#      x y z
#    x 1.675120 0.000000 0.000000 
#    y 0.000000 1.622170 0.000000 
#    z 0.000000 0.000000 1.638660 
# 
# From -- ./inp_files/29606.got.cif
#   From: 2010.05.17/outbox.cif.g08.bks.cpg/sg24_15_cif.got.tgz:29606.got - 2010.06.04 00:33:39.
