data_PCOD9333948
_publ_section_title
;
Structure prediction by ZEFSAII (Michael W. Deem and Ramdas Pophale) SiO2 
 PCOD9333948
Probable space group: I 21 21 21
;
_chemical_formula_sum "Si O2"
_cell_formula_units_Z 56
_cell_length_a 24.715694
_cell_length_b 5.038616
_cell_length_c 23.652976
_cell_angle_alpha 90.000000
_cell_angle_beta 90.000000
_cell_angle_gamma 90.000000
_cell_volume 2945.573488
_symmetry_space_group_name_H-M "I 21 21 21"
_symmetry_group_IT_number 24
_symmetry_cell_setting 'orthorhombic'
loop_
_space_group_symop_operation_xyz
x,y,z
-x,1/2-y,z
x,-y,1/2-z
1/2-x,y,-z
1/2+x,1/2+y,1/2+z
1/2-x,-y,1/2+z
1/2+x,1/2-y,-z
-x,1/2+y,1/2-z
loop_
_atom_site_type_symbol
_atom_site_label
_atom_site_fract_x
_atom_site_fract_y
_atom_site_fract_z
Si Si1 0.184335 0.585601 0.081149
Si Si2 0.462854 0.992995 0.849578
Si Si3 0.148294 0.143882 0.535233
Si Si4 0.963073 0.508241 0.016471
Si Si5 0.304769 0.628318 0.409602
Si Si6 0.844452 0.597092 0.347654
Si Si7 0.765048 0.743081 0.712061
O O1 0.246003 0.492445 0.075976
O O2 0.151644 0.329617 0.104430
O O3 0.177689 0.824424 0.125565
O O4 0.165756 0.707019 0.022162
O O5 0.500000 0.250000 0.844701
O O6 0.403858 0.039870 0.823290
O O7 0.500000 0.750000 0.829354
O O8 0.450058 0.948629 0.916697
O O9 0.090273 0.017976 0.521035
O O10 0.153714 0.385759 0.579868
O O11 0.184099 0.891680 0.553662
O O12 0.000000 0.750000 0.998080
O O13 0.000000 0.250000 0.012463
O O14 0.299180 0.719889 0.344922
O O15 0.797565 0.696941 0.306182
O O16 0.783520 0.500000 0.750000
O O17 0.767958 0.000000 0.750000
#
# Coordination Sequence:
#
# PCOD9333948 Si02
#       7
#     8   8   8   8   8   8   8
#     4  11  22  35  54  83 122 156 186 227 273 350
#     4  10  20  33  54  79 113 149 198 241 267 322
#     4  12  22  37  56  84 125 157 182 232 274 340
#     4  10  21  35  53  79 117 163 196 216 262 325
#     4  11  24  37  56  86 113 151 194 228 293 350
#     4  11  21  37  59  84 110 152 205 233 288 344
#     4  11  23  42  61  80 110 148 192 251 296 348
#
# _framework density 19.011579999999999
#
# number of rings (size 3 to 8) (size 9 to 14) (size 15 to 20)
#    0.000    1.143    1.429    7.286    4.000    2.286 
#    0.000    0.000    0.000    1.714    0.000    0.000 
#    0.000   32.000    0.000    0.000    0.000    0.000 
#
# Total GULP energy -156518.805757 kJ/mol
# GULP energy per Si atom -5589.957348 kJ/mol
# Density = 1.896831 g / cm^3
# Si number density = 19.011580 Si / 1000 Ang^3
#
#
#
# Elastic Constant Matrix: (Units=GPa)
#
#
# Indices 1 2 3 4 5 6 
#
# 1 33.5238 13.6475 15.0460 0.0000 0.0000 0.0000
# 2 13.6475 123.8609 15.9344 0.0000 0.0000 0.0000
# 3 15.0460 15.9344 41.8158 0.0000 0.0000 0.0000
# 4 0.0000 0.0000 0.0000 25.1598 0.0000 0.0000
# 5 0.0000 0.0000 0.0000 0.0000 6.0219 0.0000
# 6 0.0000 0.0000 0.0000 0.0000 0.0000 36.0662
#
#
#
# Elastic Compliance Matrix: (Units=1/GPa)
#
#
# Indices 1 2 3 4 5 6 
#
# 1 0.036260 -0.002436 -0.012119 0.000000 0.000000 0.000000
# 2 -0.002436 0.008653 -0.002421 0.000000 0.000000 0.000000
# 3 -0.012119 -0.002421 0.029197 0.000000 0.000000 0.000000
# 4 0.000000 0.000000 0.000000 0.039746 0.000000 0.000000
# 5 0.000000 0.000000 0.000000 0.000000 0.166060 0.000000
# 6 0.000000 0.000000 0.000000 0.000000 0.000000 0.027727
#
#
# Mechanical properties :
#
#
# Convention : Reuss Voigt Hill
#
# Bulk Modulus (GPa) = 24.90068 32.05071 28.47569
# Shear Modulus (GPa) = 14.08520 23.75441 18.91981
#
# Velocity S-wave (km/s) = 2.72485 3.53862 3.15806
# Velocity P-wave (km/s) = 4.79853 5.79577 5.32056
#
# Compressibility (1/GPa) = 0.04015955
#
# Stress axis : x y z
#
# Youngs Moduli (GPa) = 27.57829 115.56073 34.24965
#
# Poissons Ratio (x) = 0.28154 0.41506
# Poissons Ratio (y) = 0.06719 0.08291
# Poissons Ratio (z) = 0.33421 0.27976
#
# Static dielectric constant tensor:
#      x y z
#    x 1.657040 0.000000 0.000000 
#    y 0.000000 1.664970 0.000000 
#    z 0.000000 0.000000 1.682780 
# 
# From -- ./inp_files/34252.got.cif
#   From: 2010.05.17/outbox.cif.g08.bks.cpg/sg24_18_cif.got.tgz:34252.got - 2010.06.04 00:33:39.
