data_PCOD9333251
_publ_section_title
;
Structure prediction by ZEFSAII (Michael W. Deem and Ramdas Pophale) SiO2 
 PCOD9333251
Probable space group: I 21 21 21
;
_chemical_formula_sum "Si O2"
_cell_formula_units_Z 32
_cell_length_a 10.560453
_cell_length_b 16.153235
_cell_length_c 7.599526
_cell_angle_alpha 90.000000
_cell_angle_beta 90.000000
_cell_angle_gamma 90.000000
_cell_volume 1296.368783
_symmetry_space_group_name_H-M "I 21 21 21"
_symmetry_group_IT_number 24
_symmetry_cell_setting 'orthorhombic'
loop_
_space_group_symop_operation_xyz
x,y,z
-x,1/2-y,z
x,-y,1/2-z
1/2-x,y,-z
1/2+x,1/2+y,1/2+z
1/2-x,-y,1/2+z
1/2+x,1/2-y,-z
-x,1/2+y,1/2-z
loop_
_atom_site_type_symbol
_atom_site_label
_atom_site_fract_x
_atom_site_fract_y
_atom_site_fract_z
Si Si1 0.620940 0.963669 0.444406
Si Si2 0.894722 0.148636 0.482747
Si Si3 0.000000 0.250000 0.801067
Si Si4 0.574356 0.596202 0.695656
Si Si5 0.250000 0.799191 0.500000
O O1 0.750000 0.918867 0.500000
O O2 0.624417 0.050196 0.549599
O O3 0.617237 0.000000 0.250000
O O4 0.502327 0.913593 0.512920
O O5 0.750000 0.182597 0.500000
O O6 0.967202 0.176244 0.659712
O O7 0.992272 0.156855 0.321373
O O8 0.125716 0.244639 0.921399
O O9 0.596495 0.500000 0.750000
O O10 0.703711 0.642234 0.658377
#
# Coordination Sequence:
#
# PCOD9333251 Si02
#       5
#     8   8   4   8   4
#     4  10  18  37  67 106 141 179 233 300 367 423
#     4  10  23  42  70 103 138 193 237 294 358 433
#     4  12  30  46  70 100 148 204 242 294 352 450
#     4  10  24  44  73 106 141 180 242 310 370 423
#     4  12  30  48  68 108 146 196 238 304 362 440
#
# _framework density 24.684334
#
# number of rings (size 3 to 8) (size 9 to 14) (size 15 to 20)
#    0.000    1.500    0.000    5.250    7.000    5.000 
#    2.250    0.000    0.000    0.000    0.000    0.000 
#    0.000    0.000    0.000    0.000    0.000    0.000 
#
# Total GULP energy -89198.115151 kJ/mol
# GULP energy per Si atom -5574.882197 kJ/mol
# Density = 2.462815 g / cm^3
# Si number density = 24.684334 Si / 1000 Ang^3
#
#
#
# Elastic Constant Matrix: (Units=GPa)
#
#
# Indices 1 2 3 4 5 6 
#
# 1 157.5139 49.5747 58.2368 0.0000 0.0000 0.0000
# 2 49.5747 93.9475 31.0945 0.0000 0.0000 0.0000
# 3 58.2368 31.0945 129.0570 0.0001 0.0001 0.0001
# 4 0.0000 0.0000 0.0001 32.7704 0.0000 0.0001
# 5 0.0000 0.0000 0.0001 0.0000 51.6801 0.0000
# 6 0.0000 0.0000 0.0001 0.0001 0.0000 18.7143
#
#
#
# Elastic Compliance Matrix: (Units=1/GPa)
#
#
# Indices 1 2 3 4 5 6 
#
# 1 0.008575 -0.003525 -0.003020 0.000000 0.000000 0.000000
# 2 -0.003525 0.013016 -0.001545 0.000000 0.000000 0.000000
# 3 -0.003020 -0.001545 0.009484 0.000000 0.000000 0.000000
# 4 0.000000 0.000000 0.000000 0.030515 0.000000 0.000000
# 5 0.000000 0.000000 0.000000 0.000000 0.019350 0.000000
# 6 0.000000 0.000000 0.000000 0.000000 0.000000 0.053435
#
#
# Mechanical properties :
#
#
# Convention : Reuss Voigt Hill
#
# Bulk Modulus (GPa) = 67.14427 73.14783 70.14605
# Shear Modulus (GPa) = 32.15025 36.74044 34.44535
#
# Velocity S-wave (km/s) = 3.61287 3.86218 3.73960
# Velocity P-wave (km/s) = 6.68311 7.04175 6.86477
#
# Compressibility (1/GPa) = 0.01489330
#
# Stress axis : x y z
#
# Youngs Moduli (GPa) = 116.62217 76.82927 105.44536
#
# Poissons Ratio (x) = 0.27084 0.31844
# Poissons Ratio (y) = 0.41112 0.16294
# Poissons Ratio (z) = 0.35220 0.11872
#
# Static dielectric constant tensor:
#      x y z
#    x 2.069400 0.000000 0.000000 
#    y 0.000000 2.070270 0.000000 
#    z 0.000000 0.000000 2.159210 
# 
# From -- ./inp_files/8985.got.cif
#   From: 2010.05.17/outbox.cif.g08.bks.cpg/sg24_5_cif.got.tgz:8985.got - 2010.06.04 00:33:39.
