data_PCOD9333986
_publ_section_title
;
Structure prediction by ZEFSAII (Michael W. Deem and Ramdas Pophale) SiO2 
 PCOD9333986
Probable space group: I 21 21 21
;
_chemical_formula_sum "Si O2"
_cell_formula_units_Z 40
_cell_length_a 17.098279
_cell_length_b 24.810307
_cell_length_c 5.038765
_cell_angle_alpha 90.000000
_cell_angle_beta 90.000000
_cell_angle_gamma 90.000000
_cell_volume 2137.512394
_symmetry_space_group_name_H-M "I 21 21 21"
_symmetry_group_IT_number 24
_symmetry_cell_setting 'orthorhombic'
loop_
_space_group_symop_operation_xyz
x,y,z
-x,1/2-y,z
x,-y,1/2-z
1/2-x,y,-z
1/2+x,1/2+y,1/2+z
1/2-x,-y,1/2+z
1/2+x,1/2-y,-z
-x,1/2+y,1/2-z
loop_
_atom_site_type_symbol
_atom_site_label
_atom_site_fract_x
_atom_site_fract_y
_atom_site_fract_z
Si Si1 0.117522 0.559830 0.137359
Si Si2 0.464878 0.878471 0.879834
Si Si3 0.169255 0.626816 0.639685
Si Si4 0.304935 0.936358 0.750673
Si Si5 0.015838 0.313088 0.866978
O O1 0.132011 0.500000 0.250000
O O2 0.133550 0.594253 0.396907
O O3 0.026969 0.572759 0.070092
O O4 0.167456 0.585039 0.890899
O O5 0.383414 0.902279 0.780836
O O6 0.497028 0.838094 0.654228
O O7 0.463718 0.845069 0.152235
O O8 0.250000 0.645769 0.500000
O O9 0.106497 0.673159 0.705911
O O10 0.250000 0.924812 0.500000
O O11 0.325730 0.000000 0.750000
O O12 0.250000 0.926236 0.000000
O O13 0.000000 0.250000 0.860696
#
# Coordination Sequence:
#
# PCOD9333986 Si02
#       5
#     8   8   8   8   8
#     4  10  20  34  55  81 109 146 183 218 269 334
#     4  10  20  36  57  80 110 144 188 233 271 334
#     4  10  21  36  54  79 112 143 179 228 277 326
#     4  10  20  34  54  82 117 151 179 219 278 333
#     4  10  21  38  59  80 105 146 191 234 283 327
#
# _framework density 18.713342999999998
#
# number of rings (size 3 to 8) (size 9 to 14) (size 15 to 20)
#    0.000    2.000    0.000    3.600    0.000    1.600 
#    0.000    9.000    0.000    2.400    0.000    0.000 
#    0.000    0.000    0.000    0.000    0.000    0.000 
#
# Total GULP energy -111398.457154 kJ/mol
# GULP energy per Si atom -5569.922858 kJ/mol
# Density = 1.867075 g / cm^3
# Si number density = 18.713343 Si / 1000 Ang^3
#
#
#
# Elastic Constant Matrix: (Units=GPa)
#
#
# Indices 1 2 3 4 5 6 
#
# 1 108.1207 59.8962 11.1218 0.0000 0.0000 0.0000
# 2 59.8962 82.1251 24.2662 0.0000 0.0000 0.0000
# 3 11.1218 24.2662 117.3347 0.0000 0.0000 0.0000
# 4 0.0000 0.0000 0.0000 27.4176 0.0000 0.0000
# 5 0.0000 0.0000 0.0000 0.0000 43.5238 0.0000
# 6 0.0000 0.0000 0.0000 0.0000 0.0000 26.5798
#
#
#
# Elastic Compliance Matrix: (Units=1/GPa)
#
#
# Indices 1 2 3 4 5 6 
#
# 1 0.015614 -0.011663 0.000932 0.000000 0.000000 0.000000
# 2 -0.011663 0.021681 -0.003378 0.000000 0.000000 0.000000
# 3 0.000932 -0.003378 0.009133 0.000000 0.000000 0.000000
# 4 0.000000 0.000000 0.000000 0.036473 0.000000 0.000000
# 5 0.000000 0.000000 0.000000 0.000000 0.022976 0.000000
# 6 0.000000 0.000000 0.000000 0.000000 0.000000 0.037623
#
#
# Mechanical properties :
#
#
# Convention : Reuss Voigt Hill
#
# Bulk Modulus (GPa) = 54.91751 55.34988 55.13369
# Shear Modulus (GPa) = 28.12326 33.65732 30.89029
#
# Velocity S-wave (km/s) = 3.88086 4.24556 4.06730
# Velocity P-wave (km/s) = 7.03504 7.32632 7.18216
#
# Compressibility (1/GPa) = 0.01820913
#
# Stress axis : x y z
#
# Youngs Moduli (GPa) = 64.04412 46.12297 109.49344
#
# Poissons Ratio (x) = 0.53795 -0.10206
# Poissons Ratio (y) = 0.74697 0.36991
# Poissons Ratio (z) = -0.05969 0.15582
#
# Static dielectric constant tensor:
#      x y z
#    x 1.685720 0.000000 0.000000 
#    y 0.000000 1.642280 0.000000 
#    z 0.000000 0.000000 1.614760 
# 
# From -- ./inp_files/3501.got.cif
#   From: 2010.05.17/outbox.cif.g08.bks.cpg/sg24_2_cif.got.tgz:3501.got - 2010.06.04 00:33:39.
