data_PCOD9333699
_publ_section_title
;
Structure prediction by ZEFSAII (Michael W. Deem and Ramdas Pophale) SiO2 
 PCOD9333699
Probable space group: I 21 21 21
;
_chemical_formula_sum "Si O2"
_cell_formula_units_Z 40
_cell_length_a 26.035017
_cell_length_b 5.241001
_cell_length_c 14.004566
_cell_angle_alpha 90.000000
_cell_angle_beta 90.000000
_cell_angle_gamma 90.000000
_cell_volume 1910.916730
_symmetry_space_group_name_H-M "I 21 21 21"
_symmetry_group_IT_number 24
_symmetry_cell_setting 'orthorhombic'
loop_
_space_group_symop_operation_xyz
x,y,z
-x,1/2-y,z
x,-y,1/2-z
1/2-x,y,-z
1/2+x,1/2+y,1/2+z
1/2-x,-y,1/2+z
1/2+x,1/2-y,-z
-x,1/2+y,1/2-z
loop_
_atom_site_type_symbol
_atom_site_label
_atom_site_fract_x
_atom_site_fract_y
_atom_site_fract_z
Si Si1 0.191890 0.493680 0.536753
Si Si2 0.444997 0.954038 0.852585
Si Si3 0.648020 0.506503 0.364095
Si Si4 0.529574 0.500141 0.431891
Si Si5 0.622473 0.046514 0.851386
O O1 0.250000 0.497971 0.500000
O O2 0.177378 0.239051 0.594241
O O3 0.156986 0.502955 0.442421
O O4 0.176320 0.739948 0.598655
O O5 0.421651 0.670105 0.854033
O O6 0.471766 0.000000 0.750000
O O7 0.400459 0.169385 0.852898
O O8 0.473242 0.996458 0.952264
O O9 0.646825 0.500000 0.250000
O O10 0.589225 0.502636 0.402806
O O11 0.500000 0.750000 0.397180
O O12 0.500000 0.250000 0.396525
O O13 0.649938 0.000000 0.750000
#
# Coordination Sequence:
#
# PCOD9333699 Si02
#       5
#     8   8   8   8   8
#     4  12  24  45  73 103 133 178 225 278 351 417
#     4  10  20  37  61  91 127 171 214 268 341 399
#     4  12  27  48  70 100 143 183 231 290 339 396
#     4  12  24  40  68  97 134 183 235 284 341 403
#     4  10  19  36  63  91 127 167 210 266 332 405
#
# _framework density 20.932359999999999
#
# number of rings (size 3 to 8) (size 9 to 14) (size 15 to 20)
#    0.000    0.800    4.000    3.600    0.000    3.200 
#    0.000    2.000    0.000    0.000    0.000    0.000 
#    0.000    0.000    0.000    0.000    0.000    0.000 
#
# Total GULP energy -111907.724478 kJ/mol
# GULP energy per Si atom -5595.386224 kJ/mol
# Density = 2.088472 g / cm^3
# Si number density = 20.932360 Si / 1000 Ang^3
#
#
#
# Elastic Constant Matrix: (Units=GPa)
#
#
# Indices 1 2 3 4 5 6 
#
# 1 134.2847 79.9884 49.0928 0.0000 0.0000 0.0000
# 2 79.9884 165.8693 65.1435 0.0000 0.0000 0.0000
# 3 49.0928 65.1435 141.7867 0.0000 0.0000 0.0000
# 4 0.0000 0.0000 0.0000 14.3239 0.0000 0.0000
# 5 0.0000 0.0000 0.0000 0.0000 -2.2725 0.0000
# 6 0.0000 0.0000 0.0000 0.0000 0.0000 22.1125
#
#
#
# Elastic Compliance Matrix: (Units=1/GPa)
#
#
# Indices 1 2 3 4 5 6 
#
# 1 0.010750 -0.004542 -0.001635 0.000000 0.000000 0.000000
# 2 -0.004542 0.009275 -0.002689 0.000000 0.000000 0.000000
# 3 -0.001635 -0.002689 0.008854 0.000000 0.000000 0.000000
# 4 0.000000 0.000000 0.000000 0.069814 0.000000 0.000000
# 5 0.000000 0.000000 0.000000 0.000000 -0.440039 0.000000
# 6 0.000000 0.000000 0.000000 0.000000 0.000000 0.045223
#
#
# Mechanical properties :
#
#
# Convention : Reuss Voigt Hill
#
# Bulk Modulus (GPa) = 89.70601 92.26556 90.98579
# Shear Modulus (GPa) = -18.20335 23.34717 2.57191
#
# Velocity S-wave (km/s) = -2.95214 3.34333 1.10966
# Velocity P-wave (km/s) = 5.59714 7.68618 6.72330
#
# Compressibility (1/GPa) = 0.01114752
#
# Stress axis : x y z
#
# Youngs Moduli (GPa) = 93.02185 107.81564 112.93704
#
# Poissons Ratio (x) = 0.48968 0.18470
# Poissons Ratio (y) = 0.42249 0.30367
# Poissons Ratio (z) = 0.15213 0.28990
#
# Static dielectric constant tensor:
#      x y z
#    x 1.726730 0.000000 0.000000 
#    y 0.000000 1.753310 0.000000 
#    z 0.000000 0.000000 1.745570 
# 
# From -- ./inp_files/27716.got.cif
#   From: 2010.05.17/outbox.cif.g08.bks.cpg/sg24_14_cif.got.tgz:27716.got - 2010.06.04 00:33:39.
