data_PCOD9333098
_publ_section_title
;
Structure prediction by ZEFSAII (Michael W. Deem and Ramdas Pophale) SiO2 
 PCOD9333098
Probable space group: I 21 21 21
;
_chemical_formula_sum "Si O2"
_cell_formula_units_Z 40
_cell_length_a 24.555080
_cell_length_b 8.562961
_cell_length_c 9.846067
_cell_angle_alpha 90.000000
_cell_angle_beta 90.000000
_cell_angle_gamma 90.000000
_cell_volume 2070.275326
_symmetry_space_group_name_H-M "I 21 21 21"
_symmetry_group_IT_number 24
_symmetry_cell_setting 'orthorhombic'
loop_
_space_group_symop_operation_xyz
x,y,z
-x,1/2-y,z
x,-y,1/2-z
1/2-x,y,-z
1/2+x,1/2+y,1/2+z
1/2-x,-y,1/2+z
1/2+x,1/2-y,-z
-x,1/2+y,1/2-z
loop_
_atom_site_type_symbol
_atom_site_label
_atom_site_fract_x
_atom_site_fract_y
_atom_site_fract_z
Si Si1 0.739540 0.860358 0.651271
Si Si2 0.000000 0.250000 0.454814
Si Si3 0.530405 0.000000 0.750000
Si Si4 0.120464 0.664083 0.425715
Si Si5 0.407616 0.395190 0.368960
Si Si6 0.842766 0.666301 0.681289
O O1 0.750000 0.920599 0.500000
O O2 0.675432 0.824855 0.662012
O O3 0.779449 0.712333 0.662559
O O4 0.754476 0.000000 0.750000
O O5 0.996171 0.402422 0.358997
O O6 0.050993 0.286178 0.550412
O O7 0.569150 0.873299 0.671489
O O8 0.120033 0.511070 0.523068
O O9 0.125434 0.803001 0.537968
O O10 0.435643 0.500000 0.250000
O O11 0.365291 0.292130 0.287467
O O12 0.850046 0.500000 0.750000
#
# Coordination Sequence:
#
# PCOD9333098 Si02
#       6
#     8   4   4   8   8   8
#     4  10  18  33  58  83 109 156 202 238 288 356
#     4  10  22  36  62  86 114 150 196 246 300 342
#     4  10  20  38  60  88 116 150 200 244 294 362
#     4   9  18  36  59  78 112 155 196 237 282 360
#     4   9  19  38  58  84 111 153 202 241 285 356
#     4  10  20  33  53  84 122 149 189 246 298 345
#
# _framework density 19.321102
#
# number of rings (size 3 to 8) (size 9 to 14) (size 15 to 20)
#    0.000    2.400    1.000    3.000    0.000    2.400 
#    0.000   16.000    2.200    0.000    0.000    0.000 
#    0.000    0.000    0.000    0.000    0.000    0.000 
#
# Total GULP energy -111400.496435 kJ/mol
# GULP energy per Si atom -5570.024822 kJ/mol
# Density = 1.927713 g / cm^3
# Si number density = 19.321102 Si / 1000 Ang^3
#
#
#
# Elastic Constant Matrix: (Units=GPa)
#
#
# Indices 1 2 3 4 5 6 
#
# 1 70.6824 31.5770 32.5206 0.0000 0.0000 0.0000
# 2 31.5770 68.0181 41.4662 0.0000 0.0000 0.0000
# 3 32.5206 41.4662 81.3408 0.0000 0.0000 0.0000
# 4 0.0000 0.0000 0.0000 41.4924 0.0000 0.0000
# 5 0.0000 0.0000 0.0000 0.0000 21.5249 0.0000
# 6 0.0000 0.0000 0.0000 0.0000 0.0000 1.7447
#
#
#
# Elastic Compliance Matrix: (Units=1/GPa)
#
#
# Indices 1 2 3 4 5 6 
#
# 1 0.018910 -0.006050 -0.004476 0.000000 0.000000 0.000000
# 2 -0.006050 0.023267 -0.009442 0.000000 0.000000 0.000000
# 3 -0.004476 -0.009442 0.018897 0.000000 0.000000 0.000000
# 4 0.000000 0.000000 0.000000 0.024101 0.000000 0.000000
# 5 0.000000 0.000000 0.000000 0.000000 0.046458 0.000000
# 6 0.000000 0.000000 0.000000 0.000000 0.000000 0.573170
#
#
# Mechanical properties :
#
#
# Convention : Reuss Voigt Hill
#
# Bulk Modulus (GPa) = 47.31005 47.90764 47.60885
# Shear Modulus (GPa) = 6.65084 20.58423 13.61753
#
# Velocity S-wave (km/s) = 1.85735 3.26755 2.65769
# Velocity P-wave (km/s) = 5.39806 6.25181 5.84056
#
# Compressibility (1/GPa) = 0.02113716
#
# Stress axis : x y z
#
# Youngs Moduli (GPa) = 52.88177 42.97928 52.91827
#
# Poissons Ratio (x) = 0.26003 0.23687
# Poissons Ratio (y) = 0.31994 0.49967
# Poissons Ratio (z) = 0.23671 0.40582
#
# Static dielectric constant tensor:
#      x y z
#    x 1.710210 0.000000 0.000000 
#    y 0.000000 1.707910 0.000000 
#    z 0.000000 0.000000 1.694350 
# 
# From -- ./inp_files/16285.got.cif
#   From: 2010.05.17/outbox.cif.g08.bks.cpg/sg24_9_cif.got.tgz:16285.got - 2010.06.04 00:33:39.
