data_PCOD9333945
_publ_section_title
;
Structure prediction by ZEFSAII (Michael W. Deem and Ramdas Pophale) SiO2 
 PCOD9333945
Probable space group: I 21 21 21
;
_chemical_formula_sum "Si O2"
_cell_formula_units_Z 44
_cell_length_a 12.209016
_cell_length_b 22.470648
_cell_length_c 8.630350
_cell_angle_alpha 90.000000
_cell_angle_beta 90.000000
_cell_angle_gamma 90.000000
_cell_volume 2367.689064
_symmetry_space_group_name_H-M "I 21 21 21"
_symmetry_group_IT_number 24
_symmetry_cell_setting 'orthorhombic'
loop_
_space_group_symop_operation_xyz
x,y,z
-x,1/2-y,z
x,-y,1/2-z
1/2-x,y,-z
1/2+x,1/2+y,1/2+z
1/2-x,-y,1/2+z
1/2+x,1/2-y,-z
-x,1/2+y,1/2-z
loop_
_atom_site_type_symbol
_atom_site_label
_atom_site_fract_x
_atom_site_fract_y
_atom_site_fract_z
Si Si1 0.299759 0.069138 0.263488
Si Si2 0.000000 0.750000 0.832415
Si Si3 0.616628 0.322581 0.097226
Si Si4 0.131800 0.669053 0.063257
Si Si5 0.097126 0.884169 0.083940
Si Si6 0.841171 0.273914 0.222203
O O1 0.343647 0.109756 0.122495
O O2 0.169210 0.077160 0.294745
O O3 0.358399 0.096516 0.416151
O O4 0.325378 0.000000 0.250000
O O5 0.975557 0.695581 0.716614
O O6 0.910593 0.780795 0.942304
O O7 0.718005 0.283991 0.164443
O O8 0.592914 0.300952 0.924176
O O9 0.140779 0.707034 0.222433
O O10 0.034582 0.620585 0.081263
O O11 0.250000 0.648224 0.000000
O O12 0.135133 0.818101 0.134934
#
# Coordination Sequence:
#
# PCOD9333945 Si02
#       6
#     8   4   8   8   8   8
#     4  10  21  39  63  83 114 151 203 259 313 353
#     4  12  20  32  58  80 122 164 200 242 292 370
#     4  10  21  34  52  91 122 155 194 254 305 358
#     4  12  21  34  55  84 119 168 201 235 300 379
#     4  10  21  36  57  83 114 151 201 245 297 369
#     4  10  20  33  53  81 125 155 193 245 304 364
#
# _framework density 18.583521000000001
#
# number of rings (size 3 to 8) (size 9 to 14) (size 15 to 20)
#    0.000    1.455    5.455    0.000    5.091    5.818 
#    0.000    0.000    0.000    1.091    0.000    0.000 
#    0.000    0.000    0.000    0.000    0.000    0.000 
#
# Total GULP energy -122483.819476 kJ/mol
# GULP energy per Si atom -5567.446340 kJ/mol
# Density = 1.854122 g / cm^3
# Si number density = 18.583521 Si / 1000 Ang^3
#
#
#
# Elastic Constant Matrix: (Units=GPa)
#
#
# Indices 1 2 3 4 5 6 
#
# 1 92.1245 34.2813 26.9125 0.0000 0.0000 0.0000
# 2 34.2813 81.7062 40.7794 0.0001 0.0000 0.0000
# 3 26.9125 40.7794 81.2656 0.0007 0.0000 0.0000
# 4 0.0000 0.0001 0.0007 6.0930 0.0000 0.0000
# 5 0.0000 0.0000 0.0000 0.0000 27.0600 0.0000
# 6 0.0000 0.0000 0.0000 0.0000 0.0000 16.0169
#
#
#
# Elastic Compliance Matrix: (Units=1/GPa)
#
#
# Indices 1 2 3 4 5 6 
#
# 1 0.013130 -0.004454 -0.002113 0.000000 0.000000 0.000000
# 2 -0.004454 0.017840 -0.007477 0.000001 0.000000 0.000000
# 3 -0.002113 -0.007477 0.016757 -0.000002 0.000000 0.000000
# 4 0.000000 0.000001 -0.000002 0.164123 0.000000 0.000000
# 5 0.000000 0.000000 0.000000 0.000000 0.036955 0.000000
# 6 0.000000 0.000000 0.000000 0.000000 0.000000 0.062434
#
#
# Mechanical properties :
#
#
# Convention : Reuss Voigt Hill
#
# Bulk Modulus (GPa) = 50.92145 51.00474 50.96309
# Shear Modulus (GPa) = 14.45620 20.04218 17.24919
#
# Velocity S-wave (km/s) = 2.79212 3.28760 3.04994
# Velocity P-wave (km/s) = 6.15268 6.47433 6.31555
#
# Compressibility (1/GPa) = 0.01963809
#
# Stress axis : x y z
#
# Youngs Moduli (GPa) = 76.16356 56.05536 59.67662
#
# Poissons Ratio (x) = 0.24968 0.12609
# Poissons Ratio (y) = 0.33925 0.44619
# Poissons Ratio (z) = 0.16093 0.41912
#
# Static dielectric constant tensor:
#      x y z
#    x 1.754780 0.000000 0.000000 
#    y 0.000000 1.629550 0.000000 
#    z 0.000000 0.000000 1.719650 
# 
# From -- ./inp_files/11191.got.cif
#   From: 2010.05.17/outbox.cif.g08.bks.cpg/sg24_6_cif.got.tgz:11191.got - 2010.06.04 00:33:39.
