data_PCOD9333439
_publ_section_title
;
Structure prediction by ZEFSAII (Michael W. Deem and Ramdas Pophale) SiO2 
 PCOD9333439
Probable space group: I 21 21 21
;
_chemical_formula_sum "Si O2"
_cell_formula_units_Z 64
_cell_length_a 16.848138
_cell_length_b 22.122745
_cell_length_c 8.950742
_cell_angle_alpha 90.000000
_cell_angle_beta 90.000000
_cell_angle_gamma 90.000000
_cell_volume 3336.183757
_symmetry_space_group_name_H-M "I 21 21 21"
_symmetry_group_IT_number 24
_symmetry_cell_setting 'orthorhombic'
loop_
_space_group_symop_operation_xyz
x,y,z
-x,1/2-y,z
x,-y,1/2-z
1/2-x,y,-z
1/2+x,1/2+y,1/2+z
1/2-x,-y,1/2+z
1/2+x,1/2-y,-z
-x,1/2+y,1/2-z
loop_
_atom_site_type_symbol
_atom_site_label
_atom_site_fract_x
_atom_site_fract_y
_atom_site_fract_z
Si Si1 0.933440 0.905514 0.947723
Si Si2 0.741415 0.743399 0.823200
Si Si3 0.107143 0.542752 0.548299
Si Si4 0.122007 0.607836 0.260369
Si Si5 0.671664 0.668891 0.401270
Si Si6 0.556006 0.568198 0.288150
Si Si7 0.093615 0.741183 0.362380
Si Si8 0.703754 0.869355 0.244121
O O1 0.868547 0.862943 0.871178
O O2 0.016976 0.904460 0.863034
O O3 0.893234 0.971602 0.919000
O O4 0.937508 0.893406 0.122363
O O5 0.795787 0.690582 0.759297
O O6 0.649968 0.735606 0.773143
O O7 0.772089 0.800519 0.724064
O O8 0.750000 0.753677 0.000000
O O9 0.113407 0.553241 0.373445
O O10 0.172125 0.585263 0.628535
O O11 0.021332 0.563393 0.606337
O O12 0.109113 0.668752 0.358353
O O13 0.210846 0.605889 0.191695
O O14 0.750000 0.656579 0.500000
O O15 0.618302 0.610768 0.368908
O O16 0.622911 0.720800 0.492669
O O17 0.583429 0.500000 0.250000
O O18 0.000000 0.750000 0.341797
#
# Coordination Sequence:
#
# PCOD9333439 Si02
#       8
#     8   8   8   8   8   8   8   8
#     4  10  21  34  50  77 113 151 187 228 275 320
#     4  10  21  37  56  82 115 147 182 231 285 333
#     4  10  20  33  52  77 109 151 194 229 266 319
#     4  11  20  31  51  79 112 148 189 232 271 315
#     4  10  21  39  63  84 106 141 183 226 280 344
#     4   9  20  40  60  80 109 142 181 229 281 339
#     4  10  21  37  56  82 113 147 187 229 273 330
#     4  10  19  33  48  71 112 155 190 226 266 316
#
# _framework density 19.183595
#
# number of rings (size 3 to 8) (size 9 to 14) (size 15 to 20)
#    0.000    2.000    0.000    5.250    0.000    7.000 
#    0.000    1.250    0.000    3.000    0.000    0.000 
#    0.000    0.000    0.000    0.000    0.000    0.000 
#
# Total GULP energy -178317.069078 kJ/mol
# GULP energy per Si atom -5572.408409 kJ/mol
# Density = 1.913993 g / cm^3
# Si number density = 19.183595 Si / 1000 Ang^3
#
#
#
# Elastic Constant Matrix: (Units=GPa)
#
#
# Indices 1 2 3 4 5 6 
#
# 1 102.9065 45.3282 23.5415 0.0000 0.0000 0.0000
# 2 45.3282 60.3557 21.5458 0.0000 0.0000 0.0000
# 3 23.5415 21.5458 75.9200 0.0000 0.0000 0.0000
# 4 0.0000 0.0000 0.0000 24.8856 0.0000 0.0000
# 5 0.0000 0.0000 0.0000 0.0000 10.0199 0.0000
# 6 0.0000 0.0000 0.0000 0.0000 0.0000 29.5582
#
#
#
# Elastic Compliance Matrix: (Units=1/GPa)
#
#
# Indices 1 2 3 4 5 6 
#
# 1 0.014691 -0.010467 -0.001585 0.000000 0.000000 0.000000
# 2 -0.010467 0.025894 -0.004103 0.000000 0.000000 0.000000
# 3 -0.001585 -0.004103 0.014828 0.000000 0.000000 0.000000
# 4 0.000000 0.000000 0.000000 0.040184 0.000000 0.000000
# 5 0.000000 0.000000 0.000000 0.000000 0.099801 0.000000
# 6 0.000000 0.000000 0.000000 0.000000 0.000000 0.033832
#
#
# Mechanical properties :
#
#
# Convention : Reuss Voigt Hill
#
# Bulk Modulus (GPa) = 43.28533 46.66815 44.97674
# Shear Modulus (GPa) = 18.57081 22.81052 20.69066
#
# Velocity S-wave (km/s) = 3.11474 3.45202 3.28771
# Velocity P-wave (km/s) = 5.96223 6.34575 6.15697
#
# Compressibility (1/GPa) = 0.02310252
#
# Stress axis : x y z
#
# Youngs Moduli (GPa) = 68.07023 38.61870 67.44193
#
# Poissons Ratio (x) = 0.40423 0.10688
# Poissons Ratio (y) = 0.71251 0.27671
# Poissons Ratio (z) = 0.10788 0.15845
#
# Static dielectric constant tensor:
#      x y z
#    x 1.659350 0.000000 0.000000 
#    y 0.000000 1.687160 0.000000 
#    z 0.000000 0.000000 1.704220 
# 
# From -- ./inp_files/13354.got.cif
#   From: 2010.05.17/outbox.cif.g08.bks.cpg/sg24_7_cif.got.tgz:13354.got - 2010.06.04 00:33:39.
