data_PCOD9333135
_publ_section_title
;
Structure prediction by ZEFSAII (Michael W. Deem and Ramdas Pophale) SiO2 
 PCOD9333135
Probable space group: I 21 21 21
;
_chemical_formula_sum "Si O2"
_cell_formula_units_Z 44
_cell_length_a 14.343476
_cell_length_b 5.431915
_cell_length_c 28.262060
_cell_angle_alpha 90.000000
_cell_angle_beta 90.000000
_cell_angle_gamma 90.000000
_cell_volume 2201.968949
_symmetry_space_group_name_H-M "I 21 21 21"
_symmetry_group_IT_number 24
_symmetry_cell_setting 'orthorhombic'
loop_
_space_group_symop_operation_xyz
x,y,z
-x,1/2-y,z
x,-y,1/2-z
1/2-x,y,-z
1/2+x,1/2+y,1/2+z
1/2-x,-y,1/2+z
1/2+x,1/2-y,-z
-x,1/2+y,1/2-z
loop_
_atom_site_type_symbol
_atom_site_label
_atom_site_fract_x
_atom_site_fract_y
_atom_site_fract_z
Si Si1 0.500000 0.250000 0.409268
Si Si2 0.689526 0.577946 0.896914
Si Si3 0.500000 0.250000 0.603964
Si Si4 0.872374 0.646536 0.637551
Si Si5 0.500000 0.750000 0.280147
Si Si6 0.094878 0.337613 0.036793
Si Si7 0.176408 0.539274 0.944430
O O1 0.540588 0.470488 0.377081
O O2 0.588384 0.220085 0.442675
O O3 0.593037 0.650830 0.870899
O O4 0.774740 0.502716 0.862970
O O5 0.653246 0.360827 0.932146
O O6 0.734786 0.798162 0.928700
O O7 0.453442 0.461928 0.571392
O O8 0.907332 0.755741 0.686771
O O9 0.849099 0.847131 0.597183
O O10 0.503481 0.500000 0.250000
O O11 0.000000 0.250000 0.011028
O O12 0.161535 0.419701 0.995035
#
# Coordination Sequence:
#
# PCOD9333135 Si02
#       7
#     4   8   4   8   4   8   8
#     4  10  18  34  58  88 122 170 216 262 316 397
#     4  10  24  37  59  82 129 166 237 271 330 389
#     4  10  21  40  53  80 122 170 224 285 318 362
#     4  11  22  39  62  93 127 169 210 260 337 414
#     4  12  27  46  73 104 144 172 208 277 350 437
#     4  10  21  37  54  86 123 173 226 280 322 367
#     4  11  21  35  59  82 123 174 219 278 320 401
#
# _framework density 19.982116000000001
#
# number of rings (size 3 to 8) (size 9 to 14) (size 15 to 20)
#    0.000    1.455    1.818    3.273    2.545    8.727 
#    0.000    1.818    0.000    0.000    0.000    0.000 
#   13.636    0.000    0.000    0.000    0.000    0.000 
#
# Total GULP energy -122509.758743 kJ/mol
# GULP energy per Si atom -5568.625397 kJ/mol
# Density = 1.993664 g / cm^3
# Si number density = 19.982116 Si / 1000 Ang^3
#
#
#
# Elastic Constant Matrix: (Units=GPa)
#
#
# Indices 1 2 3 4 5 6 
#
# 1 198.0004 30.9386 27.5043 0.0000 0.0000 0.0000
# 2 30.9386 93.6951 30.8346 0.0000 0.0000 0.0000
# 3 27.5043 30.8346 53.8041 0.0000 0.0000 0.0000
# 4 0.0000 0.0000 0.0000 19.4163 0.0000 0.0000
# 5 0.0000 0.0000 0.0000 0.0000 12.8373 0.0000
# 6 0.0000 0.0000 0.0000 0.0000 0.0000 50.3763
#
#
#
# Elastic Compliance Matrix: (Units=1/GPa)
#
#
# Indices 1 2 3 4 5 6 
#
# 1 0.005528 -0.001103 -0.002193 0.000000 0.000000 0.000000
# 2 -0.001103 0.013374 -0.007100 0.000000 0.000000 0.000000
# 3 -0.002193 -0.007100 0.023776 0.000000 0.000000 0.000000
# 4 0.000000 0.000000 0.000000 0.051503 0.000000 0.000000
# 5 0.000000 0.000000 0.000000 0.000000 0.077898 0.000000
# 6 0.000000 0.000000 0.000000 0.000000 0.000000 0.019851
#
#
# Mechanical properties :
#
#
# Convention : Reuss Voigt Hill
#
# Bulk Modulus (GPa) = 45.69638 58.22829 51.96233
# Shear Modulus (GPa) = 22.72538 33.60745 28.16642
#
# Velocity S-wave (km/s) = 3.37603 4.10552 3.75851
# Velocity P-wave (km/s) = 6.17374 7.18868 6.70045
#
# Compressibility (1/GPa) = 0.02188357
#
# Stress axis : x y z
#
# Youngs Moduli (GPa) = 180.91086 74.77196 42.05868
#
# Poissons Ratio (x) = 0.08251 0.09225
# Poissons Ratio (y) = 0.19962 0.29863
# Poissons Ratio (z) = 0.39679 0.53091
#
# Static dielectric constant tensor:
#      x y z
#    x 1.932460 0.000000 0.000000 
#    y 0.000000 1.937290 0.000000 
#    z 0.000000 0.000000 1.714810 
# 
# From -- ./inp_files/3887.got.cif
#   From: 2010.05.17/outbox.cif.g08.bks.cpg/sg24_2_cif.got.tgz:3887.got - 2010.06.04 00:33:39.
