data_PCOD9333231
_publ_section_title
;
Structure prediction by ZEFSAII (Michael W. Deem and Ramdas Pophale) SiO2 
 PCOD9333231
Probable space group: I 21 21 21
;
_chemical_formula_sum "Si O2"
_cell_formula_units_Z 36
_cell_length_a 8.313091
_cell_length_b 9.071888
_cell_length_c 18.869794
_cell_angle_alpha 90.000000
_cell_angle_beta 90.000000
_cell_angle_gamma 90.000000
_cell_volume 1423.073638
_symmetry_space_group_name_H-M "I 21 21 21"
_symmetry_group_IT_number 24
_symmetry_cell_setting 'orthorhombic'
loop_
_space_group_symop_operation_xyz
x,y,z
-x,1/2-y,z
x,-y,1/2-z
1/2-x,y,-z
1/2+x,1/2+y,1/2+z
1/2-x,-y,1/2+z
1/2+x,1/2-y,-z
-x,1/2+y,1/2-z
loop_
_atom_site_type_symbol
_atom_site_label
_atom_site_fract_x
_atom_site_fract_y
_atom_site_fract_z
Si Si1 0.750000 0.758873 0.000000
Si Si2 0.256470 0.500000 0.250000
Si Si3 0.015400 0.912758 0.345863
Si Si4 0.164944 0.034620 0.620081
Si Si5 0.930741 0.052217 0.994719
Si Si6 0.500000 0.250000 0.271676
O O1 0.753322 0.652691 0.932871
O O2 0.605084 0.876531 0.005660
O O3 0.362064 0.351630 0.235079
O O4 0.130618 0.488388 0.315936
O O5 0.000000 0.750000 0.315140
O O6 0.195884 0.962124 0.334068
O O7 0.007620 0.908153 0.430988
O O8 0.064419 0.126058 0.675458
O O9 0.050682 0.929224 0.571678
O O10 0.750000 0.119220 0.000000
#
# Coordination Sequence:
#
# PCOD9333231 Si02
#       6
#     4   4   8   8   8   4
#     4  10  18  36  72 116 148 182 264 306 408 472
#     4  12  32  54  76 114 150 228 274 340 400 500
#     4  12  29  47  71 113 161 206 264 329 413 499
#     4  12  22  43  80 113 150 208 252 345 401 478
#     4  10  21  40  70 115 151 193 254 319 400 472
#     4  12  28  52  84 110 150 208 286 338 402 482
#
# _framework density 25.297356000000001
#
# number of rings (size 3 to 8) (size 9 to 14) (size 15 to 20)
#    0.667    0.000    4.444    2.667    6.222    3.556 
#    0.000    0.000    0.000    0.000    0.000    0.000 
#    0.000    0.000    0.000    0.000    0.000    0.000 
#
# Total GULP energy -100564.700345 kJ/mol
# GULP energy per Si atom -5586.927797 kJ/mol
# Density = 2.523978 g / cm^3
# Si number density = 25.297356 Si / 1000 Ang^3
#
#
#
# Elastic Constant Matrix: (Units=GPa)
#
#
# Indices 1 2 3 4 5 6 
#
# 1 141.0524 33.0693 42.7703 0.0000 0.0000 0.0000
# 2 33.0693 81.1974 19.8692 0.0000 0.0000 0.0000
# 3 42.7703 19.8692 78.8625 0.0000 0.0000 0.0000
# 4 0.0000 0.0000 0.0000 17.5848 0.0000 0.0000
# 5 0.0000 0.0000 0.0000 0.0000 339.3611 0.0000
# 6 0.0000 0.0000 0.0000 0.0000 0.0000 49.8804
#
#
#
# Elastic Compliance Matrix: (Units=1/GPa)
#
#
# Indices 1 2 3 4 5 6 
#
# 1 0.008982 -0.002628 -0.004209 0.000000 0.000000 0.000000
# 2 -0.002628 0.013894 -0.002075 0.000000 0.000000 0.000000
# 3 -0.004209 -0.002075 0.015486 0.000000 0.000000 0.000000
# 4 0.000000 0.000000 0.000000 0.056867 0.000000 0.000000
# 5 0.000000 0.000000 0.000000 0.000000 0.002947 0.000000
# 6 0.000000 0.000000 0.000000 0.000000 0.000000 0.020048
#
#
# Mechanical properties :
#
#
# Convention : Reuss Voigt Hill
#
# Bulk Modulus (GPa) = 48.69294 54.72555 51.70924
# Shear Modulus (GPa) = 34.99093 95.05882 65.02487
#
# Velocity S-wave (km/s) = 3.72315 6.13662 5.07543
# Velocity P-wave (km/s) = 6.14594 8.47884 7.40484
#
# Compressibility (1/GPa) = 0.02053686
#
# Stress axis : x y z
#
# Youngs Moduli (GPa) = 111.33328 71.97443 64.57479
#
# Poissons Ratio (x) = 0.18916 0.27181
# Poissons Ratio (y) = 0.29260 0.13400
# Poissons Ratio (z) = 0.46862 0.14936
#
# Static dielectric constant tensor:
#      x y z
#    x 2.274500 0.000000 0.000000 
#    y 0.000000 1.434320 0.000000 
#    z 0.000000 0.000000 1.972870 
# 
# From -- ./inp_files/32523.got.cif
#   From: 2010.05.17/outbox.cif.g08.bks.cpg/sg24_17_cif.got.tgz:32523.got - 2010.06.04 00:33:39.
