data_PCOD9333441
_publ_section_title
;
Structure prediction by ZEFSAII (Michael W. Deem and Ramdas Pophale) SiO2 
 PCOD9333441
Probable space group: I 21 21 21
;
_chemical_formula_sum "Si O2"
_cell_formula_units_Z 52
_cell_length_a 8.480643
_cell_length_b 14.262135
_cell_length_c 25.448688
_cell_angle_alpha 90.000000
_cell_angle_beta 90.000000
_cell_angle_gamma 90.000000
_cell_volume 3078.071629
_symmetry_space_group_name_H-M "I 21 21 21"
_symmetry_group_IT_number 24
_symmetry_cell_setting 'orthorhombic'
loop_
_space_group_symop_operation_xyz
x,y,z
-x,1/2-y,z
x,-y,1/2-z
1/2-x,y,-z
1/2+x,1/2+y,1/2+z
1/2-x,-y,1/2+z
1/2+x,1/2-y,-z
-x,1/2+y,1/2-z
loop_
_atom_site_type_symbol
_atom_site_label
_atom_site_fract_x
_atom_site_fract_y
_atom_site_fract_z
Si Si1 0.936378 0.982716 0.306462
Si Si2 0.641362 0.387337 0.883388
Si Si3 0.606367 0.941774 0.195071
Si Si4 0.744417 0.792784 0.328337
Si Si5 0.012800 0.581335 0.603976
Si Si6 0.058384 0.144529 0.003350
Si Si7 0.000000 0.250000 0.739444
O O1 0.844176 0.882768 0.309610
O O2 0.068566 0.971314 0.349759
O O3 0.010821 0.000000 0.250000
O O4 0.796604 0.058588 0.311734
O O5 0.651669 0.288316 0.853529
O O6 0.535468 0.380271 0.935689
O O7 0.826289 0.402984 0.892120
O O8 0.525340 0.842523 0.204947
O O9 0.578755 0.000000 0.250000
O O10 0.548473 0.994958 0.142843
O O11 0.619770 0.835877 0.370647
O O12 0.648357 0.749842 0.279419
O O13 0.029617 0.581558 0.540552
O O14 0.000000 0.250000 0.993584
O O15 0.250000 0.141533 0.000000
#
# Coordination Sequence:
#
# PCOD9333441 Si02
#       7
#     8   8   8   8   8   8   4
#     4  10  20  33  46  71 114 135 161 215 270 318
#     4  11  20  31  49  77 107 142 167 216 274 330
#     4  10  19  35  52  75 102 137 180 228 262 313
#     4  11  18  33  52  74 100 141 181 214 256 312
#     4  10  19  33  50  70 103 137 180 220 250 315
#     4  10  20  31  47  73 104 136 177 211 262 326
#     4  12  18  32  62  72 100 136 192 220 264 304
#
# _framework density 16.893692999999999
#
# number of rings (size 3 to 8) (size 9 to 14) (size 15 to 20)
#    0.000    1.538    6.154    3.231    0.000    3.077 
#    0.000    0.000    0.000    0.000    0.000    6.462 
#    0.000    0.000    0.000    0.000    0.000    0.000 
#
# Total GULP energy -144747.399217 kJ/mol
# GULP energy per Si atom -5567.207662 kJ/mol
# Density = 1.685524 g / cm^3
# Si number density = 16.893693 Si / 1000 Ang^3
#
#
#
# Elastic Constant Matrix: (Units=GPa)
#
#
# Indices 1 2 3 4 5 6 
#
# 1 29.0673 5.6219 12.4799 0.0000 0.0000 0.0000
# 2 5.6219 46.9213 28.6650 0.0000 0.0000 0.0000
# 3 12.4799 28.6650 115.8551 0.0000 0.0000 0.0000
# 4 0.0000 0.0000 0.0000 26.1055 0.0000 0.0000
# 5 0.0000 0.0000 0.0000 0.0000 12.8819 0.0000
# 6 0.0000 0.0000 0.0000 0.0000 0.0000 26.0836
#
#
#
# Elastic Compliance Matrix: (Units=1/GPa)
#
#
# Indices 1 2 3 4 5 6 
#
# 1 0.036282 -0.002308 -0.003337 0.000000 0.000000 0.000000
# 2 -0.002308 0.025254 -0.006000 0.000000 0.000000 0.000000
# 3 -0.003337 -0.006000 0.010475 0.000000 0.000000 0.000000
# 4 0.000000 0.000000 0.000000 0.038306 0.000000 0.000000
# 5 0.000000 0.000000 0.000000 0.000000 0.077628 0.000000
# 6 0.000000 0.000000 0.000000 0.000000 0.000000 0.038338
#
#
# Mechanical properties :
#
#
# Convention : Reuss Voigt Hill
#
# Bulk Modulus (GPa) = 20.52499 31.70861 26.11680
# Shear Modulus (GPa) = 18.81003 22.68600 20.74801
#
# Velocity S-wave (km/s) = 3.34044 3.66849 3.50830
# Velocity P-wave (km/s) = 5.20134 6.06251 5.64836
#
# Compressibility (1/GPa) = 0.04872110
#
# Stress axis : x y z
#
# Youngs Moduli (GPa) = 27.56169 39.59735 95.46152
#
# Poissons Ratio (x) = 0.09141 0.31857
# Poissons Ratio (y) = 0.06362 0.57275
# Poissons Ratio (z) = 0.09198 0.23757
#
# Static dielectric constant tensor:
#      x y z
#    x 1.620440 0.000000 0.000000 
#    y 0.000000 1.564070 0.000000 
#    z 0.000000 0.000000 1.638060 
# 
# From -- ./inp_files/13410.got.cif
#   From: 2010.05.17/outbox.cif.g08.bks.cpg/sg24_7_cif.got.tgz:13410.got - 2010.06.04 00:33:39.
