data_PCOD9333252
_publ_section_title
;
Structure prediction by ZEFSAII (Michael W. Deem and Ramdas Pophale) SiO2 
 PCOD9333252
Probable space group: I 21 21 21
;
_chemical_formula_sum "Si O2"
_cell_formula_units_Z 32
_cell_length_a 5.289249
_cell_length_b 16.678062
_cell_length_c 15.676816
_cell_angle_alpha 90.000000
_cell_angle_beta 90.000000
_cell_angle_gamma 90.000000
_cell_volume 1382.921274
_symmetry_space_group_name_H-M "I 21 21 21"
_symmetry_group_IT_number 24
_symmetry_cell_setting 'orthorhombic'
loop_
_space_group_symop_operation_xyz
x,y,z
-x,1/2-y,z
x,-y,1/2-z
1/2-x,y,-z
1/2+x,1/2+y,1/2+z
1/2-x,-y,1/2+z
1/2+x,1/2-y,-z
-x,1/2+y,1/2-z
loop_
_atom_site_type_symbol
_atom_site_label
_atom_site_fract_x
_atom_site_fract_y
_atom_site_fract_z
Si Si1 0.086979 0.338623 0.256878
Si Si2 0.594601 0.838759 0.391661
Si Si3 0.595841 0.425473 0.893309
Si Si4 0.502387 0.391691 0.554513
O O1 0.361804 0.345445 0.212068
O O2 0.930686 0.407779 0.208087
O O3 0.000000 0.250000 0.229270
O O4 0.046851 0.346952 0.356537
O O5 0.500000 0.750000 0.412069
O O6 0.874030 0.863979 0.422890
O O7 0.377558 0.900417 0.417222
O O8 0.536146 0.514814 0.920483
O O9 0.750000 0.366891 0.500000
O O10 0.250000 0.382568 0.500000
#
# Coordination Sequence:
#
# PCOD9333252 Si02
#       4
#     8   8   8   8
#     4  10  23  42  71  97 127 168 227 274 320 376
#     4  10  18  37  68 100 121 152 218 285 320 356
#     4  10  21  41  68  94 126 171 223 273 312 382
#     4  12  28  44  62  98 143 180 209 259 337 407
#
# _framework density 23.139420999999999
#
# number of rings (size 3 to 8) (size 9 to 14) (size 15 to 20)
#    1.500    0.000    2.500    3.000    3.500    1.000 
#    4.500    0.000    0.000   25.500    0.000    0.000 
#    0.000    0.000    0.000    0.000    0.000    0.000 
#
# Total GULP energy -89335.323531 kJ/mol
# GULP energy per Si atom -5583.457721 kJ/mol
# Density = 2.308676 g / cm^3
# Si number density = 23.139421 Si / 1000 Ang^3
#
#
#
# Elastic Constant Matrix: (Units=GPa)
#
#
# Indices 1 2 3 4 5 6 
#
# 1 159.5991 15.5997 41.0915 0.0000 0.0000 0.0000
# 2 15.5997 49.6339 1.0059 0.0000 0.0000 0.0000
# 3 41.0915 1.0059 131.2221 0.0000 0.0000 0.0000
# 4 0.0000 0.0000 0.0000 30.9869 0.0000 0.0000
# 5 0.0000 0.0000 0.0000 0.0000 42.7277 0.0000
# 6 0.0000 0.0000 0.0000 0.0000 0.0000 7.6577
#
#
#
# Elastic Compliance Matrix: (Units=1/GPa)
#
#
# Indices 1 2 3 4 5 6 
#
# 1 0.007041 -0.002169 -0.002188 0.000000 0.000000 0.000000
# 2 -0.002169 0.020819 0.000520 0.000000 0.000000 0.000000
# 3 -0.002188 0.000520 0.008302 0.000000 0.000000 0.000000
# 4 0.000000 0.000000 0.000000 0.032272 0.000000 0.000000
# 5 0.000000 0.000000 0.000000 0.000000 0.023404 0.000000
# 6 0.000000 0.000000 0.000000 0.000000 0.000000 0.130588
#
#
# Mechanical properties :
#
#
# Convention : Reuss Voigt Hill
#
# Bulk Modulus (GPa) = 35.10394 50.64993 42.87693
# Shear Modulus (GPa) = 20.86853 35.12500 27.99676
#
# Velocity S-wave (km/s) = 3.00636 3.90034 3.48216
# Velocity P-wave (km/s) = 5.22058 6.49770 5.89383
#
# Compressibility (1/GPa) = 0.02848683
#
# Stress axis : x y z
#
# Youngs Moduli (GPa) = 142.02384 48.03400 120.45402
#
# Poissons Ratio (x) = 0.10417 0.26358
# Poissons Ratio (y) = 0.30800 -0.06258
# Poissons Ratio (z) = 0.31078 -0.02495
#
# Static dielectric constant tensor:
#      x y z
#    x 1.837690 0.000000 0.000000 
#    y 0.000000 1.792700 0.000000 
#    z 0.000000 0.000000 2.054330 
# 
# From -- ./inp_files/3071.got.cif
#   From: 2010.05.17/outbox.cif.g08.bks.cpg/sg24_2_cif.got.tgz:3071.got - 2010.06.04 00:33:39.
