data_PCOD9333366
_publ_section_title
;
Structure prediction by ZEFSAII (Michael W. Deem and Ramdas Pophale) SiO2 
 PCOD9333366
Probable space group: I 21 21 21
;
_chemical_formula_sum "Si O2"
_cell_formula_units_Z 48
_cell_length_a 16.875116
_cell_length_b 7.271965
_cell_length_c 16.811213
_cell_angle_alpha 90.000000
_cell_angle_beta 90.000000
_cell_angle_gamma 90.000000
_cell_volume 2062.992255
_symmetry_space_group_name_H-M "I 21 21 21"
_symmetry_group_IT_number 24
_symmetry_cell_setting 'orthorhombic'
loop_
_space_group_symop_operation_xyz
x,y,z
-x,1/2-y,z
x,-y,1/2-z
1/2-x,y,-z
1/2+x,1/2+y,1/2+z
1/2-x,-y,1/2+z
1/2+x,1/2-y,-z
-x,1/2+y,1/2-z
loop_
_atom_site_type_symbol
_atom_site_label
_atom_site_fract_x
_atom_site_fract_y
_atom_site_fract_z
Si Si1 0.750000 0.532310 0.843823
Si Si2 0.578912 0.969552 0.844301
Si Si3 0.085393 0.053323 0.593767
Si Si4 0.921088 0.969553 0.844302
Si Si5 0.914607 0.446677 0.406233
Si Si6 0.750000 0.029644 0.345615
O O1 0.750000 0.500000 0.750000
O O2 0.832890 0.461025 0.878620
O O3 0.667110 0.461024 0.878620
O O4 0.750000 0.751334 0.861117
O O5 0.497951 0.039134 0.883551
O O6 0.582586 0.750989 0.862118
O O7 0.664550 0.041232 0.874326
O O8 0.573782 0.000000 0.750000
O O9 0.082586 0.250989 0.637882
O O10 0.087779 0.085528 0.500000
O O11 0.002049 0.960866 0.616449
O O12 0.835450 0.041232 0.874325
O O13 0.926219 0.000000 0.750000
O O14 0.750000 0.000000 0.250000
#
# Coordination Sequence:
#
# PCOD9333366 Si02
#       6
#     8   8   8   8   8   8
#     4  10  19  31  50  77  99 126 167 210 248 295
#     4   9  16  28  46  69  96 127 166 211 250 296
#     4  10  19  31  47  73 102 130 165 212 257 299
#     4   9  16  28  46  69  96 127 166 211 250 296
#     4  10  19  31  47  73 102 130 165 212 257 299
#     4   8  16  29  46  71  96 122 159 204 245 287
#
# _framework density 23.267175000000002
#
# number of rings (size 3 to 8) (size 9 to 14) (size 15 to 20)
#    0.000    2.667    0.000    3.500    0.000    0.000 
#    0.000    2.500    0.000    0.000    0.000  221.667 
#    0.000    0.000    0.000    0.000    0.000    0.000 
#
# Total GULP energy -133897.386701 kJ/mol
# GULP energy per Si atom -5579.057779 kJ/mol
# Density = 2.321422 g / cm^3
# Si number density = 23.267175 Si / 1000 Ang^3
#
#
#
# Elastic Constant Matrix: (Units=GPa)
#
#
# Indices 1 2 3 4 5 6 
#
# 1 320.7995 20.9460 58.3552 0.0000 0.0000 0.0000
# 2 20.9460 103.3525 15.6266 0.0000 0.0000 0.0000
# 3 58.3552 15.6266 123.5792 0.0000 0.0000 0.0000
# 4 0.0000 0.0000 0.0000-1265.6218 0.0000 0.0000
# 5 0.0000 0.0000 0.0000 0.0000 84.6897 0.0000
# 6 0.0000 0.0000 0.0000 0.0000 0.0000 -24.8642
#
#
#
# Elastic Compliance Matrix: (Units=1/GPa)
#
#
# Indices 1 2 3 4 5 6 
#
# 1 0.003431 -0.000459 -0.001562 0.000000 0.000000 0.000000
# 2 -0.000459 0.009926 -0.001038 0.000000 0.000000 0.000000
# 3 -0.001562 -0.001038 0.008961 0.000000 0.000000 0.000000
# 4 0.000000 0.000000 0.000000 -0.000790 0.000000 0.000000
# 5 0.000000 0.000000 0.000000 0.000000 0.011808 0.000000
# 6 0.000000 0.000000 0.000000 0.000000 0.000000 -0.040218
#
#
# Mechanical properties :
#
#
# Convention : Reuss Voigt Hill
#
# Bulk Modulus (GPa) = 61.73384 81.95410 71.84397
# Shear Modulus (GPa) = 1078.45651 -210.97238 433.74206
#
# Velocity S-wave (km/s) = 21.55264 -9.53261 13.66831
# Velocity P-wave (km/s) = 25.41545 9.26614 16.73445
#
# Compressibility (1/GPa) = 0.01619857
#
# Stress axis : x y z
#
# Youngs Moduli (GPa) = 291.42798 100.74885 111.59492
#
# Poissons Ratio (x) = 0.04627 0.17434
# Poissons Ratio (y) = 0.13383 0.11586
# Poissons Ratio (z) = 0.45529 0.10460
#
# Static dielectric constant tensor:
#      x y z
#    x 2.010500 0.000000 0.000000 
#    y 0.000000 1.835100 0.000000 
#    z 0.000000 0.000000 1.757950 
# 
# From -- ./inp_files/27120.got.cif
#   From: 2010.05.17/outbox.cif.g08.bks.cpg/sg24_14_cif.got.tgz:27120.got - 2010.06.04 00:33:39.
