data_PCOD9333525
_publ_section_title
;
Structure prediction by ZEFSAII (Michael W. Deem and Ramdas Pophale) SiO2 
 PCOD9333525
Probable space group: I 21 21 21
;
_chemical_formula_sum "Si O2"
_cell_formula_units_Z 44
_cell_length_a 7.052868
_cell_length_b 11.159050
_cell_length_c 23.331877
_cell_angle_alpha 90.000000
_cell_angle_beta 90.000000
_cell_angle_gamma 90.000000
_cell_volume 1836.295870
_symmetry_space_group_name_H-M "I 21 21 21"
_symmetry_group_IT_number 24
_symmetry_cell_setting 'orthorhombic'
loop_
_space_group_symop_operation_xyz
x,y,z
-x,1/2-y,z
x,-y,1/2-z
1/2-x,y,-z
1/2+x,1/2+y,1/2+z
1/2-x,-y,1/2+z
1/2+x,1/2-y,-z
-x,1/2+y,1/2-z
loop_
_atom_site_type_symbol
_atom_site_label
_atom_site_fract_x
_atom_site_fract_y
_atom_site_fract_z
Si Si1 0.311620 0.106633 0.708602
Si Si2 0.750000 0.730965 0.000000
Si Si3 0.229169 0.625759 0.782532
Si Si4 0.088518 0.965992 0.083366
Si Si5 0.026552 0.614829 0.514780
Si Si6 0.647475 0.923568 0.093713
O O1 0.215868 0.230592 0.730414
O O2 0.540674 0.119284 0.714162
O O3 0.300642 0.066334 0.641526
O O4 0.250894 0.000000 0.750000
O O5 0.625331 0.642618 0.960668
O O6 0.840081 0.818610 0.952729
O O7 0.180574 0.500000 0.750000
O O8 0.114758 0.616684 0.842099
O O9 0.865186 0.969012 0.098880
O O10 0.097586 0.082384 0.041621
O O11 0.250000 0.599625 0.500000
O O12 0.006411 0.520784 0.566554
O O13 0.000000 0.750000 0.532852
#
# Coordination Sequence:
#
# PCOD9333525 Si02
#       6
#     8   4   8   8   8   8
#     4   9  17  31  47  76 115 151 189 240 296 350
#     4  12  18  30  56  86 114 148 190 238 288 342
#     4   9  17  31  51  77 108 151 197 239 291 342
#     4  10  20  33  53  80 118 151 191 242 291 344
#     4  10  22  39  54  83 119 154 191 234 295 353
#     4  10  19  34  56  80 114 153 191 243 286 347
#
# _framework density 23.961281
#
# number of rings (size 3 to 8) (size 9 to 14) (size 15 to 20)
#    0.000    2.182    4.545    0.545    1.273    0.000 
#   13.091    0.000    0.000    0.000    4.727    0.000 
#    0.000    0.000    0.000    0.000    0.000    0.000 
#
# Total GULP energy -122650.227357 kJ/mol
# GULP energy per Si atom -5575.010334 kJ/mol
# Density = 2.390674 g / cm^3
# Si number density = 23.961281 Si / 1000 Ang^3
#
#
#
# Elastic Constant Matrix: (Units=GPa)
#
#
# Indices 1 2 3 4 5 6 
#
# 1 80.1667 14.1854 13.6352 0.0000 0.0000 0.0000
# 2 14.1854 204.2914 93.0646 0.0000 0.0000 0.0000
# 3 13.6352 93.0646 142.3719 0.0000 0.0000 0.0000
# 4 0.0000 0.0000 0.0000 -15.7134 0.0000 0.0000
# 5 0.0000 0.0000 0.0000 0.0000 26.6975 0.0000
# 6 0.0000 0.0000 0.0000 0.0000 0.0000 27.8531
#
#
#
# Elastic Compliance Matrix: (Units=1/GPa)
#
#
# Indices 1 2 3 4 5 6 
#
# 1 0.012712 -0.000467 -0.000912 0.000000 0.000000 0.000000
# 2 -0.000467 0.006988 -0.004523 0.000000 0.000000 0.000000
# 3 -0.000912 -0.004523 0.010068 0.000000 0.000000 0.000000
# 4 0.000000 0.000000 0.000000 -0.063640 0.000000 0.000000
# 5 0.000000 0.000000 0.000000 0.000000 0.037457 0.000000
# 6 0.000000 0.000000 0.000000 0.000000 0.000000 0.035903
#
#
# Mechanical properties :
#
#
# Convention : Reuss Voigt Hill
#
# Bulk Modulus (GPa) = 55.67021 74.28892 64.97957
# Shear Modulus (GPa) = 87.29197 28.16376 57.72786
#
# Velocity S-wave (km/s) = 6.04231 3.43211 4.91370
# Velocity P-wave (km/s) = 8.48311 6.83936 7.70520
#
# Compressibility (1/GPa) = 0.01796293
#
# Stress axis : x y z
#
# Youngs Moduli (GPa) = 78.66706 143.10508 99.32667
#
# Poissons Ratio (x) = 0.06686 0.09059
# Poissons Ratio (y) = 0.03675 0.44926
# Poissons Ratio (z) = 0.07175 0.64727
#
# Static dielectric constant tensor:
#      x y z
#    x 2.182980 0.000000 0.000000 
#    y 0.000000 1.922060 0.000000 
#    z 0.000000 0.000000 1.905000 
# 
# From -- ./inp_files/35499.got.cif
#   From: 2010.05.17/outbox.cif.g08.bks.cpg/sg24_18_cif.got.tgz:35499.got - 2010.06.04 00:33:39.
