data_PCOD9333943
_publ_section_title
;
Structure prediction by ZEFSAII (Michael W. Deem and Ramdas Pophale) SiO2 
 PCOD9333943
Probable space group: I 21 21 21
;
_chemical_formula_sum "Si O2"
_cell_formula_units_Z 40
_cell_length_a 22.617748
_cell_length_b 18.504781
_cell_length_c 4.983860
_cell_angle_alpha 90.000000
_cell_angle_beta 90.000000
_cell_angle_gamma 90.000000
_cell_volume 2085.927189
_symmetry_space_group_name_H-M "I 21 21 21"
_symmetry_group_IT_number 24
_symmetry_cell_setting 'orthorhombic'
loop_
_space_group_symop_operation_xyz
x,y,z
-x,1/2-y,z
x,-y,1/2-z
1/2-x,y,-z
1/2+x,1/2+y,1/2+z
1/2-x,-y,1/2+z
1/2+x,1/2-y,-z
-x,1/2+y,1/2-z
loop_
_atom_site_type_symbol
_atom_site_label
_atom_site_fract_x
_atom_site_fract_y
_atom_site_fract_z
Si Si1 0.363836 0.775973 0.845355
Si Si2 0.376276 0.582525 0.297831
Si Si3 0.706288 0.580577 0.751043
Si Si4 0.065608 0.271609 0.857587
Si Si5 0.805768 0.870007 0.195747
O O1 0.339530 0.855119 0.789532
O O2 0.417662 0.760116 0.645779
O O3 0.313157 0.716346 0.770947
O O4 0.386715 0.760346 0.145445
O O5 0.393487 0.500000 0.250000
O O6 0.424341 0.642042 0.380731
O O7 0.321999 0.592749 0.517296
O O8 0.357835 0.606834 0.001308
O O9 0.679062 0.500000 0.750000
O O10 0.750000 0.590785 0.500000
O O11 0.750000 0.582647 0.000000
O O12 0.000000 0.250000 0.776933
O O13 0.750000 0.886535 0.000000
#
# Coordination Sequence:
#
# PCOD9333943 Si02
#       5
#     8   8   8   8   8
#     4  10  20  35  56  80 107 140 183 224 262 323
#     4  10  21  36  53  77 108 140 176 219 266 315
#     4  10  20  34  54  81 114 146 173 213 270 324
#     4  10  21  38  58  78 104 142 184 229 274 312
#     4  10  20  33  53  78 106 142 177 211 258 318
#
# _framework density 19.176124000000002
#
# number of rings (size 3 to 8) (size 9 to 14) (size 15 to 20)
#    0.000    2.000    0.000    3.600    0.000    4.800 
#    0.000    2.000    0.000    1.200    0.000    0.000 
#    0.000    0.000    0.000    0.000    0.000    0.000 
#
# Total GULP energy -111404.193372 kJ/mol
# GULP energy per Si atom -5570.209669 kJ/mol
# Density = 1.913248 g / cm^3
# Si number density = 19.176124 Si / 1000 Ang^3
#
#
#
# Elastic Constant Matrix: (Units=GPa)
#
#
# Indices 1 2 3 4 5 6 
#
# 1 45.9154 46.6908 0.9788 0.0000 0.0000 0.0000
# 2 46.6908 173.3850 14.5932 0.0000 0.0000 0.0000
# 3 0.9788 14.5932 110.4304 0.0000 0.0000 0.0000
# 4 0.0000 0.0000 0.0000 21.3045 0.0000 0.0000
# 5 0.0000 0.0000 0.0000 0.0000 17.1314 0.0000
# 6 0.0000 0.0000 0.0000 0.0000 0.0000 5.8192
#
#
#
# Elastic Compliance Matrix: (Units=1/GPa)
#
#
# Indices 1 2 3 4 5 6 
#
# 1 0.030064 -0.008164 0.000812 0.000000 0.000000 0.000000
# 2 -0.008164 0.008050 -0.000991 0.000000 0.000000 0.000000
# 3 0.000812 -0.000991 0.009179 0.000000 0.000000 0.000000
# 4 0.000000 0.000000 0.000000 0.046939 0.000000 0.000000
# 5 0.000000 0.000000 0.000000 0.000000 0.058372 0.000000
# 6 0.000000 0.000000 0.000000 0.000000 0.000000 0.171846
#
#
# Mechanical properties :
#
#
# Convention : Reuss Voigt Hill
#
# Bulk Modulus (GPa) = 32.67296 50.47295 41.57295
# Shear Modulus (GPa) = 14.23128 26.68219 20.45674
#
# Velocity S-wave (km/s) = 2.72717 3.73423 3.26971
# Velocity P-wave (km/s) = 5.19538 6.70601 5.99844
#
# Compressibility (1/GPa) = 0.03060635
#
# Stress axis : x y z
#
# Youngs Moduli (GPa) = 33.26225 124.23091 108.94099
#
# Poissons Ratio (x) = 1.01426 -0.08851
# Poissons Ratio (y) = 0.27156 0.10800
# Poissons Ratio (z) = -0.02702 0.12316
#
# Static dielectric constant tensor:
#      x y z
#    x 1.660480 0.000000 0.000000 
#    y 0.000000 1.742690 0.000000 
#    z 0.000000 0.000000 1.662450 
# 
# From -- ./inp_files/3506.got.cif
#   From: 2010.05.17/outbox.cif.g08.bks.cpg/sg24_2_cif.got.tgz:3506.got - 2010.06.04 00:33:39.
