data_PCOD9333356
_publ_section_title
;
Structure prediction by ZEFSAII (Michael W. Deem and Ramdas Pophale) SiO2 
 PCOD9333356
Probable space group: I 21 21 21
;
_chemical_formula_sum "Si O2"
_cell_formula_units_Z 52
_cell_length_a 14.926049
_cell_length_b 22.586234
_cell_length_c 7.989841
_cell_angle_alpha 90.000000
_cell_angle_beta 90.000000
_cell_angle_gamma 90.000000
_cell_volume 2693.561048
_symmetry_space_group_name_H-M "I 21 21 21"
_symmetry_group_IT_number 24
_symmetry_cell_setting 'orthorhombic'
loop_
_space_group_symop_operation_xyz
x,y,z
-x,1/2-y,z
x,-y,1/2-z
1/2-x,y,-z
1/2+x,1/2+y,1/2+z
1/2-x,-y,1/2+z
1/2+x,1/2-y,-z
-x,1/2+y,1/2-z
loop_
_atom_site_type_symbol
_atom_site_label
_atom_site_fract_x
_atom_site_fract_y
_atom_site_fract_z
Si Si1 0.569600 0.557960 0.148389
Si Si2 0.356802 0.822945 0.762081
Si Si3 0.924841 0.333071 0.899823
Si Si4 0.037458 0.354310 0.450349
Si Si5 0.393805 0.701814 0.294002
Si Si6 0.250000 0.090755 0.500000
Si Si7 0.208746 0.690602 0.187107
O O1 0.544233 0.500000 0.250000
O O2 0.583804 0.611889 0.277647
O O3 0.494568 0.582104 0.020176
O O4 0.665121 0.552185 0.056589
O O5 0.375606 0.842631 0.573541
O O6 0.286710 0.865433 0.855363
O O7 0.325879 0.755183 0.761699
O O8 0.450172 0.827271 0.862978
O O9 0.888830 0.272465 0.815979
O O10 0.031665 0.321163 0.923590
O O11 0.064664 0.315639 0.613504
O O12 0.123759 0.352255 0.330768
O O13 0.294523 0.675170 0.300489
O O14 0.250000 0.696029 0.000000
#
# Coordination Sequence:
#
# PCOD9333356 Si02
#       7
#     8   8   8   8   8   4   8
#     4  10  22  40  58  79 113 161 201 253 297 354
#     4  11  21  34  53  86 117 157 191 243 303 362
#     4  10  22  35  52  82 124 152 188 251 308 361
#     4   9  21  35  57  79 114 156 203 235 301 372
#     4   9  20  35  51  84 119 150 187 243 307 367
#     4  10  22  36  56  80 110 154 210 236 288 374
#     4  10  19  30  55  82 112 151 194 233 285 375
#
# _framework density 19.305299000000002
#
# number of rings (size 3 to 8) (size 9 to 14) (size 15 to 20)
#    0.000    2.154    0.769    1.385   21.538    3.692 
#    0.000    2.308    0.000    0.000    0.000   43.077 
#    0.000    0.000    0.000    0.000    0.000    0.000 
#
# Total GULP energy -145133.185290 kJ/mol
# GULP energy per Si atom -5582.045588 kJ/mol
# Density = 1.926136 g / cm^3
# Si number density = 19.305299 Si / 1000 Ang^3
#
#
#
# Elastic Constant Matrix: (Units=GPa)
#
#
# Indices 1 2 3 4 5 6 
#
# 1 131.2479 19.6640 18.5600 0.0000 0.0000 0.0000
# 2 19.6640 33.0819 -1.6904 0.0000 0.0000 0.0000
# 3 18.5600 -1.6904 29.6175 0.0000 0.0000 0.0000
# 4 0.0000 0.0000 0.0000 14.7956 0.0000 0.0000
# 5 0.0000 0.0000 0.0000 0.0000 25.0848 0.0000
# 6 0.0000 0.0000 0.0000 0.0000 0.0000 8.0311
#
#
#
# Elastic Compliance Matrix: (Units=1/GPa)
#
#
# Indices 1 2 3 4 5 6 
#
# 1 0.009381 -0.005894 -0.006215 0.000000 0.000000 0.000000
# 2 -0.005894 0.034019 0.005635 0.000000 0.000000 0.000000
# 3 -0.006215 0.005635 0.037980 0.000000 0.000000 0.000000
# 4 0.000000 0.000000 0.000000 0.067588 0.000000 0.000000
# 5 0.000000 0.000000 0.000000 0.000000 0.039865 0.000000
# 6 0.000000 0.000000 0.000000 0.000000 0.000000 0.124516
#
#
# Mechanical properties :
#
#
# Convention : Reuss Voigt Hill
#
# Bulk Modulus (GPa) = 14.61286 29.66828 22.14057
# Shear Modulus (GPa) = 14.32224 20.07655 17.19939
#
# Velocity S-wave (km/s) = 2.72670 3.22832 2.98806
# Velocity P-wave (km/s) = 4.18318 5.41271 4.83717
#
# Compressibility (1/GPa) = 0.06843286
#
# Stress axis : x y z
#
# Youngs Moduli (GPa) = 106.59748 29.39511 26.32950
#
# Poissons Ratio (x) = 0.17325 0.16364
# Poissons Ratio (y) = 0.62826 -0.14837
# Poissons Ratio (z) = 0.66252 -0.16564
#
# Static dielectric constant tensor:
#      x y z
#    x 1.744870 0.000000 0.000000 
#    y 0.000000 1.618480 0.000000 
#    z 0.000000 0.000000 1.721310 
# 
# From -- ./inp_files/13061.got.cif
#   From: 2010.05.17/outbox.cif.g08.bks.cpg/sg24_7_cif.got.tgz:13061.got - 2010.06.04 00:33:39.
