data_PCOD9333548
_publ_section_title
;
Structure prediction by ZEFSAII (Michael W. Deem and Ramdas Pophale) SiO2 
 PCOD9333548
Probable space group: I 21 21 21
;
_chemical_formula_sum "Si O2"
_cell_formula_units_Z 56
_cell_length_a 8.528499
_cell_length_b 17.786236
_cell_length_c 17.542765
_cell_angle_alpha 90.000000
_cell_angle_beta 90.000000
_cell_angle_gamma 90.000000
_cell_volume 2661.060197
_symmetry_space_group_name_H-M "I 21 21 21"
_symmetry_group_IT_number 24
_symmetry_cell_setting 'orthorhombic'
loop_
_space_group_symop_operation_xyz
x,y,z
-x,1/2-y,z
x,-y,1/2-z
1/2-x,y,-z
1/2+x,1/2+y,1/2+z
1/2-x,-y,1/2+z
1/2+x,1/2-y,-z
-x,1/2+y,1/2-z
loop_
_atom_site_type_symbol
_atom_site_label
_atom_site_fract_x
_atom_site_fract_y
_atom_site_fract_z
Si Si1 0.818337 0.522964 0.591989
Si Si2 0.669385 0.273695 0.797082
Si Si3 0.505409 0.500000 0.250000
Si Si4 0.443252 0.174005 0.087281
Si Si5 0.250000 0.889800 0.000000
Si Si6 0.485590 0.500362 0.838393
Si Si7 0.435531 0.165695 0.642905
Si Si8 0.286018 0.616170 0.302108
O O1 0.881618 0.597576 0.551187
O O2 0.861403 0.449513 0.543572
O O3 0.633060 0.524394 0.610669
O O4 0.896432 0.514365 0.674684
O O5 0.500000 0.250000 0.832328
O O6 0.800516 0.303270 0.855242
O O7 0.648905 0.330651 0.726345
O O8 0.719630 0.191928 0.765876
O O9 0.389161 0.570398 0.242180
O O10 0.500000 0.250000 0.045231
O O11 0.595409 0.146625 0.133846
O O12 0.173202 0.844822 0.068765
O O13 0.535454 0.500000 0.750000
O O14 0.459378 0.589217 0.856810
O O15 0.342140 0.440822 0.838271
O O16 0.500000 0.250000 0.636964
#
# Coordination Sequence:
#
# PCOD9333548 Si02
#       8
#     8   8   4   8   4   8   8   8
#     4  10  20  37  59  82 112 156 199 247 288 365
#     4  10  19  34  58  86 123 151 192 241 305 363
#     4  10  20  32  56  86 114 140 198 242 310 336
#     4   9  19  34  55  90 123 142 179 250 320 355
#     4  10  24  40  56  78 114 162 224 234 288 352
#     4  11  18  32  59  83 112 151 204 248 295 359
#     4  10  22  38  54  80 117 164 211 252 292 358
#     4  10  20  30  51  93 117 146 184 250 312 355
#
# _framework density 21.044245
#
# number of rings (size 3 to 8) (size 9 to 14) (size 15 to 20)
#    0.000    2.000    1.429    3.429    6.000    0.000 
#    2.571    0.000    0.000   18.000    0.000    0.000 
#    0.000    0.000    0.000    0.000    0.000    0.000 
#
# Total GULP energy -155899.433363 kJ/mol
# GULP energy per Si atom -5567.836906 kJ/mol
# Density = 2.099635 g / cm^3
# Si number density = 21.044245 Si / 1000 Ang^3
#
#
#
# Elastic Constant Matrix: (Units=GPa)
#
#
# Indices 1 2 3 4 5 6 
#
# 1 87.8245 37.4946 15.9003 0.0000 0.0000 0.0000
# 2 37.4946 146.2659 13.0250 0.0000 0.0000 0.0000
# 3 15.9003 13.0250 42.9179 0.0000 0.0000 0.0000
# 4 0.0000 0.0000 0.0000 18.8372 0.0000 0.0000
# 5 0.0000 0.0000 0.0000 0.0000 8.8952 0.0000
# 6 0.0000 0.0000 0.0000 0.0000 0.0000 31.4088
#
#
#
# Elastic Compliance Matrix: (Units=1/GPa)
#
#
# Indices 1 2 3 4 5 6 
#
# 1 0.013435 -0.003084 -0.004041 0.000000 0.000000 0.000000
# 2 -0.003084 0.007735 -0.001205 0.000000 0.000000 0.000000
# 3 -0.004041 -0.001205 0.025163 0.000000 0.000000 0.000000
# 4 0.000000 0.000000 0.000000 0.053087 0.000000 0.000000
# 5 0.000000 0.000000 0.000000 0.000000 0.112420 0.000000
# 6 0.000000 0.000000 0.000000 0.000000 0.000000 0.031838
#
#
# Mechanical properties :
#
#
# Convention : Reuss Voigt Hill
#
# Bulk Modulus (GPa) = 33.70152 45.53867 39.62010
# Shear Modulus (GPa) = 18.50286 25.86746 22.18516
#
# Velocity S-wave (km/s) = 2.96841 3.50979 3.25039
# Velocity P-wave (km/s) = 5.27238 6.17344 5.74061
#
# Compressibility (1/GPa) = 0.02967225
#
# Stress axis : x y z
#
# Youngs Moduli (GPa) = 74.43426 129.28699 39.74056
#
# Poissons Ratio (x) = 0.39873 0.16061
# Poissons Ratio (y) = 0.22956 0.04788
# Poissons Ratio (z) = 0.30081 0.15577
#
# Static dielectric constant tensor:
#      x y z
#    x 1.824730 0.000000 0.000000 
#    y 0.000000 1.835190 0.000000 
#    z 0.000000 0.000000 1.766110 
# 
# From -- ./inp_files/32932.got.cif
#   From: 2010.05.17/outbox.cif.g08.bks.cpg/sg24_17_cif.got.tgz:32932.got - 2010.06.04 00:33:39.
