data_PCOD9333563
_publ_section_title
;
Structure prediction by ZEFSAII (Michael W. Deem and Ramdas Pophale) SiO2 
 PCOD9333563
Probable space group: I 21 21 21
;
_chemical_formula_sum "Si O2"
_cell_formula_units_Z 24
_cell_length_a 7.381466
_cell_length_b 4.816040
_cell_length_c 26.299125
_cell_angle_alpha 90.000000
_cell_angle_beta 90.000000
_cell_angle_gamma 90.000000
_cell_volume 934.919048
_symmetry_space_group_name_H-M "I 21 21 21"
_symmetry_group_IT_number 24
_symmetry_cell_setting 'orthorhombic'
loop_
_space_group_symop_operation_xyz
x,y,z
-x,1/2-y,z
x,-y,1/2-z
1/2-x,y,-z
1/2+x,1/2+y,1/2+z
1/2-x,-y,1/2+z
1/2+x,1/2-y,-z
-x,1/2+y,1/2-z
loop_
_atom_site_type_symbol
_atom_site_label
_atom_site_fract_x
_atom_site_fract_y
_atom_site_fract_z
Si Si1 0.280276 0.260610 0.214425
Si Si2 0.696692 0.384917 0.944612
Si Si3 0.811834 0.904072 0.884293
O O1 0.500000 0.250000 0.211353
O O2 0.213264 0.500000 0.250000
O O3 0.232585 0.390858 0.159165
O O4 0.229800 0.000000 0.250000
O O5 0.500000 0.250000 0.945518
O O6 0.703480 0.639008 0.904848
O O7 0.826334 0.125298 0.929709
O O8 0.750000 0.494486 0.000000
O O9 0.000000 0.750000 0.867640
#
# Coordination Sequence:
#
# PCOD9333563 Si02
#       3
#     8   8   8
#     4  10  19  34  60  99 138 172 220 283 340 397
#     4  12  26  45  67  98 141 187 236 289 351 418
#     4  12  23  41  69 103 138 181 234 290 348 409
#
# _framework density 25.670672
#
# number of rings (size 3 to 8) (size 9 to 14) (size 15 to 20)
#    0.000    0.667    0.000   12.000    0.000    0.000 
#    0.000    0.000    0.000    6.000    0.000   32.667 
#    0.000    0.000    0.000    0.000    0.000    0.000 
#
# Total GULP energy -66914.558431 kJ/mol
# GULP energy per Si atom -5576.213203 kJ/mol
# Density = 2.561224 g / cm^3
# Si number density = 25.670672 Si / 1000 Ang^3
#
#
#
# Elastic Constant Matrix: (Units=GPa)
#
#
# Indices 1 2 3 4 5 6 
#
# 1 91.0389 45.9729 28.7167 0.0000 0.0000 0.0000
# 2 45.9729 257.4631 93.4047 0.0000 0.0000 0.0000
# 3 28.7167 93.4047 153.9722 0.0000 0.0000 0.0000
# 4 0.0000 0.0000 0.0000 63.1056 0.0000 0.0000
# 5 0.0000 0.0000 0.0000 0.0000 7.1326 0.0000
# 6 0.0000 0.0000 0.0000 0.0000 0.0000 16.5173
#
#
#
# Elastic Compliance Matrix: (Units=1/GPa)
#
#
# Indices 1 2 3 4 5 6 
#
# 1 0.012251 -0.001742 -0.001228 0.000000 0.000000 0.000000
# 2 -0.001742 0.005228 -0.002846 0.000000 0.000000 0.000000
# 3 -0.001228 -0.002846 0.008450 0.000000 0.000000 0.000000
# 4 0.000000 0.000000 0.000000 0.015846 0.000000 0.000000
# 5 0.000000 0.000000 0.000000 0.000000 0.140201 0.000000
# 6 0.000000 0.000000 0.000000 0.000000 0.000000 0.060543
#
#
# Mechanical properties :
#
#
# Convention : Reuss Voigt Hill
#
# Bulk Modulus (GPa) = 69.94797 93.18479 81.56638
# Shear Modulus (GPa) = 19.31108 39.64309 29.47708
#
# Velocity S-wave (km/s) = 2.74572 3.93402 3.39230
# Velocity P-wave (km/s) = 6.11223 7.55077 6.86926
#
# Compressibility (1/GPa) = 0.01429634
#
# Stress axis : x y z
#
# Youngs Moduli (GPa) = 81.62316 191.28611 118.33645
#
# Poissons Ratio (x) = 0.33323 0.14534
# Poissons Ratio (y) = 0.14219 0.33684
# Poissons Ratio (z) = 0.10025 0.54448
#
# Static dielectric constant tensor:
#      x y z
#    x 2.128330 0.000000 0.000000 
#    y 0.000000 1.931820 0.000000 
#    z 0.000000 0.000000 1.978650 
# 
# From -- ./inp_files/16141.got.cif
#   From: 2010.05.17/outbox.cif.g08.bks.cpg/sg24_9_cif.got.tgz:16141.got - 2010.06.04 00:33:39.
