data_PCOD9333226
_publ_section_title
;
Structure prediction by ZEFSAII (Michael W. Deem and Ramdas Pophale) SiO2 
 PCOD9333226
Probable space group: I 21 21 21
;
_chemical_formula_sum "Si O2"
_cell_formula_units_Z 40
_cell_length_a 9.255749
_cell_length_b 10.873621
_cell_length_c 17.858157
_cell_angle_alpha 90.000000
_cell_angle_beta 90.000000
_cell_angle_gamma 90.000000
_cell_volume 1797.307544
_symmetry_space_group_name_H-M "I 21 21 21"
_symmetry_group_IT_number 24
_symmetry_cell_setting 'orthorhombic'
loop_
_space_group_symop_operation_xyz
x,y,z
-x,1/2-y,z
x,-y,1/2-z
1/2-x,y,-z
1/2+x,1/2+y,1/2+z
1/2-x,-y,1/2+z
1/2+x,1/2-y,-z
-x,1/2+y,1/2-z
loop_
_atom_site_type_symbol
_atom_site_label
_atom_site_fract_x
_atom_site_fract_y
_atom_site_fract_z
Si Si1 0.716707 0.627901 0.208009
Si Si2 0.298865 0.465003 0.662713
Si Si3 0.500000 0.750000 0.824673
Si Si4 0.092412 0.372905 0.037044
Si Si5 0.500000 0.750000 0.309649
Si Si6 0.987661 0.505907 0.899807
O O1 0.688936 0.500000 0.250000
O O2 0.884606 0.659507 0.213587
O O3 0.634435 0.735418 0.253157
O O4 0.642367 0.593718 0.128048
O O5 0.298422 0.500000 0.750000
O O6 0.389843 0.345505 0.638980
O O7 0.371413 0.577516 0.618750
O O8 0.137373 0.443158 0.633089
O O9 0.000000 0.250000 0.038401
O O10 0.250000 0.351385 0.000000
O O11 0.008718 0.475061 0.987084
O O12 0.486674 0.869436 0.361686
#
# Coordination Sequence:
#
# PCOD9333226 Si02
#       6
#     8   8   4   8   4   8
#     4  10  21  35  62  94 130 178 221 278 332 402
#     4  11  24  41  64  93 136 176 220 282 339 406
#     4  12  24  40  54  92 134 170 224 270 342 390
#     4  10  23  43  68  99 131 176 224 289 346 398
#     4  10  18  36  66  94 128 170 226 278 332 400
#     4  10  20  41  65  96 128 175 235 270 333 410
#
# _framework density 22.255512
#
# number of rings (size 3 to 8) (size 9 to 14) (size 15 to 20)
#    0.000    1.600    1.000    4.800    1.400    1.600 
#    3.600    7.000    0.000    0.000    0.000    0.000 
#    0.000    0.000    0.000    0.000    0.000    0.000 
#
# Total GULP energy -111588.104457 kJ/mol
# GULP energy per Si atom -5579.405223 kJ/mol
# Density = 2.220486 g / cm^3
# Si number density = 22.255512 Si / 1000 Ang^3
#
#
#
# Elastic Constant Matrix: (Units=GPa)
#
#
# Indices 1 2 3 4 5 6 
#
# 1 45.6145 -2.5739 -4.2146 0.0000 0.0000 0.0000
# 2 -2.5739 59.8974 13.7833 0.0000 0.0000 0.0000
# 3 -4.2146 13.7833 100.8028 0.0000 0.0000 0.0000
# 4 0.0000 0.0000 0.0000 2.0399 0.0000 0.0000
# 5 0.0000 0.0000 0.0000 0.0000 10.8306 0.0000
# 6 0.0000 0.0000 0.0000 0.0000 0.0000 52.3864
#
#
#
# Elastic Compliance Matrix: (Units=1/GPa)
#
#
# Indices 1 2 3 4 5 6 
#
# 1 0.022041 0.000759 0.000818 0.000000 0.000000 0.000000
# 2 0.000759 0.017264 -0.002329 0.000000 0.000000 0.000000
# 3 0.000818 -0.002329 0.010273 0.000000 0.000000 0.000000
# 4 0.000000 0.000000 0.000000 0.490220 0.000000 0.000000
# 5 0.000000 0.000000 0.000000 0.000000 0.092331 0.000000
# 6 0.000000 0.000000 0.000000 0.000000 0.000000 0.019089
#
#
# Mechanical properties :
#
#
# Convention : Reuss Voigt Hill
#
# Bulk Modulus (GPa) = 20.80139 24.47829 22.63984
# Shear Modulus (GPa) = 7.47667 26.33936 16.90801
#
# Velocity S-wave (km/s) = 1.83487 3.44393 2.75930
# Velocity P-wave (km/s) = 3.72236 5.18043 4.51070
#
# Compressibility (1/GPa) = 0.04807370
#
# Stress axis : x y z
#
# Youngs Moduli (GPa) = 45.36955 57.92492 97.34273
#
# Poissons Ratio (x) = -0.04396 -0.07960
# Poissons Ratio (y) = -0.03443 0.22669
# Poissons Ratio (z) = -0.03710 0.13490
#
# Static dielectric constant tensor:
#      x y z
#    x 1.861170 0.000000 0.000000 
#    y 0.000000 1.866100 0.000000 
#    z 0.000000 0.000000 1.857500 
# 
# From -- ./inp_files/18253.got.cif
#   From: 2010.05.17/outbox.cif.g08.bks.cpg/sg24_10_cif.got.tgz:18253.got - 2010.06.04 00:33:39.
