data_PCOD9333803
_publ_section_title
;
Structure prediction by ZEFSAII (Michael W. Deem and Ramdas Pophale) SiO2 
 PCOD9333803
Probable space group: I 21 21 21
;
_chemical_formula_sum "Si O2"
_cell_formula_units_Z 52
_cell_length_a 15.408206
_cell_length_b 18.362684
_cell_length_c 8.262496
_cell_angle_alpha 90.000000
_cell_angle_beta 90.000000
_cell_angle_gamma 90.000000
_cell_volume 2337.757715
_symmetry_space_group_name_H-M "I 21 21 21"
_symmetry_group_IT_number 24
_symmetry_cell_setting 'orthorhombic'
loop_
_space_group_symop_operation_xyz
x,y,z
-x,1/2-y,z
x,-y,1/2-z
1/2-x,y,-z
1/2+x,1/2+y,1/2+z
1/2-x,-y,1/2+z
1/2+x,1/2-y,-z
-x,1/2+y,1/2-z
loop_
_atom_site_type_symbol
_atom_site_label
_atom_site_fract_x
_atom_site_fract_y
_atom_site_fract_z
Si Si1 0.471559 0.469350 0.067939
Si Si2 0.936175 0.184302 0.795877
Si Si3 0.750000 0.292539 0.500000
Si Si4 0.421262 0.301579 0.573173
Si Si5 0.344241 0.957106 0.416774
Si Si6 0.194127 0.804827 0.660409
Si Si7 0.672703 0.058352 0.621304
O O1 0.475529 0.500000 0.250000
O O2 0.443990 0.385649 0.093533
O O3 0.567920 0.482483 0.994423
O O4 0.398675 0.510970 0.971130
O O5 0.952070 0.168535 0.604242
O O6 0.844206 0.225209 0.808550
O O7 0.000000 0.250000 0.842668
O O8 0.661854 0.248242 0.533719
O O9 0.737283 0.331581 0.328209
O O10 0.500000 0.250000 0.636169
O O11 0.380918 0.369106 0.673834
O O12 0.250000 0.960475 0.500000
O O13 0.367494 0.872785 0.378241
O O14 0.336511 0.000000 0.250000
O O15 0.250000 0.798505 0.500000
O O16 0.750000 0.081511 0.500000
O O17 0.709688 0.000000 0.750000
#
# Coordination Sequence:
#
# PCOD9333803 Si02
#       7
#     8   8   4   8   8   8   8
#     4  11  22  41  69  98 133 174 227 280 349 427
#     4  10  19  38  68  94 127 172 224 283 342 413
#     4  10  22  40  70  94 130 176 226 286 352 412
#     4  10  22  43  70  99 135 180 236 285 342 433
#     4  10  23  41  63  93 132 176 229 286 345 424
#     4  10  22  40  62  94 129 171 225 281 343 416
#     4  12  27  46  70 105 147 187 231 294 362 432
#
# _framework density 22.243537
#
# number of rings (size 3 to 8) (size 9 to 14) (size 15 to 20)
#    0.000    1.538    3.846    0.462    1.077    2.462 
#    5.538    1.538    0.000    0.000    0.000    0.000 
#    0.000    0.000    0.000    0.000    0.000    0.000 
#
# Total GULP energy -144892.844313 kJ/mol
# GULP energy per Si atom -5572.801704 kJ/mol
# Density = 2.219291 g / cm^3
# Si number density = 22.243537 Si / 1000 Ang^3
#
#
#
# Elastic Constant Matrix: (Units=GPa)
#
#
# Indices 1 2 3 4 5 6 
#
# 1 98.6595 20.7996 5.8389 0.0000 0.0000 0.0000
# 2 20.7996 88.8904 1.3879 0.0000 0.0000 0.0000
# 3 5.8389 1.3879 45.9286 0.0000 0.0000 0.0000
# 4 0.0000 0.0000 0.0000 18.9460 0.0000 0.0000
# 5 0.0000 0.0000 0.0000 0.0000 19.2518 0.0000
# 6 0.0000 0.0000 0.0000 0.0000 0.0000 42.8532
#
#
#
# Elastic Compliance Matrix: (Units=1/GPa)
#
#
# Indices 1 2 3 4 5 6 
#
# 1 0.010738 -0.002492 -0.001290 0.000000 0.000000 0.000000
# 2 -0.002492 0.011834 -0.000041 0.000000 0.000000 0.000000
# 3 -0.001290 -0.000041 0.021938 0.000000 0.000000 0.000000
# 4 0.000000 0.000000 0.000000 0.052782 0.000000 0.000000
# 5 0.000000 0.000000 0.000000 0.000000 0.051943 0.000000
# 6 0.000000 0.000000 0.000000 0.000000 0.000000 0.023335
#
#
# Mechanical properties :
#
#
# Convention : Reuss Voigt Hill
#
# Bulk Modulus (GPa) = 27.12699 32.17013 29.64856
# Shear Modulus (GPa) = 25.97359 29.90701 27.94030
#
# Velocity S-wave (km/s) = 3.42086 3.67076 3.54801
# Velocity P-wave (km/s) = 5.27494 5.69737 5.49022
#
# Compressibility (1/GPa) = 0.03686365
#
# Stress axis : x y z
#
# Youngs Moduli (GPa) = 93.13023 84.50481 45.58278
#
# Poissons Ratio (x) = 0.21062 0.05879
# Poissons Ratio (y) = 0.23212 0.00186
# Poissons Ratio (z) = 0.12012 0.00344
#
# Static dielectric constant tensor:
#      x y z
#    x 1.884430 0.000000 0.000000 
#    y 0.000000 1.860570 0.000000 
#    z 0.000000 0.000000 1.879780 
# 
# From -- ./inp_files/13064.got.cif
#   From: 2010.05.17/outbox.cif.g08.bks.cpg/sg24_7_cif.got.tgz:13064.got - 2010.06.04 00:33:39.
