data_PCOD9333150
_publ_section_title
;
Structure prediction by ZEFSAII (Michael W. Deem and Ramdas Pophale) SiO2 
 PCOD9333150
Probable space group: I 21 21 21
;
_chemical_formula_sum "Si O2"
_cell_formula_units_Z 60
_cell_length_a 25.759327
_cell_length_b 8.148619
_cell_length_c 13.676702
_cell_angle_alpha 90.000000
_cell_angle_beta 90.000000
_cell_angle_gamma 90.000000
_cell_volume 2870.779979
_symmetry_space_group_name_H-M "I 21 21 21"
_symmetry_group_IT_number 24
_symmetry_cell_setting 'orthorhombic'
loop_
_space_group_symop_operation_xyz
x,y,z
-x,1/2-y,z
x,-y,1/2-z
1/2-x,y,-z
1/2+x,1/2+y,1/2+z
1/2-x,-y,1/2+z
1/2+x,1/2-y,-z
-x,1/2+y,1/2-z
loop_
_atom_site_type_symbol
_atom_site_label
_atom_site_fract_x
_atom_site_fract_y
_atom_site_fract_z
Si Si1 0.620546 0.283686 0.670838
Si Si2 0.306135 0.641541 0.517559
Si Si3 0.465174 0.586911 0.923761
Si Si4 0.956201 0.886813 0.848630
Si Si5 0.728861 0.865864 0.835847
Si Si6 0.894795 0.643075 0.393068
Si Si7 0.658754 0.908960 0.147819
Si Si8 0.000000 0.250000 0.087135
O O1 0.591677 0.134891 0.616002
O O2 0.682319 0.258992 0.683360
O O3 0.610923 0.448057 0.609180
O O4 0.597204 0.305196 0.779399
O O5 0.250000 0.723103 0.500000
O O6 0.291131 0.478827 0.576973
O O7 0.343937 0.764769 0.571270
O O8 0.334661 0.561961 0.425598
O O9 0.500000 0.750000 0.909218
O O10 0.486480 0.427937 0.866958
O O11 0.466475 0.544260 0.040432
O O12 0.000000 0.750000 0.834417
O O13 0.957699 0.000000 0.750000
O O14 0.896762 0.822002 0.861177
O O15 0.731993 0.000000 0.750000
O O16 0.787486 0.806046 0.856418
O O17 0.943859 0.702601 0.456475
O O18 0.657471 0.000000 0.250000
#
# Coordination Sequence:
#
# PCOD9333150 Si02
#       8
#     8   8   8   8   8   8   8   4
#     4  11  23  39  61  93 139 169 222 263 328 401
#     4  10  20  39  64  93 124 167 219 265 326 388
#     4  11  24  43  62  94 132 170 222 275 320 402
#     4  10  22  41  66  90 126 165 216 275 330 395
#     4  10  18  34  62  89 123 162 211 265 318 388
#     4  11  24  38  61  95 132 183 212 268 327 396
#     4   9  19  36  61  92 118 158 217 270 319 386
#     4  12  24  38  66  90 130 180 220 264 332 386
#
# _framework density 20.900243
#
# number of rings (size 3 to 8) (size 9 to 14) (size 15 to 20)
#    0.000    1.600    2.667    2.400    1.867    0.000 
#    0.000    3.333    2.933    0.000    0.000    0.000 
#    0.000    0.000    0.000    0.000    0.000    0.000 
#
# Total GULP energy -167080.275902 kJ/mol
# GULP energy per Si atom -5569.342530 kJ/mol
# Density = 2.085267 g / cm^3
# Si number density = 20.900243 Si / 1000 Ang^3
#
#
#
# Elastic Constant Matrix: (Units=GPa)
#
#
# Indices 1 2 3 4 5 6 
#
# 1 194.2462 54.4275 12.8860 0.0000 0.0000 0.0000
# 2 54.4275 85.3177 20.0422 0.0000 0.0000 0.0000
# 3 12.8860 20.0422 87.6647 0.0000 0.0000 0.0000
# 4 0.0000 0.0000 0.0000 19.8629 0.0000 0.0000
# 5 0.0000 0.0000 0.0000 0.0000 33.9325 0.0000
# 6 0.0000 0.0000 0.0000 0.0000 0.0000 24.5684
#
#
#
# Elastic Compliance Matrix: (Units=1/GPa)
#
#
# Indices 1 2 3 4 5 6 
#
# 1 0.006269 -0.003997 -0.000008 0.000000 0.000000 0.000000
# 2 -0.003997 0.014935 -0.002827 0.000000 0.000000 0.000000
# 3 -0.000008 -0.002827 0.012055 0.000000 0.000000 0.000000
# 4 0.000000 0.000000 0.000000 0.050345 0.000000 0.000000
# 5 0.000000 0.000000 0.000000 0.000000 0.029470 0.000000
# 6 0.000000 0.000000 0.000000 0.000000 0.000000 0.040703
#
#
# Mechanical properties :
#
#
# Convention : Reuss Voigt Hill
#
# Bulk Modulus (GPa) = 51.03434 60.21557 55.62496
# Shear Modulus (GPa) = 28.74039 34.33096 31.53567
#
# Velocity S-wave (km/s) = 3.71229 4.05731 3.88863
# Velocity P-wave (km/s) = 6.54567 7.12899 6.84355
#
# Compressibility (1/GPa) = 0.01959465
#
# Stress axis : x y z
#
# Youngs Moduli (GPa) = 159.52470 66.95697 82.95649
#
# Poissons Ratio (x) = 0.26764 0.00063
# Poissons Ratio (y) = 0.63766 0.23451
# Poissons Ratio (z) = 0.00121 0.18928
#
# Static dielectric constant tensor:
#      x y z
#    x 1.880210 0.000000 0.000000 
#    y 0.000000 1.707350 0.000000 
#    z 0.000000 0.000000 1.767420 
# 
# From -- ./inp_files/27859.got.cif
#   From: 2010.05.17/outbox.cif.g08.bks.cpg/sg24_14_cif.got.tgz:27859.got - 2010.06.04 00:33:39.
