data_PCOD9333326
_publ_section_title
;
Structure prediction by ZEFSAII (Michael W. Deem and Ramdas Pophale) SiO2 
 PCOD9333326
Probable space group: I 21 21 21
;
_chemical_formula_sum "Si O2"
_cell_formula_units_Z 32
_cell_length_a 7.481603
_cell_length_b 10.374800
_cell_length_c 15.328960
_cell_angle_alpha 90.000000
_cell_angle_beta 90.000000
_cell_angle_gamma 90.000000
_cell_volume 1189.835942
_symmetry_space_group_name_H-M "I 21 21 21"
_symmetry_group_IT_number 24
_symmetry_cell_setting 'orthorhombic'
loop_
_space_group_symop_operation_xyz
x,y,z
-x,1/2-y,z
x,-y,1/2-z
1/2-x,y,-z
1/2+x,1/2+y,1/2+z
1/2-x,-y,1/2+z
1/2+x,1/2-y,-z
-x,1/2+y,1/2-z
loop_
_atom_site_type_symbol
_atom_site_label
_atom_site_fract_x
_atom_site_fract_y
_atom_site_fract_z
Si Si1 0.250000 0.360249 0.500000
Si Si2 0.537161 0.463859 0.905323
Si Si3 0.705613 0.302534 0.663427
Si Si4 0.000000 0.250000 0.966013
Si Si5 0.304752 0.377840 0.192430
O O1 0.417879 0.443791 0.532179
O O2 0.206989 0.271585 0.582416
O O3 0.690423 0.548082 0.860566
O O4 0.397864 0.416610 0.832658
O O5 0.592209 0.344851 0.963888
O O6 0.500000 0.250000 0.667776
O O7 0.798049 0.251711 0.750158
O O8 0.895011 0.156750 0.899315
O O9 0.373312 0.500000 0.250000
#
# Coordination Sequence:
#
# PCOD9333326 Si02
#       5
#     4   8   8   4   8
#     4  10  18  44  70  98 138 188 238 282 352 420
#     4  11  23  46  71 100 144 194 233 290 354 432
#     4  10  22  42  74 102 133 189 242 286 347 427
#     4  12  26  46  72 106 152 186 228 300 360 418
#     4  12  23  48  72 107 141 189 236 297 358 419
#
# _framework density 26.894463999999999
#
# number of rings (size 3 to 8) (size 9 to 14) (size 15 to 20)
#    0.000    1.000    7.500    0.000    1.750    0.000 
#   15.750    2.500    0.000    0.000    0.000    0.000 
#    0.000    0.000    0.000    0.000    0.000    0.000 
#
# Total GULP energy -89667.250029 kJ/mol
# GULP energy per Si atom -5604.203127 kJ/mol
# Density = 2.683325 g / cm^3
# Si number density = 26.894464 Si / 1000 Ang^3
#
#
#
# Elastic Constant Matrix: (Units=GPa)
#
#
# Indices 1 2 3 4 5 6 
#
# 1 52.2621 24.5555 4.4887 0.0000 0.0000 0.0000
# 2 24.5555 177.3179 77.7888 0.0000 0.0000 0.0000
# 3 4.4887 77.7888 159.3552 0.0000 0.0000 0.0000
# 4 0.0000 0.0000 0.0000 61.7517 0.0000 0.0000
# 5 0.0000 0.0000 0.0000 0.0000 14.2501 0.0000
# 6 0.0000 0.0000 0.0000 0.0000 0.0000 29.5593
#
#
#
# Elastic Compliance Matrix: (Units=1/GPa)
#
#
# Indices 1 2 3 4 5 6 
#
# 1 0.020599 -0.003306 0.001034 0.000000 0.000000 0.000000
# 2 -0.003306 0.007707 -0.003669 0.000000 0.000000 0.000000
# 3 0.001034 -0.003669 0.008037 0.000000 0.000000 0.000000
# 4 0.000000 0.000000 0.000000 0.016194 0.000000 0.000000
# 5 0.000000 0.000000 0.000000 0.000000 0.070175 0.000000
# 6 0.000000 0.000000 0.000000 0.000000 0.000000 0.033830
#
#
# Mechanical properties :
#
#
# Convention : Reuss Voigt Hill
#
# Bulk Modulus (GPa) = 40.88276 66.95570 53.91923
# Shear Modulus (GPa) = 28.31598 39.91903 34.11750
#
# Velocity S-wave (km/s) = 3.24829 3.85682 3.56556
# Velocity P-wave (km/s) = 5.41320 6.69202 6.08629
#
# Compressibility (1/GPa) = 0.02446019
#
# Stress axis : x y z
#
# Youngs Moduli (GPa) = 48.54626 129.75202 124.42143
#
# Poissons Ratio (x) = 0.42896 -0.12860
# Poissons Ratio (y) = 0.16050 0.45651
# Poissons Ratio (z) = -0.05018 0.47606
#
# Static dielectric constant tensor:
#      x y z
#    x 2.124300 0.000000 0.000000 
#    y 0.000000 2.160130 0.000000 
#    z 0.000000 0.000000 2.016750 
# 
# From -- ./inp_files/24376.got.cif
#   From: 2010.05.17/outbox.cif.g08.bks.cpg/sg24_13_cif.got.tgz:24376.got - 2010.06.04 00:33:39.
