data_PCOD9333048
_publ_section_title
;
Structure prediction by ZEFSAII (Michael W. Deem and Ramdas Pophale) SiO2 
 PCOD9333048
Probable space group: I 21 21 21
;
_chemical_formula_sum "Si O2"
_cell_formula_units_Z 60
_cell_length_a 16.970562
_cell_length_b 16.077767
_cell_length_c 12.507942
_cell_angle_alpha 90.000000
_cell_angle_beta 90.000000
_cell_angle_gamma 90.000000
_cell_volume 3412.776236
_symmetry_space_group_name_H-M "I 21 21 21"
_symmetry_group_IT_number 24
_symmetry_cell_setting 'orthorhombic'
loop_
_space_group_symop_operation_xyz
x,y,z
-x,1/2-y,z
x,-y,1/2-z
1/2-x,y,-z
1/2+x,1/2+y,1/2+z
1/2-x,-y,1/2+z
1/2+x,1/2-y,-z
-x,1/2+y,1/2-z
loop_
_atom_site_type_symbol
_atom_site_label
_atom_site_fract_x
_atom_site_fract_y
_atom_site_fract_z
Si Si1 0.651830 0.192429 0.222983
Si Si2 0.437814 0.678889 0.494920
Si Si3 0.505536 0.506882 0.957999
Si Si4 0.087852 0.500000 0.250000
Si Si5 0.204713 0.389614 0.106349
Si Si6 0.021103 0.344662 0.620432
Si Si7 0.329921 0.008716 0.061863
Si Si8 0.360243 0.876172 0.236315
O O1 0.588408 0.194635 0.126652
O O2 0.726203 0.142787 0.181399
O O3 0.605337 0.155909 0.322988
O O4 0.675780 0.285658 0.251742
O O5 0.500000 0.750000 0.527064
O O6 0.471591 0.584856 0.509749
O O7 0.355471 0.679976 0.560352
O O8 0.472271 0.531407 0.841779
O O9 0.479902 0.581851 0.035230
O O10 0.599131 0.500373 0.977442
O O11 0.147758 0.445458 0.178779
O O12 0.250000 0.425255 0.000000
O O13 0.000000 0.250000 0.582821
O O14 0.952125 0.365898 0.705466
O O15 0.351702 0.077137 0.151302
O O16 0.323891 0.926869 0.137053
O O17 0.250000 0.026642 0.000000
#
# Coordination Sequence:
#
# PCOD9333048 Si02
#       8
#     8   8   8   4   8   8   8   8
#     4  10  18  32  55  81 106 137 178 230 277 318
#     4  10  19  33  53  80 110 142 180 224 276 329
#     4  10  21  37  56  78 109 144 180 224 272 334
#     4  10  22  40  54  78 110 146 188 220 272 344
#     4   9  21  36  53  79 110 140 180 230 273 323
#     4   9  18  35  58  82 106 139 181 226 277 332
#     4  10  20  34  54  80 109 145 183 228 277 325
#     4   9  19  34  52  80 110 136 182 229 273 333
#
# _framework density 17.580995000000001
#
# number of rings (size 3 to 8) (size 9 to 14) (size 15 to 20)
#    0.000    2.400    0.000    2.800    0.000    8.533 
#    0.000    8.000    0.000    0.000    0.000    0.000 
#    0.000    0.000    0.000    0.000    0.000    0.000 
#
# Total GULP energy -167004.879546 kJ/mol
# GULP energy per Si atom -5566.829318 kJ/mol
# Density = 1.754098 g / cm^3
# Si number density = 17.580995 Si / 1000 Ang^3
#
#
#
# Elastic Constant Matrix: (Units=GPa)
#
#
# Indices 1 2 3 4 5 6 
#
# 1 85.4660 38.6594 58.8275 0.0000 0.0000 0.0000
# 2 38.6594 83.3156 50.3793 0.0000 0.0000 0.0000
# 3 58.8275 50.3793 88.1543 0.0000 0.0000 0.0000
# 4 0.0000 0.0000 0.0000 9.2421 0.0000 0.0000
# 5 0.0000 0.0000 0.0000 0.0000 18.8455 0.0000
# 6 0.0000 0.0000 0.0000 0.0000 0.0000 5.0517
#
#
#
# Elastic Compliance Matrix: (Units=1/GPa)
#
#
# Indices 1 2 3 4 5 6 
#
# 1 0.021861 -0.002021 -0.013434 0.000000 0.000000 0.000000
# 2 -0.002021 0.018527 -0.009240 0.000000 0.000000 0.000000
# 3 -0.013434 -0.009240 0.025589 0.000000 0.000000 0.000000
# 4 0.000000 0.000000 0.000000 0.108201 0.000000 0.000000
# 5 0.000000 0.000000 0.000000 0.000000 0.053063 0.000000
# 6 0.000000 0.000000 0.000000 0.000000 0.000000 0.197953
#
#
# Mechanical properties :
#
#
# Convention : Reuss Voigt Hill
#
# Bulk Modulus (GPa) = 60.28076 61.40757 60.84417
# Shear Modulus (GPa) = 10.41424 13.89918 12.15671
#
# Velocity S-wave (km/s) = 2.43648 2.81478 2.63243
# Velocity P-wave (km/s) = 6.50209 6.75042 6.62742
#
# Compressibility (1/GPa) = 0.01658904
#
# Stress axis : x y z
#
# Youngs Moduli (GPa) = 45.74313 53.97463 39.07981
#
# Poissons Ratio (x) = 0.10907 0.52498
# Poissons Ratio (y) = 0.09244 0.36108
# Poissons Ratio (z) = 0.61450 0.49870
#
# Static dielectric constant tensor:
#      x y z
#    x 1.607880 0.000000 0.000000 
#    y 0.000000 1.621510 0.000000 
#    z 0.000000 0.000000 1.610540 
# 
# From -- ./inp_files/21676.got.cif
#   From: 2010.05.17/outbox.cif.g08.bks.cpg/sg24_11_cif.got.tgz:21676.got - 2010.06.04 00:33:39.
