data_PCOD9333816
_publ_section_title
;
Structure prediction by ZEFSAII (Michael W. Deem and Ramdas Pophale) SiO2 
 PCOD9333816
Probable space group: I 21 21 21
;
_chemical_formula_sum "Si O2"
_cell_formula_units_Z 48
_cell_length_a 9.406145
_cell_length_b 19.311603
_cell_length_c 13.195204
_cell_angle_alpha 90.000000
_cell_angle_beta 90.000000
_cell_angle_gamma 90.000000
_cell_volume 2396.878959
_symmetry_space_group_name_H-M "I 21 21 21"
_symmetry_group_IT_number 24
_symmetry_cell_setting 'orthorhombic'
loop_
_space_group_symop_operation_xyz
x,y,z
-x,1/2-y,z
x,-y,1/2-z
1/2-x,y,-z
1/2+x,1/2+y,1/2+z
1/2-x,-y,1/2+z
1/2+x,1/2-y,-z
-x,1/2+y,1/2-z
loop_
_atom_site_type_symbol
_atom_site_label
_atom_site_fract_x
_atom_site_fract_y
_atom_site_fract_z
Si Si1 0.843625 0.156266 0.410223
Si Si2 0.082121 0.320303 0.871579
Si Si3 0.080111 0.064461 0.504112
Si Si4 0.911734 0.927304 0.456656
Si Si5 0.888933 0.191548 0.184175
Si Si6 0.106938 0.570807 0.807580
O O1 0.750000 0.191360 0.500000
O O2 0.864568 0.196474 0.305078
O O3 0.740518 0.092740 0.376665
O O4 0.993231 0.127634 0.451709
O O5 0.245620 0.297510 0.878364
O O6 0.078260 0.368903 0.772730
O O7 0.000000 0.250000 0.860457
O O8 0.036003 0.368688 0.964188
O O9 0.250000 0.068316 0.500000
O O10 0.027805 0.063108 0.620160
O O11 0.011010 0.994167 0.459006
O O12 0.750000 0.942508 0.500000
O O13 0.919697 0.888173 0.348493
O O14 0.000000 0.250000 0.154731
O O15 0.137466 0.500000 0.750000
#
# Coordination Sequence:
#
# PCOD9333816 Si02
#       6
#     8   8   8   8   8   8
#     4   9  21  39  62  83 112 157 209 245 295 363
#     4  10  21  36  61  88 120 162 197 246 306 362
#     4  11  23  37  56  92 123 153 197 262 316 344
#     4  10  20  37  60  85 120 163 201 236 299 380
#     4  10  22  38  58  88 118 155 203 247 303 360
#     4  10  19  39  64  84 115 161 209 242 289 372
#
# _framework density 20.026043000000001
#
# number of rings (size 3 to 8) (size 9 to 14) (size 15 to 20)
#    0.000    2.000    1.667    2.000    4.667    2.667 
#    3.000    8.333    0.000    0.000    0.000    0.000 
#    0.000    0.000    0.000    0.000    0.000    0.000 
#
# Total GULP energy -133871.795842 kJ/mol
# GULP energy per Si atom -5577.991493 kJ/mol
# Density = 1.998046 g / cm^3
# Si number density = 20.026043 Si / 1000 Ang^3
#
#
#
# Elastic Constant Matrix: (Units=GPa)
#
#
# Indices 1 2 3 4 5 6 
#
# 1 102.1068 13.9040 0.0433 0.0000 0.0000 0.0000
# 2 13.9040 32.7965 -11.4591 0.0000 0.0000 0.0000
# 3 0.0433 -11.4591 73.6485 0.0000 0.0000 0.0000
# 4 0.0000 0.0000 0.0000 9.0392 0.0000 0.0000
# 5 0.0000 0.0000 0.0000 0.0000 10.9727 0.0000
# 6 0.0000 0.0000 0.0000 0.0000 0.0000 24.0067
#
#
#
# Elastic Compliance Matrix: (Units=1/GPa)
#
#
# Indices 1 2 3 4 5 6 
#
# 1 0.010431 -0.004679 -0.000734 0.000000 0.000000 0.000000
# 2 -0.004679 0.034342 0.005346 0.000000 0.000000 0.000000
# 3 -0.000734 0.005346 0.014410 0.000000 0.000000 0.000000
# 4 0.000000 0.000000 0.000000 0.110630 0.000000 0.000000
# 5 0.000000 0.000000 0.000000 0.000000 0.091135 0.000000
# 6 0.000000 0.000000 0.000000 0.000000 0.000000 0.041655
#
#
# Mechanical properties :
#
#
# Convention : Reuss Voigt Hill
#
# Bulk Modulus (GPa) = 16.93465 23.72536 20.33001
# Shear Modulus (GPa) = 15.50769 22.54128 19.02448
#
# Velocity S-wave (km/s) = 2.78578 3.35863 3.08553
# Velocity P-wave (km/s) = 4.33844 5.18783 4.78203
#
# Compressibility (1/GPa) = 0.05905051
#
# Stress axis : x y z
#
# Youngs Moduli (GPa) = 95.86736 29.11845 69.39499
#
# Poissons Ratio (x) = 0.13624 0.05094
# Poissons Ratio (y) = 0.44854 -0.37100
# Poissons Ratio (z) = 0.07038 -0.15567
#
# Static dielectric constant tensor:
#      x y z
#    x 1.717430 0.000000 0.000000 
#    y 0.000000 1.762940 0.000000 
#    z 0.000000 0.000000 1.757540 
# 
# From -- ./inp_files/24780.got.cif
#   From: 2010.05.17/outbox.cif.g08.bks.cpg/sg24_13_cif.got.tgz:24780.got - 2010.06.04 00:33:39.
