data_PCOD9333868
_publ_section_title
;
Structure prediction by ZEFSAII (Michael W. Deem and Ramdas Pophale) SiO2 
 PCOD9333868
Probable space group: I 21 21 21
;
_chemical_formula_sum "Si O2"
_cell_formula_units_Z 48
_cell_length_a 7.179325
_cell_length_b 8.415137
_cell_length_c 32.554971
_cell_angle_alpha 90.000000
_cell_angle_beta 90.000000
_cell_angle_gamma 90.000000
_cell_volume 1966.808685
_symmetry_space_group_name_H-M "I 21 21 21"
_symmetry_group_IT_number 24
_symmetry_cell_setting 'orthorhombic'
loop_
_space_group_symop_operation_xyz
x,y,z
-x,1/2-y,z
x,-y,1/2-z
1/2-x,y,-z
1/2+x,1/2+y,1/2+z
1/2-x,-y,1/2+z
1/2+x,1/2-y,-z
-x,1/2+y,1/2-z
loop_
_atom_site_type_symbol
_atom_site_label
_atom_site_fract_x
_atom_site_fract_y
_atom_site_fract_z
Si Si1 0.276627 0.574841 0.451597
Si Si2 0.816986 0.061943 0.204710
Si Si3 0.700956 0.402895 0.080780
Si Si4 0.225980 0.242777 0.585237
Si Si5 0.785927 0.261441 0.318852
Si Si6 0.266251 0.099395 0.822438
O O1 0.250000 0.570800 0.500000
O O2 0.492595 0.586056 0.437373
O O3 0.203168 0.743016 0.434870
O O4 0.206029 0.408034 0.433353
O O5 0.726620 0.236289 0.201451
O O6 0.007205 0.080467 0.178437
O O7 0.865565 0.000000 0.250000
O O8 0.700221 0.911808 0.188775
O O9 0.785014 0.572451 0.066949
O O10 0.696785 0.390511 0.130582
O O11 0.285528 0.228955 0.632236
O O12 0.000000 0.250000 0.584072
O O13 0.707069 0.429277 0.303454
O O14 0.000000 0.250000 0.303835
#
# Coordination Sequence:
#
# PCOD9333868 Si02
#       6
#     8   8   8   8   8   8
#     4  10  20  35  59  85 110 144 190 247 293 330
#     4  10  20  30  51  85 117 142 184 245 289 325
#     4   9  19  38  55  79 113 154 194 227 283 361
#     4   9  18  35  58  80 107 149 194 229 279 352
#     4   9  18  32  50  79 109 147 190 232 278 338
#     4   9  19  32  53  77 114 158 187 227 287 346
#
# _framework density 24.405016
#
# number of rings (size 3 to 8) (size 9 to 14) (size 15 to 20)
#    0.000    2.667    0.000    1.000    7.000    0.667 
#    0.000   15.833    0.000    0.000   17.333    4.667 
#    0.000    0.000    0.000    0.000    0.000    0.000 
#
# Total GULP energy -133822.789882 kJ/mol
# GULP energy per Si atom -5575.949578 kJ/mol
# Density = 2.434947 g / cm^3
# Si number density = 24.405016 Si / 1000 Ang^3
#
#
#
# Elastic Constant Matrix: (Units=GPa)
#
#
# Indices 1 2 3 4 5 6 
#
# 1 123.9859 18.6071 11.7425 0.0000 0.0000 0.0000
# 2 18.6071 344.0505 55.2896 0.0000 0.0000 0.0000
# 3 11.7425 55.2896 94.2262 0.0000 0.0000 0.0000
# 4 0.0000 0.0000 0.0000 -73.4544 0.0000 0.0000
# 5 0.0000 0.0000 0.0000 0.0000 -68.0678 0.0000
# 6 0.0000 0.0000 0.0000 0.0000 0.0000 -35.8270
#
#
#
# Elastic Compliance Matrix: (Units=1/GPa)
#
#
# Indices 1 2 3 4 5 6 
#
# 1 0.008191 -0.000308 -0.000840 0.000000 0.000000 0.000000
# 2 -0.000308 0.003221 -0.001851 0.000000 0.000000 0.000000
# 3 -0.000840 -0.001851 0.011804 0.000000 0.000000 0.000000
# 4 0.000000 0.000000 0.000000 -0.013614 0.000000 0.000000
# 5 0.000000 0.000000 0.000000 0.000000 -0.014691 0.000000
# 6 0.000000 0.000000 0.000000 0.000000 0.000000 -0.027912
#
#
# Mechanical properties :
#
#
# Convention : Reuss Voigt Hill
#
# Bulk Modulus (GPa) = 58.08303 81.50456 69.79379
# Shear Modulus (GPa) = -235.14756 -3.69493 -119.42125
#
# Velocity S-wave (km/s) = -9.82656 -1.23178 -7.00281
# Velocity P-wave (km/s) = 10.24193 5.60768 6.06016
#
# Compressibility (1/GPa) = 0.01721673
#
# Stress axis : x y z
#
# Youngs Moduli (GPa) = 122.08202 310.48751 84.71820
#
# Poissons Ratio (x) = 0.09563 0.07117
# Poissons Ratio (y) = 0.03760 0.15685
# Poissons Ratio (z) = 0.10256 0.57486
#
# Static dielectric constant tensor:
#      x y z
#    x 2.330150 0.000000 0.000000 
#    y 0.000000 2.095550 0.000000 
#    z 0.000000 0.000000 1.929130 
# 
# From -- ./inp_files/38296.got.cif
#   From: 2010.05.17/outbox.cif.g08.bks.cpg/sg24_20_cif.got.tgz:38296.got - 2010.06.04 00:33:39.
