data_PCOD9333999
_publ_section_title
;
Structure prediction by ZEFSAII (Michael W. Deem and Ramdas Pophale) SiO2 
 PCOD9333999
Probable space group: I 21 21 21
;
_chemical_formula_sum "Si O2"
_cell_formula_units_Z 32
_cell_length_a 13.161410
_cell_length_b 24.113491
_cell_length_c 5.001688
_cell_angle_alpha 90.000000
_cell_angle_beta 90.000000
_cell_angle_gamma 90.000000
_cell_volume 1587.373424
_symmetry_space_group_name_H-M "I 21 21 21"
_symmetry_group_IT_number 24
_symmetry_cell_setting 'orthorhombic'
loop_
_space_group_symop_operation_xyz
x,y,z
-x,1/2-y,z
x,-y,1/2-z
1/2-x,y,-z
1/2+x,1/2+y,1/2+z
1/2-x,-y,1/2+z
1/2+x,1/2-y,-z
-x,1/2+y,1/2-z
loop_
_atom_site_type_symbol
_atom_site_label
_atom_site_fract_x
_atom_site_fract_y
_atom_site_fract_z
Si Si1 0.322373 0.215550 0.742510
Si Si2 0.461756 0.887434 0.635429
Si Si3 0.861766 0.439767 0.614538
Si Si4 0.822096 0.842019 0.246046
O O1 0.250000 0.199588 0.500000
O O2 0.409282 0.170453 0.779211
O O3 0.358132 0.278614 0.689159
O O4 0.250000 0.215383 0.000000
O O5 0.414045 0.902503 0.346529
O O6 0.581569 0.878423 0.669569
O O7 0.429507 0.933693 0.850580
O O8 0.853732 0.500000 0.750000
O O9 0.750000 0.424920 0.500000
O O10 0.750000 0.838981 0.500000
O O11 0.750000 0.860255 0.000000
#
# Coordination Sequence:
#
# PCOD9333999 Si02
#       4
#     8   8   8   8
#     4  10  20  34  56  89 123 152 191 239 293 357
#     4  12  22  38  64  87 118 162 201 238 298 362
#     4  12  25  41  62  90 121 150 190 248 309 365
#     4  10  22  39  58  86 123 160 200 245 287 342
#
# _framework density 20.159085999999999
#
# number of rings (size 3 to 8) (size 9 to 14) (size 15 to 20)
#    0.000    1.000    0.000    9.000    0.000    0.000 
#    0.000   10.000    0.000   15.000    0.000    0.000 
#    0.000    0.000    0.000    0.000    0.000    0.000 
#
# Total GULP energy -89345.741791 kJ/mol
# GULP energy per Si atom -5584.108862 kJ/mol
# Density = 2.011320 g / cm^3
# Si number density = 20.159086 Si / 1000 Ang^3
#
#
#
# Elastic Constant Matrix: (Units=GPa)
#
#
# Indices 1 2 3 4 5 6 
#
# 1 131.9362 52.4313 53.7677 0.0478 -0.0004 -0.0167
# 2 52.4313 67.3883 22.4469 0.0646 -0.0085 -0.0364
# 3 53.7677 22.4469 132.9182 0.4408 0.0275 -0.0356
# 4 0.0478 0.0646 0.4408 48.1001 0.0129 -0.0025
# 5 -0.0004 -0.0085 0.0275 0.0129 28.0585 -0.0158
# 6 -0.0167 -0.0364 -0.0356 -0.0025 -0.0158 19.9406
#
#
#
# Elastic Compliance Matrix: (Units=1/GPa)
#
#
# Indices 1 2 3 4 5 6 
#
# 1 0.012401 -0.008453 -0.003589 0.000032 0.000001 -0.000011
# 2 -0.008453 0.021486 -0.000209 -0.000019 0.000007 0.000032
# 3 -0.003589 -0.000209 0.009011 -0.000079 -0.000009 0.000013
# 4 0.000032 -0.000019 -0.000079 0.020791 -0.000010 0.000002
# 5 0.000001 0.000007 -0.000009 -0.000010 0.035640 0.000028
# 6 -0.000011 0.000032 0.000013 0.000002 0.000028 0.050149
#
#
# Mechanical properties :
#
#
# Convention : Reuss Voigt Hill
#
# Bulk Modulus (GPa) = 54.36095 65.50383 59.93239
# Shear Modulus (GPa) = 27.76037 32.79296 30.27666
#
# Velocity S-wave (km/s) = 3.71491 4.03762 3.87962
# Velocity P-wave (km/s) = 6.73983 7.36889 7.06137
#
# Compressibility (1/GPa) = 0.01839556
#
# Stress axis : x y z
#
# Youngs Moduli (GPa) = 80.63560 46.54154 110.97751
#
# Poissons Ratio (x) = 0.39344 0.39831
# Poissons Ratio (y) = 0.68165 0.02318
# Poissons Ratio (z) = 0.28941 0.00972
#
# Static dielectric constant tensor:
#      x y z
#    x 1.712230 -0.000020 -0.000090 
#    y -0.000020 1.768960 -0.000050 
#    z -0.000090 -0.000050 1.669840 
# 
# From -- ./inp_files/2154.got.cif
#   From: 2010.05.17/outbox.cif.g08.bks.cpg/sg24_2_cif.got.tgz:2154.got - 2010.06.04 00:33:39.
