data_PCOD9333468
_publ_section_title
;
Structure prediction by ZEFSAII (Michael W. Deem and Ramdas Pophale) SiO2 
 PCOD9333468
Probable space group: I 21 21 21
;
_chemical_formula_sum "Si O2"
_cell_formula_units_Z 40
_cell_length_a 5.141087
_cell_length_b 24.980600
_cell_length_c 15.080226
_cell_angle_alpha 90.000000
_cell_angle_beta 90.000000
_cell_angle_gamma 90.000000
_cell_volume 1936.714788
_symmetry_space_group_name_H-M "I 21 21 21"
_symmetry_group_IT_number 24
_symmetry_cell_setting 'orthorhombic'
loop_
_space_group_symop_operation_xyz
x,y,z
-x,1/2-y,z
x,-y,1/2-z
1/2-x,y,-z
1/2+x,1/2+y,1/2+z
1/2-x,-y,1/2+z
1/2+x,1/2-y,-z
-x,1/2+y,1/2-z
loop_
_atom_site_type_symbol
_atom_site_label
_atom_site_fract_x
_atom_site_fract_y
_atom_site_fract_z
Si Si1 0.246143 0.782976 0.108017
Si Si2 0.999504 0.307083 0.935245
Si Si3 0.678839 0.027446 0.340425
Si Si4 0.002988 0.420818 0.938866
Si Si5 0.193524 0.907986 0.105845
O O1 0.500000 0.750000 0.137088
O O2 0.205552 0.845246 0.130148
O O3 0.000000 0.750000 0.140222
O O4 0.250000 0.781885 0.000000
O O5 0.000000 0.250000 0.885133
O O6 0.985617 0.364373 0.885485
O O7 0.250000 0.304805 0.000000
O O8 0.750000 0.308474 0.000000
O O9 0.424760 0.064715 0.338443
O O10 0.919361 0.061859 0.378375
O O11 0.769871 0.000000 0.250000
O O12 0.570637 0.976068 0.392881
O O13 0.750000 0.427342 0.000000
O O14 0.250000 0.411511 0.000000
O O15 0.250000 0.912646 0.000000
#
# Coordination Sequence:
#
# PCOD9333468 Si02
#       5
#     8   8   8   8   8
#     4   9  17  31  54  85 113 138 180 239 290 332
#     4   8  14  25  44  71  96 120 161 220 274 314
#     4  12  24  37  53  81 119 155 191 236 290 341
#     4  10  19  33  54  76 102 139 184 229 273 331
#     4  11  22  38  61  85 113 152 198 240 283 346
#
# _framework density 20.653528999999999
#
# number of rings (size 3 to 8) (size 9 to 14) (size 15 to 20)
#    0.000    2.000    0.000    5.400    0.000    3.200 
#    0.000    0.000    0.000    3.600    0.000   11.200 
#    0.000    0.000    0.000    0.000    0.000    1.000 
#
# Total GULP energy -111387.616472 kJ/mol
# GULP energy per Si atom -5569.380824 kJ/mol
# Density = 2.060652 g / cm^3
# Si number density = 20.653529 Si / 1000 Ang^3
#
#
#
# Elastic Constant Matrix: (Units=GPa)
#
#
# Indices 1 2 3 4 5 6 
#
# 1 172.9635 78.8764 13.2828 0.0000 0.0000 0.0000
# 2 78.8764 259.2712 28.2910 0.0000 0.0000 0.0000
# 3 13.2828 28.2910 16.9317 0.0000 0.0000 0.0000
# 4 0.0000 0.0000 0.0000 -0.2171 0.0000 0.0000
# 5 0.0000 0.0000 0.0000 0.0000 10.3688 0.0000
# 6 0.0000 0.0000 0.0000 0.0000 0.0000 42.3187
#
#
#
# Elastic Compliance Matrix: (Units=1/GPa)
#
#
# Indices 1 2 3 4 5 6 
#
# 1 0.006785 -0.001814 -0.002292 0.000000 0.000000 0.000000
# 2 -0.001814 0.005202 -0.007269 -0.000001 0.000000 0.000000
# 3 -0.002292 -0.007269 0.073004 0.000007 0.000000 0.000000
# 4 0.000000 -0.000001 0.000007 -4.605442 0.000000 0.000000
# 5 0.000000 0.000000 0.000000 0.000000 0.096443 0.000000
# 6 0.000000 0.000000 0.000000 0.000000 0.000000 0.023630
#
#
# Mechanical properties :
#
#
# Convention : Reuss Voigt Hill
#
# Bulk Modulus (GPa) = 16.06634 76.67408 46.37021
# Shear Modulus (GPa) = -1.14761 32.40849 15.63044
#
# Velocity S-wave (km/s) = -0.74623 3.96555 2.75397
# Velocity P-wave (km/s) = 2.65582 7.62706 5.71075
#
# Compressibility (1/GPa) = 0.06224193
#
# Stress axis : x y z
#
# Youngs Moduli (GPa) = 147.38817 192.23377 13.69787
#
# Poissons Ratio (x) = 0.34872 0.03139
# Poissons Ratio (y) = 0.26737 0.09957
# Poissons Ratio (z) = 0.33775 1.39732
#
# Static dielectric constant tensor:
#      x y z
#    x 1.692080 0.000000 0.000000 
#    y 0.000000 1.908150 0.000000 
#    z 0.000000 0.000000 1.673080 
# 
# From -- ./inp_files/23722.got.cif
#   From: 2010.05.17/outbox.cif.g08.bks.cpg/sg24_12_cif.got.tgz:23722.got - 2010.06.04 00:33:39.
