data_PCOD9333795
_publ_section_title
;
Structure prediction by ZEFSAII (Michael W. Deem and Ramdas Pophale) SiO2 
 PCOD9333795
Probable space group: I 21 21 21
;
_chemical_formula_sum "Si O2"
_cell_formula_units_Z 56
_cell_length_a 14.986150
_cell_length_b 10.985226
_cell_length_c 16.078671
_cell_angle_alpha 90.000000
_cell_angle_beta 90.000000
_cell_angle_gamma 90.000000
_cell_volume 2646.971225
_symmetry_space_group_name_H-M "I 21 21 21"
_symmetry_group_IT_number 24
_symmetry_cell_setting 'orthorhombic'
loop_
_space_group_symop_operation_xyz
x,y,z
-x,1/2-y,z
x,-y,1/2-z
1/2-x,y,-z
1/2+x,1/2+y,1/2+z
1/2-x,-y,1/2+z
1/2+x,1/2-y,-z
-x,1/2+y,1/2-z
loop_
_atom_site_type_symbol
_atom_site_label
_atom_site_fract_x
_atom_site_fract_y
_atom_site_fract_z
Si Si1 0.817190 0.042877 0.578896
Si Si2 0.283250 0.500000 0.750000
Si Si3 0.127613 0.181877 0.553952
Si Si4 0.654751 0.322051 0.967510
Si Si5 0.568903 0.111901 0.858485
Si Si6 0.506302 0.020642 0.026935
Si Si7 0.702264 0.423356 0.614281
Si Si8 0.579812 0.500000 0.750000
O O1 0.750000 0.021610 0.500000
O O2 0.858472 0.176653 0.567095
O O3 0.772036 0.042194 0.669494
O O4 0.902569 0.952072 0.576372
O O5 0.350352 0.406520 0.794575
O O6 0.195671 0.114821 0.617121
O O7 0.161277 0.155856 0.460036
O O8 0.036665 0.106356 0.556492
O O9 0.599635 0.226533 0.912934
O O10 0.690645 0.437617 0.915348
O O11 0.750000 0.269153 0.000000
O O12 0.576923 0.383768 0.025512
O O13 0.482729 0.092250 0.801155
O O14 0.544095 0.014356 0.931841
O O15 0.643685 0.415760 0.695238
#
# Coordination Sequence:
#
# PCOD9333795 Si02
#       8
#     8   4   8   8   8   8   8   4
#     4  12  24  45  73  98 143 198 237 299 375 429
#     4  11  28  48  65 106 148 186 249 300 357 454
#     4  10  20  43  67  98 133 192 244 278 359 434
#     4  11  22  42  71 100 138 187 237 290 365 431
#     4  11  24  41  67 106 146 185 233 307 370 418
#     4  11  22  43  71 105 134 182 245 298 349 442
#     4  10  19  38  64  96 144 180 229 291 345 435
#     4  11  22  38  61 106 150 172 239 308 363 420
#
# _framework density 21.156255000000002
#
# number of rings (size 3 to 8) (size 9 to 14) (size 15 to 20)
#    0.000    1.143    8.571    0.857    2.000    1.143 
#    0.000    2.143    6.286    0.000    0.000    0.000 
#    0.000    0.000    0.000    0.000    0.000    0.000 
#
# Total GULP energy -155940.577542 kJ/mol
# GULP energy per Si atom -5569.306341 kJ/mol
# Density = 2.110810 g / cm^3
# Si number density = 21.156255 Si / 1000 Ang^3
#
#
#
# Elastic Constant Matrix: (Units=GPa)
#
#
# Indices 1 2 3 4 5 6 
#
# 1 191.4035 45.3854 73.1938 0.0000 0.0000 0.0000
# 2 45.3854 77.9293 29.0639 0.0000 0.0000 0.0000
# 3 73.1938 29.0639 106.8903 0.0000 0.0000 0.0000
# 4 0.0000 0.0000 0.0000 20.3713 0.0000 0.0000
# 5 0.0000 0.0000 0.0000 0.0000 41.4994 0.0000
# 6 0.0000 0.0000 0.0000 0.0000 0.0000 -77.3160
#
#
#
# Elastic Compliance Matrix: (Units=1/GPa)
#
#
# Indices 1 2 3 4 5 6 
#
# 1 0.007575 -0.002757 -0.004438 0.000000 0.000000 0.000000
# 2 -0.002757 0.015283 -0.002268 0.000000 0.000000 0.000000
# 3 -0.004438 -0.002268 0.013011 0.000000 0.000000 0.000000
# 4 0.000000 0.000000 0.000000 0.049089 0.000000 0.000000
# 5 0.000000 0.000000 0.000000 0.000000 0.024097 0.000000
# 6 0.000000 0.000000 0.000000 0.000000 0.000000 -0.012934
#
#
# Mechanical properties :
#
#
# Convention : Reuss Voigt Hill
#
# Bulk Modulus (GPa) = 59.01501 74.61216 66.81359
# Shear Modulus (GPa) = 41.42720 12.14961 26.78841
#
# Velocity S-wave (km/s) = 4.42990 2.39901 3.56225
# Velocity P-wave (km/s) = 7.35668 6.55877 6.96915
#
# Compressibility (1/GPa) = 0.01694484
#
# Stress axis : x y z
#
# Youngs Moduli (GPa) = 132.00969 65.43010 76.85966
#
# Poissons Ratio (x) = 0.18037 0.34107
# Poissons Ratio (y) = 0.36391 0.17431
# Poissons Ratio (z) = 0.58581 0.14839
#
# Static dielectric constant tensor:
#      x y z
#    x 1.884380 0.000000 0.000000 
#    y 0.000000 1.847170 0.000000 
#    z 0.000000 0.000000 1.794860 
# 
# From -- ./inp_files/26568.got.cif
#   From: 2010.05.17/outbox.cif.g08.bks.cpg/sg24_14_cif.got.tgz:26568.got - 2010.06.04 00:33:39.
