data_PCOD9333896
_publ_section_title
;
Structure prediction by ZEFSAII (Michael W. Deem and Ramdas Pophale) SiO2 
 PCOD9333896
Probable space group: I 21 21 21
;
_chemical_formula_sum "Si O2"
_cell_formula_units_Z 52
_cell_length_a 8.410091
_cell_length_b 14.109088
_cell_length_c 22.398745
_cell_angle_alpha 90.000000
_cell_angle_beta 90.000000
_cell_angle_gamma 90.000000
_cell_volume 2657.806277
_symmetry_space_group_name_H-M "I 21 21 21"
_symmetry_group_IT_number 24
_symmetry_cell_setting 'orthorhombic'
loop_
_space_group_symop_operation_xyz
x,y,z
-x,1/2-y,z
x,-y,1/2-z
1/2-x,y,-z
1/2+x,1/2+y,1/2+z
1/2-x,-y,1/2+z
1/2+x,1/2-y,-z
-x,1/2+y,1/2-z
loop_
_atom_site_type_symbol
_atom_site_label
_atom_site_fract_x
_atom_site_fract_y
_atom_site_fract_z
Si Si1 0.523644 0.640027 0.830069
Si Si2 0.197125 0.571677 0.870141
Si Si3 0.570829 0.440568 0.141982
Si Si4 0.500000 0.250000 0.398751
Si Si5 0.250000 0.486613 0.000000
Si Si6 0.063420 0.147260 0.979659
Si Si7 0.742991 0.605690 0.066544
Si Si8 0.732299 0.500000 0.750000
O O1 0.500000 0.750000 0.813549
O O2 0.355343 0.590562 0.834857
O O3 0.602766 0.634200 0.896152
O O4 0.631225 0.577024 0.786618
O O5 0.234789 0.549672 0.940019
O O6 0.104722 0.479921 0.847039
O O7 0.088325 0.665894 0.863725
O O8 0.568424 0.358712 0.092870
O O9 0.656136 0.525366 0.104905
O O10 0.663190 0.438259 0.203738
O O11 0.632774 0.302173 0.436720
O O12 0.081855 0.425379 0.000016
O O13 0.000000 0.250000 0.999163
O O14 0.250000 0.135545 0.000000
O O15 0.750000 0.568972 0.000000
#
# Coordination Sequence:
#
# PCOD9333896 Si02
#       8
#     8   8   8   4   4   8   8   4
#     4  11  23  41  63  94 128 167 217 270 320 384
#     4  10  22  37  61  92 133 164 208 260 324 404
#     4   9  22  42  61  85 126 169 219 263 326 376
#     4  10  20  32  50  90 130 170 188 238 310 400
#     4  10  24  40  60 104 136 180 214 258 338 416
#     4  11  22  41  68  99 136 174 218 281 341 400
#     4  10  21  32  56  90 127 166 200 246 318 393
#     4  10  24  46  66  88 122 174 226 274 316 372
#
# _framework density 19.565007000000001
#
# number of rings (size 3 to 8) (size 9 to 14) (size 15 to 20)
#    0.000    1.846    2.308    0.462   12.923    0.615 
#    0.000    5.385    0.000    0.000    0.000    0.000 
#    0.000    0.000    0.000    0.000    0.000    0.000 
#
# Total GULP energy -144840.783925 kJ/mol
# GULP energy per Si atom -5570.799382 kJ/mol
# Density = 1.952048 g / cm^3
# Si number density = 19.565007 Si / 1000 Ang^3
#
#
#
# Elastic Constant Matrix: (Units=GPa)
#
#
# Indices 1 2 3 4 5 6 
#
# 1 137.5979 28.3093 48.3040 0.0000 0.0000 0.0000
# 2 28.3093 60.1617 14.9549 0.0000 0.0000 0.0000
# 3 48.3040 14.9549 87.5733 0.0000 0.0000 0.0000
# 4 0.0000 0.0000 0.0000 5.2685 0.0000 0.0000
# 5 0.0000 0.0000 0.0000 0.0000 15.4398 0.0000
# 6 0.0000 0.0000 0.0000 0.0000 0.0000 35.5920
#
#
#
# Elastic Compliance Matrix: (Units=1/GPa)
#
#
# Indices 1 2 3 4 5 6 
#
# 1 0.009618 -0.003349 -0.004733 0.000000 0.000000 0.000000
# 2 -0.003349 0.018525 -0.001316 0.000000 0.000000 0.000000
# 3 -0.004733 -0.001316 0.014255 0.000000 0.000000 0.000000
# 4 0.000000 0.000000 0.000000 0.189808 0.000000 0.000000
# 5 0.000000 0.000000 0.000000 0.000000 0.064768 0.000000
# 6 0.000000 0.000000 0.000000 0.000000 0.000000 0.028096
#
#
# Mechanical properties :
#
#
# Convention : Reuss Voigt Hill
#
# Bulk Modulus (GPa) = 42.37211 52.05216 47.21213
# Shear Modulus (GPa) = 14.21528 24.17771 19.19649
#
# Velocity S-wave (km/s) = 2.69841 3.51916 3.13575
# Velocity P-wave (km/s) = 5.60470 6.57078 6.10687
#
# Compressibility (1/GPa) = 0.02360043
#
# Stress axis : x y z
#
# Youngs Moduli (GPa) = 103.96867 53.98090 70.15293
#
# Poissons Ratio (x) = 0.18080 0.33206
# Poissons Ratio (y) = 0.34822 0.09233
# Poissons Ratio (z) = 0.49212 0.07104
#
# Static dielectric constant tensor:
#      x y z
#    x 1.760470 0.000000 0.000000 
#    y 0.000000 1.705510 0.000000 
#    z 0.000000 0.000000 1.651470 
# 
# From -- ./inp_files/32798.got.cif
#   From: 2010.05.17/outbox.cif.g08.bks.cpg/sg24_17_cif.got.tgz:32798.got - 2010.06.04 00:33:39.
