data_PCOD9333764
_publ_section_title
;
Structure prediction by ZEFSAII (Michael W. Deem and Ramdas Pophale) SiO2 
 PCOD9333764
Probable space group: I 21 21 21
;
_chemical_formula_sum "Si O2"
_cell_formula_units_Z 56
_cell_length_a 20.605377
_cell_length_b 9.217332
_cell_length_c 12.392387
_cell_angle_alpha 90.000000
_cell_angle_beta 90.000000
_cell_angle_gamma 90.000000
_cell_volume 2353.643939
_symmetry_space_group_name_H-M "I 21 21 21"
_symmetry_group_IT_number 24
_symmetry_cell_setting 'orthorhombic'
loop_
_space_group_symop_operation_xyz
x,y,z
-x,1/2-y,z
x,-y,1/2-z
1/2-x,y,-z
1/2+x,1/2+y,1/2+z
1/2-x,-y,1/2+z
1/2+x,1/2-y,-z
-x,1/2+y,1/2-z
loop_
_atom_site_type_symbol
_atom_site_label
_atom_site_fract_x
_atom_site_fract_y
_atom_site_fract_z
Si Si1 0.882134 0.316949 0.431319
Si Si2 0.350167 0.000000 0.250000
Si Si3 0.599819 0.930502 0.107083
Si Si4 0.647507 0.161988 0.785721
Si Si5 0.572787 0.236523 0.997833
Si Si6 0.287616 0.282188 0.270992
Si Si7 0.750000 0.650444 0.000000
Si Si8 0.455508 0.037303 0.407428
O O1 0.883576 0.169114 0.502489
O O2 0.874277 0.272213 0.308846
O O3 0.820409 0.414985 0.471605
O O4 0.945681 0.400145 0.472405
O O5 0.305336 0.868496 0.289170
O O6 0.397650 0.085727 0.330488
O O7 0.650468 0.878702 0.197098
O O8 0.524029 0.912133 0.137586
O O9 0.595222 0.096219 0.066209
O O10 0.620368 0.226566 0.896482
O O11 0.726044 0.152007 0.789884
O O12 0.624431 0.000000 0.750000
O O13 0.500000 0.250000 0.947724
O O14 0.563046 0.368714 0.081187
O O15 0.261214 0.240171 0.390582
#
# Coordination Sequence:
#
# PCOD9333764 Si02
#       8
#     8   4   8   8   8   8   4   8
#     4  10  19  37  69  92 125 177 219 273 341 414
#     4  12  24  44  62 102 132 180 240 288 344 426
#     4  10  20  45  67  93 135 181 226 277 343 410
#     4  11  23  43  68 103 136 179 237 282 349 436
#     4  10  24  45  66 102 143 177 227 295 349 416
#     4  10  23  40  69  97 132 182 232 282 349 419
#     4   8  16  36  60  86 124 164 214 268 326 396
#     4  11  24  42  67  98 136 178 230 289 352 404
#
# _framework density 23.792895000000001
#
# number of rings (size 3 to 8) (size 9 to 14) (size 15 to 20)
#    0.000    1.714    4.286    0.429    0.000    5.143 
#    9.000    1.429    0.000    0.000    0.000    0.000 
#    0.000    0.000    0.000    0.000    0.000    0.000 
#
# Total GULP energy -155957.225246 kJ/mol
# GULP energy per Si atom -5569.900902 kJ/mol
# Density = 2.373874 g / cm^3
# Si number density = 23.792895 Si / 1000 Ang^3
#
#
#
# Elastic Constant Matrix: (Units=GPa)
#
#
# Indices 1 2 3 4 5 6 
#
# 1 133.1230 31.8810 37.5684 0.0000 0.0000 0.0000
# 2 31.8810 66.5509 15.4442 0.0000 0.0000 0.0000
# 3 37.5684 15.4442 66.7883 0.0000 0.0000 0.0000
# 4 0.0000 0.0000 0.0000 24.0157 0.0000 0.0000
# 5 0.0000 0.0000 0.0000 0.0000 27.3865 0.0000
# 6 0.0000 0.0000 0.0000 0.0000 0.0000 23.8824
#
#
#
# Elastic Compliance Matrix: (Units=1/GPa)
#
#
# Indices 1 2 3 4 5 6 
#
# 1 0.009667 -0.003560 -0.004614 0.000000 0.000000 0.000000
# 2 -0.003560 0.017189 -0.001972 0.000000 0.000000 0.000000
# 3 -0.004614 -0.001972 0.018024 0.000000 0.000000 0.000000
# 4 0.000000 0.000000 0.000000 0.041640 0.000000 0.000000
# 5 0.000000 0.000000 0.000000 0.000000 0.036514 0.000000
# 6 0.000000 0.000000 0.000000 0.000000 0.000000 0.041872
#
#
# Mechanical properties :
#
#
# Convention : Reuss Voigt Hill
#
# Bulk Modulus (GPa) = 40.67201 48.47216 44.57209
# Shear Modulus (GPa) = 25.85389 27.16149 26.50769
#
# Velocity S-wave (km/s) = 3.29997 3.38239 3.34144
# Velocity P-wave (km/s) = 5.62593 5.97251 5.80181
#
# Compressibility (1/GPa) = 0.02458693
#
# Stress axis : x y z
#
# Youngs Moduli (GPa) = 103.44924 58.17614 55.48069
#
# Poissons Ratio (x) = 0.20710 0.25600
# Poissons Ratio (y) = 0.36827 0.10943
# Poissons Ratio (z) = 0.47734 0.11475
#
# Static dielectric constant tensor:
#      x y z
#    x 2.007630 0.000000 0.000000 
#    y 0.000000 2.005370 0.000000 
#    z 0.000000 0.000000 1.931200 
# 
# From -- ./inp_files/27582.got.cif
#   From: 2010.05.17/outbox.cif.g08.bks.cpg/sg24_14_cif.got.tgz:27582.got - 2010.06.04 00:33:39.
