data_PCOD9333632
_publ_section_title
;
Structure prediction by ZEFSAII (Michael W. Deem and Ramdas Pophale) SiO2 
 PCOD9333632
Probable space group: I 21 21 21
;
_chemical_formula_sum "Si O2"
_cell_formula_units_Z 64
_cell_length_a 22.517938
_cell_length_b 9.239265
_cell_length_c 14.890703
_cell_angle_alpha 90.000000
_cell_angle_beta 90.000000
_cell_angle_gamma 90.000000
_cell_volume 3097.998794
_symmetry_space_group_name_H-M "I 21 21 21"
_symmetry_group_IT_number 24
_symmetry_cell_setting 'orthorhombic'
loop_
_space_group_symop_operation_xyz
x,y,z
-x,1/2-y,z
x,-y,1/2-z
1/2-x,y,-z
1/2+x,1/2+y,1/2+z
1/2-x,-y,1/2+z
1/2+x,1/2-y,-z
-x,1/2+y,1/2-z
loop_
_atom_site_type_symbol
_atom_site_label
_atom_site_fract_x
_atom_site_fract_y
_atom_site_fract_z
Si Si1 0.015272 0.579822 0.468043
Si Si2 0.185989 0.115974 0.329939
Si Si3 0.953838 0.385069 0.331386
Si Si4 0.230413 0.846248 0.400780
Si Si5 0.258094 0.392391 0.604987
Si Si6 0.537558 0.895597 0.329006
Si Si7 0.640794 0.878230 0.579591
Si Si8 0.832178 0.148336 0.869080
O O1 0.028264 0.537281 0.571220
O O2 0.073800 0.576405 0.405635
O O3 0.000000 0.750000 0.469195
O O4 0.968043 0.475780 0.421781
O O5 0.116324 0.155144 0.334149
O O6 0.226645 0.256816 0.333718
O O7 0.195983 0.000000 0.250000
O O8 0.211046 0.011518 0.408123
O O9 0.961450 0.500000 0.250000
O O10 0.000000 0.250000 0.323725
O O11 0.250000 0.795546 0.500000
O O12 0.170332 0.760251 0.373228
O O13 0.287753 0.782264 0.348744
O O14 0.250000 0.350372 0.500000
O O15 0.316003 0.492759 0.603971
O O16 0.205238 0.498900 0.635516
O O17 0.500000 0.750000 0.326913
O O18 0.607022 0.858011 0.315056
O O19 0.517757 0.000000 0.250000
O O20 0.645122 0.844462 0.472947
#
# Coordination Sequence:
#
# PCOD9333632 Si02
#       8
#     8   8   8   8   8   8   8   8
#     4  10  19  35  60  85 113 153 195 236 286 339
#     4  11  23  35  48  80 119 143 176 228 279 330
#     4  11  24  40  58  83 116 154 196 241 290 345
#     4   9  17  33  57  82 109 142 180 226 279 331
#     4   9  17  34  57  79 106 142 182 223 271 329
#     4  10  22  40  60  86 119 154 195 240 284 338
#     4   8  15  31  56  83 105 135 186 231 268 325
#     4   8  17  34  59  84 106 141 186 229 275 333
#
# _framework density 20.658496
#
# number of rings (size 3 to 8) (size 9 to 14) (size 15 to 20)
#    0.000    2.500    0.000    3.750    0.000    3.500 
#    0.000    3.750    0.000    0.000    0.000    0.000 
#    0.000    0.000    0.000    0.000    0.000    0.000 
#
# Total GULP energy -178312.762742 kJ/mol
# GULP energy per Si atom -5572.273836 kJ/mol
# Density = 2.061148 g / cm^3
# Si number density = 20.658496 Si / 1000 Ang^3
#
#
#
# Elastic Constant Matrix: (Units=GPa)
#
#
# Indices 1 2 3 4 5 6 
#
# 1 100.5541 21.3498 20.0130 0.0000 0.0000 0.0000
# 2 21.3498 65.4329 10.6949 0.0000 0.0000 0.0000
# 3 20.0130 10.6949 54.5015 0.0000 0.0000 0.0000
# 4 0.0000 0.0000 0.0000 0.2083 0.0000 0.0000
# 5 0.0000 0.0000 0.0000 0.0000 27.1124 0.0000
# 6 0.0000 0.0000 0.0000 0.0000 0.0000 18.7918
#
#
#
# Elastic Compliance Matrix: (Units=1/GPa)
#
#
# Indices 1 2 3 4 5 6 
#
# 1 0.011311 -0.003111 -0.003543 0.000000 0.000000 0.000000
# 2 -0.003111 0.016645 -0.002124 0.000000 0.000000 0.000000
# 3 -0.003543 -0.002124 0.020066 0.000000 0.000000 0.000000
# 4 0.000000 0.000000 0.000000 4.799752 0.000000 0.000000
# 5 0.000000 0.000000 0.000000 0.000000 0.036883 0.000000
# 6 0.000000 0.000000 0.000000 0.000000 0.000000 0.053215
#
#
# Mechanical properties :
#
#
# Convention : Reuss Voigt Hill
#
# Bulk Modulus (GPa) = 32.82378 36.06708 34.44543
# Shear Modulus (GPa) = 1.00693 20.45123 10.72908
#
# Velocity S-wave (km/s) = 0.69891 3.14979 2.28141
# Velocity P-wave (km/s) = 4.07119 5.54300 4.86309
#
# Compressibility (1/GPa) = 0.03046572
#
# Stress axis : x y z
#
# Youngs Moduli (GPa) = 88.41248 60.07751 49.83612
#
# Poissons Ratio (x) = 0.18693 0.17655
# Poissons Ratio (y) = 0.27509 0.10584
# Poissons Ratio (z) = 0.31322 0.12759
#
# Static dielectric constant tensor:
#      x y z
#    x 1.761490 0.000000 0.000000 
#    y 0.000000 1.800880 0.000000 
#    z 0.000000 0.000000 1.902210 
# 
# From -- ./inp_files/31420.got.cif
#   From: 2010.05.17/outbox.cif.g08.bks.cpg/sg24_16_cif.got.tgz:31420.got - 2010.06.04 00:33:39.
