data_PCOD9333959
_publ_section_title
;
Structure prediction by ZEFSAII (Michael W. Deem and Ramdas Pophale) SiO2 
 PCOD9333959
Probable space group: I 21 21 21
;
_chemical_formula_sum "Si O2"
_cell_formula_units_Z 64
_cell_length_a 11.844551
_cell_length_b 30.836095
_cell_length_c 9.380921
_cell_angle_alpha 90.000000
_cell_angle_beta 90.000000
_cell_angle_gamma 90.000000
_cell_volume 3426.284771
_symmetry_space_group_name_H-M "I 21 21 21"
_symmetry_group_IT_number 24
_symmetry_cell_setting 'orthorhombic'
loop_
_space_group_symop_operation_xyz
x,y,z
-x,1/2-y,z
x,-y,1/2-z
1/2-x,y,-z
1/2+x,1/2+y,1/2+z
1/2-x,-y,1/2+z
1/2+x,1/2-y,-z
-x,1/2+y,1/2-z
loop_
_atom_site_type_symbol
_atom_site_label
_atom_site_fract_x
_atom_site_fract_y
_atom_site_fract_z
Si Si1 0.787871 0.958524 0.338405
Si Si2 0.011991 0.600228 0.428720
Si Si3 0.616950 0.194701 0.979453
Si Si4 0.038508 0.551634 0.727841
Si Si5 0.460427 0.790685 0.240870
Si Si6 0.292559 0.218308 0.845417
Si Si7 0.657916 0.369557 0.714198
Si Si8 0.588704 0.620242 0.106798
O O1 0.750000 0.970494 0.500000
O O2 0.888085 0.924809 0.348764
O O3 0.673154 0.940968 0.268635
O O4 0.824910 0.000000 0.250000
O O5 0.055189 0.649989 0.438941
O O6 0.999403 0.574876 0.579511
O O7 0.898416 0.601634 0.336612
O O8 0.636101 0.237833 0.878971
O O9 0.750000 0.183115 0.000000
O O10 0.542434 0.207908 0.118994
O O11 0.020757 0.500000 0.750000
O O12 0.976877 0.577428 0.851111
O O13 0.500000 0.750000 0.148115
O O14 0.328987 0.779215 0.268939
O O15 0.470590 0.836917 0.168021
O O16 0.355922 0.180388 0.763473
O O17 0.250000 0.201758 0.000000
O O18 0.601429 0.376123 0.561579
O O19 0.789257 0.379343 0.684830
#
# Coordination Sequence:
#
# PCOD9333959 Si02
#       8
#     8   8   8   8   8   8   8   8
#     4   9  20  37  59  90 120 154 189 241 304 367
#     4  11  22  36  62  95 117 155 205 255 301 360
#     4  11  20  32  58  91 124 147 206 260 295 355
#     4  10  21  40  65  91 123 159 203 253 315 373
#     4  11  19  34  58  86 114 170 200 243 309 371
#     4  10  20  33  58  87 120 153 204 253 299 356
#     4  10  24  41  59  88 119 166 202 255 308 373
#     4  10  23  44  61  80 126 164 206 250 318 373
#
# _framework density 18.679124999999999
#
# number of rings (size 3 to 8) (size 9 to 14) (size 15 to 20)
#    0.000    1.750    3.750    1.875    1.750    3.000 
#    2.250    3.125    0.000    0.000    0.000    0.000 
#    0.000    0.000    0.000    0.000    0.000    0.000 
#
# Total GULP energy -178159.154488 kJ/mol
# GULP energy per Si atom -5567.473578 kJ/mol
# Density = 1.863661 g / cm^3
# Si number density = 18.679125 Si / 1000 Ang^3
#
#
#
# Elastic Constant Matrix: (Units=GPa)
#
#
# Indices 1 2 3 4 5 6 
#
# 1 45.9080 34.4918 32.5043 0.0001 -0.0031 0.0010
# 2 34.4918 87.8494 43.1858 0.0008 0.0012 0.0008
# 3 32.5043 43.1858 42.5144 -0.0009 0.0041 -0.0043
# 4 0.0001 0.0008 -0.0009 21.6115 0.0014 -0.0001
# 5 -0.0031 0.0012 0.0041 0.0014 15.8660 0.0011
# 6 0.0010 0.0008 -0.0043 -0.0001 0.0011 15.7865
#
#
#
# Elastic Compliance Matrix: (Units=1/GPa)
#
#
# Indices 1 2 3 4 5 6 
#
# 1 0.047602 -0.001596 -0.034773 -0.000002 0.000018 -0.000013
# 2 -0.001596 0.022790 -0.021930 -0.000002 0.000004 -0.000007
# 3 -0.034773 -0.021930 0.072384 0.000004 -0.000024 0.000023
# 4 -0.000002 -0.000002 0.000004 0.046272 -0.000004 0.000000
# 5 0.000018 0.000004 -0.000024 -0.000004 0.063028 -0.000004
# 6 -0.000013 -0.000007 0.000023 0.000000 -0.000004 0.063345
#
#
# Mechanical properties :
#
#
# Convention : Reuss Voigt Hill
#
# Bulk Modulus (GPa) = 38.20009 44.07062 41.13536
# Shear Modulus (GPa) = 11.34444 15.05881 13.20162
#
# Velocity S-wave (km/s) = 2.46709 2.84242 2.66138
# Velocity P-wave (km/s) = 5.34887 5.86662 5.61372
#
# Compressibility (1/GPa) = 0.02617795
#
# Stress axis : x y z
#
# Youngs Moduli (GPa) = 21.00750 43.87844 13.81527
#
# Poissons Ratio (x) = 0.07001 0.48040
# Poissons Ratio (y) = 0.03352 0.30297
# Poissons Ratio (z) = 0.73050 0.96226
#
# Static dielectric constant tensor:
#      x y z
#    x 1.702530 0.000000 0.000000 
#    y 0.000000 1.680100 0.000000 
#    z 0.000000 0.000000 1.661850 
# 
# From -- ./inp_files/11635.got.cif
#   From: 2010.05.17/outbox.cif.g08.bks.cpg/sg24_6_cif.got.tgz:11635.got - 2010.06.04 00:33:39.
