data_PCOD9333415
_publ_section_title
;
Structure prediction by ZEFSAII (Michael W. Deem and Ramdas Pophale) SiO2 
 PCOD9333415
Probable space group: I 21 21 21
;
_chemical_formula_sum "Si O2"
_cell_formula_units_Z 64
_cell_length_a 13.476995
_cell_length_b 31.893642
_cell_length_c 9.821788
_cell_angle_alpha 90.000000
_cell_angle_beta 90.000000
_cell_angle_gamma 90.000000
_cell_volume 4221.703593
_symmetry_space_group_name_H-M "I 21 21 21"
_symmetry_group_IT_number 24
_symmetry_cell_setting 'orthorhombic'
loop_
_space_group_symop_operation_xyz
x,y,z
-x,1/2-y,z
x,-y,1/2-z
1/2-x,y,-z
1/2+x,1/2+y,1/2+z
1/2-x,-y,1/2+z
1/2+x,1/2-y,-z
-x,1/2+y,1/2-z
loop_
_atom_site_type_symbol
_atom_site_label
_atom_site_fract_x
_atom_site_fract_y
_atom_site_fract_z
Si Si1 0.649968 0.550307 0.409532
Si Si2 0.369670 0.860194 0.513289
Si Si3 0.634742 0.777071 0.160908
Si Si4 0.939998 0.317463 0.280142
Si Si5 0.561500 0.687486 0.264984
Si Si6 0.367462 0.869062 0.031744
Si Si7 0.851224 0.541556 0.913469
Si Si8 0.361508 0.726216 0.833394
O O1 0.750000 0.549288 0.500000
O O2 0.599954 0.593378 0.459812
O O3 0.670842 0.550682 0.246747
O O4 0.600301 0.504396 0.429154
O O5 0.250000 0.857430 0.500000
O O6 0.402009 0.849057 0.665332
O O7 0.420074 0.825007 0.419342
O O8 0.610223 0.731647 0.224025
O O9 0.553279 0.808301 0.222292
O O10 0.748817 0.787498 0.190492
O O11 0.621857 0.773584 0.997393
O O12 0.921978 0.340139 0.423226
O O13 0.878669 0.273794 0.282233
O O14 0.054227 0.303112 0.269064
O O15 0.614567 0.651665 0.177260
O O16 0.250000 0.868744 0.000000
O O17 0.404851 0.916910 0.032397
O O18 0.750000 0.539498 0.000000
#
# Coordination Sequence:
#
# PCOD9333415 Si02
#       8
#     8   8   8   8   8   8   8   8
#     4   9  18  31  42  65  99 128 156 194 243 281
#     4  11  22  32  46  69 102 133 156 198 238 280
#     4  10  19  32  53  70  95 120 162 211 245 277
#     4  11  21  33  48  70  97 126 166 198 238 287
#     4  11  19  33  47  73  92 125 166 197 236 283
#     4  11  18  28  48  70  91 126 165 193 226 283
#     4   9  18  29  46  66  92 129 164 193 231 291
#     4  10  19  34  50  71  94 126 158 208 249 275
#
# _framework density 15.159757000000001
#
# number of rings (size 3 to 8) (size 9 to 14) (size 15 to 20)
#    0.000    1.750    3.750    3.000    5.250    2.000 
#    0.000    1.875    0.000    0.000    0.000    0.000 
#    0.000    6.000    0.000    0.000    0.000    0.000 
#
# Total GULP energy -178249.726162 kJ/mol
# GULP energy per Si atom -5570.303943 kJ/mol
# Density = 1.512525 g / cm^3
# Si number density = 15.159757 Si / 1000 Ang^3
#
#
#
# Elastic Constant Matrix: (Units=GPa)
#
#
# Indices 1 2 3 4 5 6 
#
# 1 66.6050 16.4020 -0.1518 0.0002 -0.0003 -0.0001
# 2 16.4020 74.7860 -0.8752 0.0008 -0.0004 -0.0002
# 3 -0.1518 -0.8752 27.9689 0.0021 -0.0017 -0.0004
# 4 0.0002 0.0008 0.0021 16.0035 -0.0001 -0.0001
# 5 -0.0003 -0.0004 -0.0017 -0.0001 19.5375 0.0001
# 6 -0.0001 -0.0002 -0.0004 -0.0001 0.0001 9.3709
#
#
#
# Elastic Compliance Matrix: (Units=1/GPa)
#
#
# Indices 1 2 3 4 5 6 
#
# 1 0.015871 -0.003481 -0.000023 0.000000 0.000000 0.000000
# 2 -0.003481 0.014140 0.000424 -0.000001 0.000000 0.000000
# 3 -0.000023 0.000424 0.035767 -0.000005 0.000003 0.000002
# 4 0.000000 -0.000001 -0.000005 0.062486 0.000000 0.000001
# 5 0.000000 0.000000 0.000003 0.000000 0.051184 -0.000001
# 6 0.000000 0.000000 0.000002 0.000001 -0.000001 0.106713
#
#
# Mechanical properties :
#
#
# Convention : Reuss Voigt Hill
#
# Bulk Modulus (GPa) = 16.77360 22.23442 19.50401
# Shear Modulus (GPa) = 16.01566 19.24804 17.63185
#
# Velocity S-wave (km/s) = 3.25385 3.56712 3.41408
# Velocity P-wave (km/s) = 5.02049 5.62711 5.33243
#
# Compressibility (1/GPa) = 0.05961750
#
# Stress axis : x y z
#
# Youngs Moduli (GPa) = 63.00765 70.72178 27.95863
#
# Poissons Ratio (x) = 0.24619 0.00064
# Poissons Ratio (y) = 0.21934 -0.01184
# Poissons Ratio (z) = 0.00144 -0.02996
#
# Static dielectric constant tensor:
#      x y z
#    x 1.490840 0.000000 0.000000 
#    y 0.000000 1.535110 0.000000 
#    z 0.000000 0.000000 1.507410 
# 
# From -- ./inp_files/13469.got.cif
#   From: 2010.05.17/outbox.cif.g08.bks.cpg/sg24_7_cif.got.tgz:13469.got - 2010.06.04 00:33:39.
