data_PCOD9333928
_publ_section_title
;
Structure prediction by ZEFSAII (Michael W. Deem and Ramdas Pophale) SiO2 
 PCOD9333928
Probable space group: I 21 21 21
;
_chemical_formula_sum "Si O2"
_cell_formula_units_Z 32
_cell_length_a 14.660462
_cell_length_b 4.976660
_cell_length_c 23.491377
_cell_angle_alpha 90.000000
_cell_angle_beta 90.000000
_cell_angle_gamma 90.000000
_cell_volume 1713.934033
_symmetry_space_group_name_H-M "I 21 21 21"
_symmetry_group_IT_number 24
_symmetry_cell_setting 'orthorhombic'
loop_
_space_group_symop_operation_xyz
x,y,z
-x,1/2-y,z
x,-y,1/2-z
1/2-x,y,-z
1/2+x,1/2+y,1/2+z
1/2-x,-y,1/2+z
1/2+x,1/2-y,-z
-x,1/2+y,1/2-z
loop_
_atom_site_type_symbol
_atom_site_label
_atom_site_fract_x
_atom_site_fract_y
_atom_site_fract_z
Si Si1 0.104101 0.250764 0.291618
Si Si2 0.221278 0.137471 0.400341
Si Si3 0.189486 0.648072 0.557438
Si Si4 0.558096 0.515832 0.514734
O O1 0.116065 0.500000 0.250000
O O2 0.173659 0.237237 0.343418
O O3 0.000000 0.250000 0.314718
O O4 0.114004 0.000000 0.250000
O O5 0.299245 0.345292 0.420931
O O6 0.264202 0.842645 0.396480
O O7 0.141421 0.101537 0.447674
O O8 0.250000 0.651969 0.500000
O O9 0.099080 0.801648 0.536520
O O10 0.500000 0.750000 0.547450
O O11 0.500000 0.250000 0.499546
#
# Coordination Sequence:
#
# PCOD9333928 Si02
#       4
#     8   8   8   8
#     4  10  21  34  49  72 101 133 175 218 246 285
#     4  11  20  34  52  71 104 144 173 203 258 306
#     4  10  20  33  49  73 103 136 172 210 250 306
#     4  11  21  33  52  78 107 139 176 211 252 311
#
# _framework density 18.670496
#
# number of rings (size 3 to 8) (size 9 to 14) (size 15 to 20)
#    0.000    1.500    0.000    9.000    0.000    3.000 
#    0.000    0.000    0.000    0.000    0.000    0.000 
#    0.000   56.000    0.000    0.000    0.000    0.000 
#
# Total GULP energy -89203.290967 kJ/mol
# GULP energy per Si atom -5575.205685 kJ/mol
# Density = 1.862800 g / cm^3
# Si number density = 18.670496 Si / 1000 Ang^3
#
#
#
# Elastic Constant Matrix: (Units=GPa)
#
#
# Indices 1 2 3 4 5 6 
#
# 1 50.2541 19.4747 8.9287 0.0000 0.0000 0.0000
# 2 19.4747 143.1897 9.7016 0.0000 0.0000 0.0000
# 3 8.9287 9.7016 43.0949 0.0000 0.0000 0.0000
# 4 0.0000 0.0000 0.0000 -42.7487 0.0000 0.0000
# 5 0.0000 0.0000 0.0000 0.0000 23.3698 0.0000
# 6 0.0000 0.0000 0.0000 0.0000 0.0000 40.2186
#
#
#
# Elastic Compliance Matrix: (Units=1/GPa)
#
#
# Indices 1 2 3 4 5 6 
#
# 1 0.021626 -0.002679 -0.003878 0.000000 0.000000 0.000000
# 2 -0.002679 0.007424 -0.001116 0.000000 0.000000 0.000000
# 3 -0.003878 -0.001116 0.024259 0.000000 0.000000 0.000000
# 4 0.000000 0.000000 0.000000 -0.023393 0.000000 0.000000
# 5 0.000000 0.000000 0.000000 0.000000 0.042790 0.000000
# 6 0.000000 0.000000 0.000000 0.000000 0.000000 0.024864
#
#
# Mechanical properties :
#
#
# Convention : Reuss Voigt Hill
#
# Bulk Modulus (GPa) = 26.34074 34.74984 30.54529
# Shear Modulus (GPa) = 39.81842 17.39687 28.60765
#
# Velocity S-wave (km/s) = 4.62312 3.05583 3.91863
# Velocity P-wave (km/s) = 6.52966 5.57704 6.07206
#
# Compressibility (1/GPa) = 0.03796400
#
# Stress axis : x y z
#
# Youngs Moduli (GPa) = 46.24111 134.70429 41.22134
#
# Poissons Ratio (x) = 0.36081 0.15984
# Poissons Ratio (y) = 0.12386 0.04601
# Poissons Ratio (z) = 0.17930 0.15037
#
# Static dielectric constant tensor:
#      x y z
#    x 1.751510 0.000000 0.000000 
#    y 0.000000 1.661740 0.000000 
#    z 0.000000 0.000000 1.606920 
# 
# From -- ./inp_files/3277.got.cif
#   From: 2010.05.17/outbox.cif.g08.bks.cpg/sg24_2_cif.got.tgz:3277.got - 2010.06.04 00:33:39.
