data_PCOD9333745
_publ_section_title
;
Structure prediction by ZEFSAII (Michael W. Deem and Ramdas Pophale) SiO2 
 PCOD9333745
Probable space group: I 21 21 21
;
_chemical_formula_sum "Si O2"
_cell_formula_units_Z 40
_cell_length_a 9.950540
_cell_length_b 12.163629
_cell_length_c 13.022638
_cell_angle_alpha 90.000000
_cell_angle_beta 90.000000
_cell_angle_gamma 90.000000
_cell_volume 1576.190783
_symmetry_space_group_name_H-M "I 21 21 21"
_symmetry_group_IT_number 24
_symmetry_cell_setting 'orthorhombic'
loop_
_space_group_symop_operation_xyz
x,y,z
-x,1/2-y,z
x,-y,1/2-z
1/2-x,y,-z
1/2+x,1/2+y,1/2+z
1/2-x,-y,1/2+z
1/2+x,1/2-y,-z
-x,1/2+y,1/2-z
loop_
_atom_site_type_symbol
_atom_site_label
_atom_site_fract_x
_atom_site_fract_y
_atom_site_fract_z
Si Si1 0.152068 0.261181 0.304171
Si Si2 0.897337 0.017464 0.425161
Si Si3 0.504553 0.477179 0.127641
Si Si4 0.806503 0.472317 0.369405
Si Si5 0.793551 0.805309 0.604302
O O1 0.149878 0.378655 0.359553
O O2 0.178509 0.159770 0.380208
O O3 0.256493 0.250095 0.211124
O O4 0.000000 0.250000 0.262554
O O5 0.915826 0.048030 0.546153
O O6 0.048571 0.981141 0.398219
O O7 0.804581 0.913289 0.400515
O O8 0.488534 0.500000 0.250000
O O9 0.659264 0.491691 0.094605
O O10 0.441681 0.357214 0.107317
O O11 0.798549 0.500000 0.250000
O O12 0.750000 0.744106 0.500000
#
# Coordination Sequence:
#
# PCOD9333745 Si02
#       5
#     8   8   8   8   8
#     4  10  20  38  65  94 120 160 214 258 302 369
#     4  10  19  37  64  87 118 162 208 253 300 369
#     4  10  21  38  57  86 125 157 192 248 317 369
#     4  10  21  39  62  90 125 161 202 258 311 367
#     4  10  21  40  64  89 120 160 203 253 310 368
#
# _framework density 25.377638999999999
#
# number of rings (size 3 to 8) (size 9 to 14) (size 15 to 20)
#    0.000    2.000    0.000    4.800    0.000    0.000 
#    0.000   49.000    0.000    0.000    0.000    0.000 
#    0.000    0.000    0.000    0.000    0.000    0.000 
#
# Total GULP energy -111760.227409 kJ/mol
# GULP energy per Si atom -5588.011370 kJ/mol
# Density = 2.531988 g / cm^3
# Si number density = 25.377639 Si / 1000 Ang^3
#
#
#
# Elastic Constant Matrix: (Units=GPa)
#
#
# Indices 1 2 3 4 5 6 
#
# 1 104.9669 14.4172 -4.5489 0.0000 0.0000 0.0000
# 2 14.4172 77.1056 11.8274 0.0000 0.0000 0.0000
# 3 -4.5489 11.8274 55.3457 0.0000 0.0000 0.0000
# 4 0.0000 0.0000 0.0000 9.2796 0.0000 0.0000
# 5 0.0000 0.0000 0.0000 0.0000 46.9000 0.0000
# 6 0.0000 0.0000 0.0000 0.0000 0.0000 18.1569
#
#
#
# Elastic Compliance Matrix: (Units=1/GPa)
#
#
# Indices 1 2 3 4 5 6 
#
# 1 0.009860 -0.002035 0.001245 0.000000 0.000000 0.000000
# 2 -0.002035 0.013829 -0.003122 0.000000 0.000000 0.000000
# 3 0.001245 -0.003122 0.018838 0.000000 0.000000 0.000000
# 4 0.000000 0.000000 0.000000 0.107763 0.000000 0.000000
# 5 0.000000 0.000000 0.000000 0.000000 0.021322 0.000000
# 6 0.000000 0.000000 0.000000 0.000000 0.000000 0.055075
#
#
# Mechanical properties :
#
#
# Convention : Reuss Voigt Hill
#
# Bulk Modulus (GPa) = 28.81593 31.20105 30.00849
# Shear Modulus (GPa) = 20.31872 29.24880 24.78376
#
# Velocity S-wave (km/s) = 2.83265 3.39859 3.12845
# Velocity P-wave (km/s) = 4.69873 5.26517 4.98999
#
# Compressibility (1/GPa) = 0.03470302
#
# Stress axis : x y z
#
# Youngs Moduli (GPa) = 101.41737 72.31373 53.08456
#
# Poissons Ratio (x) = 0.14714 -0.06610
# Poissons Ratio (y) = 0.20635 0.16575
# Poissons Ratio (z) = -0.12629 0.22579
#
# Static dielectric constant tensor:
#      x y z
#    x 2.019580 0.000000 0.000000 
#    y 0.000000 2.029590 0.000000 
#    z 0.000000 0.000000 2.123640 
# 
# From -- ./inp_files/25637.got.cif
#   From: 2010.05.17/outbox.cif.g08.bks.cpg/sg24_13_cif.got.tgz:25637.got - 2010.06.04 00:33:39.
