data_PCOD9333064
_publ_section_title
;
Structure prediction by ZEFSAII (Michael W. Deem and Ramdas Pophale) SiO2 
 PCOD9333064
Probable space group: I 21 21 21
;
_chemical_formula_sum "Si O2"
_cell_formula_units_Z 52
_cell_length_a 20.708023
_cell_length_b 6.387279
_cell_length_c 18.725224
_cell_angle_alpha 90.000000
_cell_angle_beta 90.000000
_cell_angle_gamma 90.000000
_cell_volume 2476.746438
_symmetry_space_group_name_H-M "I 21 21 21"
_symmetry_group_IT_number 24
_symmetry_cell_setting 'orthorhombic'
loop_
_space_group_symop_operation_xyz
x,y,z
-x,1/2-y,z
x,-y,1/2-z
1/2-x,y,-z
1/2+x,1/2+y,1/2+z
1/2-x,-y,1/2+z
1/2+x,1/2-y,-z
-x,1/2+y,1/2-z
loop_
_atom_site_type_symbol
_atom_site_label
_atom_site_fract_x
_atom_site_fract_y
_atom_site_fract_z
Si Si1 0.000000 0.750000 0.841094
Si Si2 0.250000 0.146134 0.000000
Si Si3 0.927540 0.263042 0.088703
Si Si4 0.173386 0.630106 0.682315
Si Si5 0.195708 0.538372 0.381556
Si Si6 0.394724 0.000000 0.250000
Si Si7 0.918827 0.005030 0.944019
Si Si8 0.144517 0.151642 0.464661
O O1 0.942340 0.655344 0.793389
O O2 0.023453 0.558991 0.891535
O O3 0.309248 0.989814 0.014017
O O4 0.278035 0.299490 0.940953
O O5 0.876423 0.122637 0.132541
O O6 0.899108 0.495954 0.082044
O O7 0.000000 0.250000 0.116565
O O8 0.929374 0.171256 0.007112
O O9 0.147717 0.500000 0.750000
O O10 0.248600 0.570156 0.675858
O O11 0.152015 0.866358 0.698758
O O12 0.139366 0.567574 0.608314
O O13 0.187284 0.307801 0.415327
O O14 0.899187 0.796364 0.986291
#
# Coordination Sequence:
#
# PCOD9333064 Si02
#       8
#     4   4   8   8   8   4   8   8
#     4  12  24  42  60  86 132 180 218 270 306 372
#     4  10  18  32  58  86 120 154 198 256 320 372
#     4  10  22  38  62  96 124 161 197 255 335 402
#     4  12  25  42  59  87 120 173 226 268 305 366
#     4  10  22  37  59  88 121 155 215 265 314 385
#     4  12  28  44  58  86 128 184 232 262 312 352
#     4  11  23  36  59  90 125 165 210 259 305 392
#     4  10  20  37  60  91 124 162 198 260 331 378
#
# _framework density 20.995287999999999
#
# number of rings (size 3 to 8) (size 9 to 14) (size 15 to 20)
#    0.000    1.231    1.538    6.000    6.462    4.308 
#    0.000    0.000    0.000    0.000    6.000    0.000 
#    0.000    0.000    0.000    0.000    0.000    0.000 
#
# Total GULP energy -145141.138117 kJ/mol
# GULP energy per Si atom -5582.351466 kJ/mol
# Density = 2.094750 g / cm^3
# Si number density = 20.995288 Si / 1000 Ang^3
#
#
#
# Elastic Constant Matrix: (Units=GPa)
#
#
# Indices 1 2 3 4 5 6 
#
# 1 127.3286 38.2475 13.9636 0.0000 0.0000 0.0000
# 2 38.2475 112.7901 16.4217 0.0000 0.0000 0.0000
# 3 13.9636 16.4217 34.4434 0.0000 0.0000 0.0000
# 4 0.0000 0.0000 0.0000 16.0288 0.0000 0.0000
# 5 0.0000 0.0000 0.0000 0.0000 35.1706 0.0000
# 6 0.0000 0.0000 0.0000 0.0000 0.0000 16.6003
#
#
#
# Elastic Compliance Matrix: (Units=1/GPa)
#
#
# Indices 1 2 3 4 5 6 
#
# 1 0.008916 -0.002683 -0.002335 0.000000 0.000000 0.000000
# 2 -0.002683 0.010335 -0.003840 0.000000 0.000000 0.000000
# 3 -0.002335 -0.003840 0.031810 0.000000 0.000000 0.000000
# 4 0.000000 0.000000 0.000000 0.062388 0.000000 0.000000
# 5 0.000000 0.000000 0.000000 0.000000 0.028433 0.000000
# 6 0.000000 0.000000 0.000000 0.000000 0.000000 0.060240
#
#
# Mechanical properties :
#
#
# Convention : Reuss Voigt Hill
#
# Bulk Modulus (GPa) = 29.98950 45.75862 37.87406
# Shear Modulus (GPa) = 21.64944 27.28857 24.46901
#
# Velocity S-wave (km/s) = 3.21465 3.60911 3.41758
# Velocity P-wave (km/s) = 5.30033 6.26176 5.80100
#
# Compressibility (1/GPa) = 0.03334500
#
# Stress axis : x y z
#
# Youngs Moduli (GPa) = 112.15998 96.75859 31.43618
#
# Poissons Ratio (x) = 0.25964 0.07341
# Poissons Ratio (y) = 0.30097 0.12070
# Poissons Ratio (z) = 0.26191 0.37151
#
# Static dielectric constant tensor:
#      x y z
#    x 1.774570 0.000000 0.000000 
#    y 0.000000 1.780370 0.000000 
#    z 0.000000 0.000000 1.736900 
# 
# From -- ./inp_files/34154.got.cif
#   From: 2010.05.17/outbox.cif.g08.bks.cpg/sg24_18_cif.got.tgz:34154.got - 2010.06.04 00:33:39.
