data_PCOD9333199
_publ_section_title
;
Structure prediction by ZEFSAII (Michael W. Deem and Ramdas Pophale) SiO2 
 PCOD9333199
Probable space group: I 21 21 21
;
_chemical_formula_sum "Si O2"
_cell_formula_units_Z 52
_cell_length_a 15.712236
_cell_length_b 18.016661
_cell_length_c 8.629161
_cell_angle_alpha 90.000000
_cell_angle_beta 90.000000
_cell_angle_gamma 90.000000
_cell_volume 2442.760409
_symmetry_space_group_name_H-M "I 21 21 21"
_symmetry_group_IT_number 24
_symmetry_cell_setting 'orthorhombic'
loop_
_space_group_symop_operation_xyz
x,y,z
-x,1/2-y,z
x,-y,1/2-z
1/2-x,y,-z
1/2+x,1/2+y,1/2+z
1/2-x,-y,1/2+z
1/2+x,1/2-y,-z
-x,1/2+y,1/2-z
loop_
_atom_site_type_symbol
_atom_site_label
_atom_site_fract_x
_atom_site_fract_y
_atom_site_fract_z
Si Si1 0.036631 0.668535 0.922839
Si Si2 0.561895 0.570677 0.322592
Si Si3 0.750000 0.965914 0.500000
Si Si4 0.297057 0.665079 0.271794
Si Si5 0.571171 0.034135 0.911165
Si Si6 0.892945 0.814125 0.249663
Si Si7 0.094966 0.221594 0.972014
O O1 0.130150 0.658882 0.853673
O O2 0.000000 0.750000 0.894825
O O3 0.979253 0.612432 0.825128
O O4 0.047115 0.665508 0.107192
O O5 0.610218 0.500000 0.250000
O O6 0.490410 0.537956 0.441206
O O7 0.605902 0.636890 0.419009
O O8 0.717737 0.912125 0.362016
O O9 0.662776 0.004966 0.553661
O O10 0.205878 0.685957 0.204131
O O11 0.334004 0.726900 0.390903
O O12 0.592688 0.119932 0.873439
O O13 0.536975 0.000000 0.750000
O O14 0.904386 0.737830 0.344412
O O15 0.000000 0.250000 0.925936
#
# Coordination Sequence:
#
# PCOD9333199 Si02
#       7
#     8   8   4   8   8   8   8
#     4  12  22  38  62  93 122 158 203 257 306 368
#     4  12  24  39  60  87 126 165 204 257 317 363
#     4  10  18  36  58  84 122 162 206 236 298 368
#     4  11  18  38  62  90 120 155 210 254 302 362
#     4  11  22  39  56  83 126 167 202 244 302 369
#     4  11  23  36  62  95 120 156 211 258 302 368
#     4  12  18  40  65  84 118 162 211 257 301 364
#
# _framework density 21.287393999999999
#
# number of rings (size 3 to 8) (size 9 to 14) (size 15 to 20)
#    0.000    0.615    9.231    1.846    0.000    0.615 
#    5.538    0.000    0.000    0.000    8.000    0.000 
#    0.000    0.000    0.000    0.000    0.000    0.000 
#
# Total GULP energy -145178.450700 kJ/mol
# GULP energy per Si atom -5583.786565 kJ/mol
# Density = 2.123894 g / cm^3
# Si number density = 21.287394 Si / 1000 Ang^3
#
#
#
# Elastic Constant Matrix: (Units=GPa)
#
#
# Indices 1 2 3 4 5 6 
#
# 1 21.6208 4.8335 -4.5202 0.0000 0.0000 0.0000
# 2 4.8335 109.4637 31.9365 0.0000 0.0000 0.0000
# 3 -4.5202 31.9365 105.1962 0.0000 0.0000 0.0000
# 4 0.0000 0.0000 0.0000 81.2048 0.0000 0.0000
# 5 0.0000 0.0000 0.0000 0.0000 23.2636 0.0000
# 6 0.0000 0.0000 0.0000 0.0000 0.0000 14.5489
#
#
#
# Elastic Compliance Matrix: (Units=1/GPa)
#
#
# Indices 1 2 3 4 5 6 
#
# 1 0.047527 -0.002956 0.002940 0.000000 0.000000 0.000000
# 2 -0.002956 0.010207 -0.003226 0.000000 0.000000 0.000000
# 3 0.002940 -0.003226 0.010612 0.000000 0.000000 0.000000
# 4 0.000000 0.000000 0.000000 0.012315 0.000000 0.000000
# 5 0.000000 0.000000 0.000000 0.000000 0.042986 0.000000
# 6 0.000000 0.000000 0.000000 0.000000 0.000000 0.068734
#
#
# Mechanical properties :
#
#
# Convention : Reuss Voigt Hill
#
# Bulk Modulus (GPa) = 16.16523 33.42003 24.79263
# Shear Modulus (GPa) = 22.78058 37.40551 30.09304
#
# Velocity S-wave (km/s) = 3.27485 4.19641 3.76394
# Velocity P-wave (km/s) = 4.68080 6.26205 5.52825
#
# Compressibility (1/GPa) = 0.06186116
#
# Stress axis : x y z
#
# Youngs Moduli (GPa) = 21.04061 97.97077 94.23574
#
# Poissons Ratio (x) = 0.28963 -0.27702
# Poissons Ratio (y) = 0.06220 0.30399
# Poissons Ratio (z) = -0.06185 0.31603
#
# Static dielectric constant tensor:
#      x y z
#    x 1.770410 0.000000 0.000000 
#    y 0.000000 1.829440 0.000000 
#    z 0.000000 0.000000 1.858940 
# 
# From -- ./inp_files/14413.got.cif
#   From: 2010.05.17/outbox.cif.g08.bks.cpg/sg24_8_cif.got.tgz:14413.got - 2010.06.04 00:33:39.
