data_PCOD9333839
_publ_section_title
;
Structure prediction by ZEFSAII (Michael W. Deem and Ramdas Pophale) SiO2 
 PCOD9333839
Probable space group: I 21 21 21
;
_chemical_formula_sum "Si O2"
_cell_formula_units_Z 48
_cell_length_a 17.370858
_cell_length_b 13.926871
_cell_length_c 9.437756
_cell_angle_alpha 90.000000
_cell_angle_beta 90.000000
_cell_angle_gamma 90.000000
_cell_volume 2283.197962
_symmetry_space_group_name_H-M "I 21 21 21"
_symmetry_group_IT_number 24
_symmetry_cell_setting 'orthorhombic'
loop_
_space_group_symop_operation_xyz
x,y,z
-x,1/2-y,z
x,-y,1/2-z
1/2-x,y,-z
1/2+x,1/2+y,1/2+z
1/2-x,-y,1/2+z
1/2+x,1/2-y,-z
-x,1/2+y,1/2-z
loop_
_atom_site_type_symbol
_atom_site_label
_atom_site_fract_x
_atom_site_fract_y
_atom_site_fract_z
Si Si1 0.475695 0.360402 0.947677
Si Si2 0.750000 0.291883 0.000000
Si Si3 0.127143 0.897572 0.312087
Si Si4 0.126473 0.678048 0.691688
Si Si5 0.403061 0.700787 0.843927
Si Si6 0.500000 0.250000 0.398983
Si Si7 0.740154 0.922962 0.852583
O O1 0.500000 0.250000 0.975252
O O2 0.554852 0.414119 0.917547
O O3 0.430694 0.353745 0.798423
O O4 0.426197 0.385114 0.085085
O O5 0.699264 0.354076 0.893643
O O6 0.812443 0.231657 0.910409
O O7 0.101103 0.813516 0.201614
O O8 0.146821 0.000000 0.250000
O O9 0.072161 0.748820 0.786789
O O10 0.179615 0.613481 0.791333
O O11 0.317492 0.665035 0.875306
O O12 0.458280 0.683006 0.979153
O O13 0.703626 0.000000 0.750000
O O14 0.750000 0.975319 0.000000
#
# Coordination Sequence:
#
# PCOD9333839 Si02
#       7
#     8   4   8   8   8   4   8
#     4  10  19  40  69  93 124 184 227 275 345 408
#     4  12  22  44  72 100 132 192 232 282 350 414
#     4  11  23  42  68  99 135 186 230 278 345 427
#     4  12  22  43  76  97 136 180 241 290 345 421
#     4  11  22  45  68  94 141 180 227 282 360 414
#     4  12  22  40  70 106 130 184 228 292 344 418
#     4  12  28  44  67 104 139 182 229 293 360 418
#
# _framework density 21.023143999999998
#
# number of rings (size 3 to 8) (size 9 to 14) (size 15 to 20)
#    0.000    0.667   10.000    0.000    3.500    0.667 
#    7.500    0.000    0.000    0.000    0.000    0.000 
#    0.000    0.000    0.000    0.000    0.000    0.000 
#
# Total GULP energy -133703.468110 kJ/mol
# GULP energy per Si atom -5570.977838 kJ/mol
# Density = 2.097529 g / cm^3
# Si number density = 21.023144 Si / 1000 Ang^3
#
#
#
# Elastic Constant Matrix: (Units=GPa)
#
#
# Indices 1 2 3 4 5 6 
#
# 1 108.7754 22.8026 52.6682 0.0000 0.0000 0.0000
# 2 22.8026 50.7484 20.6352 0.0000 0.0000 0.0000
# 3 52.6682 20.6352 125.2358 0.0000 0.0000 0.0000
# 4 0.0000 0.0000 0.0000 0.9689 0.0000 0.0000
# 5 0.0000 0.0000 0.0000 0.0000 53.2759 0.0000
# 6 0.0000 0.0000 0.0000 0.0000 0.0000 5.4050
#
#
#
# Elastic Compliance Matrix: (Units=1/GPa)
#
#
# Indices 1 2 3 4 5 6 
#
# 1 0.012134 -0.003620 -0.004507 0.000000 0.000000 0.000000
# 2 -0.003620 0.022200 -0.002136 0.000000 0.000000 0.000000
# 3 -0.004507 -0.002136 0.010232 0.000000 0.000000 0.000000
# 4 0.000000 0.000000 0.000000 1.032130 0.000000 0.000000
# 5 0.000000 0.000000 0.000000 0.000000 0.018770 0.000000
# 6 0.000000 0.000000 0.000000 0.000000 0.000000 0.185015
#
#
# Mechanical properties :
#
#
# Convention : Reuss Voigt Hill
#
# Bulk Modulus (GPa) = 41.59351 52.99685 47.29518
# Shear Modulus (GPa) = 3.81965 24.50686 14.16326
#
# Velocity S-wave (km/s) = 1.34938 3.41795 2.59839
# Velocity P-wave (km/s) = 4.71756 6.39062 5.61673
#
# Compressibility (1/GPa) = 0.02404221
#
# Stress axis : x y z
#
# Youngs Moduli (GPa) = 82.41228 45.04532 97.73179
#
# Poissons Ratio (x) = 0.16305 0.44044
# Poissons Ratio (y) = 0.29831 0.20872
# Poissons Ratio (z) = 0.37140 0.09620
#
# Static dielectric constant tensor:
#      x y z
#    x 1.808850 0.000000 0.000000 
#    y 0.000000 1.749630 0.000000 
#    z 0.000000 0.000000 1.851920 
# 
# From -- ./inp_files/14222.got.cif
#   From: 2010.05.17/outbox.cif.g08.bks.cpg/sg24_8_cif.got.tgz:14222.got - 2010.06.04 00:33:39.
