data_PCOD9333685
_publ_section_title
;
Structure prediction by ZEFSAII (Michael W. Deem and Ramdas Pophale) SiO2 
 PCOD9333685
Probable space group: I 21 21 21
;
_chemical_formula_sum "Si O2"
_cell_formula_units_Z 64
_cell_length_a 22.659221
_cell_length_b 16.130992
_cell_length_c 9.101990
_cell_angle_alpha 90.000000
_cell_angle_beta 90.000000
_cell_angle_gamma 90.000000
_cell_volume 3326.920362
_symmetry_space_group_name_H-M "I 21 21 21"
_symmetry_group_IT_number 24
_symmetry_cell_setting 'orthorhombic'
loop_
_space_group_symop_operation_xyz
x,y,z
-x,1/2-y,z
x,-y,1/2-z
1/2-x,y,-z
1/2+x,1/2+y,1/2+z
1/2-x,-y,1/2+z
1/2+x,1/2-y,-z
-x,1/2+y,1/2-z
loop_
_atom_site_type_symbol
_atom_site_label
_atom_site_fract_x
_atom_site_fract_y
_atom_site_fract_z
Si Si1 0.223054 0.923570 0.161679
Si Si2 0.613616 0.203984 0.647881
Si Si3 0.081297 0.088689 0.687088
Si Si4 0.373082 0.277831 0.305208
Si Si5 0.469220 0.582452 0.678400
Si Si6 0.045414 0.413936 0.831279
Si Si7 0.242589 0.737956 0.178145
Si Si8 0.086534 0.897594 0.149484
O O1 0.235748 0.833322 0.228022
O O2 0.152487 0.933153 0.155565
O O3 0.248719 0.000000 0.250000
O O4 0.250000 0.924238 0.000000
O O5 0.614681 0.190507 0.472021
O O6 0.565307 0.155364 0.739671
O O7 0.680709 0.192531 0.706180
O O8 0.597426 0.299997 0.658462
O O9 0.116672 0.176904 0.698930
O O10 0.065331 0.078999 0.514410
O O11 0.020403 0.101757 0.772115
O O12 0.105983 0.000000 0.750000
O O13 0.415269 0.333934 0.206886
O O14 0.304834 0.294689 0.265466
O O15 0.443542 0.500000 0.750000
O O16 0.459052 0.578651 0.505985
O O17 0.538182 0.584718 0.726141
O O18 0.065210 0.500000 0.750000
O O19 0.250000 0.740730 0.000000
#
# Coordination Sequence:
#
# PCOD9333685 Si02
#       8
#     8   8   8   8   8   8   8   8
#     4  10  20  35  54  81 115 153 193 231 275 331
#     4   9  19  37  60  83 111 149 190 231 287 349
#     4  10  20  35  57  87 121 154 193 234 285 346
#     4  10  19  36  61  84 114 154 193 238 289 344
#     4  12  23  38  59  82 112 147 190 244 297 351
#     4  11  24  39  56  84 117 149 192 245 299 349
#     4   8  17  35  57  79 107 147 191 230 277 345
#     4  10  21  37  58  84 117 155 192 233 283 343
#
# _framework density 19.237010999999999
#
# number of rings (size 3 to 8) (size 9 to 14) (size 15 to 20)
#    0.000    2.000    0.000    6.375    0.000    6.000 
#    0.000    5.000    0.000    0.000    0.000    0.000 
#    0.000    0.000    0.000    0.000    0.000    0.000 
#
# Total GULP energy -178371.176415 kJ/mol
# GULP energy per Si atom -5574.099263 kJ/mol
# Density = 1.919323 g / cm^3
# Si number density = 19.237011 Si / 1000 Ang^3
#
#
#
# Elastic Constant Matrix: (Units=GPa)
#
#
# Indices 1 2 3 4 5 6 
#
# 1 111.3831 34.5950 46.8455 0.0000 0.0000 0.0000
# 2 34.5950 61.4176 45.4694 0.0000 0.0000 0.0000
# 3 46.8455 45.4694 109.8370 0.0000 0.0000 0.0000
# 4 0.0000 0.0000 0.0000 30.9861 0.0000 0.0000
# 5 0.0000 0.0000 0.0000 0.0000 5.5892 0.0000
# 6 0.0000 0.0000 0.0000 0.0000 0.0000 -35.8547
#
#
#
# Elastic Compliance Matrix: (Units=1/GPa)
#
#
# Indices 1 2 3 4 5 6 
#
# 1 0.011631 -0.004151 -0.003242 0.000000 0.000000 0.000000
# 2 -0.004151 0.024959 -0.008562 0.000000 0.000000 0.000000
# 3 -0.003242 -0.008562 0.014032 0.000000 0.000000 0.000000
# 4 0.000000 0.000000 0.000000 0.032273 0.000000 0.000000
# 5 0.000000 0.000000 0.000000 0.000000 0.178915 0.000000
# 6 0.000000 0.000000 0.000000 0.000000 0.000000 -0.027890
#
#
# Mechanical properties :
#
#
# Convention : Reuss Voigt Hill
#
# Bulk Modulus (GPa) = 53.44420 59.60639 56.52529
# Shear Modulus (GPa) = 18.37793 10.52598 14.45196
#
# Velocity S-wave (km/s) = 3.09421 2.34171 2.74388
# Velocity P-wave (km/s) = 6.37243 6.19387 6.28378
#
# Compressibility (1/GPa) = 0.01871110
#
# Stress axis : x y z
#
# Youngs Moduli (GPa) = 85.97768 40.06605 71.26821
#
# Poissons Ratio (x) = 0.16632 0.23106
# Poissons Ratio (y) = 0.35691 0.61018
# Poissons Ratio (z) = 0.27875 0.34304
#
# Static dielectric constant tensor:
#      x y z
#    x 1.695220 0.000000 0.000000 
#    y 0.000000 1.719350 0.000000 
#    z 0.000000 0.000000 1.708250 
# 
# From -- ./inp_files/16043.got.cif
#   From: 2010.05.17/outbox.cif.g08.bks.cpg/sg24_9_cif.got.tgz:16043.got - 2010.06.04 00:33:39.
