data_PCOD9333181
_publ_section_title
;
Structure prediction by ZEFSAII (Michael W. Deem and Ramdas Pophale) SiO2 
 PCOD9333181
Probable space group: I 21 21 21
;
_chemical_formula_sum "Si O2"
_cell_formula_units_Z 56
_cell_length_a 14.760751
_cell_length_b 13.605675
_cell_length_c 12.384757
_cell_angle_alpha 90.000000
_cell_angle_beta 90.000000
_cell_angle_gamma 90.000000
_cell_volume 2487.230511
_symmetry_space_group_name_H-M "I 21 21 21"
_symmetry_group_IT_number 24
_symmetry_cell_setting 'orthorhombic'
loop_
_space_group_symop_operation_xyz
x,y,z
-x,1/2-y,z
x,-y,1/2-z
1/2-x,y,-z
1/2+x,1/2+y,1/2+z
1/2-x,-y,1/2+z
1/2+x,1/2-y,-z
-x,1/2+y,1/2-z
loop_
_atom_site_type_symbol
_atom_site_label
_atom_site_fract_x
_atom_site_fract_y
_atom_site_fract_z
Si Si1 0.441992 0.409542 0.387235
Si Si2 0.640955 0.413014 0.370511
Si Si3 0.732004 0.162279 0.886425
Si Si4 0.897855 0.290885 0.227939
Si Si5 0.694790 0.500000 0.750000
Si Si6 0.653639 0.770009 0.965772
Si Si7 0.092675 0.754761 0.698438
Si Si8 0.705066 0.000000 0.250000
O O1 0.540914 0.459197 0.389827
O O2 0.421693 0.347698 0.495011
O O3 0.429929 0.325875 0.293115
O O4 0.363080 0.482022 0.350048
O O5 0.733436 0.471782 0.346951
O O6 0.648732 0.330091 0.463277
O O7 0.621963 0.352792 0.260115
O O8 0.648618 0.234443 0.871354
O O9 0.821909 0.225213 0.868936
O O10 0.732036 0.087877 0.786662
O O11 0.750000 0.111767 0.000000
O O12 0.869105 0.406153 0.223419
O O13 0.852714 0.256403 0.341365
O O14 0.000000 0.250000 0.233708
O O15 0.750000 0.815037 0.000000
O O16 0.000000 0.750000 0.632821
#
# Coordination Sequence:
#
# PCOD9333181 Si02
#       8
#     8   8   8   8   4   8   8   4
#     4   9  18  32  62 103 138 178 223 291 367 425
#     4  10  18  35  63  99 137 170 235 296 350 420
#     4  11  24  44  66  92 131 187 237 295 363 436
#     4  12  27  48  69 100 150 195 243 303 372 449
#     4  12  23  43  68 100 140 198 244 302 366 438
#     4  11  19  39  69 104 145 190 237 295 365 432
#     4   8  15  33  60  91 128 167 213 286 354 409
#     4  10  21  39  64 100 134 172 236 300 364 434
#
# _framework density 22.515003
#
# number of rings (size 3 to 8) (size 9 to 14) (size 15 to 20)
#    0.000    1.714    2.857    4.286    0.000    2.857 
#    2.571    1.429    0.000    0.000    0.000    0.000 
#    0.000    0.000    0.000    0.000    0.000    0.000 
#
# Total GULP energy -156125.320037 kJ/mol
# GULP energy per Si atom -5575.904287 kJ/mol
# Density = 2.246376 g / cm^3
# Si number density = 22.515003 Si / 1000 Ang^3
#
#
#
# Elastic Constant Matrix: (Units=GPa)
#
#
# Indices 1 2 3 4 5 6 
#
# 1 115.0229 47.6470 15.6269 0.0000 0.0000 0.0000
# 2 47.6470 89.6328 19.1040 0.0000 0.0000 0.0000
# 3 15.6269 19.1040 63.1307 0.0000 0.0000 0.0000
# 4 0.0000 0.0000 0.0000 16.7896 0.0000 0.0000
# 5 0.0000 0.0000 0.0000 0.0000 8.3808 0.0000
# 6 0.0000 0.0000 0.0000 0.0000 0.0000 31.3130
#
#
#
# Elastic Compliance Matrix: (Units=1/GPa)
#
#
# Indices 1 2 3 4 5 6 
#
# 1 0.011212 -0.005739 -0.001039 0.000000 0.000000 0.000000
# 2 -0.005739 0.014863 -0.003077 0.000000 0.000000 0.000000
# 3 -0.001039 -0.003077 0.017028 0.000000 0.000000 0.000000
# 4 0.000000 0.000000 0.000000 0.059561 0.000000 0.000000
# 5 0.000000 0.000000 0.000000 0.000000 0.119321 0.000000
# 6 0.000000 0.000000 0.000000 0.000000 0.000000 0.031936
#
#
# Mechanical properties :
#
#
# Convention : Reuss Voigt Hill
#
# Bulk Modulus (GPa) = 42.74542 48.06024 45.40283
# Shear Modulus (GPa) = 17.76648 23.65723 20.71186
#
# Velocity S-wave (km/s) = 2.81213 3.24502 3.03630
# Velocity P-wave (km/s) = 5.43789 5.95251 5.70101
#
# Compressibility (1/GPa) = 0.02339432
#
# Stress axis : x y z
#
# Youngs Moduli (GPa) = 89.18776 67.28053 58.72514
#
# Poissons Ratio (x) = 0.38611 0.06100
# Poissons Ratio (y) = 0.51183 0.18071
# Poissons Ratio (z) = 0.09265 0.20703
#
# Static dielectric constant tensor:
#      x y z
#    x 1.928160 0.000000 0.000000 
#    y 0.000000 1.902900 0.000000 
#    z 0.000000 0.000000 1.849100 
# 
# From -- ./inp_files/20878.got.cif
#   From: 2010.05.17/outbox.cif.g08.bks.cpg/sg24_11_cif.got.tgz:20878.got - 2010.06.04 00:33:39.
