data_PCOD9333245
_publ_section_title
;
Structure prediction by ZEFSAII (Michael W. Deem and Ramdas Pophale) SiO2 
 PCOD9333245
Probable space group: I 21 21 21
;
_chemical_formula_sum "Si O2"
_cell_formula_units_Z 52
_cell_length_a 8.577199
_cell_length_b 15.673506
_cell_length_c 20.488937
_cell_angle_alpha 90.000000
_cell_angle_beta 90.000000
_cell_angle_gamma 90.000000
_cell_volume 2754.425738
_symmetry_space_group_name_H-M "I 21 21 21"
_symmetry_group_IT_number 24
_symmetry_cell_setting 'orthorhombic'
loop_
_space_group_symop_operation_xyz
x,y,z
-x,1/2-y,z
x,-y,1/2-z
1/2-x,y,-z
1/2+x,1/2+y,1/2+z
1/2-x,-y,1/2+z
1/2+x,1/2-y,-z
-x,1/2+y,1/2-z
loop_
_atom_site_type_symbol
_atom_site_label
_atom_site_fract_x
_atom_site_fract_y
_atom_site_fract_z
Si Si1 0.494921 0.158862 0.311803
Si Si2 0.926271 0.158572 0.024576
Si Si3 0.893531 0.520246 0.549255
Si Si4 0.604141 0.987528 0.629526
Si Si5 0.322047 0.500000 0.250000
Si Si6 0.338055 0.616697 0.059883
Si Si7 0.232900 0.036021 0.323283
O O1 0.500000 0.250000 0.277258
O O2 0.593352 0.168518 0.379142
O O3 0.318597 0.127454 0.324236
O O4 0.575012 0.079301 0.274867
O O5 0.930903 0.096009 0.086973
O O6 0.000000 0.250000 0.038218
O O7 0.750000 0.167268 0.000000
O O8 0.023369 0.108234 0.969274
O O9 0.750000 0.508148 0.500000
O O10 0.833414 0.517149 0.623522
O O11 0.017516 0.444004 0.539257
O O12 0.710948 0.968392 0.691924
O O13 0.707753 0.051795 0.586965
O O14 0.444083 0.031421 0.652211
O O15 0.250000 0.662588 0.000000
O O16 0.238398 0.000000 0.250000
#
# Coordination Sequence:
#
# PCOD9333245 Si02
#       7
#     8   8   8   8   4   8   8
#     4  10  23  42  63  94 129 167 218 270 324 402
#     4  12  24  39  59  94 135 167 220 282 327 396
#     4  11  19  36  62  88 120 169 210 260 332 396
#     4  11  20  40  62  90 120 175 216 264 327 395
#     4  10  22  42  68  86 130 178 212 266 346 380
#     4  10  18  37  64  85 118 160 209 265 329 389
#     4  11  22  38  65  91 124 165 221 263 317 394
#
# _framework density 18.878708
#
# number of rings (size 3 to 8) (size 9 to 14) (size 15 to 20)
#    0.000    1.231    6.154    0.462    0.000    0.000 
#    2.769    9.231    0.000    0.000    0.000    0.000 
#    0.000    0.000    0.000    0.000    0.000    0.000 
#
# Total GULP energy -145096.822593 kJ/mol
# GULP energy per Si atom -5580.647023 kJ/mol
# Density = 1.883574 g / cm^3
# Si number density = 18.878708 Si / 1000 Ang^3
#
#
#
# Elastic Constant Matrix: (Units=GPa)
#
#
# Indices 1 2 3 4 5 6 
#
# 1 145.5495 43.9514 40.2348 0.0000 0.0000 0.0000
# 2 43.9514 101.2028 21.7024 0.0000 0.0000 0.0000
# 3 40.2348 21.7024 86.0019 0.0000 0.0000 0.0000
# 4 0.0000 0.0000 0.0000 14.1792 0.0000 0.0000
# 5 0.0000 0.0000 0.0000 0.0000 21.9175 0.0000
# 6 0.0000 0.0000 0.0000 0.0000 0.0000 20.8930
#
#
#
# Elastic Compliance Matrix: (Units=1/GPa)
#
#
# Indices 1 2 3 4 5 6 
#
# 1 0.008711 -0.003076 -0.003299 0.000000 0.000000 0.000000
# 2 -0.003076 0.011532 -0.001471 0.000000 0.000000 0.000000
# 3 -0.003299 -0.001471 0.013542 0.000000 0.000000 0.000000
# 4 0.000000 0.000000 0.000000 0.070526 0.000000 0.000000
# 5 0.000000 0.000000 0.000000 0.000000 0.045626 0.000000
# 6 0.000000 0.000000 0.000000 0.000000 0.000000 0.047863
#
#
# Mechanical properties :
#
#
# Convention : Reuss Voigt Hill
#
# Bulk Modulus (GPa) = 55.26811 60.50348 57.88579
# Shear Modulus (GPa) = 22.77653 26.52231 24.64942
#
# Velocity S-wave (km/s) = 3.47719 3.75224 3.61733
# Velocity P-wave (km/s) = 6.74241 7.13376 6.94084
#
# Compressibility (1/GPa) = 0.01809362
#
# Stress axis : x y z
#
# Youngs Moduli (GPa) = 114.79296 86.71215 73.84184
#
# Poissons Ratio (x) = 0.26670 0.24363
# Poissons Ratio (y) = 0.35307 0.10864
# Poissons Ratio (z) = 0.37874 0.12757
#
# Static dielectric constant tensor:
#      x y z
#    x 1.665450 0.000000 0.000000 
#    y 0.000000 1.620750 0.000000 
#    z 0.000000 0.000000 1.707780 
# 
# From -- ./inp_files/32787.got.cif
#   From: 2010.05.17/outbox.cif.g08.bks.cpg/sg24_17_cif.got.tgz:32787.got - 2010.06.04 00:33:39.
