data_PCOD9333524
_publ_section_title
;
Structure prediction by ZEFSAII (Michael W. Deem and Ramdas Pophale) SiO2 
 PCOD9333524
Probable space group: I 21 21 21
;
_chemical_formula_sum "Si O2"
_cell_formula_units_Z 64
_cell_length_a 24.033540
_cell_length_b 11.700546
_cell_length_c 13.085978
_cell_angle_alpha 90.000000
_cell_angle_beta 90.000000
_cell_angle_gamma 90.000000
_cell_volume 3679.849514
_symmetry_space_group_name_H-M "I 21 21 21"
_symmetry_group_IT_number 24
_symmetry_cell_setting 'orthorhombic'
loop_
_space_group_symop_operation_xyz
x,y,z
-x,1/2-y,z
x,-y,1/2-z
1/2-x,y,-z
1/2+x,1/2+y,1/2+z
1/2-x,-y,1/2+z
1/2+x,1/2-y,-z
-x,1/2+y,1/2-z
loop_
_atom_site_type_symbol
_atom_site_label
_atom_site_fract_x
_atom_site_fract_y
_atom_site_fract_z
Si Si1 0.372754 0.233221 0.416868
Si Si2 0.801990 0.389368 0.431946
Si Si3 0.236449 0.404626 0.164598
Si Si4 0.947581 0.523427 0.870140
Si Si5 0.663090 0.129162 0.016735
Si Si6 0.274679 0.835615 0.243896
Si Si7 0.922615 0.018821 0.627343
Si Si8 0.159616 0.896862 0.558244
O O1 0.349777 0.197679 0.529341
O O2 0.423570 0.148449 0.393528
O O3 0.325045 0.198643 0.333721
O O4 0.392347 0.362456 0.402082
O O5 0.750000 0.350197 0.500000
O O6 0.776758 0.388739 0.319191
O O7 0.818108 0.514358 0.474193
O O8 0.235325 0.500000 0.250000
O O9 0.288636 0.422644 0.089060
O O10 0.249314 0.280929 0.211237
O O11 0.180734 0.404248 0.097098
O O12 0.944640 0.500000 0.750000
O O13 0.903663 0.434908 0.919498
O O14 0.012077 0.518068 0.898848
O O15 0.664644 0.266210 0.024777
O O16 0.606938 0.080598 0.063397
O O17 0.303493 0.904922 0.337330
O O18 0.916432 0.000000 0.750000
#
# Coordination Sequence:
#
# PCOD9333524 Si02
#       8
#     8   8   8   8   8   8   8   8
#     4  10  19  35  51  80 115 143 189 230 275 338
#     4   9  21  31  53  81 109 149 182 226 277 342
#     4  10  21  36  56  79 115 151 189 227 284 333
#     4  10  20  34  54  81 109 153 182 234 281 348
#     4  10  22  37  54  83 112 153 185 233 272 345
#     4  10  19  34  56  80 113 154 180 225 285 336
#     4  11  22  34  55  81 113 149 192 229 288 330
#     4  10  20  37  53  80 120 144 188 225 283 338
#
# _framework density 17.392015000000001
#
# number of rings (size 3 to 8) (size 9 to 14) (size 15 to 20)
#    0.000    2.000    1.250    3.000    5.250    0.500 
#    0.000    0.000    0.000    0.000    0.000    7.000 
#    0.000    0.000    0.000    0.000    0.000    0.000 
#
# Total GULP energy -178482.918272 kJ/mol
# GULP energy per Si atom -5577.591196 kJ/mol
# Density = 1.735243 g / cm^3
# Si number density = 17.392015 Si / 1000 Ang^3
#
#
#
# Elastic Constant Matrix: (Units=GPa)
#
#
# Indices 1 2 3 4 5 6 
#
# 1 108.3070 41.7751 49.0175 0.0000 0.0000 0.0000
# 2 41.7751 85.7203 52.4438 0.0000 0.0000 0.0000
# 3 49.0175 52.4438 72.0792 0.0000 0.0000 0.0000
# 4 0.0000 0.0000 0.0000 12.6206 0.0000 0.0000
# 5 0.0000 0.0000 0.0000 0.0000 24.1456 0.0000
# 6 0.0000 0.0000 0.0000 0.0000 0.0000 18.3721
#
#
#
# Elastic Compliance Matrix: (Units=1/GPa)
#
#
# Indices 1 2 3 4 5 6 
#
# 1 0.013479 -0.001732 -0.007907 0.000000 0.000000 0.000000
# 2 -0.001732 0.021247 -0.014281 0.000000 0.000000 0.000000
# 3 -0.007907 -0.014281 0.029642 0.000000 0.000000 0.000000
# 4 0.000000 0.000000 0.000000 0.079235 0.000000 0.000000
# 5 0.000000 0.000000 0.000000 0.000000 0.041415 0.000000
# 6 0.000000 0.000000 0.000000 0.000000 0.000000 0.054430
#
#
# Mechanical properties :
#
#
# Convention : Reuss Voigt Hill
#
# Bulk Modulus (GPa) = 60.50211 61.39770 60.94990
# Shear Modulus (GPa) = 17.07659 19.21902 18.14780
#
# Velocity S-wave (km/s) = 3.13687 3.32783 3.23376
# Velocity P-wave (km/s) = 6.92696 7.08130 7.00456
#
# Compressibility (1/GPa) = 0.01652835
#
# Stress axis : x y z
#
# Youngs Moduli (GPa) = 74.18751 47.06494 33.73645
#
# Poissons Ratio (x) = 0.08151 0.26674
# Poissons Ratio (y) = 0.12848 0.48181
# Poissons Ratio (z) = 0.58657 0.67216
#
# Static dielectric constant tensor:
#      x y z
#    x 1.601020 0.000000 0.000000 
#    y 0.000000 1.622610 0.000000 
#    z 0.000000 0.000000 1.615060 
# 
# From -- ./inp_files/20148.got.cif
#   From: 2010.05.17/outbox.cif.g08.bks.cpg/sg24_11_cif.got.tgz:20148.got - 2010.06.04 00:33:39.
