data_PCOD9333737
_publ_section_title
;
Structure prediction by ZEFSAII (Michael W. Deem and Ramdas Pophale) SiO2 
 PCOD9333737
Probable space group: I 21 21 21
;
_chemical_formula_sum "Si O2"
_cell_formula_units_Z 52
_cell_length_a 15.073932
_cell_length_b 19.302988
_cell_length_c 9.692080
_cell_angle_alpha 90.000000
_cell_angle_beta 90.000000
_cell_angle_gamma 90.000000
_cell_volume 2820.123209
_symmetry_space_group_name_H-M "I 21 21 21"
_symmetry_group_IT_number 24
_symmetry_cell_setting 'orthorhombic'
loop_
_space_group_symop_operation_xyz
x,y,z
-x,1/2-y,z
x,-y,1/2-z
1/2-x,y,-z
1/2+x,1/2+y,1/2+z
1/2-x,-y,1/2+z
1/2+x,1/2-y,-z
-x,1/2+y,1/2-z
loop_
_atom_site_type_symbol
_atom_site_label
_atom_site_fract_x
_atom_site_fract_y
_atom_site_fract_z
Si Si1 0.967264 0.585670 0.109032
Si Si2 0.927205 0.574496 0.427868
Si Si3 0.200294 0.729348 0.710499
Si Si4 0.250000 0.847220 0.500000
Si Si5 0.376427 0.322039 0.686829
Si Si6 0.355835 0.201321 0.475595
Si Si7 0.561005 0.185103 0.999378
O O1 0.928649 0.593978 0.264693
O O2 0.949912 0.506513 0.067836
O O3 0.068916 0.612858 0.125953
O O4 0.913691 0.634003 0.004051
O O5 0.835428 0.603633 0.487938
O O6 0.004215 0.615901 0.505877
O O7 0.245358 0.794441 0.630237
O O8 0.270511 0.679434 0.787351
O O9 0.138563 0.764281 0.825828
O O10 0.145799 0.687973 0.596392
O O11 0.389422 0.257516 0.585862
O O12 0.413258 0.307044 0.839231
O O13 0.250000 0.188213 0.500000
O O14 0.500000 0.250000 0.037658
#
# Coordination Sequence:
#
# PCOD9333737 Si02
#       7
#     8   8   8   4   8   8   8
#     4  10  21  39  59  83 122 167 207 243 303 379
#     4  10  22  36  60  87 119 167 205 248 306 388
#     4  11  21  35  63  94 118 153 204 264 309 354
#     4  12  20  38  56  90 126 156 198 254 314 372
#     4  10  19  37  61  84 115 161 209 249 299 363
#     4  10  21  34  57  89 115 152 199 248 303 357
#     4  11  18  34  60  89 117 153 203 253 308 367
#
# _framework density 18.438911000000001
#
# number of rings (size 3 to 8) (size 9 to 14) (size 15 to 20)
#    0.000    1.538    3.077    4.154    1.077    1.231 
#    0.000    0.000    0.000   22.154    0.000    0.000 
#    0.000    0.000    0.000    0.000    0.000    0.000 
#
# Total GULP energy -145008.047423 kJ/mol
# GULP energy per Si atom -5577.232593 kJ/mol
# Density = 1.839694 g / cm^3
# Si number density = 18.438911 Si / 1000 Ang^3
#
#
#
# Elastic Constant Matrix: (Units=GPa)
#
#
# Indices 1 2 3 4 5 6 
#
# 1 97.7809 75.2490 33.5571 0.0000 0.0000 0.0000
# 2 75.2490 105.1289 40.9947 0.0000 0.0000 0.0000
# 3 33.5571 40.9947 68.5889 0.0000 0.0000 0.0000
# 4 0.0000 0.0000 0.0000 -1.1746 0.0000 0.0000
# 5 0.0000 0.0000 0.0000 0.0000 20.1341 0.0000
# 6 0.0000 0.0000 0.0000 0.0000 0.0000 20.4312
#
#
#
# Elastic Compliance Matrix: (Units=1/GPa)
#
#
# Indices 1 2 3 4 5 6 
#
# 1 0.022945 -0.015707 -0.001838 0.000000 0.000000 0.000000
# 2 -0.015707 0.023155 -0.006155 0.000000 0.000000 0.000000
# 3 -0.001838 -0.006155 0.019158 0.000000 0.000000 0.000000
# 4 0.000000 0.000000 0.000000 -0.851380 0.000000 0.000000
# 5 0.000000 0.000000 0.000000 0.000000 0.049667 0.000000
# 6 0.000000 0.000000 0.000000 0.000000 0.000000 0.048945
#
#
# Mechanical properties :
#
#
# Convention : Reuss Voigt Hill
#
# Bulk Modulus (GPa) = 55.99722 63.45558 59.72640
# Shear Modulus (GPa) = -7.88447 15.99134 4.05344
#
# Velocity S-wave (km/s) = -2.07009 2.94812 1.48428
# Velocity P-wave (km/s) = 4.97205 6.78802 5.94973
#
# Compressibility (1/GPa) = 0.01785803
#
# Stress axis : x y z
#
# Youngs Moduli (GPa) = 43.58173 43.18741 52.19886
#
# Poissons Ratio (x) = 0.67835 0.09595
# Poissons Ratio (y) = 0.68454 0.32127
# Poissons Ratio (z) = 0.08011 0.26581
#
# Static dielectric constant tensor:
#      x y z
#    x 1.694470 0.000000 0.000000 
#    y 0.000000 1.602090 0.000000 
#    z 0.000000 0.000000 1.642390 
# 
# From -- ./inp_files/13065.got.cif
#   From: 2010.05.17/outbox.cif.g08.bks.cpg/sg24_7_cif.got.tgz:13065.got - 2010.06.04 00:33:39.
