data_PCOD9333261
_publ_section_title
;
Structure prediction by ZEFSAII (Michael W. Deem and Ramdas Pophale) SiO2 
 PCOD9333261
Probable space group: I 21 21 21
;
_chemical_formula_sum "Si O2"
_cell_formula_units_Z 52
_cell_length_a 28.504573
_cell_length_b 11.257377
_cell_length_c 8.268107
_cell_angle_alpha 90.000000
_cell_angle_beta 90.000000
_cell_angle_gamma 90.000000
_cell_volume 2653.125773
_symmetry_space_group_name_H-M "I 21 21 21"
_symmetry_group_IT_number 24
_symmetry_cell_setting 'orthorhombic'
loop_
_space_group_symop_operation_xyz
x,y,z
-x,1/2-y,z
x,-y,1/2-z
1/2-x,y,-z
1/2+x,1/2+y,1/2+z
1/2-x,-y,1/2+z
1/2+x,1/2-y,-z
-x,1/2+y,1/2-z
loop_
_atom_site_type_symbol
_atom_site_label
_atom_site_fract_x
_atom_site_fract_y
_atom_site_fract_z
Si Si1 0.955067 0.807651 0.499041
Si Si2 0.049851 0.500000 0.750000
Si Si3 0.363517 0.366601 0.802685
Si Si4 0.878331 0.835932 0.942906
Si Si5 0.300139 0.790503 0.455802
Si Si6 0.721330 0.884370 0.160473
Si Si7 0.109344 0.872000 0.693612
O O1 0.913018 0.867589 0.398148
O O2 0.927823 0.701013 0.588638
O O3 0.000000 0.750000 0.411721
O O4 0.973298 0.903699 0.630954
O O5 0.080649 0.582272 0.870994
O O6 0.350173 0.500000 0.750000
O O7 0.375536 0.306646 0.631377
O O8 0.324362 0.297476 0.909636
O O9 0.831238 0.908750 0.900795
O O10 0.879939 0.713905 0.844325
O O11 0.250000 0.846302 0.500000
O O12 0.285849 0.712629 0.299306
O O13 0.341866 0.878635 0.406300
O O14 0.741075 0.000000 0.250000
O O15 0.750000 0.850542 0.000000
O O16 0.093267 0.000000 0.750000
#
# Coordination Sequence:
#
# PCOD9333261 Si02
#       7
#     8   4   8   8   8   8   8
#     4  10  22  38  62  90 120 152 200 247 300 367
#     4  10  18  38  60  84 112 150 194 238 298 358
#     4  11  20  37  61  87 127 159 191 250 315 364
#     4  10  19  35  60  82 115 158 194 238 306 354
#     4  10  21  36  53  84 120 158 204 248 298 358
#     4  11  20  30  48  81 119 155 200 247 295 358
#     4   9  21  41  61  81 116 160 206 248 292 357
#
# _framework density 19.599522
#
# number of rings (size 3 to 8) (size 9 to 14) (size 15 to 20)
#    0.000    1.846    2.308    3.231    1.077    1.231 
#    0.000   12.308    0.000    0.000    0.000    0.000 
#    0.000    0.000    0.000    0.000    0.000    0.000 
#
# Total GULP energy -144877.142663 kJ/mol
# GULP energy per Si atom -5572.197795 kJ/mol
# Density = 1.955491 g / cm^3
# Si number density = 19.599522 Si / 1000 Ang^3
#
#
#
# Elastic Constant Matrix: (Units=GPa)
#
#
# Indices 1 2 3 4 5 6 
#
# 1 65.5312 1.4128 13.8560 0.0000 0.0000 0.0000
# 2 1.4128 63.2494 8.2678 0.0000 0.0000 0.0000
# 3 13.8560 8.2678 96.7555 0.0000 0.0000 0.0000
# 4 0.0000 0.0000 0.0000 13.0422 0.0000 0.0000
# 5 0.0000 0.0000 0.0000 0.0000 18.6147 0.0000
# 6 0.0000 0.0000 0.0000 0.0000 0.0000 8.0970
#
#
#
# Elastic Compliance Matrix: (Units=1/GPa)
#
#
# Indices 1 2 3 4 5 6 
#
# 1 0.015737 -0.000058 -0.002249 0.000000 0.000000 0.000000
# 2 -0.000058 0.015989 -0.001358 0.000000 0.000000 0.000000
# 3 -0.002249 -0.001358 0.010773 0.000000 0.000000 0.000000
# 4 0.000000 0.000000 0.000000 0.076674 0.000000 0.000000
# 5 0.000000 0.000000 0.000000 0.000000 0.053721 0.000000
# 6 0.000000 0.000000 0.000000 0.000000 0.000000 0.123502
#
#
# Mechanical properties :
#
#
# Convention : Reuss Voigt Hill
#
# Bulk Modulus (GPa) = 28.43277 30.28993 29.36135
# Shear Modulus (GPa) = 15.85046 21.41742 18.63394
#
# Velocity S-wave (km/s) = 2.84688 3.30927 3.08674
# Velocity P-wave (km/s) = 5.03435 5.48540 5.26471
#
# Compressibility (1/GPa) = 0.03517068
#
# Stress axis : x y z
#
# Youngs Moduli (GPa) = 63.54607 62.54205 92.82119
#
# Poissons Ratio (x) = 0.00360 0.20872
# Poissons Ratio (y) = 0.00366 0.12606
# Poissons Ratio (z) = 0.14289 0.08493
#
# Static dielectric constant tensor:
#      x y z
#    x 1.732900 0.000000 0.000000 
#    y 0.000000 1.674620 0.000000 
#    z 0.000000 0.000000 1.580820 
# 
# From -- ./inp_files/16409.got.cif
#   From: 2010.05.17/outbox.cif.g08.bks.cpg/sg24_9_cif.got.tgz:16409.got - 2010.06.04 00:33:39.
