data_PCOD9333713
_publ_section_title
;
Structure prediction by ZEFSAII (Michael W. Deem and Ramdas Pophale) SiO2 
 PCOD9333713
Probable space group: I 21 21 21
;
_chemical_formula_sum "Si O2"
_cell_formula_units_Z 48
_cell_length_a 9.430912
_cell_length_b 13.835290
_cell_length_c 15.905167
_cell_angle_alpha 90.000000
_cell_angle_beta 90.000000
_cell_angle_gamma 90.000000
_cell_volume 2075.296687
_symmetry_space_group_name_H-M "I 21 21 21"
_symmetry_group_IT_number 24
_symmetry_cell_setting 'orthorhombic'
loop_
_space_group_symop_operation_xyz
x,y,z
-x,1/2-y,z
x,-y,1/2-z
1/2-x,y,-z
1/2+x,1/2+y,1/2+z
1/2-x,-y,1/2+z
1/2+x,1/2-y,-z
-x,1/2+y,1/2-z
loop_
_atom_site_type_symbol
_atom_site_label
_atom_site_fract_x
_atom_site_fract_y
_atom_site_fract_z
Si Si1 0.088394 0.000653 0.851067
Si Si2 0.649526 0.292239 0.148599
Si Si3 0.894409 0.832802 0.412690
Si Si4 0.836773 0.364267 0.424895
Si Si5 0.914124 0.618150 0.253422
Si Si6 0.598911 0.967055 0.013157
O O1 0.109244 0.106137 0.893438
O O2 0.937932 0.969116 0.888343
O O3 0.083905 0.000000 0.750000
O O4 0.216726 0.935843 0.885776
O O5 0.500000 0.250000 0.181588
O O6 0.738257 0.212869 0.097875
O O7 0.769259 0.334804 0.210835
O O8 0.893655 0.930032 0.465742
O O9 0.000000 0.750000 0.448228
O O10 0.962547 0.856779 0.320441
O O11 0.750000 0.309895 0.500000
O O12 0.915824 0.335699 0.338921
O O13 0.964964 0.415283 0.472800
O O14 0.910273 0.500000 0.250000
O O15 0.750000 0.919157 0.000000
#
# Coordination Sequence:
#
# PCOD9333713 Si02
#       6
#     8   8   8   8   8   8
#     4  11  21  41  66  90 124 179 225 253 309 398
#     4  11  21  36  58  93 127 167 201 263 323 386
#     4  10  22  37  60  90 131 172 206 251 328 408
#     4  10  19  36  65  87 110 162 215 267 305 377
#     4  11  18  40  64  85 119 169 221 254 316 399
#     4  11  23  37  54  98 130 157 209 266 326 370
#
# _framework density 23.129223
#
# number of rings (size 3 to 8) (size 9 to 14) (size 15 to 20)
#    0.000    1.333    5.000    2.000    0.000    2.000 
#    6.000    0.833    0.000    3.000    0.000    0.000 
#    0.000    0.000    0.000    0.000    0.000    0.000 
#
# Total GULP energy -133734.576326 kJ/mol
# GULP energy per Si atom -5572.274014 kJ/mol
# Density = 2.307658 g / cm^3
# Si number density = 23.129223 Si / 1000 Ang^3
#
#
#
# Elastic Constant Matrix: (Units=GPa)
#
#
# Indices 1 2 3 4 5 6 
#
# 1 151.3146 42.5592 64.0704 0.0000 0.0000 0.0000
# 2 42.5592 78.9063 8.0629 0.0000 0.0000 0.0000
# 3 64.0704 8.0629 124.4909 0.0000 0.0000 0.0000
# 4 0.0000 0.0000 0.0000 18.9809 0.0000 0.0000
# 5 0.0000 0.0000 0.0000 0.0000 27.7261 0.0000
# 6 0.0000 0.0000 0.0000 0.0000 0.0000 20.5354
#
#
#
# Elastic Compliance Matrix: (Units=1/GPa)
#
#
# Indices 1 2 3 4 5 6 
#
# 1 0.010048 -0.004924 -0.004853 0.000000 0.000000 0.000000
# 2 -0.004924 0.015170 0.001552 0.000000 0.000000 0.000000
# 3 -0.004853 0.001552 0.010430 0.000000 0.000000 0.000000
# 4 0.000000 0.000000 0.000000 0.052685 0.000000 0.000000
# 5 0.000000 0.000000 0.000000 0.000000 0.036067 0.000000
# 6 0.000000 0.000000 0.000000 0.000000 0.000000 0.048696
#
#
# Mechanical properties :
#
#
# Convention : Reuss Voigt Hill
#
# Bulk Modulus (GPa) = 52.08679 64.89964 58.49322
# Shear Modulus (GPa) = 25.51726 29.44976 27.48351
#
# Velocity S-wave (km/s) = 3.32512 3.57216 3.45085
# Velocity P-wave (km/s) = 6.10825 6.71821 6.42047
#
# Compressibility (1/GPa) = 0.01919873
#
# Stress axis : x y z
#
# Youngs Moduli (GPa) = 99.51879 65.91752 95.88046
#
# Poissons Ratio (x) = 0.32457 0.46527
# Poissons Ratio (y) = 0.49002 -0.14876
# Poissons Ratio (z) = 0.48292 -0.10228
#
# Static dielectric constant tensor:
#      x y z
#    x 1.895920 0.000000 0.000000 
#    y 0.000000 1.943370 0.000000 
#    z 0.000000 0.000000 2.016520 
# 
# From -- ./inp_files/27046.got.cif
#   From: 2010.05.17/outbox.cif.g08.bks.cpg/sg24_14_cif.got.tgz:27046.got - 2010.06.04 00:33:39.
