data_PCOD9333112
_publ_section_title
;
Structure prediction by ZEFSAII (Michael W. Deem and Ramdas Pophale) SiO2 
 PCOD9333112
Probable space group: I 21 21 21
;
_chemical_formula_sum "Si O2"
_cell_formula_units_Z 40
_cell_length_a 12.609286
_cell_length_b 5.246014
_cell_length_c 32.391071
_cell_angle_alpha 90.000000
_cell_angle_beta 90.000000
_cell_angle_gamma 90.000000
_cell_volume 2142.620465
_symmetry_space_group_name_H-M "I 21 21 21"
_symmetry_group_IT_number 24
_symmetry_cell_setting 'orthorhombic'
loop_
_space_group_symop_operation_xyz
x,y,z
-x,1/2-y,z
x,-y,1/2-z
1/2-x,y,-z
1/2+x,1/2+y,1/2+z
1/2-x,-y,1/2+z
1/2+x,1/2-y,-z
-x,1/2+y,1/2-z
loop_
_atom_site_type_symbol
_atom_site_label
_atom_site_fract_x
_atom_site_fract_y
_atom_site_fract_z
Si Si1 0.877893 0.225499 0.012040
Si Si2 0.925295 0.000000 0.250000
Si Si3 0.000000 0.250000 0.391634
Si Si4 0.195556 0.049814 0.089355
Si Si5 0.881571 0.866472 0.337316
Si Si6 0.623267 0.725096 0.044246
O O1 0.862629 0.483457 0.985884
O O2 0.000000 0.250000 0.022630
O O3 0.861975 0.975072 0.984091
O O4 0.810100 0.232921 0.053993
O O5 0.855409 0.064307 0.209637
O O6 0.000000 0.250000 0.258800
O O7 0.920788 0.424675 0.416856
O O8 0.088137 0.386407 0.363436
O O9 0.190664 0.183080 0.134508
O O10 0.290255 0.851592 0.079457
O O11 0.000000 0.750000 0.333641
O O12 0.500000 0.750000 0.059246
#
# Coordination Sequence:
#
# PCOD9333112 Si02
#       6
#     8   4   4   8   8   8
#     4  10  22  39  54  76 106 149 203 254 300 345
#     4  10  18  34  54  78 122 164 194 226 286 368
#     4  10  20  34  54  84 118 152 192 246 296 360
#     4  11  23  35  56  81 115 154 208 247 305 354
#     4   9  19  33  52  83 114 163 194 235 290 365
#     4  10  24  41  56  76 108 155 207 253 297 343
#
# _framework density 18.668727000000001
#
# number of rings (size 3 to 8) (size 9 to 14) (size 15 to 20)
#    0.000    2.000    1.000    2.400    9.800    1.600 
#    3.600    0.000    0.000    0.000    0.000    0.000 
#    0.000    0.000    6.800   11.800    0.800    0.000 
#
# Total GULP energy -111335.785135 kJ/mol
# GULP energy per Si atom -5566.789257 kJ/mol
# Density = 1.862624 g / cm^3
# Si number density = 18.668727 Si / 1000 Ang^3
#
#
#
# Elastic Constant Matrix: (Units=GPa)
#
#
# Indices 1 2 3 4 5 6 
#
# 1 101.4370 25.7860 61.7943 0.0000 0.0000 0.0000
# 2 25.7860 120.5011 59.1325 0.0000 0.0000 0.0000
# 3 61.7943 59.1325 128.4036 0.0000 0.0000 0.0000
# 4 0.0000 0.0000 0.0000 607.0602 0.0000 0.0000
# 5 0.0000 0.0000 0.0000 0.0000 15.6070 0.0000
# 6 0.0000 0.0000 0.0000 0.0000 0.0000 28.0021
#
#
#
# Elastic Compliance Matrix: (Units=1/GPa)
#
#
# Indices 1 2 3 4 5 6 
#
# 1 0.013962 0.000400 -0.006903 0.000000 0.000000 0.000000
# 2 0.000400 0.010733 -0.005135 0.000000 0.000000 0.000000
# 3 -0.006903 -0.005135 0.013475 0.000000 0.000000 0.000000
# 4 0.000000 0.000000 0.000000 0.001647 0.000000 0.000000
# 5 0.000000 0.000000 0.000000 0.000000 0.064074 0.000000
# 6 0.000000 0.000000 0.000000 0.000000 0.000000 0.035712
#
#
# Mechanical properties :
#
#
# Convention : Reuss Voigt Hill
#
# Bulk Modulus (GPa) = 67.14670 71.52971 69.33821
# Shear Modulus (GPa) = 29.78938 143.70911 86.74924
#
# Velocity S-wave (km/s) = 3.99893 8.78326 6.82412
# Velocity P-wave (km/s) = 7.57414 11.88525 9.96561
#
# Compressibility (1/GPa) = 0.01489276
#
# Stress axis : x y z
#
# Youngs Moduli (GPa) = 71.62192 93.16980 74.21066
#
# Poissons Ratio (x) = -0.03726 0.51231
# Poissons Ratio (y) = -0.02864 0.38109
# Poissons Ratio (z) = 0.49444 0.47845
#
# Static dielectric constant tensor:
#      x y z
#    x 1.689730 0.000000 0.000000 
#    y 0.000000 1.981100 0.000000 
#    z 0.000000 0.000000 1.718580 
# 
# From -- ./inp_files/38667.got.cif
#   From: 2010.05.17/outbox.cif.g08.bks.cpg/sg24_20_cif.got.tgz:38667.got - 2010.06.04 00:33:39.
