data_PCOD9333751
_publ_section_title
;
Structure prediction by ZEFSAII (Michael W. Deem and Ramdas Pophale) SiO2 
 PCOD9333751
Probable space group: I 21 21 21
;
_chemical_formula_sum "Si O2"
_cell_formula_units_Z 56
_cell_length_a 14.744016
_cell_length_b 11.682355
_cell_length_c 14.321900
_cell_angle_alpha 90.000000
_cell_angle_beta 90.000000
_cell_angle_gamma 90.000000
_cell_volume 2466.873217
_symmetry_space_group_name_H-M "I 21 21 21"
_symmetry_group_IT_number 24
_symmetry_cell_setting 'orthorhombic'
loop_
_space_group_symop_operation_xyz
x,y,z
-x,1/2-y,z
x,-y,1/2-z
1/2-x,y,-z
1/2+x,1/2+y,1/2+z
1/2-x,-y,1/2+z
1/2+x,1/2-y,-z
-x,1/2+y,1/2-z
loop_
_atom_site_type_symbol
_atom_site_label
_atom_site_fract_x
_atom_site_fract_y
_atom_site_fract_z
Si Si1 0.848215 0.412389 0.472864
Si Si2 0.597225 0.272407 0.360206
Si Si3 0.292560 0.188362 0.710683
Si Si4 0.125677 0.844405 0.415157
Si Si5 0.677540 0.048423 0.657596
Si Si6 0.426781 0.395664 0.970181
Si Si7 0.381739 0.489762 0.355634
O O1 0.750000 0.362310 0.500000
O O2 0.913601 0.351497 0.547159
O O3 0.852046 0.384981 0.363032
O O4 0.844897 0.548968 0.478977
O O5 0.500000 0.250000 0.311921
O O6 0.682859 0.324024 0.302859
O O7 0.620835 0.142236 0.387143
O O8 0.325249 0.161799 0.815108
O O9 0.310774 0.318501 0.677743
O O10 0.132707 0.718575 0.459607
O O11 0.017820 0.871553 0.412627
O O12 0.774141 0.982783 0.647883
O O13 0.630576 0.000000 0.750000
O O14 0.620569 0.008225 0.570375
O O15 0.437496 0.426629 0.078150
O O16 0.415557 0.500000 0.250000
#
# Coordination Sequence:
#
# PCOD9333751 Si02
#       7
#     8   8   8   8   8   8   8
#     4  10  22  40  63  92 133 187 233 271 342 427
#     4  10  21  43  69  99 132 179 244 292 346 418
#     4  10  21  41  65  95 140 180 232 287 351 431
#     4  11  24  42  61  98 141 185 226 278 362 418
#     4  10  19  37  64  96 128 176 225 282 352 402
#     4  11  23  41  64  99 143 174 231 290 346 426
#     4  10  22  41  68  98 131 177 230 293 355 402
#
# _framework density 22.700801999999999
#
# number of rings (size 3 to 8) (size 9 to 14) (size 15 to 20)
#    0.000    1.714    1.429    2.571    0.000    4.571 
#    5.143    2.857    0.000    0.000    0.000    0.000 
#    0.000    0.000    0.000    0.000    0.000    0.000 
#
# Total GULP energy -156089.702523 kJ/mol
# GULP energy per Si atom -5574.632233 kJ/mol
# Density = 2.264913 g / cm^3
# Si number density = 22.700802 Si / 1000 Ang^3
#
#
#
# Elastic Constant Matrix: (Units=GPa)
#
#
# Indices 1 2 3 4 5 6 
#
# 1 75.9742 15.7555 42.9243 0.0000 0.0000 0.0000
# 2 15.7555 91.2345 40.2780 0.0000 0.0000 0.0000
# 3 42.9243 40.2780 115.9266 0.0000 0.0000 0.0000
# 4 0.0000 0.0000 0.0000 28.7642 0.0000 0.0000
# 5 0.0000 0.0000 0.0000 0.0000 23.7202 0.0000
# 6 0.0000 0.0000 0.0000 0.0000 0.0000 16.3567
#
#
#
# Elastic Compliance Matrix: (Units=1/GPa)
#
#
# Indices 1 2 3 4 5 6 
#
# 1 0.016647 -0.000181 -0.006101 0.000000 0.000000 0.000000
# 2 -0.000181 0.012949 -0.004432 0.000000 0.000000 0.000000
# 3 -0.006101 -0.004432 0.012425 0.000000 0.000000 0.000000
# 4 0.000000 0.000000 0.000000 0.034765 0.000000 0.000000
# 5 0.000000 0.000000 0.000000 0.000000 0.042158 0.000000
# 6 0.000000 0.000000 0.000000 0.000000 0.000000 0.061137
#
#
# Mechanical properties :
#
#
# Convention : Reuss Voigt Hill
#
# Bulk Modulus (GPa) = 48.56160 53.45010 51.00585
# Shear Modulus (GPa) = 23.99544 26.04674 25.02109
#
# Velocity S-wave (km/s) = 3.25473 3.39099 3.32356
# Velocity P-wave (km/s) = 5.96346 6.23926 6.10292
#
# Compressibility (1/GPa) = 0.02059240
#
# Stress axis : x y z
#
# Youngs Moduli (GPa) = 60.07141 77.22839 80.48364
#
# Poissons Ratio (x) = 0.01401 0.49102
# Poissons Ratio (y) = 0.01090 0.35668
# Poissons Ratio (z) = 0.36649 0.34226
#
# Static dielectric constant tensor:
#      x y z
#    x 1.964990 0.000000 0.000000 
#    y 0.000000 1.883910 0.000000 
#    z 0.000000 0.000000 1.911500 
# 
# From -- ./inp_files/26534.got.cif
#   From: 2010.05.17/outbox.cif.g08.bks.cpg/sg24_14_cif.got.tgz:26534.got - 2010.06.04 00:33:39.
