data_PCOD9333698
_publ_section_title
;
Structure prediction by ZEFSAII (Michael W. Deem and Ramdas Pophale) SiO2 
 PCOD9333698
Probable space group: I 21 21 21
;
_chemical_formula_sum "Si O2"
_cell_formula_units_Z 56
_cell_length_a 8.436346
_cell_length_b 15.296500
_cell_length_c 20.885165
_cell_angle_alpha 90.000000
_cell_angle_beta 90.000000
_cell_angle_gamma 90.000000
_cell_volume 2695.158836
_symmetry_space_group_name_H-M "I 21 21 21"
_symmetry_group_IT_number 24
_symmetry_cell_setting 'orthorhombic'
loop_
_space_group_symop_operation_xyz
x,y,z
-x,1/2-y,z
x,-y,1/2-z
1/2-x,y,-z
1/2+x,1/2+y,1/2+z
1/2-x,-y,1/2+z
1/2+x,1/2-y,-z
-x,1/2+y,1/2-z
loop_
_atom_site_type_symbol
_atom_site_label
_atom_site_fract_x
_atom_site_fract_y
_atom_site_fract_z
Si Si1 0.172810 0.714548 0.109283
Si Si2 0.690142 0.544795 0.570796
Si Si3 0.103405 0.449537 0.470041
Si Si4 0.179435 0.145726 0.198900
Si Si5 0.902520 0.624493 0.912897
Si Si6 0.666760 0.838836 0.741898
Si Si7 0.000440 0.143953 0.728745
O O1 0.305723 0.784155 0.087916
O O2 0.167948 0.698535 0.185321
O O3 0.000000 0.750000 0.091213
O O4 0.181800 0.622328 0.075026
O O5 0.750000 0.571819 0.500000
O O6 0.509175 0.515913 0.565389
O O7 0.708240 0.612084 0.627749
O O8 0.779410 0.455253 0.589262
O O9 0.250000 0.500101 0.500000
O O10 0.000539 0.397173 0.523275
O O11 0.177497 0.251103 0.199754
O O12 0.330690 0.115572 0.241521
O O13 0.004669 0.118687 0.226445
O O14 0.999244 0.623041 0.846705
O O15 0.836713 0.887823 0.738181
O O16 0.000000 0.250000 0.734541
#
# Coordination Sequence:
#
# PCOD9333698 Si02
#       7
#     8   8   8   8   8   8   8
#     4  12  20  34  58  91 125 159 207 251 287 354
#     4  10  24  44  61  81 125 167 203 245 314 371
#     4  11  26  36  57  87 127 168 210 245 291 364
#     4  10  20  40  67  85 120 159 197 259 316 354
#     4  11  22  40  57  88 128 171 201 242 302 354
#     4  10  20  39  64  96 118 148 206 260 306 362
#     4  10  19  36  63  91 120 154 198 253 302 359
#
# _framework density 20.777996999999999
#
# number of rings (size 3 to 8) (size 9 to 14) (size 15 to 20)
#    0.000    1.429    5.714    0.857    2.000    0.571 
#    5.143    0.000   12.571    0.000    0.000    0.000 
#    0.000    0.000    0.000    0.000    0.000    0.000 
#
# Total GULP energy -156324.349282 kJ/mol
# GULP energy per Si atom -5583.012474 kJ/mol
# Density = 2.073071 g / cm^3
# Si number density = 20.777997 Si / 1000 Ang^3
#
#
#
# Elastic Constant Matrix: (Units=GPa)
#
#
# Indices 1 2 3 4 5 6 
#
# 1 134.5566 8.8501 23.3080 0.0000 0.0000 0.0000
# 2 8.8501 32.5533 32.0907 0.0000 0.0000 0.0000
# 3 23.3080 32.0907 94.0669 0.0000 0.0000 0.0000
# 4 0.0000 0.0000 0.0000 43.6721 0.0000 0.0000
# 5 0.0000 0.0000 0.0000 0.0000 12.2956 0.0000
# 6 0.0000 0.0000 0.0000 0.0000 0.0000 -15.3665
#
#
#
# Elastic Compliance Matrix: (Units=1/GPa)
#
#
# Indices 1 2 3 4 5 6 
#
# 1 0.007767 -0.000323 -0.001814 0.000000 0.000000 0.000000
# 2 -0.000323 0.046298 -0.015714 0.000000 0.000000 0.000000
# 3 -0.001814 -0.015714 0.016441 0.000000 0.000000 0.000000
# 4 0.000000 0.000000 0.000000 0.022898 0.000000 0.000000
# 5 0.000000 0.000000 0.000000 0.000000 0.081330 0.000000
# 6 0.000000 0.000000 0.000000 0.000000 0.000000 -0.065077
#
#
# Mechanical properties :
#
#
# Convention : Reuss Voigt Hill
#
# Bulk Modulus (GPa) = 28.73336 43.29713 36.01524
# Shear Modulus (GPa) = 31.85493 21.24878 26.55186
#
# Velocity S-wave (km/s) = 3.91974 3.20137 3.57863
# Velocity P-wave (km/s) = 5.86043 5.87778 5.86911
#
# Compressibility (1/GPa) = 0.03480276
#
# Stress axis : x y z
#
# Youngs Moduli (GPa) = 128.74395 21.59936 60.82283
#
# Poissons Ratio (x) = 0.00698 0.11036
# Poissons Ratio (y) = 0.04159 0.95579
# Poissons Ratio (z) = 0.23359 0.33942
#
# Static dielectric constant tensor:
#      x y z
#    x 1.861790 0.000000 0.000000 
#    y 0.000000 1.713570 0.000000 
#    z 0.000000 0.000000 1.741790 
# 
# From -- ./inp_files/32819.got.cif
#   From: 2010.05.17/outbox.cif.g08.bks.cpg/sg24_17_cif.got.tgz:32819.got - 2010.06.04 00:33:39.
