data_PCOD9333016
_publ_section_title
;
Structure prediction by ZEFSAII (Michael W. Deem and Ramdas Pophale) SiO2 
 PCOD9333016
Probable space group: I 21 21 21
;
_chemical_formula_sum "Si O2"
_cell_formula_units_Z 40
_cell_length_a 19.459952
_cell_length_b 11.939085
_cell_length_c 10.234229
_cell_angle_alpha 90.000000
_cell_angle_beta 90.000000
_cell_angle_gamma 90.000000
_cell_volume 2377.759576
_symmetry_space_group_name_H-M "I 21 21 21"
_symmetry_group_IT_number 24
_symmetry_cell_setting 'orthorhombic'
loop_
_space_group_symop_operation_xyz
x,y,z
-x,1/2-y,z
x,-y,1/2-z
1/2-x,y,-z
1/2+x,1/2+y,1/2+z
1/2-x,-y,1/2+z
1/2+x,1/2-y,-z
-x,1/2+y,1/2-z
loop_
_atom_site_type_symbol
_atom_site_label
_atom_site_fract_x
_atom_site_fract_y
_atom_site_fract_z
Si Si1 0.589518 0.689003 0.717928
Si Si2 0.250000 0.122295 0.500000
Si Si3 0.024183 0.564972 0.887043
Si Si4 0.098779 0.784904 0.975666
Si Si5 0.300189 0.000000 0.750000
Si Si6 0.444496 0.583079 0.635684
O O1 0.651040 0.602165 0.706610
O O2 0.520678 0.625417 0.675021
O O3 0.598558 0.802426 0.636047
O O4 0.581199 0.723892 0.869910
O O5 0.180158 0.192235 0.524548
O O6 0.259145 0.045546 0.627096
O O7 0.025503 0.500000 0.750000
O O8 0.073250 0.674399 0.899828
O O9 0.947871 0.612931 0.920753
O O10 0.048812 0.481381 0.000618
O O11 0.420223 0.500000 0.750000
#
# Coordination Sequence:
#
# PCOD9333016 Si02
#       6
#     8   4   8   8   4   8
#     4  10  18  31  59  82 108 139 198 231 276 332
#     4  10  22  38  62  76 116 152 194 234 292 350
#     4  11  22  35  56  88 122 147 188 240 304 353
#     4  10  20  38  57  82 116 157 187 240 299 345
#     4  10  20  38  52  84 108 148 184 240 280 342
#     4  11  16  31  57  83 105 144 182 234 272 337
#
# _framework density 16.822558999999998
#
# number of rings (size 3 to 8) (size 9 to 14) (size 15 to 20)
#    0.000    1.600    5.000    2.400    1.400    3.200 
#    3.600    0.000    8.800    0.000    0.000    0.000 
#    0.000    0.000    0.000    0.000    0.000    0.000 
#
# Total GULP energy -111522.047803 kJ/mol
# GULP energy per Si atom -5576.102390 kJ/mol
# Density = 1.678427 g / cm^3
# Si number density = 16.822559 Si / 1000 Ang^3
#
#
#
# Elastic Constant Matrix: (Units=GPa)
#
#
# Indices 1 2 3 4 5 6 
#
# 1 91.9168 40.0321 36.9120 0.0000 0.0000 0.0000
# 2 40.0321 121.5944 56.6909 0.0000 0.0000 0.0000
# 3 36.9120 56.6909 105.8563 0.0000 0.0000 0.0000
# 4 0.0000 0.0000 0.0000 33.3534 0.0000 0.0000
# 5 0.0000 0.0000 0.0000 0.0000 14.4568 0.0000
# 6 0.0000 0.0000 0.0000 0.0000 0.0000 11.2140
#
#
#
# Elastic Compliance Matrix: (Units=1/GPa)
#
#
# Indices 1 2 3 4 5 6 
#
# 1 0.013415 -0.002980 -0.003082 0.000000 0.000000 0.000000
# 2 -0.002980 0.011623 -0.005185 0.000000 0.000000 0.000000
# 3 -0.003082 -0.005185 0.013299 0.000000 0.000000 0.000000
# 4 0.000000 0.000000 0.000000 0.029982 0.000000 0.000000
# 5 0.000000 0.000000 0.000000 0.000000 0.069171 0.000000
# 6 0.000000 0.000000 0.000000 0.000000 0.000000 0.089174
#
#
# Mechanical properties :
#
#
# Convention : Reuss Voigt Hill
#
# Bulk Modulus (GPa) = 63.12418 65.18194 64.15306
# Shear Modulus (GPa) = 19.65112 24.18701 21.91907
#
# Velocity S-wave (km/s) = 3.42152 3.79591 3.61357
# Velocity P-wave (km/s) = 7.29479 7.61858 7.45844
#
# Compressibility (1/GPa) = 0.01584179
#
# Stress axis : x y z
#
# Youngs Moduli (GPa) = 74.54472 86.03907 75.19631
#
# Poissons Ratio (x) = 0.25636 0.23176
# Poissons Ratio (y) = 0.22211 0.38993
# Poissons Ratio (z) = 0.22975 0.44615
#
# Static dielectric constant tensor:
#      x y z
#    x 1.568860 0.000000 0.000000 
#    y 0.000000 1.595360 0.000000 
#    z 0.000000 0.000000 1.552380 
# 
# From -- ./inp_files/11048.got.cif
#   From: 2010.05.17/outbox.cif.g08.bks.cpg/sg24_6_cif.got.tgz:11048.got - 2010.06.04 00:33:39.
