data_PCOD9333995
_publ_section_title
;
Structure prediction by ZEFSAII (Michael W. Deem and Ramdas Pophale) SiO2 
 PCOD9333995
Probable space group: I 21 21 21
;
_chemical_formula_sum "Si O2"
_cell_formula_units_Z 52
_cell_length_a 15.132376
_cell_length_b 6.905456
_cell_length_c 18.315100
_cell_angle_alpha 90.000000
_cell_angle_beta 90.000000
_cell_angle_gamma 90.000000
_cell_volume 1913.853896
_symmetry_space_group_name_H-M "I 21 21 21"
_symmetry_group_IT_number 24
_symmetry_cell_setting 'orthorhombic'
loop_
_space_group_symop_operation_xyz
x,y,z
-x,1/2-y,z
x,-y,1/2-z
1/2-x,y,-z
1/2+x,1/2+y,1/2+z
1/2-x,-y,1/2+z
1/2+x,1/2-y,-z
-x,1/2+y,1/2-z
loop_
_atom_site_type_symbol
_atom_site_label
_atom_site_fract_x
_atom_site_fract_y
_atom_site_fract_z
Si Si1 0.324052 0.615374 0.906465
Si Si2 0.635062 0.000000 0.750000
Si Si3 0.638115 0.662924 0.554526
Si Si4 0.000000 0.750000 0.024050
Si Si5 0.000000 0.250000 0.159564
Si Si6 0.397592 0.271043 0.253544
Si Si7 0.371275 0.391837 0.408347
Si Si8 0.328577 0.152748 0.108518
O O1 0.314731 0.593933 0.818182
O O2 0.345527 0.398307 0.938465
O O3 0.226553 0.677415 0.931556
O O4 0.410522 0.742676 0.925202
O O5 0.571637 0.152382 0.789540
O O6 0.552786 0.617624 0.602566
O O7 0.727223 0.596168 0.594095
O O8 0.629690 0.593504 0.470787
O O9 0.046595 0.611088 0.962886
O O10 0.500000 0.250000 0.231963
O O11 0.373202 0.500000 0.250000
O O12 0.392284 0.249565 0.340856
O O13 0.349036 0.136364 0.194621
O O14 0.351341 0.616802 0.394105
#
# Coordination Sequence:
#
# PCOD9333995 Si02
#       8
#     8   4   8   4   4   8   8   8
#     4  10  21  34  58  86 120 155 201 258 300 364
#     4  10  22  40  60  92 122 158 212 248 324 364
#     4   9  18  34  56  86 112 146 199 251 300 352
#     4  12  19  34  55  88 124 156 196 250 323 360
#     4  10  21  34  59  90 116 154 192 258 293 372
#     4  10  21  35  58  85 114 155 198 250 301 358
#     4  10  20  34  55  89 118 152 203 255 299 363
#     4   9  18  34  57  83 114 150 199 252 298 354
#
# _framework density 27.170307000000001
#
# number of rings (size 3 to 8) (size 9 to 14) (size 15 to 20)
#    0.000    2.154    2.308    0.923    8.615    0.000 
#    0.000    0.000    1.692    0.000   24.000    0.000 
#    0.000    0.000    0.000    0.000    0.000    0.000 
#
# Total GULP energy -144893.833627 kJ/mol
# GULP energy per Si atom -5572.839755 kJ/mol
# Density = 2.710847 g / cm^3
# Si number density = 27.170307 Si / 1000 Ang^3
#
#
#
# Elastic Constant Matrix: (Units=GPa)
#
#
# Indices 1 2 3 4 5 6 
#
# 1 153.7012 -0.4126 39.9040 0.0000 0.0000 0.0000
# 2 -0.4126 65.4256 -10.5568 0.0000 0.0000 0.0000
# 3 39.9040 -10.5568 225.1463 0.0000 0.0000 0.0000
# 4 0.0000 0.0000 0.0000 26.2950 0.0000 0.0000
# 5 0.0000 0.0000 0.0000 0.0000 183.5165 0.0000
# 6 0.0000 0.0000 0.0000 0.0000 0.0000 20.7406
#
#
#
# Elastic Compliance Matrix: (Units=1/GPa)
#
#
# Indices 1 2 3 4 5 6 
#
# 1 0.006821 -0.000153 -0.001216 0.000000 0.000000 0.000000
# 2 -0.000153 0.015404 0.000749 0.000000 0.000000 0.000000
# 3 -0.001216 0.000749 0.004692 0.000000 0.000000 0.000000
# 4 0.000000 0.000000 0.000000 0.038030 0.000000 0.000000
# 5 0.000000 0.000000 0.000000 0.000000 0.005449 0.000000
# 6 0.000000 0.000000 0.000000 0.000000 0.000000 0.048215
#
#
# Mechanical properties :
#
#
# Convention : Reuss Voigt Hill
#
# Bulk Modulus (GPa) = 38.94344 55.79361 47.36852
# Shear Modulus (GPa) = 38.93739 73.79966 56.36852
#
# Velocity S-wave (km/s) = 3.78972 5.21736 4.55976
# Velocity P-wave (km/s) = 5.78908 7.54147 6.72262
#
# Compressibility (1/GPa) = 0.02567827
#
# Stress axis : x y z
#
# Youngs Moduli (GPa) = 146.59604 64.91615 213.11733
#
# Poissons Ratio (x) = 0.00995 0.25919
# Poissons Ratio (y) = 0.02246 -0.15972
# Poissons Ratio (z) = 0.17829 -0.04865
#
# Static dielectric constant tensor:
#      x y z
#    x 2.126460 0.000000 0.000000 
#    y 0.000000 2.202150 0.000000 
#    z 0.000000 0.000000 2.305550 
# 
# From -- ./inp_files/30854.got.cif
#   From: 2010.05.17/outbox.cif.g08.bks.cpg/sg24_16_cif.got.tgz:30854.got - 2010.06.04 00:33:39.
