data_PCOD9333956
_publ_section_title
;
Structure prediction by ZEFSAII (Michael W. Deem and Ramdas Pophale) SiO2 
 PCOD9333956
Probable space group: I 21 21 21
;
_chemical_formula_sum "Si O2"
_cell_formula_units_Z 64
_cell_length_a 5.596892
_cell_length_b 27.503566
_cell_length_c 22.469906
_cell_angle_alpha 90.000000
_cell_angle_beta 90.000000
_cell_angle_gamma 90.000000
_cell_volume 3458.893487
_symmetry_space_group_name_H-M "I 21 21 21"
_symmetry_group_IT_number 24
_symmetry_cell_setting 'orthorhombic'
loop_
_space_group_symop_operation_xyz
x,y,z
-x,1/2-y,z
x,-y,1/2-z
1/2-x,y,-z
1/2+x,1/2+y,1/2+z
1/2-x,-y,1/2+z
1/2+x,1/2-y,-z
-x,1/2+y,1/2-z
loop_
_atom_site_type_symbol
_atom_site_label
_atom_site_fract_x
_atom_site_fract_y
_atom_site_fract_z
Si Si1 0.886898 0.882075 0.151937
Si Si2 0.845953 0.056663 0.749841
Si Si3 0.637202 0.797016 0.203410
Si Si4 0.757217 0.776258 0.333366
Si Si5 0.498388 0.940535 0.964072
Si Si6 0.769706 0.374259 0.755242
Si Si7 0.586233 0.120846 0.850962
Si Si8 0.998718 0.446061 0.036173
O O1 0.714229 0.920785 0.185146
O O2 0.765117 0.828998 0.153138
O O3 0.978306 0.903825 0.090883
O O4 0.093887 0.876404 0.200075
O O5 0.702112 0.084843 0.801609
O O6 0.116390 0.072551 0.762669
O O7 0.802543 0.000000 0.750000
O O8 0.500000 0.750000 0.180185
O O9 0.787644 0.780811 0.261175
O O10 0.462181 0.834946 0.236040
O O11 0.500000 0.750000 0.343240
O O12 0.754341 0.831169 0.359429
O O13 0.000000 0.750000 0.355758
O O14 0.485642 0.997192 0.944169
O O15 0.750000 0.935857 0.000000
O O16 0.250000 0.931513 0.000000
O O17 0.646643 0.359847 0.816370
O O18 0.522073 0.090666 0.908934
O O19 0.750000 0.437044 0.000000
O O20 0.250000 0.441510 0.000000
#
# Coordination Sequence:
#
# PCOD9333956 Si02
#       8
#     8   8   8   8   8   8   8   8
#     4  10  21  36  56  86 119 154 205 248 308 363
#     4  10  21  33  52  85 123 160 193 245 312 376
#     4  10  20  33  56  87 125 152 195 244 302 369
#     4  11  22  35  60  90 124 157 196 244 302 369
#     4  10  23  42  62  86 117 163 212 252 295 358
#     4  10  20  35  54  90 118 160 192 241 312 370
#     4  11  21  38  59  84 123 159 204 253 311 369
#     4  10  24  41  62  88 116 162 212 254 299 353
#
# _framework density 18.503028
#
# number of rings (size 3 to 8) (size 9 to 14) (size 15 to 20)
#    0.000    1.750    3.750    2.250    5.250    3.000 
#    0.000    0.000    0.000    1.500    3.250    0.000 
#    0.000    0.000    0.000    0.000    0.000    0.000 
#
# Total GULP energy -178292.359816 kJ/mol
# GULP energy per Si atom -5571.636244 kJ/mol
# Density = 1.846091 g / cm^3
# Si number density = 18.503028 Si / 1000 Ang^3
#
#
#
# Elastic Constant Matrix: (Units=GPa)
#
#
# Indices 1 2 3 4 5 6 
#
# 1 102.1269 53.8426 42.3502 0.0000 0.0000 0.0000
# 2 53.8426 124.1003 49.5799 0.0000 0.0000 0.0000
# 3 42.3502 49.5799 83.9389 0.0000 0.0000 0.0000
# 4 0.0000 0.0000 0.0000 26.7153 0.0000 0.0000
# 5 0.0000 0.0000 0.0000 0.0000 11.5178 0.0000
# 6 0.0000 0.0000 0.0000 0.0000 0.0000 29.3101
#
#
#
# Elastic Compliance Matrix: (Units=1/GPa)
#
#
# Indices 1 2 3 4 5 6 
#
# 1 0.013890 -0.004223 -0.004514 0.000000 0.000000 0.000000
# 2 -0.004223 0.011831 -0.004857 0.000000 0.000000 0.000000
# 3 -0.004514 -0.004857 0.017060 0.000000 0.000000 0.000000
# 4 0.000000 0.000000 0.000000 0.037432 0.000000 0.000000
# 5 0.000000 0.000000 0.000000 0.000000 0.086822 0.000000
# 6 0.000000 0.000000 0.000000 0.000000 0.000000 0.034118
#
#
# Mechanical properties :
#
#
# Convention : Reuss Voigt Hill
#
# Bulk Modulus (GPa) = 64.13338 66.85684 65.49511
# Shear Modulus (GPa) = 21.40983 24.46821 22.93902
#
# Velocity S-wave (km/s) = 3.40531 3.64041 3.52482
# Velocity P-wave (km/s) = 7.08504 7.34040 7.21385
#
# Compressibility (1/GPa) = 0.01559250
#
# Stress axis : x y z
#
# Youngs Moduli (GPa) = 71.99488 84.52491 58.61758
#
# Poissons Ratio (x) = 0.35696 0.26457
# Poissons Ratio (y) = 0.30404 0.28473
# Poissons Ratio (z) = 0.32495 0.41057
#
# Static dielectric constant tensor:
#      x y z
#    x 1.755050 0.000000 0.000000 
#    y 0.000000 1.674820 0.000000 
#    z 0.000000 0.000000 1.596100 
# 
# From -- ./inp_files/32346.got.cif
#   From: 2010.05.17/outbox.cif.g08.bks.cpg/sg24_17_cif.got.tgz:32346.got - 2010.06.04 00:33:39.
