data_PCOD9333715
_publ_section_title
;
Structure prediction by ZEFSAII (Michael W. Deem and Ramdas Pophale) SiO2 
 PCOD9333715
Probable space group: I 21 21 21
;
_chemical_formula_sum "Si O2"
_cell_formula_units_Z 64
_cell_length_a 34.025536
_cell_length_b 10.826737
_cell_length_c 8.992975
_cell_angle_alpha 90.000000
_cell_angle_beta 90.000000
_cell_angle_gamma 90.000000
_cell_volume 3312.881858
_symmetry_space_group_name_H-M "I 21 21 21"
_symmetry_group_IT_number 24
_symmetry_cell_setting 'orthorhombic'
loop_
_space_group_symop_operation_xyz
x,y,z
-x,1/2-y,z
x,-y,1/2-z
1/2-x,y,-z
1/2+x,1/2+y,1/2+z
1/2-x,-y,1/2+z
1/2+x,1/2-y,-z
-x,1/2+y,1/2-z
loop_
_atom_site_type_symbol
_atom_site_label
_atom_site_fract_x
_atom_site_fract_y
_atom_site_fract_z
Si Si1 0.651622 0.790390 0.248872
Si Si2 0.921464 0.912741 0.890557
Si Si3 0.377105 0.940323 0.396247
Si Si4 0.838134 0.604426 0.137277
Si Si5 0.896725 0.732342 0.338955
Si Si6 0.530983 0.862946 0.817421
Si Si7 0.795433 0.834868 0.034529
Si Si8 0.650651 0.052520 0.968756
O O1 0.606824 0.810623 0.187634
O O2 0.652501 0.660285 0.329102
O O3 0.661383 0.894040 0.370040
O O4 0.681342 0.805920 0.116790
O O5 0.933753 0.000000 0.750000
O O6 0.954654 0.875607 0.009509
O O7 0.889807 0.980374 0.997538
O O8 0.401570 0.859769 0.518959
O O9 0.397440 0.000000 0.250000
O O10 0.351735 0.041326 0.484521
O O11 0.823655 0.500000 0.250000
O O12 0.879218 0.654098 0.204343
O O13 0.806955 0.714438 0.128672
O O14 0.933632 0.810926 0.285574
O O15 0.862255 0.829869 0.375301
O O16 0.500000 0.750000 0.811195
O O17 0.519834 0.000000 0.750000
O O18 0.816527 0.959997 0.089105
O O19 0.750000 0.850046 0.000000
#
# Coordination Sequence:
#
# PCOD9333715 Si02
#       8
#     8   8   8   8   8   8   8   8
#     4   9  18  36  64  91 114 156 214 263 312 371
#     4   9  18  38  71  91 115 163 217 249 304 390
#     4  10  19  36  65  92 120 158 217 278 302 362
#     4  10  22  38  57  88 119 158 223 255 302 387
#     4  10  21  40  69  94 119 165 221 256 319 398
#     4  12  26  44  66  98 139 172 204 269 344 399
#     4  11  21  35  54  89 126 161 203 269 338 379
#     4   9  18  37  65  92 114 157 211 261 305 386
#
# _framework density 19.318529000000002
#
# number of rings (size 3 to 8) (size 9 to 14) (size 15 to 20)
#    0.000    2.000    2.500    2.625    0.000    1.500 
#    6.750    0.625    2.750    0.000    0.000    0.000 
#    0.000    0.000    0.000    0.000    0.000    0.000 
#
# Total GULP energy -178223.131387 kJ/mol
# GULP energy per Si atom -5569.472856 kJ/mol
# Density = 1.927456 g / cm^3
# Si number density = 19.318529 Si / 1000 Ang^3
#
#
#
# Elastic Constant Matrix: (Units=GPa)
#
#
# Indices 1 2 3 4 5 6 
#
# 1 67.6660 50.5060 41.9417 0.0000 0.0000 0.0000
# 2 50.5060 133.8706 54.6643 0.0000 0.0000 0.0000
# 3 41.9417 54.6643 103.0592 0.0000 0.0000 0.0000
# 4 0.0000 0.0000 0.0000 36.6025 0.0000 0.0000
# 5 0.0000 0.0000 0.0000 0.0000 7.8337 0.0000
# 6 0.0000 0.0000 0.0000 0.0000 0.0000 13.0025
#
#
#
# Elastic Compliance Matrix: (Units=1/GPa)
#
#
# Indices 1 2 3 4 5 6 
#
# 1 0.023265 -0.006269 -0.006143 0.000000 0.000000 0.000000
# 2 -0.006269 0.011224 -0.003402 0.000000 0.000000 0.000000
# 3 -0.006143 -0.003402 0.014008 0.000000 0.000000 0.000000
# 4 0.000000 0.000000 0.000000 0.027321 0.000000 0.000000
# 5 0.000000 0.000000 0.000000 0.000000 0.127653 0.000000
# 6 0.000000 0.000000 0.000000 0.000000 0.000000 0.076908
#
#
# Mechanical properties :
#
#
# Convention : Reuss Voigt Hill
#
# Bulk Modulus (GPa) = 59.28103 66.53554 62.90828
# Shear Modulus (GPa) = 15.74156 21.98667 18.86411
#
# Velocity S-wave (km/s) = 2.85764 3.37725 3.12825
# Velocity P-wave (km/s) = 6.45297 7.05151 6.75887
#
# Compressibility (1/GPa) = 0.01686880
#
# Stress axis : x y z
#
# Youngs Moduli (GPa) = 42.98237 89.09233 71.38881
#
# Poissons Ratio (x) = 0.55852 0.43854
# Poissons Ratio (y) = 0.26946 0.24288
# Poissons Ratio (z) = 0.26404 0.30312
#
# Static dielectric constant tensor:
#      x y z
#    x 1.633970 0.000000 0.000000 
#    y 0.000000 1.750610 0.000000 
#    z 0.000000 0.000000 1.757340 
# 
# From -- ./inp_files/16994.got.cif
#   From: 2010.05.17/outbox.cif.g08.bks.cpg/sg24_9_cif.got.tgz:16994.got - 2010.06.04 00:33:39.
