data_PCOD9333297
_publ_section_title
;
Structure prediction by ZEFSAII (Michael W. Deem and Ramdas Pophale) SiO2 
 PCOD9333297
Probable space group: I 21 21 21
;
_chemical_formula_sum "Si O2"
_cell_formula_units_Z 52
_cell_length_a 10.327330
_cell_length_b 9.858783
_cell_length_c 26.046515
_cell_angle_alpha 90.000000
_cell_angle_beta 90.000000
_cell_angle_gamma 90.000000
_cell_volume 2651.923462
_symmetry_space_group_name_H-M "I 21 21 21"
_symmetry_group_IT_number 24
_symmetry_cell_setting 'orthorhombic'
loop_
_space_group_symop_operation_xyz
x,y,z
-x,1/2-y,z
x,-y,1/2-z
1/2-x,y,-z
1/2+x,1/2+y,1/2+z
1/2-x,-y,1/2+z
1/2+x,1/2-y,-z
-x,1/2+y,1/2-z
loop_
_atom_site_type_symbol
_atom_site_label
_atom_site_fract_x
_atom_site_fract_y
_atom_site_fract_z
Si Si1 0.020994 0.500000 0.250000
Si Si2 0.891992 0.866285 0.524633
Si Si3 0.179286 0.016526 0.162209
Si Si4 0.989738 0.913189 0.420892
Si Si5 0.245368 0.697905 0.285757
Si Si6 0.220450 0.492516 0.873842
Si Si7 0.850004 0.264736 0.674729
O O1 0.114128 0.621975 0.267629
O O2 0.927782 0.538025 0.202769
O O3 0.750000 0.820800 0.500000
O O4 0.956331 0.954207 0.478940
O O5 0.860326 0.946781 0.576456
O O6 0.000000 0.750000 0.535132
O O7 0.214878 0.165543 0.182996
O O8 0.115738 0.029160 0.106377
O O9 0.296956 0.913345 0.162982
O O10 0.867314 0.950643 0.386285
O O11 0.000000 0.750000 0.421664
O O12 0.318156 0.593617 0.323488
O O13 0.321512 0.733192 0.234311
O O14 0.217489 0.649444 0.859499
O O15 0.000000 0.250000 0.664466
#
# Coordination Sequence:
#
# PCOD9333297 Si02
#       7
#     4   8   8   8   8   8   8
#     4  12  20  36  66 102 132 158 222 288 340 380
#     4   9  21  39  67 102 131 164 223 301 354 403
#     4  12  23  37  68  99 135 177 220 277 332 404
#     4  10  18  39  70 103 127 149 225 298 348 390
#     4  12  22  39  67  99 132 176 220 275 333 410
#     4  11  22  40  66  91 132 177 213 279 337 394
#     4  12  28  44  56  91 146 188 223 260 327 425
#
# _framework density 19.608409000000002
#
# number of rings (size 3 to 8) (size 9 to 14) (size 15 to 20)
#    0.000    0.923    6.154    0.462    0.000    6.154 
#    0.000    0.000   10.154    0.000    0.000    0.000 
#    0.000    0.000    0.000    0.000    0.000    0.000 
#
# Total GULP energy -145229.734797 kJ/mol
# GULP energy per Si atom -5585.759031 kJ/mol
# Density = 1.956378 g / cm^3
# Si number density = 19.608409 Si / 1000 Ang^3
#
#
#
# Elastic Constant Matrix: (Units=GPa)
#
#
# Indices 1 2 3 4 5 6 
#
# 1 65.3930 39.0392 12.2769 0.0000 0.0000 0.0000
# 2 39.0392 95.4969 7.9009 0.0000 0.0000 0.0000
# 3 12.2769 7.9009 56.0815 0.0000 0.0000 0.0000
# 4 0.0000 0.0000 0.0000 10.2343 0.0000 0.0000
# 5 0.0000 0.0000 0.0000 0.0000 30.1503 0.0000
# 6 0.0000 0.0000 0.0000 0.0000 0.0000 28.4659
#
#
#
# Elastic Compliance Matrix: (Units=1/GPa)
#
#
# Indices 1 2 3 4 5 6 
#
# 1 0.020852 -0.008243 -0.003404 0.000000 0.000000 0.000000
# 2 -0.008243 0.013853 -0.000147 0.000000 0.000000 0.000000
# 3 -0.003404 -0.000147 0.018597 0.000000 0.000000 0.000000
# 4 0.000000 0.000000 0.000000 0.097711 0.000000 0.000000
# 5 0.000000 0.000000 0.000000 0.000000 0.033167 0.000000
# 6 0.000000 0.000000 0.000000 0.000000 0.000000 0.035130
#
#
# Mechanical properties :
#
#
# Convention : Reuss Voigt Hill
#
# Bulk Modulus (GPa) = 33.65261 37.26728 35.45995
# Shear Modulus (GPa) = 19.77829 24.28705 22.03267
#
# Velocity S-wave (km/s) = 3.17939 3.52320 3.35570
# Velocity P-wave (km/s) = 5.53874 5.96637 5.75653
#
# Compressibility (1/GPa) = 0.02971537
#
# Stress axis : x y z
#
# Youngs Moduli (GPa) = 47.95715 72.18476 53.77212
#
# Poissons Ratio (x) = 0.59500 0.18301
# Poissons Ratio (y) = 0.39530 0.00792
# Poissons Ratio (z) = 0.16322 0.01063
#
# Static dielectric constant tensor:
#      x y z
#    x 1.707470 0.000000 0.000000 
#    y 0.000000 1.699510 0.000000 
#    z 0.000000 0.000000 1.712640 
# 
# From -- ./inp_files/37175.got.cif
#   From: 2010.05.17/outbox.cif.g08.bks.cpg/sg24_19_cif.got.tgz:37175.got - 2010.06.04 00:33:39.
