data_PCOD9333271
_publ_section_title
;
Structure prediction by ZEFSAII (Michael W. Deem and Ramdas Pophale) SiO2 
 PCOD9333271
Probable space group: I 21 21 21
;
_chemical_formula_sum "Si O2"
_cell_formula_units_Z 48
_cell_length_a 19.641919
_cell_length_b 14.609918
_cell_length_c 8.673428
_cell_angle_alpha 90.000000
_cell_angle_beta 90.000000
_cell_angle_gamma 90.000000
_cell_volume 2488.986103
_symmetry_space_group_name_H-M "I 21 21 21"
_symmetry_group_IT_number 24
_symmetry_cell_setting 'orthorhombic'
loop_
_space_group_symop_operation_xyz
x,y,z
-x,1/2-y,z
x,-y,1/2-z
1/2-x,y,-z
1/2+x,1/2+y,1/2+z
1/2-x,-y,1/2+z
1/2+x,1/2-y,-z
-x,1/2+y,1/2-z
loop_
_atom_site_type_symbol
_atom_site_label
_atom_site_fract_x
_atom_site_fract_y
_atom_site_fract_z
Si Si1 0.798725 0.074932 0.640820
Si Si2 0.798073 0.730731 0.767098
Si Si3 0.090465 0.563476 0.096529
Si Si4 0.935232 0.445898 0.407056
Si Si5 0.819938 0.554541 0.593662
Si Si6 0.850764 0.268214 0.384333
O O1 0.750000 0.105876 0.500000
O O2 0.814253 0.161912 0.747623
O O3 0.862492 0.034227 0.548135
O O4 0.765332 0.000000 0.750000
O O5 0.828883 0.660469 0.644767
O O6 0.716001 0.720774 0.777454
O O7 0.826249 0.713305 0.939475
O O8 0.096706 0.500000 0.250000
O O9 0.116603 0.667326 0.131481
O O10 0.012724 0.564609 0.037849
O O11 0.940251 0.500000 0.250000
O O12 0.883284 0.504273 0.512438
O O13 0.904926 0.347587 0.362199
O O14 0.807466 0.500000 0.750000
O O15 0.750000 0.547088 0.500000
#
# Coordination Sequence:
#
# PCOD9333271 Si02
#       6
#     8   8   8   8   8   8
#     4  11  22  40  66  90 119 159 207 266 320 382
#     4  10  20  36  60  90 117 153 208 253 309 370
#     4  10  22  41  65  91 121 167 213 260 315 381
#     4  11  23  39  61  91 128 169 210 253 317 385
#     4  12  23  37  61  93 128 164 204 262 314 377
#     4  10  18  38  63  87 119 161 208 251 306 381
#
# _framework density 19.284960000000002
#
# number of rings (size 3 to 8) (size 9 to 14) (size 15 to 20)
#    0.000    1.333    5.000    3.500    0.000    1.333 
#    3.000    0.000    0.000    0.000    0.000    0.000 
#    0.000    0.000    0.000    0.000    0.000    0.000 
#
# Total GULP energy -133813.532495 kJ/mol
# GULP energy per Si atom -5575.563854 kJ/mol
# Density = 1.924107 g / cm^3
# Si number density = 19.284960 Si / 1000 Ang^3
#
#
#
# Elastic Constant Matrix: (Units=GPa)
#
#
# Indices 1 2 3 4 5 6 
#
# 1 118.0442 39.2564 28.2449 0.0000 0.0000 0.0000
# 2 39.2564 104.1608 25.3401 0.0000 0.0000 0.0000
# 3 28.2449 25.3401 38.1087 0.0000 0.0000 0.0000
# 4 0.0000 0.0000 0.0000 36.5968 0.0000 0.0000
# 5 0.0000 0.0000 0.0000 0.0000 20.6882 0.0000
# 6 0.0000 0.0000 0.0000 0.0000 0.0000 28.0127
#
#
#
# Elastic Compliance Matrix: (Units=1/GPa)
#
#
# Indices 1 2 3 4 5 6 
#
# 1 0.010833 -0.002540 -0.006340 0.000000 0.000000 0.000000
# 2 -0.002540 0.012049 -0.006129 0.000000 0.000000 0.000000
# 3 -0.006340 -0.006129 0.035015 0.000000 0.000000 0.000000
# 4 0.000000 0.000000 0.000000 0.027325 0.000000 0.000000
# 5 0.000000 0.000000 0.000000 0.000000 0.048337 0.000000
# 6 0.000000 0.000000 0.000000 0.000000 0.000000 0.035698
#
#
# Mechanical properties :
#
#
# Convention : Reuss Voigt Hill
#
# Bulk Modulus (GPa) = 35.86992 49.55517 42.71254
# Shear Modulus (GPa) = 23.97291 28.22437 26.09864
#
# Velocity S-wave (km/s) = 3.52957 3.82978 3.68274
# Velocity P-wave (km/s) = 5.93724 6.73115 6.34662
#
# Compressibility (1/GPa) = 0.02787851
#
# Stress axis : x y z
#
# Youngs Moduli (GPa) = 92.30839 82.99403 28.55906
#
# Poissons Ratio (x) = 0.21084 0.18106
# Poissons Ratio (y) = 0.23451 0.17504
# Poissons Ratio (z) = 0.58523 0.50867
#
# Static dielectric constant tensor:
#      x y z
#    x 1.751180 0.000000 0.000000 
#    y 0.000000 1.813250 0.000000 
#    z 0.000000 0.000000 1.656580 
# 
# From -- ./inp_files/14169.got.cif
#   From: 2010.05.17/outbox.cif.g08.bks.cpg/sg24_8_cif.got.tgz:14169.got - 2010.06.04 00:33:39.
