data_PCOD9333374
_publ_section_title
;
Structure prediction by ZEFSAII (Michael W. Deem and Ramdas Pophale) SiO2 
 PCOD9333374
Probable space group: I 21 21 21
;
_chemical_formula_sum "Si O2"
_cell_formula_units_Z 48
_cell_length_a 15.529864
_cell_length_b 17.565446
_cell_length_c 8.916325
_cell_angle_alpha 90.000000
_cell_angle_beta 90.000000
_cell_angle_gamma 90.000000
_cell_volume 2432.275269
_symmetry_space_group_name_H-M "I 21 21 21"
_symmetry_group_IT_number 24
_symmetry_cell_setting 'orthorhombic'
loop_
_space_group_symop_operation_xyz
x,y,z
-x,1/2-y,z
x,-y,1/2-z
1/2-x,y,-z
1/2+x,1/2+y,1/2+z
1/2-x,-y,1/2+z
1/2+x,1/2-y,-z
-x,1/2+y,1/2-z
loop_
_atom_site_type_symbol
_atom_site_label
_atom_site_fract_x
_atom_site_fract_y
_atom_site_fract_z
Si Si1 0.195541 0.647361 0.272589
Si Si2 0.891699 0.180142 0.774479
Si Si3 0.097962 0.225723 0.049004
Si Si4 0.095303 0.550329 0.478386
Si Si5 0.055670 0.379200 0.479655
Si Si6 0.429396 0.918330 0.727638
O O1 0.293244 0.661595 0.230788
O O2 0.164140 0.715233 0.379599
O O3 0.177549 0.572352 0.375089
O O4 0.130476 0.647012 0.133862
O O5 0.947329 0.172463 0.625732
O O6 0.897525 0.257941 0.870967
O O7 0.914813 0.112203 0.891002
O O8 0.115566 0.144594 0.124288
O O9 0.000000 0.250000 0.093574
O O10 0.086795 0.463857 0.529333
O O11 0.015746 0.562109 0.365617
O O12 0.967198 0.385395 0.384126
O O13 0.384169 0.000000 0.750000
#
# Coordination Sequence:
#
# PCOD9333374 Si02
#       6
#     8   8   8   8   8   8
#     4  10  20  32  49  76 107 144 182 207 252 316
#     4  11  21  30  48  80 110 137 175 222 257 305
#     4  11  18  36  53  70 103 139 178 213 263 313
#     4   9  17  30  48  72 108 150 176 200 244 317
#     4  10  19  31  48  75 111 143 173 211 255 309
#     4   9  18  35  55  75 102 138 183 218 258 315
#
# _framework density 19.734608000000001
#
# number of rings (size 3 to 8) (size 9 to 14) (size 15 to 20)
#    0.000    2.000    5.000    4.500    0.000    4.000 
#    3.000    0.000    0.000    0.000    0.000    4.667 
#    5.000    0.000    0.000    0.000    0.000    0.000 
#
# Total GULP energy -133832.244475 kJ/mol
# GULP energy per Si atom -5576.343520 kJ/mol
# Density = 1.968969 g / cm^3
# Si number density = 19.734608 Si / 1000 Ang^3
#
#
#
# Elastic Constant Matrix: (Units=GPa)
#
#
# Indices 1 2 3 4 5 6 
#
# 1 12.4380 4.7579 -4.1967 0.0000 0.0000 0.0000
# 2 4.7579 107.9568 48.3180 0.0000 0.0000 0.0000
# 3 -4.1967 48.3180 128.2452 0.0000 0.0000 0.0000
# 4 0.0000 0.0000 0.0000 32.6997 0.0000 0.0000
# 5 0.0000 0.0000 0.0000 0.0000 15.9392 0.0000
# 6 0.0000 0.0000 0.0000 0.0000 0.0000 15.0448
#
#
#
# Elastic Compliance Matrix: (Units=1/GPa)
#
#
# Indices 1 2 3 4 5 6 
#
# 1 0.084367 -0.005959 0.005006 0.000000 0.000000 0.000000
# 2 -0.005959 0.011563 -0.004551 0.000000 0.000000 0.000000
# 3 0.005006 -0.004551 0.009676 0.000000 0.000000 0.000000
# 4 0.000000 0.000000 0.000000 0.030581 0.000000 0.000000
# 5 0.000000 0.000000 0.000000 0.000000 0.062738 0.000000
# 6 0.000000 0.000000 0.000000 0.000000 0.000000 0.066468
#
#
# Mechanical properties :
#
#
# Convention : Reuss Voigt Hill
#
# Bulk Modulus (GPa) = 10.57113 38.48873 24.52993
# Shear Modulus (GPa) = 16.23723 26.05414 21.14568
#
# Velocity S-wave (km/s) = 2.87152 3.63743 3.27693
# Velocity P-wave (km/s) = 4.04506 6.09809 5.17442
#
# Compressibility (1/GPa) = 0.09459727
#
# Stress axis : x y z
#
# Youngs Moduli (GPa) = 11.85299 86.48552 103.34676
#
# Poissons Ratio (x) = 0.51535 -0.51734
# Poissons Ratio (y) = 0.07063 0.47037
# Poissons Ratio (z) = -0.05933 0.39363
#
# Static dielectric constant tensor:
#      x y z
#    x 1.687670 0.000000 0.000000 
#    y 0.000000 1.786190 0.000000 
#    z 0.000000 0.000000 1.762040 
# 
# From -- ./inp_files/12795.got.cif
#   From: 2010.05.17/outbox.cif.g08.bks.cpg/sg24_7_cif.got.tgz:12795.got - 2010.06.04 00:33:39.
