data_PCOD9333087
_publ_section_title
;
Structure prediction by ZEFSAII (Michael W. Deem and Ramdas Pophale) SiO2 
 PCOD9333087
Probable space group: I 21 21 21
;
_chemical_formula_sum "Si O2"
_cell_formula_units_Z 52
_cell_length_a 7.119877
_cell_length_b 26.163049
_cell_length_c 16.013867
_cell_angle_alpha 90.000000
_cell_angle_beta 90.000000
_cell_angle_gamma 90.000000
_cell_volume 2983.026166
_symmetry_space_group_name_H-M "I 21 21 21"
_symmetry_group_IT_number 24
_symmetry_cell_setting 'orthorhombic'
loop_
_space_group_symop_operation_xyz
x,y,z
-x,1/2-y,z
x,-y,1/2-z
1/2-x,y,-z
1/2+x,1/2+y,1/2+z
1/2-x,-y,1/2+z
1/2+x,1/2-y,-z
-x,1/2+y,1/2-z
loop_
_atom_site_type_symbol
_atom_site_label
_atom_site_fract_x
_atom_site_fract_y
_atom_site_fract_z
Si Si1 0.865807 0.709082 0.697670
Si Si2 0.310035 0.970458 0.087652
Si Si3 0.500000 0.750000 0.607619
Si Si4 0.413681 0.438768 0.102776
Si Si5 0.185256 0.901419 0.750881
Si Si6 0.530508 0.336993 0.022916
Si Si7 0.988386 0.962718 0.326708
O O1 0.674273 0.733780 0.664197
O O2 0.829596 0.659231 0.752347
O O3 0.971626 0.690325 0.612944
O O4 0.000000 0.750000 0.740062
O O5 0.340170 0.930497 0.162064
O O6 0.487955 0.008134 0.076764
O O7 0.136971 0.006418 0.116955
O O8 0.250000 0.946579 0.000000
O O9 0.452250 0.701726 0.546969
O O10 0.528767 0.422081 0.186081
O O11 0.446941 0.393010 0.037166
O O12 0.302426 0.446121 0.874063
O O13 0.387203 0.916889 0.711723
O O14 0.750000 0.344004 0.000000
O O15 0.934875 0.000000 0.250000
#
# Coordination Sequence:
#
# PCOD9333087 Si02
#       7
#     8   8   4   8   8   8   8
#     4  10  20  34  51  72  97 136 183 215 252 315
#     4  10  20  35  53  77 107 137 176 228 272 321
#     4  10  20  36  48  70 110 144 170 214 264 298
#     4  10  18  33  55  77 106 146 180 214 261 320
#     4   9  20  36  52  76 105 138 183 223 265 322
#     4   9  18  32  48  71 108 143 176 210 251 309
#     4   9  18  34  53  76 108 141 177 215 261 320
#
# _framework density 17.431961999999999
#
# number of rings (size 3 to 8) (size 9 to 14) (size 15 to 20)
#    0.000    2.462    0.769    2.769    0.000    4.308 
#    0.000    7.692    0.000    0.000    2.000    0.000 
#    0.000    0.000    0.000    0.000    0.000    0.000 
#
# Total GULP energy -145190.945118 kJ/mol
# GULP energy per Si atom -5584.267120 kJ/mol
# Density = 1.739229 g / cm^3
# Si number density = 17.431962 Si / 1000 Ang^3
#
#
#
# Elastic Constant Matrix: (Units=GPa)
#
#
# Indices 1 2 3 4 5 6 
#
# 1 77.1171 58.1551 20.8771 0.0000 0.0000 0.0000
# 2 58.1551 133.3646 49.2369 0.0000 0.0000 0.0000
# 3 20.8771 49.2369 70.8306 0.0001 0.0000 0.0000
# 4 0.0000 0.0000 0.0001 -63.8026 0.0000 0.0000
# 5 0.0000 0.0000 0.0000 0.0000 16.8926 0.0000
# 6 0.0000 0.0000 0.0000 0.0000 0.0000 22.2711
#
#
#
# Elastic Compliance Matrix: (Units=1/GPa)
#
#
# Indices 1 2 3 4 5 6 
#
# 1 0.019323 -0.008506 0.000218 0.000000 0.000000 0.000000
# 2 -0.008506 0.013832 -0.007108 0.000000 0.000000 0.000000
# 3 0.000218 -0.007108 0.018995 0.000000 0.000000 0.000000
# 4 0.000000 0.000000 0.000000 -0.015673 0.000000 0.000000
# 5 0.000000 0.000000 0.000000 0.000000 0.059198 0.000000
# 6 0.000000 0.000000 0.000000 0.000000 0.000000 0.044901
#
#
# Mechanical properties :
#
#
# Convention : Reuss Voigt Hill
#
# Bulk Modulus (GPa) = 46.82334 59.76117 53.29226
# Shear Modulus (GPa) = 28.01327 5.27511 16.64419
#
# Velocity S-wave (km/s) = 4.01310 1.74146 3.09335
# Velocity P-wave (km/s) = 6.95645 6.19682 6.58759
#
# Compressibility (1/GPa) = 0.02135687
#
# Stress axis : x y z
#
# Youngs Moduli (GPa) = 51.75123 72.29794 52.64594
#
# Poissons Ratio (x) = 0.61500 -0.01146
# Poissons Ratio (y) = 0.44022 0.37419
# Poissons Ratio (z) = -0.01127 0.51387
#
# Static dielectric constant tensor:
#      x y z
#    x 1.624400 0.000000 0.000000 
#    y 0.000000 1.611850 0.000000 
#    z 0.000000 0.000000 1.582080 
# 
# From -- ./inp_files/25250.got.cif
#   From: 2010.05.17/outbox.cif.g08.bks.cpg/sg24_13_cif.got.tgz:25250.got - 2010.06.04 00:33:39.
