data_PCOD9333938
_publ_section_title
;
Structure prediction by ZEFSAII (Michael W. Deem and Ramdas Pophale) SiO2 
 PCOD9333938
Probable space group: I 21 21 21
;
_chemical_formula_sum "Si O2"
_cell_formula_units_Z 48
_cell_length_a 7.580336
_cell_length_b 9.897704
_cell_length_c 31.866426
_cell_angle_alpha 90.000000
_cell_angle_beta 90.000000
_cell_angle_gamma 90.000000
_cell_volume 2390.871723
_symmetry_space_group_name_H-M "I 21 21 21"
_symmetry_group_IT_number 24
_symmetry_cell_setting 'orthorhombic'
loop_
_space_group_symop_operation_xyz
x,y,z
-x,1/2-y,z
x,-y,1/2-z
1/2-x,y,-z
1/2+x,1/2+y,1/2+z
1/2-x,-y,1/2+z
1/2+x,1/2-y,-z
-x,1/2+y,1/2-z
loop_
_atom_site_type_symbol
_atom_site_label
_atom_site_fract_x
_atom_site_fract_y
_atom_site_fract_z
Si Si1 0.298130 0.028457 0.383305
Si Si2 0.788449 0.237278 0.856098
Si Si3 0.711211 0.024981 0.395649
Si Si4 0.288076 0.238038 0.451509
Si Si5 0.828618 0.155383 0.236177
Si Si6 0.787009 0.237292 0.323174
O O1 0.499693 0.007342 0.397730
O O2 0.218404 0.117887 0.421381
O O3 0.292523 0.129030 0.343751
O O4 0.219228 0.886168 0.368180
O O5 0.753513 0.179471 0.809443
O O6 0.000000 0.250000 0.859000
O O7 0.717669 0.124428 0.888230
O O8 0.778520 0.118005 0.433582
O O9 0.744707 0.114429 0.354190
O O10 0.500000 0.250000 0.446086
O O11 0.250000 0.216505 0.500000
O O12 0.721556 0.210873 0.276244
O O13 0.000000 0.250000 0.234286
O O14 0.868063 0.000000 0.250000
O O15 0.000000 0.250000 0.322557
#
# Coordination Sequence:
#
# PCOD9333938 Si02
#       6
#     8   8   8   8   8   8
#     4   9  20  35  56  79 105 140 174 222 270 315
#     4  10  21  37  57  79 104 143 187 226 264 311
#     4   9  18  37  55  77 107 137 176 221 269 311
#     4   9  18  34  56  80 106 135 169 216 266 324
#     4  11  24  38  52  76 113 148 182 227 273 314
#     4  10  20  33  52  75 103 144 184 217 262 315
#
# _framework density 20.076360000000001
#
# number of rings (size 3 to 8) (size 9 to 14) (size 15 to 20)
#    0.000    2.333    1.667    1.500    4.667    4.000 
#    0.000    0.833    0.000    0.000    0.000    0.000 
#    0.000    0.000    0.000    0.000    0.000    0.000 
#
# Total GULP energy -133719.424318 kJ/mol
# GULP energy per Si atom -5571.642680 kJ/mol
# Density = 2.003067 g / cm^3
# Si number density = 20.076360 Si / 1000 Ang^3
#
#
#
# Elastic Constant Matrix: (Units=GPa)
#
#
# Indices 1 2 3 4 5 6 
#
# 1 33.0560 2.6976 -11.1365 0.0000 0.0000 0.0000
# 2 2.6976 201.8045 70.6695 0.0000 0.0000 0.0000
# 3 -11.1365 70.6695 118.7308 0.0000 0.0000 0.0000
# 4 0.0000 0.0000 0.0000 115.9867 0.0000 0.0000
# 5 0.0000 0.0000 0.0000 0.0000 21.5083 0.0000
# 6 0.0000 0.0000 0.0000 0.0000 0.0000 13.6520
#
#
#
# Elastic Compliance Matrix: (Units=1/GPa)
#
#
# Indices 1 2 3 4 5 6 
#
# 1 0.031779 -0.001855 0.004085 0.000000 0.000000 0.000000
# 2 -0.001855 0.006368 -0.003965 0.000000 0.000000 0.000000
# 3 0.004085 -0.003965 0.011165 0.000000 0.000000 0.000000
# 4 0.000000 0.000000 0.000000 0.008622 0.000000 0.000000
# 5 0.000000 0.000000 0.000000 0.000000 0.046494 0.000000
# 6 0.000000 0.000000 0.000000 0.000000 0.000000 0.073249
#
#
# Mechanical properties :
#
#
# Convention : Reuss Voigt Hill
#
# Bulk Modulus (GPa) = 21.81332 53.11695 37.46514
# Shear Modulus (GPa) = 25.45456 49.65345 37.55401
#
# Velocity S-wave (km/s) = 3.56460 4.97855 4.32969
# Velocity P-wave (km/s) = 5.27547 7.71770 6.61035
#
# Compressibility (1/GPa) = 0.04584355
#
# Stress axis : x y z
#
# Youngs Moduli (GPa) = 31.46690 157.02438 89.56298
#
# Poissons Ratio (x) = 0.29134 -0.36588
# Poissons Ratio (y) = 0.05838 0.35508
# Poissons Ratio (z) = -0.12855 0.62253
#
# Static dielectric constant tensor:
#      x y z
#    x 1.658630 0.000000 0.000000 
#    y 0.000000 1.743480 0.000000 
#    z 0.000000 0.000000 1.709450 
# 
# From -- ./inp_files/38279.got.cif
#   From: 2010.05.17/outbox.cif.g08.bks.cpg/sg24_20_cif.got.tgz:38279.got - 2010.06.04 00:33:39.
