data_PCOD9333503
_publ_section_title
;
Structure prediction by ZEFSAII (Michael W. Deem and Ramdas Pophale) SiO2 
 PCOD9333503
Probable space group: I 21 21 21
;
_chemical_formula_sum "Si O2"
_cell_formula_units_Z 56
_cell_length_a 15.110483
_cell_length_b 14.929044
_cell_length_c 12.174108
_cell_angle_alpha 90.000000
_cell_angle_beta 90.000000
_cell_angle_gamma 90.000000
_cell_volume 2746.296951
_symmetry_space_group_name_H-M "I 21 21 21"
_symmetry_group_IT_number 24
_symmetry_cell_setting 'orthorhombic'
loop_
_space_group_symop_operation_xyz
x,y,z
-x,1/2-y,z
x,-y,1/2-z
1/2-x,y,-z
1/2+x,1/2+y,1/2+z
1/2-x,-y,1/2+z
1/2+x,1/2-y,-z
-x,1/2+y,1/2-z
loop_
_atom_site_type_symbol
_atom_site_label
_atom_site_fract_x
_atom_site_fract_y
_atom_site_fract_z
Si Si1 0.572965 0.828336 0.589114
Si Si2 0.351526 0.009059 0.630908
Si Si3 0.985413 0.006165 0.510792
Si Si4 0.185698 0.124851 0.823145
Si Si5 0.470272 0.000000 0.250000
Si Si6 0.750000 0.752497 0.500000
Si Si7 0.718370 0.708215 0.878101
Si Si8 0.937530 0.164501 0.341996
O O1 0.500000 0.750000 0.565464
O O2 0.675639 0.799076 0.576144
O O3 0.549702 0.858668 0.713721
O O4 0.563731 0.913324 0.510398
O O5 0.262773 0.948999 0.645901
O O6 0.396983 0.000000 0.750000
O O7 0.414226 0.984156 0.530660
O O8 0.333301 0.113585 0.615010
O O9 0.953232 0.084883 0.428428
O O10 0.980364 0.030827 0.639277
O O11 0.095223 0.076921 0.793939
O O12 0.188137 0.192014 0.923278
O O13 0.212300 0.182075 0.715686
O O14 0.659300 0.792031 0.845978
O O15 0.750000 0.725594 0.000000
O O16 0.000000 0.250000 0.368534
#
# Coordination Sequence:
#
# PCOD9333503 Si02
#       8
#     8   8   8   8   4   4   8   8
#     4  11  24  45  70 100 132 175 239 287 336 405
#     4  10  19  33  63  98 126 171 215 273 342 397
#     4  12  25  42  65  93 135 185 220 273 343 406
#     4  11  21  36  63 100 138 166 215 285 355 409
#     4  12  24  40  62 104 140 176 220 282 366 420
#     4  12  24  42  70 100 132 184 228 288 350 406
#     4  11  21  37  58  96 131 165 214 276 338 404
#     4  11  23  41  67  97 127 171 230 276 328 408
#
# _framework density 20.391093999999999
#
# number of rings (size 3 to 8) (size 9 to 14) (size 15 to 20)
#    0.000    0.857    5.000    4.714    5.000    0.000 
#    3.857    0.714    0.000    0.000    0.000    0.000 
#    0.000    0.000    0.000    0.000    0.000    0.000 
#
# Total GULP energy -156226.058889 kJ/mol
# GULP energy per Si atom -5579.502103 kJ/mol
# Density = 2.034468 g / cm^3
# Si number density = 20.391094 Si / 1000 Ang^3
#
#
#
# Elastic Constant Matrix: (Units=GPa)
#
#
# Indices 1 2 3 4 5 6 
#
# 1 38.4857 28.3004 15.8982 0.0000 0.0000 0.0000
# 2 28.3004 68.6400 36.0257 0.0000 0.0000 0.0000
# 3 15.8982 36.0257 126.6229 0.0000 0.0000 0.0000
# 4 0.0000 0.0000 0.0000 25.9149 0.0000 0.0000
# 5 0.0000 0.0000 0.0000 0.0000 34.0081 0.0000
# 6 0.0000 0.0000 0.0000 0.0000 0.0000 -5.2448
#
#
#
# Elastic Compliance Matrix: (Units=1/GPa)
#
#
# Indices 1 2 3 4 5 6 
#
# 1 0.037303 -0.015190 -0.000362 0.000000 0.000000 0.000000
# 2 -0.015190 0.023312 -0.004725 0.000000 0.000000 0.000000
# 3 -0.000362 -0.004725 0.009287 0.000000 0.000000 0.000000
# 4 0.000000 0.000000 0.000000 0.038588 0.000000 0.000000
# 5 0.000000 0.000000 0.000000 0.000000 0.029405 0.000000
# 6 0.000000 0.000000 0.000000 0.000000 0.000000 -0.190664
#
#
# Mechanical properties :
#
#
# Convention : Reuss Voigt Hill
#
# Bulk Modulus (GPa) = 34.07432 43.79970 38.93701
# Shear Modulus (GPa) = -2055.93547 21.17060 -1017.38243
#
# Velocity S-wave (km/s) = -31.78743 3.22565 -22.36108
# Velocity P-wave (km/s) = 36.47612 5.94975 25.44708
#
# Compressibility (1/GPa) = 0.02934761
#
# Stress axis : x y z
#
# Youngs Moduli (GPa) = 26.80722 42.89666 107.67417
#
# Poissons Ratio (x) = 0.65162 0.03896
# Poissons Ratio (y) = 0.40721 0.50879
# Poissons Ratio (z) = 0.00970 0.20270
#
# Static dielectric constant tensor:
#      x y z
#    x 1.823500 0.000000 0.000000 
#    y 0.000000 1.679790 0.000000 
#    z 0.000000 0.000000 1.748050 
# 
# From -- ./inp_files/20880.got.cif
#   From: 2010.05.17/outbox.cif.g08.bks.cpg/sg24_11_cif.got.tgz:20880.got - 2010.06.04 00:33:39.
