data_PCOD9333429
_publ_section_title
;
Structure prediction by ZEFSAII (Michael W. Deem and Ramdas Pophale) SiO2 
 PCOD9333429
Probable space group: I 21 21 21
;
_chemical_formula_sum "Si O2"
_cell_formula_units_Z 48
_cell_length_a 11.688543
_cell_length_b 25.944979
_cell_length_c 8.171667
_cell_angle_alpha 90.000000
_cell_angle_beta 90.000000
_cell_angle_gamma 90.000000
_cell_volume 2478.131585
_symmetry_space_group_name_H-M "I 21 21 21"
_symmetry_group_IT_number 24
_symmetry_cell_setting 'orthorhombic'
loop_
_space_group_symop_operation_xyz
x,y,z
-x,1/2-y,z
x,-y,1/2-z
1/2-x,y,-z
1/2+x,1/2+y,1/2+z
1/2-x,-y,1/2+z
1/2+x,1/2-y,-z
-x,1/2+y,1/2-z
loop_
_atom_site_type_symbol
_atom_site_label
_atom_site_fract_x
_atom_site_fract_y
_atom_site_fract_z
Si Si1 0.543349 0.118275 0.592174
Si Si2 0.098049 0.096070 0.849766
Si Si3 0.976293 0.190150 0.701031
Si Si4 0.629163 0.943890 0.203934
Si Si5 0.655764 0.561431 0.718547
Si Si6 0.243081 0.652363 0.315288
O O1 0.496408 0.161994 0.469887
O O2 0.620167 0.078927 0.480536
O O3 0.440301 0.085924 0.666630
O O4 0.621684 0.146241 0.727964
O O5 0.219610 0.087601 0.761759
O O6 0.045402 0.153983 0.831223
O O7 0.001002 0.061565 0.766120
O O8 0.116764 0.076045 0.033906
O O9 0.839177 0.183660 0.717399
O O10 0.000000 0.250000 0.711717
O O11 0.704531 0.904826 0.308890
O O12 0.670754 0.000000 0.250000
O O13 0.664558 0.500000 0.750000
O O14 0.250000 0.671598 0.500000
#
# Coordination Sequence:
#
# PCOD9333429 Si02
#       6
#     8   8   8   8   8   8
#     4  10  21  38  57  88 120 151 203 248 295 378
#     4   9  21  38  55  86 126 156 209 248 297 369
#     4  10  22  43  63  83 114 159 207 264 312 349
#     4  10  19  32  55  83 118 159 196 239 291 350
#     4  11  21  36  61  91 129 165 195 248 310 372
#     4  10  21  39  59  83 119 150 192 250 295 362
#
# _framework density 19.369430000000001
#
# number of rings (size 3 to 8) (size 9 to 14) (size 15 to 20)
#    0.000    2.333    0.000    5.500    0.000    8.667 
#    9.000    1.667    0.000    0.000    0.000    0.000 
#    0.000    0.000    0.000    0.000    0.000    0.000 
#
# Total GULP energy -133762.104948 kJ/mol
# GULP energy per Si atom -5573.421040 kJ/mol
# Density = 1.932534 g / cm^3
# Si number density = 19.369430 Si / 1000 Ang^3
#
#
#
# Elastic Constant Matrix: (Units=GPa)
#
#
# Indices 1 2 3 4 5 6 
#
# 1 57.4133 8.6887 8.9451 0.0000 0.0005 0.0003
# 2 8.6887 133.2194 7.6578 0.0008 -0.0001 -0.0002
# 3 8.9451 7.6578 65.9405 0.0038 -0.0013 -0.0011
# 4 0.0000 0.0008 0.0038 9.9502 -0.0011 -0.0009
# 5 0.0005 -0.0001 -0.0013 -0.0011 32.0612 0.0005
# 6 0.0003 -0.0002 -0.0011 -0.0009 0.0005 8.7118
#
#
#
# Elastic Compliance Matrix: (Units=1/GPa)
#
#
# Indices 1 2 3 4 5 6 
#
# 1 0.017935 -0.001037 -0.002313 0.000001 0.000000 -0.000001
# 2 -0.001037 0.007617 -0.000744 0.000000 0.000000 0.000000
# 3 -0.002313 -0.000744 0.015565 -0.000006 0.000001 0.000002
# 4 0.000001 0.000000 -0.000006 0.100500 0.000003 0.000010
# 5 0.000000 0.000000 0.000001 0.000003 0.031190 -0.000002
# 6 -0.000001 0.000000 0.000002 0.000010 -0.000002 0.114787
#
#
# Mechanical properties :
#
#
# Convention : Reuss Voigt Hill
#
# Bulk Modulus (GPa) = 30.36708 34.12849 32.24779
# Shear Modulus (GPa) = 16.29950 25.56341 20.93146
#
# Velocity S-wave (km/s) = 2.90402 3.63682 3.29088
# Velocity P-wave (km/s) = 5.19195 5.94082 5.57896
#
# Compressibility (1/GPa) = 0.03293039
#
# Stress axis : x y z
#
# Youngs Moduli (GPa) = 55.75759 131.28875 64.24555
#
# Poissons Ratio (x) = 0.13612 0.14857
# Poissons Ratio (y) = 0.05781 0.04779
# Poissons Ratio (z) = 0.12894 0.09767
#
# Static dielectric constant tensor:
#      x y z
#    x 1.698890 0.000000 0.000000 
#    y 0.000000 1.679390 0.000000 
#    z 0.000000 0.000000 1.741330 
# 
# From -- ./inp_files/11403.got.cif
#   From: 2010.05.17/outbox.cif.g08.bks.cpg/sg24_6_cif.got.tgz:11403.got - 2010.06.04 00:33:39.
