data_PCOD9333353
_publ_section_title
;
Structure prediction by ZEFSAII (Michael W. Deem and Ramdas Pophale) SiO2 
 PCOD9333353
Probable space group: I 21 21 21
;
_chemical_formula_sum "Si O2"
_cell_formula_units_Z 40
_cell_length_a 4.879433
_cell_length_b 15.233297
_cell_length_c 25.151366
_cell_angle_alpha 90.000000
_cell_angle_beta 90.000000
_cell_angle_gamma 90.000000
_cell_volume 1869.497314
_symmetry_space_group_name_H-M "I 21 21 21"
_symmetry_group_IT_number 24
_symmetry_cell_setting 'orthorhombic'
loop_
_space_group_symop_operation_xyz
x,y,z
-x,1/2-y,z
x,-y,1/2-z
1/2-x,y,-z
1/2+x,1/2+y,1/2+z
1/2-x,-y,1/2+z
1/2+x,1/2-y,-z
-x,1/2+y,1/2-z
loop_
_atom_site_type_symbol
_atom_site_label
_atom_site_fract_x
_atom_site_fract_y
_atom_site_fract_z
Si Si1 0.203465 0.829186 0.675051
Si Si2 0.992654 0.158480 0.539220
Si Si3 0.193138 0.438633 0.199529
Si Si4 0.707549 0.625839 0.443507
Si Si5 0.303929 0.513138 0.582354
O O1 0.492032 0.853806 0.701858
O O2 0.266742 0.824031 0.611667
O O3 0.000000 0.750000 0.689137
O O4 0.007223 0.911091 0.689714
O O5 0.250000 0.138144 0.500000
O O6 0.000000 0.250000 0.572918
O O7 0.750000 0.183856 0.500000
O O8 0.635185 0.074195 0.431578
O O9 0.161444 0.500000 0.250000
O O10 0.120395 0.486828 0.144389
O O11 0.750000 0.672418 0.500000
O O12 0.401372 0.591425 0.433916
O O13 0.914092 0.541781 0.445711
#
# Coordination Sequence:
#
# PCOD9333353 Si02
#       5
#     8   8   8   8   8
#     4  10  21  38  59  85 116 147 183 231 285 339
#     4  10  19  30  47  73 107 145 181 224 278 328
#     4  10  21  38  60  83 108 145 191 235 282 334
#     4  10  19  32  53  81 111 146 182 218 270 338
#     4  10  19  32  52  76 106 143 188 232 271 331
#
# _framework density 21.396124
#
# number of rings (size 3 to 8) (size 9 to 14) (size 15 to 20)
#    0.000    2.000    0.000    4.800    0.000    0.000 
#    0.000    7.000    0.000    9.600    0.000    0.000 
#    0.000    0.000    0.000    0.000    0.000    0.000 
#
# Total GULP energy -111351.667458 kJ/mol
# GULP energy per Si atom -5567.583373 kJ/mol
# Density = 2.134743 g / cm^3
# Si number density = 21.396124 Si / 1000 Ang^3
#
#
#
# Elastic Constant Matrix: (Units=GPa)
#
#
# Indices 1 2 3 4 5 6 
#
# 1 140.1799 21.0665 24.2637 0.0000 0.0000 0.0000
# 2 21.0665 63.7965 11.7464 0.0000 0.0000 0.0000
# 3 24.2637 11.7464 105.6601 0.0000 0.0000 0.0000
# 4 0.0000 0.0000 0.0000 3.8187 0.0000 0.0000
# 5 0.0000 0.0000 0.0000 0.0000 20.1956 0.0000
# 6 0.0000 0.0000 0.0000 0.0000 0.0000 40.2310
#
#
#
# Elastic Compliance Matrix: (Units=1/GPa)
#
#
# Indices 1 2 3 4 5 6 
#
# 1 0.007739 -0.002275 -0.001524 0.000000 0.000000 0.000000
# 2 -0.002275 0.016671 -0.001331 0.000000 0.000000 0.000000
# 3 -0.001524 -0.001331 0.009962 0.000000 0.000000 0.000000
# 4 0.000000 0.000000 0.000000 0.261869 0.000000 0.000000
# 5 0.000000 0.000000 0.000000 0.000000 0.049516 0.000000
# 6 0.000000 0.000000 0.000000 0.000000 0.000000 0.024856
#
#
# Mechanical properties :
#
#
# Convention : Reuss Voigt Hill
#
# Bulk Modulus (GPa) = 41.47258 47.08775 44.28017
# Shear Modulus (GPa) = 12.85637 29.68639 21.27138
#
# Velocity S-wave (km/s) = 2.45393 3.72891 3.15647
# Velocity P-wave (km/s) = 5.23969 6.37143 5.83307
#
# Compressibility (1/GPa) = 0.02411231
#
# Stress axis : x y z
#
# Youngs Moduli (GPa) = 129.20845 59.98396 100.37821
#
# Poissons Ratio (x) = 0.13646 0.15301
# Poissons Ratio (y) = 0.29395 0.13360
# Poissons Ratio (z) = 0.19696 0.07983
#
# Static dielectric constant tensor:
#      x y z
#    x 1.745200 0.000000 0.000000 
#    y 0.000000 1.990080 0.000000 
#    z 0.000000 0.000000 1.761470 
# 
# From -- ./inp_files/34621.got.cif
#   From: 2010.05.17/outbox.cif.g08.bks.cpg/sg24_18_cif.got.tgz:34621.got - 2010.06.04 00:33:39.
