data_PCOD9333664
_publ_section_title
;
Structure prediction by ZEFSAII (Michael W. Deem and Ramdas Pophale) SiO2 
 PCOD9333664
Probable space group: I 21 21 21
;
_chemical_formula_sum "Si O2"
_cell_formula_units_Z 64
_cell_length_a 24.819315
_cell_length_b 15.790553
_cell_length_c 7.868932
_cell_angle_alpha 90.000000
_cell_angle_beta 90.000000
_cell_angle_gamma 90.000000
_cell_volume 3083.918719
_symmetry_space_group_name_H-M "I 21 21 21"
_symmetry_group_IT_number 24
_symmetry_cell_setting 'orthorhombic'
loop_
_space_group_symop_operation_xyz
x,y,z
-x,1/2-y,z
x,-y,1/2-z
1/2-x,y,-z
1/2+x,1/2+y,1/2+z
1/2-x,-y,1/2+z
1/2+x,1/2-y,-z
-x,1/2+y,1/2-z
loop_
_atom_site_type_symbol
_atom_site_label
_atom_site_fract_x
_atom_site_fract_y
_atom_site_fract_z
Si Si1 0.938228 0.252293 0.208027
Si Si2 0.750000 0.677638 0.806215
Si Si3 0.061772 0.752293 0.708027
Si Si4 0.138423 0.903921 0.702976
Si Si5 0.361577 0.903921 0.702976
Si Si6 0.250000 0.365588 0.195736
Si Si7 0.632530 0.907010 0.295228
Si Si8 0.132530 0.407010 0.204772
O O1 0.905978 0.336112 0.262293
O O2 0.905025 0.169644 0.264526
O O3 0.000000 0.250000 0.264471
O O4 0.938604 0.252126 1.000000
O O5 0.803366 0.623426 0.772857
O O6 0.696634 0.623426 0.772857
O O7 0.750000 0.763456 0.697604
O O8 0.750000 0.706713 0.000000
O O9 0.094022 0.836112 0.762293
O O10 0.094975 0.669644 0.764526
O O11 0.000000 0.750000 0.764471
O O12 0.141797 0.897556 0.500000
O O13 0.125453 0.000000 0.750000
O O14 0.374547 0.000000 0.750000
O O15 0.306401 0.396090 0.273028
O O16 0.193599 0.396090 0.273028
O O17 0.250000 0.394854 0.000000
O O18 0.634959 0.899643 0.500000
O O19 0.612091 0.000000 0.250000
O O20 0.112091 0.500000 0.250000
#
# Coordination Sequence:
#
# PCOD9333664 Si02
#       8
#     8   8   8   8   8   8   8   8
#     4   9  19  37  60  83 112 154 196 234 282 339
#     4  12  23  36  59  89 118 149 191 239 292 347
#     4   9  19  37  60  83 112 154 196 234 282 339
#     4  11  22  39  61  86 119 154 193 237 287 346
#     4  11  22  39  61  86 119 154 193 237 287 346
#     4  10  19  36  58  83 114 153 188 227 288 347
#     4  10  20  35  57  84 115 149 187 229 281 338
#     4  10  20  35  57  84 115 149 187 229 281 338
#
# _framework density 20.752815999999999
#
# number of rings (size 3 to 8) (size 9 to 14) (size 15 to 20)
#    0.000    1.750    2.500    2.625    0.000    2.000 
#    0.000    0.000    0.000    5.250    0.000    0.000 
#    0.000    0.000    0.000    0.000    0.000    0.000 
#
# Total GULP energy -178832.454675 kJ/mol
# GULP energy per Si atom -5588.514209 kJ/mol
# Density = 2.070558 g / cm^3
# Si number density = 20.752816 Si / 1000 Ang^3
#
#
#
# Elastic Constant Matrix: (Units=GPa)
#
#
# Indices 1 2 3 4 5 6 
#
# 1 179.2800 90.9882 9.8554 0.0000 0.0000 0.0000
# 2 90.9882 175.6442 -11.7717 0.0000 0.0000 0.0000
# 3 9.8554 -11.7717 33.0025 0.0000 0.0000 0.0000
# 4 0.0000 0.0000 0.0000 24.4706 0.0000 0.0000
# 5 0.0000 0.0000 0.0000 0.0000 -8.8137 0.0000
# 6 0.0000 0.0000 0.0000 0.0000 0.0000 6.4538
#
#
#
# Elastic Compliance Matrix: (Units=1/GPa)
#
#
# Indices 1 2 3 4 5 6 
#
# 1 0.008049 -0.004437 -0.003986 0.000000 0.000000 0.000000
# 2 -0.004437 0.008278 0.004278 0.000000 0.000000 0.000000
# 3 -0.003986 0.004278 0.033017 0.000000 0.000000 0.000000
# 4 0.000000 0.000000 0.000000 0.040865 0.000000 0.000000
# 5 0.000000 0.000000 0.000000 0.000000 -0.113460 0.000000
# 6 0.000000 0.000000 0.000000 0.000000 0.000000 0.154947
#
#
# Mechanical properties :
#
#
# Convention : Reuss Voigt Hill
#
# Bulk Modulus (GPa) = 24.35818 62.89671 43.62744
# Shear Modulus (GPa) = 32.53727 24.34581 28.44154
#
# Velocity S-wave (km/s) = 3.96390 3.42882 3.70603
# Velocity P-wave (km/s) = 5.71951 6.78595 6.27542
#
# Compressibility (1/GPa) = 0.04105397
#
# Stress axis : x y z
#
# Youngs Moduli (GPa) = 124.24504 120.79842 30.28756
#
# Poissons Ratio (x) = 0.53593 0.12073
# Poissons Ratio (y) = 0.55122 -0.12956
# Poissons Ratio (z) = 0.49524 -0.51673
#
# Static dielectric constant tensor:
#      x y z
#    x 1.722960 0.000000 0.000000 
#    y 0.000000 1.744590 0.000000 
#    z 0.000000 0.000000 1.751090 
# 
# From -- ./inp_files/16032.got.cif
#   From: 2010.05.17/outbox.cif.g08.bks.cpg/sg24_9_cif.got.tgz:16032.got - 2010.06.04 00:33:39.
