data_PCOD9333413
_publ_section_title
;
Structure prediction by ZEFSAII (Michael W. Deem and Ramdas Pophale) SiO2 
 PCOD9333413
Probable space group: I 21 21 21
;
_chemical_formula_sum "Si O2"
_cell_formula_units_Z 40
_cell_length_a 28.434404
_cell_length_b 8.404059
_cell_length_c 7.182915
_cell_angle_alpha 90.000000
_cell_angle_beta 90.000000
_cell_angle_gamma 90.000000
_cell_volume 1716.461037
_symmetry_space_group_name_H-M "I 21 21 21"
_symmetry_group_IT_number 24
_symmetry_cell_setting 'orthorhombic'
loop_
_space_group_symop_operation_xyz
x,y,z
-x,1/2-y,z
x,-y,1/2-z
1/2-x,y,-z
1/2+x,1/2+y,1/2+z
1/2-x,-y,1/2+z
1/2+x,1/2-y,-z
-x,1/2+y,1/2-z
loop_
_atom_site_type_symbol
_atom_site_label
_atom_site_fract_x
_atom_site_fract_y
_atom_site_fract_z
Si Si1 0.450368 0.686508 0.781152
Si Si2 0.450511 0.310985 0.277787
Si Si3 0.251763 0.310826 0.720957
Si Si4 0.148967 0.812574 0.215604
Si Si5 0.349482 0.692992 0.216287
O O1 0.500000 0.750000 0.706409
O O2 0.450177 0.500000 0.750000
O O3 0.400673 0.749532 0.706643
O O4 0.450533 0.723863 0.001534
O O5 0.500000 0.250000 0.201495
O O6 0.450409 0.500000 0.250000
O O7 0.399886 0.248046 0.207987
O O8 0.252690 0.500000 0.750000
O O9 0.250000 0.279113 0.500000
O O10 0.301134 0.247153 0.794852
O O11 0.201036 0.249160 0.791537
O O12 0.148319 0.000000 0.250000
O O13 0.149856 0.744342 0.002092
O O14 0.349374 0.500000 0.250000
#
# Coordination Sequence:
#
# PCOD9333413 Si02
#       5
#     8   8   8   8   8
#     4  10  20  34  53  77 107 143 182 227 280 337
#     4   9  18  33  52  74 100 133 175 220 264 320
#     4   9  17  32  54  76 101 141 188 227 271 337
#     4  10  19  32  52  81 113 141 179 235 290 339
#     4   8  16  33  55  74 102 146 189 225 272 341
#
# _framework density 23.303761000000002
#
# number of rings (size 3 to 8) (size 9 to 14) (size 15 to 20)
#    0.000    2.800    0.000    1.200    0.000    0.800 
#    0.000    4.000    0.000    0.000    0.000    0.000 
#    0.000    0.000    0.000    0.000    0.000    0.000 
#
# Total GULP energy -111447.415164 kJ/mol
# GULP energy per Si atom -5572.370758 kJ/mol
# Density = 2.325072 g / cm^3
# Si number density = 23.303761 Si / 1000 Ang^3
#
#
#
# Elastic Constant Matrix: (Units=GPa)
#
#
# Indices 1 2 3 4 5 6 
#
# 1 372.1324 75.8563 20.5484 0.0000 0.0000 0.0000
# 2 75.8563 69.9510 -0.5504 0.0000 0.0000 0.0000
# 3 20.5484 -0.5504 139.2220 0.0000 0.0000 0.0000
# 4 0.0000 0.0000 0.0000 10.4528 0.0000 0.0000
# 5 0.0000 0.0000 0.0000 0.0000 -17.9232 0.0000
# 6 0.0000 0.0000 0.0000 0.0000 0.0000 35.9003
#
#
#
# Elastic Compliance Matrix: (Units=1/GPa)
#
#
# Indices 1 2 3 4 5 6 
#
# 1 0.003488 -0.003787 -0.000530 0.000000 0.000000 0.000000
# 2 -0.003787 0.018408 0.000632 0.000000 0.000000 0.000000
# 3 -0.000530 0.000632 0.007263 0.000000 0.000000 0.000000
# 4 0.000000 0.000000 0.000000 0.095668 0.000000 0.000000
# 5 0.000000 0.000000 0.000000 0.000000 -0.055794 0.000000
# 6 0.000000 0.000000 0.000000 0.000000 0.000000 0.027855
#
#
# Mechanical properties :
#
#
# Convention : Reuss Voigt Hill
#
# Bulk Modulus (GPa) = 45.89480 85.89046 65.89263
# Shear Modulus (GPa) = 44.83406 38.04938 41.44172
#
# Velocity S-wave (km/s) = 4.39098 4.04512 4.22160
# Velocity P-wave (km/s) = 6.74126 7.66513 7.21799
#
# Compressibility (1/GPa) = 0.02178896
#
# Stress axis : x y z
#
# Youngs Moduli (GPa) = 286.66064 54.32568 137.67518
#
# Poissons Ratio (x) = 0.20574 0.07295
# Poissons Ratio (y) = 1.08562 -0.08697
# Poissons Ratio (z) = 0.15189 -0.03432
#
# Static dielectric constant tensor:
#      x y z
#    x 2.018750 0.000000 0.000000 
#    y 0.000000 1.786690 0.000000 
#    z 0.000000 0.000000 1.879980 
# 
# From -- ./inp_files/16251.got.cif
#   From: 2010.05.17/outbox.cif.g08.bks.cpg/sg24_9_cif.got.tgz:16251.got - 2010.06.04 00:33:39.
