data_PCOD9333529
_publ_section_title
;
Structure prediction by ZEFSAII (Michael W. Deem and Ramdas Pophale) SiO2 
 PCOD9333529
Probable space group: I 21 21 21
;
_chemical_formula_sum "Si O2"
_cell_formula_units_Z 64
_cell_length_a 27.768482
_cell_length_b 13.093733
_cell_length_c 9.150685
_cell_angle_alpha 90.000000
_cell_angle_beta 90.000000
_cell_angle_gamma 90.000000
_cell_volume 3327.125827
_symmetry_space_group_name_H-M "I 21 21 21"
_symmetry_group_IT_number 24
_symmetry_cell_setting 'orthorhombic'
loop_
_space_group_symop_operation_xyz
x,y,z
-x,1/2-y,z
x,-y,1/2-z
1/2-x,y,-z
1/2+x,1/2+y,1/2+z
1/2-x,-y,1/2+z
1/2+x,1/2-y,-z
-x,1/2+y,1/2-z
loop_
_atom_site_type_symbol
_atom_site_label
_atom_site_fract_x
_atom_site_fract_y
_atom_site_fract_z
Si Si1 0.995716 0.025967 0.423091
Si Si2 0.805444 0.750970 0.493895
Si Si3 0.698864 0.009553 0.072979
Si Si4 0.539605 0.322426 0.942248
Si Si5 0.111530 0.152339 0.841909
Si Si6 0.388298 0.422387 0.610384
Si Si7 0.596915 0.423282 0.471392
Si Si8 0.372867 0.195085 0.730373
O O1 0.942106 0.062777 0.453208
O O2 0.042023 0.090575 0.471725
O O3 0.998230 0.000000 0.250000
O O4 0.008326 0.917741 0.495710
O O5 0.750000 0.722194 0.500000
O O6 0.808591 0.872658 0.521947
O O7 0.837223 0.697171 0.617159
O O8 0.829319 0.714777 0.341892
O O9 0.700969 0.000000 0.250000
O O10 0.750000 0.976816 0.000000
O O11 0.654214 0.948089 0.003004
O O12 0.500000 0.250000 0.873246
O O13 0.581475 0.342450 0.825899
O O14 0.569902 0.281242 0.079504
O O15 0.104218 0.143796 0.671520
O O16 0.106016 0.039543 0.916752
O O17 0.383762 0.500000 0.750000
O O18 0.384381 0.306420 0.665139
O O19 0.631745 0.386562 0.600919
#
# Coordination Sequence:
#
# PCOD9333529 Si02
#       8
#     8   8   8   8   8   8   8   8
#     4  10  19  34  58  86 127 165 205 249 298 366
#     4  10  23  43  66  93 122 159 207 261 316 377
#     4  11  25  44  66  89 124 167 208 256 326 377
#     4  10  19  34  56  84 117 166 205 247 304 365
#     4   9  22  41  61  86 126 163 204 253 315 372
#     4  11  22  39  59  94 129 160 213 265 300 367
#     4  10  21  41  60  91 125 169 204 250 312 377
#     4  11  22  37  65  91 124 162 210 257 309 371
#
# _framework density 19.235823
#
# number of rings (size 3 to 8) (size 9 to 14) (size 15 to 20)
#    0.000    1.750    2.500    1.875    5.250    0.000 
#    6.750    3.125    0.000    0.000    0.000    0.000 
#    0.000    0.000    0.000    0.000    0.000    0.000 
#
# Total GULP energy -178383.331053 kJ/mol
# GULP energy per Si atom -5574.479095 kJ/mol
# Density = 1.919204 g / cm^3
# Si number density = 19.235823 Si / 1000 Ang^3
#
#
#
# Elastic Constant Matrix: (Units=GPa)
#
#
# Indices 1 2 3 4 5 6 
#
# 1 160.1743 28.5859 57.7075 0.0000 0.0000 0.0000
# 2 28.5859 21.6398 13.7644 0.0000 0.0000 0.0000
# 3 57.7075 13.7644 114.8210 0.0000 0.0000 0.0000
# 4 0.0000 0.0000 0.0000 25.3303 0.0000 0.0000
# 5 0.0000 0.0000 0.0000 0.0000 19.4197 0.0000
# 6 0.0000 0.0000 0.0000 0.0000 0.0000 23.0307
#
#
#
# Elastic Compliance Matrix: (Units=1/GPa)
#
#
# Indices 1 2 3 4 5 6 
#
# 1 0.009286 -0.010066 -0.003461 0.000000 0.000000 0.000000
# 2 -0.010066 0.060937 -0.002246 0.000000 0.000000 0.000000
# 3 -0.003461 -0.002246 0.010718 0.000000 0.000000 0.000000
# 4 0.000000 0.000000 0.000000 0.039478 0.000000 0.000000
# 5 0.000000 0.000000 0.000000 0.000000 0.051494 0.000000
# 6 0.000000 0.000000 0.000000 0.000000 0.000000 0.043420
#
#
# Mechanical properties :
#
#
# Convention : Reuss Voigt Hill
#
# Bulk Modulus (GPa) = 20.24453 55.19451 37.71952
# Shear Modulus (GPa) = 18.98655 26.66129 22.82392
#
# Velocity S-wave (km/s) = 3.14513 3.72697 3.44834
# Velocity P-wave (km/s) = 4.87200 6.87578 5.95872
#
# Compressibility (1/GPa) = 0.04939606
#
# Stress axis : x y z
#
# Youngs Moduli (GPa) = 107.68397 16.41040 93.30400
#
# Poissons Ratio (x) = 0.16519 0.32288
# Poissons Ratio (y) = 1.08396 0.20955
# Poissons Ratio (z) = 0.37264 0.03686
#
# Static dielectric constant tensor:
#      x y z
#    x 1.655700 0.000000 0.000000 
#    y 0.000000 1.733320 0.000000 
#    z 0.000000 0.000000 1.713330 
# 
# From -- ./inp_files/16036.got.cif
#   From: 2010.05.17/outbox.cif.g08.bks.cpg/sg24_9_cif.got.tgz:16036.got - 2010.06.04 00:33:39.
