data_PCOD9333262
_publ_section_title
;
Structure prediction by ZEFSAII (Michael W. Deem and Ramdas Pophale) SiO2 
 PCOD9333262
Probable space group: I 21 21 21
;
_chemical_formula_sum "Si O2"
_cell_formula_units_Z 52
_cell_length_a 25.220387
_cell_length_b 20.365483
_cell_length_c 5.247119
_cell_angle_alpha 90.000000
_cell_angle_beta 90.000000
_cell_angle_gamma 90.000000
_cell_volume 2695.053400
_symmetry_space_group_name_H-M "I 21 21 21"
_symmetry_group_IT_number 24
_symmetry_cell_setting 'orthorhombic'
loop_
_space_group_symop_operation_xyz
x,y,z
-x,1/2-y,z
x,-y,1/2-z
1/2-x,y,-z
1/2+x,1/2+y,1/2+z
1/2-x,-y,1/2+z
1/2+x,1/2-y,-z
-x,1/2+y,1/2-z
loop_
_atom_site_type_symbol
_atom_site_label
_atom_site_fract_x
_atom_site_fract_y
_atom_site_fract_z
Si Si1 0.695416 0.790302 0.601950
Si Si2 0.436890 0.251573 0.476253
Si Si3 0.391921 0.042416 0.998748
Si Si4 0.018446 0.457971 0.002051
Si Si5 0.250000 0.194951 0.500000
Si Si6 0.849029 0.669273 0.726524
Si Si7 0.412259 0.328745 0.977853
O O1 0.750000 0.819602 0.500000
O O2 0.670970 0.735244 0.413674
O O3 0.647931 0.841643 0.615318
O O4 0.713734 0.745565 0.837279
O O5 0.500000 0.250000 0.429549
O O6 0.400136 0.188431 0.402570
O O7 0.429670 0.273669 0.769344
O O8 0.416074 0.304296 0.269464
O O9 0.455292 0.054368 0.999120
O O10 0.364890 0.112927 0.030215
O O11 0.379476 0.000000 0.250000
O O12 0.378386 0.000000 0.750000
O O13 0.031510 0.500000 0.750000
O O14 0.030735 0.500000 0.250000
O O15 0.049730 0.390619 0.030193
O O16 0.294758 0.150576 0.369534
#
# Coordination Sequence:
#
# PCOD9333262 Si02
#       7
#     8   8   8   8   4   8   8
#     4   9  20  36  59  86 118 152 193 245 306 363
#     4  11  22  34  56  93 125 150 187 249 312 367
#     4  10  23  38  60  84 115 161 207 244 292 352
#     4  10  21  39  58  84 120 161 199 240 289 354
#     4  10  18  38  60  84 116 154 198 240 318 354
#     4  10  21  36  60  84 119 157 195 249 302 357
#     4  11  21  37  58  89 118 157 198 237 301 372
#
# _framework density 19.294606999999999
#
# number of rings (size 3 to 8) (size 9 to 14) (size 15 to 20)
#    0.000    1.846    1.538    2.308    2.154    3.692 
#    0.000    0.000    5.077    0.923    0.000    0.000 
#    0.000    0.000    0.000    0.000    0.000    0.000 
#
# Total GULP energy -144873.186443 kJ/mol
# GULP energy per Si atom -5572.045632 kJ/mol
# Density = 1.925069 g / cm^3
# Si number density = 19.294607 Si / 1000 Ang^3
#
#
#
# Elastic Constant Matrix: (Units=GPa)
#
#
# Indices 1 2 3 4 5 6 
#
# 1 79.9318 14.7540 22.6933 0.0000 0.0000 0.0000
# 2 14.7540 41.8093 14.5329 0.0000 0.0000 0.0000
# 3 22.6933 14.5329 85.8404 0.0000 0.0000 0.0000
# 4 0.0000 0.0000 0.0000 20.0345 0.0000 0.0000
# 5 0.0000 0.0000 0.0000 0.0000 23.0940 0.0000
# 6 0.0000 0.0000 0.0000 0.0000 0.0000 19.3550
#
#
#
# Elastic Compliance Matrix: (Units=1/GPa)
#
#
# Indices 1 2 3 4 5 6 
#
# 1 0.014103 -0.003911 -0.003066 0.000000 0.000000 0.000000
# 2 -0.003911 0.026498 -0.003452 0.000000 0.000000 0.000000
# 3 -0.003066 -0.003452 0.013045 0.000000 0.000000 0.000000
# 4 0.000000 0.000000 0.000000 0.049914 0.000000 0.000000
# 5 0.000000 0.000000 0.000000 0.000000 0.043301 0.000000
# 6 0.000000 0.000000 0.000000 0.000000 0.000000 0.051666
#
#
# Mechanical properties :
#
#
# Convention : Reuss Voigt Hill
#
# Bulk Modulus (GPa) = 30.49992 34.61578 32.55785
# Shear Modulus (GPa) = 21.70938 22.87013 22.28976
#
# Velocity S-wave (km/s) = 3.35797 3.44657 3.40256
# Velocity P-wave (km/s) = 5.55665 5.81533 5.68746
#
# Compressibility (1/GPa) = 0.03278697
#
# Stress axis : x y z
#
# Youngs Moduli (GPa) = 70.90643 37.73836 76.65996
#
# Poissons Ratio (x) = 0.14759 0.23506
# Poissons Ratio (y) = 0.27731 0.26465
# Poissons Ratio (z) = 0.21742 0.13028
#
# Static dielectric constant tensor:
#      x y z
#    x 1.756370 0.000000 0.000000 
#    y 0.000000 1.652900 0.000000 
#    z 0.000000 0.000000 1.743440 
# 
# From -- ./inp_files/5677.got.cif
#   From: 2010.05.17/outbox.cif.g08.bks.cpg/sg24_3_cif.got.tgz:5677.got - 2010.06.04 00:33:39.
