data_PCOD9333597
_publ_section_title
;
Structure prediction by ZEFSAII (Michael W. Deem and Ramdas Pophale) SiO2 
 PCOD9333597
Probable space group: I 21 21 21
;
_chemical_formula_sum "Si O2"
_cell_formula_units_Z 64
_cell_length_a 9.275360
_cell_length_b 22.019782
_cell_length_c 17.753845
_cell_angle_alpha 90.000000
_cell_angle_beta 90.000000
_cell_angle_gamma 90.000000
_cell_volume 3626.070250
_symmetry_space_group_name_H-M "I 21 21 21"
_symmetry_group_IT_number 24
_symmetry_cell_setting 'orthorhombic'
loop_
_space_group_symop_operation_xyz
x,y,z
-x,1/2-y,z
x,-y,1/2-z
1/2-x,y,-z
1/2+x,1/2+y,1/2+z
1/2-x,-y,1/2+z
1/2+x,1/2-y,-z
-x,1/2+y,1/2-z
loop_
_atom_site_type_symbol
_atom_site_label
_atom_site_fract_x
_atom_site_fract_y
_atom_site_fract_z
Si Si1 0.169556 0.445156 0.578183
Si Si2 0.673291 0.613930 0.783533
Si Si3 0.162304 0.087952 0.865480
Si Si4 0.141189 0.550411 0.686059
Si Si5 0.830771 0.451331 0.577432
Si Si6 0.665535 0.876724 0.791514
Si Si7 0.830702 0.252257 0.226595
Si Si8 0.661593 0.723413 0.424685
O O1 0.250000 0.439925 0.500000
O O2 0.184040 0.512888 0.612472
O O3 0.245269 0.401383 0.638168
O O4 0.998986 0.434009 0.572517
O O5 0.723246 0.587341 0.702921
O O6 0.759828 0.582457 0.851097
O O7 0.502819 0.607680 0.797704
O O8 0.700852 0.685886 0.771870
O O9 0.170521 0.150015 0.912920
O O10 0.003034 0.087702 0.828631
O O11 0.176586 0.024307 0.909177
O O12 0.105624 0.500000 0.750000
O O13 0.269688 0.590008 0.718366
O O14 0.750000 0.436178 0.500000
O O15 0.690129 0.805808 0.778934
O O16 0.736130 0.250743 0.151081
O O17 0.000000 0.250000 0.204397
O O18 0.500000 0.750000 0.429978
O O19 0.750000 0.739241 0.500000
#
# Coordination Sequence:
#
# PCOD9333597 Si02
#       8
#     8   8   8   8   8   8   8   8
#     4  10  21  36  53  77 109 140 175 220 269 319
#     4  10  20  34  57  81 105 138 177 221 267 320
#     4  10  20  36  55  78 107 142 180 218 265 318
#     4   9  18  33  53  78 108 139 175 217 263 318
#     4  11  22  36  54  78 110 140 175 221 270 320
#     4  10  19  35  57  80 106 139 179 219 265 319
#     4   9  20  38  57  79 106 139 180 221 262 318
#     4  11  22  36  55  79 110 145 181 221 267 314
#
# _framework density 17.649961999999999
#
# number of rings (size 3 to 8) (size 9 to 14) (size 15 to 20)
#    0.000    2.000    0.000    4.875    0.000    5.000 
#    0.000   10.000    0.000    0.000    0.000    0.000 
#    0.000    0.000    0.000    0.000    0.000    0.000 
#
# Total GULP energy -178562.784246 kJ/mol
# GULP energy per Si atom -5580.087008 kJ/mol
# Density = 1.760979 g / cm^3
# Si number density = 17.649962 Si / 1000 Ang^3
#
#
#
# Elastic Constant Matrix: (Units=GPa)
#
#
# Indices 1 2 3 4 5 6 
#
# 1 122.2843 55.0648 72.1070 0.0000 0.0000 0.0000
# 2 55.0648 52.4076 38.5449 0.0000 0.0000 0.0000
# 3 72.1070 38.5449 90.0576 0.0000 0.0000 0.0000
# 4 0.0000 0.0000 0.0000 11.1605 0.0000 0.0000
# 5 0.0000 0.0000 0.0000 0.0000 33.2054 0.0000
# 6 0.0000 0.0000 0.0000 0.0000 0.0000 24.0557
#
#
#
# Elastic Compliance Matrix: (Units=1/GPa)
#
#
# Indices 1 2 3 4 5 6 
#
# 1 0.020731 -0.013972 -0.010618 0.000000 0.000000 0.000000
# 2 -0.013972 0.037264 -0.004762 0.000000 0.000000 0.000000
# 3 -0.010618 -0.004762 0.021644 0.000000 0.000000 0.000000
# 4 0.000000 0.000000 0.000000 0.089602 0.000000 0.000000
# 5 0.000000 0.000000 0.000000 0.000000 0.030116 0.000000
# 6 0.000000 0.000000 0.000000 0.000000 0.000000 0.041570
#
#
# Mechanical properties :
#
#
# Convention : Reuss Voigt Hill
#
# Bulk Modulus (GPa) = 47.76975 66.24256 57.00616
# Shear Modulus (GPa) = 16.30740 20.28651 18.29695
#
# Velocity S-wave (km/s) = 3.04293 3.39393 3.22321
# Velocity P-wave (km/s) = 6.28249 7.27812 6.79856
#
# Compressibility (1/GPa) = 0.02093375
#
# Stress axis : x y z
#
# Youngs Moduli (GPa) = 48.23769 26.83543 46.20188
#
# Poissons Ratio (x) = 0.37495 0.49059
# Poissons Ratio (y) = 0.67398 0.22002
# Poissons Ratio (z) = 0.51221 0.12779
#
# Static dielectric constant tensor:
#      x y z
#    x 1.590870 0.000000 0.000000 
#    y 0.000000 1.608880 0.000000 
#    z 0.000000 0.000000 1.595240 
# 
# From -- ./inp_files/29818.got.cif
#   From: 2010.05.17/outbox.cif.g08.bks.cpg/sg24_15_cif.got.tgz:29818.got - 2010.06.04 00:33:39.
