data_PCOD9333962
_publ_section_title
;
Structure prediction by ZEFSAII (Michael W. Deem and Ramdas Pophale) SiO2 
 PCOD9333962
Probable space group: I 21 21 21
;
_chemical_formula_sum "Si O2"
_cell_formula_units_Z 64
_cell_length_a 9.359280
_cell_length_b 25.701214
_cell_length_c 15.620930
_cell_angle_alpha 90.000000
_cell_angle_beta 90.000000
_cell_angle_gamma 90.000000
_cell_volume 3757.534391
_symmetry_space_group_name_H-M "I 21 21 21"
_symmetry_group_IT_number 24
_symmetry_cell_setting 'orthorhombic'
loop_
_space_group_symop_operation_xyz
x,y,z
-x,1/2-y,z
x,-y,1/2-z
1/2-x,y,-z
1/2+x,1/2+y,1/2+z
1/2-x,-y,1/2+z
1/2+x,1/2-y,-z
-x,1/2+y,1/2-z
loop_
_atom_site_type_symbol
_atom_site_label
_atom_site_fract_x
_atom_site_fract_y
_atom_site_fract_z
Si Si1 0.454024 0.986286 0.075224
Si Si2 0.474281 0.422835 0.774216
Si Si3 0.027715 0.615271 0.831272
Si Si4 0.717985 0.685956 0.098266
Si Si5 0.738111 0.803683 0.096881
Si Si6 0.860039 0.050405 0.810020
Si Si7 0.492853 0.806644 0.783878
Si Si8 0.622856 0.490424 0.623648
O O1 0.531962 0.934035 0.106108
O O2 0.297175 0.986900 0.122899
O O3 0.560956 0.032971 0.102945
O O4 0.424336 0.984364 0.974481
O O5 0.308984 0.436227 0.800100
O O6 0.485602 0.360357 0.767652
O O7 0.535829 0.449297 0.684991
O O8 0.573793 0.453009 0.842201
O O9 0.889814 0.646806 0.858353
O O10 0.153433 0.654900 0.849110
O O11 0.046123 0.594850 0.735440
O O12 0.669444 0.746236 0.093760
O O13 0.850290 0.686369 0.161851
O O14 0.750000 0.670184 0.000000
O O15 0.889046 0.800573 0.142348
O O16 0.750000 0.822136 0.000000
O O17 0.878165 0.000000 0.750000
O O18 0.500000 0.750000 0.737110
#
# Coordination Sequence:
#
# PCOD9333962 Si02
#       8
#     8   8   8   8   8   8   8   8
#     4  10  24  38  55  85 109 142 185 234 274 339
#     4  11  21  38  58  81 111 148 181 226 275 335
#     4  11  21  32  55  74 110 147 180 224 268 320
#     4  10  21  33  49  76 108 146 192 223 264 315
#     4  10  20  34  49  74 110 148 186 226 260 318
#     4  10  21  38  52  80 110 142 183 224 276 321
#     4  10  21  35  52  77 108 141 184 226 270 322
#     4  10  23  39  59  82 111 145 188 224 283 330
#
# _framework density 17.032446
#
# number of rings (size 3 to 8) (size 9 to 14) (size 15 to 20)
#    0.000    1.750    2.500    1.875   12.250    2.500 
#    0.000    0.000    0.000    0.000    0.000    5.250 
#    0.000    0.000    0.000    0.000    0.000    0.000 
#
# Total GULP energy -178163.582459 kJ/mol
# GULP energy per Si atom -5567.611952 kJ/mol
# Density = 1.699368 g / cm^3
# Si number density = 17.032446 Si / 1000 Ang^3
#
#
#
# Elastic Constant Matrix: (Units=GPa)
#
#
# Indices 1 2 3 4 5 6 
#
# 1 81.7205 29.0643 20.1610 0.0000 0.0000 0.0000
# 2 29.0643 84.4110 10.2121 0.0000 0.0000 0.0000
# 3 20.1610 10.2121 38.0976 0.0002 0.0000 0.0002
# 4 0.0000 0.0000 0.0002 32.5481 0.0000 0.0001
# 5 0.0000 0.0000 0.0000 0.0000 25.0901 0.0000
# 6 0.0000 0.0000 0.0002 0.0001 0.0000 44.6734
#
#
#
# Elastic Compliance Matrix: (Units=1/GPa)
#
#
# Indices 1 2 3 4 5 6 
#
# 1 0.015577 -0.004513 -0.007034 0.000000 0.000000 0.000000
# 2 -0.004513 0.013551 -0.001244 0.000000 0.000000 0.000000
# 3 -0.007034 -0.001244 0.030304 0.000000 0.000000 0.000000
# 4 0.000000 0.000000 0.000000 0.030724 0.000000 0.000000
# 5 0.000000 0.000000 0.000000 0.000000 0.039856 0.000000
# 6 0.000000 0.000000 0.000000 0.000000 0.000000 0.022385
#
#
# Mechanical properties :
#
#
# Convention : Reuss Voigt Hill
#
# Bulk Modulus (GPa) = 29.54118 35.90042 32.72080
# Shear Modulus (GPa) = 26.41845 30.11512 28.26679
#
# Velocity S-wave (km/s) = 3.94263 4.20944 4.07822
# Velocity P-wave (km/s) = 6.17313 6.68949 6.43649
#
# Compressibility (1/GPa) = 0.03385105
#
# Stress axis : x y z
#
# Youngs Moduli (GPa) = 64.19736 73.79482 32.99890
#
# Poissons Ratio (x) = 0.33300 0.23210
# Poissons Ratio (y) = 0.28969 0.04106
# Poissons Ratio (z) = 0.45154 0.09183
#
# Static dielectric constant tensor:
#      x y z
#    x 1.497080 0.000000 0.000000 
#    y 0.000000 1.623480 0.000000 
#    z 0.000000 0.000000 1.520020 
# 
# From -- ./inp_files/25219.got.cif
#   From: 2010.05.17/outbox.cif.g08.bks.cpg/sg24_13_cif.got.tgz:25219.got - 2010.06.04 00:33:39.
