data_PCOD9333617
_publ_section_title
;
Structure prediction by ZEFSAII (Michael W. Deem and Ramdas Pophale) SiO2 
 PCOD9333617
Probable space group: I 21 21 21
;
_chemical_formula_sum "Si O2"
_cell_formula_units_Z 44
_cell_length_a 5.065078
_cell_length_b 27.493151
_cell_length_c 14.800052
_cell_angle_alpha 90.000000
_cell_angle_beta 90.000000
_cell_angle_gamma 90.000000
_cell_volume 2060.980565
_symmetry_space_group_name_H-M "I 21 21 21"
_symmetry_group_IT_number 24
_symmetry_cell_setting 'orthorhombic'
loop_
_space_group_symop_operation_xyz
x,y,z
-x,1/2-y,z
x,-y,1/2-z
1/2-x,y,-z
1/2+x,1/2+y,1/2+z
1/2-x,-y,1/2+z
1/2+x,1/2-y,-z
-x,1/2+y,1/2-z
loop_
_atom_site_type_symbol
_atom_site_label
_atom_site_fract_x
_atom_site_fract_y
_atom_site_fract_z
Si Si1 0.183475 0.399059 0.333417
Si Si2 0.828978 0.820744 0.326972
Si Si3 0.014717 0.321891 0.556906
Si Si4 0.000000 0.750000 0.781908
Si Si5 0.317295 0.868392 0.400104
Si Si6 0.310336 0.055769 0.265864
O O1 0.155329 0.357649 0.257381
O O2 0.333046 0.370346 0.411844
O O3 0.390279 0.439019 0.299236
O O4 0.893533 0.421648 0.338971
O O5 0.725985 0.771156 0.282602
O O6 0.602177 0.843756 0.390164
O O7 0.105955 0.826364 0.376041
O O8 0.750000 0.329447 0.500000
O O9 0.250000 0.294646 0.500000
O O10 0.930771 0.293279 0.648160
O O11 0.250000 0.886581 0.500000
O O12 0.292667 0.911232 0.325203
O O13 0.241834 0.000000 0.250000
#
# Coordination Sequence:
#
# PCOD9333617 Si02
#       6
#     8   8   8   4   8   8
#     4   9  19  35  53  78 113 148 184 225 280 341
#     4   9  20  35  57  79 107 146 182 224 278 332
#     4  11  22  36  56  83 116 154 191 236 285 334
#     4  10  22  38  58  84 112 148 200 238 272 338
#     4  10  20  37  57  81 110 144 182 229 284 334
#     4  10  19  35  59  83 108 147 192 232 277 341
#
# _framework density 21.349062
#
# number of rings (size 3 to 8) (size 9 to 14) (size 15 to 20)
#    0.000    2.182    0.000    2.727    0.000    6.545 
#    0.000    4.545    0.000    2.182    0.000    0.000 
#    0.000    0.000    0.000    0.000    0.000    0.000 
#
# Total GULP energy -122769.966147 kJ/mol
# GULP energy per Si atom -5580.453007 kJ/mol
# Density = 2.130047 g / cm^3
# Si number density = 21.349062 Si / 1000 Ang^3
#
#
#
# Elastic Constant Matrix: (Units=GPa)
#
#
# Indices 1 2 3 4 5 6 
#
# 1 86.1300 9.4600 5.1112 0.0000 0.0000 0.0000
# 2 9.4600 69.6733 10.4301 0.0000 0.0000 0.0000
# 3 5.1112 10.4301 63.8855 0.0000 0.0000 0.0000
# 4 0.0000 0.0000 0.0000 12.5595 0.0000 0.0000
# 5 0.0000 0.0000 0.0000 0.0000 24.5398 0.0000
# 6 0.0000 0.0000 0.0000 0.0000 0.0000 14.3236
#
#
#
# Elastic Compliance Matrix: (Units=1/GPa)
#
#
# Indices 1 2 3 4 5 6 
#
# 1 0.011817 -0.001500 -0.000701 0.000000 0.000000 0.000000
# 2 -0.001500 0.014903 -0.002313 0.000000 0.000000 0.000000
# 3 -0.000701 -0.002313 0.016087 0.000000 0.000000 0.000000
# 4 0.000000 0.000000 0.000000 0.079621 0.000000 0.000000
# 5 0.000000 0.000000 0.000000 0.000000 0.040750 0.000000
# 6 0.000000 0.000000 0.000000 0.000000 0.000000 0.069815
#
#
# Mechanical properties :
#
#
# Convention : Reuss Voigt Hill
#
# Bulk Modulus (GPa) = 29.60371 29.96570 29.78471
# Shear Modulus (GPa) = 19.74119 23.26378 21.50248
#
# Velocity S-wave (km/s) = 3.04416 3.30462 3.17706
# Velocity P-wave (km/s) = 5.12372 5.35044 5.23831
#
# Compressibility (1/GPa) = 0.03377954
#
# Stress axis : x y z
#
# Youngs Moduli (GPa) = 84.62652 67.10257 62.16321
#
# Poissons Ratio (x) = 0.10062 0.04355
# Poissons Ratio (y) = 0.12690 0.14379
# Poissons Ratio (z) = 0.05929 0.15521
#
# Static dielectric constant tensor:
#      x y z
#    x 1.792650 0.000000 0.000000 
#    y 0.000000 1.783820 0.000000 
#    z 0.000000 0.000000 1.822740 
# 
# From -- ./inp_files/7057.got.cif
#   From: 2010.05.17/outbox.cif.g08.bks.cpg/sg24_4_cif.got.tgz:7057.got - 2010.06.04 00:33:39.
