data_PCOD9333860
_publ_section_title
;
Structure prediction by ZEFSAII (Michael W. Deem and Ramdas Pophale) SiO2 
 PCOD9333860
Probable space group: I 21 21 21
;
_chemical_formula_sum "Si O2"
_cell_formula_units_Z 60
_cell_length_a 9.026950
_cell_length_b 18.710598
_cell_length_c 16.308429
_cell_angle_alpha 90.000000
_cell_angle_beta 90.000000
_cell_angle_gamma 90.000000
_cell_volume 2754.487667
_symmetry_space_group_name_H-M "I 21 21 21"
_symmetry_group_IT_number 24
_symmetry_cell_setting 'orthorhombic'
loop_
_space_group_symop_operation_xyz
x,y,z
-x,1/2-y,z
x,-y,1/2-z
1/2-x,y,-z
1/2+x,1/2+y,1/2+z
1/2-x,-y,1/2+z
1/2+x,1/2-y,-z
-x,1/2+y,1/2-z
loop_
_atom_site_type_symbol
_atom_site_label
_atom_site_fract_x
_atom_site_fract_y
_atom_site_fract_z
Si Si1 0.425461 0.679171 0.011114
Si Si2 0.317640 0.334904 0.823189
Si Si3 0.303614 0.074085 0.293623
Si Si4 0.750000 0.421351 0.000000
Si Si5 0.200637 0.510276 0.347560
Si Si6 0.376195 0.382424 0.328392
Si Si7 0.418183 0.043128 0.567555
Si Si8 0.174706 0.827769 0.341417
O O1 0.500000 0.750000 0.976534
O O2 0.442509 0.673952 0.108739
O O3 0.250000 0.681098 0.000000
O O4 0.504855 0.611021 0.972218
O O5 0.266436 0.407601 0.869634
O O6 0.243955 0.347941 0.733295
O O7 0.496609 0.335110 0.830147
O O8 0.278467 0.255117 0.851752
O O9 0.479974 0.082953 0.287679
O O10 0.228246 0.068508 0.383076
O O11 0.238368 0.139177 0.241695
O O12 0.262650 0.000000 0.250000
O O13 0.884536 0.478091 0.005511
O O14 0.766238 0.373350 0.081092
O O15 0.220850 0.500000 0.250000
O O16 0.301666 0.446621 0.381238
O O17 0.033283 0.490539 0.368326
#
# Coordination Sequence:
#
# PCOD9333860 Si02
#       8
#     8   8   8   4   8   8   8   8
#     4  12  30  48  68 108 151 190 233 302 378 435
#     4  10  22  46  69  98 138 190 238 300 352 437
#     4  12  23  43  73 105 137 187 245 298 350 439
#     4  12  24  46  72 106 142 180 246 308 354 436
#     4  10  19  43  73 100 130 184 246 289 345 431
#     4  11  25  44  72 104 141 182 245 300 357 430
#     4  12  24  46  75  99 142 193 238 297 359 438
#     4  11  25  42  73 105 141 185 245 295 372 429
#
# _framework density 21.782634999999999
#
# number of rings (size 3 to 8) (size 9 to 14) (size 15 to 20)
#    0.000    0.800    4.000    4.000    4.667    0.000 
#    0.000    4.000    0.000    0.000    0.000    0.000 
#    0.000    0.000    0.000    0.000    0.000    0.000 
#
# Total GULP energy -167424.369459 kJ/mol
# GULP energy per Si atom -5580.812315 kJ/mol
# Density = 2.173306 g / cm^3
# Si number density = 21.782635 Si / 1000 Ang^3
#
#
#
# Elastic Constant Matrix: (Units=GPa)
#
#
# Indices 1 2 3 4 5 6 
#
# 1 89.7848 55.1064 30.3945 0.0000 0.0000 0.0000
# 2 55.1064 200.2045 41.7792 0.0000 0.0000 0.0000
# 3 30.3945 41.7792 66.2203 0.0000 0.0000 0.0000
# 4 0.0000 0.0000 0.0000 21.7786 0.0000 0.0000
# 5 0.0000 0.0000 0.0000 0.0000 24.9548 0.0000
# 6 0.0000 0.0000 0.0000 0.0000 0.0000 90.0016
#
#
#
# Elastic Compliance Matrix: (Units=1/GPa)
#
#
# Indices 1 2 3 4 5 6 
#
# 1 0.014618 -0.003021 -0.004803 0.000000 0.000000 0.000000
# 2 -0.003021 0.006377 -0.002636 0.000000 0.000000 0.000000
# 3 -0.004803 -0.002636 0.018969 0.000000 0.000000 0.000000
# 4 0.000000 0.000000 0.000000 0.045917 0.000000 0.000000
# 5 0.000000 0.000000 0.000000 0.000000 0.040072 0.000000
# 6 0.000000 0.000000 0.000000 0.000000 0.000000 0.011111
#
#
# Mechanical properties :
#
#
# Convention : Reuss Voigt Hill
#
# Bulk Modulus (GPa) = 52.51599 67.86331 60.18965
# Shear Modulus (GPa) = 30.42592 42.60895 36.51744
#
# Velocity S-wave (km/s) = 3.74143 4.42758 4.09889
# Velocity P-wave (km/s) = 6.54415 7.57366 7.07765
#
# Compressibility (1/GPa) = 0.01904182
#
# Stress axis : x y z
#
# Youngs Moduli (GPa) = 68.40801 156.82179 52.71708
#
# Poissons Ratio (x) = 0.47380 0.25322
# Poissons Ratio (y) = 0.20668 0.13898
# Poissons Ratio (z) = 0.32859 0.41344
#
# Static dielectric constant tensor:
#      x y z
#    x 1.875250 0.000000 0.000000 
#    y 0.000000 1.820600 0.000000 
#    z 0.000000 0.000000 1.722010 
# 
# From -- ./inp_files/29710.got.cif
#   From: 2010.05.17/outbox.cif.g08.bks.cpg/sg24_15_cif.got.tgz:29710.got - 2010.06.04 00:33:39.
