data_PCOD9333804
_publ_section_title
;
Structure prediction by ZEFSAII (Michael W. Deem and Ramdas Pophale) SiO2 
 PCOD9333804
Probable space group: I 21 21 21
;
_chemical_formula_sum "Si O2"
_cell_formula_units_Z 48
_cell_length_a 29.754082
_cell_length_b 8.845313
_cell_length_c 8.378761
_cell_angle_alpha 90.000000
_cell_angle_beta 90.000000
_cell_angle_gamma 90.000000
_cell_volume 2205.157245
_symmetry_space_group_name_H-M "I 21 21 21"
_symmetry_group_IT_number 24
_symmetry_cell_setting 'orthorhombic'
loop_
_space_group_symop_operation_xyz
x,y,z
-x,1/2-y,z
x,-y,1/2-z
1/2-x,y,-z
1/2+x,1/2+y,1/2+z
1/2-x,-y,1/2+z
1/2+x,1/2-y,-z
-x,1/2+y,1/2-z
loop_
_atom_site_type_symbol
_atom_site_label
_atom_site_fract_x
_atom_site_fract_y
_atom_site_fract_z
Si Si1 0.196254 0.230371 0.497004
Si Si2 0.781921 0.500000 0.250000
Si Si3 0.750000 0.723412 0.500000
Si Si4 0.173271 0.654137 0.676991
Si Si5 0.000000 0.750000 0.451859
Si Si6 0.083724 0.581456 0.503262
Si Si7 0.893845 0.209278 0.348554
Si Si8 0.556142 0.500000 0.750000
O O1 0.250000 0.271095 0.500000
O O2 0.193783 0.072792 0.401099
O O3 0.177214 0.230735 0.675710
O O4 0.158381 0.319812 0.396987
O O5 0.754254 0.628369 0.338555
O O6 0.796081 0.810530 0.525186
O O7 0.192836 0.500000 0.750000
O O8 0.123110 0.622898 0.623264
O O9 0.962022 0.836894 0.549432
O O10 0.975818 0.617336 0.346953
O O11 0.079709 0.403124 0.467597
O O12 0.097630 0.652637 0.331195
O O13 0.911837 0.382740 0.349695
#
# Coordination Sequence:
#
# PCOD9333804 Si02
#       8
#     8   4   4   8   4   8   8   4
#     4  12  24  43  66  97 139 189 230 279 338 411
#     4  12  23  44  62  98 128 184 236 282 345 400
#     4  12  24  42  68  94 138 182 230 296 334 422
#     4  12  26  42  66  97 139 184 234 284 347 410
#     4  10  20  40  70 100 132 174 232 292 360 426
#     4  10  22  41  67  97 137 179 233 294 352 422
#     4  10  21  39  65 102 138 179 234 293 342 414
#     4  10  19  38  70 104 130 172 232 296 359 410
#
# _framework density 21.767154000000001
#
# number of rings (size 3 to 8) (size 9 to 14) (size 15 to 20)
#    0.000    1.000    4.167    3.500    1.167    1.333 
#    0.000    0.000    3.667    0.000    0.000    0.000 
#    0.000    0.000    0.000    0.000    0.000    0.000 
#
# Total GULP energy -133714.918977 kJ/mol
# GULP energy per Si atom -5571.454957 kJ/mol
# Density = 2.171761 g / cm^3
# Si number density = 21.767154 Si / 1000 Ang^3
#
#
#
# Elastic Constant Matrix: (Units=GPa)
#
#
# Indices 1 2 3 4 5 6 
#
# 1 127.2915 54.0063 35.4781 0.0000 0.0000 0.0000
# 2 54.0063 113.0491 34.9716 0.0000 0.0000 0.0000
# 3 35.4781 34.9716 87.1647 0.0000 0.0000 0.0000
# 4 0.0000 0.0000 0.0000 32.0563 0.0000 0.0000
# 5 0.0000 0.0000 0.0000 0.0000 37.3892 0.0000
# 6 0.0000 0.0000 0.0000 0.0000 0.0000 31.0586
#
#
#
# Elastic Compliance Matrix: (Units=1/GPa)
#
#
# Indices 1 2 3 4 5 6 
#
# 1 0.010322 -0.004146 -0.002538 0.000000 0.000000 0.000000
# 2 -0.004146 0.011765 -0.003032 0.000000 0.000000 0.000000
# 3 -0.002538 -0.003032 0.013722 0.000000 0.000000 0.000000
# 4 0.000000 0.000000 0.000000 0.031195 0.000000 0.000000
# 5 0.000000 0.000000 0.000000 0.000000 0.026746 0.000000
# 6 0.000000 0.000000 0.000000 0.000000 0.000000 0.032197
#
#
# Mechanical properties :
#
#
# Convention : Reuss Voigt Hill
#
# Bulk Modulus (GPa) = 61.06526 64.04637 62.55582
# Shear Modulus (GPa) = 33.14788 33.63743 33.39266
#
# Velocity S-wave (km/s) = 3.90659 3.93533 3.92099
# Velocity P-wave (km/s) = 6.96156 7.08071 7.02139
#
# Compressibility (1/GPa) = 0.01637592
#
# Stress axis : x y z
#
# Youngs Moduli (GPa) = 96.87607 85.00122 72.87447
#
# Poissons Ratio (x) = 0.35243 0.18495
# Poissons Ratio (y) = 0.40166 0.22099
# Poissons Ratio (z) = 0.24587 0.25777
#
# Static dielectric constant tensor:
#      x y z
#    x 1.875770 0.000000 0.000000 
#    y 0.000000 1.913980 0.000000 
#    z 0.000000 0.000000 1.809890 
# 
# From -- ./inp_files/16902.got.cif
#   From: 2010.05.17/outbox.cif.g08.bks.cpg/sg24_9_cif.got.tgz:16902.got - 2010.06.04 00:33:39.
