data_PCOD9333612
_publ_section_title
;
Structure prediction by ZEFSAII (Michael W. Deem and Ramdas Pophale) SiO2 
 PCOD9333612
Probable space group: I 21 21 21
;
_chemical_formula_sum "Si O2"
_cell_formula_units_Z 48
_cell_length_a 13.873610
_cell_length_b 8.482236
_cell_length_c 18.442826
_cell_angle_alpha 90.000000
_cell_angle_beta 90.000000
_cell_angle_gamma 90.000000
_cell_volume 2170.337640
_symmetry_space_group_name_H-M "I 21 21 21"
_symmetry_group_IT_number 24
_symmetry_cell_setting 'orthorhombic'
loop_
_space_group_symop_operation_xyz
x,y,z
-x,1/2-y,z
x,-y,1/2-z
1/2-x,y,-z
1/2+x,1/2+y,1/2+z
1/2-x,-y,1/2+z
1/2+x,1/2-y,-z
-x,1/2+y,1/2-z
loop_
_atom_site_type_symbol
_atom_site_label
_atom_site_fract_x
_atom_site_fract_y
_atom_site_fract_z
Si Si1 0.095591 0.364778 0.039067
Si Si2 0.182839 0.451175 0.329561
Si Si3 0.108324 0.547293 0.886138
Si Si4 0.690866 0.423503 0.674634
Si Si5 0.346850 0.958914 0.529344
Si Si6 0.598259 0.426973 0.381383
O O1 0.116337 0.479124 0.106552
O O2 0.172182 0.223342 0.043853
O O3 0.000000 0.250000 0.043262
O O4 0.109595 0.459754 0.964129
O O5 0.150106 0.500000 0.250000
O O6 0.294347 0.502276 0.344916
O O7 0.186672 0.263204 0.326530
O O8 0.108221 0.738607 0.894053
O O9 0.004355 0.523631 0.846960
O O10 0.661204 0.500000 0.750000
O O11 0.626048 0.473435 0.606467
O O12 0.802309 0.476484 0.657463
O O13 0.250000 0.041672 0.500000
O O14 0.411446 0.992304 0.460284
#
# Coordination Sequence:
#
# PCOD9333612 Si02
#       6
#     8   8   8   8   8   8
#     4  12  23  39  63  94 125 165 217 275 321 382
#     4  11  24  42  62  91 130 174 214 265 340 406
#     4  10  20  39  64  92 128 165 212 273 332 391
#     4  10  21  38  61  89 126 174 215 258 323 405
#     4  10  19  35  58  86 117 156 207 262 314 376
#     4   9  19  36  62  93 126 161 211 266 329 391
#
# _framework density 22.116374
#
# number of rings (size 3 to 8) (size 9 to 14) (size 15 to 20)
#    0.000    1.667    1.667    3.500    0.000    4.667 
#    0.000    2.500    0.000    0.000    0.000    0.000 
#    0.000    0.000    0.000    0.000    0.000    0.000 
#
# Total GULP energy -133670.134556 kJ/mol
# GULP energy per Si atom -5569.588940 kJ/mol
# Density = 2.206604 g / cm^3
# Si number density = 22.116374 Si / 1000 Ang^3
#
#
#
# Elastic Constant Matrix: (Units=GPa)
#
#
# Indices 1 2 3 4 5 6 
#
# 1 41.8122 5.0987 -3.4671 0.0000 0.0000 0.0000
# 2 5.0987 32.5608 8.1498 0.0000 0.0000 0.0000
# 3 -3.4671 8.1498 93.8414 0.0000 0.0000 0.0000
# 4 0.0000 0.0000 0.0000 33.5746 0.0000 0.0000
# 5 0.0000 0.0000 0.0000 0.0000 6.5976 0.0000
# 6 0.0000 0.0000 0.0000 0.0000 0.0000 31.1335
#
#
#
# Elastic Compliance Matrix: (Units=1/GPa)
#
#
# Indices 1 2 3 4 5 6 
#
# 1 0.024529 -0.004158 0.001267 0.000000 0.000000 0.000000
# 2 -0.004158 0.032099 -0.002941 0.000000 0.000000 0.000000
# 3 0.001267 -0.002941 0.010959 0.000000 0.000000 0.000000
# 4 0.000000 0.000000 0.000000 0.029784 0.000000 0.000000
# 5 0.000000 0.000000 0.000000 0.000000 0.151569 0.000000
# 6 0.000000 0.000000 0.000000 0.000000 0.000000 0.032120
#
#
# Mechanical properties :
#
#
# Convention : Reuss Voigt Hill
#
# Bulk Modulus (GPa) = 17.88203 20.86412 19.37307
# Shear Modulus (GPa) = 16.05835 24.82336 20.44086
#
# Velocity S-wave (km/s) = 2.69752 3.35385 3.04343
# Velocity P-wave (km/s) = 4.21961 4.94490 4.59658
#
# Compressibility (1/GPa) = 0.05592207
#
# Stress axis : x y z
#
# Youngs Moduli (GPa) = 40.76875 31.15349 91.25297
#
# Poissons Ratio (x) = 0.12954 -0.11565
# Poissons Ratio (y) = 0.16952 0.26840
# Poissons Ratio (z) = -0.05167 0.09163
#
# Static dielectric constant tensor:
#      x y z
#    x 2.054470 0.000000 0.000000 
#    y 0.000000 1.800770 0.000000 
#    z 0.000000 0.000000 1.794080 
# 
# From -- ./inp_files/31095.got.cif
#   From: 2010.05.17/outbox.cif.g08.bks.cpg/sg24_16_cif.got.tgz:31095.got - 2010.06.04 00:33:39.
