data_PCOD9333234
_publ_section_title
;
Structure prediction by ZEFSAII (Michael W. Deem and Ramdas Pophale) SiO2 
 PCOD9333234
Probable space group: I 21 21 21
;
_chemical_formula_sum "Si O2"
_cell_formula_units_Z 64
_cell_length_a 19.398692
_cell_length_b 17.029085
_cell_length_c 9.696712
_cell_angle_alpha 90.000000
_cell_angle_beta 90.000000
_cell_angle_gamma 90.000000
_cell_volume 3203.230993
_symmetry_space_group_name_H-M "I 21 21 21"
_symmetry_group_IT_number 24
_symmetry_cell_setting 'orthorhombic'
loop_
_space_group_symop_operation_xyz
x,y,z
-x,1/2-y,z
x,-y,1/2-z
1/2-x,y,-z
1/2+x,1/2+y,1/2+z
1/2-x,-y,1/2+z
1/2+x,1/2-y,-z
-x,1/2+y,1/2-z
loop_
_atom_site_type_symbol
_atom_site_label
_atom_site_fract_x
_atom_site_fract_y
_atom_site_fract_z
Si Si1 0.687583 0.486616 0.902604
Si Si2 0.927569 0.297830 0.722026
Si Si3 0.048997 0.471652 0.406747
Si Si4 0.641584 0.809251 0.432722
Si Si5 0.871202 0.315802 0.142438
Si Si6 0.511296 0.624474 0.468804
Si Si7 0.581948 0.371686 0.572837
Si Si8 0.682648 0.013736 0.084736
O O1 0.714142 0.500000 0.750000
O O2 0.664760 0.396157 0.907762
O O3 0.625143 0.547237 0.922988
O O4 0.750000 0.504651 0.000000
O O5 0.868017 0.246601 0.798165
O O6 0.909563 0.329551 0.572759
O O7 0.000000 0.250000 0.711077
O O8 0.946943 0.368583 0.826482
O O9 0.065872 0.500000 0.250000
O O10 0.001082 0.538546 0.474204
O O11 0.116708 0.474365 0.505153
O O12 0.998958 0.395266 0.403179
O O13 0.662642 0.758035 0.566110
O O14 0.563147 0.838194 0.451902
O O15 0.680339 0.891223 0.423509
O O16 0.884365 0.319735 0.304998
O O17 0.946581 0.324556 0.076779
O O18 0.682081 0.000000 0.250000
O O19 0.750000 0.986796 0.000000
#
# Coordination Sequence:
#
# PCOD9333234 Si02
#       8
#     8   8   8   8   8   8   8   8
#     4  10  22  38  55  83 123 165 211 255 298 366
#     4   9  20  34  53  90 126 160 201 257 316 373
#     4  11  20  37  64  94 126 165 212 266 326 378
#     4   9  21  39  61  87 126 160 204 250 328 387
#     4  10  18  37  58  87 124 165 204 258 304 386
#     4   9  17  34  55  81 122 159 197 247 301 370
#     4  11  21  35  60  94 134 161 214 262 316 374
#     4  11  26  47  71  93 123 166 223 282 333 402
#
# _framework density 19.979825999999999
#
# number of rings (size 3 to 8) (size 9 to 14) (size 15 to 20)
#    0.000    2.000    2.500    1.875    5.250    3.500 
#    0.000    2.500    0.000    0.000    0.000    0.000 
#    0.000    0.000    0.000    0.000    0.000    0.000 
#
# Total GULP energy -178339.210371 kJ/mol
# GULP energy per Si atom -5573.100324 kJ/mol
# Density = 1.993435 g / cm^3
# Si number density = 19.979826 Si / 1000 Ang^3
#
#
#
# Elastic Constant Matrix: (Units=GPa)
#
#
# Indices 1 2 3 4 5 6 
#
# 1 68.6947 5.6384 51.2400 0.0000 0.0000 0.0000
# 2 5.6384 56.5499 40.3911 0.0000 0.0000 0.0000
# 3 51.2400 40.3911 159.3190 0.0000 0.0000 0.0000
# 4 0.0000 0.0000 0.0000 47.0750 0.0000 0.0000
# 5 0.0000 0.0000 0.0000 0.0000 108.1403 0.0000
# 6 0.0000 0.0000 0.0000 0.0000 0.0000 3.7569
#
#
#
# Elastic Compliance Matrix: (Units=1/GPa)
#
#
# Indices 1 2 3 4 5 6 
#
# 1 0.019590 0.003110 -0.007089 0.000000 0.000000 0.000000
# 2 0.003110 0.022087 -0.006600 0.000000 0.000000 0.000000
# 3 -0.007089 -0.006600 0.010230 0.000000 0.000000 0.000000
# 4 0.000000 0.000000 0.000000 0.021243 0.000000 0.000000
# 5 0.000000 0.000000 0.000000 0.000000 0.009247 0.000000
# 6 0.000000 0.000000 0.000000 0.000000 0.000000 0.266178
#
#
# Mechanical properties :
#
#
# Convention : Reuss Voigt Hill
#
# Bulk Modulus (GPa) = 32.52099 53.23363 42.87731
# Shear Modulus (GPa) = 13.15853 44.28072 28.71962
#
# Velocity S-wave (km/s) = 2.56909 4.71284 3.79546
# Velocity P-wave (km/s) = 5.01124 7.50440 6.38077
#
# Compressibility (1/GPa) = 0.03074937
#
# Stress axis : x y z
#
# Youngs Moduli (GPa) = 51.04774 45.27459 97.75306
#
# Poissons Ratio (x) = -0.14081 0.69295
# Poissons Ratio (y) = -0.15876 0.64516
# Poissons Ratio (z) = 0.36187 0.29881
#
# Static dielectric constant tensor:
#      x y z
#    x 1.705430 0.000000 0.000000 
#    y 0.000000 1.789550 0.000000 
#    z 0.000000 0.000000 1.718310 
# 
# From -- ./inp_files/15407.got.cif
#   From: 2010.05.17/outbox.cif.g08.bks.cpg/sg24_8_cif.got.tgz:15407.got - 2010.06.04 00:33:39.
