data_PCOD9333762
_publ_section_title
;
Structure prediction by ZEFSAII (Michael W. Deem and Ramdas Pophale) SiO2 
 PCOD9333762
Probable space group: I 21 21 21
;
_chemical_formula_sum "Si O2"
_cell_formula_units_Z 64
_cell_length_a 16.544361
_cell_length_b 11.054968
_cell_length_c 14.980444
_cell_angle_alpha 90.000000
_cell_angle_beta 90.000000
_cell_angle_gamma 90.000000
_cell_volume 2739.883980
_symmetry_space_group_name_H-M "I 21 21 21"
_symmetry_group_IT_number 24
_symmetry_cell_setting 'orthorhombic'
loop_
_space_group_symop_operation_xyz
x,y,z
-x,1/2-y,z
x,-y,1/2-z
1/2-x,y,-z
1/2+x,1/2+y,1/2+z
1/2-x,-y,1/2+z
1/2+x,1/2-y,-z
-x,1/2+y,1/2-z
loop_
_atom_site_type_symbol
_atom_site_label
_atom_site_fract_x
_atom_site_fract_y
_atom_site_fract_z
Si Si1 0.667343 0.638864 0.414854
Si Si2 0.547148 0.520255 0.841673
Si Si3 0.433479 0.092935 0.469168
Si Si4 0.599608 0.241545 0.716130
Si Si5 0.405438 0.458779 0.381495
Si Si6 0.147323 0.207188 0.100405
Si Si7 0.840180 0.828176 0.028834
Si Si8 0.590884 0.205241 0.227553
O O1 0.634227 0.508517 0.447191
O O2 0.636415 0.729911 0.494732
O O3 0.763284 0.649918 0.402589
O O4 0.633308 0.683365 0.320913
O O5 0.496963 0.500000 0.750000
O O6 0.616041 0.616383 0.810191
O O7 0.581724 0.392391 0.871695
O O8 0.519727 0.569636 0.936650
O O9 0.501172 0.076900 0.395490
O O10 0.395958 0.223295 0.485431
O O11 0.500000 0.250000 0.713169
O O12 0.634948 0.206787 0.813364
O O13 0.639059 0.169756 0.633894
O O14 0.359622 0.450166 0.474946
O O15 0.371215 0.354572 0.315872
O O16 0.405194 0.589888 0.338368
O O17 0.750000 0.794752 0.000000
O O18 0.500000 0.250000 0.241526
#
# Coordination Sequence:
#
# PCOD9333762 Si02
#       8
#     8   8   8   8   8   8   8   8
#     4  10  21  38  66  98 130 162 216 280 344 393
#     4   8  16  32  55  89 123 156 202 261 327 376
#     4  10  19  37  66  93 133 169 211 274 339 401
#     4  10  20  37  60  88 130 173 217 264 325 401
#     4  11  24  44  63  92 136 172 217 274 330 409
#     4   9  20  37  61  93 128 163 207 279 340 378
#     4  11  24  38  64  96 134 179 223 268 335 403
#     4  11  23  43  67  93 123 169 222 269 332 401
#
# _framework density 23.358654999999999
#
# number of rings (size 3 to 8) (size 9 to 14) (size 15 to 20)
#    0.000    2.000    1.250    2.625    7.000    0.500 
#    4.500    0.000    0.000    0.000    0.000    0.000 
#    0.000    0.000    0.000    0.000    0.000    0.000 
#
# Total GULP energy -178218.659067 kJ/mol
# GULP energy per Si atom -5569.333096 kJ/mol
# Density = 2.330549 g / cm^3
# Si number density = 23.358655 Si / 1000 Ang^3
#
#
#
# Elastic Constant Matrix: (Units=GPa)
#
#
# Indices 1 2 3 4 5 6 
#
# 1 54.0320 -11.5244 18.4463 0.0000 0.0000 0.0000
# 2 -11.5244 46.3028 28.5295 0.0000 0.0000 0.0000
# 3 18.4463 28.5295 116.7384 0.0000 0.0000 0.0000
# 4 0.0000 0.0000 0.0000 38.0017 0.0000 0.0000
# 5 0.0000 0.0000 0.0000 0.0000 20.8582 0.0000
# 6 0.0000 0.0000 0.0000 0.0000 0.0000 6.2281
#
#
#
# Elastic Compliance Matrix: (Units=1/GPa)
#
#
# Indices 1 2 3 4 5 6 
#
# 1 0.022431 0.009144 -0.005779 0.000000 0.000000 0.000000
# 2 0.009144 0.029153 -0.008569 0.000000 0.000000 0.000000
# 3 -0.005779 -0.008569 0.011574 0.000000 0.000000 0.000000
# 4 0.000000 0.000000 0.000000 0.026315 0.000000 0.000000
# 5 0.000000 0.000000 0.000000 0.000000 0.047943 0.000000
# 6 0.000000 0.000000 0.000000 0.000000 0.000000 0.160562
#
#
# Mechanical properties :
#
#
# Convention : Reuss Voigt Hill
#
# Bulk Modulus (GPa) = 18.95830 31.99735 25.47783
# Shear Modulus (GPa) = 15.33892 25.12571 20.23232
#
# Velocity S-wave (km/s) = 2.56534 3.28327 2.94625
# Velocity P-wave (km/s) = 4.11198 5.30105 4.74392
#
# Compressibility (1/GPa) = 0.05274734
#
# Stress axis : x y z
#
# Youngs Moduli (GPa) = 44.58180 34.30210 86.40374
#
# Poissons Ratio (x) = -0.31364 0.49932
# Poissons Ratio (y) = -0.40763 0.74043
# Poissons Ratio (z) = 0.25764 0.29395
#
# Static dielectric constant tensor:
#      x y z
#    x 1.882860 0.000000 0.000000 
#    y 0.000000 1.973690 0.000000 
#    z 0.000000 0.000000 2.012430 
# 
# From -- ./inp_files/27212.got.cif
#   From: 2010.05.17/outbox.cif.g08.bks.cpg/sg24_14_cif.got.tgz:27212.got - 2010.06.04 00:33:39.
