data_PCOD9333595
_publ_section_title
;
Structure prediction by ZEFSAII (Michael W. Deem and Ramdas Pophale) SiO2 
 PCOD9333595
Probable space group: I 21 21 21
;
_chemical_formula_sum "Si O2"
_cell_formula_units_Z 52
_cell_length_a 5.418347
_cell_length_b 25.536922
_cell_length_c 19.009581
_cell_angle_alpha 90.000000
_cell_angle_beta 90.000000
_cell_angle_gamma 90.000000
_cell_volume 2630.315892
_symmetry_space_group_name_H-M "I 21 21 21"
_symmetry_group_IT_number 24
_symmetry_cell_setting 'orthorhombic'
loop_
_space_group_symop_operation_xyz
x,y,z
-x,1/2-y,z
x,-y,1/2-z
1/2-x,y,-z
1/2+x,1/2+y,1/2+z
1/2-x,-y,1/2+z
1/2+x,1/2-y,-z
-x,1/2+y,1/2-z
loop_
_atom_site_type_symbol
_atom_site_label
_atom_site_fract_x
_atom_site_fract_y
_atom_site_fract_z
Si Si1 0.747713 0.776770 0.874565
Si Si2 0.204559 0.113303 0.741888
Si Si3 0.750000 0.436397 0.500000
Si Si4 0.294345 0.555755 0.711563
Si Si5 0.750298 0.733884 0.715737
Si Si6 0.871813 0.005657 0.423077
Si Si7 0.911062 0.109373 0.602597
O O1 0.500000 0.750000 0.902169
O O2 0.748929 0.766629 0.789866
O O3 0.756365 0.838122 0.889460
O O4 0.000000 0.750000 0.901117
O O5 0.458801 0.083299 0.758216
O O6 0.241265 0.173010 0.765571
O O7 0.958722 0.088171 0.777491
O O8 0.129426 0.113432 0.659835
O O9 0.648302 0.474623 0.560538
O O10 0.534339 0.399426 0.472866
O O11 0.263649 0.500000 0.750000
O O12 0.344345 0.541966 0.629914
O O13 0.500000 0.750000 0.678148
O O14 0.000000 0.750000 0.677712
O O15 0.750000 0.996349 0.500000
O O16 0.740451 0.056115 0.388017
#
# Coordination Sequence:
#
# PCOD9333595 Si02
#       7
#     8   8   4   8   8   8   8
#     4  10  21  33  60  82 113 159 205 254 316 352
#     4  12  24  37  63  94 131 155 212 266 322 378
#     4  10  24  40  68  78 120 172 230 254 306 384
#     4  12  25  38  61  97 128 162 209 273 321 374
#     4  10  19  35  56  88 118 168 192 247 327 370
#     4  10  24  43  64  86 126 176 218 256 320 383
#     4  11  22  40  62  90 116 174 217 264 315 379
#
# _framework density 19.769487999999999
#
# number of rings (size 3 to 8) (size 9 to 14) (size 15 to 20)
#    0.000    1.231    4.615    2.308    8.615    0.000 
#    0.000    0.000    5.077    0.000    0.000    0.000 
#    0.000   12.308    0.000    0.000    0.000    0.000 
#
# Total GULP energy -145242.660878 kJ/mol
# GULP energy per Si atom -5586.256188 kJ/mol
# Density = 1.972449 g / cm^3
# Si number density = 19.769488 Si / 1000 Ang^3
#
#
#
# Elastic Constant Matrix: (Units=GPa)
#
#
# Indices 1 2 3 4 5 6 
#
# 1 149.5922 39.3632 14.0317 0.0000 0.0000 0.0000
# 2 39.3632 79.8785 25.3082 0.0000 0.0000 0.0000
# 3 14.0317 25.3082 52.4883 0.0000 0.0000 0.0000
# 4 0.0000 0.0000 0.0000 15.3972 0.0000 0.0000
# 5 0.0000 0.0000 0.0000 0.0000 10.6796 0.0000
# 6 0.0000 0.0000 0.0000 0.0000 0.0000 41.7677
#
#
#
# Elastic Compliance Matrix: (Units=1/GPa)
#
#
# Indices 1 2 3 4 5 6 
#
# 1 0.007684 -0.003701 -0.000270 0.000000 0.000000 0.000000
# 2 -0.003701 0.016559 -0.006995 0.000000 0.000000 0.000000
# 3 -0.000270 -0.006995 0.022497 0.000000 0.000000 0.000000
# 4 0.000000 0.000000 0.000000 0.064947 0.000000 0.000000
# 5 0.000000 0.000000 0.000000 0.000000 0.093636 0.000000
# 6 0.000000 0.000000 0.000000 0.000000 0.000000 0.023942
#
#
# Mechanical properties :
#
#
# Convention : Reuss Voigt Hill
#
# Bulk Modulus (GPa) = 40.30868 48.81836 44.56352
# Shear Modulus (GPa) = 19.27037 27.11930 23.19483
#
# Velocity S-wave (km/s) = 3.12549 3.70777 3.42901
# Velocity P-wave (km/s) = 5.78433 6.56334 6.18611
#
# Compressibility (1/GPa) = 0.02480855
#
# Stress axis : x y z
#
# Youngs Moduli (GPa) = 130.13979 60.38962 44.45111
#
# Poissons Ratio (x) = 0.22351 0.01198
# Poissons Ratio (y) = 0.48167 0.31093
# Poissons Ratio (z) = 0.03508 0.42242
#
# Static dielectric constant tensor:
#      x y z
#    x 1.791700 0.000000 0.000000 
#    y 0.000000 1.667570 0.000000 
#    z 0.000000 0.000000 1.720470 
# 
# From -- ./inp_files/32178.got.cif
#   From: 2010.05.17/outbox.cif.g08.bks.cpg/sg24_17_cif.got.tgz:32178.got - 2010.06.04 00:33:39.
