data_PCOD9333754
_publ_section_title
;
Structure prediction by ZEFSAII (Michael W. Deem and Ramdas Pophale) SiO2 
 PCOD9333754
Probable space group: I 21 21 21
;
_chemical_formula_sum "Si O2"
_cell_formula_units_Z 44
_cell_length_a 11.487868
_cell_length_b 20.111349
_cell_length_c 9.456217
_cell_angle_alpha 90.000000
_cell_angle_beta 90.000000
_cell_angle_gamma 90.000000
_cell_volume 2184.731493
_symmetry_space_group_name_H-M "I 21 21 21"
_symmetry_group_IT_number 24
_symmetry_cell_setting 'orthorhombic'
loop_
_space_group_symop_operation_xyz
x,y,z
-x,1/2-y,z
x,-y,1/2-z
1/2-x,y,-z
1/2+x,1/2+y,1/2+z
1/2-x,-y,1/2+z
1/2+x,1/2-y,-z
-x,1/2+y,1/2-z
loop_
_atom_site_type_symbol
_atom_site_label
_atom_site_fract_x
_atom_site_fract_y
_atom_site_fract_z
Si Si1 0.290764 0.365722 0.335691
Si Si2 0.810560 0.500000 0.750000
Si Si3 0.696076 0.284210 0.345551
Si Si4 0.547855 0.079817 0.740660
Si Si5 0.674337 0.626567 0.637147
Si Si6 0.529220 0.594688 0.083899
O O1 0.250000 0.365161 0.500000
O O2 0.328492 0.290679 0.296825
O O3 0.406021 0.410313 0.336198
O O4 0.178627 0.391774 0.252411
O O5 0.730600 0.557972 0.691041
O O6 0.889308 0.533504 0.871398
O O7 0.750000 0.278761 0.500000
O O8 0.793799 0.316247 0.247076
O O9 0.592387 0.337752 0.362258
O O10 0.463030 0.112170 0.858291
O O11 0.494327 0.096881 0.584494
O O12 0.550295 0.000000 0.750000
O O13 0.750000 0.643345 0.500000
#
# Coordination Sequence:
#
# PCOD9333754 Si02
#       6
#     8   4   8   8   8   8
#     4   9  21  36  60  91 117 165 215 260 314 380
#     4  10  22  32  60  82 118 152 208 250 326 366
#     4  10  19  37  65  90 118 155 215 269 313 367
#     4  11  21  36  61  88 132 161 210 259 325 388
#     4  11  22  36  60  90 121 156 202 262 320 380
#     4  10  20  37  59  92 119 165 209 270 309 385
#
# _framework density 20.139775
#
# number of rings (size 3 to 8) (size 9 to 14) (size 15 to 20)
#    0.000    1.818    2.727    1.636    1.273    0.727 
#    0.000    0.000   20.000    0.000    0.000    0.000 
#    0.000    0.000    0.000    0.000    0.000    0.000 
#
# Total GULP energy -122737.515965 kJ/mol
# GULP energy per Si atom -5578.977998 kJ/mol
# Density = 2.009394 g / cm^3
# Si number density = 20.139775 Si / 1000 Ang^3
#
#
#
# Elastic Constant Matrix: (Units=GPa)
#
#
# Indices 1 2 3 4 5 6 
#
# 1 107.6813 7.8287 5.5493 0.0000 0.0000 0.0000
# 2 7.8287 50.7074 -1.6798 -0.0003 0.0000 0.0000
# 3 5.5493 -1.6798 33.4489 -0.0005 0.0000 -0.0001
# 4 0.0000 -0.0003 -0.0005 12.3647 0.0000 0.0000
# 5 0.0000 0.0000 0.0000 0.0000 26.0059 0.0000
# 6 0.0000 0.0000 -0.0001 0.0000 0.0000 12.2903
#
#
#
# Elastic Compliance Matrix: (Units=1/GPa)
#
#
# Indices 1 2 3 4 5 6 
#
# 1 0.009482 -0.001519 -0.001649 0.000000 0.000000 0.000000
# 2 -0.001519 0.019997 0.001256 0.000001 0.000000 0.000000
# 3 -0.001649 0.001256 0.030233 0.000001 0.000000 0.000000
# 4 0.000000 0.000001 0.000001 0.080875 0.000000 0.000000
# 5 0.000000 0.000000 0.000000 0.000000 0.038453 0.000000
# 6 0.000000 0.000000 0.000000 0.000000 0.000000 0.081365
#
#
# Mechanical properties :
#
#
# Convention : Reuss Voigt Hill
#
# Bulk Modulus (GPa) = 17.89273 23.91491 20.90382
# Shear Modulus (GPa) = 17.67669 22.14147 19.90908
#
# Velocity S-wave (km/s) = 2.96582 3.31930 3.14752
# Velocity P-wave (km/s) = 4.54221 5.15661 4.85913
#
# Compressibility (1/GPa) = 0.05588861
#
# Stress axis : x y z
#
# Youngs Moduli (GPa) = 105.46223 50.00734 33.07637
#
# Poissons Ratio (x) = 0.07594 0.05456
# Poissons Ratio (y) = 0.16015 -0.04155
# Poissons Ratio (z) = 0.17395 -0.06282
#
# Static dielectric constant tensor:
#      x y z
#    x 1.733690 0.000000 0.000000 
#    y 0.000000 1.717010 0.000000 
#    z 0.000000 0.000000 1.718730 
# 
# From -- ./inp_files/11180.got.cif
#   From: 2010.05.17/outbox.cif.g08.bks.cpg/sg24_6_cif.got.tgz:11180.got - 2010.06.04 00:33:39.
