data_PCOD9333942
_publ_section_title
;
Structure prediction by ZEFSAII (Michael W. Deem and Ramdas Pophale) SiO2 
 PCOD9333942
Probable space group: I 21 21 21
;
_chemical_formula_sum "Si O2"
_cell_formula_units_Z 60
_cell_length_a 17.204970
_cell_length_b 12.116043
_cell_length_c 13.995416
_cell_angle_alpha 90.000000
_cell_angle_beta 90.000000
_cell_angle_gamma 90.000000
_cell_volume 2917.430626
_symmetry_space_group_name_H-M "I 21 21 21"
_symmetry_group_IT_number 24
_symmetry_cell_setting 'orthorhombic'
loop_
_space_group_symop_operation_xyz
x,y,z
-x,1/2-y,z
x,-y,1/2-z
1/2-x,y,-z
1/2+x,1/2+y,1/2+z
1/2-x,-y,1/2+z
1/2+x,1/2-y,-z
-x,1/2+y,1/2-z
loop_
_atom_site_type_symbol
_atom_site_label
_atom_site_fract_x
_atom_site_fract_y
_atom_site_fract_z
Si Si1 0.054820 0.343211 0.042973
Si Si2 0.570165 0.506700 0.452305
Si Si3 0.914276 0.732954 0.027590
Si Si4 0.776068 0.134832 0.390030
Si Si5 0.617235 0.206205 0.312886
Si Si6 0.222047 0.384248 0.108603
Si Si7 0.981445 0.000000 0.750000
Si Si8 0.859755 0.716350 0.624096
O O1 0.086291 0.295847 0.941106
O O2 0.000000 0.250000 0.085842
O O3 0.000252 0.446496 0.018152
O O4 0.130940 0.358189 0.106059
O O5 0.601457 0.395311 0.501066
O O6 0.531210 0.493572 0.347623
O O7 0.635137 0.601606 0.433772
O O8 0.915456 0.784924 0.919974
O O9 0.000000 0.750000 0.067363
O O10 0.854640 0.794967 0.097908
O O11 0.750000 0.129942 0.500000
O O12 0.708523 0.195283 0.333237
O O13 0.774664 0.009190 0.352566
O O14 0.577442 0.102926 0.261231
O O15 0.606887 0.298919 0.231415
O O16 0.278467 0.282421 0.136388
O O17 0.250000 0.398699 0.000000
#
# Coordination Sequence:
#
# PCOD9333942 Si02
#       8
#     8   8   8   8   8   8   4   8
#     4   9  18  32  50  77 104 136 182 228 280 343
#     4  11  21  31  52  84 114 147 182 232 296 361
#     4  11  21  35  53  79 111 155 193 236 287 350
#     4   9  20  34  51  73 106 147 197 231 272 340
#     4  11  21  33  51  81 112 148 185 235 290 352
#     4   9  17  32  51  73 104 145 182 232 281 335
#     4  12  20  30  56  86 120 152 184 238 302 362
#     4  10  20  33  52  81 115 141 182 235 295 356
#
# _framework density 20.566041999999999
#
# number of rings (size 3 to 8) (size 9 to 14) (size 15 to 20)
#    0.000    1.867    2.667    2.400    3.733    0.000 
#    0.000   10.000    0.000    0.800    0.000    0.000 
#    0.000    0.000    0.000    0.000    0.000    0.000 
#
# Total GULP energy -167008.878722 kJ/mol
# GULP energy per Si atom -5566.962624 kJ/mol
# Density = 2.051923 g / cm^3
# Si number density = 20.566042 Si / 1000 Ang^3
#
#
#
# Elastic Constant Matrix: (Units=GPa)
#
#
# Indices 1 2 3 4 5 6 
#
# 1 117.6556 40.4086 6.2122 0.0000 0.0000 0.0000
# 2 40.4086 99.0251 10.4546 0.0000 0.0000 0.0000
# 3 6.2122 10.4546 38.4438 0.0000 0.0000 0.0000
# 4 0.0000 0.0000 0.0000 -16.5343 0.0000 0.0000
# 5 0.0000 0.0000 0.0000 0.0000 13.7021 0.0000
# 6 0.0000 0.0000 0.0000 0.0000 0.0000 25.0756
#
#
#
# Elastic Compliance Matrix: (Units=1/GPa)
#
#
# Indices 1 2 3 4 5 6 
#
# 1 0.009895 -0.003983 -0.000516 0.000000 0.000000 0.000000
# 2 -0.003983 0.012000 -0.002620 0.000000 0.000000 0.000000
# 3 -0.000516 -0.002620 0.026808 0.000000 0.000000 0.000000
# 4 0.000000 0.000000 0.000000 -0.060480 0.000000 0.000000
# 5 0.000000 0.000000 0.000000 0.000000 0.072981 0.000000
# 6 0.000000 0.000000 0.000000 0.000000 0.000000 0.039879
#
#
# Mechanical properties :
#
#
# Convention : Reuss Voigt Hill
#
# Bulk Modulus (GPa) = 29.01455 41.03059 35.02257
# Shear Modulus (GPa) = 39.42926 17.65194 28.54060
#
# Velocity S-wave (km/s) = 4.38334 2.93286 3.72930
# Velocity P-wave (km/s) = 6.30530 5.60918 5.96740
#
# Compressibility (1/GPa) = 0.03446547
#
# Stress axis : x y z
#
# Youngs Moduli (GPa) = 101.06485 83.33033 37.30261
#
# Poissons Ratio (x) = 0.33192 0.01924
# Poissons Ratio (y) = 0.40256 0.09773
# Poissons Ratio (z) = 0.05212 0.21831
#
# Static dielectric constant tensor:
#      x y z
#    x 1.841730 0.000000 0.000000 
#    y 0.000000 1.839010 0.000000 
#    z 0.000000 0.000000 1.753000 
# 
# From -- ./inp_files/27191.got.cif
#   From: 2010.05.17/outbox.cif.g08.bks.cpg/sg24_14_cif.got.tgz:27191.got - 2010.06.04 00:33:39.
