data_PCOD9333072
_publ_section_title
;
Structure prediction by ZEFSAII (Michael W. Deem and Ramdas Pophale) SiO2 
 PCOD9333072
Probable space group: I 21 21 21
;
_chemical_formula_sum "Si O2"
_cell_formula_units_Z 44
_cell_length_a 11.767523
_cell_length_b 23.999587
_cell_length_c 6.533163
_cell_angle_alpha 90.000000
_cell_angle_beta 90.000000
_cell_angle_gamma 90.000000
_cell_volume 1845.067750
_symmetry_space_group_name_H-M "I 21 21 21"
_symmetry_group_IT_number 24
_symmetry_cell_setting 'orthorhombic'
loop_
_space_group_symop_operation_xyz
x,y,z
-x,1/2-y,z
x,-y,1/2-z
1/2-x,y,-z
1/2+x,1/2+y,1/2+z
1/2-x,-y,1/2+z
1/2+x,1/2-y,-z
-x,1/2+y,1/2-z
loop_
_atom_site_type_symbol
_atom_site_label
_atom_site_fract_x
_atom_site_fract_y
_atom_site_fract_z
Si Si1 0.573020 0.660828 0.855095
Si Si2 0.843132 0.783024 0.207487
Si Si3 0.907829 0.202474 0.816586
Si Si4 0.871515 0.557189 0.919994
Si Si5 0.466110 0.500000 0.750000
Si Si6 0.512013 0.408061 0.028052
O O1 0.632391 0.719908 0.852662
O O2 0.438568 0.674704 0.880255
O O3 0.583314 0.626729 0.641065
O O4 0.624600 0.622962 0.029852
O O5 0.875574 0.783224 0.449155
O O6 0.789946 0.795566 0.805113
O O7 0.000000 0.250000 0.755281
O O8 0.950515 0.139019 0.838477
O O9 0.908774 0.555907 0.682243
O O10 0.750000 0.536065 0.000000
O O11 0.963015 0.533079 0.078727
O O12 0.426183 0.551552 0.602697
#
# Coordination Sequence:
#
# PCOD9333072 Si02
#       6
#     8   8   8   8   4   8
#     4   9  19  39  58  92 132 176 206 261 317 382
#     4   9  17  35  57  91 139 173 214 256 315 386
#     4  10  18  32  62  94 133 177 211 266 322 395
#     4  11  25  37  61  93 126 163 214 274 330 401
#     4  10  24  42  66  84 128 164 212 290 342 392
#     4  10  21  41  60  95 124 167 221 263 340 393
#
# _framework density 23.847365
#
# number of rings (size 3 to 8) (size 9 to 14) (size 15 to 20)
#    0.000    2.182    3.636    0.545    5.091    2.182 
#    3.273    0.909    0.000    0.000  141.818    0.000 
#    0.000    0.000    0.000    0.000    0.000    0.000 
#
# Total GULP energy -122764.643175 kJ/mol
# GULP energy per Si atom -5580.211053 kJ/mol
# Density = 2.379309 g / cm^3
# Si number density = 23.847365 Si / 1000 Ang^3
#
#
#
# Elastic Constant Matrix: (Units=GPa)
#
#
# Indices 1 2 3 4 5 6 
#
# 1 106.9928 20.7601 32.1984 0.0005 0.0005 0.0000
# 2 20.7601 105.0809 27.7579 -0.0001 0.0003 0.0013
# 3 32.1984 27.7579 111.5972 -0.0216 0.0163 0.0061
# 4 0.0005 -0.0001 -0.0216 51.5500 0.0031 0.0031
# 5 0.0005 0.0003 0.0163 0.0031 27.8105 -0.0006
# 6 0.0000 0.0013 0.0061 0.0031 -0.0006 7.5968
#
#
#
# Elastic Compliance Matrix: (Units=1/GPa)
#
#
# Indices 1 2 3 4 5 6 
#
# 1 0.010412 -0.001352 -0.002668 -0.000001 0.000001 0.000002
# 2 -0.001352 0.010361 -0.002187 -0.000001 0.000001 0.000000
# 3 -0.002668 -0.002187 0.010274 0.000004 -0.000006 -0.000008
# 4 -0.000001 -0.000001 0.000004 0.019399 -0.000002 -0.000008
# 5 0.000001 0.000001 -0.000006 -0.000002 0.035958 0.000003
# 6 0.000002 0.000000 -0.000008 -0.000008 0.000003 0.131634
#
#
# Mechanical properties :
#
#
# Convention : Reuss Voigt Hill
#
# Bulk Modulus (GPa) = 53.66674 53.90041 53.78357
# Shear Modulus (GPa) = 21.12707 33.58842 27.35774
#
# Velocity S-wave (km/s) = 2.97968 3.75704 3.39071
# Velocity P-wave (km/s) = 5.86440 6.43986 6.15885
#
# Compressibility (1/GPa) = 0.01863352
#
# Stress axis : x y z
#
# Youngs Moduli (GPa) = 96.04668 96.51244 97.32858
#
# Poissons Ratio (x) = 0.13051 0.25964
# Poissons Ratio (y) = 0.12988 0.21286
# Poissons Ratio (z) = 0.25622 0.21108
#
# Static dielectric constant tensor:
#      x y z
#    x 1.909050 0.000000 0.000000 
#    y 0.000000 1.935080 0.000000 
#    z 0.000000 0.000000 2.069690 
# 
# From -- ./inp_files/4777.got.cif
#   From: 2010.05.17/outbox.cif.g08.bks.cpg/sg24_3_cif.got.tgz:4777.got - 2010.06.04 00:33:39.
