data_PCOD9333171
_publ_section_title
;
Structure prediction by ZEFSAII (Michael W. Deem and Ramdas Pophale) SiO2 
 PCOD9333171
Probable space group: I 21 21 21
;
_chemical_formula_sum "Si O2"
_cell_formula_units_Z 64
_cell_length_a 7.831518
_cell_length_b 30.757664
_cell_length_c 11.554216
_cell_angle_alpha 90.000000
_cell_angle_beta 90.000000
_cell_angle_gamma 90.000000
_cell_volume 2783.170298
_symmetry_space_group_name_H-M "I 21 21 21"
_symmetry_group_IT_number 24
_symmetry_cell_setting 'orthorhombic'
loop_
_space_group_symop_operation_xyz
x,y,z
-x,1/2-y,z
x,-y,1/2-z
1/2-x,y,-z
1/2+x,1/2+y,1/2+z
1/2-x,-y,1/2+z
1/2+x,1/2-y,-z
-x,1/2+y,1/2-z
loop_
_atom_site_type_symbol
_atom_site_label
_atom_site_fract_x
_atom_site_fract_y
_atom_site_fract_z
Si Si1 0.557044 0.953052 0.954954
Si Si2 0.079821 0.292888 0.610341
Si Si3 0.899385 0.622076 0.913939
Si Si4 0.604828 0.206414 0.754377
Si Si5 0.440519 0.704770 0.379179
Si Si6 0.003259 0.885925 0.666136
Si Si7 0.597058 0.890902 0.735605
Si Si8 0.044754 0.550798 0.476807
O O1 0.560317 0.922744 0.842143
O O2 0.492254 0.002231 0.942313
O O3 0.750000 0.956106 0.000000
O O4 0.455057 0.925774 0.049168
O O5 0.222046 0.288458 0.360290
O O6 0.999799 0.294084 0.742470
O O7 0.000000 0.250000 0.554909
O O8 0.038985 0.340295 0.563230
O O9 0.874737 0.619180 0.776294
O O10 0.750000 0.635089 0.000000
O O11 0.500000 0.250000 0.765439
O O12 0.736712 0.204730 0.862829
O O13 0.528860 0.158139 0.748360
O O14 0.500000 0.750000 0.433322
O O15 0.504362 0.657283 0.415055
O O16 0.805676 0.887308 0.716377
O O17 0.034992 0.928934 0.592458
O O18 0.521005 0.914741 0.624750
O O19 0.250000 0.550059 0.500000
#
# Coordination Sequence:
#
# PCOD9333171 Si02
#       8
#     8   8   8   8   8   8   8   8
#     4  11  20  36  59  87 122 152 203 268 322 383
#     4   8  16  34  53  75 118 157 200 246 294 379
#     4  11  22  37  60  88 118 167 206 253 327 385
#     4   9  16  28  53  84 121 157 196 254 306 368
#     4   7  13  28  52  75 110 154 193 248 299 361
#     4   9  17  36  58  86 120 155 206 263 310 378
#     4  10  18  35  56  88 126 155 202 265 314 374
#     4   9  20  33  62  90 111 161 213 263 327 378
#
# _framework density 22.995360000000002
#
# number of rings (size 3 to 8) (size 9 to 14) (size 15 to 20)
#    0.750    2.000    2.500    0.375    0.000    1.500 
#    0.000    3.125    5.500    0.000    0.000    0.000 
#    0.000    0.000    0.000    0.000    0.000    0.000 
#
# Total GULP energy -178468.802567 kJ/mol
# GULP energy per Si atom -5577.150080 kJ/mol
# Density = 2.294302 g / cm^3
# Si number density = 22.995360 Si / 1000 Ang^3
#
#
#
# Elastic Constant Matrix: (Units=GPa)
#
#
# Indices 1 2 3 4 5 6 
#
# 1 26.8856 33.7160 21.6898 0.0000 0.0000 0.0001
# 2 33.7160 237.4323 65.8629 0.0001 0.0000 0.0003
# 3 21.6898 65.8629 81.4806 0.0001 0.0000 0.0005
# 4 0.0000 0.0001 0.0001 24.0962 0.0000 0.0002
# 5 0.0000 0.0000 0.0000 0.0000 19.3230 0.0001
# 6 0.0001 0.0003 0.0005 0.0002 0.0001 -25.2775
#
#
#
# Elastic Compliance Matrix: (Units=1/GPa)
#
#
# Indices 1 2 3 4 5 6 
#
# 1 0.050787 -0.004462 -0.009912 0.000000 0.000000 0.000000
# 2 -0.004462 0.005821 -0.003518 0.000000 0.000000 0.000000
# 3 -0.009912 -0.003518 0.017755 0.000000 0.000000 0.000000
# 4 0.000000 0.000000 0.000000 0.041500 0.000000 0.000000
# 5 0.000000 0.000000 0.000000 0.000000 0.051752 0.000000
# 6 0.000000 0.000000 0.000000 0.000000 0.000000 -0.039561
#
#
# Mechanical properties :
#
#
# Convention : Reuss Voigt Hill
#
# Bulk Modulus (GPa) = 25.92093 65.37065 45.64579
# Shear Modulus (GPa) = 28.29674 18.59698 23.44686
#
# Velocity S-wave (km/s) = 3.51171 2.84690 3.19664
# Velocity P-wave (km/s) = 5.26684 6.26865 5.78945
#
# Compressibility (1/GPa) = 0.03857886
#
# Stress axis : x y z
#
# Youngs Moduli (GPa) = 19.68993 171.78788 56.32265
#
# Poissons Ratio (x) = 0.76656 0.55830
# Poissons Ratio (y) = 0.08786 0.19812
# Poissons Ratio (z) = 0.19518 0.60427
#
# Static dielectric constant tensor:
#      x y z
#    x 1.878490 0.000000 0.000000 
#    y 0.000000 1.861370 0.000000 
#    z 0.000000 0.000000 1.990190 
# 
# From -- ./inp_files/18909.got.cif
#   From: 2010.05.17/outbox.cif.g08.bks.cpg/sg24_10_cif.got.tgz:18909.got - 2010.06.04 00:33:39.
