data_PCOD9333590
_publ_section_title
;
Structure prediction by ZEFSAII (Michael W. Deem and Ramdas Pophale) SiO2 
 PCOD9333590
Probable space group: I 21 21 21
;
_chemical_formula_sum "Si O2"
_cell_formula_units_Z 48
_cell_length_a 31.011099
_cell_length_b 5.509182
_cell_length_c 13.354490
_cell_angle_alpha 90.000000
_cell_angle_beta 90.000000
_cell_angle_gamma 90.000000
_cell_volume 2281.558373
_symmetry_space_group_name_H-M "I 21 21 21"
_symmetry_group_IT_number 24
_symmetry_cell_setting 'orthorhombic'
loop_
_space_group_symop_operation_xyz
x,y,z
-x,1/2-y,z
x,-y,1/2-z
1/2-x,y,-z
1/2+x,1/2+y,1/2+z
1/2-x,-y,1/2+z
1/2+x,1/2-y,-z
-x,1/2+y,1/2-z
loop_
_atom_site_type_symbol
_atom_site_label
_atom_site_fract_x
_atom_site_fract_y
_atom_site_fract_z
Si Si1 0.294596 0.247176 0.898378
Si Si2 0.621263 0.505450 0.369132
Si Si3 0.826675 0.244075 0.476150
Si Si4 0.023492 0.001576 0.872550
Si Si5 0.198885 0.745286 0.687524
Si Si6 0.373382 0.749697 0.768149
O O1 0.302015 0.491838 0.962598
O O2 0.246447 0.264432 0.857752
O O3 0.330761 0.249055 0.807345
O O4 0.299152 0.989122 0.954904
O O5 0.614807 0.500000 0.250000
O O6 0.646611 0.287010 0.422855
O O7 0.572952 0.517211 0.409649
O O8 0.655785 0.722672 0.379883
O O9 0.858752 0.246830 0.382244
O O10 0.000000 0.750000 0.902813
O O11 0.023064 0.000000 0.750000
O O12 0.000000 0.250000 0.903279
O O13 0.193950 0.500000 0.750000
O O14 0.199925 0.000000 0.750000
O O15 0.397312 0.500000 0.750000
O O16 0.397100 0.000000 0.750000
#
# Coordination Sequence:
#
# PCOD9333590 Si02
#       6
#     8   8   8   8   8   8
#     4  10  19  35  56  79 108 150 199 234 270 322
#     4  10  24  40  56  83 117 149 192 242 292 349
#     4  10  20  34  55  79 109 148 190 234 277 326
#     4   9  19  37  61  80 100 138 186 237 294 351
#     4  11  22  37  57  80 115 160 198 245 295 333
#     4   8  14  27  49  73  98 131 179 228 260 301
#
# _framework density 21.038253999999998
#
# number of rings (size 3 to 8) (size 9 to 14) (size 15 to 20)
#    0.000    2.333    0.000    4.000    0.000    9.333 
#    0.000    1.667    0.000    0.000    0.000    0.000 
#    0.000   24.000    0.000    0.000    0.000   11.333 
#
# Total GULP energy -133730.039402 kJ/mol
# GULP energy per Si atom -5572.084975 kJ/mol
# Density = 2.099037 g / cm^3
# Si number density = 21.038254 Si / 1000 Ang^3
#
#
#
# Elastic Constant Matrix: (Units=GPa)
#
#
# Indices 1 2 3 4 5 6 
#
# 1 119.5700 66.7544 21.5028 0.0000 0.0000 0.0000
# 2 66.7544 223.5006 38.8579 0.0000 0.0000 0.0000
# 3 21.5028 38.8579 60.7977 0.0000 0.0000 0.0000
# 4 0.0000 0.0000 0.0000 37.8347 0.0000 0.0000
# 5 0.0000 0.0000 0.0000 0.0000 5.7062 0.0000
# 6 0.0000 0.0000 0.0000 0.0000 0.0000 10.3616
#
#
#
# Elastic Compliance Matrix: (Units=1/GPa)
#
#
# Indices 1 2 3 4 5 6 
#
# 1 0.010223 -0.002728 -0.001872 0.000000 0.000000 0.000000
# 2 -0.002728 0.005761 -0.002718 0.000000 0.000000 0.000000
# 3 -0.001872 -0.002718 0.018847 0.000000 0.000000 0.000000
# 4 0.000000 0.000000 0.000000 0.026431 0.000000 0.000000
# 5 0.000000 0.000000 0.000000 0.000000 0.175248 0.000000
# 6 0.000000 0.000000 0.000000 0.000000 0.000000 0.096510
#
#
# Mechanical properties :
#
#
# Convention : Reuss Voigt Hill
#
# Bulk Modulus (GPa) = 49.51413 73.12204 61.31808
# Shear Modulus (GPa) = 14.10886 29.23071 21.66979
#
# Velocity S-wave (km/s) = 2.59246 3.73152 3.21287
# Velocity P-wave (km/s) = 5.70504 7.30738 6.55535
#
# Compressibility (1/GPa) = 0.02019626
#
# Stress axis : x y z
#
# Youngs Moduli (GPa) = 97.81955 173.56641 53.05873
#
# Poissons Ratio (x) = 0.47346 0.09933
# Poissons Ratio (y) = 0.26684 0.14419
# Poissons Ratio (z) = 0.18313 0.47168
#
# Static dielectric constant tensor:
#      x y z
#    x 1.741130 0.000000 0.000000 
#    y 0.000000 1.818670 0.000000 
#    z 0.000000 0.000000 1.879080 
# 
# From -- ./inp_files/28182.got.cif
#   From: 2010.05.17/outbox.cif.g08.bks.cpg/sg24_15_cif.got.tgz:28182.got - 2010.06.04 00:33:39.
