data_PCOD9333447
_publ_section_title
;
Structure prediction by ZEFSAII (Michael W. Deem and Ramdas Pophale) SiO2 
 PCOD9333447
Probable space group: I 21 21 21
;
_chemical_formula_sum "Si O2"
_cell_formula_units_Z 40
_cell_length_a 25.037498
_cell_length_b 5.059232
_cell_length_c 12.967141
_cell_angle_alpha 90.000000
_cell_angle_beta 90.000000
_cell_angle_gamma 90.000000
_cell_volume 1642.554378
_symmetry_space_group_name_H-M "I 21 21 21"
_symmetry_group_IT_number 24
_symmetry_cell_setting 'orthorhombic'
loop_
_space_group_symop_operation_xyz
x,y,z
-x,1/2-y,z
x,-y,1/2-z
1/2-x,y,-z
1/2+x,1/2+y,1/2+z
1/2-x,-y,1/2+z
1/2+x,1/2-y,-z
-x,1/2+y,1/2-z
loop_
_atom_site_type_symbol
_atom_site_label
_atom_site_fract_x
_atom_site_fract_y
_atom_site_fract_z
Si Si1 0.169390 0.826766 0.649358
Si Si2 0.943901 0.777125 0.586156
Si Si3 0.668063 0.484353 0.907780
Si Si4 0.768628 0.024200 0.383327
Si Si5 0.057583 0.221796 0.435985
O O1 0.109678 0.711452 0.650654
O O2 0.172974 0.968372 0.534827
O O3 0.216331 0.616772 0.658072
O O4 0.174014 0.000000 0.750000
O O5 0.947896 0.506980 0.521243
O O6 0.000000 0.750000 0.646155
O O7 0.936269 0.007509 0.500400
O O8 0.711062 0.684278 0.858883
O O9 0.682685 0.186755 0.874844
O O10 0.611031 0.616987 0.880401
O O11 0.750000 0.047449 0.500000
O O12 0.000000 0.250000 0.379480
#
# Coordination Sequence:
#
# PCOD9333447 Si02
#       5
#     8   8   8   8   8
#     4  10  21  36  55  80 107 142 190 234 265 317
#     4   9  18  32  47  67  99 137 174 212 256 300
#     4  10  19  34  51  71 101 138 171 210 268 318
#     4  10  19  33  51  70  98 137 174 213 267 317
#     4   9  16  29  50  72  96 130 173 215 251 306
#
# _framework density 24.352315999999998
#
# number of rings (size 3 to 8) (size 9 to 14) (size 15 to 20)
#    0.000    2.400    0.000    5.400    0.000    1.600 
#    0.000   33.000    0.000    0.000    0.000    0.000 
#    0.000    3.200    0.000    6.200    0.000    5.600 
#
# Total GULP energy -111537.916354 kJ/mol
# GULP energy per Si atom -5576.895818 kJ/mol
# Density = 2.429689 g / cm^3
# Si number density = 24.352316 Si / 1000 Ang^3
#
#
#
# Elastic Constant Matrix: (Units=GPa)
#
#
# Indices 1 2 3 4 5 6 
#
# 1 172.0825 8.2152 14.4377 0.0000 0.0000 0.0000
# 2 8.2152 142.9827 -1.9204 0.0000 0.0000 0.0000
# 3 14.4377 -1.9204 50.9328 0.0000 0.0000 0.0000
# 4 0.0000 0.0000 0.0000 20.4504 0.0000 0.0000
# 5 0.0000 0.0000 0.0000 0.0000 -26.3918 0.0000
# 6 0.0000 0.0000 0.0000 0.0000 0.0000 31.7492
#
#
#
# Elastic Compliance Matrix: (Units=1/GPa)
#
#
# Indices 1 2 3 4 5 6 
#
# 1 0.005972 -0.000366 -0.001707 0.000000 0.000000 0.000000
# 2 -0.000366 0.007020 0.000368 0.000000 0.000000 0.000000
# 3 -0.001707 0.000368 0.020131 0.000000 0.000000 0.000000
# 4 0.000000 0.000000 0.000000 0.048899 0.000000 0.000000
# 5 0.000000 0.000000 0.000000 0.000000 -0.037891 0.000000
# 6 0.000000 0.000000 0.000000 0.000000 0.000000 0.031497
#
#
# Mechanical properties :
#
#
# Convention : Reuss Voigt Hill
#
# Bulk Modulus (GPa) = 33.65347 45.27366 39.46356
# Shear Modulus (GPa) = 56.21679 28.17927 42.19803
#
# Velocity S-wave (km/s) = 4.80987 3.40538 4.16722
# Velocity P-wave (km/s) = 6.68550 5.83897 6.27653
#
# Compressibility (1/GPa) = 0.02971462
#
# Stress axis : x y z
#
# Youngs Moduli (GPa) = 167.45302 142.45353 49.67374
#
# Poissons Ratio (x) = 0.05214 0.08477
# Poissons Ratio (y) = 0.06129 -0.01830
# Poissons Ratio (z) = 0.28578 -0.05249
#
# Static dielectric constant tensor:
#      x y z
#    x 2.069270 0.000000 0.000000 
#    y 0.000000 1.915610 0.000000 
#    z 0.000000 0.000000 1.893740 
# 
# From -- ./inp_files/27714.got.cif
#   From: 2010.05.17/outbox.cif.g08.bks.cpg/sg24_14_cif.got.tgz:27714.got - 2010.06.04 00:33:39.
