data_PCOD9333465
_publ_section_title
;
Structure prediction by ZEFSAII (Michael W. Deem and Ramdas Pophale) SiO2 
 PCOD9333465
Probable space group: I 21 21 21
;
_chemical_formula_sum "Si O2"
_cell_formula_units_Z 64
_cell_length_a 30.803407
_cell_length_b 8.916458
_cell_length_c 11.562428
_cell_angle_alpha 90.000000
_cell_angle_beta 90.000000
_cell_angle_gamma 90.000000
_cell_volume 3175.705080
_symmetry_space_group_name_H-M "I 21 21 21"
_symmetry_group_IT_number 24
_symmetry_cell_setting 'orthorhombic'
loop_
_space_group_symop_operation_xyz
x,y,z
-x,1/2-y,z
x,-y,1/2-z
1/2-x,y,-z
1/2+x,1/2+y,1/2+z
1/2-x,-y,1/2+z
1/2+x,1/2-y,-z
-x,1/2+y,1/2-z
loop_
_atom_site_type_symbol
_atom_site_label
_atom_site_fract_x
_atom_site_fract_y
_atom_site_fract_z
Si Si1 0.320653 0.404646 0.010876
Si Si2 0.712073 0.137292 0.655043
Si Si3 0.086651 0.569467 0.621759
Si Si4 0.866739 0.825629 0.282546
Si Si5 0.701281 0.180766 0.241347
Si Si6 0.454589 0.822268 0.765725
Si Si7 0.547820 0.205983 0.470971
Si Si8 0.392453 0.824524 0.232449
O O1 0.295175 0.549777 0.964377
O O2 0.338795 0.318504 0.899552
O O3 0.365388 0.455422 0.071524
O O4 0.293781 0.306383 0.102036
O O5 0.667456 0.224035 0.683501
O O6 0.756514 0.221980 0.683779
O O7 0.713046 0.000000 0.750000
O O8 0.082607 0.500000 0.750000
O O9 0.055129 0.474137 0.539686
O O10 0.084798 0.744201 0.655747
O O11 0.911298 0.738598 0.294979
O O12 0.877440 0.000000 0.250000
O O13 0.656902 0.262841 0.273575
O O14 0.696139 0.000000 0.250000
O O15 0.500000 0.750000 0.725421
O O16 0.457423 0.000000 0.750000
O O17 0.448467 0.768402 0.899308
O O18 0.500000 0.250000 0.428947
O O19 0.582550 0.278061 0.383978
O O20 0.392497 0.000000 0.250000
#
# Coordination Sequence:
#
# PCOD9333465 Si02
#       8
#     8   8   8   8   8   8   8   8
#     4   9  16  30  54  80 111 149 194 245 294 349
#     4   8  17  29  49  82 109 143 196 245 289 353
#     4   9  18  35  59  83 114 152 192 243 301 361
#     4   9  18  33  55  81 109 145 196 253 300 359
#     4  10  19  33  53  82 117 154 196 243 296 359
#     4  11  24  41  60  85 118 157 205 260 319 388
#     4  10  21  39  61  84 114 155 200 256 317 374
#     4  10  21  36  57  89 122 158 201 249 313 387
#
# _framework density 20.153005
#
# number of rings (size 3 to 8) (size 9 to 14) (size 15 to 20)
#    0.000    2.750    0.000    4.875    0.000    9.000 
#    0.000    1.875    0.000    6.750    0.000   26.250 
#    0.000    0.000    0.000    0.000    0.000    0.000 
#
# Total GULP energy -178217.462805 kJ/mol
# GULP energy per Si atom -5569.295713 kJ/mol
# Density = 2.010714 g / cm^3
# Si number density = 20.153005 Si / 1000 Ang^3
#
#
#
# Elastic Constant Matrix: (Units=GPa)
#
#
# Indices 1 2 3 4 5 6 
#
# 1 126.3942 37.0765 25.5212 0.0000 0.0000 0.0000
# 2 37.0765 103.5272 8.2676 0.0000 0.0000 0.0000
# 3 25.5212 8.2676 64.8786 0.0000 0.0000 0.0000
# 4 0.0000 0.0000 0.0000 17.3400 0.0000 0.0000
# 5 0.0000 0.0000 0.0000 0.0000 22.6778 0.0000
# 6 0.0000 0.0000 0.0000 0.0000 0.0000 21.5810
#
#
#
# Elastic Compliance Matrix: (Units=1/GPa)
#
#
# Indices 1 2 3 4 5 6 
#
# 1 0.009507 -0.003138 -0.003340 0.000000 0.000000 0.000000
# 2 -0.003138 0.010794 -0.000141 0.000000 0.000000 0.000000
# 3 -0.003340 -0.000141 0.016745 0.000000 0.000000 0.000000
# 4 0.000000 0.000000 0.000000 0.057670 0.000000 0.000000
# 5 0.000000 0.000000 0.000000 0.000000 0.044096 0.000000
# 6 0.000000 0.000000 0.000000 0.000000 0.000000 0.046337
#
#
# Mechanical properties :
#
#
# Convention : Reuss Voigt Hill
#
# Bulk Modulus (GPa) = 42.00193 48.50340 45.25266
# Shear Modulus (GPa) = 24.23387 27.24876 25.74131
#
# Velocity S-wave (km/s) = 3.47146 3.68107 3.57780
# Velocity P-wave (km/s) = 6.07905 6.49514 6.29054
#
# Compressibility (1/GPa) = 0.02380843
#
# Stress axis : x y z
#
# Youngs Moduli (GPa) = 105.19025 92.64100 59.71885
#
# Poissons Ratio (x) = 0.29070 0.19944
# Poissons Ratio (y) = 0.33008 0.00843
# Poissons Ratio (z) = 0.35131 0.01308
#
# Static dielectric constant tensor:
#      x y z
#    x 1.772570 0.000000 0.000000 
#    y 0.000000 1.743320 0.000000 
#    z 0.000000 0.000000 1.844080 
# 
# From -- ./inp_files/23182.got.cif
#   From: 2010.05.17/outbox.cif.g08.bks.cpg/sg24_12_cif.got.tgz:23182.got - 2010.06.04 00:33:39.
