data_PCOD9333289
_publ_section_title
;
Structure prediction by ZEFSAII (Michael W. Deem and Ramdas Pophale) SiO2 
 PCOD9333289
Probable space group: I 21 21 21
;
_chemical_formula_sum "Si O2"
_cell_formula_units_Z 56
_cell_length_a 5.304053
_cell_length_b 15.263087
_cell_length_c 31.857011
_cell_angle_alpha 90.000000
_cell_angle_beta 90.000000
_cell_angle_gamma 90.000000
_cell_volume 2579.023267
_symmetry_space_group_name_H-M "I 21 21 21"
_symmetry_group_IT_number 24
_symmetry_cell_setting 'orthorhombic'
loop_
_space_group_symop_operation_xyz
x,y,z
-x,1/2-y,z
x,-y,1/2-z
1/2-x,y,-z
1/2+x,1/2+y,1/2+z
1/2-x,-y,1/2+z
1/2+x,1/2-y,-z
-x,1/2+y,1/2-z
loop_
_atom_site_type_symbol
_atom_site_label
_atom_site_fract_x
_atom_site_fract_y
_atom_site_fract_z
Si Si1 0.174832 0.826644 0.952696
Si Si2 0.286090 0.985283 0.201045
Si Si3 0.757185 0.918374 0.604241
Si Si4 0.298006 0.415129 0.657024
Si Si5 0.006068 0.980484 0.527050
Si Si6 0.000000 0.250000 0.106158
Si Si7 0.500000 0.250000 0.614656
Si Si8 0.100085 0.167638 0.830666
O O1 0.389079 0.822377 0.917937
O O2 0.000000 0.750000 0.936723
O O3 0.250000 0.801336 0.000000
O O4 0.044468 0.919203 0.958549
O O5 0.525674 0.939469 0.177594
O O6 0.030239 0.934625 0.188773
O O7 0.339557 0.000000 0.250000
O O8 0.248220 0.086274 0.186913
O O9 0.975789 0.929375 0.570191
O O10 0.587390 0.840545 0.584776
O O11 0.865319 0.879946 0.647338
O O12 0.661716 0.014411 0.618326
O O13 0.322683 0.313667 0.642563
O O14 0.750000 0.973782 0.500000
O O15 0.250000 0.956453 0.500000
O O16 0.227102 0.213640 0.134634
O O17 0.000000 0.250000 0.803407
#
# Coordination Sequence:
#
# PCOD9333289 Si02
#       8
#     8   8   8   8   8   4   4   8
#     4  11  23  39  61  94 138 190 242 290 340 396
#     4  11  24  48  71  99 141 179 220 279 352 426
#     4  10  22  40  70  97 131 174 228 290 335 407
#     4  11  26  44  71 102 137 183 228 278 350 400
#     4  11  27  41  65  96 135 184 235 283 349 404
#     4  10  18  38  73  96 128 156 238 278 344 391
#     4  12  28  42  67 104 148 184 240 296 330 423
#     4   9  20  38  65 102 121 168 224 278 329 405
#
# _framework density 21.713645
#
# number of rings (size 3 to 8) (size 9 to 14) (size 15 to 20)
#    0.000    1.429    2.143    1.714   14.000    0.000 
#    2.571    0.000    4.714    0.000    0.000    0.000 
#    0.000    0.000    0.000    0.000    0.000    0.000 
#
# Total GULP energy -155936.739724 kJ/mol
# GULP energy per Si atom -5569.169276 kJ/mol
# Density = 2.166422 g / cm^3
# Si number density = 21.713645 Si / 1000 Ang^3
#
#
#
# Elastic Constant Matrix: (Units=GPa)
#
#
# Indices 1 2 3 4 5 6 
#
# 1 91.2716 19.9745 15.8706 0.0000 0.0000 0.0000
# 2 19.9745 89.4080 27.1522 0.0000 0.0000 0.0000
# 3 15.8706 27.1522 56.8528 0.0000 0.0000 0.0000
# 4 0.0000 0.0000 0.0000 -0.9305 0.0000 0.0000
# 5 0.0000 0.0000 0.0000 0.0000 24.7778 0.0000
# 6 0.0000 0.0000 0.0000 0.0000 0.0000 34.9409
#
#
#
# Elastic Compliance Matrix: (Units=1/GPa)
#
#
# Indices 1 2 3 4 5 6 
#
# 1 0.011788 -0.001911 -0.002378 0.000000 0.000000 0.000000
# 2 -0.001911 0.013392 -0.005862 0.000000 0.000000 0.000000
# 3 -0.002378 -0.005862 0.021053 0.000000 0.000000 0.000000
# 4 0.000000 0.000000 0.000000 -1.074677 0.000000 0.000000
# 5 0.000000 0.000000 0.000000 0.000000 0.040359 0.000000
# 6 0.000000 0.000000 0.000000 0.000000 0.000000 0.028620
#
#
# Mechanical properties :
#
#
# Convention : Reuss Voigt Hill
#
# Bulk Modulus (GPa) = 38.56557 40.39189 39.47873
# Shear Modulus (GPa) = -5.37335 23.39330 9.00998
#
# Velocity S-wave (km/s) = -1.57481 3.28587 2.03923
# Velocity P-wave (km/s) = 3.80695 5.74790 4.87500
#
# Compressibility (1/GPa) = 0.02592987
#
# Stress axis : x y z
#
# Youngs Moduli (GPa) = 84.83141 74.67131 47.49967
#
# Poissons Ratio (x) = 0.14273 0.11294
# Poissons Ratio (y) = 0.16215 0.27846
# Poissons Ratio (z) = 0.20171 0.43774
#
# Static dielectric constant tensor:
#      x y z
#    x 1.938270 0.000000 0.000000 
#    y 0.000000 1.877290 0.000000 
#    z 0.000000 0.000000 1.790230 
# 
# From -- ./inp_files/37956.got.cif
#   From: 2010.05.17/outbox.cif.g08.bks.cpg/sg24_19_cif.got.tgz:37956.got - 2010.06.04 00:33:39.
