data_PCOD9333350
_publ_section_title
;
Structure prediction by ZEFSAII (Michael W. Deem and Ramdas Pophale) SiO2 
 PCOD9333350
Probable space group: I 21 21 21
;
_chemical_formula_sum "Si O2"
_cell_formula_units_Z 56
_cell_length_a 5.370648
_cell_length_b 25.117933
_cell_length_c 17.479635
_cell_angle_alpha 90.000000
_cell_angle_beta 90.000000
_cell_angle_gamma 90.000000
_cell_volume 2357.995361
_symmetry_space_group_name_H-M "I 21 21 21"
_symmetry_group_IT_number 24
_symmetry_cell_setting 'orthorhombic'
loop_
_space_group_symop_operation_xyz
x,y,z
-x,1/2-y,z
x,-y,1/2-z
1/2-x,y,-z
1/2+x,1/2+y,1/2+z
1/2-x,-y,1/2+z
1/2+x,1/2-y,-z
-x,1/2+y,1/2-z
loop_
_atom_site_type_symbol
_atom_site_label
_atom_site_fract_x
_atom_site_fract_y
_atom_site_fract_z
Si Si1 0.265357 0.158020 0.172309
Si Si2 0.250490 0.335765 0.907919
Si Si3 0.999626 0.412749 0.529857
Si Si4 0.006816 0.836026 0.841193
Si Si5 0.238507 0.461542 0.909924
Si Si6 0.497539 0.693031 0.923558
Si Si7 0.737617 0.528424 0.668426
O O1 0.477407 0.182376 0.117855
O O2 0.398167 0.166191 0.254748
O O3 0.236372 0.093223 0.171002
O O4 0.997572 0.180527 0.141362
O O5 0.238409 0.398985 0.888648
O O6 0.250000 0.328406 0.000000
O O7 0.750000 0.439476 0.500000
O O8 0.997601 0.394401 0.617839
O O9 0.250000 0.439350 0.500000
O O10 0.006814 0.356888 0.480491
O O11 0.238577 0.808333 0.882214
O O12 0.734279 0.813543 0.864277
O O13 0.478814 0.487397 0.871129
O O14 0.981622 0.485914 0.880281
O O15 0.250000 0.458043 0.000000
O O16 0.500000 0.750000 0.963707
O O17 0.753563 0.500000 0.750000
#
# Coordination Sequence:
#
# PCOD9333350 Si02
#       7
#     8   8   8   8   8   8   8
#     4  10  19  31  48  71 101 129 154 197 252 301
#     4   9  17  30  49  72  94 120 152 192 248 302
#     4   8  16  27  42  62  87 122 161 196 231 272
#     4  10  19  30  45  68  97 126 156 198 250 290
#     4   9  17  30  49  70  94 121 156 204 252 292
#     4  10  19  31  48  69  95 130 170 206 240 280
#     4  10  19  31  49  72  97 130 167 201 244 301
#
# _framework density 23.748987
#
# number of rings (size 3 to 8) (size 9 to 14) (size 15 to 20)
#    0.000    2.571    0.000    2.571    0.000    8.571 
#    0.000    0.000    0.000    7.714    0.000    0.000 
#    0.000   32.000    0.000    0.000    0.000    0.000 
#
# Total GULP energy -156169.709496 kJ/mol
# GULP energy per Si atom -5577.489625 kJ/mol
# Density = 2.369493 g / cm^3
# Si number density = 23.748987 Si / 1000 Ang^3
#
#
#
# Elastic Constant Matrix: (Units=GPa)
#
#
# Indices 1 2 3 4 5 6 
#
# 1 192.8694 -2.2650 38.6230 0.0000 0.0000 0.0000
# 2 -2.2650 45.6348 -26.1925 0.0000 0.0000 0.0000
# 3 38.6230 -26.1925 82.0344 0.0000 0.0000 0.0000
# 4 0.0000 0.0000 0.0000 5.5325 0.0000 0.0000
# 5 0.0000 0.0000 0.0000 0.0000 49.8254 0.0000
# 6 0.0000 0.0000 0.0000 0.0000 0.0000 18.6514
#
#
#
# Elastic Compliance Matrix: (Units=1/GPa)
#
#
# Indices 1 2 3 4 5 6 
#
# 1 0.005815 -0.001571 -0.003239 0.000000 0.000000 0.000000
# 2 -0.001571 0.027254 0.009441 0.000000 0.000000 0.000000
# 3 -0.003239 0.009441 0.016730 0.000000 0.000000 0.000000
# 4 0.000000 0.000000 0.000000 0.180750 0.000000 0.000000
# 5 0.000000 0.000000 0.000000 0.000000 0.020070 0.000000
# 6 0.000000 0.000000 0.000000 0.000000 0.000000 0.053615
#
#
# Mechanical properties :
#
#
# Convention : Reuss Voigt Hill
#
# Bulk Modulus (GPa) = 16.93144 37.87437 27.40291
# Shear Modulus (GPa) = 15.89026 35.49341 25.69184
#
# Velocity S-wave (km/s) = 2.58949 3.87010 3.29265
# Velocity P-wave (km/s) = 4.01066 5.99605 5.10088
#
# Compressibility (1/GPa) = 0.05906173
#
# Stress axis : x y z
#
# Youngs Moduli (GPa) = 171.96619 36.69171 59.77417
#
# Poissons Ratio (x) = 0.05763 0.19363
# Poissons Ratio (y) = 0.27009 -0.56435
# Poissons Ratio (z) = 0.55705 -0.34642
#
# Static dielectric constant tensor:
#      x y z
#    x 1.974190 0.000000 0.000000 
#    y 0.000000 1.958750 0.000000 
#    z 0.000000 0.000000 1.931290 
# 
# From -- ./inp_files/24077.got.cif
#   From: 2010.05.17/outbox.cif.g08.bks.cpg/sg24_13_cif.got.tgz:24077.got - 2010.06.04 00:33:39.
