data_PCOD9333456
_publ_section_title
;
Structure prediction by ZEFSAII (Michael W. Deem and Ramdas Pophale) SiO2 
 PCOD9333456
Probable space group: I 21 21 21
;
_chemical_formula_sum "Si O2"
_cell_formula_units_Z 36
_cell_length_a 5.235640
_cell_length_b 26.552236
_cell_length_c 13.184834
_cell_angle_alpha 90.000000
_cell_angle_beta 90.000000
_cell_angle_gamma 90.000000
_cell_volume 1832.928579
_symmetry_space_group_name_H-M "I 21 21 21"
_symmetry_group_IT_number 24
_symmetry_cell_setting 'orthorhombic'
loop_
_space_group_symop_operation_xyz
x,y,z
-x,1/2-y,z
x,-y,1/2-z
1/2-x,y,-z
1/2+x,1/2+y,1/2+z
1/2-x,-y,1/2+z
1/2+x,1/2-y,-z
-x,1/2+y,1/2-z
loop_
_atom_site_type_symbol
_atom_site_label
_atom_site_fract_x
_atom_site_fract_y
_atom_site_fract_z
Si Si1 0.829375 0.434459 0.640053
Si Si2 0.158940 0.370372 0.341470
Si Si3 0.250000 0.283647 0.500000
Si Si4 0.834708 0.451358 0.876583
Si Si5 0.160380 0.387864 0.103569
O O1 0.592292 0.398315 0.613904
O O2 0.779737 0.446293 0.757530
O O3 0.838350 0.490194 0.594585
O O4 0.097187 0.405552 0.634622
O O5 0.199119 0.319018 0.402450
O O6 0.142648 0.363711 0.217439
O O7 0.500000 0.250000 0.482718
O O8 0.602163 0.417387 0.917785
O O9 0.115998 0.428862 0.887223
O O10 0.250000 0.358394 0.000000
#
# Coordination Sequence:
#
# PCOD9333456 Si02
#       5
#     8   8   4   8   8
#     4   9  17  33  53  78 114 148 194 223 259 315
#     4  10  21  38  59  80 105 144 183 235 286 334
#     4  12  26  46  66  84 104 134 190 250 310 348
#     4   9  17  30  50  77 117 161 187 220 245 305
#     4  10  19  33  52  82 117 151 187 211 267 328
#
# _framework density 19.640702000000001
#
# number of rings (size 3 to 8) (size 9 to 14) (size 15 to 20)
#    0.000    2.222    0.000    3.333    0.000    5.333 
#   12.000    0.000    0.000    1.333    0.000    0.000 
#    0.000    0.000    0.000    0.000    0.000    0.000 
#
# Total GULP energy -100270.480440 kJ/mol
# GULP energy per Si atom -5570.582247 kJ/mol
# Density = 1.959600 g / cm^3
# Si number density = 19.640702 Si / 1000 Ang^3
#
#
#
# Elastic Constant Matrix: (Units=GPa)
#
#
# Indices 1 2 3 4 5 6 
#
# 1 136.3159 42.4058 14.8546 0.0000 0.0000 0.0000
# 2 42.4058 89.3920 29.1713 0.0000 0.0000 0.0000
# 3 14.8546 29.1713 92.1492 0.0000 0.0000 0.0000
# 4 0.0000 0.0000 0.0000 2.0286 0.0000 0.0000
# 5 0.0000 0.0000 0.0000 0.0000 16.1570 0.0000
# 6 0.0000 0.0000 0.0000 0.0000 0.0000 6.5739
#
#
#
# Elastic Compliance Matrix: (Units=1/GPa)
#
#
# Indices 1 2 3 4 5 6 
#
# 1 0.008607 -0.004048 -0.000106 0.000000 0.000000 0.000000
# 2 -0.004048 0.014380 -0.003900 0.000000 0.000000 0.000000
# 3 -0.000106 -0.003900 0.012103 0.000000 0.000000 0.000000
# 4 0.000000 0.000000 0.000000 0.492953 0.000000 0.000002
# 5 0.000000 0.000000 0.000000 0.000000 0.061893 0.000000
# 6 0.000000 0.000000 0.000000 0.000002 0.000000 0.152116
#
#
# Mechanical properties :
#
#
# Convention : Reuss Voigt Hill
#
# Bulk Modulus (GPa) = 52.68008 54.52450 53.60229
# Shear Modulus (GPa) = 6.54034 20.38026 13.46030
#
# Velocity S-wave (km/s) = 1.82681 3.22476 2.62072
# Velocity P-wave (km/s) = 5.59730 6.45652 6.04220
#
# Compressibility (1/GPa) = 0.01898251
#
# Stress axis : x y z
#
# Youngs Moduli (GPa) = 116.18688 69.54255 82.62083
#
# Poissons Ratio (x) = 0.28153 0.00875
# Poissons Ratio (y) = 0.47037 0.32218
# Poissons Ratio (z) = 0.01230 0.27118
#
# Static dielectric constant tensor:
#      x y z
#    x 1.671870 0.000000 0.000000 
#    y 0.000000 1.639040 0.000000 
#    z 0.000000 0.000000 1.870100 
# 
# From -- ./inp_files/6268.got.cif
#   From: 2010.05.17/outbox.cif.g08.bks.cpg/sg24_4_cif.got.tgz:6268.got - 2010.06.04 00:33:39.
