data_PCOD9333657
_publ_section_title
;
Structure prediction by ZEFSAII (Michael W. Deem and Ramdas Pophale) SiO2 
 PCOD9333657
Probable space group: I 21 21 21
;
_chemical_formula_sum "Si O2"
_cell_formula_units_Z 64
_cell_length_a 8.631758
_cell_length_b 22.236283
_cell_length_c 17.856871
_cell_angle_alpha 90.000000
_cell_angle_beta 90.000000
_cell_angle_gamma 90.000000
_cell_volume 3427.415922
_symmetry_space_group_name_H-M "I 21 21 21"
_symmetry_group_IT_number 24
_symmetry_cell_setting 'orthorhombic'
loop_
_space_group_symop_operation_xyz
x,y,z
-x,1/2-y,z
x,-y,1/2-z
1/2-x,y,-z
1/2+x,1/2+y,1/2+z
1/2-x,-y,1/2+z
1/2+x,1/2-y,-z
-x,1/2+y,1/2-z
loop_
_atom_site_type_symbol
_atom_site_label
_atom_site_fract_x
_atom_site_fract_y
_atom_site_fract_z
Si Si1 0.785275 0.103798 0.806452
Si Si2 0.835932 0.989690 0.425877
Si Si3 0.844643 0.570563 0.424111
Si Si4 0.620352 0.564328 0.284666
Si Si5 0.813484 0.753240 0.082463
Si Si6 0.339182 0.847890 0.803707
Si Si7 0.488731 0.682683 0.649330
Si Si8 0.167146 0.384549 0.361109
O O1 0.721488 0.047376 0.853673
O O2 0.687617 0.160499 0.837651
O O3 0.739486 0.100720 0.719558
O O4 0.969826 0.101270 0.810878
O O5 0.750000 0.966736 0.500000
O O6 0.018137 0.977479 0.432570
O O7 0.800929 0.059480 0.414071
O O8 0.750000 0.575791 0.500000
O O9 0.733181 0.554248 0.355109
O O10 0.927964 0.633270 0.402132
O O11 0.573860 0.500000 0.250000
O O12 0.716434 0.603476 0.224709
O O13 0.766886 0.703963 0.144473
O O14 0.772743 0.820741 0.108523
O O15 0.000000 0.750000 0.080183
O O16 0.750000 0.740583 0.000000
O O17 0.422077 0.820034 0.729644
O O18 0.482090 0.878046 0.848066
O O19 0.500000 0.750000 0.620154
#
# Coordination Sequence:
#
# PCOD9333657 Si02
#       8
#     8   8   8   8   8   8   8   8
#     4  10  21  35  58  84 110 140 184 238 279 333
#     4  11  21  35  56  80 110 147 188 233 289 344
#     4  10  22  38  55  80 116 148 180 234 295 347
#     4  11  21  36  57  85 116 147 188 233 282 345
#     4  10  21  37  55  79 114 147 185 232 277 330
#     4   9  19  35  56  79 111 151 186 227 284 335
#     4   9  18  38  62  80 105 146 189 230 282 343
#     4  10  19  36  57  79 106 148 193 231 279 337
#
# _framework density 18.67296
#
# number of rings (size 3 to 8) (size 9 to 14) (size 15 to 20)
#    0.000    2.000    0.000    5.625    0.000    1.000 
#    0.000   16.875    0.000    0.000    0.000    0.000 
#    0.000    0.000    0.000    0.000    0.000    0.000 
#
# Total GULP energy -178622.837624 kJ/mol
# GULP energy per Si atom -5581.963676 kJ/mol
# Density = 1.863046 g / cm^3
# Si number density = 18.672960 Si / 1000 Ang^3
#
#
#
# Elastic Constant Matrix: (Units=GPa)
#
#
# Indices 1 2 3 4 5 6 
#
# 1 78.0020 7.0644 16.1277 0.0000 0.0000 0.0000
# 2 7.0644 71.0783 23.8448 0.0000 0.0000 0.0000
# 3 16.1277 23.8448 90.1474 0.0000 0.0000 0.0000
# 4 0.0000 0.0000 0.0000 15.9745 0.0000 0.0000
# 5 0.0000 0.0000 0.0000 0.0000 27.0906 0.0000
# 6 0.0000 0.0000 0.0000 0.0000 0.0000 11.1864
#
#
#
# Elastic Compliance Matrix: (Units=1/GPa)
#
#
# Indices 1 2 3 4 5 6 
#
# 1 0.013334 -0.000576 -0.002233 0.000000 0.000000 0.000000
# 2 -0.000576 0.015464 -0.003987 0.000000 0.000000 0.000000
# 3 -0.002233 -0.003987 0.012547 0.000000 0.000000 0.000000
# 4 0.000000 0.000000 0.000000 0.062600 0.000000 0.000000
# 5 0.000000 0.000000 0.000000 0.000000 0.036913 0.000000
# 6 0.000000 0.000000 0.000000 0.000000 0.000000 0.089395
#
#
# Mechanical properties :
#
#
# Convention : Reuss Voigt Hill
#
# Bulk Modulus (GPa) = 36.03335 37.03350 36.53343
# Shear Modulus (GPa) = 19.75532 23.66301 21.70916
#
# Velocity S-wave (km/s) = 3.25616 3.56369 3.41339
# Velocity P-wave (km/s) = 5.78583 6.06703 5.92810
#
# Compressibility (1/GPa) = 0.02775207
#
# Stress axis : x y z
#
# Youngs Moduli (GPa) = 74.99582 64.66687 79.69946
#
# Poissons Ratio (x) = 0.03725 0.17798
# Poissons Ratio (y) = 0.04321 0.31778
# Poissons Ratio (z) = 0.16748 0.25784
#
# Static dielectric constant tensor:
#      x y z
#    x 1.643310 0.000000 0.000000 
#    y 0.000000 1.639230 0.000000 
#    z 0.000000 0.000000 1.624430 
# 
# From -- ./inp_files/29795.got.cif
#   From: 2010.05.17/outbox.cif.g08.bks.cpg/sg24_15_cif.got.tgz:29795.got - 2010.06.04 00:33:39.
