data_PCOD9333559
_publ_section_title
;
Structure prediction by ZEFSAII (Michael W. Deem and Ramdas Pophale) SiO2 
 PCOD9333559
Probable space group: I 21 21 21
;
_chemical_formula_sum "Si O2"
_cell_formula_units_Z 56
_cell_length_a 14.933256
_cell_length_b 22.004419
_cell_length_c 8.892312
_cell_angle_alpha 90.000000
_cell_angle_beta 90.000000
_cell_angle_gamma 90.000000
_cell_volume 2921.992578
_symmetry_space_group_name_H-M "I 21 21 21"
_symmetry_group_IT_number 24
_symmetry_cell_setting 'orthorhombic'
loop_
_space_group_symop_operation_xyz
x,y,z
-x,1/2-y,z
x,-y,1/2-z
1/2-x,y,-z
1/2+x,1/2+y,1/2+z
1/2-x,-y,1/2+z
1/2+x,1/2-y,-z
-x,1/2+y,1/2-z
loop_
_atom_site_type_symbol
_atom_site_label
_atom_site_fract_x
_atom_site_fract_y
_atom_site_fract_z
Si Si1 0.350050 0.654928 0.448399
Si Si2 0.626741 0.500000 0.750000
Si Si3 0.489131 0.888498 0.638635
Si Si4 0.178546 0.690622 0.885090
Si Si5 0.143343 0.798473 0.517485
Si Si6 0.750000 0.566309 0.000000
Si Si7 0.005991 0.314589 0.414161
Si Si8 0.652260 0.674803 0.149397
O O1 0.250000 0.638194 0.500000
O O2 0.430165 0.615371 0.518540
O O3 0.340292 0.656749 0.269084
O O4 0.368890 0.725721 0.495435
O O5 0.563459 0.549807 0.670122
O O6 0.685983 0.527399 0.888801
O O7 0.414260 0.838081 0.596353
O O8 0.527533 0.866975 0.798462
O O9 0.206818 0.761115 0.852763
O O10 0.250000 0.663572 0.000000
O O11 0.085038 0.693609 0.968648
O O12 0.250000 0.810185 0.500000
O O13 0.112282 0.820934 0.683369
O O14 0.794614 0.613405 0.881048
O O15 0.917924 0.325308 0.512775
O O16 0.000000 0.250000 0.331089
#
# Coordination Sequence:
#
# PCOD9333559 Si02
#       8
#     8   4   8   8   8   4   8   8
#     4  10  21  37  64  97 130 164 207 265 336 399
#     4  12  30  42  66  88 124 182 238 266 314 370
#     4  12  23  42  58  90 131 173 221 273 311 376
#     4  10  19  34  59  98 126 159 196 248 327 405
#     4  10  21  34  61  95 129 170 203 259 341 402
#     4  12  24  46  60  90 122 178 220 272 302 382
#     4  10  20  33  58  86 119 161 200 260 328 381
#     4  10  20  36  59  85 129 160 205 252 320 383
#
# _framework density 19.165002999999999
#
# number of rings (size 3 to 8) (size 9 to 14) (size 15 to 20)
#    0.000    1.429    2.143    3.857    3.000    4.571 
#    0.000    0.000    0.000    2.571    0.000    0.000 
#    0.000    0.000    0.000    0.000    0.000    0.000 
#
# Total GULP energy -156134.546327 kJ/mol
# GULP energy per Si atom -5576.233797 kJ/mol
# Density = 1.912138 g / cm^3
# Si number density = 19.165003 Si / 1000 Ang^3
#
#
#
# Elastic Constant Matrix: (Units=GPa)
#
#
# Indices 1 2 3 4 5 6 
#
# 1 84.5835 49.8567 34.2832 0.0000 0.0000 0.0000
# 2 49.8567 81.1297 40.9815 0.0000 0.0000 0.0000
# 3 34.2832 40.9815 99.1856 0.0000 0.0000 0.0000
# 4 0.0000 0.0000 0.0000 16.7838 0.0000 0.0000
# 5 0.0000 0.0000 0.0000 0.0000 37.1863 0.0000
# 6 0.0000 0.0000 0.0000 0.0000 0.0000 29.2914
#
#
#
# Elastic Compliance Matrix: (Units=1/GPa)
#
#
# Indices 1 2 3 4 5 6 
#
# 1 0.018907 -0.010512 -0.002192 0.000000 0.000000 0.000000
# 2 -0.010512 0.021421 -0.005217 0.000000 0.000000 0.000000
# 3 -0.002192 -0.005217 0.012995 0.000000 0.000000 0.000000
# 4 0.000000 0.000000 0.000000 0.059581 0.000000 0.000000
# 5 0.000000 0.000000 0.000000 0.000000 0.026892 0.000000
# 6 0.000000 0.000000 0.000000 0.000000 0.000000 0.034140
#
#
# Mechanical properties :
#
#
# Convention : Reuss Voigt Hill
#
# Bulk Modulus (GPa) = 57.20326 57.23795 57.22061
# Shear Modulus (GPa) = 23.19046 25.97081 24.58063
#
# Velocity S-wave (km/s) = 3.48234 3.68518 3.58520
# Velocity P-wave (km/s) = 6.78833 6.93096 6.86002
#
# Compressibility (1/GPa) = 0.01748152
#
# Stress axis : x y z
#
# Youngs Moduli (GPa) = 52.89021 46.68253 76.94972
#
# Poissons Ratio (x) = 0.49072 0.16867
# Poissons Ratio (y) = 0.55597 0.40148
# Poissons Ratio (z) = 0.11593 0.24357
#
# Static dielectric constant tensor:
#      x y z
#    x 1.663770 0.000000 0.000000 
#    y 0.000000 1.677340 0.000000 
#    z 0.000000 0.000000 1.689790 
# 
# From -- ./inp_files/13210.got.cif
#   From: 2010.05.17/outbox.cif.g08.bks.cpg/sg24_7_cif.got.tgz:13210.got - 2010.06.04 00:33:39.
