data_PCOD9333498
_publ_section_title
;
Structure prediction by ZEFSAII (Michael W. Deem and Ramdas Pophale) SiO2 
 PCOD9333498
Probable space group: I 21 21 21
;
_chemical_formula_sum "Si O2"
_cell_formula_units_Z 36
_cell_length_a 13.795623
_cell_length_b 12.642513
_cell_length_c 10.684223
_cell_angle_alpha 90.000000
_cell_angle_beta 90.000000
_cell_angle_gamma 90.000000
_cell_volume 1863.449684
_symmetry_space_group_name_H-M "I 21 21 21"
_symmetry_group_IT_number 24
_symmetry_cell_setting 'orthorhombic'
loop_
_space_group_symop_operation_xyz
x,y,z
-x,1/2-y,z
x,-y,1/2-z
1/2-x,y,-z
1/2+x,1/2+y,1/2+z
1/2-x,-y,1/2+z
1/2+x,1/2-y,-z
-x,1/2+y,1/2-z
loop_
_atom_site_type_symbol
_atom_site_label
_atom_site_fract_x
_atom_site_fract_y
_atom_site_fract_z
Si Si1 0.790258 0.183701 0.271901
Si Si2 0.982859 0.873531 0.109461
Si Si3 0.750000 0.126802 0.000000
Si Si4 0.199820 0.925124 0.135555
Si Si5 0.886259 0.043459 0.625185
O O1 0.885454 0.115118 0.308291
O O2 0.782137 0.190952 0.122091
O O3 0.786418 0.300697 0.330804
O O4 0.700696 0.117565 0.326816
O O5 0.000000 0.750000 0.128981
O O6 0.082290 0.935890 0.130747
O O7 0.954188 0.893893 0.966907
O O8 0.663079 0.051247 0.047001
O O9 0.234830 0.000000 0.250000
O O10 0.250000 0.946229 0.000000
O O11 0.936056 0.000000 0.750000
#
# Coordination Sequence:
#
# PCOD9333498 Si02
#       5
#     8   8   4   8   8
#     4  10  20  38  62  93 121 150 193 248 308 355
#     4  10  20  37  61  83 118 155 198 245 291 356
#     4  10  20  30  64  92 126 142 182 256 302 366
#     4  11  26  42  63  81 118 172 206 243 283 350
#     4  10  19  33  60  95 119 148 184 249 317 353
#
# _framework density 19.319009999999999
#
# number of rings (size 3 to 8) (size 9 to 14) (size 15 to 20)
#    0.000    1.778    2.222    2.667    4.667    0.889 
#    0.000    0.000    0.000    0.000    0.000    0.000 
#    0.000    0.000    0.000    0.000    0.000    0.000 
#
# Total GULP energy -100341.749369 kJ/mol
# GULP energy per Si atom -5574.541632 kJ/mol
# Density = 1.927504 g / cm^3
# Si number density = 19.319010 Si / 1000 Ang^3
#
#
#
# Elastic Constant Matrix: (Units=GPa)
#
#
# Indices 1 2 3 4 5 6 
#
# 1 50.0773 12.3341 39.3415 0.0000 0.0000 0.0000
# 2 12.3341 42.4307 30.1724 0.0000 0.0000 0.0000
# 3 39.3415 30.1724 153.0261 0.0000 0.0000 0.0000
# 4 0.0000 0.0000 0.0000 42.9857 0.0000 0.0000
# 5 0.0000 0.0000 0.0000 0.0000 -0.1479 0.0000
# 6 0.0000 0.0000 0.0000 0.0000 0.0000 -50.3750
#
#
#
# Elastic Compliance Matrix: (Units=1/GPa)
#
#
# Indices 1 2 3 4 5 6 
#
# 1 0.025388 -0.003185 -0.005899 0.000000 0.000000 0.000000
# 2 -0.003185 0.027811 -0.004665 0.000000 0.000000 0.000000
# 3 -0.005899 -0.004665 0.008971 0.000000 0.000000 0.000000
# 4 0.000000 0.000000 0.000000 0.023264 0.000000 0.000000
# 5 0.000000 0.000000 0.000000 0.000000 -6.761486 0.000000
# 6 0.000000 0.000000 0.000000 0.000000 0.000000 -0.019851
#
#
# Mechanical properties :
#
#
# Convention : Reuss Voigt Hill
#
# Bulk Modulus (GPa) = 28.84156 45.47002 37.15579
# Shear Modulus (GPa) = -0.75111 9.40497 4.32693
#
# Velocity S-wave (km/s) = -0.62421 2.20880 1.49820
# Velocity P-wave (km/s) = 3.80026 5.48567 4.71882
#
# Compressibility (1/GPa) = 0.03467219
#
# Stress axis : x y z
#
# Youngs Moduli (GPa) = 39.38876 35.95737 111.46881
#
# Poissons Ratio (x) = 0.11453 0.65755
# Poissons Ratio (y) = 0.12546 0.51996
# Poissons Ratio (z) = 0.23235 0.16773
#
# Static dielectric constant tensor:
#      x y z
#    x 1.702790 0.000000 0.000000 
#    y 0.000000 1.662640 0.000000 
#    z 0.000000 0.000000 1.684250 
# 
# From -- ./inp_files/19206.got.cif
#   From: 2010.05.17/outbox.cif.g08.bks.cpg/sg24_10_cif.got.tgz:19206.got - 2010.06.04 00:33:39.
