data_PCOD9333976
_publ_section_title
;
Structure prediction by ZEFSAII (Michael W. Deem and Ramdas Pophale) SiO2 
 PCOD9333976
Probable space group: I 21 21 21
;
_chemical_formula_sum "Si O2"
_cell_formula_units_Z 56
_cell_length_a 23.850730
_cell_length_b 5.229301
_cell_length_c 26.898113
_cell_angle_alpha 90.000000
_cell_angle_beta 90.000000
_cell_angle_gamma 90.000000
_cell_volume 3354.803832
_symmetry_space_group_name_H-M "I 21 21 21"
_symmetry_group_IT_number 24
_symmetry_cell_setting 'orthorhombic'
loop_
_space_group_symop_operation_xyz
x,y,z
-x,1/2-y,z
x,-y,1/2-z
1/2-x,y,-z
1/2+x,1/2+y,1/2+z
1/2-x,-y,1/2+z
1/2+x,1/2-y,-z
-x,1/2+y,1/2-z
loop_
_atom_site_type_symbol
_atom_site_label
_atom_site_fract_x
_atom_site_fract_y
_atom_site_fract_z
Si Si1 0.867133 0.486610 0.305837
Si Si2 0.735285 0.472599 0.192859
Si Si3 0.276836 0.498129 0.369148
Si Si4 0.656083 0.124953 0.615843
Si Si5 0.858178 0.523801 0.031091
Si Si6 0.187063 0.508048 0.520310
Si Si7 0.565855 0.726596 0.602129
O O1 0.889192 0.500000 0.250000
O O2 0.802700 0.582192 0.305121
O O3 0.858814 0.202405 0.328057
O O4 0.907018 0.616041 0.346829
O O5 0.717354 0.500000 0.250000
O O6 0.707609 0.230052 0.166635
O O7 0.724188 0.729313 0.160696
O O8 0.211859 0.539427 0.385665
O O9 0.310904 0.507259 0.420159
O O10 0.670704 0.374939 0.582613
O O11 0.601706 0.985310 0.594593
O O12 0.917845 0.443159 0.054154
O O13 0.831589 0.278590 0.003813
O O14 0.851718 0.772900 0.997183
O O15 0.250000 0.453529 0.500000
O O16 0.500000 0.750000 0.607291
#
# Coordination Sequence:
#
# PCOD9333976 Si02
#       7
#     8   8   8   8   8   8   8
#     4   9  20  34  50  71  95 130 177 236 287 316
#     4  10  20  34  53  75 105 142 175 217 260 313
#     4  11  20  33  54  78 104 134 177 212 267 313
#     4  10  20  36  52  71 100 129 174 226 270 327
#     4  11  22  36  51  77 104 129 168 219 271 329
#     4  12  22  32  55  79 105 134 165 221 277 317
#     4  11  22  39  56  71  97 137 184 231 281 332
#
# _framework density 16.692481999999998
#
# number of rings (size 3 to 8) (size 9 to 14) (size 15 to 20)
#    0.000    1.429    4.286    1.714    4.000    2.857 
#    2.571    0.000    0.000    0.000    0.000    0.000 
#    0.000    0.000    0.000    0.000    0.000   40.000 
#
# Total GULP energy -155963.374460 kJ/mol
# GULP energy per Si atom -5570.120516 kJ/mol
# Density = 1.665449 g / cm^3
# Si number density = 16.692482 Si / 1000 Ang^3
#
#
#
# Elastic Constant Matrix: (Units=GPa)
#
#
# Indices 1 2 3 4 5 6 
#
# 1 35.3290 28.6557 47.4022 0.0000 0.0000 0.0000
# 2 28.6557 105.9453 63.1143 0.0000 0.0000 0.0000
# 3 47.4022 63.1143 155.5805 0.0000 0.0000 0.0000
# 4 0.0000 0.0000 0.0000 29.1380 0.0000 0.0000
# 5 0.0000 0.0000 0.0000 0.0000 18.6204 0.0000
# 6 0.0000 0.0000 0.0000 0.0000 0.0000 10.1226
#
#
#
# Elastic Compliance Matrix: (Units=1/GPa)
#
#
# Indices 1 2 3 4 5 6 
#
# 1 0.050555 -0.005931 -0.012997 0.000000 0.000000 0.000000
# 2 -0.005931 0.013143 -0.003524 0.000000 0.000000 0.000000
# 3 -0.012997 -0.003524 0.011817 0.000000 0.000000 0.000000
# 4 0.000000 0.000000 0.000000 0.034319 0.000000 0.000000
# 5 0.000000 0.000000 0.000000 0.000000 0.053705 0.000000
# 6 0.000000 0.000000 0.000000 0.000000 0.000000 0.098789
#
#
# Mechanical properties :
#
#
# Convention : Reuss Voigt Hill
#
# Bulk Modulus (GPa) = 32.66979 63.91102 48.29041
# Shear Modulus (GPa) = 15.75121 22.08835 18.91978
#
# Velocity S-wave (km/s) = 3.07516 3.64160 3.37030
# Velocity P-wave (km/s) = 5.67652 7.48679 6.64360
#
# Compressibility (1/GPa) = 0.03060932
#
# Stress axis : x y z
#
# Youngs Moduli (GPa) = 19.78063 76.08777 84.62265
#
# Poissons Ratio (x) = 0.45130 1.09982
# Poissons Ratio (y) = 0.11732 0.29825
# Poissons Ratio (z) = 0.25708 0.26817
#
# Static dielectric constant tensor:
#      x y z
#    x 1.526640 0.000000 0.000000 
#    y 0.000000 1.664530 0.000000 
#    z 0.000000 0.000000 1.613110 
# 
# From -- ./inp_files/34836.got.cif
#   From: 2010.05.17/outbox.cif.g08.bks.cpg/sg24_18_cif.got.tgz:34836.got - 2010.06.04 00:33:39.
