data_PCOD9333599
_publ_section_title
;
Structure prediction by ZEFSAII (Michael W. Deem and Ramdas Pophale) SiO2 
 PCOD9333599
Probable space group: I 21 21 21
;
_chemical_formula_sum "Si O2"
_cell_formula_units_Z 60
_cell_length_a 27.399677
_cell_length_b 14.630060
_cell_length_c 7.827490
_cell_angle_alpha 90.000000
_cell_angle_beta 90.000000
_cell_angle_gamma 90.000000
_cell_volume 3137.719176
_symmetry_space_group_name_H-M "I 21 21 21"
_symmetry_group_IT_number 24
_symmetry_cell_setting 'orthorhombic'
loop_
_space_group_symop_operation_xyz
x,y,z
-x,1/2-y,z
x,-y,1/2-z
1/2-x,y,-z
1/2+x,1/2+y,1/2+z
1/2-x,-y,1/2+z
1/2+x,1/2-y,-z
-x,1/2+y,1/2-z
loop_
_atom_site_type_symbol
_atom_site_label
_atom_site_fract_x
_atom_site_fract_y
_atom_site_fract_z
Si Si1 0.144777 0.192236 0.081947
Si Si2 0.133603 0.187687 0.491566
Si Si3 0.282241 0.089637 0.333714
Si Si4 0.549458 0.203613 0.935998
Si Si5 0.588205 0.491223 0.951183
Si Si6 0.750000 0.320753 0.000000
Si Si7 0.479179 0.510278 0.445989
Si Si8 0.454271 0.694310 0.967155
O O1 0.146402 0.198550 0.289634
O O2 0.099738 0.250430 0.008648
O O3 0.129247 0.087517 0.037118
O O4 0.196460 0.223574 0.005944
O O5 0.181191 0.168800 0.604551
O O6 0.096666 0.268661 0.542397
O O7 0.105705 0.090716 0.507643
O O8 0.250000 0.066064 0.500000
O O9 0.249386 0.123304 0.176890
O O10 0.306942 0.000000 0.250000
O O11 0.500000 0.250000 0.006779
O O12 0.548631 0.220485 0.732409
O O13 0.547417 0.096524 0.972029
O O14 0.576449 0.500000 0.750000
O O15 0.537034 0.469306 0.039351
O O16 0.465522 0.500000 0.250000
O O17 0.465948 0.412594 0.526204
O O18 0.500000 0.750000 0.043486
#
# Coordination Sequence:
#
# PCOD9333599 Si02
#       8
#     8   8   8   8   8   4   8   8
#     4  10  21  37  62  89 115 159 210 257 312 365
#     4  10  21  38  60  86 119 158 207 255 299 371
#     4  12  24  39  59  86 125 164 213 254 304 368
#     4  10  20  39  64  85 113 157 207 255 306 373
#     4  10  19  35  57  82 120 160 203 244 298 364
#     4  12  24  38  60  84 122 168 204 260 308 364
#     4  12  24  35  54  87 128 159 198 251 308 369
#     4  10  20  39  62  85 115 157 204 248 302 368
#
# _framework density 19.122169
#
# number of rings (size 3 to 8) (size 9 to 14) (size 15 to 20)
#    0.000    1.333    4.667    2.000    0.000    3.200 
#    0.000    0.000    0.000    0.000    1.733    0.000 
#    0.000    0.000    0.000    0.000    0.000    0.000 
#
# Total GULP energy -167378.731385 kJ/mol
# GULP energy per Si atom -5579.291046 kJ/mol
# Density = 1.907865 g / cm^3
# Si number density = 19.122169 Si / 1000 Ang^3
#
#
#
# Elastic Constant Matrix: (Units=GPa)
#
#
# Indices 1 2 3 4 5 6 
#
# 1 123.6032 42.8519 29.2188 0.0000 0.0000 0.0000
# 2 42.8519 78.0967 -0.1148 0.0000 0.0000 0.0000
# 3 29.2188 -0.1148 59.6791 0.0000 0.0000 0.0000
# 4 0.0000 0.0000 0.0000 -4.5851 0.0000 0.0000
# 5 0.0000 0.0000 0.0000 0.0000 17.4557 0.0000
# 6 0.0000 0.0000 0.0000 0.0000 0.0000 28.1721
#
#
#
# Elastic Compliance Matrix: (Units=1/GPa)
#
#
# Indices 1 2 3 4 5 6 
#
# 1 0.011665 -0.006409 -0.005724 0.000000 0.000000 0.000000
# 2 -0.006409 0.016326 0.003169 0.000000 0.000000 0.000000
# 3 -0.005724 0.003169 0.019565 0.000000 0.000000 0.000000
# 4 0.000000 0.000000 0.000000 -0.218098 0.000000 0.000000
# 5 0.000000 0.000000 0.000000 0.000000 0.057288 0.000000
# 6 0.000000 0.000000 0.000000 0.000000 0.000000 0.035496
#
#
# Mechanical properties :
#
#
# Convention : Reuss Voigt Hill
#
# Bulk Modulus (GPa) = 33.75071 45.03232 39.39151
# Shear Modulus (GPa) = -100.09173 20.83675 -39.62749
#
# Velocity S-wave (km/s) = -7.24272 3.30459 -4.55723
# Velocity P-wave (km/s) = 7.22871 6.17749 2.65451
#
# Compressibility (1/GPa) = 0.02962901
#
# Stress axis : x y z
#
# Youngs Moduli (GPa) = 85.72295 61.25161 51.11245
#
# Poissons Ratio (x) = 0.39258 0.29255
# Poissons Ratio (y) = 0.54942 -0.16200
# Poissons Ratio (z) = 0.49066 -0.19413
#
# Static dielectric constant tensor:
#      x y z
#    x 1.733600 0.000000 0.000000 
#    y 0.000000 1.699640 0.000000 
#    z 0.000000 0.000000 1.711080 
# 
# From -- ./inp_files/16500.got.cif
#   From: 2010.05.17/outbox.cif.g08.bks.cpg/sg24_9_cif.got.tgz:16500.got - 2010.06.04 00:33:39.
