data_PCOD9333558
_publ_section_title
;
Structure prediction by ZEFSAII (Michael W. Deem and Ramdas Pophale) SiO2 
 PCOD9333558
Probable space group: I 21 21 21
;
_chemical_formula_sum "Si O2"
_cell_formula_units_Z 32
_cell_length_a 6.005723
_cell_length_b 9.106348
_cell_length_c 29.186144
_cell_angle_alpha 90.000000
_cell_angle_beta 90.000000
_cell_angle_gamma 90.000000
_cell_volume 1596.196159
_symmetry_space_group_name_H-M "I 21 21 21"
_symmetry_group_IT_number 24
_symmetry_cell_setting 'orthorhombic'
loop_
_space_group_symop_operation_xyz
x,y,z
-x,1/2-y,z
x,-y,1/2-z
1/2-x,y,-z
1/2+x,1/2+y,1/2+z
1/2-x,-y,1/2+z
1/2+x,1/2-y,-z
-x,1/2+y,1/2-z
loop_
_atom_site_type_symbol
_atom_site_label
_atom_site_fract_x
_atom_site_fract_y
_atom_site_fract_z
Si Si1 0.500000 0.250000 0.150452
Si Si2 0.500000 0.250000 0.393020
Si Si3 0.680261 0.994212 0.622869
Si Si4 0.631791 0.602247 0.956126
Si Si5 0.128112 0.901783 0.294597
O O1 0.327664 0.346988 0.121704
O O2 0.362216 0.141383 0.182996
O O3 0.340280 0.366280 0.368324
O O4 0.332102 0.154229 0.423594
O O5 0.512740 0.978985 0.665231
O O6 0.542606 0.016781 0.575949
O O7 0.500000 0.750000 0.971989
O O8 0.750000 0.530139 0.000000
O O9 0.000000 0.750000 0.283519
O O10 0.148935 0.000000 0.250000
#
# Coordination Sequence:
#
# PCOD9333558 Si02
#       5
#     4   4   8   8   8
#     4  10  22  42  61  90 126 176 202 248 313 368
#     4  10  20  36  61  98 120 154 206 260 313 358
#     4  10  22  38  62  95 125 166 206 255 311 371
#     4  10  19  34  59  95 127 156 205 261 315 362
#     4  10  23  42  63  92 126 164 210 256 304 370
#
# _framework density 20.04766
#
# number of rings (size 3 to 8) (size 9 to 14) (size 15 to 20)
#    0.000    2.000    1.250    1.500    0.000    9.000 
#    0.000    2.500    0.000    0.000  146.250    0.000 
#    0.000    0.000    0.000    0.000    0.000    0.000 
#
# Total GULP energy -89352.780611 kJ/mol
# GULP energy per Si atom -5584.548788 kJ/mol
# Density = 2.000203 g / cm^3
# Si number density = 20.047660 Si / 1000 Ang^3
#
#
#
# Elastic Constant Matrix: (Units=GPa)
#
#
# Indices 1 2 3 4 5 6 
#
# 1 130.8182 46.4781 71.1681 0.0000 0.0000 0.0000
# 2 46.4781 70.1299 81.3654 0.0000 0.0000 0.0000
# 3 71.1681 81.3654 118.3791 0.0000 0.0000 0.0000
# 4 0.0000 0.0000 0.0000 25.2251 0.0000 0.0000
# 5 0.0000 0.0000 0.0000 0.0000 1.4879 0.0000
# 6 0.0000 0.0000 0.0000 0.0000 0.0000 47.6352
#
#
#
# Elastic Compliance Matrix: (Units=1/GPa)
#
#
# Indices 1 2 3 4 5 6 
#
# 1 0.011414 0.001959 -0.008208 0.000000 0.000000 0.000000
# 2 0.001959 0.070733 -0.049795 0.000000 0.000000 0.000000
# 3 -0.008208 -0.049795 0.047607 0.000000 0.000000 0.000000
# 4 0.000000 0.000000 0.000000 0.039643 0.000000 0.000000
# 5 0.000000 0.000000 0.000000 0.000000 0.672092 0.000000
# 6 0.000000 0.000000 0.000000 0.000000 0.000000 0.020993
#
#
# Mechanical properties :
#
#
# Convention : Reuss Voigt Hill
#
# Bulk Modulus (GPa) = 56.60458 79.70560 68.15509
# Shear Modulus (GPa) = 5.09965 22.89066 13.99516
#
# Velocity S-wave (km/s) = 1.59665 3.38274 2.64501
# Velocity P-wave (km/s) = 5.62986 7.42304 6.58775
#
# Compressibility (1/GPa) = 0.01766641
#
# Stress axis : x y z
#
# Youngs Moduli (GPa) = 87.61438 14.13759 21.00513
#
# Poissons Ratio (x) = -0.02769 0.17241
# Poissons Ratio (y) = -0.17162 1.04594
# Poissons Ratio (z) = 0.71915 0.70398
#
# Static dielectric constant tensor:
#      x y z
#    x 1.730650 0.000000 0.000000 
#    y 0.000000 1.729710 0.000000 
#    z 0.000000 0.000000 1.672240 
# 
# From -- ./inp_files/1186.got.cif
#   From: 2010.05.17/outbox.cif.g08.bks.cpg/sg24_1_cif.got.tgz:1186.got - 2010.06.04 00:33:39.
