data_PCOD9333331
_publ_section_title
;
Structure prediction by ZEFSAII (Michael W. Deem and Ramdas Pophale) SiO2 
 PCOD9333331
Probable space group: I 21 21 21
;
_chemical_formula_sum "Si O2"
_cell_formula_units_Z 48
_cell_length_a 7.908316
_cell_length_b 31.347878
_cell_length_c 8.611179
_cell_angle_alpha 90.000000
_cell_angle_beta 90.000000
_cell_angle_gamma 90.000000
_cell_volume 2134.788130
_symmetry_space_group_name_H-M "I 21 21 21"
_symmetry_group_IT_number 24
_symmetry_cell_setting 'orthorhombic'
loop_
_space_group_symop_operation_xyz
x,y,z
-x,1/2-y,z
x,-y,1/2-z
1/2-x,y,-z
1/2+x,1/2+y,1/2+z
1/2-x,-y,1/2+z
1/2+x,1/2-y,-z
-x,1/2+y,1/2-z
loop_
_atom_site_type_symbol
_atom_site_label
_atom_site_fract_x
_atom_site_fract_y
_atom_site_fract_z
Si Si1 0.895628 0.537973 0.872803
Si Si2 0.596391 0.017080 0.916080
Si Si3 0.948315 0.835884 0.308512
Si Si4 0.318006 0.088149 0.839801
Si Si5 0.242836 0.782755 0.685075
Si Si6 0.602667 0.814020 0.323086
O O1 0.880658 0.500000 0.750000
O O2 0.843594 0.578057 0.767517
O O3 0.750000 0.537385 0.000000
O O4 0.054842 0.523610 0.974465
O O5 0.430833 0.046499 0.887167
O O6 0.649081 0.000000 0.750000
O O7 0.750000 0.041474 0.000000
O O8 0.756038 0.840586 0.250383
O O9 0.923767 0.827545 0.495636
O O10 0.052062 0.878261 0.271539
O O11 0.074701 0.797836 0.254308
O O12 0.250000 0.106654 0.000000
O O13 0.250000 0.790276 0.500000
O O14 0.185413 0.733558 0.692654
O O15 0.084614 0.810485 0.747223
#
# Coordination Sequence:
#
# PCOD9333331 Si02
#       6
#     8   8   8   8   8   8
#     4  12  19  42  65  81 109 156 213 255 308 388
#     4  12  25  41  64  93 117 154 211 265 319 383
#     4  10  19  28  43  76 112 153 196 244 306 368
#     4  12  23  37  59  86 120 163 198 260 323 379
#     4   9  14  26  43  65  99 160 205 225 288 370
#     4   9  16  26  44  65 109 159 194 239 284 373
#
# _framework density 22.484665
#
# number of rings (size 3 to 8) (size 9 to 14) (size 15 to 20)
#    0.000    1.333    6.667    2.500    2.333    0.000 
#    0.000    0.000    0.000    0.000    0.000    0.000 
#    0.000    0.000   22.667    0.000    0.000    2.000 
#
# Total GULP energy -133607.988907 kJ/mol
# GULP energy per Si atom -5566.999538 kJ/mol
# Density = 2.243349 g / cm^3
# Si number density = 22.484665 Si / 1000 Ang^3
#
#
#
# Elastic Constant Matrix: (Units=GPa)
#
#
# Indices 1 2 3 4 5 6 
#
# 1 98.4188 6.0510 -6.4379 -0.0002 0.0000 0.0003
# 2 6.0510 64.0383 1.5258 -0.0009 -0.0003 0.0008
# 3 -6.4379 1.5258 49.5751 -0.0015 -0.0004 0.0009
# 4 -0.0002 -0.0009 -0.0015 -1.9791 -0.0004 0.0008
# 5 0.0000 -0.0003 -0.0004 -0.0004 22.3438 0.0001
# 6 0.0003 0.0008 0.0009 0.0008 0.0001 15.5253
#
#
#
# Elastic Compliance Matrix: (Units=1/GPa)
#
#
# Indices 1 2 3 4 5 6 
#
# 1 0.010312 -0.001007 0.001370 -0.000002 0.000000 0.000000
# 2 -0.001007 0.015725 -0.000615 -0.000007 0.000000 -0.000001
# 3 0.001370 -0.000615 0.020368 -0.000015 0.000000 -0.000001
# 4 -0.000002 -0.000007 -0.000015 -0.505276 -0.000008 0.000027
# 5 0.000000 0.000000 0.000000 -0.000008 0.044755 0.000000
# 6 0.000000 -0.000001 -0.000001 0.000027 0.000000 0.064411
#
#
# Mechanical properties :
#
#
# Convention : Reuss Voigt Hill
#
# Bulk Modulus (GPa) = 21.78526 23.81222 22.79874
# Shear Modulus (GPa) = -14.97454 21.23754 3.13150
#
# Velocity S-wave (km/s) = -2.58348 3.07666 1.18142
# Velocity P-wave (km/s) = 0.90047 4.82022 3.46738
#
# Compressibility (1/GPa) = 0.04590259
#
# Stress axis : x y z
#
# Youngs Moduli (GPa) = 96.97251 63.59117 49.09596
#
# Poissons Ratio (x) = 0.06404 -0.06727
# Poissons Ratio (y) = 0.09766 0.03018
# Poissons Ratio (z) = -0.13287 0.03909
#
# Static dielectric constant tensor:
#      x y z
#    x 1.939370 0.000000 0.000000 
#    y 0.000000 1.903830 0.000000 
#    z 0.000000 0.000000 1.795460 
# 
# From -- ./inp_files/9775.got.cif
#   From: 2010.05.17/outbox.cif.g08.bks.cpg/sg24_5_cif.got.tgz:9775.got - 2010.06.04 00:33:39.
