data_PCOD9333739
_publ_section_title
;
Structure prediction by ZEFSAII (Michael W. Deem and Ramdas Pophale) SiO2 
 PCOD9333739
Probable space group: I 21 21 21
;
_chemical_formula_sum "Si O2"
_cell_formula_units_Z 48
_cell_length_a 9.458897
_cell_length_b 20.970183
_cell_length_c 12.621823
_cell_angle_alpha 90.000000
_cell_angle_beta 90.000000
_cell_angle_gamma 90.000000
_cell_volume 2503.599190
_symmetry_space_group_name_H-M "I 21 21 21"
_symmetry_group_IT_number 24
_symmetry_cell_setting 'orthorhombic'
loop_
_space_group_symop_operation_xyz
x,y,z
-x,1/2-y,z
x,-y,1/2-z
1/2-x,y,-z
1/2+x,1/2+y,1/2+z
1/2-x,-y,1/2+z
1/2+x,1/2-y,-z
-x,1/2+y,1/2-z
loop_
_atom_site_type_symbol
_atom_site_label
_atom_site_fract_x
_atom_site_fract_y
_atom_site_fract_z
Si Si1 0.739041 0.180243 0.125704
Si Si2 0.409470 0.434143 0.516275
Si Si3 0.352978 0.863555 0.103876
Si Si4 0.500000 0.250000 0.767584
Si Si5 0.913023 0.616629 0.211583
Si Si6 0.500000 0.750000 0.234452
Si Si7 0.124562 0.450985 0.153865
O O1 0.607094 0.210684 0.188712
O O2 0.760835 0.105068 0.148429
O O3 0.877813 0.215693 0.168162
O O4 0.750000 0.188967 0.000000
O O5 0.250000 0.410343 0.500000
O O6 0.516547 0.409316 0.427465
O O7 0.480099 0.405832 0.621315
O O8 0.396532 0.508730 0.546663
O O9 0.247357 0.898869 0.184911
O O10 0.415831 0.799972 0.158744
O O11 0.250000 0.851970 0.000000
O O12 0.424563 0.192821 0.707269
O O13 0.976515 0.583635 0.315529
O O14 0.159858 0.500000 0.250000
#
# Coordination Sequence:
#
# PCOD9333739 Si02
#       7
#     8   8   8   4   8   4   8
#     4  11  23  41  67  93 133 170 228 282 333 403
#     4  10  21  35  65  91 127 161 216 271 328 391
#     4  10  23  40  62  97 140 168 219 274 338 420
#     4  10  19  37  62  84 122 170 203 267 342 382
#     4   9  19  38  61  83 126 171 210 259 330 403
#     4  12  25  41  68 106 136 174 227 283 344 402
#     4   9  20  39  67  86 126 172 223 264 337 394
#
# _framework density 19.172397
#
# number of rings (size 3 to 8) (size 9 to 14) (size 15 to 20)
#    0.000    2.000    1.667    1.000    7.000    3.333 
#    0.000    0.000   47.667    0.000    0.000    0.000 
#    0.000    0.000    0.000    0.000    0.000    0.000 
#
# Total GULP energy -133631.372889 kJ/mol
# GULP energy per Si atom -5567.973870 kJ/mol
# Density = 1.912876 g / cm^3
# Si number density = 19.172397 Si / 1000 Ang^3
#
#
#
# Elastic Constant Matrix: (Units=GPa)
#
#
# Indices 1 2 3 4 5 6 
#
# 1 156.8999 60.3400 51.4979 0.0000 0.0000 0.0000
# 2 60.3400 124.8752 39.6563 -0.0001 -0.0001 0.0000
# 3 51.4979 39.6563 47.1265 -0.0001 -0.0002 0.0000
# 4 0.0000 -0.0001 -0.0001 66.0803 -0.0002 0.0000
# 5 0.0000 -0.0001 -0.0002 -0.0002 -15.6836 0.0000
# 6 0.0000 0.0000 0.0000 0.0000 0.0000 24.0312
#
#
#
# Elastic Compliance Matrix: (Units=1/GPa)
#
#
# Indices 1 2 3 4 5 6 
#
# 1 0.010260 -0.001907 -0.009607 0.000000 0.000000 0.000000
# 2 -0.001907 0.011283 -0.007411 0.000000 0.000000 0.000000
# 3 -0.009607 -0.007411 0.037954 0.000000 0.000000 0.000000
# 4 0.000000 0.000000 0.000000 0.015133 0.000000 0.000000
# 5 0.000000 0.000000 0.000000 0.000000 -0.063761 0.000000
# 6 0.000000 0.000000 0.000000 0.000000 0.000000 0.041613
#
#
# Mechanical properties :
#
#
# Convention : Reuss Voigt Hill
#
# Bulk Modulus (GPa) = 46.19509 70.21000 58.20255
# Shear Modulus (GPa) = 51.25747 26.71275 38.98511
#
# Velocity S-wave (km/s) = 5.17620 3.73673 4.51421
# Velocity P-wave (km/s) = 7.73763 7.43757 7.58908
#
# Compressibility (1/GPa) = 0.02164732
#
# Stress axis : x y z
#
# Youngs Moduli (GPa) = 97.46482 88.63112 26.34772
#
# Poissons Ratio (x) = 0.16900 0.25313
# Poissons Ratio (y) = 0.18584 0.19525
# Poissons Ratio (z) = 0.93638 0.65681
#
# Static dielectric constant tensor:
#      x y z
#    x 1.599540 0.000000 0.000000 
#    y 0.000000 1.737930 0.000000 
#    z 0.000000 0.000000 1.736600 
# 
# From -- ./inp_files/24977.got.cif
#   From: 2010.05.17/outbox.cif.g08.bks.cpg/sg24_13_cif.got.tgz:24977.got - 2010.06.04 00:33:39.
