data_PCOD9333665
_publ_section_title
;
Structure prediction by ZEFSAII (Michael W. Deem and Ramdas Pophale) SiO2 
 PCOD9333665
Probable space group: I 21 21 21
;
_chemical_formula_sum "Si O2"
_cell_formula_units_Z 56
_cell_length_a 14.491249
_cell_length_b 14.347303
_cell_length_c 13.694867
_cell_angle_alpha 90.000000
_cell_angle_beta 90.000000
_cell_angle_gamma 90.000000
_cell_volume 2847.304458
_symmetry_space_group_name_H-M "I 21 21 21"
_symmetry_group_IT_number 24
_symmetry_cell_setting 'orthorhombic'
loop_
_space_group_symop_operation_xyz
x,y,z
-x,1/2-y,z
x,-y,1/2-z
1/2-x,y,-z
1/2+x,1/2+y,1/2+z
1/2-x,-y,1/2+z
1/2+x,1/2-y,-z
-x,1/2+y,1/2-z
loop_
_atom_site_type_symbol
_atom_site_label
_atom_site_fract_x
_atom_site_fract_y
_atom_site_fract_z
Si Si1 0.456375 0.572880 0.561835
Si Si2 0.763248 0.851574 0.391594
Si Si3 0.416408 0.362194 0.632999
Si Si4 0.085238 0.108927 0.226751
Si Si5 0.097772 0.288664 0.577462
Si Si6 0.242843 0.750237 0.212039
Si Si7 0.109549 0.503571 0.636082
O O1 0.373052 0.632993 0.607774
O O2 0.431656 0.467672 0.596876
O O3 0.548956 0.609124 0.614570
O O4 0.451181 0.561834 0.443981
O O5 0.750000 0.814914 0.500000
O O6 0.715517 0.784009 0.313998
O O7 0.710030 0.949556 0.378112
O O8 0.501596 0.351935 0.706734
O O9 0.408409 0.293095 0.539914
O O10 0.320375 0.339479 0.684937
O O11 0.174265 0.166661 0.259511
O O12 0.098623 0.000000 0.250000
O O13 0.182659 0.234485 0.627393
O O14 0.110996 0.396053 0.605929
O O15 0.000000 0.250000 0.613503
O O16 0.082411 0.500000 0.750000
#
# Coordination Sequence:
#
# PCOD9333665 Si02
#       7
#     8   8   8   8   8   8   8
#     4   9  19  33  55  88 127 155 188 244 311 375
#     4  10  20  33  56  88 119 147 191 250 306 366
#     4  10  20  34  59  91 121 155 199 253 310 368
#     4  10  21  37  58  90 124 160 200 249 314 380
#     4  11  23  37  54  85 123 158 207 256 313 371
#     4  12  21  35  62  85 120 157 203 258 308 366
#     4  10  19  36  58  85 118 155 194 250 307 371
#
# _framework density 19.667725000000001
#
# number of rings (size 3 to 8) (size 9 to 14) (size 15 to 20)
#    0.000    1.714    2.857    2.571    0.000    2.286 
#    0.000    2.143    0.000    5.143    0.000    0.000 
#    0.000    0.000    0.000    0.000    0.000    0.000 
#
# Total GULP energy -155925.199235 kJ/mol
# GULP energy per Si atom -5568.757116 kJ/mol
# Density = 1.962296 g / cm^3
# Si number density = 19.667725 Si / 1000 Ang^3
#
#
#
# Elastic Constant Matrix: (Units=GPa)
#
#
# Indices 1 2 3 4 5 6 
#
# 1 81.5301 19.5920 33.1473 0.0000 0.0000 0.0000
# 2 19.5920 28.8475 17.5522 0.0000 0.0000 0.0000
# 3 33.1473 17.5522 139.6169 0.0000 0.0000 0.0000
# 4 0.0000 0.0000 0.0000 14.2431 0.0000 0.0000
# 5 0.0000 0.0000 0.0000 0.0000 20.4311 0.0000
# 6 0.0000 0.0000 0.0000 0.0000 0.0000 27.9743
#
#
#
# Elastic Compliance Matrix: (Units=1/GPa)
#
#
# Indices 1 2 3 4 5 6 
#
# 1 0.015449 -0.008945 -0.002543 0.000000 0.000000 0.000000
# 2 -0.008945 0.042715 -0.003246 0.000000 0.000000 0.000000
# 3 -0.002543 -0.003246 0.008174 0.000000 0.000000 0.000000
# 4 0.000000 0.000000 0.000000 0.070209 0.000000 0.000000
# 5 0.000000 0.000000 0.000000 0.000000 0.048945 0.000000
# 6 0.000000 0.000000 0.000000 0.000000 0.000000 0.035747
#
#
# Mechanical properties :
#
#
# Convention : Reuss Voigt Hill
#
# Bulk Modulus (GPa) = 27.12263 43.39752 35.26007
# Shear Modulus (GPa) = 19.01150 24.50990 21.76070
#
# Velocity S-wave (km/s) = 3.11245 3.53398 3.32989
# Velocity P-wave (km/s) = 5.17076 6.22618 5.72285
#
# Compressibility (1/GPa) = 0.03686958
#
# Stress axis : x y z
#
# Youngs Moduli (GPa) = 64.72951 23.41084 122.33306
#
# Poissons Ratio (x) = 0.20941 0.31113
# Poissons Ratio (y) = 0.57899 0.39714
# Poissons Ratio (z) = 0.16463 0.07600
#
# Static dielectric constant tensor:
#      x y z
#    x 1.716390 0.000000 0.000000 
#    y 0.000000 1.706120 0.000000 
#    z 0.000000 0.000000 1.804860 
# 
# From -- ./inp_files/25839.got.cif
#   From: 2010.05.17/outbox.cif.g08.bks.cpg/sg24_13_cif.got.tgz:25839.got - 2010.06.04 00:33:39.
