data_PCOD9333569
_publ_section_title
;
Structure prediction by ZEFSAII (Michael W. Deem and Ramdas Pophale) SiO2 
 PCOD9333569
Probable space group: I 21 21 21
;
_chemical_formula_sum "Si O2"
_cell_formula_units_Z 32
_cell_length_a 12.575704
_cell_length_b 8.542536
_cell_length_c 11.950999
_cell_angle_alpha 90.000000
_cell_angle_beta 90.000000
_cell_angle_gamma 90.000000
_cell_volume 1283.876751
_symmetry_space_group_name_H-M "I 21 21 21"
_symmetry_group_IT_number 24
_symmetry_cell_setting 'orthorhombic'
loop_
_space_group_symop_operation_xyz
x,y,z
-x,1/2-y,z
x,-y,1/2-z
1/2-x,y,-z
1/2+x,1/2+y,1/2+z
1/2-x,-y,1/2+z
1/2+x,1/2-y,-z
-x,1/2+y,1/2-z
loop_
_atom_site_type_symbol
_atom_site_label
_atom_site_fract_x
_atom_site_fract_y
_atom_site_fract_z
Si Si1 0.212063 0.222933 0.335285
Si Si2 0.194214 0.886853 0.616075
Si Si3 0.451876 0.458677 0.121141
Si Si4 0.250000 0.510800 0.500000
Si Si5 0.000000 0.750000 0.039754
O O1 0.236280 0.215117 0.204270
O O2 0.287019 0.076698 0.367344
O O3 0.231920 0.387902 0.396758
O O4 0.093523 0.188703 0.379025
O O5 0.250000 0.867491 0.500000
O O6 0.066904 0.874591 0.628202
O O7 0.423946 0.500000 0.250000
O O8 0.470231 0.612828 0.045370
O O9 0.147783 0.604037 0.547267
#
# Coordination Sequence:
#
# PCOD9333569 Si02
#       5
#     8   8   8   4   4
#     4  10  19  34  62  90 127 167 214 263 325 389
#     4  11  19  35  61  98 123 164 226 271 311 390
#     4  11  21  35  63  91 123 167 224 274 317 394
#     4  10  22  40  58  92 124 168 214 270 342 386
#     4  10  20  38  62  98 130 168 218 276 330 396
#
# _framework density 24.924512
#
# number of rings (size 3 to 8) (size 9 to 14) (size 15 to 20)
#    0.000    1.500    6.250    1.500    0.000    0.000 
#    0.000    5.000    8.250    0.000    0.000    0.000 
#    0.000    0.000    0.000    0.000    0.000    0.000 
#
# Total GULP energy -89320.429373 kJ/mol
# GULP energy per Si atom -5582.526836 kJ/mol
# Density = 2.486778 g / cm^3
# Si number density = 24.924512 Si / 1000 Ang^3
#
#
#
# Elastic Constant Matrix: (Units=GPa)
#
#
# Indices 1 2 3 4 5 6 
#
# 1 175.5717 32.0050 84.6034 0.0000 0.0000 0.0000
# 2 32.0050 53.8467 27.3533 0.0000 0.0000 0.0000
# 3 84.6034 27.3533 223.3225 0.0000 0.0000 0.0000
# 4 0.0000 0.0000 0.0000 34.5827 0.0000 0.0000
# 5 0.0000 0.0000 0.0000 0.0000 58.7461 0.0000
# 6 0.0000 0.0000 0.0000 0.0000 0.0000 54.2203
#
#
#
# Elastic Compliance Matrix: (Units=1/GPa)
#
#
# Indices 1 2 3 4 5 6 
#
# 1 0.007449 -0.003193 -0.002431 0.000000 0.000000 0.000000
# 2 -0.003193 0.021172 -0.001384 0.000000 0.000000 0.000000
# 3 -0.002431 -0.001384 0.005568 0.000000 0.000000 0.000000
# 4 0.000000 0.000000 0.000000 0.028916 0.000000 0.000000
# 5 0.000000 0.000000 0.000000 0.000000 0.017022 0.000000
# 6 0.000000 0.000000 0.000000 0.000000 0.000000 0.018443
#
#
# Mechanical properties :
#
#
# Convention : Reuss Voigt Hill
#
# Bulk Modulus (GPa) = 49.56751 82.29602 65.93177
# Shear Modulus (GPa) = 41.90750 50.09511 46.00131
#
# Velocity S-wave (km/s) = 4.10491 4.48802 4.30073
# Velocity P-wave (km/s) = 6.51132 7.74250 7.15344
#
# Compressibility (1/GPa) = 0.02017451
#
# Stress axis : x y z
#
# Youngs Moduli (GPa) = 134.24465 47.23275 179.58959
#
# Poissons Ratio (x) = 0.15080 0.43658
# Poissons Ratio (y) = 0.42860 0.24850
# Poissons Ratio (z) = 0.32634 0.06536
#
# Static dielectric constant tensor:
#      x y z
#    x 2.043740 0.000000 0.000000 
#    y 0.000000 2.239030 0.000000 
#    z 0.000000 0.000000 1.950530 
# 
# From -- ./inp_files/25528.got.cif
#   From: 2010.05.17/outbox.cif.g08.bks.cpg/sg24_13_cif.got.tgz:25528.got - 2010.06.04 00:33:39.
