data_PCOD9333093
_publ_section_title
;
Structure prediction by ZEFSAII (Michael W. Deem and Ramdas Pophale) SiO2 
 PCOD9333093
Probable space group: I 21 21 21
;
_chemical_formula_sum "Si O2"
_cell_formula_units_Z 36
_cell_length_a 5.282086
_cell_length_b 32.373246
_cell_length_c 9.972718
_cell_angle_alpha 90.000000
_cell_angle_beta 90.000000
_cell_angle_gamma 90.000000
_cell_volume 1705.317520
_symmetry_space_group_name_H-M "I 21 21 21"
_symmetry_group_IT_number 24
_symmetry_cell_setting 'orthorhombic'
loop_
_space_group_symop_operation_xyz
x,y,z
-x,1/2-y,z
x,-y,1/2-z
1/2-x,y,-z
1/2+x,1/2+y,1/2+z
1/2-x,-y,1/2+z
1/2+x,1/2-y,-z
-x,1/2+y,1/2-z
loop_
_atom_site_type_symbol
_atom_site_label
_atom_site_fract_x
_atom_site_fract_y
_atom_site_fract_z
Si Si1 0.750000 0.993172 0.500000
Si Si2 0.996678 0.164747 0.147612
Si Si3 0.418447 0.427166 0.783690
Si Si4 0.000246 0.799238 0.656074
Si Si5 0.915085 0.435589 0.616403
O O1 0.828457 0.963739 0.379015
O O2 0.521942 0.022611 0.451732
O O3 0.252409 0.179792 0.216486
O O4 0.969562 0.115799 0.140261
O O5 0.754186 0.183638 0.219478
O O6 0.999265 0.184636 0.998627
O O7 0.691229 0.440292 0.724284
O O8 0.179453 0.419220 0.681809
O O9 0.000000 0.750000 0.655394
O O10 0.750000 0.412503 0.500000
#
# Coordination Sequence:
#
# PCOD9333093 Si02
#       5
#     4   8   8   8   8
#     4  12  28  42  70  90 124 168 220 280 338 376
#     4  10  19  34  52  86 121 165 193 239 298 369
#     4  12  27  42  65  92 129 163 220 266 324 385
#     4  10  18  33  57  88 132 169 191 231 309 402
#     4  12  27  46  63  88 119 173 224 272 321 375
#
# _framework density 21.110437999999998
#
# number of rings (size 3 to 8) (size 9 to 14) (size 15 to 20)
#    0.000    0.889    2.222    6.667    6.222    1.778 
#    0.000    0.000    0.000    0.000    0.000    0.000 
#    0.000   80.000    0.000    0.000    0.000    0.000 
#
# Total GULP energy -100383.801067 kJ/mol
# GULP energy per Si atom -5576.877837 kJ/mol
# Density = 2.106239 g / cm^3
# Si number density = 21.110438 Si / 1000 Ang^3
#
#
#
# Elastic Constant Matrix: (Units=GPa)
#
#
# Indices 1 2 3 4 5 6 
#
# 1 215.0914 34.2684 10.2995 0.0000 0.0000 0.0000
# 2 34.2684 99.1352 6.4093 0.0000 0.0000 0.0000
# 3 10.2995 6.4093 16.5029 -0.0001 0.0000 0.0000
# 4 0.0000 0.0000 -0.0001 -26.9855 0.0000 0.0000
# 5 0.0000 0.0000 0.0000 0.0000 19.6509 0.0000
# 6 0.0000 0.0000 0.0000 0.0000 0.0000 24.3540
#
#
#
# Elastic Compliance Matrix: (Units=1/GPa)
#
#
# Indices 1 2 3 4 5 6 
#
# 1 0.005020 -0.001572 -0.002523 0.000000 0.000000 0.000000
# 2 -0.001572 0.010839 -0.003228 0.000000 0.000000 0.000000
# 3 -0.002523 -0.003228 0.063424 0.000000 0.000000 0.000000
# 4 0.000000 0.000000 0.000000 -0.037057 0.000000 0.000000
# 5 0.000000 0.000000 0.000000 0.000000 0.050888 0.000000
# 6 0.000000 0.000000 0.000000 0.000000 0.000000 0.041061
#
#
# Mechanical properties :
#
#
# Convention : Reuss Voigt Hill
#
# Bulk Modulus (GPa) = 15.47104 48.07599 31.77352
# Shear Modulus (GPa) = 29.34811 22.05403 25.70107
#
# Velocity S-wave (km/s) = 3.73261 3.23568 3.49299
# Velocity P-wave (km/s) = 5.09127 6.06486 5.59927
#
# Compressibility (1/GPa) = 0.06463688
#
# Stress axis : x y z
#
# Youngs Moduli (GPa) = 199.18368 92.25538 15.76695
#
# Poissons Ratio (x) = 0.14506 0.03977
# Poissons Ratio (y) = 0.31319 0.05090
# Poissons Ratio (z) = 0.50247 0.29784
#
# Static dielectric constant tensor:
#      x y z
#    x 1.738780 0.000000 0.000000 
#    y 0.000000 1.729040 0.000000 
#    z 0.000000 0.000000 1.819900 
# 
# From -- ./inp_files/17713.got.cif
#   From: 2010.05.17/outbox.cif.g08.bks.cpg/sg24_9_cif.got.tgz:17713.got - 2010.06.04 00:33:39.
