data_PCOD9333721
_publ_section_title
;
Structure prediction by ZEFSAII (Michael W. Deem and Ramdas Pophale) SiO2 
 PCOD9333721
Probable space group: I 21 21 21
;
_chemical_formula_sum "Si O2"
_cell_formula_units_Z 36
_cell_length_a 20.762076
_cell_length_b 8.816467
_cell_length_c 7.741300
_cell_angle_alpha 90.000000
_cell_angle_beta 90.000000
_cell_angle_gamma 90.000000
_cell_volume 1417.030705
_symmetry_space_group_name_H-M "I 21 21 21"
_symmetry_group_IT_number 24
_symmetry_cell_setting 'orthorhombic'
loop_
_space_group_symop_operation_xyz
x,y,z
-x,1/2-y,z
x,-y,1/2-z
1/2-x,y,-z
1/2+x,1/2+y,1/2+z
1/2-x,-y,1/2+z
1/2+x,1/2-y,-z
-x,1/2+y,1/2-z
loop_
_atom_site_type_symbol
_atom_site_label
_atom_site_fract_x
_atom_site_fract_y
_atom_site_fract_z
Si Si1 0.566890 0.322218 0.232543
Si Si2 0.615025 0.065597 0.061363
Si Si3 0.750000 0.876332 0.500000
Si Si4 0.210962 0.174404 0.315294
Si Si5 0.430681 0.303003 0.621221
O O1 0.500000 0.250000 0.170889
O O2 0.568467 0.500000 0.250000
O O3 0.613913 0.245409 0.093780
O O4 0.574161 0.267262 0.427978
O O5 0.599307 0.000000 0.250000
O O6 0.686733 0.022028 0.009579
O O7 0.570077 0.983450 0.924177
O O8 0.746973 0.776296 0.672557
O O9 0.250000 0.179690 0.500000
O O10 0.137163 0.240975 0.306325
O O11 0.209915 0.000000 0.250000
O O12 0.500000 0.250000 0.694027
#
# Coordination Sequence:
#
# PCOD9333721 Si02
#       5
#     8   8   4   8   8
#     4  10  19  36  70 106 150 197 248 308 385 469
#     4  10  23  42  70 110 148 201 256 313 387 465
#     4  12  28  46  74 112 146 206 260 312 394 452
#     4  12  27  50  78 109 155 204 264 324 389 475
#     4  10  23  45  71 106 155 196 254 331 391 459
#
# _framework density 25.405238000000001
#
# number of rings (size 3 to 8) (size 9 to 14) (size 15 to 20)
#    0.000    1.333    1.111    6.000    7.778    1.778 
#    4.000    0.000    0.000    1.333    0.000    0.000 
#    0.000    0.000    0.000    0.000    0.000    0.000 
#
# Total GULP energy -100605.802244 kJ/mol
# GULP energy per Si atom -5589.211236 kJ/mol
# Density = 2.534741 g / cm^3
# Si number density = 25.405238 Si / 1000 Ang^3
#
#
#
# Elastic Constant Matrix: (Units=GPa)
#
#
# Indices 1 2 3 4 5 6 
#
# 1 166.7382 32.6787 35.5825 0.0000 0.0000 0.0000
# 2 32.6787 148.5365 30.7534 0.0000 0.0000 0.0000
# 3 35.5825 30.7534 150.8381 0.0000 0.0000 0.0000
# 4 0.0000 0.0000 0.0000 -11.9470 0.0000 0.0000
# 5 0.0000 0.0000 0.0000 0.0000 27.3406 0.0000
# 6 0.0000 0.0000 0.0000 0.0000 0.0000 36.2014
#
#
#
# Elastic Compliance Matrix: (Units=1/GPa)
#
#
# Indices 1 2 3 4 5 6 
#
# 1 0.006502 -0.001162 -0.001297 0.000000 0.000000 0.000000
# 2 -0.001162 0.007237 -0.001201 0.000000 0.000000 0.000000
# 3 -0.001297 -0.001201 0.007180 0.000000 0.000000 0.000000
# 4 0.000000 0.000000 0.000000 -0.083703 0.000000 0.000000
# 5 0.000000 0.000000 0.000000 0.000000 0.036576 0.000000
# 6 0.000000 0.000000 0.000000 0.000000 0.000000 0.027623
#
#
# Mechanical properties :
#
#
# Convention : Reuss Voigt Hill
#
# Bulk Modulus (GPa) = 73.53605 73.79353 73.66479
# Shear Modulus (GPa) = 376.83346 34.79221 205.81283
#
# Velocity S-wave (km/s) = 12.19225 3.70468 9.01043
# Velocity P-wave (km/s) = 15.07347 6.88543 11.71791
#
# Compressibility (1/GPa) = 0.01359877
#
# Stress axis : x y z
#
# Youngs Moduli (GPa) = 153.80087 138.18424 139.26620
#
# Poissons Ratio (x) = 0.16056 0.18061
# Poissons Ratio (y) = 0.17871 0.16731
# Poissons Ratio (z) = 0.19946 0.16601
#
# Static dielectric constant tensor:
#      x y z
#    x 2.209680 0.000000 0.000000 
#    y 0.000000 2.098040 0.000000 
#    z 0.000000 0.000000 1.979580 
# 
# From -- ./inp_files/14815.got.cif
#   From: 2010.05.17/outbox.cif.g08.bks.cpg/sg24_8_cif.got.tgz:14815.got - 2010.06.04 00:33:39.
