data_PCOD9333666
_publ_section_title
;
Structure prediction by ZEFSAII (Michael W. Deem and Ramdas Pophale) SiO2 
 PCOD9333666
Probable space group: I 21 21 21
;
_chemical_formula_sum "Si O2"
_cell_formula_units_Z 52
_cell_length_a 11.388791
_cell_length_b 8.273597
_cell_length_c 22.121591
_cell_angle_alpha 90.000000
_cell_angle_beta 90.000000
_cell_angle_gamma 90.000000
_cell_volume 2084.434941
_symmetry_space_group_name_H-M "I 21 21 21"
_symmetry_group_IT_number 24
_symmetry_cell_setting 'orthorhombic'
loop_
_space_group_symop_operation_xyz
x,y,z
-x,1/2-y,z
x,-y,1/2-z
1/2-x,y,-z
1/2+x,1/2+y,1/2+z
1/2-x,-y,1/2+z
1/2+x,1/2-y,-z
-x,1/2+y,1/2-z
loop_
_atom_site_type_symbol
_atom_site_label
_atom_site_fract_x
_atom_site_fract_y
_atom_site_fract_z
Si Si1 0.565419 0.958261 0.367704
Si Si2 0.083720 0.400133 0.188976
Si Si3 0.294149 0.656998 0.881514
Si Si4 0.124300 0.777716 0.520461
Si Si5 0.000000 0.750000 0.742218
Si Si6 0.756366 0.682870 0.232605
Si Si7 0.892890 0.645805 0.953005
O O1 0.601921 0.816372 0.415667
O O2 0.521219 0.893832 0.305001
O O3 0.683311 0.054796 0.359843
O O4 0.466806 0.075088 0.395804
O O5 0.045216 0.500000 0.250000
O O6 0.106159 0.519312 0.131411
O O7 0.198024 0.305765 0.216083
O O8 0.000000 0.250000 0.174286
O O9 0.322522 0.786940 0.830251
O O10 0.226410 0.754227 0.936037
O O11 0.250000 0.709554 0.500000
O O12 0.000000 0.750000 0.486809
O O13 0.134524 0.971551 0.518989
O O14 0.119063 0.784782 0.775994
O O15 0.772919 0.500000 0.250000
O O16 0.000000 0.750000 0.984507
#
# Coordination Sequence:
#
# PCOD9333666 Si02
#       7
#     8   8   8   8   4   8   8
#     4  10  19  36  58  87 125 160 193 249 321 389
#     4  10  21  39  55  72 108 163 226 262 296 349
#     4  10  21  36  54  89 123 162 209 258 312 368
#     4  10  21  41  69  96 121 164 209 259 325 404
#     4  12  20  30  54  88 130 154 200 242 316 364
#     4  11  24  31  53  86 121 167 207 260 298 362
#     4   9  18  34  60  91 126 158 189 251 334 384
#
# _framework density 24.946809999999999
#
# number of rings (size 3 to 8) (size 9 to 14) (size 15 to 20)
#    0.000    1.846    3.846    1.385    5.385    0.000 
#    0.000    7.692    0.000    5.538    0.000    0.000 
#    0.000    0.000    0.000    0.000    0.000    0.000 
#
# Total GULP energy -144781.886201 kJ/mol
# GULP energy per Si atom -5568.534085 kJ/mol
# Density = 2.489003 g / cm^3
# Si number density = 24.946810 Si / 1000 Ang^3
#
#
#
# Elastic Constant Matrix: (Units=GPa)
#
#
# Indices 1 2 3 4 5 6 
#
# 1 128.8131 47.7090 31.3185 0.0000 0.0000 0.0000
# 2 47.7090 154.1290 38.8542 0.0000 0.0000 0.0000
# 3 31.3185 38.8542 53.0813 0.0000 0.0000 0.0000
# 4 0.0000 0.0000 0.0000 -15.8067 0.0000 0.0000
# 5 0.0000 0.0000 0.0000 0.0000 -1.7629 0.0000
# 6 0.0000 0.0000 0.0000 0.0000 0.0000 45.4079
#
#
#
# Elastic Compliance Matrix: (Units=1/GPa)
#
#
# Indices 1 2 3 4 5 6 
#
# 1 0.009483 -0.001870 -0.004226 0.000000 0.000000 0.000000
# 2 -0.001870 0.008325 -0.004990 0.000000 0.000000 0.000000
# 3 -0.004226 -0.004990 0.024985 0.000000 0.000000 0.000000
# 4 0.000000 0.000000 0.000000 -0.063264 0.000000 0.000000
# 5 0.000000 0.000000 0.000000 0.000000 -0.567233 0.000000
# 6 0.000000 0.000000 0.000000 0.000000 0.000000 0.022023
#
#
# Mechanical properties :
#
#
# Convention : Reuss Voigt Hill
#
# Bulk Modulus (GPa) = 48.49625 63.53189 56.01407
# Shear Modulus (GPa) = -9.31734 20.11043 5.39654
#
# Velocity S-wave (km/s) = -1.93468 2.84233 1.47238
# Velocity P-wave (km/s) = 3.80676 6.02445 5.03912
#
# Compressibility (1/GPa) = 0.02062015
#
# Stress axis : x y z
#
# Youngs Moduli (GPa) = 105.44757 120.12130 40.02327
#
# Poissons Ratio (x) = 0.22463 0.16916
# Poissons Ratio (y) = 0.19719 0.19973
# Poissons Ratio (z) = 0.44567 0.59944
#
# Static dielectric constant tensor:
#      x y z
#    x 2.064060 0.000000 0.000000 
#    y 0.000000 2.071580 0.000000 
#    z 0.000000 0.000000 1.988210 
# 
# From -- ./inp_files/37196.got.cif
#   From: 2010.05.17/outbox.cif.g08.bks.cpg/sg24_19_cif.got.tgz:37196.got - 2010.06.04 00:33:39.
