data_PCOD9333791
_publ_section_title
;
Structure prediction by ZEFSAII (Michael W. Deem and Ramdas Pophale) SiO2 
 PCOD9333791
Probable space group: I 21 21 21
;
_chemical_formula_sum "Si O2"
_cell_formula_units_Z 44
_cell_length_a 12.014963
_cell_length_b 17.484634
_cell_length_c 10.102291
_cell_angle_alpha 90.000000
_cell_angle_beta 90.000000
_cell_angle_gamma 90.000000
_cell_volume 2122.261316
_symmetry_space_group_name_H-M "I 21 21 21"
_symmetry_group_IT_number 24
_symmetry_cell_setting 'orthorhombic'
loop_
_space_group_symop_operation_xyz
x,y,z
-x,1/2-y,z
x,-y,1/2-z
1/2-x,y,-z
1/2+x,1/2+y,1/2+z
1/2-x,-y,1/2+z
1/2+x,1/2-y,-z
-x,1/2+y,1/2-z
loop_
_atom_site_type_symbol
_atom_site_label
_atom_site_fract_x
_atom_site_fract_y
_atom_site_fract_z
Si Si1 0.612122 0.165197 0.884928
Si Si2 0.250000 0.061169 0.000000
Si Si3 0.340285 0.395733 0.158488
Si Si4 0.629875 0.932178 0.059179
Si Si5 0.357790 0.165125 0.795655
Si Si6 0.920929 0.450767 0.387302
O O1 0.705340 0.105696 0.836583
O O2 0.484643 0.149319 0.848697
O O3 0.650197 0.244923 0.819341
O O4 0.623145 0.163762 0.044806
O O5 0.266201 0.118314 0.877788
O O6 0.355169 0.004590 0.990231
O O7 0.371823 0.479040 0.104262
O O8 0.387446 0.385370 0.304993
O O9 0.750000 0.913942 0.000000
O O10 0.536892 0.925703 0.948305
O O11 0.356530 0.126777 0.652039
O O12 0.928182 0.500000 0.250000
#
# Coordination Sequence:
#
# PCOD9333791 Si02
#       6
#     8   4   8   8   8   8
#     4  10  19  38  63  88 123 157 215 245 310 377
#     4  10  20  36  58  92 118 162 206 254 296 350
#     4  10  20  33  58  97 120 155 193 266 315 358
#     4  11  21  33  60  96 128 154 195 263 323 365
#     4  10  21  38  65  86 114 175 208 249 295 376
#     4  10  22  39  60  89 124 164 207 254 308 367
#
# _framework density 20.732603000000001
#
# number of rings (size 3 to 8) (size 9 to 14) (size 15 to 20)
#    0.000    1.818    1.818    4.364    2.545    0.000 
#   19.636    0.000   10.000    0.000    0.000    0.000 
#    0.000    0.000    0.000    0.000    0.000    0.000 
#
# Total GULP energy -122652.375664 kJ/mol
# GULP energy per Si atom -5575.107985 kJ/mol
# Density = 2.068541 g / cm^3
# Si number density = 20.732603 Si / 1000 Ang^3
#
#
#
# Elastic Constant Matrix: (Units=GPa)
#
#
# Indices 1 2 3 4 5 6 
#
# 1 51.6901 -0.4737 17.0454 0.0000 0.0000 0.0000
# 2 -0.4737 77.5367 27.0731 0.0000 0.0000 0.0000
# 3 17.0454 27.0731 67.2920 -0.0001 -0.0001 0.0001
# 4 0.0000 0.0000 -0.0001 18.6838 0.0000 0.0000
# 5 0.0000 0.0000 -0.0001 0.0000 18.7557 0.0000
# 6 0.0000 0.0000 0.0001 0.0000 0.0000 12.2166
#
#
#
# Elastic Compliance Matrix: (Units=1/GPa)
#
#
# Indices 1 2 3 4 5 6 
#
# 1 0.021475 0.002362 -0.006390 0.000000 0.000000 0.000000
# 2 0.002362 0.015265 -0.006740 0.000000 0.000000 0.000000
# 3 -0.006390 -0.006740 0.019191 0.000000 0.000000 0.000000
# 4 0.000000 0.000000 0.000000 0.053522 0.000000 0.000000
# 5 0.000000 0.000000 0.000000 0.000000 0.053317 0.000000
# 6 0.000000 0.000000 0.000000 0.000000 0.000000 0.081856
#
#
# Mechanical properties :
#
#
# Convention : Reuss Voigt Hill
#
# Bulk Modulus (GPa) = 29.07353 31.53426 30.30390
# Shear Modulus (GPa) = 18.00983 20.12282 19.06633
#
# Velocity S-wave (km/s) = 2.95052 3.11881 3.03583
# Velocity P-wave (km/s) = 5.06567 5.31152 5.19005
#
# Compressibility (1/GPa) = 0.03439555
#
# Stress axis : x y z
#
# Youngs Moduli (GPa) = 46.56588 65.51001 52.10819
#
# Poissons Ratio (x) = -0.15476 0.33298
# Poissons Ratio (y) = -0.11001 0.35120
# Poissons Ratio (z) = 0.29756 0.44152
#
# Static dielectric constant tensor:
#      x y z
#    x 1.737460 0.000000 0.000000 
#    y 0.000000 1.793680 0.000000 
#    z 0.000000 0.000000 1.800220 
# 
# From -- ./inp_files/19616.got.cif
#   From: 2010.05.17/outbox.cif.g08.bks.cpg/sg24_10_cif.got.tgz:19616.got - 2010.06.04 00:33:39.
