data_PCOD9333195
_publ_section_title
;
Structure prediction by ZEFSAII (Michael W. Deem and Ramdas Pophale) SiO2 
 PCOD9333195
Probable space group: I 21 21 21
;
_chemical_formula_sum "Si O2"
_cell_formula_units_Z 36
_cell_length_a 4.891316
_cell_length_b 24.733114
_cell_length_c 14.460401
_cell_angle_alpha 90.000000
_cell_angle_beta 90.000000
_cell_angle_gamma 90.000000
_cell_volume 1749.382818
_symmetry_space_group_name_H-M "I 21 21 21"
_symmetry_group_IT_number 24
_symmetry_cell_setting 'orthorhombic'
loop_
_space_group_symop_operation_xyz
x,y,z
-x,1/2-y,z
x,-y,1/2-z
1/2-x,y,-z
1/2+x,1/2+y,1/2+z
1/2-x,-y,1/2+z
1/2+x,1/2-y,-z
-x,1/2+y,1/2-z
loop_
_atom_site_type_symbol
_atom_site_label
_atom_site_fract_x
_atom_site_fract_y
_atom_site_fract_z
Si Si1 0.480630 0.021977 0.940782
Si Si2 0.880289 0.448858 0.681101
Si Si3 0.500000 0.250000 0.435867
Si Si4 0.768858 0.786549 0.756722
Si Si5 0.608995 0.903517 0.734191
O O1 0.591371 0.057044 0.854194
O O2 0.289924 0.972707 0.904174
O O3 0.750000 0.007865 0.000000
O O4 0.250000 0.054270 0.000000
O O5 0.872795 0.500000 0.750000
O O6 0.694105 0.401918 0.724276
O O7 0.190193 0.429165 0.687993
O O8 0.750000 0.268525 0.500000
O O9 0.381139 0.293625 0.362595
O O10 0.500000 0.750000 0.763475
O O11 0.710996 0.843920 0.712279
O O12 0.000000 0.750000 0.709225
#
# Coordination Sequence:
#
# PCOD9333195 Si02
#       5
#     8   8   4   8   8
#     4  11  22  38  60  91 125 156 194 252 308 352
#     4  10  20  36  58  84 116 157 195 239 289 361
#     4  10  18  36  56  80 114 150 190 246 300 330
#     4  10  21  36  59  86 112 156 206 236 287 352
#     4  11  21  38  62  86 115 160 206 234 292 367
#
# _framework density 20.578686000000001
#
# number of rings (size 3 to 8) (size 9 to 14) (size 15 to 20)
#    0.667    0.889    1.111    7.333    0.000    0.000 
#    0.000    6.667    0.000    2.667    0.000    0.000 
#    0.000    0.000    0.000    0.000    0.000    0.000 
#
# Total GULP energy -100238.129990 kJ/mol
# GULP energy per Si atom -5568.784999 kJ/mol
# Density = 2.053185 g / cm^3
# Si number density = 20.578686 Si / 1000 Ang^3
#
#
#
# Elastic Constant Matrix: (Units=GPa)
#
#
# Indices 1 2 3 4 5 6 
#
# 1 151.1286 21.2063 28.5345 0.0000 0.0000 0.0000
# 2 21.2063 77.7132 10.8119 0.0000 0.0000 0.0000
# 3 28.5345 10.8119 57.2727 0.0000 0.0000 0.0000
# 4 0.0000 0.0000 0.0000 6.6988 0.0000 0.0000
# 5 0.0000 0.0000 0.0000 0.0000 30.6950 0.0000
# 6 0.0000 0.0000 0.0000 0.0000 0.0000 27.5138
#
#
#
# Elastic Compliance Matrix: (Units=1/GPa)
#
#
# Indices 1 2 3 4 5 6 
#
# 1 0.007485 -0.001565 -0.003434 0.000000 0.000000 0.000000
# 2 -0.001565 0.013542 -0.001777 0.000000 0.000000 0.000000
# 3 -0.003434 -0.001777 0.019506 0.000000 0.000000 0.000000
# 4 0.000000 0.000000 0.000000 0.149281 0.000000 0.000000
# 5 0.000000 0.000000 0.000000 0.000000 0.032579 0.000000
# 6 0.000000 0.000000 0.000000 0.000000 0.000000 0.036345
#
#
# Mechanical properties :
#
#
# Convention : Reuss Voigt Hill
#
# Bulk Modulus (GPa) = 37.06078 45.24666 41.15372
# Shear Modulus (GPa) = 17.77570 28.01898 22.89734
#
# Velocity S-wave (km/s) = 2.94222 3.69393 3.33929
# Velocity P-wave (km/s) = 5.43973 6.34258 5.90842
#
# Compressibility (1/GPa) = 0.02698270
#
# Stress axis : x y z
#
# Youngs Moduli (GPa) = 133.60499 73.84422 51.26500
#
# Poissons Ratio (x) = 0.11555 0.17603
# Poissons Ratio (y) = 0.20905 0.09109
# Poissons Ratio (z) = 0.45876 0.13121
#
# Static dielectric constant tensor:
#      x y z
#    x 1.770200 0.000000 0.000000 
#    y 0.000000 1.745180 0.000000 
#    z 0.000000 0.000000 1.840970 
# 
# From -- ./inp_files/23624.got.cif
#   From: 2010.05.17/outbox.cif.g08.bks.cpg/sg24_12_cif.got.tgz:23624.got - 2010.06.04 00:33:39.
