data_PCOD9333974
_publ_section_title
;
Structure prediction by ZEFSAII (Michael W. Deem and Ramdas Pophale) SiO2 
 PCOD9333974
Probable space group: I 21 21 21
;
_chemical_formula_sum "Si O2"
_cell_formula_units_Z 28
_cell_length_a 5.138670
_cell_length_b 11.983192
_cell_length_c 20.996978
_cell_angle_alpha 90.000000
_cell_angle_beta 90.000000
_cell_angle_gamma 90.000000
_cell_volume 1292.944966
_symmetry_space_group_name_H-M "I 21 21 21"
_symmetry_group_IT_number 24
_symmetry_cell_setting 'orthorhombic'
loop_
_space_group_symop_operation_xyz
x,y,z
-x,1/2-y,z
x,-y,1/2-z
1/2-x,y,-z
1/2+x,1/2+y,1/2+z
1/2-x,-y,1/2+z
1/2+x,1/2-y,-z
-x,1/2+y,1/2-z
loop_
_atom_site_type_symbol
_atom_site_label
_atom_site_fract_x
_atom_site_fract_y
_atom_site_fract_z
Si Si1 0.500000 0.250000 0.957851
Si Si2 0.180442 0.046405 0.647275
Si Si3 0.339216 0.492856 0.927276
Si Si4 0.241981 0.177972 0.773049
O O1 0.400615 0.359877 0.921990
O O2 0.250000 0.213282 0.000000
O O3 0.398820 0.056312 0.592919
O O4 0.254097 0.934254 0.686027
O O5 0.896052 0.029242 0.618061
O O6 0.192896 0.142545 0.699851
O O7 0.250000 0.510165 0.000000
O O8 0.500000 0.250000 0.777225
O O9 0.000000 0.250000 0.796621
#
# Coordination Sequence:
#
# PCOD9333974 Si02
#       4
#     4   8   8   8
#     4  10  20  34  52  86 128 166 198 228 298 374
#     4  11  24  40  64  94 120 164 208 245 314 368
#     4  11  22  38  60  90 131 161 196 250 304 375
#     4  11  24  43  65  89 121 161 209 263 303 352
#
# _framework density 21.655989000000002
#
# number of rings (size 3 to 8) (size 9 to 14) (size 15 to 20)
#    0.000    1.143    0.000    7.714    6.000    4.571 
#    0.000    0.000    0.000   17.143    0.000    0.000 
#    0.000    0.000    0.000    0.000    0.000    0.000 
#
# Total GULP energy -78358.797636 kJ/mol
# GULP energy per Si atom -5597.056974 kJ/mol
# Density = 2.160670 g / cm^3
# Si number density = 21.655989 Si / 1000 Ang^3
#
#
#
# Elastic Constant Matrix: (Units=GPa)
#
#
# Indices 1 2 3 4 5 6 
#
# 1 152.7429 19.8335 9.1192 0.0000 0.0000 0.0000
# 2 19.8335 28.6860 -0.5366 0.0000 0.0000 0.0000
# 3 9.1192 -0.5366 62.2983 0.0000 0.0000 0.0000
# 4 0.0000 0.0000 0.0000 34.4744 0.0000 0.0000
# 5 0.0000 0.0000 0.0000 0.0000 46.4434 0.0000
# 6 0.0000 0.0000 0.0000 0.0000 0.0000 9.9475
#
#
#
# Elastic Compliance Matrix: (Units=1/GPa)
#
#
# Indices 1 2 3 4 5 6 
#
# 1 0.007268 -0.005046 -0.001107 0.000000 0.000000 0.000000
# 2 -0.005046 0.038369 0.001069 0.000000 0.000000 0.000000
# 3 -0.001107 0.001069 0.016223 0.000000 0.000000 0.000000
# 4 0.000000 0.000000 0.000000 0.029007 0.000000 0.000000
# 5 0.000000 0.000000 0.000000 0.000000 0.021532 0.000000
# 6 0.000000 0.000000 0.000000 0.000000 0.000000 0.100527
#
#
# Mechanical properties :
#
#
# Convention : Reuss Voigt Hill
#
# Bulk Modulus (GPa) = 19.34541 33.39548 26.37045
# Shear Modulus (GPa) = 20.80510 32.52715 26.66613
#
# Velocity S-wave (km/s) = 3.10289 3.87976 3.51287
# Velocity P-wave (km/s) = 4.66794 5.96024 5.35323
#
# Compressibility (1/GPa) = 0.05169185
#
# Stress axis : x y z
#
# Youngs Moduli (GPa) = 137.58409 26.06271 61.64043
#
# Poissons Ratio (x) = 0.13151 0.06826
# Poissons Ratio (y) = 0.69425 -0.06590
# Poissons Ratio (z) = 0.15236 -0.02786
#
# Static dielectric constant tensor:
#      x y z
#    x 1.746890 0.000000 0.000000 
#    y 0.000000 1.748470 0.000000 
#    z 0.000000 0.000000 1.813430 
# 
# From -- ./inp_files/31867.got.cif
#   From: 2010.05.17/outbox.cif.g08.bks.cpg/sg24_16_cif.got.tgz:31867.got - 2010.06.04 00:33:39.
