data_PCOD9333923
_publ_section_title
;
Structure prediction by ZEFSAII (Michael W. Deem and Ramdas Pophale) SiO2 
 PCOD9333923
Probable space group: I 21 21 21
;
_chemical_formula_sum "Si O2"
_cell_formula_units_Z 40
_cell_length_a 8.032261
_cell_length_b 12.128251
_cell_length_c 19.448138
_cell_angle_alpha 90.000000
_cell_angle_beta 90.000000
_cell_angle_gamma 90.000000
_cell_volume 1894.584657
_symmetry_space_group_name_H-M "I 21 21 21"
_symmetry_group_IT_number 24
_symmetry_cell_setting 'orthorhombic'
loop_
_space_group_symop_operation_xyz
x,y,z
-x,1/2-y,z
x,-y,1/2-z
1/2-x,y,-z
1/2+x,1/2+y,1/2+z
1/2-x,-y,1/2+z
1/2+x,1/2-y,-z
-x,1/2+y,1/2-z
loop_
_atom_site_type_symbol
_atom_site_label
_atom_site_fract_x
_atom_site_fract_y
_atom_site_fract_z
Si Si1 0.000000 0.250000 0.528353
Si Si2 0.884385 0.021175 0.861909
Si Si3 0.248775 0.659637 0.758646
Si Si4 0.286156 0.942422 0.078085
Si Si5 0.867946 0.395190 0.289488
Si Si6 0.750000 0.930829 0.000000
O O1 0.868121 0.320574 0.571232
O O2 0.902837 0.154064 0.488880
O O3 0.824477 0.122195 0.814833
O O4 0.847926 0.912814 0.815270
O O5 0.075790 0.018786 0.885808
O O6 0.784577 0.002512 0.932767
O O7 0.254908 0.788966 0.774013
O O8 0.443929 0.625782 0.764451
O O9 0.135288 0.926525 0.130266
O O10 0.250000 0.977944 0.000000
O O11 0.798449 0.500000 0.250000
#
# Coordination Sequence:
#
# PCOD9333923 Si02
#       6
#     4   8   8   8   8   4
#     4  10  20  34  54  98 136 168 212 284 344 378
#     4  10  22  40  59  95 135 179 213 274 344 408
#     4  10  23  42  62  94 137 176 224 270 351 404
#     4  11  24  37  60  99 137 170 227 281 347 397
#     4  11  23  40  67  96 128 179 230 281 328 409
#     4  10  20  32  62  88 130 172 218 276 332 398
#
# _framework density 21.112805999999999
#
# number of rings (size 3 to 8) (size 9 to 14) (size 15 to 20)
#    0.000    1.600    3.000    2.400    8.400    0.000 
#    0.000    0.000    2.200    0.000    0.000    0.000 
#    0.000    0.000    0.000    0.000    0.000    0.000 
#
# Total GULP energy -111690.067220 kJ/mol
# GULP energy per Si atom -5584.503361 kJ/mol
# Density = 2.106475 g / cm^3
# Si number density = 21.112806 Si / 1000 Ang^3
#
#
#
# Elastic Constant Matrix: (Units=GPa)
#
#
# Indices 1 2 3 4 5 6 
#
# 1 57.8137 20.9863 54.2379 0.0000 0.0000 0.0000
# 2 20.9863 78.5374 45.5165 0.0000 0.0000 0.0000
# 3 54.2379 45.5165 175.3562 0.0000 0.0000 0.0000
# 4 0.0000 0.0000 0.0000 20.5203 0.0000 0.0000
# 5 0.0000 0.0000 0.0000 0.0000 44.7233 0.0000
# 6 0.0000 0.0000 0.0000 0.0000 0.0000 11.9899
#
#
#
# Elastic Compliance Matrix: (Units=1/GPa)
#
#
# Indices 1 2 3 4 5 6 
#
# 1 0.024800 -0.002568 -0.007004 0.000000 0.000000 0.000000
# 2 -0.002568 0.015253 -0.003165 0.000000 0.000000 0.000000
# 3 -0.007004 -0.003165 0.008691 0.000000 0.000000 0.000000
# 4 0.000000 0.000000 0.000000 0.048732 0.000000 0.000000
# 5 0.000000 0.000000 0.000000 0.000000 0.022360 0.000000
# 6 0.000000 0.000000 0.000000 0.000000 0.000000 0.083404
#
#
# Mechanical properties :
#
#
# Convention : Reuss Voigt Hill
#
# Bulk Modulus (GPa) = 42.97361 61.46541 52.21951
# Shear Modulus (GPa) = 21.14436 28.17781 24.66108
#
# Velocity S-wave (km/s) = 3.16807 3.65722 3.42140
# Velocity P-wave (km/s) = 5.81212 6.85637 6.35573
#
# Compressibility (1/GPa) = 0.02327009
#
# Stress axis : x y z
#
# Youngs Moduli (GPa) = 40.32264 65.56008 115.06646
#
# Poissons Ratio (x) = 0.16833 0.80595
# Poissons Ratio (y) = 0.10353 0.36419
# Poissons Ratio (z) = 0.28243 0.20750
#
# Static dielectric constant tensor:
#      x y z
#    x 1.867570 0.000000 0.000000 
#    y 0.000000 1.744320 0.000000 
#    z 0.000000 0.000000 1.782800 
# 
# From -- ./inp_files/29271.got.cif
#   From: 2010.05.17/outbox.cif.g08.bks.cpg/sg24_15_cif.got.tgz:29271.got - 2010.06.04 00:33:39.
