data_PCOD9333627
_publ_section_title
;
Structure prediction by ZEFSAII (Michael W. Deem and Ramdas Pophale) SiO2 
 PCOD9333627
Probable space group: I 21 21 21
;
_chemical_formula_sum "Si O2"
_cell_formula_units_Z 64
_cell_length_a 26.927871
_cell_length_b 13.741459
_cell_length_c 7.591623
_cell_angle_alpha 90.000000
_cell_angle_beta 90.000000
_cell_angle_gamma 90.000000
_cell_volume 2809.114862
_symmetry_space_group_name_H-M "I 21 21 21"
_symmetry_group_IT_number 24
_symmetry_cell_setting 'orthorhombic'
loop_
_space_group_symop_operation_xyz
x,y,z
-x,1/2-y,z
x,-y,1/2-z
1/2-x,y,-z
1/2+x,1/2+y,1/2+z
1/2-x,-y,1/2+z
1/2+x,1/2-y,-z
-x,1/2+y,1/2-z
loop_
_atom_site_type_symbol
_atom_site_label
_atom_site_fract_x
_atom_site_fract_y
_atom_site_fract_z
Si Si1 0.928722 0.996640 0.563961
Si Si2 0.804861 0.781244 0.465399
Si Si3 0.192622 0.711726 0.043142
Si Si4 0.625906 0.605917 0.524230
Si Si5 0.674113 0.007773 0.946639
Si Si6 0.491264 0.136307 0.581554
Si Si7 0.985788 0.638753 0.492186
Si Si8 0.622255 0.389522 0.545314
O O1 0.884978 0.972867 0.431430
O O2 0.971528 0.917866 0.590853
O O3 0.901555 0.000000 0.750000
O O4 0.960698 0.087726 0.503126
O O5 0.750000 0.743467 0.500000
O O6 0.813394 0.790323 0.255450
O O7 0.842380 0.699112 0.534625
O O8 0.807352 0.892438 0.535679
O O9 0.181756 0.601157 0.977909
O O10 0.154299 0.796445 0.982792
O O11 0.250000 0.735539 0.000000
O O12 0.570153 0.618736 0.453255
O O13 0.642431 0.495176 0.484448
O O14 0.623993 0.611610 0.739331
O O15 0.696681 0.000000 0.750000
O O16 0.500000 0.250000 0.573551
O O17 0.489797 0.107536 0.787467
O O18 0.436799 0.113936 0.503168
O O19 0.000000 0.750000 0.502861
#
# Coordination Sequence:
#
# PCOD9333627 Si02
#       8
#     8   8   8   8   8   8   8   8
#     4  12  24  35  53  86 124 153 180 230 300 352
#     4  10  21  37  59  84 109 143 186 238 292 339
#     4  10  21  37  59  84 109 143 186 238 292 339
#     4   9  17  32  55  81 109 143 188 235 275 330
#     4  10  21  39  59  80 110 149 199 238 271 344
#     4  10  19  35  60  83 108 151 202 241 274 331
#     4  10  19  35  60  83 108 151 202 241 274 331
#     4   9  17  32  55  81 109 143 188 235 275 330
#
# _framework density 22.782976999999999
#
# number of rings (size 3 to 8) (size 9 to 14) (size 15 to 20)
#    0.000    2.000    1.250    3.000    0.000    6.000 
#    0.000    1.250    0.000    0.000    0.000    0.000 
#    0.000    0.000    0.000    0.000    0.000    0.000 
#
# Total GULP energy -178591.038942 kJ/mol
# GULP energy per Si atom -5580.969967 kJ/mol
# Density = 2.273112 g / cm^3
# Si number density = 22.782977 Si / 1000 Ang^3
#
#
#
# Elastic Constant Matrix: (Units=GPa)
#
#
# Indices 1 2 3 4 5 6 
#
# 1 101.4756 25.2778 -12.4328 0.0000 0.0000 0.0000
# 2 25.2778 127.8758 -11.2584 0.0000 0.0000 0.0000
# 3 -12.4328 -11.2584 40.0369 0.0000 0.0000 0.0000
# 4 0.0000 0.0000 0.0000 -3.9725 0.0000 0.0000
# 5 0.0000 0.0000 0.0000 0.0000 18.5111 0.0000
# 6 0.0000 0.0000 0.0000 0.0000 0.0000 38.6863
#
#
#
# Elastic Compliance Matrix: (Units=1/GPa)
#
#
# Indices 1 2 3 4 5 6 
#
# 1 0.010660 -0.001862 0.002787 0.000000 0.000000 0.000000
# 2 -0.001862 0.008344 0.001768 0.000000 0.000000 0.000000
# 3 0.002787 0.001768 0.026340 0.000000 0.000000 0.000000
# 4 0.000000 0.000000 0.000000 -0.251733 0.000000 0.000000
# 5 0.000000 0.000000 0.000000 0.000000 0.054022 0.000000
# 6 0.000000 0.000000 0.000000 0.000000 0.000000 0.025849
#
#
# Mechanical properties :
#
#
# Convention : Reuss Voigt Hill
#
# Bulk Modulus (GPa) = 19.71256 30.28459 24.99858
# Shear Modulus (GPa) = -43.47988 28.49844 -7.49072
#
# Velocity S-wave (km/s) = -4.37331 3.54059 -1.81521
# Velocity P-wave (km/s) = 4.10243 5.48050 2.56962
#
# Compressibility (1/GPa) = 0.05072908
#
# Stress axis : x y z
#
# Youngs Moduli (GPa) = 93.81047 119.84956 37.96575
#
# Poissons Ratio (x) = 0.22314 -0.10580
# Poissons Ratio (y) = 0.17466 -0.06713
# Poissons Ratio (z) = -0.26142 -0.21191
#
# Static dielectric constant tensor:
#      x y z
#    x 1.785270 0.000000 0.000000 
#    y 0.000000 1.843180 0.000000 
#    z 0.000000 0.000000 1.878470 
# 
# From -- ./inp_files/16053.got.cif
#   From: 2010.05.17/outbox.cif.g08.bks.cpg/sg24_9_cif.got.tgz:16053.got - 2010.06.04 00:33:39.
