data_PCOD9333831
_publ_section_title
;
Structure prediction by ZEFSAII (Michael W. Deem and Ramdas Pophale) SiO2 
 PCOD9333831
Probable space group: I 21 21 21
;
_chemical_formula_sum "Si O2"
_cell_formula_units_Z 40
_cell_length_a 7.876419
_cell_length_b 15.139262
_cell_length_c 14.875107
_cell_angle_alpha 90.000000
_cell_angle_beta 90.000000
_cell_angle_gamma 90.000000
_cell_volume 1773.754926
_symmetry_space_group_name_H-M "I 21 21 21"
_symmetry_group_IT_number 24
_symmetry_cell_setting 'orthorhombic'
loop_
_space_group_symop_operation_xyz
x,y,z
-x,1/2-y,z
x,-y,1/2-z
1/2-x,y,-z
1/2+x,1/2+y,1/2+z
1/2-x,-y,1/2+z
1/2+x,1/2-y,-z
-x,1/2+y,1/2-z
loop_
_atom_site_type_symbol
_atom_site_label
_atom_site_fract_x
_atom_site_fract_y
_atom_site_fract_z
Si Si1 0.500000 0.750000 0.415136
Si Si2 0.000949 0.644725 0.964802
Si Si3 0.298740 0.600333 0.325753
Si Si4 0.662171 0.071890 0.626402
Si Si5 0.750000 0.379823 0.000000
Si Si6 0.165440 0.000970 0.652790
O O1 0.356067 0.697579 0.357627
O O2 0.590173 0.679824 0.478157
O O3 0.176523 0.616782 0.919688
O O4 0.000000 0.750000 0.965265
O O5 0.871886 0.592690 0.898876
O O6 0.006738 0.608372 0.067355
O O7 0.198465 0.597146 0.230632
O O8 0.185110 0.533862 0.385335
O O9 0.482994 0.549233 0.328273
O O10 0.770287 0.440607 0.086045
O O11 0.250774 0.000000 0.750000
#
# Coordination Sequence:
#
# PCOD9333831 Si02
#       6
#     4   8   8   8   4   8
#     4  10  22  38  66 100 122 170 220 276 308 390
#     4  10  20  32  58  90 126 158 212 264 312 374
#     4   9  17  35  63  87 115 165 214 255 317 386
#     4   9  18  34  56  88 119 168 204 261 320 379
#     4  10  24  38  66  98 130 174 212 278 322 376
#     4  10  19  40  63  90 120 167 213 262 329 386
#
# _framework density 22.551029
#
# number of rings (size 3 to 8) (size 9 to 14) (size 15 to 20)
#    0.000    2.400    4.000    0.000    1.400    6.400 
#    0.000    0.000   19.800    0.000    5.200    0.000 
#    0.000    0.000    0.000    0.000    0.000    0.000 
#
# Total GULP energy -111428.384640 kJ/mol
# GULP energy per Si atom -5571.419232 kJ/mol
# Density = 2.249970 g / cm^3
# Si number density = 22.551029 Si / 1000 Ang^3
#
#
#
# Elastic Constant Matrix: (Units=GPa)
#
#
# Indices 1 2 3 4 5 6 
#
# 1 57.7472 28.9703 36.5603 0.0000 0.0000 0.0000
# 2 28.9703 177.4067 98.2041 0.0000 0.0000 0.0000
# 3 36.5603 98.2041 180.1610 0.0000 0.0000 0.0000
# 4 0.0000 0.0000 0.0000 15.8295 0.0000 0.0000
# 5 0.0000 0.0000 0.0000 0.0000 16.6783 0.0000
# 6 0.0000 0.0000 0.0000 0.0000 0.0000 2.4742
#
#
#
# Elastic Compliance Matrix: (Units=1/GPa)
#
#
# Indices 1 2 3 4 5 6 
#
# 1 0.020134 -0.001470 -0.003285 0.000000 0.000000 0.000000
# 2 -0.001470 0.008180 -0.004161 0.000000 0.000000 0.000000
# 3 -0.003285 -0.004161 0.008485 0.000000 0.000000 0.000000
# 4 0.000000 0.000000 0.000000 0.063173 0.000000 0.000000
# 5 0.000000 0.000000 0.000000 0.000000 0.059958 0.000000
# 6 0.000000 0.000000 0.000000 0.000000 0.000000 0.404174
#
#
# Mechanical properties :
#
#
# Convention : Reuss Voigt Hill
#
# Bulk Modulus (GPa) = 52.71776 82.53161 67.62469
# Shear Modulus (GPa) = 8.49970 23.76840 16.13405
#
# Velocity S-wave (km/s) = 1.94352 3.25003 2.67768
# Velocity P-wave (km/s) = 5.33519 7.12466 6.29385
#
# Compressibility (1/GPa) = 0.01896894
#
# Stress axis : x y z
#
# Youngs Moduli (GPa) = 49.66804 122.25214 117.85457
#
# Poissons Ratio (x) = 0.17965 0.38712
# Poissons Ratio (y) = 0.07299 0.49034
# Poissons Ratio (z) = 0.16315 0.50863
#
# Static dielectric constant tensor:
#      x y z
#    x 1.925330 0.000000 0.000000 
#    y 0.000000 1.854930 0.000000 
#    z 0.000000 0.000000 1.947190 
# 
# From -- ./inp_files/12353.got.cif
#   From: 2010.05.17/outbox.cif.g08.bks.cpg/sg24_7_cif.got.tgz:12353.got - 2010.06.04 00:33:39.
