data_PCOD9333359
_publ_section_title
;
Structure prediction by ZEFSAII (Michael W. Deem and Ramdas Pophale) SiO2 
 PCOD9333359
Probable space group: I 21 21 21
;
_chemical_formula_sum "Si O2"
_cell_formula_units_Z 64
_cell_length_a 15.156946
_cell_length_b 8.814018
_cell_length_c 27.563199
_cell_angle_alpha 90.000000
_cell_angle_beta 90.000000
_cell_angle_gamma 90.000000
_cell_volume 3682.266841
_symmetry_space_group_name_H-M "I 21 21 21"
_symmetry_group_IT_number 24
_symmetry_cell_setting 'orthorhombic'
loop_
_space_group_symop_operation_xyz
x,y,z
-x,1/2-y,z
x,-y,1/2-z
1/2-x,y,-z
1/2+x,1/2+y,1/2+z
1/2-x,-y,1/2+z
1/2+x,1/2-y,-z
-x,1/2+y,1/2-z
loop_
_atom_site_type_symbol
_atom_site_label
_atom_site_fract_x
_atom_site_fract_y
_atom_site_fract_z
Si Si1 0.918623 0.978346 0.477431
Si Si2 0.025965 0.573681 0.853125
Si Si3 0.803491 0.931720 0.697245
Si Si4 0.690098 0.219932 0.460542
Si Si5 0.053594 0.028694 0.551629
Si Si6 0.676540 0.265473 0.036928
Si Si7 0.082057 0.860377 0.713640
Si Si8 0.785974 0.977773 0.399500
O O1 0.893289 0.822022 0.503083
O O2 0.884549 0.973251 0.422307
O O3 0.852168 0.094553 0.503964
O O4 0.014724 0.022502 0.497038
O O5 0.026379 0.534393 0.910241
O O6 0.954464 0.455192 0.831962
O O7 0.000000 0.750000 0.846170
O O8 0.115371 0.529347 0.825676
O O9 0.840159 0.759282 0.703045
O O10 0.726976 0.948853 0.657244
O O11 0.782967 0.000000 0.750000
O O12 0.750000 0.308782 0.500000
O O13 0.612677 0.323976 0.441232
O O14 0.742635 0.136483 0.417632
O O15 0.118711 0.891173 0.562479
O O16 0.727991 0.151180 0.072615
O O17 0.750000 0.327688 0.000000
O O18 0.000000 0.750000 0.730284
O O19 0.102194 0.000000 0.750000
#
# Coordination Sequence:
#
# PCOD9333359 Si02
#       8
#     8   8   8   8   8   8   8   8
#     4   9  18  30  45  62  91 127 159 190 227 275
#     4  11  20  29  42  65  97 128 157 187 224 270
#     4  11  21  32  48  65  84 116 161 201 235 281
#     4   9  18  31  47  67  97 131 160 190 226 269
#     4  12  19  27  46  74  98 125 162 196 223 261
#     4   9  18  31  46  65  94 127 158 188 226 276
#     4  10  19  31  44  61  88 119 154 197 238 272
#     4   9  18  35  47  61  91 131 157 187 236 280
#
# _framework density 17.380597000000002
#
# number of rings (size 3 to 8) (size 9 to 14) (size 15 to 20)
#    0.000    2.000    0.000    9.000    0.000    2.000 
#    0.000    0.000    0.000    0.000    0.000    0.000 
#    0.000   16.000    0.000    0.000    0.000    0.125 
#
# Total GULP energy -178275.510205 kJ/mol
# GULP energy per Si atom -5571.109694 kJ/mol
# Density = 1.734104 g / cm^3
# Si number density = 17.380597 Si / 1000 Ang^3
#
#
#
# Elastic Constant Matrix: (Units=GPa)
#
#
# Indices 1 2 3 4 5 6 
#
# 1 30.2898 11.6290 24.0893 0.0000 0.0000 0.0000
# 2 11.6290 86.3846 24.7781 0.0000 0.0000 0.0000
# 3 24.0893 24.7781 112.1925 0.0000 0.0000 0.0000
# 4 0.0000 0.0000 0.0000 14.7092 0.0000 0.0000
# 5 0.0000 0.0000 0.0000 0.0000 27.8407 0.0000
# 6 0.0000 0.0000 0.0000 0.0000 0.0000 -0.1806
#
#
#
# Elastic Compliance Matrix: (Units=1/GPa)
#
#
# Indices 1 2 3 4 5 6 
#
# 1 0.040608 -0.003166 -0.008020 0.000000 0.000000 0.000000
# 2 -0.003166 0.012606 -0.002104 0.000000 0.000000 0.000000
# 3 -0.008020 -0.002104 0.011100 0.000000 0.000000 0.000000
# 4 0.000000 0.000000 0.000000 0.067984 0.000000 0.000000
# 5 0.000000 0.000000 0.000000 0.000000 0.035919 0.000000
# 6 0.000000 0.000000 0.000000 0.000000 0.000000 -5.536577
#
#
# Mechanical properties :
#
#
# Convention : Reuss Voigt Hill
#
# Bulk Modulus (GPa) = 26.50176 38.87332 32.68754
# Shear Modulus (GPa) = -0.93823 19.69857 9.38017
#
# Velocity S-wave (km/s) = -0.73552 3.37020 2.32565
# Velocity P-wave (km/s) = 3.81572 6.12853 5.10483
#
# Compressibility (1/GPa) = 0.03773334
#
# Stress axis : x y z
#
# Youngs Moduli (GPa) = 24.62562 79.32769 90.09050
#
# Poissons Ratio (x) = 0.25117 0.72251
# Poissons Ratio (y) = 0.07797 0.18957
# Poissons Ratio (z) = 0.19749 0.16692
#
# Static dielectric constant tensor:
#      x y z
#    x 1.617520 0.000000 0.000000 
#    y 0.000000 1.625790 0.000000 
#    z 0.000000 0.000000 1.645950 
# 
# From -- ./inp_files/35344.got.cif
#   From: 2010.05.17/outbox.cif.g08.bks.cpg/sg24_18_cif.got.tgz:35344.got - 2010.06.04 00:33:39.
