data_PCOD9333273
_publ_section_title
;
Structure prediction by ZEFSAII (Michael W. Deem and Ramdas Pophale) SiO2 
 PCOD9333273
Probable space group: I 21 21 21
;
_chemical_formula_sum "Si O2"
_cell_formula_units_Z 36
_cell_length_a 5.711531
_cell_length_b 13.583219
_cell_length_c 22.757863
_cell_angle_alpha 90.000000
_cell_angle_beta 90.000000
_cell_angle_gamma 90.000000
_cell_volume 1765.577232
_symmetry_space_group_name_H-M "I 21 21 21"
_symmetry_group_IT_number 24
_symmetry_cell_setting 'orthorhombic'
loop_
_space_group_symop_operation_xyz
x,y,z
-x,1/2-y,z
x,-y,1/2-z
1/2-x,y,-z
1/2+x,1/2+y,1/2+z
1/2-x,-y,1/2+z
1/2+x,1/2-y,-z
-x,1/2+y,1/2-z
loop_
_atom_site_type_symbol
_atom_site_label
_atom_site_fract_x
_atom_site_fract_y
_atom_site_fract_z
Si Si1 0.604449 0.879249 0.595530
Si Si2 0.750000 0.591674 0.500000
Si Si3 0.032155 0.539833 0.908781
Si Si4 0.765435 0.440623 0.807468
Si Si5 0.500000 0.250000 0.464804
Si Si6 0.500000 0.250000 0.157620
O O1 0.447723 0.854178 0.538596
O O2 0.445803 0.901863 0.652132
O O3 0.802144 0.800254 0.615328
O O4 0.722065 0.985021 0.583039
O O5 0.629777 0.521610 0.452803
O O6 0.928831 0.514505 0.845077
O O7 0.029661 0.652430 0.925967
O O8 0.692439 0.500000 0.750000
O O9 0.911059 0.339350 0.802011
O O10 0.250000 0.240538 0.500000
#
# Coordination Sequence:
#
# PCOD9333273 Si02
#       6
#     8   4   8   8   4   4
#     4  10  21  39  69  91 136 170 222 271 336 399
#     4  10  18  38  64  92 126 180 210 270 328 400
#     4  10  22  39  65  92 135 172 221 272 335 398
#     4  10  23  43  69  95 127 175 220 279 332 394
#     4  12  24  39  68 102 142 183 226 282 340 416
#     4  10  22  43  68  92 134 169 220 278 328 400
#
# _framework density 20.389932000000002
#
# number of rings (size 3 to 8) (size 9 to 14) (size 15 to 20)
#    0.000    1.778    1.111    2.667    3.111    4.444 
#    0.000    2.222  176.000    0.000    0.000    0.000 
#    0.000    0.000    0.000    0.000    0.000    0.000 
#
# Total GULP energy -100424.264634 kJ/mol
# GULP energy per Si atom -5579.125813 kJ/mol
# Density = 2.034352 g / cm^3
# Si number density = 20.389932 Si / 1000 Ang^3
#
#
#
# Elastic Constant Matrix: (Units=GPa)
#
#
# Indices 1 2 3 4 5 6 
#
# 1 100.8210 50.5316 31.6759 0.0000 0.0000 0.0000
# 2 50.5316 185.5293 43.1407 0.0000 0.0000 0.0000
# 3 31.6759 43.1407 78.6800 0.0000 0.0000 0.0000
# 4 0.0000 0.0000 0.0000 20.3293 0.0000 0.0000
# 5 0.0000 0.0000 0.0000 0.0000 11.6861 0.0000
# 6 0.0000 0.0000 0.0000 0.0000 0.0000 0.7970
#
#
#
# Elastic Compliance Matrix: (Units=1/GPa)
#
#
# Indices 1 2 3 4 5 6 
#
# 1 0.012304 -0.002521 -0.003571 0.000000 0.000000 0.000000
# 2 -0.002521 0.006694 -0.002656 0.000000 0.000000 0.000000
# 3 -0.003571 -0.002656 0.015604 0.000000 0.000000 0.000000
# 4 0.000000 0.000000 0.000000 0.049190 0.000000 0.000000
# 5 0.000000 0.000000 0.000000 0.000000 0.085572 0.000000
# 6 0.000000 0.000000 0.000000 0.000000 0.000000 1.254773
#
#
# Mechanical properties :
#
#
# Convention : Reuss Voigt Hill
#
# Bulk Modulus (GPa) = 58.45792 68.41408 63.43600
# Shear Modulus (GPa) = 3.45463 22.54127 12.99795
#
# Velocity S-wave (km/s) = 1.30306 3.32853 2.52755
# Velocity P-wave (km/s) = 5.56742 6.95686 6.30056
#
# Compressibility (1/GPa) = 0.01710632
#
# Stress axis : x y z
#
# Youngs Moduli (GPa) = 81.27429 149.38679 64.08789
#
# Poissons Ratio (x) = 0.37656 0.22888
# Poissons Ratio (y) = 0.20487 0.17019
# Poissons Ratio (z) = 0.29026 0.39670
#
# Static dielectric constant tensor:
#      x y z
#    x 1.782780 0.000000 0.000000 
#    y 0.000000 1.718940 0.000000 
#    z 0.000000 0.000000 1.741520 
# 
# From -- ./inp_files/5404.got.cif
#   From: 2010.05.17/outbox.cif.g08.bks.cpg/sg24_3_cif.got.tgz:5404.got - 2010.06.04 00:33:39.
