data_PCOD9333145
_publ_section_title
;
Structure prediction by ZEFSAII (Michael W. Deem and Ramdas Pophale) SiO2 
 PCOD9333145
Probable space group: I 21 21 21
;
_chemical_formula_sum "Si O2"
_cell_formula_units_Z 60
_cell_length_a 18.570912
_cell_length_b 9.445530
_cell_length_c 16.559014
_cell_angle_alpha 90.000000
_cell_angle_beta 90.000000
_cell_angle_gamma 90.000000
_cell_volume 2904.651526
_symmetry_space_group_name_H-M "I 21 21 21"
_symmetry_group_IT_number 24
_symmetry_cell_setting 'orthorhombic'
loop_
_space_group_symop_operation_xyz
x,y,z
-x,1/2-y,z
x,-y,1/2-z
1/2-x,y,-z
1/2+x,1/2+y,1/2+z
1/2-x,-y,1/2+z
1/2+x,1/2-y,-z
-x,1/2+y,1/2-z
loop_
_atom_site_type_symbol
_atom_site_label
_atom_site_fract_x
_atom_site_fract_y
_atom_site_fract_z
Si Si1 0.731202 0.638994 0.695491
Si Si2 0.425459 0.335411 0.227350
Si Si3 0.500000 0.250000 0.803170
Si Si4 0.587326 0.738206 0.944101
Si Si5 0.402847 0.084650 0.912522
Si Si6 0.642646 0.151483 0.710612
Si Si7 0.080559 0.817339 0.877174
Si Si8 0.120412 0.862298 0.599903
O O1 0.730344 0.500000 0.750000
O O2 0.663252 0.647926 0.636131
O O3 0.712672 0.763017 0.759239
O O4 0.799280 0.627582 0.635865
O O5 0.500000 0.250000 0.229124
O O6 0.429609 0.500000 0.250000
O O7 0.383062 0.252859 0.298769
O O8 0.400790 0.289046 0.138854
O O9 0.475002 0.126768 0.864568
O O10 0.568216 0.215740 0.747520
O O11 0.500000 0.750000 0.942775
O O12 0.604508 0.583307 0.909986
O O13 0.627859 0.845999 0.885304
O O14 0.612761 0.731019 0.037183
O O15 0.396194 0.134983 0.004970
O O16 0.649082 0.000000 0.750000
O O17 0.000000 0.750000 0.881756
O O18 0.082026 0.989038 0.870754
#
# Coordination Sequence:
#
# PCOD9333145 Si02
#       8
#     8   8   4   8   8   8   8   8
#     4  11  22  40  63  87 127 169 221 252 308 384
#     4  11  22  39  61  88 122 158 205 266 329 385
#     4  10  22  34  60  94 130 162 208 256 328 378
#     4  10  18  34  61  87 128 161 199 259 321 376
#     4  10  22  39  59  95 127 165 212 261 317 381
#     4  11  22  36  59  94 131 171 210 257 317 384
#     4   9  19  37  60  92 119 155 205 262 324 380
#     4  11  23  40  66  90 123 169 216 268 319 385
#
# _framework density 20.656524999999998
#
# number of rings (size 3 to 8) (size 9 to 14) (size 15 to 20)
#    0.000    1.600    2.000    4.000    0.933    0.533 
#    4.800    0.000    0.000    0.000    3.467    0.000 
#    0.000    0.000    0.000    0.000    0.000    0.000 
#
# Total GULP energy -167064.459791 kJ/mol
# GULP energy per Si atom -5568.815326 kJ/mol
# Density = 2.060951 g / cm^3
# Si number density = 20.656525 Si / 1000 Ang^3
#
#
#
# Elastic Constant Matrix: (Units=GPa)
#
#
# Indices 1 2 3 4 5 6 
#
# 1 47.9214 5.8279 2.7935 0.0000 0.0000 0.0000
# 2 5.8279 69.6012 5.8201 0.0000 0.0000 0.0000
# 3 2.7935 5.8201 86.4610 0.0000 0.0000 0.0000
# 4 0.0000 0.0000 0.0000 33.3351 0.0000 0.0000
# 5 0.0000 0.0000 0.0000 0.0000 24.9023 0.0000
# 6 0.0000 0.0000 0.0000 0.0000 0.0000 13.0538
#
#
#
# Elastic Compliance Matrix: (Units=1/GPa)
#
#
# Indices 1 2 3 4 5 6 
#
# 1 0.021110 -0.001720 -0.000566 0.000000 0.000000 0.000000
# 2 -0.001720 0.014589 -0.000926 0.000000 0.000000 0.000000
# 3 -0.000566 -0.000926 0.011647 0.000000 0.000000 0.000000
# 4 0.000000 0.000000 0.000000 0.029998 0.000000 0.000000
# 5 0.000000 0.000000 0.000000 0.000000 0.040157 0.000000
# 6 0.000000 0.000000 0.000000 0.000000 0.000000 0.076606
#
#
# Mechanical properties :
#
#
# Convention : Reuss Voigt Hill
#
# Bulk Modulus (GPa) = 24.43825 25.87407 25.15616
# Shear Modulus (GPa) = 23.34567 26.89439 25.12003
#
# Velocity S-wave (km/s) = 3.36547 3.61221 3.49102
# Velocity P-wave (km/s) = 5.19214 5.47270 5.33426
#
# Compressibility (1/GPa) = 0.04091947
#
# Stress axis : x y z
#
# Youngs Moduli (GPa) = 47.37157 68.54441 85.86224
#
# Poissons Ratio (x) = 0.11791 0.04862
# Poissons Ratio (y) = 0.08149 0.07955
# Poissons Ratio (z) = 0.02682 0.06351
#
# Static dielectric constant tensor:
#      x y z
#    x 1.837550 0.000000 0.000000 
#    y 0.000000 1.732030 0.000000 
#    z 0.000000 0.000000 1.817240 
# 
# From -- ./inp_files/31200.got.cif
#   From: 2010.05.17/outbox.cif.g08.bks.cpg/sg24_16_cif.got.tgz:31200.got - 2010.06.04 00:33:39.
