data_PCOD9333401
_publ_section_title
;
Structure prediction by ZEFSAII (Michael W. Deem and Ramdas Pophale) SiO2 
 PCOD9333401
Probable space group: I 21 21 21
;
_chemical_formula_sum "Si O2"
_cell_formula_units_Z 64
_cell_length_a 29.957454
_cell_length_b 14.490731
_cell_length_c 7.871755
_cell_angle_alpha 90.000000
_cell_angle_beta 90.000000
_cell_angle_gamma 90.000000
_cell_volume 3417.171411
_symmetry_space_group_name_H-M "I 21 21 21"
_symmetry_group_IT_number 24
_symmetry_cell_setting 'orthorhombic'
loop_
_space_group_symop_operation_xyz
x,y,z
-x,1/2-y,z
x,-y,1/2-z
1/2-x,y,-z
1/2+x,1/2+y,1/2+z
1/2-x,-y,1/2+z
1/2+x,1/2-y,-z
-x,1/2+y,1/2-z
loop_
_atom_site_type_symbol
_atom_site_label
_atom_site_fract_x
_atom_site_fract_y
_atom_site_fract_z
Si Si1 0.302484 0.891858 0.696524
Si Si2 0.105411 0.186161 0.315089
Si Si3 0.049496 0.270325 0.798812
Si Si4 0.055314 0.642176 0.074983
Si Si5 0.474925 0.097484 0.826727
Si Si6 0.607863 0.605238 0.179332
Si Si7 0.950458 0.046679 0.932473
Si Si8 0.795105 0.607934 0.709400
O O1 0.344666 0.835904 0.762001
O O2 0.253960 0.855715 0.758118
O O3 0.301686 0.885118 0.492554
O O4 0.307662 0.000000 0.750000
O O5 0.094273 0.291530 0.359949
O O6 0.068848 0.158991 0.173813
O O7 0.095887 0.122325 0.482024
O O8 0.043102 0.314323 0.608974
O O9 0.077421 0.177701 0.779645
O O10 0.071486 0.352980 0.908583
O O11 0.000000 0.250000 0.865745
O O12 0.012803 0.640833 0.201436
O O13 0.068442 0.534806 0.050164
O O14 0.460744 0.000000 0.750000
O O15 0.500620 0.069346 0.996294
O O16 0.604008 0.500000 0.250000
O O17 0.659482 0.637716 0.199896
O O18 0.953444 0.000000 0.750000
O O19 0.791586 0.500000 0.750000
#
# Coordination Sequence:
#
# PCOD9333401 Si02
#       8
#     8   8   8   8   8   8   8   8
#     4  10  19  32  50  73 102 137 174 213 258 313
#     4  11  21  33  51  76 105 138 176 216 258 309
#     4  10  20  32  50  75 102 139 181 218 256 303
#     4   9  19  36  51  68 104 141 173 214 261 306
#     4  10  20  33  48  68  98 136 173 214 258 306
#     4  10  21  35  52  76 108 144 179 218 261 313
#     4   9  20  37  54  72  99 138 179 218 262 310
#     4   9  19  34  50  70 102 139 173 211 258 310
#
# _framework density 18.728940000000001
#
# number of rings (size 3 to 8) (size 9 to 14) (size 15 to 20)
#    0.000    2.250    0.000    3.750    0.000    8.000 
#    0.000    1.875    0.000    0.000    0.000    0.000 
#    0.000   49.000    0.000    0.000    0.000    0.000 
#
# Total GULP energy -178479.773417 kJ/mol
# GULP energy per Si atom -5577.492919 kJ/mol
# Density = 1.868631 g / cm^3
# Si number density = 18.728940 Si / 1000 Ang^3
#
#
#
# Elastic Constant Matrix: (Units=GPa)
#
#
# Indices 1 2 3 4 5 6 
#
# 1 116.5902 62.8405 10.7454 0.0000 0.0000 0.0000
# 2 62.8405 125.1124 21.3405 0.0000 0.0000 0.0000
# 3 10.7454 21.3405 32.2357 0.0000 0.0000 0.0000
# 4 0.0000 0.0000 0.0000 18.5697 0.0000 0.0000
# 5 0.0000 0.0000 0.0000 0.0000 47.0179 0.0000
# 6 0.0000 0.0000 0.0000 0.0000 0.0000 22.7400
#
#
#
# Elastic Compliance Matrix: (Units=1/GPa)
#
#
# Indices 1 2 3 4 5 6 
#
# 1 0.011761 -0.005905 -0.000011 0.000000 0.000000 0.000000
# 2 -0.005905 0.011975 -0.005959 0.000000 0.000000 0.000000
# 3 -0.000011 -0.005959 0.034970 0.000000 0.000000 0.000000
# 4 0.000000 0.000000 0.000000 0.053851 0.000000 0.000000
# 5 0.000000 0.000000 0.000000 0.000000 0.021269 0.000000
# 6 0.000000 0.000000 0.000000 0.000000 0.000000 0.043975
#
#
# Mechanical properties :
#
#
# Convention : Reuss Voigt Hill
#
# Bulk Modulus (GPa) = 28.60792 51.53234 40.07013
# Shear Modulus (GPa) = 23.45159 29.59963 26.52561
#
# Velocity S-wave (km/s) = 3.54242 3.97977 3.76745
# Velocity P-wave (km/s) = 5.66035 6.97801 6.35343
#
# Compressibility (1/GPa) = 0.03495536
#
# Stress axis : x y z
#
# Youngs Moduli (GPa) = 85.02710 83.50449 28.59558
#
# Poissons Ratio (x) = 0.49312 0.00031
# Poissons Ratio (y) = 0.50211 0.17041
# Poissons Ratio (z) = 0.00093 0.49764
#
# Static dielectric constant tensor:
#      x y z
#    x 1.637200 0.000000 0.000000 
#    y 0.000000 1.665130 0.000000 
#    z 0.000000 0.000000 1.759070 
# 
# From -- ./inp_files/17044.got.cif
#   From: 2010.05.17/outbox.cif.g08.bks.cpg/sg24_9_cif.got.tgz:17044.got - 2010.06.04 00:33:39.
