data_PCOD9333543
_publ_section_title
;
Structure prediction by ZEFSAII (Michael W. Deem and Ramdas Pophale) SiO2 
 PCOD9333543
Probable space group: I 21 21 21
;
_chemical_formula_sum "Si O2"
_cell_formula_units_Z 40
_cell_length_a 18.021915
_cell_length_b 12.679682
_cell_length_c 9.707281
_cell_angle_alpha 90.000000
_cell_angle_beta 90.000000
_cell_angle_gamma 90.000000
_cell_volume 2218.231664
_symmetry_space_group_name_H-M "I 21 21 21"
_symmetry_group_IT_number 24
_symmetry_cell_setting 'orthorhombic'
loop_
_space_group_symop_operation_xyz
x,y,z
-x,1/2-y,z
x,-y,1/2-z
1/2-x,y,-z
1/2+x,1/2+y,1/2+z
1/2-x,-y,1/2+z
1/2+x,1/2-y,-z
-x,1/2+y,1/2-z
loop_
_atom_site_type_symbol
_atom_site_label
_atom_site_fract_x
_atom_site_fract_y
_atom_site_fract_z
Si Si1 0.085467 0.255254 0.334255
Si Si2 0.798422 0.799787 0.706306
Si Si3 0.837397 0.921840 0.966008
Si Si4 0.219915 0.897996 0.153452
Si Si5 0.144369 0.650471 0.433206
O O1 0.125835 0.336840 0.434948
O O2 0.136296 0.150326 0.343915
O O3 0.089924 0.301845 0.179238
O O4 0.000000 0.250000 0.374709
O O5 0.840030 0.877833 0.810667
O O6 0.771389 0.695721 0.784799
O O7 0.844044 0.777154 0.567574
O O8 0.722993 0.854252 0.649206
O O9 0.750000 0.925950 0.000000
O O10 0.870821 0.035158 0.005069
O O11 0.223830 0.000000 0.250000
O O12 0.250000 0.919885 0.000000
#
# Coordination Sequence:
#
# PCOD9333543 Si02
#       5
#     8   8   8   8   8
#     4  11  24  41  57  86 131 165 193 239 300 372
#     4  10  19  34  57  93 120 141 192 259 300 335
#     4  12  18  35  62  94 120 148 201 250 306 346
#     4  11  23  39  63  90 113 160 209 250 291 349
#     4  10  21  30  62  95 121 148 188 253 304 354
#
# _framework density 18.032381000000001
#
# number of rings (size 3 to 8) (size 9 to 14) (size 15 to 20)
#    0.000    1.200    8.000    1.200    5.600    1.600 
#    0.000    1.000    0.000    0.000    0.000    0.000 
#    0.000    0.000    0.000    0.000    0.000    0.000 
#
# Total GULP energy -111553.851616 kJ/mol
# GULP energy per Si atom -5577.692581 kJ/mol
# Density = 1.799134 g / cm^3
# Si number density = 18.032381 Si / 1000 Ang^3
#
#
#
# Elastic Constant Matrix: (Units=GPa)
#
#
# Indices 1 2 3 4 5 6 
#
# 1 56.7176 30.6108 23.1990 0.0000 0.0000 0.0000
# 2 30.6108 110.7194 51.2128 0.0000 0.0000 0.0000
# 3 23.1990 51.2128 133.4995 0.0000 0.0000 0.0000
# 4 0.0000 0.0000 0.0000 40.6951 0.0000 0.0000
# 5 0.0000 0.0000 0.0000 0.0000 17.6012 0.0000
# 6 0.0000 0.0000 0.0000 0.0000 0.0000 6.2494
#
#
#
# Elastic Compliance Matrix: (Units=1/GPa)
#
#
# Indices 1 2 3 4 5 6 
#
# 1 0.021048 -0.005018 -0.001733 0.000000 0.000000 0.000000
# 2 -0.005018 0.012176 -0.003799 0.000000 0.000000 0.000000
# 3 -0.001733 -0.003799 0.009249 0.000000 0.000000 0.000000
# 4 0.000000 0.000000 0.000000 0.024573 0.000000 0.000000
# 5 0.000000 0.000000 0.000000 0.000000 0.056814 0.000000
# 6 0.000000 0.000000 0.000000 0.000000 0.000000 0.160015
#
#
# Mechanical properties :
#
#
# Convention : Reuss Voigt Hill
#
# Bulk Modulus (GPa) = 46.78490 56.77575 51.78032
# Shear Modulus (GPa) = 16.02053 25.97007 20.99530
#
# Velocity S-wave (km/s) = 2.98389 3.79910 3.41590
# Velocity P-wave (km/s) = 6.15408 7.12727 6.65848
#
# Compressibility (1/GPa) = 0.02137442
#
# Stress axis : x y z
#
# Youngs Moduli (GPa) = 47.51034 82.12635 108.11770
#
# Poissons Ratio (x) = 0.41209 0.18734
# Poissons Ratio (y) = 0.23839 0.41075
# Poissons Ratio (z) = 0.08232 0.31201
#
# Static dielectric constant tensor:
#      x y z
#    x 1.603830 0.000000 0.000000 
#    y 0.000000 1.633900 0.000000 
#    z 0.000000 0.000000 1.654240 
# 
# From -- ./inp_files/10685.got.cif
#   From: 2010.05.17/outbox.cif.g08.bks.cpg/sg24_6_cif.got.tgz:10685.got - 2010.06.04 00:33:39.
