data_PCOD9333688
_publ_section_title
;
Structure prediction by ZEFSAII (Michael W. Deem and Ramdas Pophale) SiO2 
 PCOD9333688
Probable space group: I 21 21 21
;
_chemical_formula_sum "Si O2"
_cell_formula_units_Z 32
_cell_length_a 7.223665
_cell_length_b 32.522082
_cell_length_c 5.336247
_cell_angle_alpha 90.000000
_cell_angle_beta 90.000000
_cell_angle_gamma 90.000000
_cell_volume 1253.637173
_symmetry_space_group_name_H-M "I 21 21 21"
_symmetry_group_IT_number 24
_symmetry_cell_setting 'orthorhombic'
loop_
_space_group_symop_operation_xyz
x,y,z
-x,1/2-y,z
x,-y,1/2-z
1/2-x,y,-z
1/2+x,1/2+y,1/2+z
1/2-x,-y,1/2+z
1/2+x,1/2-y,-z
-x,1/2+y,1/2-z
loop_
_atom_site_type_symbol
_atom_site_label
_atom_site_fract_x
_atom_site_fract_y
_atom_site_fract_z
Si Si1 0.958638 0.924968 0.943179
Si Si2 0.250000 0.211157 0.000000
Si Si3 0.030284 0.460023 0.071104
Si Si4 0.449942 0.165394 0.361249
Si Si5 0.500000 0.750000 0.886338
O O1 0.045150 0.951337 0.712018
O O2 0.949347 0.877746 0.862443
O O3 0.750000 0.940429 0.000000
O O4 0.037808 0.926255 0.226554
O O5 0.088075 0.180821 0.918729
O O6 0.321979 0.239703 0.781754
O O7 0.995918 0.500000 0.250000
O O8 0.250000 0.458712 0.000000
O O9 0.250000 0.159052 0.500000
O O10 0.532728 0.206548 0.480074
#
# Coordination Sequence:
#
# PCOD9333688 Si02
#       5
#     8   4   8   8   4
#     4  10  22  36  61  96 124 161 210 262 316 374
#     4  10  22  40  64  86 120 176 210 274 318 376
#     4  10  19  36  61  93 125 159 201 261 320 373
#     4  10  23  40  59  89 124 172 209 258 320 377
#     4  10  22  40  62  90 120 168 222 256 330 374
#
# _framework density 25.525725000000001
#
# number of rings (size 3 to 8) (size 9 to 14) (size 15 to 20)
#    0.000    2.000    0.000    3.750    7.000    5.000 
#    2.250    0.000    0.000    3.000    0.000    0.000 
#    0.000    0.000    0.000    0.000    0.000    0.000 
#
# Total GULP energy -89148.918212 kJ/mol
# GULP energy per Si atom -5571.807388 kJ/mol
# Density = 2.546763 g / cm^3
# Si number density = 25.525725 Si / 1000 Ang^3
#
#
#
# Elastic Constant Matrix: (Units=GPa)
#
#
# Indices 1 2 3 4 5 6 
#
# 1 46.5890 0.5157 13.0429 -0.0018 0.0002 0.0004
# 2 0.5157 169.7691 77.6239 -0.0086 0.0096 0.0042
# 3 13.0429 77.6239 198.0567 -0.0207 0.0161 0.0032
# 4 -0.0018 -0.0086 -0.0207 15.8334 -0.0050 0.0076
# 5 0.0002 0.0096 0.0161 -0.0050 11.3035 0.0056
# 6 0.0004 0.0042 0.0032 0.0076 0.0056 21.0086
#
#
#
# Elastic Compliance Matrix: (Units=1/GPa)
#
#
# Indices 1 2 3 4 5 6 
#
# 1 0.021940 0.000724 -0.001728 0.000001 0.000002 0.000000
# 2 0.000724 0.007200 -0.002870 0.000000 -0.000002 -0.000001
# 3 -0.001728 -0.002870 0.006288 0.000006 -0.000007 0.000000
# 4 0.000001 0.000000 0.000006 0.063158 0.000028 -0.000023
# 5 0.000002 -0.000002 -0.000007 0.000028 0.088468 -0.000024
# 6 0.000000 -0.000001 0.000000 -0.000023 -0.000024 0.047600
#
#
# Mechanical properties :
#
#
# Convention : Reuss Voigt Hill
#
# Bulk Modulus (GPa) = 36.12834 66.30886 51.21860
# Shear Modulus (GPa) = 19.87054 31.17793 25.52423
#
# Velocity S-wave (km/s) = 2.79310 3.49869 3.16562
# Velocity P-wave (km/s) = 4.95846 6.50805 5.78537
#
# Compressibility (1/GPa) = 0.02767910
#
# Stress axis : x y z
#
# Youngs Moduli (GPa) = 45.57851 138.88424 159.04386
#
# Poissons Ratio (x) = -0.10051 0.27490
# Poissons Ratio (y) = -0.03298 0.45640
# Poissons Ratio (z) = 0.07878 0.39855
#
# Static dielectric constant tensor:
#      x y z
#    x 2.131820 0.000000 0.000020 
#    y 0.000000 1.989290 -0.000010 
#    z 0.000020 -0.000010 2.179100 
# 
# From -- ./inp_files/1177.got.cif
#   From: 2010.05.17/outbox.cif.g08.bks.cpg/sg24_1_cif.got.tgz:1177.got - 2010.06.04 00:33:39.
