data_PCOD9333667
_publ_section_title
;
Structure prediction by ZEFSAII (Michael W. Deem and Ramdas Pophale) SiO2 
 PCOD9333667
Probable space group: I 21 21 21
;
_chemical_formula_sum "Si O2"
_cell_formula_units_Z 52
_cell_length_a 13.916101
_cell_length_b 9.428469
_cell_length_c 20.947392
_cell_angle_alpha 90.000000
_cell_angle_beta 90.000000
_cell_angle_gamma 90.000000
_cell_volume 2748.455499
_symmetry_space_group_name_H-M "I 21 21 21"
_symmetry_group_IT_number 24
_symmetry_cell_setting 'orthorhombic'
loop_
_space_group_symop_operation_xyz
x,y,z
-x,1/2-y,z
x,-y,1/2-z
1/2-x,y,-z
1/2+x,1/2+y,1/2+z
1/2-x,-y,1/2+z
1/2+x,1/2-y,-z
-x,1/2+y,1/2-z
loop_
_atom_site_type_symbol
_atom_site_label
_atom_site_fract_x
_atom_site_fract_y
_atom_site_fract_z
Si Si1 0.620971 0.531611 0.854451
Si Si2 0.384984 0.225871 0.531436
Si Si3 0.162047 0.720519 0.323318
Si Si4 0.735863 0.001456 0.928123
Si Si5 0.698990 0.359081 0.271920
Si Si6 0.000000 0.250000 0.277156
Si Si7 0.387664 0.286221 0.392823
O O1 0.634988 0.592657 0.924413
O O2 0.616285 0.363123 0.853781
O O3 0.710152 0.575075 0.809883
O O4 0.535960 0.620769 0.821247
O O5 0.500000 0.250000 0.531412
O O6 0.333074 0.363899 0.561601
O O7 0.352826 0.208739 0.458127
O O8 0.187680 0.604700 0.376362
O O9 0.259421 0.767635 0.286354
O O10 0.085359 0.689190 0.267317
O O11 0.839328 0.940909 0.904078
O O12 0.750000 0.062321 0.000000
O O13 0.642270 0.500000 0.250000
O O14 0.648693 0.266399 0.325054
O O15 0.500000 0.250000 0.392587
#
# Coordination Sequence:
#
# PCOD9333667 Si02
#       7
#     8   8   8   8   8   4   8
#     4  10  19  36  58  90 125 163 202 241 301 377
#     4  10  20  35  64  88 118 162 209 251 298 379
#     4  10  23  37  58  91 133 163 198 252 322 371
#     4  10  22  42  61  88 126 162 205 261 314 378
#     4   9  19  39  56  81 117 151 204 259 299 367
#     4  10  20  34  60  94 134 168 200 238 304 398
#     4  10  21  40  62  88 112 159 220 263 304 367
#
# _framework density 18.919716999999999
#
# number of rings (size 3 to 8) (size 9 to 14) (size 15 to 20)
#    0.000    2.154    2.308    1.385    2.154    1.846 
#    8.308    0.000    0.000    0.000    0.000    0.000 
#    0.000    0.000    0.000    0.000    0.000    0.000 
#
# Total GULP energy -144861.422013 kJ/mol
# GULP energy per Si atom -5571.593154 kJ/mol
# Density = 1.887666 g / cm^3
# Si number density = 18.919717 Si / 1000 Ang^3
#
#
#
# Elastic Constant Matrix: (Units=GPa)
#
#
# Indices 1 2 3 4 5 6 
#
# 1 68.7615 35.8258 24.3192 0.0000 0.0000 0.0000
# 2 35.8258 81.4345 61.7858 0.0000 0.0000 0.0000
# 3 24.3192 61.7858 127.3484 0.0000 0.0000 0.0000
# 4 0.0000 0.0000 0.0000 32.9133 0.0000 0.0000
# 5 0.0000 0.0000 0.0000 0.0000 30.6488 0.0000
# 6 0.0000 0.0000 0.0000 0.0000 0.0000 19.4599
#
#
#
# Elastic Compliance Matrix: (Units=1/GPa)
#
#
# Indices 1 2 3 4 5 6 
#
# 1 0.018904 -0.008827 0.000672 0.000000 0.000000 0.000000
# 2 -0.008827 0.023555 -0.009743 0.000000 0.000000 0.000000
# 3 0.000672 -0.009743 0.012451 0.000000 0.000000 0.000000
# 4 0.000000 0.000000 0.000000 0.030383 0.000000 0.000000
# 5 0.000000 0.000000 0.000000 0.000000 0.032628 0.000000
# 6 0.000000 0.000000 0.000000 0.000000 0.000000 0.051388
#
#
# Mechanical properties :
#
#
# Convention : Reuss Voigt Hill
#
# Bulk Modulus (GPa) = 52.31188 57.93400 55.12294
# Shear Modulus (GPa) = 23.64360 26.97865 25.31112
#
# Velocity S-wave (km/s) = 3.53892 3.78028 3.66159
# Velocity P-wave (km/s) = 6.66393 7.05276 6.86110
#
# Compressibility (1/GPa) = 0.01911612
#
# Stress axis : x y z
#
# Youngs Moduli (GPa) = 52.89863 42.45411 80.31570
#
# Poissons Ratio (x) = 0.37473 -0.05401
# Poissons Ratio (y) = 0.46692 0.78248
# Poissons Ratio (z) = -0.03557 0.41361
#
# Static dielectric constant tensor:
#      x y z
#    x 1.717080 0.000000 0.000000 
#    y 0.000000 1.670900 0.000000 
#    z 0.000000 0.000000 1.679000 
# 
# From -- ./inp_files/33717.got.cif
#   From: 2010.05.17/outbox.cif.g08.bks.cpg/sg24_17_cif.got.tgz:33717.got - 2010.06.04 00:33:39.
