data_PCOD9333993
_publ_section_title
;
Structure prediction by ZEFSAII (Michael W. Deem and Ramdas Pophale) SiO2 
 PCOD9333993
Probable space group: I 21 21 21
;
_chemical_formula_sum "Si O2"
_cell_formula_units_Z 48
_cell_length_a 13.969460
_cell_length_b 12.996628
_cell_length_c 15.181824
_cell_angle_alpha 90.000000
_cell_angle_beta 90.000000
_cell_angle_gamma 90.000000
_cell_volume 2756.349340
_symmetry_space_group_name_H-M "I 21 21 21"
_symmetry_group_IT_number 24
_symmetry_cell_setting 'orthorhombic'
loop_
_space_group_symop_operation_xyz
x,y,z
-x,1/2-y,z
x,-y,1/2-z
1/2-x,y,-z
1/2+x,1/2+y,1/2+z
1/2-x,-y,1/2+z
1/2+x,1/2-y,-z
-x,1/2+y,1/2-z
loop_
_atom_site_type_symbol
_atom_site_label
_atom_site_fract_x
_atom_site_fract_y
_atom_site_fract_z
Si Si1 0.688765 0.699987 0.688206
Si Si2 0.682045 0.007974 0.582323
Si Si3 0.607809 0.790965 0.315347
Si Si4 0.068562 0.334225 0.331159
Si Si5 0.317421 0.500000 0.250000
Si Si6 0.398696 0.303427 0.973652
Si Si7 0.076308 0.000000 0.250000
O O1 0.801536 0.717282 0.708285
O O2 0.627029 0.778526 0.751405
O O3 0.672188 0.736931 0.587637
O O4 0.645052 0.585631 0.703158
O O5 0.750000 0.002367 0.500000
O O6 0.637235 0.118477 0.596811
O O7 0.746270 0.991813 0.667829
O O8 0.606125 0.917306 0.567392
O O9 0.500000 0.750000 0.301391
O O10 0.617838 0.809784 0.421410
O O11 0.621674 0.896110 0.260032
O O12 0.000000 0.250000 0.371212
O O13 0.998872 0.426526 0.301025
O O14 0.500000 0.250000 0.960086
#
# Coordination Sequence:
#
# PCOD9333993 Si02
#       7
#     8   8   8   8   4   8   4
#     4  11  19  36  57  85 120 156 191 253 309 363
#     4  12  20  35  63  86 116 160 203 246 307 358
#     4  11  24  38  59  87 119 163 208 247 295 362
#     4  10  20  34  55  87 117 146 194 248 311 367
#     4  12  21  41  60  88 116 156 207 255 290 366
#     4  11  20  33  59  94 120 145 201 258 310 355
#     4  10  21  31  58  88 116 152 181 251 328 364
#
# _framework density 17.414338000000001
#
# number of rings (size 3 to 8) (size 9 to 14) (size 15 to 20)
#    0.000    1.000    5.000    4.500    0.000    0.667 
#    0.000    0.833    0.000   10.000    0.000    0.000 
#    0.000    0.000    0.000    0.000    0.000    0.000 
#
# Total GULP energy -133697.062092 kJ/mol
# GULP energy per Si atom -5570.710920 kJ/mol
# Density = 1.737470 g / cm^3
# Si number density = 17.414338 Si / 1000 Ang^3
#
#
#
# Elastic Constant Matrix: (Units=GPa)
#
#
# Indices 1 2 3 4 5 6 
#
# 1 113.5777 44.5202 20.7895 0.0000 0.0000 0.0000
# 2 44.5202 110.5169 25.7770 0.0000 0.0000 0.0000
# 3 20.7895 25.7770 59.4866 0.0000 0.0000 0.0000
# 4 0.0000 0.0000 0.0000 18.6348 0.0000 0.0000
# 5 0.0000 0.0000 0.0000 0.0000 15.1140 0.0000
# 6 0.0000 0.0000 0.0000 0.0000 0.0000 26.7585
#
#
#
# Elastic Compliance Matrix: (Units=1/GPa)
#
#
# Indices 1 2 3 4 5 6 
#
# 1 0.010682 -0.003818 -0.002079 0.000000 0.000000 0.000000
# 2 -0.003818 0.011431 -0.003619 0.000000 0.000000 0.000000
# 3 -0.002079 -0.003619 0.019105 0.000000 0.000000 0.000000
# 4 0.000000 0.000000 0.000000 0.053663 0.000000 0.000000
# 5 0.000000 0.000000 0.000000 0.000000 0.066164 0.000000
# 6 0.000000 0.000000 0.000000 0.000000 0.000000 0.037371
#
#
# Mechanical properties :
#
#
# Convention : Reuss Voigt Hill
#
# Bulk Modulus (GPa) = 45.07290 51.75052 48.41171
# Shear Modulus (GPa) = 22.23786 24.93442 23.58614
#
# Velocity S-wave (km/s) = 3.57737 3.78806 3.68422
# Velocity P-wave (km/s) = 6.55761 6.99387 6.77925
#
# Compressibility (1/GPa) = 0.02218628
#
# Stress axis : x y z
#
# Youngs Moduli (GPa) = 93.61845 87.48504 52.34230
#
# Poissons Ratio (x) = 0.33403 0.10880
# Poissons Ratio (y) = 0.35745 0.18941
# Poissons Ratio (z) = 0.19459 0.31659
#
# Static dielectric constant tensor:
#      x y z
#    x 1.646920 0.000000 0.000000 
#    y 0.000000 1.643730 0.000000 
#    z 0.000000 0.000000 1.587400 
# 
# From -- ./inp_files/20781.got.cif
#   From: 2010.05.17/outbox.cif.g08.bks.cpg/sg24_11_cif.got.tgz:20781.got - 2010.06.04 00:33:39.
