data_PCOD9333963
_publ_section_title
;
Structure prediction by ZEFSAII (Michael W. Deem and Ramdas Pophale) SiO2 
 PCOD9333963
Probable space group: I 21 21 21
;
_chemical_formula_sum "Si O2"
_cell_formula_units_Z 40
_cell_length_a 8.224532
_cell_length_b 7.246714
_cell_length_c 29.499615
_cell_angle_alpha 90.000000
_cell_angle_beta 90.000000
_cell_angle_gamma 90.000000
_cell_volume 1758.201574
_symmetry_space_group_name_H-M "I 21 21 21"
_symmetry_group_IT_number 24
_symmetry_cell_setting 'orthorhombic'
loop_
_space_group_symop_operation_xyz
x,y,z
-x,1/2-y,z
x,-y,1/2-z
1/2-x,y,-z
1/2+x,1/2+y,1/2+z
1/2-x,-y,1/2+z
1/2+x,1/2-y,-z
-x,1/2+y,1/2-z
loop_
_atom_site_type_symbol
_atom_site_label
_atom_site_fract_x
_atom_site_fract_y
_atom_site_fract_z
Si Si1 0.686834 0.474312 0.451146
Si Si2 0.313165 0.474311 0.451146
Si Si3 0.500000 0.469243 0.303459
Si Si4 0.679007 0.974873 0.855440
Si Si5 0.820993 0.525127 0.144560
O O1 0.750000 0.536278 0.500000
O O2 0.500000 0.528926 0.444322
O O3 0.690211 0.250000 0.451932
O O4 0.791054 0.529673 0.407666
O O5 0.250000 0.536278 0.500000
O O6 0.208945 0.529672 0.407666
O O7 0.500000 0.250000 0.311830
O O8 0.499999 0.500000 0.250000
O O9 0.333578 0.538419 0.326323
O O10 0.666423 0.538419 0.326323
O O11 0.679524 0.750000 0.854316
O O12 0.500000 0.033965 0.839888
#
# Coordination Sequence:
#
# PCOD9333963 Si02
#       5
#     8   8   8   8   8
#     4   9  14  20  32  54  85 120 152 179 216 273
#     4   9  14  20  32  54  85 120 152 179 216 273
#     4  10  20  34  50  68  92 122 158 196 235 274
#     4   9  16  27  42  61  88 121 152 186 230 276
#     4   9  16  27  42  61  88 121 152 186 230 276
#
# _framework density 22.750519000000001
#
# number of rings (size 3 to 8) (size 9 to 14) (size 15 to 20)
#    0.000    2.800    2.000    1.200    0.000    5.600 
#    0.000    0.000    0.000    0.000    0.000    0.000 
#    0.000    1.600    0.000    0.000    0.000    0.000 
#
# Total GULP energy -111760.212997 kJ/mol
# GULP energy per Si atom -5588.010650 kJ/mol
# Density = 2.269874 g / cm^3
# Si number density = 22.750519 Si / 1000 Ang^3
#
#
#
# Elastic Constant Matrix: (Units=GPa)
#
#
# Indices 1 2 3 4 5 6 
#
# 1 237.1920 8.9785 103.5051 0.0000 0.0000 0.0000
# 2 8.9785 104.6979 -2.9881 0.0000 0.0000 0.0000
# 3 103.5051 -2.9881 153.5866 0.0000 0.0000 0.0000
# 4 0.0000 0.0000 0.0000 -19.5721 0.0000 0.0000
# 5 0.0000 0.0000 0.0000 0.0000 33.7231 0.0000
# 6 0.0000 0.0000 0.0000 0.0000 0.0000 -25.5022
#
#
#
# Elastic Compliance Matrix: (Units=1/GPa)
#
#
# Indices 1 2 3 4 5 6 
#
# 1 0.006014 -0.000632 -0.004065 0.000000 0.000000 0.000000
# 2 -0.000632 0.009623 0.000613 0.000000 0.000000 0.000000
# 3 -0.004065 0.000613 0.009262 0.000000 0.000000 0.000000
# 4 0.000000 0.000000 0.000000 -0.051093 0.000000 0.000000
# 5 0.000000 0.000000 0.000000 0.000000 0.029653 0.000000
# 6 0.000000 0.000000 0.000000 0.000000 0.000000 -0.039212
#
#
# Mechanical properties :
#
#
# Convention : Reuss Voigt Hill
#
# Bulk Modulus (GPa) = 59.76769 79.38529 69.57649
# Shear Modulus (GPa) = -227.19045 23.46184 -101.86431
#
# Velocity S-wave (km/s) = -10.00392 3.21482 -6.69863
# Velocity P-wave (km/s) = 10.34940 6.98210 5.40187
#
# Compressibility (1/GPa) = 0.01673145
#
# Stress axis : x y z
#
# Youngs Moduli (GPa) = 166.28304 103.91815 107.96232
#
# Poissons Ratio (x) = 0.06565 0.43888
# Poissons Ratio (y) = 0.10505 -0.06618
# Poissons Ratio (z) = 0.67596 -0.06370
#
# Static dielectric constant tensor:
#      x y z
#    x 1.818390 0.000000 0.000000 
#    y 0.000000 1.949480 0.000000 
#    z 0.000000 0.000000 1.781200 
# 
# From -- ./inp_files/11361.got.cif
#   From: 2010.05.17/outbox.cif.g08.bks.cpg/sg24_6_cif.got.tgz:11361.got - 2010.06.04 00:33:39.
