data_PCOD9333735
_publ_section_title
;
Structure prediction by ZEFSAII (Michael W. Deem and Ramdas Pophale) SiO2 
 PCOD9333735
Probable space group: I 21 21 21
;
_chemical_formula_sum "Si O2"
_cell_formula_units_Z 56
_cell_length_a 20.159911
_cell_length_b 9.470487
_cell_length_c 15.143598
_cell_angle_alpha 90.000000
_cell_angle_beta 90.000000
_cell_angle_gamma 90.000000
_cell_volume 2891.278955
_symmetry_space_group_name_H-M "I 21 21 21"
_symmetry_group_IT_number 24
_symmetry_cell_setting 'orthorhombic'
loop_
_space_group_symop_operation_xyz
x,y,z
-x,1/2-y,z
x,-y,1/2-z
1/2-x,y,-z
1/2+x,1/2+y,1/2+z
1/2-x,-y,1/2+z
1/2+x,1/2-y,-z
-x,1/2+y,1/2-z
loop_
_atom_site_type_symbol
_atom_site_label
_atom_site_fract_x
_atom_site_fract_y
_atom_site_fract_z
Si Si1 0.629784 0.221080 0.564476
Si Si2 0.464272 0.483617 0.649334
Si Si3 0.235801 0.476862 0.349740
Si Si4 0.589610 0.527112 0.522669
Si Si5 0.019351 0.082870 0.834795
Si Si6 0.118135 0.482281 0.597024
Si Si7 0.144640 0.678933 0.438216
O O1 0.629318 0.383802 0.541247
O O2 0.572388 0.165913 0.630997
O O3 0.697182 0.152153 0.602938
O O4 0.612032 0.142482 0.473595
O O5 0.485348 0.500000 0.750000
O O6 0.523312 0.509632 0.581255
O O7 0.408916 0.601219 0.624949
O O8 0.212510 0.500000 0.250000
O O9 0.314332 0.456825 0.350651
O O10 0.213846 0.615398 0.404675
O O11 0.564457 0.558716 0.422575
O O12 0.632464 0.656875 0.558702
O O13 0.949317 0.004210 0.851792
O O14 0.000000 0.250000 0.823010
O O15 0.048980 0.000000 0.750000
O O16 0.129508 0.618979 0.535400
#
# Coordination Sequence:
#
# PCOD9333735 Si02
#       7
#     8   8   8   8   8   8   8
#     4  10  21  35  61  85 123 158 204 250 313 355
#     4  10  20  34  56  87 122 164 210 245 295 376
#     4  10  21  41  62  89 116 160 221 255 289 377
#     4  12  22  38  58  91 129 159 196 259 316 372
#     4  12  25  41  65  96 126 166 209 262 319 375
#     4  10  20  41  65  84 114 164 210 250 302 365
#     4  10  19  37  61  81 123 159 200 246 315 362
#
# _framework density 19.368590999999999
#
# number of rings (size 3 to 8) (size 9 to 14) (size 15 to 20)
#    0.000    1.714    4.286    4.714    2.000    3.429 
#    0.000    2.857    0.000    0.000    0.000    0.000 
#    0.000    0.000    0.000    0.000    0.000    0.000 
#
# Total GULP energy -156217.010770 kJ/mol
# GULP energy per Si atom -5579.178956 kJ/mol
# Density = 1.932451 g / cm^3
# Si number density = 19.368591 Si / 1000 Ang^3
#
#
#
# Elastic Constant Matrix: (Units=GPa)
#
#
# Indices 1 2 3 4 5 6 
#
# 1 52.7986 10.0573 6.3070 0.0000 0.0000 0.0000
# 2 10.0573 142.5275 16.6859 0.0000 0.0000 0.0000
# 3 6.3070 16.6859 106.0936 0.0000 0.0000 0.0000
# 4 0.0000 0.0000 0.0000 6.7248 0.0000 0.0000
# 5 0.0000 0.0000 0.0000 0.0000 4.0179 0.0000
# 6 0.0000 0.0000 0.0000 0.0000 0.0000 6.9111
#
#
#
# Elastic Compliance Matrix: (Units=1/GPa)
#
#
# Indices 1 2 3 4 5 6 
#
# 1 0.019292 -0.001250 -0.000950 0.000000 0.000000 0.000000
# 2 -0.001250 0.007229 -0.001063 0.000000 0.000000 0.000000
# 3 -0.000950 -0.001063 0.009649 0.000000 0.000000 0.000000
# 4 0.000000 0.000000 0.000000 0.148702 0.000000 0.000000
# 5 0.000000 0.000000 0.000000 0.000000 0.248888 0.000000
# 6 0.000000 0.000000 0.000000 0.000000 0.000000 0.144694
#
#
# Mechanical properties :
#
#
# Convention : Reuss Voigt Hill
#
# Bulk Modulus (GPa) = 33.73386 40.83559 37.28472
# Shear Modulus (GPa) = 8.40532 21.42207 14.91369
#
# Velocity S-wave (km/s) = 2.08545 3.32930 2.77789
# Velocity P-wave (km/s) = 4.82218 5.99234 5.43882
#
# Compressibility (1/GPa) = 0.02964381
#
# Stress axis : x y z
#
# Youngs Moduli (GPa) = 51.83621 138.33561 103.63505
#
# Poissons Ratio (x) = 0.17293 0.09848
# Poissons Ratio (y) = 0.06480 0.11012
# Poissons Ratio (z) = 0.04926 0.14700
#
# Static dielectric constant tensor:
#      x y z
#    x 1.702300 0.000000 0.000000 
#    y 0.000000 1.700050 0.000000 
#    z 0.000000 0.000000 1.692210 
# 
# From -- ./inp_files/27529.got.cif
#   From: 2010.05.17/outbox.cif.g08.bks.cpg/sg24_14_cif.got.tgz:27529.got - 2010.06.04 00:33:39.
