data_PCOD9333501
_publ_section_title
;
Structure prediction by ZEFSAII (Michael W. Deem and Ramdas Pophale) SiO2 
 PCOD9333501
Probable space group: I 21 21 21
;
_chemical_formula_sum "Si O2"
_cell_formula_units_Z 56
_cell_length_a 20.784029
_cell_length_b 8.759216
_cell_length_c 14.512921
_cell_angle_alpha 90.000000
_cell_angle_beta 90.000000
_cell_angle_gamma 90.000000
_cell_volume 2642.103382
_symmetry_space_group_name_H-M "I 21 21 21"
_symmetry_group_IT_number 24
_symmetry_cell_setting 'orthorhombic'
loop_
_space_group_symop_operation_xyz
x,y,z
-x,1/2-y,z
x,-y,1/2-z
1/2-x,y,-z
1/2+x,1/2+y,1/2+z
1/2-x,-y,1/2+z
1/2+x,1/2-y,-z
-x,1/2+y,1/2-z
loop_
_atom_site_type_symbol
_atom_site_label
_atom_site_fract_x
_atom_site_fract_y
_atom_site_fract_z
Si Si1 0.250000 0.288038 0.500000
Si Si2 0.500000 0.250000 0.259844
Si Si3 0.153058 0.648116 0.316523
Si Si4 0.713377 0.957019 0.354592
Si Si5 0.612201 0.675447 0.997455
Si Si6 0.904065 0.959682 0.507294
Si Si7 0.522072 0.482350 0.120733
Si Si8 0.438418 0.145210 0.697133
O O1 0.253794 0.400802 0.411011
O O2 0.188146 0.183217 0.502582
O O3 0.543971 0.348414 0.189862
O O4 0.478736 0.389178 0.324878
O O5 0.151839 0.500000 0.250000
O O6 0.228487 0.664775 0.343998
O O7 0.114559 0.613281 0.410148
O O8 0.117568 0.777802 0.258281
O O9 0.693947 0.000000 0.250000
O O10 0.651733 0.920030 0.417992
O O11 0.589398 0.605041 0.902020
O O12 0.578948 0.581119 0.078288
O O13 0.594222 0.855719 0.995991
O O14 0.974004 0.917394 0.544681
O O15 0.500000 0.250000 0.682949
O O16 0.463457 0.000000 0.750000
#
# Coordination Sequence:
#
# PCOD9333501 Si02
#       8
#     4   4   8   8   8   8   8   8
#     4  10  20  38  68  96 128 184 228 262 342 420
#     4  10  24  40  58  94 126 170 216 272 342 400
#     4  11  20  39  64  95 131 165 223 277 319 407
#     4  10  19  33  62 100 130 166 220 274 315 395
#     4  11  21  41  66  93 131 177 223 274 339 412
#     4  11  20  36  65 100 127 169 220 274 335 397
#     4  11  23  39  65  91 133 167 221 281 339 406
#     4  12  27  41  67  99 136 176 225 285 353 407
#
# _framework density 21.195233000000002
#
# number of rings (size 3 to 8) (size 9 to 14) (size 15 to 20)
#    0.000    1.143    5.714    2.143    4.000    1.143 
#    0.000    0.000    9.429    0.000    0.000    0.000 
#    0.000    0.000    0.000    0.000    0.000    0.000 
#
# Total GULP energy -156260.914187 kJ/mol
# GULP energy per Si atom -5580.746935 kJ/mol
# Density = 2.114699 g / cm^3
# Si number density = 21.195233 Si / 1000 Ang^3
#
#
#
# Elastic Constant Matrix: (Units=GPa)
#
#
# Indices 1 2 3 4 5 6 
#
# 1 88.2537 7.0138 14.1914 0.0000 0.0000 0.0000
# 2 7.0138 36.3399 16.4155 0.0000 0.0000 0.0000
# 3 14.1914 16.4155 123.2437 0.0000 0.0000 0.0000
# 4 0.0000 0.0000 0.0000 24.0608 0.0000 0.0000
# 5 0.0000 0.0000 0.0000 0.0000 12.7164 0.0000
# 6 0.0000 0.0000 0.0000 0.0000 0.0000 -17.6250
#
#
#
# Elastic Compliance Matrix: (Units=1/GPa)
#
#
# Indices 1 2 3 4 5 6 
#
# 1 0.011648 -0.001747 -0.001109 0.000000 0.000000 0.000000
# 2 -0.001747 0.029542 -0.003734 0.000000 0.000000 0.000000
# 3 -0.001109 -0.003734 0.008739 0.000000 0.000000 0.000000
# 4 0.000000 0.000000 0.000000 0.041561 0.000000 0.000000
# 5 0.000000 0.000000 0.000000 0.000000 0.078639 0.000000
# 6 0.000000 0.000000 0.000000 0.000000 0.000000 -0.056738
#
#
# Mechanical properties :
#
#
# Convention : Reuss Voigt Hill
#
# Bulk Modulus (GPa) = 27.21109 35.89765 31.55437
# Shear Modulus (GPa) = 36.01773 17.84488 26.93130
#
# Velocity S-wave (km/s) = 4.12677 2.90475 3.56846
# Velocity P-wave (km/s) = 5.96432 5.31258 5.64786
#
# Compressibility (1/GPa) = 0.03674972
#
# Stress axis : x y z
#
# Youngs Moduli (GPa) = 85.85097 33.85034 114.43022
#
# Poissons Ratio (x) = 0.05915 0.12685
# Poissons Ratio (y) = 0.15002 0.42724
# Poissons Ratio (z) = 0.09517 0.12638
#
# Static dielectric constant tensor:
#      x y z
#    x 1.787060 0.000000 0.000000 
#    y 0.000000 1.771010 0.000000 
#    z 0.000000 0.000000 1.809740 
# 
# From -- ./inp_files/27581.got.cif
#   From: 2010.05.17/outbox.cif.g08.bks.cpg/sg24_14_cif.got.tgz:27581.got - 2010.06.04 00:33:39.
