data_PCOD9333577
_publ_section_title
;
Structure prediction by ZEFSAII (Michael W. Deem and Ramdas Pophale) SiO2 
 PCOD9333577
Probable space group: I 21 21 21
;
_chemical_formula_sum "Si O2"
_cell_formula_units_Z 48
_cell_length_a 14.186893
_cell_length_b 5.580661
_cell_length_c 24.007320
_cell_angle_alpha 90.000000
_cell_angle_beta 90.000000
_cell_angle_gamma 90.000000
_cell_volume 1900.713312
_symmetry_space_group_name_H-M "I 21 21 21"
_symmetry_group_IT_number 24
_symmetry_cell_setting 'orthorhombic'
loop_
_space_group_symop_operation_xyz
x,y,z
-x,1/2-y,z
x,-y,1/2-z
1/2-x,y,-z
1/2+x,1/2+y,1/2+z
1/2-x,-y,1/2+z
1/2+x,1/2-y,-z
-x,1/2+y,1/2-z
loop_
_atom_site_type_symbol
_atom_site_label
_atom_site_fract_x
_atom_site_fract_y
_atom_site_fract_z
Si Si1 0.308577 0.614724 0.425821
Si Si2 0.089326 0.647232 0.428451
Si Si3 0.620061 0.356519 0.630804
Si Si4 0.640341 0.500000 0.750000
Si Si5 0.803422 0.809181 0.701675
Si Si6 0.193763 0.120283 0.557754
Si Si7 0.049932 0.000000 0.750000
O O1 0.199335 0.634843 0.448483
O O2 0.298772 0.588671 0.359317
O O3 0.358917 0.372744 0.444822
O O4 0.356825 0.868256 0.436478
O O5 0.081268 0.384866 0.399414
O O6 0.000000 0.750000 0.464532
O O7 0.089229 0.876871 0.387350
O O8 0.600361 0.355119 0.696953
O O9 0.729163 0.363922 0.608079
O O10 0.705928 0.692829 0.719216
O O11 0.881188 0.599113 0.702316
O O12 0.826384 0.000000 0.750000
O O13 0.250000 0.111983 0.500000
O O14 0.000000 0.750000 0.767471
#
# Coordination Sequence:
#
# PCOD9333577 Si02
#       7
#     8   8   8   4   8   8   4
#     4  10  21  35  55  91 113 153 201 238 300 348
#     4  10  19  35  53  76 116 156 199 237 279 339
#     4  10  21  34  53  80 115 149 197 234 291 338
#     4  11  20  34  56  84 119 152 186 241 284 362
#     4  11  21  35  64  83 121 154 194 238 295 352
#     4  10  19  35  55  83 120 141 187 257 302 334
#     4  11  24  40  56  90 121 156 202 231 296 374
#
# _framework density 25.253678000000001
#
# number of rings (size 3 to 8) (size 9 to 14) (size 15 to 20)
#    0.000    1.667    4.167    3.000    2.333    0.000 
#    0.000    1.667    0.000    0.000    0.000   46.667 
#    0.000    0.000    0.000    0.000    0.000    0.000 
#
# Total GULP energy -133665.086104 kJ/mol
# GULP energy per Si atom -5569.378588 kJ/mol
# Density = 2.519620 g / cm^3
# Si number density = 25.253678 Si / 1000 Ang^3
#
#
#
# Elastic Constant Matrix: (Units=GPa)
#
#
# Indices 1 2 3 4 5 6 
#
# 1 65.7699 37.8757 12.1891 0.0000 0.0000 0.0000
# 2 37.8757 260.5319 39.6518 0.0000 0.0000 0.0000
# 3 12.1891 39.6518 102.8319 0.0000 0.0000 0.0000
# 4 0.0000 0.0000 0.0000 34.4126 0.0000 0.0000
# 5 0.0000 0.0000 0.0000 0.0000 6.4639 0.0000
# 6 0.0000 0.0000 0.0000 0.0000 0.0000 39.5707
#
#
#
# Elastic Compliance Matrix: (Units=1/GPa)
#
#
# Indices 1 2 3 4 5 6 
#
# 1 0.016712 -0.002261 -0.001109 0.000000 0.000000 0.000000
# 2 -0.002261 0.004383 -0.001422 0.000000 0.000000 0.000000
# 3 -0.001109 -0.001422 0.010405 0.000000 0.000000 0.000000
# 4 0.000000 0.000000 0.000000 0.029059 0.000000 0.000000
# 5 0.000000 0.000000 0.000000 0.000000 0.154705 0.000000
# 6 0.000000 0.000000 0.000000 0.000000 0.000000 0.025271
#
#
# Mechanical properties :
#
#
# Convention : Reuss Voigt Hill
#
# Bulk Modulus (GPa) = 45.62981 67.61856 56.62418
# Shear Modulus (GPa) = 19.42314 38.71726 29.07020
#
# Velocity S-wave (km/s) = 2.77631 3.91977 3.39651
# Velocity P-wave (km/s) = 5.32776 6.87895 6.15244
#
# Compressibility (1/GPa) = 0.02191550
#
# Stress axis : x y z
#
# Youngs Moduli (GPa) = 59.83721 228.13196 96.11219
#
# Poissons Ratio (x) = 0.51575 0.10661
# Poissons Ratio (y) = 0.13528 0.13670
# Poissons Ratio (z) = 0.06637 0.32446
#
# Static dielectric constant tensor:
#      x y z
#    x 2.194870 0.000000 0.000000 
#    y 0.000000 2.046420 0.000000 
#    z 0.000000 0.000000 2.075710 
# 
# From -- ./inp_files/35972.got.cif
#   From: 2010.05.17/outbox.cif.g08.bks.cpg/sg24_18_cif.got.tgz:35972.got - 2010.06.04 00:33:39.
