data_PCOD9333952
_publ_section_title
;
Structure prediction by ZEFSAII (Michael W. Deem and Ramdas Pophale) SiO2 
 PCOD9333952
Probable space group: I 21 21 21
;
_chemical_formula_sum "Si O2"
_cell_formula_units_Z 64
_cell_length_a 21.967437
_cell_length_b 12.409119
_cell_length_c 9.563928
_cell_angle_alpha 90.000000
_cell_angle_beta 90.000000
_cell_angle_gamma 90.000000
_cell_volume 2607.093680
_symmetry_space_group_name_H-M "I 21 21 21"
_symmetry_group_IT_number 24
_symmetry_cell_setting 'orthorhombic'
loop_
_space_group_symop_operation_xyz
x,y,z
-x,1/2-y,z
x,-y,1/2-z
1/2-x,y,-z
1/2+x,1/2+y,1/2+z
1/2-x,-y,1/2+z
1/2+x,1/2-y,-z
-x,1/2+y,1/2-z
loop_
_atom_site_type_symbol
_atom_site_label
_atom_site_fract_x
_atom_site_fract_y
_atom_site_fract_z
Si Si1 0.045067 0.137507 0.693895
Si Si2 0.067985 0.637355 0.966212
Si Si3 0.816915 0.582808 0.861735
Si Si4 0.661710 0.561740 0.609246
Si Si5 0.710055 0.809771 0.635487
Si Si6 0.425986 0.654721 0.694885
Si Si7 0.796579 0.840088 0.882889
Si Si8 0.533839 0.372312 0.975307
O O1 0.057874 0.247594 0.609367
O O2 0.112805 0.091942 0.686895
O O3 0.990566 0.078929 0.606692
O O4 0.026845 0.149378 0.858120
O O5 0.136640 0.610076 0.913634
O O6 0.066745 0.651901 0.136013
O O7 0.787065 0.500000 0.750000
O O8 0.799825 0.708161 0.879129
O O9 0.808358 0.522016 0.005394
O O10 0.652451 0.500000 0.750000
O O11 0.691937 0.679942 0.633963
O O12 0.595142 0.563589 0.539349
O O13 0.750000 0.823497 0.500000
O O14 0.644267 0.865593 0.656140
O O15 0.757815 0.857651 0.745078
O O16 0.475185 0.583753 0.609570
O O17 0.443004 0.767952 0.618308
O O18 0.750000 0.876107 0.000000
#
# Coordination Sequence:
#
# PCOD9333952 Si02
#       8
#     8   8   8   8   8   8   8   8
#     4  10  20  33  55  75  97 134 174 226 280 310
#     4  10  20  33  55  75  97 134 174 226 280 310
#     4  11  22  36  52  74 108 143 185 220 254 312
#     4  11  24  36  52  76 107 148 186 218 262 307
#     4  11  24  36  52  76 107 148 186 218 262 307
#     4  10  20  34  53  75 100 131 176 226 275 316
#     4  11  22  36  52  74 108 143 185 220 254 312
#     4  10  20  34  53  75 100 131 176 226 275 316
#
# _framework density 24.548408999999999
#
# number of rings (size 3 to 8) (size 9 to 14) (size 15 to 20)
#    0.000    1.500    2.500    4.500   14.000    3.000 
#    0.000    0.000    0.000    0.000    0.000    0.000 
#    0.000    6.000    0.000    0.000    0.000    0.000 
#
# Total GULP energy -178225.734885 kJ/mol
# GULP energy per Si atom -5569.554215 kJ/mol
# Density = 2.449254 g / cm^3
# Si number density = 24.548409 Si / 1000 Ang^3
#
#
#
# Elastic Constant Matrix: (Units=GPa)
#
#
# Indices 1 2 3 4 5 6 
#
# 1 196.0622 -7.4454 51.1893 0.0000 0.0000 0.0000
# 2 -7.4454 38.7190 7.1282 0.0000 0.0000 0.0000
# 3 51.1893 7.1282 210.0896 0.0000 0.0000 0.0000
# 4 0.0000 0.0000 0.0000 18.8287 0.0000 0.0000
# 5 0.0000 0.0000 0.0000 0.0000 13.4381 0.0000
# 6 0.0000 0.0000 0.0000 0.0000 0.0000 8.4087
#
#
#
# Elastic Compliance Matrix: (Units=1/GPa)
#
#
# Indices 1 2 3 4 5 6 
#
# 1 0.005513 0.001316 -0.001388 0.000000 0.000000 0.000000
# 2 0.001316 0.026303 -0.001213 0.000000 0.000000 0.000000
# 3 -0.001388 -0.001213 0.005139 0.000000 0.000000 0.000000
# 4 0.000000 0.000000 0.000000 0.053110 0.000000 0.000000
# 5 0.000000 0.000000 0.000000 0.000000 0.074416 0.000000
# 6 0.000000 0.000000 0.000000 0.000000 0.000000 0.118924
#
#
# Mechanical properties :
#
#
# Convention : Reuss Voigt Hill
#
# Bulk Modulus (GPa) = 29.08265 60.73499 44.90882
# Shear Modulus (GPa) = 16.81025 34.40167 25.60596
#
# Velocity S-wave (km/s) = 2.61967 3.74756 3.23318
# Velocity P-wave (km/s) = 4.58508 6.59699 5.68081
#
# Compressibility (1/GPa) = 0.03438477
#
# Stress axis : x y z
#
# Youngs Moduli (GPa) = 181.39848 38.01789 194.58344
#
# Poissons Ratio (x) = -0.05001 0.27005
# Poissons Ratio (y) = -0.23864 0.23603
# Poissons Ratio (z) = 0.25175 0.04612
#
# Static dielectric constant tensor:
#      x y z
#    x 2.144060 0.000000 0.000000 
#    y 0.000000 2.198980 0.000000 
#    z 0.000000 0.000000 1.813100 
# 
# From -- ./inp_files/16117.got.cif
#   From: 2010.05.17/outbox.cif.g08.bks.cpg/sg24_9_cif.got.tgz:16117.got - 2010.06.04 00:33:39.
