data_PCOD9333842
_publ_section_title
;
Structure prediction by ZEFSAII (Michael W. Deem and Ramdas Pophale) SiO2 
 PCOD9333842
Probable space group: I 21 21 21
;
_chemical_formula_sum "Si O2"
_cell_formula_units_Z 56
_cell_length_a 12.323451
_cell_length_b 13.848579
_cell_length_c 15.212014
_cell_angle_alpha 90.000000
_cell_angle_beta 90.000000
_cell_angle_gamma 90.000000
_cell_volume 2596.117065
_symmetry_space_group_name_H-M "I 21 21 21"
_symmetry_group_IT_number 24
_symmetry_cell_setting 'orthorhombic'
loop_
_space_group_symop_operation_xyz
x,y,z
-x,1/2-y,z
x,-y,1/2-z
1/2-x,y,-z
1/2+x,1/2+y,1/2+z
1/2-x,-y,1/2+z
1/2+x,1/2-y,-z
-x,1/2+y,1/2-z
loop_
_atom_site_type_symbol
_atom_site_label
_atom_site_fract_x
_atom_site_fract_y
_atom_site_fract_z
Si Si1 0.899969 0.027727 0.449149
Si Si2 0.276409 0.203311 0.290553
Si Si3 0.005257 0.897361 0.758650
Si Si4 0.380722 0.033658 0.651475
Si Si5 0.804752 0.099862 0.617942
Si Si6 0.262628 0.144512 0.094035
Si Si7 0.991779 0.859863 0.567220
O O1 0.860266 0.104792 0.521873
O O2 0.793247 0.022928 0.387973
O O3 0.008924 0.056953 0.399486
O O4 0.927261 0.930106 0.503120
O O5 0.403983 0.175034 0.294984
O O6 0.202764 0.121239 0.335285
O O7 0.258088 0.302241 0.341356
O O8 0.252553 0.202865 0.185181
O O9 0.907117 0.923243 0.821923
O O10 0.952310 0.859259 0.668112
O O11 0.066784 0.000000 0.750000
O O12 0.409596 0.000000 0.750000
O O13 0.319985 0.944447 0.603844
O O14 0.385093 0.105253 0.085017
O O15 0.250000 0.197458 0.000000
O O16 0.000000 0.750000 0.534307
#
# Coordination Sequence:
#
# PCOD9333842 Si02
#       7
#     8   8   8   8   8   8   8
#     4  11  25  47  64  97 141 187 232 287 357 424
#     4  10  22  41  69 104 136 184 237 289 354 435
#     4  11  20  41  72 101 136 178 227 297 359 402
#     4  10  22  43  71  97 134 182 235 293 357 416
#     4  11  25  46  62  99 147 186 233 279 358 431
#     4  10  19  40  72 108 134 168 237 311 357 404
#     4  11  22  42  72 102 132 173 237 297 352 425
#
# _framework density 21.570675000000001
#
# number of rings (size 3 to 8) (size 9 to 14) (size 15 to 20)
#    0.000    1.429    2.857    4.286    0.000    1.143 
#   15.429    1.429    0.000    0.000    0.000    0.000 
#    0.000    0.000    0.000    0.000    0.000    0.000 
#
# Total GULP energy -156224.354742 kJ/mol
# GULP energy per Si atom -5579.441241 kJ/mol
# Density = 2.152158 g / cm^3
# Si number density = 21.570675 Si / 1000 Ang^3
#
#
#
# Elastic Constant Matrix: (Units=GPa)
#
#
# Indices 1 2 3 4 5 6 
#
# 1 144.9610 32.4655 59.0924 0.0000 0.0000 0.0000
# 2 32.4655 84.4751 50.4868 0.0000 0.0000 0.0000
# 3 59.0924 50.4868 105.8150 0.0000 0.0000 0.0000
# 4 0.0000 0.0000 0.0000 33.1713 0.0000 0.0000
# 5 0.0000 0.0000 0.0000 0.0000 41.8394 0.0000
# 6 0.0000 0.0000 0.0000 0.0000 0.0000 20.3270
#
#
#
# Elastic Compliance Matrix: (Units=1/GPa)
#
#
# Indices 1 2 3 4 5 6 
#
# 1 0.008956 -0.000633 -0.004699 0.000000 0.000000 0.000000
# 2 -0.000633 0.016605 -0.007569 0.000000 0.000000 0.000000
# 3 -0.004699 -0.007569 0.015686 0.000000 0.000000 0.000000
# 4 0.000000 0.000000 0.000000 0.030147 0.000000 0.000000
# 5 0.000000 0.000000 0.000000 0.000000 0.023901 0.000000
# 6 0.000000 0.000000 0.000000 0.000000 0.000000 0.049196
#
#
# Mechanical properties :
#
#
# Convention : Reuss Voigt Hill
#
# Bulk Modulus (GPa) = 64.75093 68.81562 66.78328
# Shear Modulus (GPa) = 28.49971 31.94797 30.22384
#
# Velocity S-wave (km/s) = 3.63881 3.85266 3.74726
# Velocity P-wave (km/s) = 6.90925 7.19460 7.05337
#
# Compressibility (1/GPa) = 0.01544379
#
# Stress axis : x y z
#
# Youngs Moduli (GPa) = 111.65876 60.22373 63.75138
#
# Poissons Ratio (x) = 0.03815 0.29958
# Poissons Ratio (y) = 0.07073 0.48252
# Poissons Ratio (z) = 0.52470 0.45582
#
# Static dielectric constant tensor:
#      x y z
#    x 1.814270 0.000000 0.000000 
#    y 0.000000 1.844990 0.000000 
#    z 0.000000 0.000000 1.897660 
# 
# From -- ./inp_files/25827.got.cif
#   From: 2010.05.17/outbox.cif.g08.bks.cpg/sg24_13_cif.got.tgz:25827.got - 2010.06.04 00:33:39.
