data_PCOD9333727
_publ_section_title
;
Structure prediction by ZEFSAII (Michael W. Deem and Ramdas Pophale) SiO2 
 PCOD9333727
Probable space group: I 21 21 21
;
_chemical_formula_sum "Si O2"
_cell_formula_units_Z 48
_cell_length_a 7.799385
_cell_length_b 10.147210
_cell_length_c 27.355993
_cell_angle_alpha 90.000000
_cell_angle_beta 90.000000
_cell_angle_gamma 90.000000
_cell_volume 2165.007929
_symmetry_space_group_name_H-M "I 21 21 21"
_symmetry_group_IT_number 24
_symmetry_cell_setting 'orthorhombic'
loop_
_space_group_symop_operation_xyz
x,y,z
-x,1/2-y,z
x,-y,1/2-z
1/2-x,y,-z
1/2+x,1/2+y,1/2+z
1/2-x,-y,1/2+z
1/2+x,1/2-y,-z
-x,1/2+y,1/2-z
loop_
_atom_site_type_symbol
_atom_site_label
_atom_site_fract_x
_atom_site_fract_y
_atom_site_fract_z
Si Si1 0.801009 0.423317 0.400393
Si Si2 0.199264 0.591015 0.205303
Si Si3 0.750000 0.558381 0.500000
Si Si4 0.000000 0.250000 0.051095
Si Si5 0.183264 0.314166 0.554129
Si Si6 0.280431 0.898883 0.793185
Si Si7 0.816981 0.041652 0.104174
O O1 0.716418 0.476459 0.450399
O O2 0.801316 0.266168 0.407902
O O3 0.722870 0.448885 0.347006
O O4 0.990505 0.482767 0.400350
O O5 0.255446 0.500000 0.250000
O O6 0.264472 0.742427 0.210028
O O7 0.244910 0.506865 0.156932
O O8 0.989958 0.598761 0.206381
O O9 0.911306 0.645581 0.484381
O O10 0.147345 0.309923 0.086749
O O11 0.250000 0.292472 0.500000
O O12 0.197465 0.466778 0.566010
O O13 0.000000 0.250000 0.560764
O O14 0.227072 0.000000 0.750000
#
# Coordination Sequence:
#
# PCOD9333727 Si02
#       7
#     8   8   4   4   8   8   8
#     4  10  19  37  58  85 117 158 203 255 311 378
#     4   9  17  29  53  85 119 152 198 253 305 367
#     4  10  22  36  56  82 120 160 204 248 314 378
#     4  10  24  38  56  84 126 170 200 254 316 388
#     4  12  24  36  62  92 119 157 209 267 322 381
#     4   9  17  30  53  84 115 154 200 252 309 369
#     4  10  21  38  58  85 126 163 200 258 316 380
#
# _framework density 22.170821
#
# number of rings (size 3 to 8) (size 9 to 14) (size 15 to 20)
#    0.000    2.000    2.500    1.500    3.500    5.333 
#    0.000    0.000    0.000    1.000    2.167    0.000 
#    0.000    0.000    0.000    0.000    0.000    0.000 
#
# Total GULP energy -133816.118084 kJ/mol
# GULP energy per Si atom -5575.671587 kJ/mol
# Density = 2.212036 g / cm^3
# Si number density = 22.170821 Si / 1000 Ang^3
#
#
#
# Elastic Constant Matrix: (Units=GPa)
#
#
# Indices 1 2 3 4 5 6 
#
# 1 29.7841 10.9341 14.6794 0.0000 0.0000 0.0000
# 2 10.9341 106.0608 79.1392 0.0000 0.0000 0.0000
# 3 14.6794 79.1392 197.0872 0.0000 0.0000 0.0000
# 4 0.0000 0.0000 0.0000 24.4175 0.0000 0.0000
# 5 0.0000 0.0000 0.0000 0.0000 5.8017 0.0000
# 6 0.0000 0.0000 0.0000 0.0000 0.0000 38.4500
#
#
#
# Elastic Compliance Matrix: (Units=1/GPa)
#
#
# Indices 1 2 3 4 5 6 
#
# 1 0.035275 -0.002393 -0.001666 0.000000 0.000000 0.000000
# 2 -0.002393 0.013624 -0.005293 0.000000 0.000000 0.000000
# 3 -0.001666 -0.005293 0.007323 0.000000 0.000000 0.000000
# 4 0.000000 0.000000 0.000000 0.040954 0.000000 0.000000
# 5 0.000000 0.000000 0.000000 0.000000 0.172363 0.000000
# 6 0.000000 0.000000 0.000000 0.000000 0.000000 0.026008
#
#
# Mechanical properties :
#
#
# Convention : Reuss Voigt Hill
#
# Bulk Modulus (GPa) = 26.65373 60.27083 43.46228
# Shear Modulus (GPa) = 15.30186 28.94580 22.12383
#
# Velocity S-wave (km/s) = 2.62998 3.61720 3.16235
# Velocity P-wave (km/s) = 4.61199 6.68501 5.74281
#
# Compressibility (1/GPa) = 0.03751820
#
# Stress axis : x y z
#
# Youngs Moduli (GPa) = 28.34888 73.39771 136.55226
#
# Poissons Ratio (x) = 0.17565 0.22755
# Poissons Ratio (y) = 0.06784 0.72271
# Poissons Ratio (z) = 0.04724 0.38846
#
# Static dielectric constant tensor:
#      x y z
#    x 1.855360 0.000000 0.000000 
#    y 0.000000 1.886000 0.000000 
#    z 0.000000 0.000000 1.837830 
# 
# From -- ./inp_files/35163.got.cif
#   From: 2010.05.17/outbox.cif.g08.bks.cpg/sg24_18_cif.got.tgz:35163.got - 2010.06.04 00:33:39.
