data_PCOD9333826
_publ_section_title
;
Structure prediction by ZEFSAII (Michael W. Deem and Ramdas Pophale) SiO2 
 PCOD9333826
Probable space group: I 21 21 21
;
_chemical_formula_sum "Si O2"
_cell_formula_units_Z 40
_cell_length_a 11.784867
_cell_length_b 19.041238
_cell_length_c 7.690751
_cell_angle_alpha 90.000000
_cell_angle_beta 90.000000
_cell_angle_gamma 90.000000
_cell_volume 1725.792660
_symmetry_space_group_name_H-M "I 21 21 21"
_symmetry_group_IT_number 24
_symmetry_cell_setting 'orthorhombic'
loop_
_space_group_symop_operation_xyz
x,y,z
-x,1/2-y,z
x,-y,1/2-z
1/2-x,y,-z
1/2+x,1/2+y,1/2+z
1/2-x,-y,1/2+z
1/2+x,1/2-y,-z
-x,1/2+y,1/2-z
loop_
_atom_site_type_symbol
_atom_site_label
_atom_site_fract_x
_atom_site_fract_y
_atom_site_fract_z
Si Si1 0.651435 0.704416 0.710082
Si Si2 0.920659 0.076572 0.833638
Si Si3 0.298752 0.353451 0.683767
Si Si4 0.408270 0.810222 0.298708
Si Si5 0.501434 0.424570 0.765893
O O1 0.631281 0.786852 0.744343
O O2 0.622014 0.695385 0.505089
O O3 0.781820 0.696612 0.772132
O O4 0.582026 0.639428 0.786671
O O5 0.806118 0.121408 0.801400
O O6 0.027655 0.118176 0.752725
O O7 0.907582 0.000000 0.750000
O O8 0.952215 0.078045 0.037354
O O9 0.250000 0.332533 0.500000
O O10 0.386596 0.416846 0.655027
O O11 0.500000 0.750000 0.255504
O O12 0.558608 0.500000 0.750000
#
# Coordination Sequence:
#
# PCOD9333826 Si02
#       5
#     8   8   8   8   8
#     4  10  22  40  67  97 129 176 215 271 337 394
#     4  11  23  41  67 100 131 176 224 275 332 400
#     4  12  24  42  66 100 132 174 230 284 336 391
#     4  10  19  39  69  96 128 173 223 265 324 407
#     4  11  24  44  66  95 139 178 220 273 340 410
#
# _framework density 23.177755000000001
#
# number of rings (size 3 to 8) (size 9 to 14) (size 15 to 20)
#    0.000    1.200    2.000    5.400    2.800    0.800 
#   10.800    0.000    0.000    0.000    0.000    0.000 
#    0.000    0.000    0.000    0.000    0.000    0.000 
#
# Total GULP energy -111698.738153 kJ/mol
# GULP energy per Si atom -5584.936908 kJ/mol
# Density = 2.312500 g / cm^3
# Si number density = 23.177755 Si / 1000 Ang^3
#
#
#
# Elastic Constant Matrix: (Units=GPa)
#
#
# Indices 1 2 3 4 5 6 
#
# 1 141.1347 71.2304 8.1994 0.0000 0.0000 0.0000
# 2 71.2304 157.7280 16.9822 0.0001 0.0000 0.0000
# 3 8.1994 16.9822 50.9684 0.0003 -0.0001 0.0000
# 4 0.0000 0.0001 0.0003 24.7311 0.0000 0.0000
# 5 0.0000 0.0000 -0.0001 0.0000 15.3029 0.0000
# 6 0.0000 0.0000 0.0000 0.0000 0.0000 33.8202
#
#
#
# Elastic Compliance Matrix: (Units=1/GPa)
#
#
# Indices 1 2 3 4 5 6 
#
# 1 0.009178 -0.004134 -0.000099 0.000000 0.000000 0.000000
# 2 -0.004134 0.008438 -0.002146 0.000000 0.000000 0.000000
# 3 -0.000099 -0.002146 0.020351 0.000000 0.000000 0.000000
# 4 0.000000 0.000000 0.000000 0.040435 0.000000 0.000000
# 5 0.000000 0.000000 0.000000 0.000000 0.065347 0.000000
# 6 0.000000 0.000000 0.000000 0.000000 0.000000 0.029568
#
#
# Mechanical properties :
#
#
# Convention : Reuss Voigt Hill
#
# Bulk Modulus (GPa) = 39.67013 60.29501 49.98257
# Shear Modulus (GPa) = 25.70982 31.66546 28.68764
#
# Velocity S-wave (km/s) = 3.33415 3.70023 3.52195
# Velocity P-wave (km/s) = 5.65463 6.65779 6.17661
#
# Compressibility (1/GPa) = 0.02520788
#
# Stress axis : x y z
#
# Youngs Moduli (GPa) = 108.96113 118.51091 49.13743
#
# Poissons Ratio (x) = 0.48992 0.00487
# Poissons Ratio (y) = 0.45044 0.10547
# Poissons Ratio (z) = 0.01079 0.25438
#
# Static dielectric constant tensor:
#      x y z
#    x 1.852680 0.000000 0.000000 
#    y 0.000000 1.864670 0.000000 
#    z 0.000000 0.000000 1.942530 
# 
# From -- ./inp_files/10657.got.cif
#   From: 2010.05.17/outbox.cif.g08.bks.cpg/sg24_6_cif.got.tgz:10657.got - 2010.06.04 00:33:39.
