data_PCOD9333328
_publ_section_title
;
Structure prediction by ZEFSAII (Michael W. Deem and Ramdas Pophale) SiO2 
 PCOD9333328
Probable space group: I 21 21 21
;
_chemical_formula_sum "Si O2"
_cell_formula_units_Z 20
_cell_length_a 5.048921
_cell_length_b 30.312968
_cell_length_c 5.388507
_cell_angle_alpha 90.000000
_cell_angle_beta 90.000000
_cell_angle_gamma 90.000000
_cell_volume 824.699038
_symmetry_space_group_name_H-M "I 21 21 21"
_symmetry_group_IT_number 24
_symmetry_cell_setting 'orthorhombic'
loop_
_space_group_symop_operation_xyz
x,y,z
-x,1/2-y,z
x,-y,1/2-z
1/2-x,y,-z
1/2+x,1/2+y,1/2+z
1/2-x,-y,1/2+z
1/2+x,1/2-y,-z
-x,1/2+y,1/2-z
loop_
_atom_site_type_symbol
_atom_site_label
_atom_site_fract_x
_atom_site_fract_y
_atom_site_fract_z
Si Si1 0.018854 0.862876 0.660618
Si Si2 0.750000 0.721171 0.500000
Si Si3 0.573965 0.500000 0.750000
Si Si4 0.750000 0.073037 0.500000
O O1 0.250000 0.884489 0.500000
O O2 0.750000 0.858921 0.500000
O O3 0.130120 0.813391 0.701259
O O4 0.962865 0.893768 0.888560
O O5 0.500000 0.750000 0.584779
O O6 0.750000 0.503698 0.500000
O O7 0.382240 0.458417 0.703378
#
# Coordination Sequence:
#
# PCOD9333328 Si02
#       4
#     8   4   4   4
#     4  10  25  44  79 116 158 215 270 345 404 506
#     4  10  18  44  79 116 162 212 265 338 420 492
#     4  12  32  52  82 120 172 226 286 352 414 510
#     4  12  30  50  77 122 160 226 279 346 422 484
#
# _framework density 24.251270999999999
#
# number of rings (size 3 to 8) (size 9 to 14) (size 15 to 20)
#    1.200    0.000    2.000    1.200   14.000    0.000 
#    0.000    0.000    8.800    0.000    0.000    0.000 
#    0.000    0.000    0.000    0.000    0.000    0.000 
#
# Total GULP energy -55934.948578 kJ/mol
# GULP energy per Si atom -5593.494858 kJ/mol
# Density = 2.419607 g / cm^3
# Si number density = 24.251271 Si / 1000 Ang^3
#
#
#
# Elastic Constant Matrix: (Units=GPa)
#
#
# Indices 1 2 3 4 5 6 
#
# 1 182.3188 77.6754 58.7132 0.0001 0.0000 0.0001
# 2 77.6754 192.7952 54.8128 0.0000 0.0000 0.0003
# 3 58.7132 54.8128 100.4352 0.0002 0.0000 0.0016
# 4 0.0001 0.0000 0.0002 38.0097 0.0000 -0.0005
# 5 0.0000 0.0000 0.0000 0.0000 51.8703 0.0000
# 6 0.0001 0.0003 0.0016 -0.0005 0.0000 53.6610
#
#
#
# Elastic Compliance Matrix: (Units=1/GPa)
#
#
# Indices 1 2 3 4 5 6 
#
# 1 0.007396 -0.002072 -0.003193 0.000000 0.000000 0.000000
# 2 -0.002072 0.006720 -0.002456 0.000000 0.000000 0.000000
# 3 -0.003193 -0.002456 0.013164 0.000000 0.000000 0.000000
# 4 0.000000 0.000000 0.000000 0.026309 0.000000 0.000000
# 5 0.000000 0.000000 0.000000 0.000000 0.019279 0.000000
# 6 0.000000 0.000000 0.000000 0.000000 0.000000 0.018636
#
#
# Mechanical properties :
#
#
# Convention : Reuss Voigt Hill
#
# Bulk Modulus (GPa) = 84.47680 95.32799 89.90239
# Shear Modulus (GPa) = 45.08959 47.66472 46.37715
#
# Velocity S-wave (km/s) = 4.31660 4.43815 4.37780
# Velocity P-wave (km/s) = 7.73005 8.10288 7.91866
#
# Compressibility (1/GPa) = 0.01183757
#
# Stress axis : x y z
#
# Youngs Moduli (GPa) = 135.21145 148.81075 75.96740
#
# Poissons Ratio (x) = 0.30834 0.24254
# Poissons Ratio (y) = 0.28016 0.18659
# Poissons Ratio (z) = 0.43169 0.36550
#
# Static dielectric constant tensor:
#      x y z
#    x 1.924770 0.000000 0.000000 
#    y 0.000000 1.931250 0.000000 
#    z 0.000000 0.000000 1.996760 
# 
# From -- ./inp_files/359.got.cif
#   From: 2010.05.17/outbox.cif.g08.bks.cpg/sg24_1_cif.got.tgz:359.got - 2010.06.04 00:33:39.
