data_PCOD9333248
_publ_section_title
;
Structure prediction by ZEFSAII (Michael W. Deem and Ramdas Pophale) SiO2 
 PCOD9333248
Probable space group: I 21 21 21
;
_chemical_formula_sum "Si O2"
_cell_formula_units_Z 60
_cell_length_a 14.834614
_cell_length_b 10.307243
_cell_length_c 18.586027
_cell_angle_alpha 90.000000
_cell_angle_beta 90.000000
_cell_angle_gamma 90.000000
_cell_volume 2841.877339
_symmetry_space_group_name_H-M "I 21 21 21"
_symmetry_group_IT_number 24
_symmetry_cell_setting 'orthorhombic'
loop_
_space_group_symop_operation_xyz
x,y,z
-x,1/2-y,z
x,-y,1/2-z
1/2-x,y,-z
1/2+x,1/2+y,1/2+z
1/2-x,-y,1/2+z
1/2+x,1/2-y,-z
-x,1/2+y,1/2-z
loop_
_atom_site_type_symbol
_atom_site_label
_atom_site_fract_x
_atom_site_fract_y
_atom_site_fract_z
Si Si1 0.355815 0.485870 0.164189
Si Si2 0.950120 0.963163 0.444786
Si Si3 0.482112 0.887886 0.404424
Si Si4 0.500000 0.250000 0.826618
Si Si5 0.426035 0.850338 0.876387
Si Si6 0.710277 0.278726 0.080856
Si Si7 0.661844 0.411214 0.804189
Si Si8 0.282862 0.648754 0.921747
O O1 0.344172 0.500000 0.250000
O O2 0.462155 0.490300 0.142900
O O3 0.316616 0.352535 0.126062
O O4 0.298410 0.599039 0.126831
O O5 0.963906 0.891467 0.519856
O O6 0.966794 0.863286 0.380473
O O7 0.854585 0.031743 0.433288
O O8 0.024338 0.078873 0.443379
O O9 0.500000 0.750000 0.366542
O O10 0.376430 0.875933 0.422005
O O11 0.590071 0.297441 0.785439
O O12 0.500000 0.750000 0.849398
O O13 0.402343 0.970940 0.827648
O O14 0.337045 0.769303 0.890299
O O15 0.783492 0.353128 0.129406
O O16 0.750000 0.253109 0.000000
O O17 0.722219 0.500000 0.750000
O O18 0.250000 0.686205 0.000000
#
# Coordination Sequence:
#
# PCOD9333248 Si02
#       8
#     8   8   8   4   8   8   8   8
#     4  11  25  41  67 103 141 184 228 285 360 417
#     4  10  18  37  64  98 120 166 226 285 339 391
#     4  10  21  38  70  97 133 165 230 296 340 397
#     4  10  20  38  62  90 128 168 216 286 340 408
#     4   9  22  38  57  87 134 170 214 268 338 418
#     4  11  24  44  74 106 131 179 245 307 341 409
#     4  11  25  40  64  96 135 176 224 275 358 420
#     4  11  21  37  64  92 130 171 227 276 330 421
#
# _framework density 21.112805000000002
#
# number of rings (size 3 to 8) (size 9 to 14) (size 15 to 20)
#    0.000    1.600    2.000    2.800    6.533    2.133 
#    0.000    2.000    8.800    0.000    0.000    0.000 
#    0.000    0.000    0.000    0.000    0.000    0.000 
#
# Total GULP energy -167050.623971 kJ/mol
# GULP energy per Si atom -5568.354132 kJ/mol
# Density = 2.106475 g / cm^3
# Si number density = 21.112805 Si / 1000 Ang^3
#
#
#
# Elastic Constant Matrix: (Units=GPa)
#
#
# Indices 1 2 3 4 5 6 
#
# 1 91.9076 39.5723 36.3329 0.0000 0.0000 0.0000
# 2 39.5723 88.2050 33.2383 0.0000 0.0000 0.0000
# 3 36.3329 33.2383 120.4816 0.0000 0.0000 0.0000
# 4 0.0000 0.0000 0.0000 25.5857 0.0000 0.0000
# 5 0.0000 0.0000 0.0000 0.0000 24.7383 0.0000
# 6 0.0000 0.0000 0.0000 0.0000 0.0000 37.6861
#
#
#
# Elastic Compliance Matrix: (Units=1/GPa)
#
#
# Indices 1 2 3 4 5 6 
#
# 1 0.014305 -0.005348 -0.002839 0.000000 0.000000 0.000000
# 2 -0.005348 0.014652 -0.002429 0.000000 0.000000 0.000000
# 3 -0.002839 -0.002429 0.009826 0.000000 0.000000 0.000000
# 4 0.000000 0.000000 0.000000 0.039084 0.000000 0.000000
# 5 0.000000 0.000000 0.000000 0.000000 0.040423 0.000000
# 6 0.000000 0.000000 0.000000 0.000000 0.000000 0.026535
#
#
# Mechanical properties :
#
#
# Convention : Reuss Voigt Hill
#
# Bulk Modulus (GPa) = 56.97555 57.65350 57.31453
# Shear Modulus (GPa) = 29.08514 30.36541 29.72528
#
# Velocity S-wave (km/s) = 3.71564 3.79654 3.75631
# Velocity P-wave (km/s) = 6.74187 6.82531 6.78372
#
# Compressibility (1/GPa) = 0.01755139
#
# Stress axis : x y z
#
# Youngs Moduli (GPa) = 69.90356 68.24933 101.76855
#
# Poissons Ratio (x) = 0.36502 0.28887
# Poissons Ratio (y) = 0.37387 0.24723
# Poissons Ratio (z) = 0.19842 0.16580
#
# Static dielectric constant tensor:
#      x y z
#    x 1.806640 0.000000 0.000000 
#    y 0.000000 1.782710 0.000000 
#    z 0.000000 0.000000 1.878620 
# 
# From -- ./inp_files/30872.got.cif
#   From: 2010.05.17/outbox.cif.g08.bks.cpg/sg24_16_cif.got.tgz:30872.got - 2010.06.04 00:33:39.
