data_PCOD9333975
_publ_section_title
;
Structure prediction by ZEFSAII (Michael W. Deem and Ramdas Pophale) SiO2 
 PCOD9333975
Probable space group: I 21 21 21
;
_chemical_formula_sum "Si O2"
_cell_formula_units_Z 60
_cell_length_a 20.905804
_cell_length_b 16.068443
_cell_length_c 8.520380
_cell_angle_alpha 90.000000
_cell_angle_beta 90.000000
_cell_angle_gamma 90.000000
_cell_volume 2862.197745
_symmetry_space_group_name_H-M "I 21 21 21"
_symmetry_group_IT_number 24
_symmetry_cell_setting 'orthorhombic'
loop_
_space_group_symop_operation_xyz
x,y,z
-x,1/2-y,z
x,-y,1/2-z
1/2-x,y,-z
1/2+x,1/2+y,1/2+z
1/2-x,-y,1/2+z
1/2+x,1/2-y,-z
-x,1/2+y,1/2-z
loop_
_atom_site_type_symbol
_atom_site_label
_atom_site_fract_x
_atom_site_fract_y
_atom_site_fract_z
Si Si1 0.131067 0.087619 0.022644
Si Si2 0.290023 0.831555 0.254496
Si Si3 0.508319 0.496908 0.934696
Si Si4 0.537742 0.836532 0.106814
Si Si5 0.276151 0.000000 0.750000
Si Si6 0.344120 0.756173 0.663262
Si Si7 0.322673 0.694593 0.005185
Si Si8 0.048472 0.325795 0.979297
O O1 0.070978 0.035103 0.975293
O O2 0.182671 0.028099 0.100890
O O3 0.118533 0.155736 0.158888
O O4 0.157163 0.143888 0.881816
O O5 0.230791 0.783274 0.337945
O O6 0.312592 0.778050 0.108149
O O7 0.264140 0.920404 0.202698
O O8 0.524413 0.500000 0.750000
O O9 0.461428 0.417493 0.948670
O O10 0.488998 0.584341 0.011035
O O11 0.500000 0.750000 0.058842
O O12 0.614585 0.844109 0.082135
O O13 0.533047 0.837741 0.295606
O O14 0.380093 0.702321 0.531184
O O15 0.346600 0.711808 0.829796
O O16 0.250000 0.656751 0.000000
O O17 0.000000 0.250000 0.031073
#
# Coordination Sequence:
#
# PCOD9333975 Si02
#       8
#     8   8   8   8   4   8   8   8
#     4  11  22  38  60  92 139 179 225 277 346 423
#     4  10  23  38  61  95 137 182 228 277 349 425
#     4  12  26  43  68 101 136 181 233 295 346 419
#     4  11  27  44  69 100 141 185 240 293 357 414
#     4  10  20  34  52  92 136 184 224 282 334 424
#     4  10  20  38  66  95 130 176 224 277 344 412
#     4  10  23  42  69  99 136 183 231 289 348 420
#     4  11  23  45  71  98 136 184 232 295 349 418
#
# _framework density 20.962911999999999
#
# number of rings (size 3 to 8) (size 9 to 14) (size 15 to 20)
#    0.000    1.333    2.000    3.600    3.733    9.600 
#    0.000    0.000    0.000    9.600    0.000    0.000 
#    0.000    0.000    0.000    0.000    0.000    0.000 
#
# Total GULP energy -167176.682103 kJ/mol
# GULP energy per Si atom -5572.556070 kJ/mol
# Density = 2.091520 g / cm^3
# Si number density = 20.962912 Si / 1000 Ang^3
#
#
#
# Elastic Constant Matrix: (Units=GPa)
#
#
# Indices 1 2 3 4 5 6 
#
# 1 91.2031 41.4011 12.1089 0.0000 0.0000 0.0000
# 2 41.4011 97.0713 22.1685 0.0000 0.0000 0.0000
# 3 12.1089 22.1685 65.8818 0.0000 0.0000 0.0000
# 4 0.0000 0.0000 0.0000 31.1143 0.0000 0.0000
# 5 0.0000 0.0000 0.0000 0.0000 17.9847 0.0000
# 6 0.0000 0.0000 0.0000 0.0000 0.0000 31.0185
#
#
#
# Elastic Compliance Matrix: (Units=1/GPa)
#
#
# Indices 1 2 3 4 5 6 
#
# 1 0.013618 -0.005673 -0.000594 0.000000 0.000000 0.000000
# 2 -0.005673 0.013522 -0.003507 0.000000 0.000000 0.000000
# 3 -0.000594 -0.003507 0.016468 0.000000 0.000000 0.000000
# 4 0.000000 0.000000 0.000000 0.032140 0.000000 0.000000
# 5 0.000000 0.000000 0.000000 0.000000 0.055603 0.000000
# 6 0.000000 0.000000 0.000000 0.000000 0.000000 0.032239
#
#
# Mechanical properties :
#
#
# Convention : Reuss Voigt Hill
#
# Bulk Modulus (GPa) = 41.56258 45.05703 43.30980
# Shear Modulus (GPa) = 26.15632 27.92203 27.03917
#
# Velocity S-wave (km/s) = 3.53617 3.65358 3.59536
# Velocity P-wave (km/s) = 6.04503 6.27204 6.15959
#
# Compressibility (1/GPa) = 0.02406010
#
# Stress axis : x y z
#
# Youngs Moduli (GPa) = 73.42963 73.95307 60.72336
#
# Poissons Ratio (x) = 0.41951 0.03609
# Poissons Ratio (y) = 0.41654 0.21298
# Poissons Ratio (z) = 0.04364 0.25939
#
# Static dielectric constant tensor:
#      x y z
#    x 1.868690 0.000000 0.000000 
#    y 0.000000 1.761420 0.000000 
#    z 0.000000 0.000000 1.784300 
# 
# From -- ./inp_files/15997.got.cif
#   From: 2010.05.17/outbox.cif.g08.bks.cpg/sg24_8_cif.got.tgz:15997.got - 2010.06.04 00:33:39.
