data_PCOD9333129
_publ_section_title
;
Structure prediction by ZEFSAII (Michael W. Deem and Ramdas Pophale) SiO2 
 PCOD9333129
Probable space group: I 21 21 21
;
_chemical_formula_sum "Si O2"
_cell_formula_units_Z 48
_cell_length_a 8.542760
_cell_length_b 18.702477
_cell_length_c 17.182830
_cell_angle_alpha 90.000000
_cell_angle_beta 90.000000
_cell_angle_gamma 90.000000
_cell_volume 2745.314021
_symmetry_space_group_name_H-M "I 21 21 21"
_symmetry_group_IT_number 24
_symmetry_cell_setting 'orthorhombic'
loop_
_space_group_symop_operation_xyz
x,y,z
-x,1/2-y,z
x,-y,1/2-z
1/2-x,y,-z
1/2+x,1/2+y,1/2+z
1/2-x,-y,1/2+z
1/2+x,1/2-y,-z
-x,1/2+y,1/2-z
loop_
_atom_site_type_symbol
_atom_site_label
_atom_site_fract_x
_atom_site_fract_y
_atom_site_fract_z
Si Si1 0.500000 0.250000 0.253567
Si Si2 0.462886 0.919302 0.722824
Si Si3 0.250000 0.087284 0.500000
Si Si4 0.250000 0.604216 0.500000
Si Si5 0.178359 0.121133 0.668843
Si Si6 0.094275 0.948463 0.455734
Si Si7 0.211077 0.366748 0.824274
Si Si8 0.975117 0.000000 0.750000
O O1 0.407014 0.191761 0.302645
O O2 0.383343 0.298624 0.204053
O O3 0.338525 0.887664 0.782869
O O4 0.397545 0.926135 0.634563
O O5 0.620499 0.873818 0.716229
O O6 0.500832 0.000000 0.750000
O O7 0.195496 0.126958 0.576505
O O8 0.118706 0.033065 0.466874
O O9 0.421379 0.567338 0.511238
O O10 0.231881 0.641124 0.583414
O O11 0.080504 0.049478 0.692993
O O12 0.250000 0.917949 0.500000
O O13 0.122851 0.441349 0.800040
#
# Coordination Sequence:
#
# PCOD9333129 Si02
#       8
#     4   8   4   4   8   8   8   4
#     4  10  26  42  54  80 118 170 198 226 298 366
#     4  11  18  35  61  92 114 147 194 249 297 345
#     4  10  18  34  58  84 120 154 192 248 306 342
#     4  10  20  34  58  90 124 148 200 248 294 356
#     4  11  21  37  61  84 118 158 197 240 298 356
#     4   9  19  31  56  97 121 146 185 250 311 347
#     4  10  22  38  59  87 121 151 200 241 293 357
#     4  10  18  34  62  88 118 154 186 244 298 358
#
# _framework density 17.484338999999999
#
# number of rings (size 3 to 8) (size 9 to 14) (size 15 to 20)
#    0.500    1.333    3.333    1.000    4.667    0.667 
#    0.000    5.000    0.000    2.000    0.000    0.000 
#    0.000    0.000    0.000    0.000    0.000    0.000 
#
# Total GULP energy -133602.936119 kJ/mol
# GULP energy per Si atom -5566.789005 kJ/mol
# Density = 1.744454 g / cm^3
# Si number density = 17.484339 Si / 1000 Ang^3
#
#
#
# Elastic Constant Matrix: (Units=GPa)
#
#
# Indices 1 2 3 4 5 6 
#
# 1 111.1559 49.3736 51.7799 0.0000 0.0000 0.0000
# 2 49.3736 93.8844 41.9033 0.0000 0.0000 0.0000
# 3 51.7799 41.9033 111.7308 0.0000 0.0000 0.0000
# 4 0.0000 0.0000 0.0000 -4.4157 0.0000 0.0000
# 5 0.0000 0.0000 0.0000 0.0000 24.2177 0.0000
# 6 0.0000 0.0000 0.0000 0.0000 0.0000 -34.5126
#
#
#
# Elastic Compliance Matrix: (Units=1/GPa)
#
#
# Indices 1 2 3 4 5 6 
#
# 1 0.013213 -0.005063 -0.004225 0.000000 0.000000 0.000000
# 2 -0.005063 0.014733 -0.003179 0.000000 0.000000 0.000000
# 3 -0.004225 -0.003179 0.012100 0.000000 0.000000 0.000000
# 4 0.000000 0.000000 0.000000 -0.226467 0.000000 0.000000
# 5 0.000000 0.000000 0.000000 0.000000 0.041292 0.000000
# 6 0.000000 0.000000 0.000000 0.000000 0.000000 -0.028975
#
#
# Mechanical properties :
#
#
# Convention : Reuss Voigt Hill
#
# Bulk Modulus (GPa) = 66.16891 66.98718 66.57805
# Shear Modulus (GPa) = -34.69050 8.63883 -13.02583
#
# Velocity S-wave (km/s) = -4.45914 2.22522 -2.73243
# Velocity P-wave (km/s) = 3.37859 6.70806 5.31097
#
# Compressibility (1/GPa) = 0.01511284
#
# Stress axis : x y z
#
# Youngs Moduli (GPa) = 75.68095 67.87472 82.64376
#
# Poissons Ratio (x) = 0.34367 0.34914
# Poissons Ratio (y) = 0.38320 0.26272
# Poissons Ratio (z) = 0.31972 0.21577
#
# Static dielectric constant tensor:
#      x y z
#    x 1.644420 0.000000 0.000000 
#    y 0.000000 1.565110 0.000000 
#    z 0.000000 0.000000 1.655410 
# 
# From -- ./inp_files/29615.got.cif
#   From: 2010.05.17/outbox.cif.g08.bks.cpg/sg24_15_cif.got.tgz:29615.got - 2010.06.04 00:33:39.
