data_PCOD9333057
_publ_section_title
;
Structure prediction by ZEFSAII (Michael W. Deem and Ramdas Pophale) SiO2 
 PCOD9333057
Probable space group: I 21 21 21
;
_chemical_formula_sum "Si O2"
_cell_formula_units_Z 60
_cell_length_a 13.337942
_cell_length_b 14.234344
_cell_length_c 14.815003
_cell_angle_alpha 90.000000
_cell_angle_beta 90.000000
_cell_angle_gamma 90.000000
_cell_volume 2812.729872
_symmetry_space_group_name_H-M "I 21 21 21"
_symmetry_group_IT_number 24
_symmetry_cell_setting 'orthorhombic'
loop_
_space_group_symop_operation_xyz
x,y,z
-x,1/2-y,z
x,-y,1/2-z
1/2-x,y,-z
1/2+x,1/2+y,1/2+z
1/2-x,-y,1/2+z
1/2+x,1/2-y,-z
-x,1/2+y,1/2-z
loop_
_atom_site_type_symbol
_atom_site_label
_atom_site_fract_x
_atom_site_fract_y
_atom_site_fract_z
Si Si1 0.764029 0.336178 0.710285
Si Si2 0.852815 0.580456 0.952514
Si Si3 0.584373 0.171994 0.282463
Si Si4 0.383926 0.747237 0.928079
Si Si5 0.639299 0.875700 0.407112
Si Si6 0.579245 0.065970 0.471160
Si Si7 0.711143 0.701051 0.595900
Si Si8 0.500000 0.750000 0.531936
O O1 0.829375 0.411796 0.654342
O O2 0.818421 0.236008 0.710574
O O3 0.668841 0.307688 0.649849
O O4 0.742843 0.355842 0.815132
O O5 0.959975 0.539473 0.985629
O O6 0.750000 0.546121 0.000000
O O7 0.862825 0.690217 0.983048
O O8 0.500000 0.250000 0.265200
O O9 0.597592 0.109319 0.193852
O O10 0.569683 0.119866 0.375851
O O11 0.500000 0.750000 0.906897
O O12 0.371525 0.638116 0.956711
O O13 0.734409 0.804721 0.400876
O O14 0.555540 0.821659 0.465243
O O15 0.646566 0.975268 0.455105
O O16 0.750000 0.662261 0.500000
O O17 0.591468 0.709765 0.590562
#
# Coordination Sequence:
#
# PCOD9333057 Si02
#       8
#     8   8   8   8   8   8   8   4
#     4  10  18  32  57  85 113 150 189 238 277 352
#     4   9  17  32  53  84 122 153 191 233 285 357
#     4  11  18  33  56  84 118 151 190 234 296 348
#     4   9  18  32  53  88 119 155 188 222 289 361
#     4  10  22  37  59  83 112 145 199 248 284 341
#     4  11  19  33  56  87 121 155 184 240 303 345
#     4   9  21  38  59  84 105 147 200 242 280 332
#     4  10  20  44  58  74 108 150 198 242 290 338
#
# _framework density 21.331591
#
# number of rings (size 3 to 8) (size 9 to 14) (size 15 to 20)
#    0.000    2.133    3.333    0.800    0.933    0.000 
#    7.200    2.000    0.000    0.000    0.000    0.000 
#    0.000    0.000    0.000    0.000    0.000    0.000 
#
# Total GULP energy -167114.211420 kJ/mol
# GULP energy per Si atom -5570.473714 kJ/mol
# Density = 2.128304 g / cm^3
# Si number density = 21.331591 Si / 1000 Ang^3
#
#
#
# Elastic Constant Matrix: (Units=GPa)
#
#
# Indices 1 2 3 4 5 6 
#
# 1 88.9980 0.3699 6.6810 0.0000 0.0000 0.0000
# 2 0.3699 46.5720 -7.7329 0.0000 0.0000 0.0000
# 3 6.6810 -7.7329 101.2601 0.0000 0.0000 0.0000
# 4 0.0000 0.0000 0.0000 4.6368 0.0000 0.0000
# 5 0.0000 0.0000 0.0000 0.0000 21.8928 0.0000
# 6 0.0000 0.0000 0.0000 0.0000 0.0000 5.3525
#
#
#
# Elastic Compliance Matrix: (Units=1/GPa)
#
#
# Indices 1 2 3 4 5 6 
#
# 1 0.011294 -0.000216 -0.000762 0.000000 0.000000 0.000000
# 2 -0.000216 0.021752 0.001675 0.000000 0.000000 0.000000
# 3 -0.000762 0.001675 0.010054 0.000000 0.000000 0.000000
# 4 0.000000 0.000000 0.000000 0.215665 0.000000 0.000000
# 5 0.000000 0.000000 0.000000 0.000000 0.045677 0.000000
# 6 0.000000 0.000000 0.000000 0.000000 0.000000 0.186830
#
#
# Mechanical properties :
#
#
# Convention : Reuss Voigt Hill
#
# Bulk Modulus (GPa) = 22.47436 26.16290 24.31863
# Shear Modulus (GPa) = 9.90671 22.21055 16.05863
#
# Velocity S-wave (km/s) = 2.15737 3.23027 2.74671
# Velocity P-wave (km/s) = 4.09442 5.11902 4.63512
#
# Compressibility (1/GPa) = 0.04449514
#
# Stress axis : x y z
#
# Youngs Moduli (GPa) = 88.54040 45.97269 99.46529
#
# Poissons Ratio (x) = 0.00994 0.07576
# Poissons Ratio (y) = 0.01914 -0.16664
# Poissons Ratio (z) = 0.06744 -0.07702
#
# Static dielectric constant tensor:
#      x y z
#    x 1.787100 0.000000 0.000000 
#    y 0.000000 1.782670 0.000000 
#    z 0.000000 0.000000 1.846990 
# 
# From -- ./inp_files/26675.got.cif
#   From: 2010.05.17/outbox.cif.g08.bks.cpg/sg24_14_cif.got.tgz:26675.got - 2010.06.04 00:33:39.
