data_PCOD9333131
_publ_section_title
;
Structure prediction by ZEFSAII (Michael W. Deem and Ramdas Pophale) SiO2 
 PCOD9333131
Probable space group: I 21 21 21
;
_chemical_formula_sum "Si O2"
_cell_formula_units_Z 60
_cell_length_a 21.036044
_cell_length_b 5.362712
_cell_length_c 26.788221
_cell_angle_alpha 90.000000
_cell_angle_beta 90.000000
_cell_angle_gamma 90.000000
_cell_volume 3021.985790
_symmetry_space_group_name_H-M "I 21 21 21"
_symmetry_group_IT_number 24
_symmetry_cell_setting 'orthorhombic'
loop_
_space_group_symop_operation_xyz
x,y,z
-x,1/2-y,z
x,-y,1/2-z
1/2-x,y,-z
1/2+x,1/2+y,1/2+z
1/2-x,-y,1/2+z
1/2+x,1/2-y,-z
-x,1/2+y,1/2-z
loop_
_atom_site_type_symbol
_atom_site_label
_atom_site_fract_x
_atom_site_fract_y
_atom_site_fract_z
Si Si1 0.594690 0.587013 0.452057
Si Si2 0.118703 0.522356 0.632698
Si Si3 0.323499 0.422111 0.803734
Si Si4 0.845940 0.576566 0.131999
Si Si5 0.000000 0.750000 0.892841
Si Si6 0.811900 0.324902 0.797557
Si Si7 0.211849 0.136986 0.601663
Si Si8 0.459716 0.996724 0.558606
O O1 0.600007 0.828722 0.417310
O O2 0.534258 0.446975 0.428569
O O3 0.661462 0.448309 0.440044
O O4 0.579865 0.596242 0.510141
O O5 0.128560 0.664152 0.684444
O O6 0.187229 0.409699 0.617087
O O7 0.060052 0.337526 0.639250
O O8 0.352413 0.500000 0.750000
O O9 0.333634 0.669078 0.836994
O O10 0.250350 0.346154 0.792565
O O11 0.346087 0.170437 0.832607
O O12 0.785713 0.582816 0.093576
O O13 0.910850 0.574003 0.101705
O O14 0.819340 0.500000 0.750000
O O15 0.801338 0.489039 0.847098
O O16 0.500000 0.250000 0.547058
O O17 0.500000 0.750000 0.573232
#
# Coordination Sequence:
#
# PCOD9333131 Si02
#       8
#     8   8   8   8   4   8   8   8
#     4  10  21  37  64  91 122 172 228 267 320 393
#     4  10  19  34  57  94 123 163 228 273 326 384
#     4  11  21  40  68 100 130 170 213 257 327 403
#     4  11  23  42  67  99 140 166 209 277 331 379
#     4  10  18  34  58  86 116 172 228 270 308 390
#     4  10  20  33  58  97 127 166 212 279 330 389
#     4   9  20  37  59  97 126 164 212 273 337 384
#     4  12  26  45  68  97 132 177 225 267 324 396
#
# _framework density 19.854495
#
# number of rings (size 3 to 8) (size 9 to 14) (size 15 to 20)
#    0.000    1.600    2.000    4.000    1.867    0.533 
#    0.000    0.000    0.000    8.000  124.800    0.000 
#    0.000    0.000    0.000    0.000    0.000    0.000 
#
# Total GULP energy -167067.286694 kJ/mol
# GULP energy per Si atom -5568.909556 kJ/mol
# Density = 1.980931 g / cm^3
# Si number density = 19.854495 Si / 1000 Ang^3
#
#
#
# Elastic Constant Matrix: (Units=GPa)
#
#
# Indices 1 2 3 4 5 6 
#
# 1 73.1818 33.2080 47.0521 0.0000 0.0000 0.0000
# 2 33.2080 103.2351 35.1298 0.0000 0.0000 0.0000
# 3 47.0521 35.1298 79.7017 0.0000 0.0000 0.0000
# 4 0.0000 0.0000 0.0000 -3.2101 0.0000 0.0000
# 5 0.0000 0.0000 0.0000 0.0000 -134.9108 0.0000
# 6 0.0000 0.0000 0.0000 0.0000 0.0000 28.8898
#
#
#
# Elastic Compliance Matrix: (Units=1/GPa)
#
#
# Indices 1 2 3 4 5 6 
#
# 1 0.022919 -0.003257 -0.012095 0.000000 0.000000 0.000000
# 2 -0.003257 0.011859 -0.003304 0.000000 0.000000 0.000000
# 3 -0.012095 -0.003304 0.021143 0.000000 0.000000 0.000000
# 4 0.000000 0.000000 0.000000 -0.311516 0.000000 0.000000
# 5 0.000000 0.000000 0.000000 0.000000 -0.007412 0.000000
# 6 0.000000 0.000000 0.000000 0.000000 0.000000 0.034614
#
#
# Mechanical properties :
#
#
# Convention : Reuss Voigt Hill
#
# Bulk Modulus (GPa) = 53.73639 54.09981 53.91810
# Shear Modulus (GPa) = -27.04477 -12.46432 -19.75455
#
# Velocity S-wave (km/s) = -3.69473 -2.50828 -3.15773
# Velocity P-wave (km/s) = 2.98705 4.34956 3.73103
#
# Compressibility (1/GPa) = 0.01860936
#
# Stress axis : x y z
#
# Youngs Moduli (GPa) = 43.63263 84.32678 47.29627
#
# Poissons Ratio (x) = 0.27462 0.57203
# Poissons Ratio (y) = 0.14210 0.15628
# Poissons Ratio (z) = 0.52772 0.27864
#
# Static dielectric constant tensor:
#      x y z
#    x 1.735450 0.000000 0.000000 
#    y 0.000000 1.845710 0.000000 
#    z 0.000000 0.000000 1.695340 
# 
# From -- ./inp_files/36097.got.cif
#   From: 2010.05.17/outbox.cif.g08.bks.cpg/sg24_19_cif.got.tgz:36097.got - 2010.06.04 00:33:39.
