data_PCOD9333684
_publ_section_title
;
Structure prediction by ZEFSAII (Michael W. Deem and Ramdas Pophale) SiO2 
 PCOD9333684
Probable space group: I 21 21 21
;
_chemical_formula_sum "Si O2"
_cell_formula_units_Z 64
_cell_length_a 21.776452
_cell_length_b 9.962128
_cell_length_c 15.204982
_cell_angle_alpha 90.000000
_cell_angle_beta 90.000000
_cell_angle_gamma 90.000000
_cell_volume 3298.565788
_symmetry_space_group_name_H-M "I 21 21 21"
_symmetry_group_IT_number 24
_symmetry_cell_setting 'orthorhombic'
loop_
_space_group_symop_operation_xyz
x,y,z
-x,1/2-y,z
x,-y,1/2-z
1/2-x,y,-z
1/2+x,1/2+y,1/2+z
1/2-x,-y,1/2+z
1/2+x,1/2-y,-z
-x,1/2+y,1/2-z
loop_
_atom_site_type_symbol
_atom_site_label
_atom_site_fract_x
_atom_site_fract_y
_atom_site_fract_z
Si Si1 0.497770 0.594974 0.326212
Si Si2 0.092338 0.324500 0.496266
Si Si3 0.964025 0.453064 0.497949
Si Si4 0.635595 0.936288 0.389688
Si Si5 0.363583 0.967237 0.648325
Si Si6 0.685399 0.781625 0.542822
Si Si7 0.765207 0.013630 0.342148
Si Si8 0.710461 0.710757 0.911922
O O1 0.500000 0.750000 0.303978
O O2 0.523655 0.500000 0.250000
O O3 0.526489 0.555120 0.421121
O O4 0.425157 0.572939 0.334495
O O5 0.066790 0.184309 0.534502
O O6 0.127803 0.421104 0.562020
O O7 0.143276 0.277778 0.427339
O O8 0.032080 0.407278 0.465702
O O9 0.920167 0.501852 0.418890
O O10 0.639965 0.817322 0.462365
O O11 0.699505 0.939794 0.339036
O O12 0.340191 0.820216 0.616235
O O13 0.380771 0.000000 0.750000
O O14 0.306849 0.069254 0.630085
O O15 0.750000 0.732480 0.500000
O O16 0.699902 0.928094 0.584114
O O17 0.756137 0.170389 0.360310
O O18 0.798729 0.000000 0.250000
O O19 0.750000 0.689582 0.000000
#
# Coordination Sequence:
#
# PCOD9333684 Si02
#       8
#     8   8   8   8   8   8   8   8
#     4  11  24  39  62  92 121 160 207 255 315 374
#     4   9  17  35  63  85 109 152 205 252 304 364
#     4   9  21  38  62  82 124 161 200 251 313 366
#     4  10  19  36  61  81 116 154 201 245 311 375
#     4  11  23  39  60  87 125 166 208 256 307 372
#     4  10  20  37  59  83 121 162 200 250 316 368
#     4  11  20  33  54  89 118 148 199 255 301 368
#     4  11  19  36  61  87 112 158 207 246 313 375
#
# _framework density 19.402370999999999
#
# number of rings (size 3 to 8) (size 9 to 14) (size 15 to 20)
#    0.000    1.750    2.500    2.625    3.500    0.000 
#    0.000    0.625   24.750    6.000    0.000    0.000 
#    0.000    0.000    0.000    0.000    0.000    0.000 
#
# Total GULP energy -178153.702529 kJ/mol
# GULP energy per Si atom -5567.303204 kJ/mol
# Density = 1.935821 g / cm^3
# Si number density = 19.402371 Si / 1000 Ang^3
#
#
#
# Elastic Constant Matrix: (Units=GPa)
#
#
# Indices 1 2 3 4 5 6 
#
# 1 49.7288 5.9268 27.2815 0.0000 0.0000 0.0000
# 2 5.9268 91.5373 35.6944 0.0000 0.0000 0.0000
# 3 27.2815 35.6944 99.1655 0.0000 0.0000 0.0000
# 4 0.0000 0.0000 0.0000 32.2609 0.0000 0.0000
# 5 0.0000 0.0000 0.0000 0.0000 -39.6536 0.0000
# 6 0.0000 0.0000 0.0000 0.0000 0.0000 19.3628
#
#
#
# Elastic Compliance Matrix: (Units=1/GPa)
#
#
# Indices 1 2 3 4 5 6 
#
# 1 0.023792 0.001177 -0.006969 0.000000 0.000000 0.000000
# 2 0.001177 0.012766 -0.004919 0.000000 0.000000 0.000000
# 3 -0.006969 -0.004919 0.013772 0.000000 0.000000 0.000000
# 4 0.000000 0.000000 0.000000 0.030997 0.000000 0.000000
# 5 0.000000 0.000000 0.000000 0.000000 -0.025218 0.000000
# 6 0.000000 0.000000 0.000000 0.000000 0.000000 0.051645
#
#
# Mechanical properties :
#
#
# Convention : Reuss Voigt Hill
#
# Bulk Modulus (GPa) = 34.59210 42.02632 38.30921
# Shear Modulus (GPa) = 36.01959 13.82927 24.92443
#
# Velocity S-wave (km/s) = 4.31333 2.67266 3.58803
# Velocity P-wave (km/s) = 6.53253 5.58852 6.07888
#
# Compressibility (1/GPa) = 0.02890833
#
# Stress axis : x y z
#
# Youngs Moduli (GPa) = 42.03077 78.33029 72.61083
#
# Poissons Ratio (x) = -0.09220 0.50604
# Poissons Ratio (y) = -0.04947 0.35718
# Poissons Ratio (z) = 0.29292 0.38531
#
# Static dielectric constant tensor:
#      x y z
#    x 1.661170 0.000000 0.000000 
#    y 0.000000 2.156790 0.000000 
#    z 0.000000 0.000000 1.712280 
# 
# From -- ./inp_files/27901.got.cif
#   From: 2010.05.17/outbox.cif.g08.bks.cpg/sg24_14_cif.got.tgz:27901.got - 2010.06.04 00:33:39.
