data_PCOD9333776
_publ_section_title
;
Structure prediction by ZEFSAII (Michael W. Deem and Ramdas Pophale) SiO2 
 PCOD9333776
Probable space group: I 21 21 21
;
_chemical_formula_sum "Si O2"
_cell_formula_units_Z 44
_cell_length_a 6.487117
_cell_length_b 26.072045
_cell_length_c 12.893669
_cell_angle_alpha 90.000000
_cell_angle_beta 90.000000
_cell_angle_gamma 90.000000
_cell_volume 2180.737265
_symmetry_space_group_name_H-M "I 21 21 21"
_symmetry_group_IT_number 24
_symmetry_cell_setting 'orthorhombic'
loop_
_space_group_symop_operation_xyz
x,y,z
-x,1/2-y,z
x,-y,1/2-z
1/2-x,y,-z
1/2+x,1/2+y,1/2+z
1/2-x,-y,1/2+z
1/2+x,1/2-y,-z
-x,1/2+y,1/2-z
loop_
_atom_site_type_symbol
_atom_site_label
_atom_site_fract_x
_atom_site_fract_y
_atom_site_fract_z
Si Si1 0.028324 0.543138 0.166202
Si Si2 0.250000 0.477919 0.000000
Si Si3 0.339285 0.399435 0.179336
Si Si4 0.776918 0.369788 0.692417
Si Si5 0.603277 0.197673 0.412677
Si Si6 0.093820 0.302793 0.218520
O O1 0.967898 0.500000 0.250000
O O2 0.214569 0.574717 0.223380
O O3 0.841840 0.581532 0.149257
O O4 0.097179 0.514674 0.062747
O O5 0.157681 0.440225 0.912852
O O6 0.568278 0.385872 0.215514
O O7 0.213015 0.346974 0.153187
O O8 0.602713 0.331091 0.732215
O O9 0.923744 0.341380 0.612711
O O10 0.500000 0.250000 0.450978
O O11 0.750000 0.175691 0.500000
O O12 0.740633 0.209167 0.310242
O O13 0.000000 0.250000 0.172544
#
# Coordination Sequence:
#
# PCOD9333776 Si02
#       6
#     8   4   8   8   8   8
#     4   9  20  41  64  91 121 162 213 261 309 379
#     4  10  20  44  70  88 130 166 208 272 322 368
#     4   9  21  39  64  92 126 160 212 262 315 384
#     4  10  21  40  60  87 124 163 207 252 312 376
#     4  11  22  35  56  88 125 163 206 255 311 380
#     4  10  19  38  61  85 121 165 205 254 320 380
#
# _framework density 20.176663000000001
#
# number of rings (size 3 to 8) (size 9 to 14) (size 15 to 20)
#    0.000    2.182    1.818    0.545    0.000    2.182 
#   18.000   13.636    8.000    0.000    0.000    0.000 
#    0.000    0.000    0.000    0.000    0.000    0.000 
#
# Total GULP energy -122839.600536 kJ/mol
# GULP energy per Si atom -5583.618206 kJ/mol
# Density = 2.013074 g / cm^3
# Si number density = 20.176663 Si / 1000 Ang^3
#
#
#
# Elastic Constant Matrix: (Units=GPa)
#
#
# Indices 1 2 3 4 5 6 
#
# 1 108.8672 61.5889 40.3854 0.0000 0.0000 0.0000
# 2 61.5889 147.2862 41.7947 0.0000 0.0000 0.0000
# 3 40.3854 41.7947 61.3674 0.0000 0.0000 0.0000
# 4 0.0000 0.0000 0.0000 14.3835 0.0000 0.0000
# 5 0.0000 0.0000 0.0000 0.0000 7.9072 0.0000
# 6 0.0000 0.0000 0.0000 0.0000 0.0000 32.1779
#
#
#
# Elastic Compliance Matrix: (Units=1/GPa)
#
#
# Indices 1 2 3 4 5 6 
#
# 1 0.013791 -0.003956 -0.006381 0.000000 0.000000 0.000000
# 2 -0.003956 0.009551 -0.003901 0.000000 0.000000 0.000000
# 3 -0.006381 -0.003901 0.023152 0.000000 0.000000 0.000000
# 4 0.000000 0.000000 0.000000 0.069524 0.000000 0.000000
# 5 0.000000 0.000000 0.000000 0.000000 0.126466 0.000000
# 6 0.000000 0.000000 0.000000 0.000000 0.000000 0.031077
#
#
# Mechanical properties :
#
#
# Convention : Reuss Voigt Hill
#
# Bulk Modulus (GPa) = 55.50558 67.22876 61.36717
# Shear Modulus (GPa) = 16.23149 22.47719 19.35434
#
# Velocity S-wave (km/s) = 2.83939 3.34131 3.10053
# Velocity P-wave (km/s) = 6.19024 6.94825 6.58017
#
# Compressibility (1/GPa) = 0.01801621
#
# Stress axis : x y z
#
# Youngs Moduli (GPa) = 72.51282 104.70414 43.19320
#
# Poissons Ratio (x) = 0.41420 0.27563
# Poissons Ratio (y) = 0.28685 0.16851
# Poissons Ratio (z) = 0.46273 0.40848
#
# Static dielectric constant tensor:
#      x y z
#    x 1.698650 0.000000 0.000000 
#    y 0.000000 1.749570 0.000000 
#    z 0.000000 0.000000 1.729340 
# 
# From -- ./inp_files/23830.got.cif
#   From: 2010.05.17/outbox.cif.g08.bks.cpg/sg24_12_cif.got.tgz:23830.got - 2010.06.04 00:33:39.
