data_PCOD9333323
_publ_section_title
;
Structure prediction by ZEFSAII (Michael W. Deem and Ramdas Pophale) SiO2 
 PCOD9333323
Probable space group: I 21 21 21
;
_chemical_formula_sum "Si O2"
_cell_formula_units_Z 20
_cell_length_a 4.982710
_cell_length_b 5.047984
_cell_length_c 30.584168
_cell_angle_alpha 90.000000
_cell_angle_beta 90.000000
_cell_angle_gamma 90.000000
_cell_volume 769.272578
_symmetry_space_group_name_H-M "I 21 21 21"
_symmetry_group_IT_number 24
_symmetry_cell_setting 'orthorhombic'
loop_
_space_group_symop_operation_xyz
x,y,z
-x,1/2-y,z
x,-y,1/2-z
1/2-x,y,-z
1/2+x,1/2+y,1/2+z
1/2-x,-y,1/2+z
1/2+x,1/2-y,-z
-x,1/2+y,1/2-z
loop_
_atom_site_type_symbol
_atom_site_label
_atom_site_fract_x
_atom_site_fract_y
_atom_site_fract_z
Si Si1 0.700622 0.000000 0.250000
Si Si2 0.500000 0.750000 0.674468
Si Si3 0.272342 0.570910 0.113160
Si Si4 0.000000 0.250000 0.528657
O O1 0.500000 0.250000 0.250526
O O2 0.899703 0.029499 0.208731
O O3 0.271809 0.700740 0.638280
O O4 0.500000 0.750000 0.135568
O O5 0.367821 0.544507 0.063128
O O6 0.000000 0.750000 0.113893
O O7 0.250000 0.150926 0.500000
#
# Coordination Sequence:
#
# PCOD9333323 Si02
#       4
#     4   4   8   4
#     4  12  30  50  80 116 174 228 288 350 416 510
#     4  12  28  48  75 116 160 224 277 348 422 484
#     4  10  24  43  77 111 155 212 270 341 411 506
#     4  10  18  42  75 112 156 208 263 338 424 492
#
# _framework density 25.998588000000002
#
# number of rings (size 3 to 8) (size 9 to 14) (size 15 to 20)
#    1.200    0.000    2.000    2.400   14.000    0.000 
#    0.000    0.000    8.800    0.000    0.000    0.000 
#    0.000    0.000    0.000    0.000    0.000    0.000 
#
# Total GULP energy -55675.374675 kJ/mol
# GULP energy per Si atom -5567.537467 kJ/mol
# Density = 2.593941 g / cm^3
# Si number density = 25.998588 Si / 1000 Ang^3
#
#
#
# Elastic Constant Matrix: (Units=GPa)
#
#
# Indices 1 2 3 4 5 6 
#
# 1 223.1362 76.7655 72.0224 0.0000 0.0000 0.0000
# 2 76.7655 149.9839 35.6185 -0.0001 0.0000 0.0000
# 3 72.0224 35.6185 195.9503 0.0000 0.0000 0.0000
# 4 0.0000 -0.0001 0.0000-4197.9438 0.0000 0.0000
# 5 0.0000 0.0000 0.0000 0.0000 25.5456 0.0000
# 6 0.0000 0.0000 0.0000 0.0000 0.0000 49.7335
#
#
#
# Elastic Compliance Matrix: (Units=1/GPa)
#
#
# Indices 1 2 3 4 5 6 
#
# 1 0.005938 -0.002635 -0.001704 0.000000 0.000000 0.000000
# 2 -0.002635 0.008137 -0.000511 0.000000 0.000000 0.000000
# 3 -0.001704 -0.000511 0.005822 0.000000 0.000000 0.000000
# 4 0.000000 0.000000 0.000000 -0.000238 0.000000 0.000000
# 5 0.000000 0.000000 0.000000 0.000000 0.039146 0.000000
# 6 0.000000 0.000000 0.000000 0.000000 0.000000 0.020107
#
#
# Mechanical properties :
#
#
# Convention : Reuss Voigt Hill
#
# Bulk Modulus (GPa) = 98.04436 104.20924 101.12680
# Shear Modulus (GPa) = 54.34220 -798.88868 -372.27324
#
# Velocity S-wave (km/s) = 4.57683 -17.54847 -11.97918
# Velocity P-wave (km/s) = 8.10698 19.24652 12.34312
#
# Compressibility (1/GPa) = 0.01019947
#
# Stress axis : x y z
#
# Youngs Moduli (GPa) = 168.41257 122.89380 171.75238
#
# Poissons Ratio (x) = 0.32377 0.29259
# Poissons Ratio (y) = 0.44369 0.08773
# Poissons Ratio (z) = 0.28690 0.06277
#
# Static dielectric constant tensor:
#      x y z
#    x 3.723000 0.000000 0.000000 
#    y 0.000000 2.496700 0.000000 
#    z 0.000000 0.000000 2.055270 
# 
# From -- ./inp_files/37661.got.cif
#   From: 2010.05.17/outbox.cif.g08.bks.cpg/sg24_19_cif.got.tgz:37661.got - 2010.06.04 00:33:39.
