data_PCOD9333314
_publ_section_title
;
Structure prediction by ZEFSAII (Michael W. Deem and Ramdas Pophale) SiO2 
 PCOD9333314
Probable space group: I 21 21 21
;
_chemical_formula_sum "Si O2"
_cell_formula_units_Z 52
_cell_length_a 14.232226
_cell_length_b 22.858337
_cell_length_c 8.366814
_cell_angle_alpha 90.000000
_cell_angle_beta 90.000000
_cell_angle_gamma 90.000000
_cell_volume 2721.933917
_symmetry_space_group_name_H-M "I 21 21 21"
_symmetry_group_IT_number 24
_symmetry_cell_setting 'orthorhombic'
loop_
_space_group_symop_operation_xyz
x,y,z
-x,1/2-y,z
x,-y,1/2-z
1/2-x,y,-z
1/2+x,1/2+y,1/2+z
1/2-x,-y,1/2+z
1/2+x,1/2-y,-z
-x,1/2+y,1/2-z
loop_
_atom_site_type_symbol
_atom_site_label
_atom_site_fract_x
_atom_site_fract_y
_atom_site_fract_z
Si Si1 0.206905 0.751511 0.672050
Si Si2 0.500000 0.250000 0.296026
Si Si3 0.750000 0.680531 0.000000
Si Si4 0.711898 0.114049 0.174314
Si Si5 0.446104 0.869947 0.060505
Si Si6 0.451361 0.484040 0.570338
Si Si7 0.995722 0.063385 0.834436
Si Si8 0.750000 0.950677 0.000000
O O1 0.250000 0.771552 0.500000
O O2 0.230056 0.682949 0.686551
O O3 0.093304 0.754728 0.687988
O O4 0.242031 0.782860 0.834603
O O5 0.499629 0.191594 0.407450
O O6 0.654456 0.643760 0.987744
O O7 0.601059 0.099149 0.176284
O O8 0.755319 0.084741 0.332908
O O9 0.750000 0.096109 0.000000
O O10 0.431339 0.898339 0.236799
O O11 0.503364 0.920567 0.967095
O O12 0.433668 0.500000 0.750000
O O13 0.513377 0.539123 0.509337
O O14 0.348528 0.483981 0.488810
O O15 0.987127 0.000000 0.750000
#
# Coordination Sequence:
#
# PCOD9333314 Si02
#       8
#     8   4   4   8   8   8   8   4
#     4  10  21  39  61  95 124 165 213 266 318 392
#     4  10  18  40  70  84 128 170 206 260 340 378
#     4  10  23  44  68  84 126 162 225 276 330 376
#     4  11  21  33  57  90 128 162 210 245 305 386
#     4  10  21  42  65  88 120 172 210 267 326 378
#     4  11  24  37  59  95 132 165 220 264 319 399
#     4  10  19  37  57  83 126 167 204 247 310 379
#     4  12  21  34  58  88 130 176 195 250 320 378
#
# _framework density 19.104063
#
# number of rings (size 3 to 8) (size 9 to 14) (size 15 to 20)
#    0.000    1.538    4.615    1.385    3.231    1.231 
#    5.538    5.385    0.000    0.000    0.000    0.000 
#    0.000    0.000    0.000    0.000    0.000    0.000 
#
# Total GULP energy -144745.657158 kJ/mol
# GULP energy per Si atom -5567.140660 kJ/mol
# Density = 1.906058 g / cm^3
# Si number density = 19.104063 Si / 1000 Ang^3
#
#
#
# Elastic Constant Matrix: (Units=GPa)
#
#
# Indices 1 2 3 4 5 6 
#
# 1 104.3285 38.6153 39.9477 0.0000 0.0000 0.0000
# 2 38.6153 109.5183 36.4904 -0.0001 0.0000 0.0000
# 3 39.9477 36.4904 112.8771 -0.0014 0.0000 0.0000
# 4 0.0000 -0.0001 -0.0014 16.1865 0.0000 0.0002
# 5 0.0000 0.0000 0.0000 0.0000 26.8102 0.0000
# 6 0.0000 0.0000 0.0000 0.0002 0.0000 24.4621
#
#
#
# Elastic Compliance Matrix: (Units=1/GPa)
#
#
# Indices 1 2 3 4 5 6 
#
# 1 0.011986 -0.003152 -0.003223 0.000000 0.000000 0.000000
# 2 -0.003152 0.011062 -0.002461 0.000000 0.000000 0.000000
# 3 -0.003223 -0.002461 0.010795 0.000001 0.000000 0.000000
# 4 0.000000 0.000000 0.000001 0.061780 0.000000 0.000000
# 5 0.000000 0.000000 0.000000 0.000000 0.037299 0.000000
# 6 0.000000 0.000000 0.000000 0.000000 0.000000 0.040880
#
#
# Mechanical properties :
#
#
# Convention : Reuss Voigt Hill
#
# Bulk Modulus (GPa) = 61.83525 61.87007 61.85266
# Shear Modulus (GPa) = 25.39828 27.60314 26.50071
#
# Velocity S-wave (km/s) = 3.65015 3.80529 3.72852
# Velocity P-wave (km/s) = 7.08538 7.19465 7.14023
#
# Compressibility (1/GPa) = 0.01617201
#
# Stress axis : x y z
#
# Youngs Moduli (GPa) = 83.43141 90.39790 92.63393
#
# Poissons Ratio (x) = 0.28496 0.29854
# Poissons Ratio (y) = 0.26300 0.22793
# Poissons Ratio (z) = 0.26888 0.22243
#
# Static dielectric constant tensor:
#      x y z
#    x 1.650420 0.000000 0.000000 
#    y 0.000000 1.696000 0.000000 
#    z 0.000000 0.000000 1.847980 
# 
# From -- ./inp_files/13101.got.cif
#   From: 2010.05.17/outbox.cif.g08.bks.cpg/sg24_7_cif.got.tgz:13101.got - 2010.06.04 00:33:39.
