data_PCOD9333916
_publ_section_title
;
Structure prediction by ZEFSAII (Michael W. Deem and Ramdas Pophale) SiO2 
 PCOD9333916
Probable space group: I 21 21 21
;
_chemical_formula_sum "Si O2"
_cell_formula_units_Z 52
_cell_length_a 7.986902
_cell_length_b 25.414145
_cell_length_c 10.606565
_cell_angle_alpha 90.000000
_cell_angle_beta 90.000000
_cell_angle_gamma 90.000000
_cell_volume 2152.923592
_symmetry_space_group_name_H-M "I 21 21 21"
_symmetry_group_IT_number 24
_symmetry_cell_setting 'orthorhombic'
loop_
_space_group_symop_operation_xyz
x,y,z
-x,1/2-y,z
x,-y,1/2-z
1/2-x,y,-z
1/2+x,1/2+y,1/2+z
1/2-x,-y,1/2+z
1/2+x,1/2-y,-z
-x,1/2+y,1/2-z
loop_
_atom_site_type_symbol
_atom_site_label
_atom_site_fract_x
_atom_site_fract_y
_atom_site_fract_z
Si Si1 0.314322 0.282404 0.802030
Si Si2 0.840979 0.500000 0.250000
Si Si3 0.439945 0.329658 0.556042
Si Si4 0.118138 0.446152 0.391605
Si Si5 0.250000 0.197117 0.000000
Si Si6 0.823826 0.898454 0.369324
Si Si7 0.500000 0.250000 0.360718
Si Si8 0.275848 0.902801 0.630193
O O1 0.443099 0.301420 0.692094
O O2 0.260057 0.338606 0.859122
O O3 0.156253 0.261504 0.725607
O O4 0.343767 0.237854 0.908209
O O5 0.975011 0.488495 0.362217
O O6 0.738374 0.446185 0.234342
O O7 0.250000 0.326372 0.500000
O O8 0.471778 0.391129 0.571071
O O9 0.544293 0.298063 0.454042
O O10 0.250000 0.459071 0.500000
O O11 0.211389 0.431179 0.258707
O O12 0.184103 0.152881 0.897745
O O13 0.750000 0.920095 0.500000
O O14 0.025581 0.892015 0.366187
O O15 0.250000 0.933234 0.500000
#
# Coordination Sequence:
#
# PCOD9333916 Si02
#       8
#     8   4   8   8   4   8   4   8
#     4  10  20  32  58  89 125 168 199 252 314 379
#     4  10  20  40  64  82 118 174 214 286 332 370
#     4   8  17  34  50  81 119 161 197 244 302 378
#     4   9  19  37  61  90 125 162 217 271 336 384
#     4  10  22  38  56  90 122 156 210 244 314 388
#     4  10  20  37  64  96 131 164 205 264 326 388
#     4  10  20  34  56  84 134 160 206 244 306 392
#     4   9  23  42  58  84 124 163 214 263 317 392
#
# _framework density 24.153203000000001
#
# number of rings (size 3 to 8) (size 9 to 14) (size 15 to 20)
#    0.462    2.154    0.769    0.923    2.154    6.769 
#    0.000    3.077    0.000    0.000    0.000    0.000 
#    0.000    0.000    0.000    0.000    0.000    0.000 
#
# Total GULP energy -144759.275781 kJ/mol
# GULP energy per Si atom -5567.664453 kJ/mol
# Density = 2.409823 g / cm^3
# Si number density = 24.153203 Si / 1000 Ang^3
#
#
#
# Elastic Constant Matrix: (Units=GPa)
#
#
# Indices 1 2 3 4 5 6 
#
# 1 34.3787 20.4903 26.7361 0.0000 0.0001 -0.0018
# 2 20.4903 172.0678 49.2179 -0.0001 0.0000 0.0002
# 3 26.7361 49.2179 132.1363 0.0004 0.0000 0.0221
# 4 0.0000 -0.0001 0.0004 12.4729 0.0000 -0.0054
# 5 0.0001 0.0000 0.0000 0.0000 31.7109 0.0002
# 6 -0.0018 0.0002 0.0221 -0.0054 0.0002 399.8595
#
#
#
# Elastic Compliance Matrix: (Units=1/GPa)
#
#
# Indices 1 2 3 4 5 6 
#
# 1 0.035401 -0.002425 -0.006260 0.000000 0.000000 0.000001
# 2 -0.002425 0.006671 -0.001994 0.000000 0.000000 0.000000
# 3 -0.006260 -0.001994 0.009577 0.000000 0.000000 -0.000001
# 4 0.000000 0.000000 0.000000 0.080174 0.000000 0.000001
# 5 0.000000 0.000000 0.000000 0.000000 0.031535 0.000000
# 6 0.000001 0.000000 -0.000001 0.000001 0.000000 0.002501
#
#
# Mechanical properties :
#
#
# Convention : Reuss Voigt Hill
#
# Bulk Modulus (GPa) = 33.01245 59.05239 46.03242
# Shear Modulus (GPa) = 25.34036 104.95123 65.14579
#
# Velocity S-wave (km/s) = 3.24257 6.59899 5.19908
# Velocity P-wave (km/s) = 5.26466 9.08649 7.42567
#
# Compressibility (1/GPa) = 0.03029160
#
# Stress axis : x y z
#
# Youngs Moduli (GPa) = 28.24752 149.90634 104.41411
#
# Poissons Ratio (x) = 0.36355 0.65360
# Poissons Ratio (y) = 0.06851 0.20821
# Poissons Ratio (z) = 0.17682 0.29892
#
# Static dielectric constant tensor:
#      x y z
#    x 1.977900 0.000000 0.000000 
#    y 0.000000 1.973440 0.000000 
#    z 0.000000 0.000000 1.982200 
# 
# From -- ./inp_files/18786.got.cif
#   From: 2010.05.17/outbox.cif.g08.bks.cpg/sg24_10_cif.got.tgz:18786.got - 2010.06.04 00:33:39.
