data_PCOD9333459
_publ_section_title
;
Structure prediction by ZEFSAII (Michael W. Deem and Ramdas Pophale) SiO2 
 PCOD9333459
Probable space group: I 21 21 21
;
_chemical_formula_sum "Si O2"
_cell_formula_units_Z 56
_cell_length_a 27.227973
_cell_length_b 14.346442
_cell_length_c 5.693354
_cell_angle_alpha 90.000000
_cell_angle_beta 90.000000
_cell_angle_gamma 90.000000
_cell_volume 2223.963761
_symmetry_space_group_name_H-M "I 21 21 21"
_symmetry_group_IT_number 24
_symmetry_cell_setting 'orthorhombic'
loop_
_space_group_symop_operation_xyz
x,y,z
-x,1/2-y,z
x,-y,1/2-z
1/2-x,y,-z
1/2+x,1/2+y,1/2+z
1/2-x,-y,1/2+z
1/2+x,1/2-y,-z
-x,1/2+y,1/2-z
loop_
_atom_site_type_symbol
_atom_site_label
_atom_site_fract_x
_atom_site_fract_y
_atom_site_fract_z
Si Si1 0.440552 0.717954 0.500000
Si Si2 0.873416 0.481815 0.500000
Si Si3 0.750000 0.327656 0.500000
Si Si4 0.824503 0.156601 0.500000
Si Si5 0.917733 0.276956 0.500000
Si Si6 0.983576 0.450631 1.000000
Si Si7 0.250000 0.827338 0.500000
Si Si8 0.826424 0.158187 0.000000
O O1 0.444825 0.771103 0.750230
O O2 0.480341 0.637028 0.500000
O O3 0.384340 0.680371 0.500000
O O4 0.444825 0.771103 0.249770
O O5 0.848224 0.500000 0.250000
O O6 0.889803 0.374749 0.500000
O O7 0.923373 0.545382 0.500000
O O8 0.848224 0.500000 0.750000
O O9 0.795070 0.254359 0.500000
O O10 0.750000 0.377536 0.749982
O O11 0.880962 0.189004 0.500000
O O12 0.813726 0.111262 0.751377
O O13 0.813726 0.111262 0.248623
O O14 0.995298 0.500000 0.750000
O O15 0.995298 0.500000 0.250000
O O16 0.296752 0.756366 0.500000
#
# Coordination Sequence:
#
# PCOD9333459 Si02
#       8
#     8   8   4   8   8   8   4   8
#     4  10  19  33  53  76  97 124 164 207 239 277
#     4  10  21  38  53  71  99 129 160 197 246 302
#     4   8  12  20  34  58  92 122 142 178 234 280
#     4   8  14  23  39  64  93 119 149 189 234 274
#     4  10  19  33  53  76  97 124 164 207 239 277
#     4  10  21  38  53  71  99 129 160 197 246 302
#     4   8  12  20  34  58  92 122 142 178 234 280
#     4   8  14  23  39  64  93 119 149 189 234 274
#
# _framework density 25.180264000000001
#
# number of rings (size 3 to 8) (size 9 to 14) (size 15 to 20)
#    0.000    2.857    0.000    1.714    0.000    0.000 
#    0.000   17.143    0.000    0.000    0.000    2.000 
#    0.000    0.000    0.000    0.000    0.000    0.000 
#
# Total GULP energy -156143.536168 kJ/mol
# GULP energy per Si atom -5576.554863 kJ/mol
# Density = 2.512295 g / cm^3
# Si number density = 25.180264 Si / 1000 Ang^3
#
#
#
# Elastic Constant Matrix: (Units=GPa)
#
#
# Indices 1 2 3 4 5 6 
#
# 1 112.7836 20.1240 13.6353 0.0000 0.0000 0.0000
# 2 20.1240 59.0973 37.8035 0.0000 0.0000 0.0000
# 3 13.6353 37.8035 376.5459 0.0000 0.0000 0.0000
# 4 0.0000 0.0000 0.0000 22.8467 0.0000 0.0000
# 5 0.0000 0.0000 0.0000 0.0000 0.7129 0.0000
# 6 0.0000 0.0000 0.0000 0.0000 0.0000 112.1728
#
#
#
# Elastic Compliance Matrix: (Units=1/GPa)
#
#
# Indices 1 2 3 4 5 6 
#
# 1 0.009440 -0.003202 -0.000020 0.000000 0.000000 0.000000
# 2 -0.003202 0.019168 -0.001808 0.000000 0.000000 0.000000
# 3 -0.000020 -0.001808 0.002838 0.000000 0.000000 0.000000
# 4 0.000000 0.000000 0.000000 0.043770 0.000000 0.000000
# 5 0.000000 0.000000 0.000000 0.000000 1.402628 0.000000
# 6 0.000000 0.000000 0.000000 0.000000 0.000000 0.008915
#
#
# Mechanical properties :
#
#
# Convention : Reuss Voigt Hill
#
# Bulk Modulus (GPa) = 46.76030 76.83917 61.79974
# Shear Modulus (GPa) = 3.32458 58.93741 31.13100
#
# Velocity S-wave (km/s) = 1.15030 4.84324 3.51996
# Velocity P-wave (km/s) = 4.51384 7.86498 6.41220
#
# Compressibility (1/GPa) = 0.02138566
#
# Stress axis : x y z
#
# Youngs Moduli (GPa) = 105.92926 52.16941 352.35817
#
# Poissons Ratio (x) = 0.16702 0.00720
# Poissons Ratio (y) = 0.33914 0.63723
# Poissons Ratio (z) = 0.00216 0.09435
#
# Static dielectric constant tensor:
#      x y z
#    x 1.937400 0.000000 0.000000 
#    y 0.000000 1.933660 0.000000 
#    z 0.000000 0.000000 2.084910 
# 
# From -- ./inp_files/7754.got.cif
#   From: 2010.05.17/outbox.cif.g08.bks.cpg/sg24_4_cif.got.tgz:7754.got - 2010.06.04 00:33:39.
