data_PCOD9333417
_publ_section_title
;
Structure prediction by ZEFSAII (Michael W. Deem and Ramdas Pophale) SiO2 
 PCOD9333417
Probable space group: I 21 21 21
;
_chemical_formula_sum "Si O2"
_cell_formula_units_Z 48
_cell_length_a 17.151834
_cell_length_b 13.732940
_cell_length_c 9.954219
_cell_angle_alpha 90.000000
_cell_angle_beta 90.000000
_cell_angle_gamma 90.000000
_cell_volume 2344.667582
_symmetry_space_group_name_H-M "I 21 21 21"
_symmetry_group_IT_number 24
_symmetry_cell_setting 'orthorhombic'
loop_
_space_group_symop_operation_xyz
x,y,z
-x,1/2-y,z
x,-y,1/2-z
1/2-x,y,-z
1/2+x,1/2+y,1/2+z
1/2-x,-y,1/2+z
1/2+x,1/2-y,-z
-x,1/2+y,1/2-z
loop_
_atom_site_type_symbol
_atom_site_label
_atom_site_fract_x
_atom_site_fract_y
_atom_site_fract_z
Si Si1 0.786202 0.973849 0.878936
Si Si2 0.995946 0.433820 0.500405
Si Si3 0.091121 0.622353 0.517377
Si Si4 0.420540 0.312087 0.713932
Si Si5 0.907561 0.186112 0.701576
Si Si6 0.340120 0.828877 0.985405
O O1 0.850234 0.906216 0.811557
O O2 0.733765 0.000000 0.750000
O O3 0.750000 0.914133 0.000000
O O4 0.829706 0.061031 0.956009
O O5 0.905551 0.413681 0.467588
O O6 0.020889 0.543652 0.532874
O O7 0.054450 0.403400 0.378866
O O8 0.018838 0.357510 0.619535
O O9 0.095042 0.663999 0.368135
O O10 0.081917 0.698480 0.639662
O O11 0.500000 0.250000 0.709246
O O12 0.356120 0.247219 0.637084
O O13 0.866332 0.271320 0.619799
O O14 0.250000 0.857939 0.000000
#
# Coordination Sequence:
#
# PCOD9333417 Si02
#       6
#     8   8   8   8   8   8
#     4   9  18  28  41  68 103 133 163 203 260 320
#     4   9  18  34  53  76 104 139 181 212 254 317
#     4  10  19  32  53  77 103 135 172 224 268 305
#     4   9  19  33  52  78 101 133 178 220 264 309
#     4   9  18  32  50  75 101 132 177 220 260 304
#     4  10  20  35  55  78 108 144 177 213 262 321
#
# _framework density 20.471986000000001
#
# number of rings (size 3 to 8) (size 9 to 14) (size 15 to 20)
#    0.000    2.667    0.000    4.000    0.000    8.000 
#    0.000    0.000    0.000    8.000    0.000    0.000 
#    0.000    0.000    0.000    0.000    0.000    0.000 
#
# Total GULP energy -133726.748292 kJ/mol
# GULP energy per Si atom -5571.947845 kJ/mol
# Density = 2.042539 g / cm^3
# Si number density = 20.471986 Si / 1000 Ang^3
#
#
#
# Elastic Constant Matrix: (Units=GPa)
#
#
# Indices 1 2 3 4 5 6 
#
# 1 110.0746 9.2001 33.3969 0.0000 0.0000 0.0000
# 2 9.2001 24.6821 10.6910 0.0000 0.0000 0.0000
# 3 33.3969 10.6910 155.6680 0.0000 0.0000 0.0000
# 4 0.0000 0.0000 0.0000 14.4069 0.0000 0.0000
# 5 0.0000 0.0000 0.0000 0.0000 15.2544 0.0000
# 6 0.0000 0.0000 0.0000 0.0000 0.0000 12.7275
#
#
#
# Elastic Compliance Matrix: (Units=1/GPa)
#
#
# Indices 1 2 3 4 5 6 
#
# 1 0.009909 -0.002858 -0.001930 0.000000 0.000000 0.000000
# 2 -0.002858 0.042581 -0.002311 0.000000 0.000000 0.000000
# 3 -0.001930 -0.002311 0.006997 0.000000 0.000000 0.000000
# 4 0.000000 0.000000 0.000000 0.069411 0.000000 0.000000
# 5 0.000000 0.000000 0.000000 0.000000 0.065555 0.000000
# 6 0.000000 0.000000 0.000000 0.000000 0.000000 0.078570
#
#
# Mechanical properties :
#
#
# Convention : Reuss Voigt Hill
#
# Bulk Modulus (GPa) = 22.08001 44.11119 33.09560
# Shear Modulus (GPa) = 16.53893 24.28688 20.41290
#
# Velocity S-wave (km/s) = 2.84541 3.44808 3.16114
# Velocity P-wave (km/s) = 4.64801 6.11933 5.43370
#
# Compressibility (1/GPa) = 0.04528984
#
# Stress axis : x y z
#
# Youngs Moduli (GPa) = 100.91793 23.48439 142.92567
#
# Poissons Ratio (x) = 0.06711 0.27579
# Poissons Ratio (y) = 0.28840 0.33035
# Poissons Ratio (z) = 0.19473 0.05428
#
# Static dielectric constant tensor:
#      x y z
#    x 1.835820 0.000000 0.000000 
#    y 0.000000 1.768280 0.000000 
#    z 0.000000 0.000000 1.830130 
# 
# From -- ./inp_files/14333.got.cif
#   From: 2010.05.17/outbox.cif.g08.bks.cpg/sg24_8_cif.got.tgz:14333.got - 2010.06.04 00:33:39.
