data_PCOD9333734
_publ_section_title
;
Structure prediction by ZEFSAII (Michael W. Deem and Ramdas Pophale) SiO2 
 PCOD9333734
Probable space group: I 21 21 21
;
_chemical_formula_sum "Si O2"
_cell_formula_units_Z 44
_cell_length_a 10.378825
_cell_length_b 12.528648
_cell_length_c 16.906402
_cell_angle_alpha 90.000000
_cell_angle_beta 90.000000
_cell_angle_gamma 90.000000
_cell_volume 2198.384171
_symmetry_space_group_name_H-M "I 21 21 21"
_symmetry_group_IT_number 24
_symmetry_cell_setting 'orthorhombic'
loop_
_space_group_symop_operation_xyz
x,y,z
-x,1/2-y,z
x,-y,1/2-z
1/2-x,y,-z
1/2+x,1/2+y,1/2+z
1/2-x,-y,1/2+z
1/2+x,1/2-y,-z
-x,1/2+y,1/2-z
loop_
_atom_site_type_symbol
_atom_site_label
_atom_site_fract_x
_atom_site_fract_y
_atom_site_fract_z
Si Si1 0.952259 0.516019 0.471322
Si Si2 0.410772 0.911621 0.818479
Si Si3 0.250000 0.183273 0.000000
Si Si4 0.191797 0.680132 0.204153
Si Si5 0.801942 0.124854 0.113033
Si Si6 0.845948 0.083419 0.569292
O O1 0.869953 0.459252 0.402756
O O2 0.870714 0.606474 0.514049
O O3 0.065590 0.576813 0.422142
O O4 0.014558 0.429557 0.530317
O O5 0.332162 0.806386 0.795720
O O6 0.560093 0.873917 0.828701
O O7 0.403967 0.000000 0.750000
O O8 0.277936 0.261576 0.927142
O O9 0.199893 0.637296 0.293175
O O10 0.310367 0.647410 0.148130
O O11 0.695336 0.038939 0.087638
O O12 0.750000 0.123133 0.500000
#
# Coordination Sequence:
#
# PCOD9333734 Si02
#       6
#     8   8   4   8   8   8
#     4  11  22  39  58  93 134 161 212 259 310 379
#     4  11  20  35  59  95 130 153 206 269 310 364
#     4  12  24  36  62  96 126 174 198 270 320 356
#     4  11  21  35  64  96 120 165 206 261 321 361
#     4  11  20  36  63  96 125 159 212 262 312 372
#     4  10  19  37  60  91 124 158 206 253 309 380
#
# _framework density 20.014700999999999
#
# number of rings (size 3 to 8) (size 9 to 14) (size 15 to 20)
#    0.000    1.091    8.182    2.182    2.545    0.000 
#    1.636    0.000    0.000    8.727    4.727    0.000 
#    0.000    0.000    0.000    0.000    0.000    0.000 
#
# Total GULP energy -122859.957725 kJ/mol
# GULP energy per Si atom -5584.543533 kJ/mol
# Density = 1.996915 g / cm^3
# Si number density = 20.014701 Si / 1000 Ang^3
#
#
#
# Elastic Constant Matrix: (Units=GPa)
#
#
# Indices 1 2 3 4 5 6 
#
# 1 24.1877 16.6835 24.8821 0.0000 0.0000 0.0000
# 2 16.6835 88.7648 25.9927 0.0000 0.0000 0.0000
# 3 24.8821 25.9927 101.8889 0.0000 0.0000 0.0000
# 4 0.0000 0.0000 0.0000 35.1117 0.0000 0.0000
# 5 0.0000 0.0000 0.0000 0.0000 8.7801 0.0000
# 6 0.0000 0.0000 0.0000 0.0000 0.0000 24.9045
#
#
#
# Elastic Compliance Matrix: (Units=1/GPa)
#
#
# Indices 1 2 3 4 5 6 
#
# 1 0.059486 -0.007486 -0.012617 0.000000 0.000000 0.000000
# 2 -0.007486 0.013117 -0.001518 0.000000 0.000000 0.000000
# 3 -0.012617 -0.001518 0.013283 0.000000 0.000000 0.000000
# 4 0.000000 0.000000 0.000000 0.028481 0.000000 0.000000
# 5 0.000000 0.000000 0.000000 0.000000 0.113893 0.000000
# 6 0.000000 0.000000 0.000000 0.000000 0.000000 0.040153
#
#
# Mechanical properties :
#
#
# Convention : Reuss Voigt Hill
#
# Bulk Modulus (GPa) = 23.45001 38.88420 31.16711
# Shear Modulus (GPa) = 15.34349 23.57815 19.46082
#
# Velocity S-wave (km/s) = 2.77178 3.43598 3.12160
# Velocity P-wave (km/s) = 4.68887 5.93391 5.34775
#
# Compressibility (1/GPa) = 0.04264390
#
# Stress axis : x y z
#
# Youngs Moduli (GPa) = 16.81062 76.23533 75.28315
#
# Poissons Ratio (x) = 0.57068 0.94987
# Poissons Ratio (y) = 0.12584 0.11430
# Poissons Ratio (z) = 0.21211 0.11574
#
# Static dielectric constant tensor:
#      x y z
#    x 1.717780 0.000000 0.000000 
#    y 0.000000 1.710250 0.000000 
#    z 0.000000 0.000000 1.711620 
# 
# From -- ./inp_files/30166.got.cif
#   From: 2010.05.17/outbox.cif.g08.bks.cpg/sg24_16_cif.got.tgz:30166.got - 2010.06.04 00:33:39.
