data_PCOD9333663
_publ_section_title
;
Structure prediction by ZEFSAII (Michael W. Deem and Ramdas Pophale) SiO2 
 PCOD9333663
Probable space group: I 21 21 21
;
_chemical_formula_sum "Si O2"
_cell_formula_units_Z 56
_cell_length_a 22.997434
_cell_length_b 8.442794
_cell_length_c 14.912238
_cell_angle_alpha 90.000000
_cell_angle_beta 90.000000
_cell_angle_gamma 90.000000
_cell_volume 2895.398869
_symmetry_space_group_name_H-M "I 21 21 21"
_symmetry_group_IT_number 24
_symmetry_cell_setting 'orthorhombic'
loop_
_space_group_symop_operation_xyz
x,y,z
-x,1/2-y,z
x,-y,1/2-z
1/2-x,y,-z
1/2+x,1/2+y,1/2+z
1/2-x,-y,1/2+z
1/2+x,1/2-y,-z
-x,1/2+y,1/2-z
loop_
_atom_site_type_symbol
_atom_site_label
_atom_site_fract_x
_atom_site_fract_y
_atom_site_fract_z
Si Si1 0.769226 0.917212 0.601949
Si Si2 0.354497 0.553889 0.654076
Si Si3 0.780602 0.436856 0.845584
Si Si4 0.111896 0.937986 0.536877
Si Si5 0.608935 0.946096 0.458903
Si Si6 0.002905 0.937797 0.851514
Si Si7 0.646640 0.563478 0.653945
O O1 0.750000 0.871029 0.500000
O O2 0.712890 0.002453 0.642505
O O3 0.779313 0.754407 0.654729
O O4 0.831137 0.000854 0.589609
O O5 0.377663 0.500000 0.750000
O O6 0.387748 0.504006 0.563515
O O7 0.352870 0.745208 0.654767
O O8 0.800968 0.500000 0.750000
O O9 0.825916 0.485761 0.921567
O O10 0.713908 0.488884 0.859175
O O11 0.109975 0.746030 0.541039
O O12 0.110269 0.986870 0.432844
O O13 0.060156 0.005369 0.596056
O O14 0.552985 0.001006 0.405876
O O15 0.000000 0.750000 0.848978
O O16 0.002974 0.000000 0.750000
O O17 0.626561 0.500000 0.750000
#
# Coordination Sequence:
#
# PCOD9333663 Si02
#       7
#     8   8   8   8   8   8   8
#     4   8  15  30  51  76 108 144 177 213 262 316
#     4   9  17  31  55  83 112 143 175 216 266 319
#     4   9  15  26  50  81 109 140 177 215 263 318
#     4  10  19  36  58  78 107 144 183 222 264 313
#     4   9  19  37  58  79 106 143 183 222 265 314
#     4  12  26  42  59  79 105 138 178 223 267 313
#     4   9  18  32  53  82 113 144 175 215 266 319
#
# _framework density 19.341031999999998
#
# number of rings (size 3 to 8) (size 9 to 14) (size 15 to 20)
#    0.000    2.571    0.000    4.714    0.000    2.857 
#    0.000    5.000    0.000    6.857    0.000    0.000 
#    0.000    0.000    0.000    0.000    0.000    0.000 
#
# Total GULP energy -156169.309790 kJ/mol
# GULP energy per Si atom -5577.475350 kJ/mol
# Density = 1.929701 g / cm^3
# Si number density = 19.341032 Si / 1000 Ang^3
#
#
#
# Elastic Constant Matrix: (Units=GPa)
#
#
# Indices 1 2 3 4 5 6 
#
# 1 73.4044 16.6621 63.3291 0.0000 0.0000 0.0000
# 2 16.6621 22.1239 31.6132 0.0000 0.0000 0.0000
# 3 63.3291 31.6132 173.7383 0.0000 0.0000 0.0000
# 4 0.0000 0.0000 0.0000 30.5743 0.0000 0.0000
# 5 0.0000 0.0000 0.0000 0.0000 28.9545 0.0000
# 6 0.0000 0.0000 0.0000 0.0000 0.0000 5.0836
#
#
#
# Elastic Compliance Matrix: (Units=1/GPa)
#
#
# Indices 1 2 3 4 5 6 
#
# 1 0.020531 -0.006444 -0.006311 0.000000 0.000000 0.000000
# 2 -0.006444 0.063104 -0.009133 0.000000 0.000000 0.000000
# 3 -0.006311 -0.009133 0.009718 0.000000 0.000000 0.000000
# 4 0.000000 0.000000 0.000000 0.032707 0.000000 0.000000
# 5 0.000000 0.000000 0.000000 0.000000 0.034537 0.000000
# 6 0.000000 0.000000 0.000000 0.000000 0.000000 0.196710
#
#
# Mechanical properties :
#
#
# Convention : Reuss Voigt Hill
#
# Bulk Modulus (GPa) = 20.17118 54.71951 37.44534
# Shear Modulus (GPa) = 11.97288 23.43328 17.70308
#
# Velocity S-wave (km/s) = 2.49075 3.48456 3.02869
# Velocity P-wave (km/s) = 4.32708 6.67404 5.62434
#
# Compressibility (1/GPa) = 0.04957569
#
# Stress axis : x y z
#
# Youngs Moduli (GPa) = 48.70739 15.84678 102.90069
#
# Poissons Ratio (x) = 0.10212 0.64941
# Poissons Ratio (y) = 0.31389 0.93983
# Poissons Ratio (z) = 0.30739 0.14473
#
# Static dielectric constant tensor:
#      x y z
#    x 1.683620 0.000000 0.000000 
#    y 0.000000 1.675290 0.000000 
#    z 0.000000 0.000000 1.688160 
# 
# From -- ./inp_files/27547.got.cif
#   From: 2010.05.17/outbox.cif.g08.bks.cpg/sg24_14_cif.got.tgz:27547.got - 2010.06.04 00:33:39.
