data_PCOD9333425
_publ_section_title
;
Structure prediction by ZEFSAII (Michael W. Deem and Ramdas Pophale) SiO2 
 PCOD9333425
Probable space group: I 21 21 21
;
_chemical_formula_sum "Si O2"
_cell_formula_units_Z 52
_cell_length_a 5.354854
_cell_length_b 17.024428
_cell_length_c 23.242646
_cell_angle_alpha 90.000000
_cell_angle_beta 90.000000
_cell_angle_gamma 90.000000
_cell_volume 2118.876923
_symmetry_space_group_name_H-M "I 21 21 21"
_symmetry_group_IT_number 24
_symmetry_cell_setting 'orthorhombic'
loop_
_space_group_symop_operation_xyz
x,y,z
-x,1/2-y,z
x,-y,1/2-z
1/2-x,y,-z
1/2+x,1/2+y,1/2+z
1/2-x,-y,1/2+z
1/2+x,1/2-y,-z
-x,1/2+y,1/2-z
loop_
_atom_site_type_symbol
_atom_site_label
_atom_site_fract_x
_atom_site_fract_y
_atom_site_fract_z
Si Si1 0.086339 0.929688 0.126357
Si Si2 0.501866 0.653852 0.532286
Si Si3 0.490127 0.345563 0.835464
Si Si4 0.000000 0.250000 0.557737
Si Si5 0.914649 0.040097 0.686632
Si Si6 0.750000 0.610461 0.000000
Si Si7 0.500000 0.250000 0.628970
Si Si8 0.490999 0.156953 0.228224
O O1 0.327595 0.971747 0.153469
O O2 0.062792 0.839008 0.151032
O O3 0.830475 0.968542 0.148303
O O4 0.138279 0.929557 0.057488
O O5 0.500000 0.750000 0.531039
O O6 0.750000 0.627188 0.500000
O O7 0.519047 0.630215 0.598589
O O8 0.250000 0.627936 0.500000
O O9 0.500000 0.250000 0.835103
O O10 0.216671 0.368886 0.813573
O O11 0.719473 0.369744 0.794312
O O12 0.959130 0.329043 0.522238
O O13 0.751319 0.236236 0.593381
O O14 0.938009 0.130057 0.708418
O O15 0.910230 0.000000 0.750000
O O16 0.500000 0.250000 0.226465
#
# Coordination Sequence:
#
# PCOD9333425 Si02
#       8
#     8   8   8   4   8   4   4   8
#     4  11  24  39  68  97 138 176 225 278 331 410
#     4   9  15  23  40  71 109 140 173 226 304 386
#     4   9  17  31  51  80 112 148 189 246 312 368
#     4  10  19  32  54  94 156 176 204 266 339 406
#     4  12  27  45  63  94 132 182 227 276 335 391
#     4  10  20  38  62 102 136 184 222 264 346 408
#     4  10  21  36  60 100 140 182 216 276 337 398
#     4  10  21  37  59  84 115 158 214 263 312 380
#
# _framework density 24.541302000000002
#
# number of rings (size 3 to 8) (size 9 to 14) (size 15 to 20)
#    0.000    1.846    0.000    6.000    2.154    6.769 
#    0.000    0.000    0.000    0.000   20.000    0.000 
#    0.000    0.000    0.000    0.000    0.000    0.000 
#
# Total GULP energy -145304.605345 kJ/mol
# GULP energy per Si atom -5588.638667 kJ/mol
# Density = 2.448544 g / cm^3
# Si number density = 24.541302 Si / 1000 Ang^3
#
#
#
# Elastic Constant Matrix: (Units=GPa)
#
#
# Indices 1 2 3 4 5 6 
#
# 1 228.7858 20.7668 96.5670 0.0000 0.0000 0.0000
# 2 20.7668 71.3587 28.2526 0.0000 0.0000 0.0000
# 3 96.5670 28.2526 146.7516 0.0000 0.0000 0.0000
# 4 0.0000 0.0000 0.0000 37.7624 0.0000 0.0000
# 5 0.0000 0.0000 0.0000 0.0000 48.4218 0.0000
# 6 0.0000 0.0000 0.0000 0.0000 0.0000 3.7842
#
#
#
# Elastic Compliance Matrix: (Units=1/GPa)
#
#
# Indices 1 2 3 4 5 6 
#
# 1 0.006054 -0.000200 -0.003945 0.000000 0.000000 0.000000
# 2 -0.000200 0.015177 -0.002790 0.000000 0.000000 0.000000
# 3 -0.003945 -0.002790 0.009948 0.000000 0.000000 0.000000
# 4 0.000000 0.000000 0.000000 0.026481 0.000000 0.000000
# 5 0.000000 0.000000 0.000000 0.000000 0.020652 0.000000
# 6 0.000000 0.000000 0.000000 0.000000 0.000000 0.264256
#
#
# Mechanical properties :
#
#
# Convention : Reuss Voigt Hill
#
# Bulk Modulus (GPa) = 57.77874 82.00767 69.89320
# Shear Modulus (GPa) = 13.80422 38.08100 25.94261
#
# Velocity S-wave (km/s) = 2.37426 3.94345 3.25483
# Velocity P-wave (km/s) = 5.57770 7.36363 6.53199
#
# Compressibility (1/GPa) = 0.01730740
#
# Stress axis : x y z
#
# Youngs Moduli (GPa) = 165.16996 65.89090 100.52602
#
# Poissons Ratio (x) = 0.01317 0.39662
# Poissons Ratio (y) = 0.03301 0.28050
# Poissons Ratio (z) = 0.65168 0.18386
#
# Static dielectric constant tensor:
#      x y z
#    x 2.047880 0.000000 0.000000 
#    y 0.000000 2.135870 0.000000 
#    z 0.000000 0.000000 1.923660 
# 
# From -- ./inp_files/32202.got.cif
#   From: 2010.05.17/outbox.cif.g08.bks.cpg/sg24_17_cif.got.tgz:32202.got - 2010.06.04 00:33:39.
