data_PCOD9333351
_publ_section_title
;
Structure prediction by ZEFSAII (Michael W. Deem and Ramdas Pophale) SiO2 
 PCOD9333351
Probable space group: I 21 21 21
;
_chemical_formula_sum "Si O2"
_cell_formula_units_Z 64
_cell_length_a 20.457171
_cell_length_b 5.341667
_cell_length_c 28.461235
_cell_angle_alpha 90.000000
_cell_angle_beta 90.000000
_cell_angle_gamma 90.000000
_cell_volume 3110.112704
_symmetry_space_group_name_H-M "I 21 21 21"
_symmetry_group_IT_number 24
_symmetry_cell_setting 'orthorhombic'
loop_
_space_group_symop_operation_xyz
x,y,z
-x,1/2-y,z
x,-y,1/2-z
1/2-x,y,-z
1/2+x,1/2+y,1/2+z
1/2-x,-y,1/2+z
1/2+x,1/2-y,-z
-x,1/2+y,1/2-z
loop_
_atom_site_type_symbol
_atom_site_label
_atom_site_fract_x
_atom_site_fract_y
_atom_site_fract_z
Si Si1 0.074626 0.501293 0.697891
Si Si2 0.426308 0.750840 0.767042
Si Si3 0.066364 0.337467 0.070018
Si Si4 0.413445 0.839304 0.874375
Si Si5 0.238252 0.157821 0.392746
Si Si6 0.640497 0.495269 0.334355
Si Si7 0.480070 0.999100 0.395191
Si Si8 0.280536 0.660359 0.550497
O O1 0.043961 0.500000 0.750000
O O2 0.122365 0.740506 0.690028
O O3 0.022902 0.503761 0.654307
O O4 0.113353 0.241490 0.694229
O O5 0.500000 0.750000 0.745035
O O6 0.392778 0.500000 0.750000
O O7 0.432956 0.766235 0.822284
O O8 0.391661 0.000000 0.750000
O O9 0.062684 0.617022 0.091270
O O10 0.139633 0.332594 0.048094
O O11 0.000000 0.250000 0.043095
O O12 0.067785 0.119333 0.110030
O O13 0.335290 0.838394 0.874477
O O14 0.245265 0.434347 0.415774
O O15 0.287986 0.076564 0.351902
O O16 0.241327 0.931687 0.430354
O O17 0.594976 0.500304 0.381088
O O18 0.500000 0.750000 0.421056
O O19 0.500000 0.250000 0.420693
O O20 0.250000 0.614803 0.500000
#
# Coordination Sequence:
#
# PCOD9333351 Si02
#       8
#     8   8   8   8   8   8   8   8
#     4  10  19  31  49  73 101 138 189 244 282 304
#     4  10  19  30  46  68  97 134 173 214 258 302
#     4  10  19  33  58  85 109 136 173 221 262 308
#     4  10  20  34  52  77 106 140 179 218 263 307
#     4  10  21  37  57  79 106 141 176 212 258 324
#     4  10  19  32  49  71 101 136 175 222 272 323
#     4   8  16  27  44  67  93 127 171 226 274 309
#     4  10  21  38  61  86 110 138 170 209 266 331
#
# _framework density 20.578032
#
# number of rings (size 3 to 8) (size 9 to 14) (size 15 to 20)
#    0.000    2.250    0.000    3.375    0.000    5.500 
#    0.000    1.875    0.000    6.750    0.000    0.000 
#    0.000    0.000    0.000    0.000    0.000    0.000 
#
# Total GULP energy -178276.380901 kJ/mol
# GULP energy per Si atom -5571.136903 kJ/mol
# Density = 2.053120 g / cm^3
# Si number density = 20.578032 Si / 1000 Ang^3
#
#
#
# Elastic Constant Matrix: (Units=GPa)
#
#
# Indices 1 2 3 4 5 6 
#
# 1 82.2584 28.9776 14.4577 0.0000 0.0000 0.0000
# 2 28.9776 170.8571 9.3088 0.0000 0.0000 0.0000
# 3 14.4577 9.3088 37.5783 0.0000 0.0000 0.0000
# 4 0.0000 0.0000 0.0000 15.4648 0.0000 0.0000
# 5 0.0000 0.0000 0.0000 0.0000 13.5996 0.0000
# 6 0.0000 0.0000 0.0000 0.0000 0.0000 23.8613
#
#
#
# Elastic Compliance Matrix: (Units=1/GPa)
#
#
# Indices 1 2 3 4 5 6 
#
# 1 0.013723 -0.002068 -0.004768 0.000000 0.000000 0.000000
# 2 -0.002068 0.006244 -0.000751 0.000000 0.000000 0.000000
# 3 -0.004768 -0.000751 0.028631 0.000000 0.000000 0.000000
# 4 0.000000 0.000000 0.000000 0.064663 0.000000 0.000000
# 5 0.000000 0.000000 0.000000 0.000000 0.073531 0.000000
# 6 0.000000 0.000000 0.000000 0.000000 0.000000 0.041909
#
#
# Mechanical properties :
#
#
# Convention : Reuss Voigt Hill
#
# Bulk Modulus (GPa) = 29.91695 44.02020 36.96858
# Shear Modulus (GPa) = 19.60648 26.44846 23.02747
#
# Velocity S-wave (km/s) = 3.09007 3.58896 3.34882
# Velocity P-wave (km/s) = 5.22506 6.21390 5.74081
#
# Compressibility (1/GPa) = 0.03342586
#
# Stress axis : x y z
#
# Youngs Moduli (GPa) = 72.86947 160.14179 34.92662
#
# Poissons Ratio (x) = 0.33113 0.16651
# Poissons Ratio (y) = 0.15067 0.02624
# Poissons Ratio (z) = 0.34741 0.12032
#
# Static dielectric constant tensor:
#      x y z
#    x 1.761190 0.000000 0.000000 
#    y 0.000000 1.798040 0.000000 
#    z 0.000000 0.000000 1.754580 
# 
# From -- ./inp_files/37599.got.cif
#   From: 2010.05.17/outbox.cif.g08.bks.cpg/sg24_19_cif.got.tgz:37599.got - 2010.06.04 00:33:39.
