data_PCOD9333824
_publ_section_title
;
Structure prediction by ZEFSAII (Michael W. Deem and Ramdas Pophale) SiO2 
 PCOD9333824
Probable space group: I 21 21 21
;
_chemical_formula_sum "Si O2"
_cell_formula_units_Z 64
_cell_length_a 15.831685
_cell_length_b 19.767489
_cell_length_c 10.304008
_cell_angle_alpha 90.000000
_cell_angle_beta 90.000000
_cell_angle_gamma 90.000000
_cell_volume 3224.666703
_symmetry_space_group_name_H-M "I 21 21 21"
_symmetry_group_IT_number 24
_symmetry_cell_setting 'orthorhombic'
loop_
_space_group_symop_operation_xyz
x,y,z
-x,1/2-y,z
x,-y,1/2-z
1/2-x,y,-z
1/2+x,1/2+y,1/2+z
1/2-x,-y,1/2+z
1/2+x,1/2-y,-z
-x,1/2+y,1/2-z
loop_
_atom_site_type_symbol
_atom_site_label
_atom_site_fract_x
_atom_site_fract_y
_atom_site_fract_z
Si Si1 0.641059 0.147123 0.114888
Si Si2 0.969392 0.126458 0.632908
Si Si3 0.280782 0.161983 0.863133
Si Si4 0.427827 0.067064 0.804950
Si Si5 0.035629 0.526783 0.541384
Si Si6 0.171311 0.305909 0.161431
Si Si7 0.620351 0.423863 0.222152
Si Si8 0.471232 0.674235 0.851054
O O1 0.582662 0.155672 0.243618
O O2 0.738181 0.158367 0.150166
O O3 0.616828 0.072143 0.068549
O O4 0.627286 0.191170 0.982366
O O5 0.956699 0.169569 0.504039
O O6 0.068093 0.116910 0.668656
O O7 0.947162 0.048666 0.592321
O O8 0.358909 0.111394 0.880272
O O9 0.311219 0.229197 0.791610
O O10 0.200694 0.121114 0.811464
O O11 0.250000 0.190202 0.000000
O O12 0.502624 0.037728 0.895405
O O13 0.462656 0.117000 0.694352
O O14 0.384420 0.000000 0.750000
O O15 0.956597 0.559279 0.621881
O O16 0.111440 0.340074 0.266033
O O17 0.651360 0.500000 0.250000
O O18 0.500000 0.750000 0.815514
#
# Coordination Sequence:
#
# PCOD9333824 Si02
#       8
#     8   8   8   8   8   8   8   8
#     4  10  21  41  65  95 127 166 216 277 319 377
#     4  10  23  43  66  94 133 172 221 264 331 398
#     4  12  22  38  64  95 128 169 217 274 326 375
#     4  12  23  39  66  97 129 172 223 269 326 393
#     4  10  19  39  68  92 124 169 220 271 318 390
#     4  11  24  41  64  95 131 164 224 271 326 396
#     4   9  20  39  62  94 126 163 217 271 320 387
#     4  12  25  44  64  94 132 179 214 269 334 398
#
# _framework density 19.847011999999999
#
# number of rings (size 3 to 8) (size 9 to 14) (size 15 to 20)
#    0.000    1.250    6.250    1.500    0.000    1.500 
#    0.000   11.250    0.000    0.000    0.000    0.000 
#    0.000    0.000    0.000    0.000    0.000    0.000 
#
# Total GULP energy -178269.844683 kJ/mol
# GULP energy per Si atom -5570.932646 kJ/mol
# Density = 1.980184 g / cm^3
# Si number density = 19.847012 Si / 1000 Ang^3
#
#
#
# Elastic Constant Matrix: (Units=GPa)
#
#
# Indices 1 2 3 4 5 6 
#
# 1 67.1695 34.5863 19.4367 0.0000 0.0000 0.0000
# 2 34.5863 85.0948 0.5309 0.0000 0.0000 0.0000
# 3 19.4367 0.5309 83.9000 0.0000 0.0000 0.0000
# 4 0.0000 0.0000 0.0000 22.2923 0.0000 0.0000
# 5 0.0000 0.0000 0.0000 0.0000 26.6621 0.0000
# 6 0.0000 0.0000 0.0000 0.0000 0.0000 32.9800
#
#
#
# Elastic Compliance Matrix: (Units=1/GPa)
#
#
# Indices 1 2 3 4 5 6 
#
# 1 0.020530 -0.008315 -0.004704 0.000000 0.000000 0.000000
# 2 -0.008315 0.015120 0.001831 0.000000 0.000000 0.000000
# 3 -0.004704 0.001831 0.012997 0.000000 0.000000 0.000000
# 4 0.000000 0.000000 0.000000 0.044859 0.000000 0.000000
# 5 0.000000 0.000000 0.000000 0.000000 0.037506 0.000000
# 6 0.000000 0.000000 0.000000 0.000000 0.000000 0.030321
#
#
# Mechanical properties :
#
#
# Convention : Reuss Voigt Hill
#
# Bulk Modulus (GPa) = 38.06457 38.36357 38.21407
# Shear Modulus (GPa) = 25.97856 28.49424 27.23640
#
# Velocity S-wave (km/s) = 3.62185 3.79317 3.70850
# Velocity P-wave (km/s) = 6.05896 6.20933 6.13461
#
# Compressibility (1/GPa) = 0.02627115
#
# Stress axis : x y z
#
# Youngs Moduli (GPa) = 48.70860 66.13851 76.94082
#
# Poissons Ratio (x) = 0.54995 0.36189
# Poissons Ratio (y) = 0.40501 -0.14085
# Poissons Ratio (z) = 0.22910 -0.12108
#
# Static dielectric constant tensor:
#      x y z
#    x 1.666650 0.000000 0.000000 
#    y 0.000000 1.697840 0.000000 
#    z 0.000000 0.000000 1.780090 
# 
# From -- ./inp_files/21081.got.cif
#   From: 2010.05.17/outbox.cif.g08.bks.cpg/sg24_11_cif.got.tgz:21081.got - 2010.06.04 00:33:39.
