data_PCOD9333629
_publ_section_title
;
Structure prediction by ZEFSAII (Michael W. Deem and Ramdas Pophale) SiO2 
 PCOD9333629
Probable space group: I 21 21 21
;
_chemical_formula_sum "Si O2"
_cell_formula_units_Z 44
_cell_length_a 13.721867
_cell_length_b 5.235088
_cell_length_c 27.946551
_cell_angle_alpha 90.000000
_cell_angle_beta 90.000000
_cell_angle_gamma 90.000000
_cell_volume 2007.545557
_symmetry_space_group_name_H-M "I 21 21 21"
_symmetry_group_IT_number 24
_symmetry_cell_setting 'orthorhombic'
loop_
_space_group_symop_operation_xyz
x,y,z
-x,1/2-y,z
x,-y,1/2-z
1/2-x,y,-z
1/2+x,1/2+y,1/2+z
1/2-x,-y,1/2+z
1/2+x,1/2-y,-z
-x,1/2+y,1/2-z
loop_
_atom_site_type_symbol
_atom_site_label
_atom_site_fract_x
_atom_site_fract_y
_atom_site_fract_z
Si Si1 0.602077 0.679435 0.142478
Si Si2 0.750000 0.879732 0.500000
Si Si3 0.659287 0.817646 0.403934
Si Si4 0.638034 0.866405 0.652787
Si Si5 0.441000 0.501912 0.551385
Si Si6 0.808139 0.629719 0.198493
O O1 0.500000 0.750000 0.167900
O O2 0.594866 0.405341 0.117792
O O3 0.699852 0.664253 0.174919
O O4 0.616494 0.898936 0.102101
O O5 0.664560 0.026717 0.527356
O O6 0.694438 0.740300 0.456819
O O7 0.755159 0.834755 0.370932
O O8 0.623100 0.580453 0.672100
O O9 0.574493 0.957101 0.608070
O O10 0.644424 0.090424 0.692151
O O11 0.500000 0.250000 0.541942
O O12 0.500000 0.750000 0.533523
O O13 0.794711 0.500000 0.250000
#
# Coordination Sequence:
#
# PCOD9333629 Si02
#       6
#     8   4   8   8   8   8
#     4  10  20  35  53  81 117 154 191 240 302 368
#     4  10  24  42  62  94 128 158 210 268 300 354
#     4   9  20  35  55  76 111 158 193 232 293 347
#     4   9  19  37  57  81 115 151 194 241 289 358
#     4  11  24  41  65  93 124 167 208 249 312 374
#     4  10  19  35  60  85 110 154 203 246 306 364
#
# _framework density 21.917310000000001
#
# number of rings (size 3 to 8) (size 9 to 14) (size 15 to 20)
#    0.000    2.182    0.000    2.182    0.000    9.455 
#    0.000    5.455    0.000   10.909    0.000    0.000 
#    0.000    0.000    0.000    0.000    0.000    0.000 
#
# Total GULP energy -122648.899202 kJ/mol
# GULP energy per Si atom -5574.949964 kJ/mol
# Density = 2.186743 g / cm^3
# Si number density = 21.917310 Si / 1000 Ang^3
#
#
#
# Elastic Constant Matrix: (Units=GPa)
#
#
# Indices 1 2 3 4 5 6 
#
# 1 80.8997 40.5102 22.0290 0.0000 0.0000 0.0000
# 2 40.5102 142.8301 27.5181 0.0000 0.0000 0.0000
# 3 22.0290 27.5181 85.5589 0.0000 0.0000 0.0000
# 4 0.0000 0.0000 0.0000 -107.1535 0.0000 0.0000
# 5 0.0000 0.0000 0.0000 0.0000 38.6473 0.0000
# 6 0.0000 0.0000 0.0000 0.0000 0.0000 12.0278
#
#
#
# Elastic Compliance Matrix: (Units=1/GPa)
#
#
# Indices 1 2 3 4 5 6 
#
# 1 0.014950 -0.003730 -0.002650 0.000000 0.000000 0.000000
# 2 -0.003730 0.008394 -0.001740 0.000000 0.000000 0.000000
# 3 -0.002650 -0.001740 0.012930 0.000000 0.000000 0.000000
# 4 0.000000 0.000000 0.000000 -0.009332 0.000000 0.000000
# 5 0.000000 0.000000 0.000000 0.000000 0.025875 0.000000
# 6 0.000000 0.000000 0.000000 0.000000 0.000000 0.083141
#
#
# Mechanical properties :
#
#
# Convention : Reuss Voigt Hill
#
# Bulk Modulus (GPa) = 49.90983 54.37815 52.14399
# Shear Modulus (GPa) = 31.47152 3.31976 17.39564
#
# Velocity S-wave (km/s) = 3.79347 1.23206 2.82031
# Velocity P-wave (km/s) = 6.48140 5.18540 5.86928
#
# Compressibility (1/GPa) = 0.02003613
#
# Stress axis : x y z
#
# Youngs Moduli (GPa) = 66.88899 119.12815 77.34221
#
# Poissons Ratio (x) = 0.44432 0.20493
# Poissons Ratio (y) = 0.24948 0.13454
# Poissons Ratio (z) = 0.17723 0.20723
#
# Static dielectric constant tensor:
#      x y z
#    x 1.939310 0.000000 0.000000 
#    y 0.000000 1.762230 0.000000 
#    z 0.000000 0.000000 1.819630 
# 
# From -- ./inp_files/37326.got.cif
#   From: 2010.05.17/outbox.cif.g08.bks.cpg/sg24_19_cif.got.tgz:37326.got - 2010.06.04 00:33:39.
