data_PCOD9333853
_publ_section_title
;
Structure prediction by ZEFSAII (Michael W. Deem and Ramdas Pophale) SiO2 
 PCOD9333853
Probable space group: I 21 21 21
;
_chemical_formula_sum "Si O2"
_cell_formula_units_Z 48
_cell_length_a 24.611234
_cell_length_b 6.108057
_cell_length_c 14.077488
_cell_angle_alpha 90.000000
_cell_angle_beta 90.000000
_cell_angle_gamma 90.000000
_cell_volume 2116.224006
_symmetry_space_group_name_H-M "I 21 21 21"
_symmetry_group_IT_number 24
_symmetry_cell_setting 'orthorhombic'
loop_
_space_group_symop_operation_xyz
x,y,z
-x,1/2-y,z
x,-y,1/2-z
1/2-x,y,-z
1/2+x,1/2+y,1/2+z
1/2-x,-y,1/2+z
1/2+x,1/2-y,-z
-x,1/2+y,1/2-z
loop_
_atom_site_type_symbol
_atom_site_label
_atom_site_fract_x
_atom_site_fract_y
_atom_site_fract_z
Si Si1 0.365822 0.000000 0.750000
Si Si2 0.339728 0.596066 0.853717
Si Si3 0.935992 0.202009 0.113449
Si Si4 0.523031 0.500000 0.250000
Si Si5 0.306969 0.892423 0.159816
Si Si6 0.750000 0.884390 0.000000
Si Si7 0.903450 0.678942 0.597352
Si Si8 0.623449 0.000000 0.250000
O O1 0.336388 0.854770 0.831009
O O2 0.403770 0.837018 0.692029
O O3 0.323298 0.500000 0.750000
O O4 0.402572 0.529392 0.877666
O O5 0.300182 0.510272 0.938833
O O6 0.000000 0.250000 0.128610
O O7 0.922288 0.285823 0.008405
O O8 0.500000 0.750000 0.245369
O O9 0.558709 0.512509 0.345455
O O10 0.275379 0.766032 0.080406
O O11 0.343001 0.704220 0.210196
O O12 0.277015 0.000000 0.250000
O O13 0.343666 0.076274 0.108656
O O14 0.907039 0.903301 0.658440
#
# Coordination Sequence:
#
# PCOD9333853 Si02
#       8
#     4   8   8   4   8   4   8   4
#     4  10  24  48  71  97 144 188 244 318 364 454
#     4  10  25  48  71 106 145 189 251 307 380 455
#     4  11  25  44  72 106 140 190 251 308 383 446
#     4  12  25  42  67 106 150 205 252 314 391 464
#     4  10  23  41  67  98 136 186 239 297 372 449
#     4  12  24  44  74 104 140 192 238 310 378 452
#     4  11  22  44  64 102 141 190 239 304 373 464
#     4  10  19  42  70  89 146 185 240 294 375 450
#
# _framework density 22.681908
#
# number of rings (size 3 to 8) (size 9 to 14) (size 15 to 20)
#    0.000    1.333    2.500    3.000    5.833    0.000 
#    6.000    6.667    0.000    0.000    0.000    0.000 
#    0.000    0.000    0.000    0.000    0.000    0.000 
#
# Total GULP energy -133698.411444 kJ/mol
# GULP energy per Si atom -5570.767144 kJ/mol
# Density = 2.263028 g / cm^3
# Si number density = 22.681908 Si / 1000 Ang^3
#
#
#
# Elastic Constant Matrix: (Units=GPa)
#
#
# Indices 1 2 3 4 5 6 
#
# 1 74.7582 17.7624 23.2351 0.0000 0.0000 0.0000
# 2 17.7624 58.8470 2.6296 0.0000 0.0000 0.0000
# 3 23.2351 2.6296 126.6257 0.0000 0.0000 0.0000
# 4 0.0000 0.0000 0.0000 33.8454 0.0000 0.0000
# 5 0.0000 0.0000 0.0000 0.0000 23.3896 0.0000
# 6 0.0000 0.0000 0.0000 0.0000 0.0000 58.4875
#
#
#
# Elastic Compliance Matrix: (Units=1/GPa)
#
#
# Indices 1 2 3 4 5 6 
#
# 1 0.015287 -0.004493 -0.002712 0.000000 0.000000 0.000000
# 2 -0.004493 0.018330 0.000444 0.000000 0.000000 0.000000
# 3 -0.002712 0.000444 0.008386 0.000000 0.000000 0.000000
# 4 0.000000 0.000000 0.000000 0.029546 0.000000 0.000000
# 5 0.000000 0.000000 0.000000 0.000000 0.042754 0.000000
# 6 0.000000 0.000000 0.000000 0.000000 0.000000 0.017098
#
#
# Mechanical properties :
#
#
# Convention : Reuss Voigt Hill
#
# Bulk Modulus (GPa) = 35.11220 38.60948 36.86084
# Shear Modulus (GPa) = 32.38023 37.58474 34.98249
#
# Velocity S-wave (km/s) = 3.78243 4.07509 3.93148
# Velocity P-wave (km/s) = 5.88129 6.26106 6.07414
#
# Compressibility (1/GPa) = 0.02848013
#
# Stress axis : x y z
#
# Youngs Moduli (GPa) = 65.41592 54.55665 119.25119
#
# Poissons Ratio (x) = 0.24512 0.32338
# Poissons Ratio (y) = 0.29391 -0.05292
# Poissons Ratio (z) = 0.17739 -0.02421
#
# Static dielectric constant tensor:
#      x y z
#    x 2.017940 0.000000 0.000000 
#    y 0.000000 1.890240 0.000000 
#    z 0.000000 0.000000 1.651680 
# 
# From -- ./inp_files/28077.got.cif
#   From: 2010.05.17/outbox.cif.g08.bks.cpg/sg24_15_cif.got.tgz:28077.got - 2010.06.04 00:33:39.
