data_PCOD9333700
_publ_section_title
;
Structure prediction by ZEFSAII (Michael W. Deem and Ramdas Pophale) SiO2 
 PCOD9333700
Probable space group: I 21 21 21
;
_chemical_formula_sum "Si O2"
_cell_formula_units_Z 48
_cell_length_a 5.456738
_cell_length_b 26.367194
_cell_length_c 12.864171
_cell_angle_alpha 90.000000
_cell_angle_beta 90.000000
_cell_angle_gamma 90.000000
_cell_volume 1850.882380
_symmetry_space_group_name_H-M "I 21 21 21"
_symmetry_group_IT_number 24
_symmetry_cell_setting 'orthorhombic'
loop_
_space_group_symop_operation_xyz
x,y,z
-x,1/2-y,z
x,-y,1/2-z
1/2-x,y,-z
1/2+x,1/2+y,1/2+z
1/2-x,-y,1/2+z
1/2+x,1/2-y,-z
-x,1/2+y,1/2-z
loop_
_atom_site_type_symbol
_atom_site_label
_atom_site_fract_x
_atom_site_fract_y
_atom_site_fract_z
Si Si1 0.631538 0.558371 0.662142
Si Si2 0.500000 0.750000 0.204604
Si Si3 0.000000 0.750000 0.312680
Si Si4 0.861597 0.135138 0.658332
Si Si5 0.005969 0.656680 0.441510
Si Si6 0.367678 0.453551 0.171186
Si Si7 0.354219 0.917197 0.897676
O O1 0.586532 0.617594 0.644072
O O2 0.386342 0.535121 0.617152
O O3 0.642293 0.551898 0.788004
O O4 0.885276 0.547374 0.608716
O O5 0.754238 0.729507 0.256511
O O6 0.376376 0.696599 0.162130
O O7 0.896363 0.793882 0.385218
O O8 0.862607 0.099983 0.764398
O O9 0.616285 0.112323 0.602480
O O10 0.125634 0.121172 0.611946
O O11 0.250000 0.636045 0.500000
O O12 0.750000 0.668824 0.500000
O O13 0.392505 0.500000 0.250000
O O14 0.250000 0.945842 0.000000
#
# Coordination Sequence:
#
# PCOD9333700 Si02
#       7
#     8   4   4   8   8   8   8
#     4  10  21  38  61  89 121 164 204 253 323 367
#     4  12  22  39  64  91 128 166 210 259 312 387
#     4  12  22  37  60  91 124 168 216 261 310 365
#     4  10  21  36  58  92 122 162 200 248 312 365
#     4  12  24  40  61  90 129 170 215 264 309 375
#     4  10  19  36  63  92 121 160 210 256 307 375
#     4  10  20  38  63  90 120 155 203 257 309 377
#
# _framework density 25.933574
#
# number of rings (size 3 to 8) (size 9 to 14) (size 15 to 20)
#    0.000    1.333    0.000    8.500    0.000    0.000 
#    0.000    1.667    0.000   40.000    0.000    0.000 
#    0.000    0.000    0.000    0.000    0.000    0.000 
#
# Total GULP energy -133681.302811 kJ/mol
# GULP energy per Si atom -5570.054284 kJ/mol
# Density = 2.587455 g / cm^3
# Si number density = 25.933574 Si / 1000 Ang^3
#
#
#
# Elastic Constant Matrix: (Units=GPa)
#
#
# Indices 1 2 3 4 5 6 
#
# 1 290.1401 28.8869 53.9398 0.0000 0.0000 0.0000
# 2 28.8869 111.1748 21.3012 0.0000 0.0000 0.0000
# 3 53.9398 21.3012 75.4825 -0.0001 0.0000 0.0000
# 4 0.0000 0.0000 -0.0001 11.4077 0.0000 0.0000
# 5 0.0000 0.0000 0.0000 0.0000 46.5947 0.0000
# 6 0.0000 0.0000 0.0000 0.0000 0.0000 39.2076
#
#
#
# Elastic Compliance Matrix: (Units=1/GPa)
#
#
# Indices 1 2 3 4 5 6 
#
# 1 0.004003 -0.000520 -0.002714 0.000000 0.000000 0.000000
# 2 -0.000520 0.009577 -0.002331 0.000000 0.000000 0.000000
# 3 -0.002714 -0.002331 0.015845 0.000000 0.000000 0.000000
# 4 0.000000 0.000000 0.000000 0.087660 0.000000 0.000000
# 5 0.000000 0.000000 0.000000 0.000000 0.021462 0.000000
# 6 0.000000 0.000000 0.000000 0.000000 0.000000 0.025505
#
#
# Mechanical properties :
#
#
# Convention : Reuss Voigt Hill
#
# Bulk Modulus (GPa) = 54.65903 76.11701 65.38802
# Shear Modulus (GPa) = 27.58176 44.28664 35.93420
#
# Velocity S-wave (km/s) = 3.26476 4.13691 3.72644
# Velocity P-wave (km/s) = 5.94422 7.22725 6.61691
#
# Compressibility (1/GPa) = 0.01829524
#
# Stress axis : x y z
#
# Youngs Moduli (GPa) = 249.81909 104.42143 63.11118
#
# Poissons Ratio (x) = 0.05431 0.17126
# Poissons Ratio (y) = 0.12994 0.14710
# Poissons Ratio (z) = 0.67793 0.24339
#
# Static dielectric constant tensor:
#      x y z
#    x 2.120510 0.000000 0.000000 
#    y 0.000000 2.052540 0.000000 
#    z 0.000000 0.000000 2.206540 
# 
# From -- ./inp_files/24027.got.cif
#   From: 2010.05.17/outbox.cif.g08.bks.cpg/sg24_13_cif.got.tgz:24027.got - 2010.06.04 00:33:39.
