data_PCOD9333205
_publ_section_title
;
Structure prediction by ZEFSAII (Michael W. Deem and Ramdas Pophale) SiO2 
 PCOD9333205
Probable space group: I 21 21 21
;
_chemical_formula_sum "Si O2"
_cell_formula_units_Z 40
_cell_length_a 16.888711
_cell_length_b 14.118572
_cell_length_c 7.474112
_cell_angle_alpha 90.000000
_cell_angle_beta 90.000000
_cell_angle_gamma 90.000000
_cell_volume 1782.160766
_symmetry_space_group_name_H-M "I 21 21 21"
_symmetry_group_IT_number 24
_symmetry_cell_setting 'orthorhombic'
loop_
_space_group_symop_operation_xyz
x,y,z
-x,1/2-y,z
x,-y,1/2-z
1/2-x,y,-z
1/2+x,1/2+y,1/2+z
1/2-x,-y,1/2+z
1/2+x,1/2-y,-z
-x,1/2+y,1/2-z
loop_
_atom_site_type_symbol
_atom_site_label
_atom_site_fract_x
_atom_site_fract_y
_atom_site_fract_z
Si Si1 0.000000 0.750000 0.516167
Si Si2 0.109382 0.037688 0.544467
Si Si3 0.197507 0.592857 0.665993
Si Si4 0.750000 0.593537 0.500000
Si Si5 0.448089 0.549644 0.577680
Si Si6 0.847923 0.285745 0.727413
O O1 0.022232 0.657866 0.401485
O O2 0.074471 0.777396 0.643551
O O3 0.130194 0.148331 0.560110
O O4 0.108693 0.000000 0.750000
O O5 0.177101 0.975263 0.452238
O O6 0.023973 0.014022 0.469005
O O7 0.235100 0.500000 0.750000
O O8 0.250000 0.628884 0.500000
O O9 0.114926 0.557955 0.580466
O O10 0.180806 0.678848 0.800326
O O11 0.780524 0.658623 0.661364
O O12 0.412064 0.500000 0.750000
#
# Coordination Sequence:
#
# PCOD9333205 Si02
#       6
#     4   8   8   4   8   8
#     4  10  20  40  62  84 124 174 202 258 324 394
#     4  10  20  39  64  96 121 164 213 264 329 390
#     4  11  24  44  67  90 129 179 222 268 317 392
#     4  10  18  36  60  98 126 156 206 264 326 386
#     4  11  23  40  63  95 127 165 218 272 329 382
#     4  10  21  39  67  90 123 171 214 258 331 386
#
# _framework density 22.444666000000002
#
# number of rings (size 3 to 8) (size 9 to 14) (size 15 to 20)
#    0.000    1.600    5.000    1.200    2.800    2.400 
#    5.400    0.000    0.000    0.000    0.000    0.000 
#    0.000    0.000    0.000    0.000    0.000    0.000 
#
# Total GULP energy -111765.220040 kJ/mol
# GULP energy per Si atom -5588.261002 kJ/mol
# Density = 2.239358 g / cm^3
# Si number density = 22.444666 Si / 1000 Ang^3
#
#
#
# Elastic Constant Matrix: (Units=GPa)
#
#
# Indices 1 2 3 4 5 6 
#
# 1 124.9285 38.1378 13.9906 0.0000 0.0000 0.0000
# 2 38.1378 171.7688 36.1266 0.0000 0.0000 0.0000
# 3 13.9906 36.1266 31.0830 0.0000 0.0000 0.0000
# 4 0.0000 0.0000 0.0000 26.2378 0.0000 0.0000
# 5 0.0000 0.0000 0.0000 0.0000 6.4307 0.0000
# 6 0.0000 0.0000 0.0000 0.0000 0.0000 31.4289
#
#
#
# Elastic Compliance Matrix: (Units=1/GPa)
#
#
# Indices 1 2 3 4 5 6 
#
# 1 0.008700 -0.001467 -0.002211 0.000000 0.000000 0.000000
# 2 -0.001467 0.007953 -0.008583 0.000000 0.000000 0.000000
# 3 -0.002211 -0.008583 0.043143 0.000000 0.000000 0.000000
# 4 0.000000 0.000000 0.000000 0.038113 0.000000 0.000000
# 5 0.000000 0.000000 0.000000 0.000000 0.155503 0.000000
# 6 0.000000 0.000000 0.000000 0.000000 0.000000 0.031818
#
#
# Mechanical properties :
#
#
# Convention : Reuss Voigt Hill
#
# Bulk Modulus (GPa) = 28.34969 56.03226 42.19097
# Shear Modulus (GPa) = 15.55169 28.78783 22.16976
#
# Velocity S-wave (km/s) = 2.63514 3.58524 3.14626
# Velocity P-wave (km/s) = 4.68155 6.49288 5.66014
#
# Compressibility (1/GPa) = 0.03527376
#
# Stress axis : x y z
#
# Youngs Moduli (GPa) = 114.94342 125.74584 23.17884
#
# Poissons Ratio (x) = 0.18441 0.05126
# Poissons Ratio (y) = 0.16857 0.19894
# Poissons Ratio (z) = 0.25418 1.07926
#
# Static dielectric constant tensor:
#      x y z
#    x 1.826870 0.000000 0.000000 
#    y 0.000000 1.879650 0.000000 
#    z 0.000000 0.000000 1.804460 
# 
# From -- ./inp_files/12396.got.cif
#   From: 2010.05.17/outbox.cif.g08.bks.cpg/sg24_7_cif.got.tgz:12396.got - 2010.06.04 00:33:39.
