data_PCOD9333936
_publ_section_title
;
Structure prediction by ZEFSAII (Michael W. Deem and Ramdas Pophale) SiO2 
 PCOD9333936
Probable space group: I 21 21 21
;
_chemical_formula_sum "Si O2"
_cell_formula_units_Z 36
_cell_length_a 29.978273
_cell_length_b 4.999335
_cell_length_c 13.075939
_cell_angle_alpha 90.000000
_cell_angle_beta 90.000000
_cell_angle_gamma 90.000000
_cell_volume 1959.709669
_symmetry_space_group_name_H-M "I 21 21 21"
_symmetry_group_IT_number 24
_symmetry_cell_setting 'orthorhombic'
loop_
_space_group_symop_operation_xyz
x,y,z
-x,1/2-y,z
x,-y,1/2-z
1/2-x,y,-z
1/2+x,1/2+y,1/2+z
1/2-x,-y,1/2+z
1/2+x,1/2-y,-z
-x,1/2+y,1/2-z
loop_
_atom_site_type_symbol
_atom_site_label
_atom_site_fract_x
_atom_site_fract_y
_atom_site_fract_z
Si Si1 0.177250 0.745477 0.677872
Si Si2 0.140784 0.909250 0.463048
Si Si3 0.278227 0.257678 0.821905
Si Si4 0.000000 0.750000 0.177501
Si Si5 0.904860 0.071764 0.370739
O O1 0.161403 0.500000 0.750000
O O2 0.148642 0.847548 0.582098
O O3 0.227945 0.674736 0.641844
O O4 0.181102 0.000000 0.750000
O O5 0.186273 0.811678 0.408175
O O6 0.102743 0.707734 0.425995
O O7 0.127650 0.203645 0.420853
O O8 0.293593 0.500000 0.750000
O O9 0.275962 0.000000 0.750000
O O10 0.988443 0.500000 0.250000
O O11 0.044639 0.674166 0.117935
O O12 0.897991 0.000000 0.250000
#
# Coordination Sequence:
#
# PCOD9333936 Si02
#       5
#     8   8   8   4   8
#     4  10  22  38  52  73 106 147 189 226 264 305
#     4  12  21  34  56  81 106 143 183 224 263 312
#     4  10  20  33  51  76 109 140 173 219 269 320
#     4  10  20  36  54  78 116 146 160 198 264 336
#     4  11  22  35  55  84 113 139 170 210 267 335
#
# _framework density 18.370066999999999
#
# number of rings (size 3 to 8) (size 9 to 14) (size 15 to 20)
#    0.000    1.333    0.000    8.667    0.000    0.000 
#    0.000    8.889    0.000    0.000    0.000   15.556 
#    0.000    0.000    0.000    0.000    0.000    0.000 
#
# Total GULP energy -100421.958859 kJ/mol
# GULP energy per Si atom -5578.997714 kJ/mol
# Density = 1.832826 g / cm^3
# Si number density = 18.370067 Si / 1000 Ang^3
#
#
#
# Elastic Constant Matrix: (Units=GPa)
#
#
# Indices 1 2 3 4 5 6 
#
# 1 57.6205 -4.0917 30.4971 0.0000 0.0000 0.0000
# 2 -4.0917 101.4096 21.9183 0.0000 0.0000 0.0000
# 3 30.4971 21.9183 88.6429 0.0000 0.0000 0.0000
# 4 0.0000 0.0000 0.0000 26.4769 0.0000 0.0000
# 5 0.0000 0.0000 0.0000 0.0000 52.0587 0.0000
# 6 0.0000 0.0000 0.0000 0.0000 0.0000 89.6075
#
#
#
# Elastic Compliance Matrix: (Units=1/GPa)
#
#
# Indices 1 2 3 4 5 6 
#
# 1 0.021873 0.002651 -0.008181 0.000000 0.000000 0.000000
# 2 0.002651 0.010739 -0.003567 0.000000 0.000000 0.000000
# 3 -0.008181 -0.003567 0.014978 0.000000 0.000000 0.000000
# 4 0.000000 0.000000 0.000000 0.037769 0.000000 0.000000
# 5 0.000000 0.000000 0.000000 0.000000 0.019209 0.000000
# 6 0.000000 0.000000 0.000000 0.000000 0.000000 0.011160
#
#
# Mechanical properties :
#
#
# Convention : Reuss Voigt Hill
#
# Bulk Modulus (GPa) = 34.01925 38.25781 36.13853
# Shear Modulus (GPa) = 34.78975 46.91858 40.85417
#
# Velocity S-wave (km/s) = 4.35653 5.05927 4.72100
# Velocity P-wave (km/s) = 6.62306 7.41618 7.03081
#
# Compressibility (1/GPa) = 0.02939512
#
# Stress axis : x y z
#
# Youngs Moduli (GPa) = 45.71845 93.11872 66.76538
#
# Poissons Ratio (x) = -0.24683 0.54619
# Poissons Ratio (y) = -0.12119 0.23817
# Poissons Ratio (z) = 0.37401 0.33219
#
# Static dielectric constant tensor:
#      x y z
#    x 1.682430 0.000000 0.000000 
#    y 0.000000 -0.725340 0.000000 
#    z 0.000000 0.000000 1.651550 
# 
# From -- ./inp_files/23050.got.cif
#   From: 2010.05.17/outbox.cif.g08.bks.cpg/sg24_12_cif.got.tgz:23050.got - 2010.06.04 00:33:39.
