data_PCOD9333927
_publ_section_title
;
Structure prediction by ZEFSAII (Michael W. Deem and Ramdas Pophale) SiO2 
 PCOD9333927
Probable space group: I 21 21 21
;
_chemical_formula_sum "Si O2"
_cell_formula_units_Z 48
_cell_length_a 5.251297
_cell_length_b 17.339108
_cell_length_c 26.217557
_cell_angle_alpha 90.000000
_cell_angle_beta 90.000000
_cell_angle_gamma 90.000000
_cell_volume 2387.182127
_symmetry_space_group_name_H-M "I 21 21 21"
_symmetry_group_IT_number 24
_symmetry_cell_setting 'orthorhombic'
loop_
_space_group_symop_operation_xyz
x,y,z
-x,1/2-y,z
x,-y,1/2-z
1/2-x,y,-z
1/2+x,1/2+y,1/2+z
1/2-x,-y,1/2+z
1/2+x,1/2-y,-z
-x,1/2+y,1/2-z
loop_
_atom_site_type_symbol
_atom_site_label
_atom_site_fract_x
_atom_site_fract_y
_atom_site_fract_z
Si Si1 0.752176 0.839664 0.689995
Si Si2 0.749806 0.303259 0.442729
Si Si3 0.750312 0.276079 0.090860
Si Si4 0.621216 0.171792 0.696607
Si Si5 0.252764 0.917761 0.343033
Si Si6 0.852841 0.403569 0.654968
O O1 0.746115 0.776624 0.644115
O O2 0.701527 0.807649 0.745914
O O3 0.529808 0.902155 0.678610
O O4 0.028636 0.877970 0.690783
O O5 0.500000 0.250000 0.437716
O O6 0.750000 0.337201 0.500000
O O7 0.732337 0.365946 0.398490
O O8 0.000000 0.250000 0.439158
O O9 0.500000 0.250000 0.063331
O O10 0.744694 0.365080 0.106081
O O11 0.000000 0.250000 0.062996
O O12 0.500000 0.250000 0.673219
O O13 0.376981 0.115964 0.694140
O O14 0.873510 0.133871 0.670890
O O15 0.343542 0.004563 0.349968
#
# Coordination Sequence:
#
# PCOD9333927 Si02
#       6
#     8   8   8   8   8   8
#     4  10  20  35  50  68  99 146 185 205 239 299
#     4  10  21  40  62  78  98 132 171 211 263 331
#     4   8  15  29  47  62  86 126 172 202 224 278
#     4  12  24  36  51  70 101 142 180 217 254 300
#     4  10  20  33  49  72 102 132 172 218 258 296
#     4  12  24  35  52  79 105 126 165 225 275 311
#
# _framework density 20.107391
#
# number of rings (size 3 to 8) (size 9 to 14) (size 15 to 20)
#    0.000    1.667    0.000    6.500    0.000    6.667 
#    0.000    0.000    0.000    0.000    0.000    0.000 
#    0.000   12.000    0.000    0.000    0.000   14.167 
#
# Total GULP energy -133839.088848 kJ/mol
# GULP energy per Si atom -5576.628702 kJ/mol
# Density = 2.006163 g / cm^3
# Si number density = 20.107391 Si / 1000 Ang^3
#
#
#
# Elastic Constant Matrix: (Units=GPa)
#
#
# Indices 1 2 3 4 5 6 
#
# 1 176.7489 38.2695 7.8451 0.0000 0.0000 0.0000
# 2 38.2695 118.2720 15.2368 0.0000 0.0000 0.0000
# 3 7.8451 15.2368 65.6638 0.0000 0.0000 0.0000
# 4 0.0000 0.0000 0.0000 0.9276 0.0000 0.0000
# 5 0.0000 0.0000 0.0000 0.0000 5.6378 0.0000
# 6 0.0000 0.0000 0.0000 0.0000 0.0000 28.1904
#
#
#
# Elastic Compliance Matrix: (Units=1/GPa)
#
#
# Indices 1 2 3 4 5 6 
#
# 1 0.006089 -0.001934 -0.000279 0.000000 0.000000 0.000000
# 2 -0.001934 0.009330 -0.001934 0.000000 0.000000 0.000000
# 3 -0.000279 -0.001934 0.015711 0.000000 0.000000 0.000000
# 4 0.000000 0.000000 0.000000 1.078068 0.000000 0.000000
# 5 0.000000 0.000000 0.000000 0.000000 0.177375 0.000000
# 6 0.000000 0.000000 0.000000 0.000000 0.000000 0.035473
#
#
# Mechanical properties :
#
#
# Convention : Reuss Voigt Hill
#
# Bulk Modulus (GPa) = 43.78951 53.70973 48.74962
# Shear Modulus (GPa) = 3.73706 26.90670 15.32188
#
# Velocity S-wave (km/s) = 1.36477 3.66204 2.76343
# Velocity P-wave (km/s) = 4.93037 6.68208 5.87191
#
# Compressibility (1/GPa) = 0.02283652
#
# Stress axis : x y z
#
# Youngs Moduli (GPa) = 164.23260 107.17975 63.64920
#
# Poissons Ratio (x) = 0.20732 0.01773
# Poissons Ratio (y) = 0.31768 0.12309
# Poissons Ratio (z) = 0.04576 0.20727
#
# Static dielectric constant tensor:
#      x y z
#    x 1.795150 0.000000 0.000000 
#    y 0.000000 1.725480 0.000000 
#    z 0.000000 0.000000 1.715910 
# 
# From -- ./inp_files/36462.got.cif
#   From: 2010.05.17/outbox.cif.g08.bks.cpg/sg24_19_cif.got.tgz:36462.got - 2010.06.04 00:33:39.
