data_PCOD9333598
_publ_section_title
;
Structure prediction by ZEFSAII (Michael W. Deem and Ramdas Pophale) SiO2 
 PCOD9333598
Probable space group: I 21 21 21
;
_chemical_formula_sum "Si O2"
_cell_formula_units_Z 60
_cell_length_a 26.498129
_cell_length_b 15.039765
_cell_length_c 8.195965
_cell_angle_alpha 90.000000
_cell_angle_beta 90.000000
_cell_angle_gamma 90.000000
_cell_volume 3266.302140
_symmetry_space_group_name_H-M "I 21 21 21"
_symmetry_group_IT_number 24
_symmetry_cell_setting 'orthorhombic'
loop_
_space_group_symop_operation_xyz
x,y,z
-x,1/2-y,z
x,-y,1/2-z
1/2-x,y,-z
1/2+x,1/2+y,1/2+z
1/2-x,-y,1/2+z
1/2+x,1/2-y,-z
-x,1/2+y,1/2-z
loop_
_atom_site_type_symbol
_atom_site_label
_atom_site_fract_x
_atom_site_fract_y
_atom_site_fract_z
Si Si1 0.876015 0.682300 0.899891
Si Si2 0.451020 0.698308 0.591612
Si Si3 0.024209 0.510843 0.448514
Si Si4 0.408721 0.004058 0.944645
Si Si5 0.363956 0.814088 0.471209
Si Si6 0.278019 0.914152 0.165598
Si Si7 0.750000 0.668667 0.500000
Si Si8 0.954883 0.813850 0.022235
O O1 0.886550 0.694539 0.709382
O O2 0.816225 0.662016 0.895355
O O3 0.897567 0.591668 0.978039
O O4 0.902041 0.765649 0.985531
O O5 0.500000 0.750000 0.523762
O O6 0.445836 0.600931 0.512330
O O7 0.401082 0.757014 0.581167
O O8 0.461718 0.684413 0.782814
O O9 0.026409 0.500000 0.250000
O O10 0.040713 0.417207 0.526958
O O11 0.965806 0.528849 0.492078
O O12 0.407459 0.000000 0.750000
O O13 0.369991 0.081627 0.989826
O O14 0.305328 0.786900 0.482896
O O15 0.246143 0.880109 0.321805
O O16 0.304411 0.000000 0.250000
O O17 0.250000 0.941815 0.000000
O O18 0.000000 0.750000 0.956525
#
# Coordination Sequence:
#
# PCOD9333598 Si02
#       8
#     8   8   8   8   8   8   4   8
#     4  11  23  36  50  83 117 151 190 233 286 346
#     4  10  19  35  59  84 109 149 199 239 287 354
#     4   9  18  34  53  84 114 144 194 238 280 344
#     4  11  20  33  56  80 113 153 189 231 283 342
#     4  11  23  38  54  80 120 152 193 242 293 349
#     4  11  23  38  58  82 119 156 200 242 293 350
#     4  10  24  40  52  84 116 156 202 252 284 354
#     4  10  19  35  57  82 115 150 192 235 280 348
#
# _framework density 18.369396999999999
#
# number of rings (size 3 to 8) (size 9 to 14) (size 15 to 20)
#    0.000    1.600    3.333    2.800    3.733    0.533 
#    0.000    0.667    0.000    0.000    1.733    0.000 
#    0.000    0.000    0.000    0.000    0.000    0.000 
#
# Total GULP energy -167034.525966 kJ/mol
# GULP energy per Si atom -5567.817532 kJ/mol
# Density = 1.832759 g / cm^3
# Si number density = 18.369397 Si / 1000 Ang^3
#
#
#
# Elastic Constant Matrix: (Units=GPa)
#
#
# Indices 1 2 3 4 5 6 
#
# 1 73.4187 42.5374 8.1674 0.0000 0.0000 0.0000
# 2 42.5374 103.3700 16.7879 0.0000 0.0000 0.0000
# 3 8.1674 16.7879 38.0517 0.0000 0.0000 0.0000
# 4 0.0000 0.0000 0.0000 18.2542 0.0000 0.0000
# 5 0.0000 0.0000 0.0000 0.0000 41.8737 0.0000
# 6 0.0000 0.0000 0.0000 0.0000 0.0000 20.5894
#
#
#
# Elastic Compliance Matrix: (Units=1/GPa)
#
#
# Indices 1 2 3 4 5 6 
#
# 1 0.017899 -0.007262 -0.000638 0.000000 0.000000 0.000000
# 2 -0.007262 0.013367 -0.004339 0.000000 0.000000 0.000000
# 3 -0.000638 -0.004339 0.028331 0.000000 0.000000 0.000000
# 4 0.000000 0.000000 0.000000 0.054782 0.000000 0.000000
# 5 0.000000 0.000000 0.000000 0.000000 0.023881 0.000000
# 6 0.000000 0.000000 0.000000 0.000000 0.000000 0.048569
#
#
# Mechanical properties :
#
#
# Convention : Reuss Voigt Hill
#
# Bulk Modulus (GPa) = 28.47385 38.86954 33.67169
# Shear Modulus (GPa) = 22.42027 25.96662 24.19344
#
# Velocity S-wave (km/s) = 3.49739 3.76384 3.63306
# Velocity P-wave (km/s) = 5.64299 6.33202 5.99741
#
# Compressibility (1/GPa) = 0.03511995
#
# Stress axis : x y z
#
# Youngs Moduli (GPa) = 55.86943 74.81159 35.29691
#
# Poissons Ratio (x) = 0.54327 0.02252
# Poissons Ratio (y) = 0.40572 0.15314
# Poissons Ratio (z) = 0.03564 0.32458
#
# Static dielectric constant tensor:
#      x y z
#    x 1.651620 0.000000 0.000000 
#    y 0.000000 1.654600 0.000000 
#    z 0.000000 0.000000 1.672220 
# 
# From -- ./inp_files/16490.got.cif
#   From: 2010.05.17/outbox.cif.g08.bks.cpg/sg24_9_cif.got.tgz:16490.got - 2010.06.04 00:33:39.
