data_PCOD9333779
_publ_section_title
;
Structure prediction by ZEFSAII (Michael W. Deem and Ramdas Pophale) SiO2 
 PCOD9333779
Probable space group: I 21 21 21
;
_chemical_formula_sum "Si O2"
_cell_formula_units_Z 60
_cell_length_a 27.520814
_cell_length_b 18.047264
_cell_length_c 6.424089
_cell_angle_alpha 90.000000
_cell_angle_beta 90.000000
_cell_angle_gamma 90.000000
_cell_volume 3190.686946
_symmetry_space_group_name_H-M "I 21 21 21"
_symmetry_group_IT_number 24
_symmetry_cell_setting 'orthorhombic'
loop_
_space_group_symop_operation_xyz
x,y,z
-x,1/2-y,z
x,-y,1/2-z
1/2-x,y,-z
1/2+x,1/2+y,1/2+z
1/2-x,-y,1/2+z
1/2+x,1/2-y,-z
-x,1/2+y,1/2-z
loop_
_atom_site_type_symbol
_atom_site_label
_atom_site_fract_x
_atom_site_fract_y
_atom_site_fract_z
Si Si1 0.699217 0.550235 0.430020
Si Si2 0.551311 0.286615 0.093337
Si Si3 0.694904 0.708140 0.312703
Si Si4 0.750000 0.814464 0.000000
Si Si5 0.098696 0.080716 0.168457
Si Si6 0.637090 0.795612 0.628691
Si Si7 0.295018 0.582054 0.664740
Si Si8 0.395084 0.794893 0.013300
O O1 0.677133 0.500000 0.250000
O O2 0.750000 0.512601 0.500000
O O3 0.717474 0.628159 0.337641
O O4 0.653946 0.567907 0.582059
O O5 0.500000 0.250000 0.034345
O O6 0.557487 0.287156 0.343596
O O7 0.566715 0.367659 0.993605
O O8 0.590906 0.228847 0.004411
O O9 0.680620 0.744011 0.534699
O O10 0.724375 0.763938 0.170805
O O11 0.646044 0.693557 0.184835
O O12 0.716223 0.867497 0.865086
O O13 0.101880 0.134618 0.365587
O O14 0.080774 0.000000 0.250000
O O15 0.656326 0.877974 0.583136
O O16 0.622009 0.772252 0.862473
O O17 0.301438 0.500000 0.750000
O O18 0.250000 0.584637 0.500000
#
# Coordination Sequence:
#
# PCOD9333779 Si02
#       8
#     8   8   8   4   8   8   8   8
#     4  12  26  39  53  92 139 176 214 255 296 362
#     4  10  23  43  67  97 123 156 212 275 327 393
#     4  11  22  35  59  86 121 168 215 254 306 362
#     4  12  24  32  64  86 124 172 218 264 304 378
#     4  11  23  40  67  92 129 170 210 256 315 379
#     4  10  21  40  63  92 122 160 211 262 317 384
#     4  12  24  39  58  92 128 171 217 263 316 377
#     4  10  19  38  61  91 114 162 202 261 317 371
#
# _framework density 18.804728000000001
#
# number of rings (size 3 to 8) (size 9 to 14) (size 15 to 20)
#    0.000    1.067    7.333    1.200    4.667    2.133 
#    0.000    0.667    0.000    1.600    0.000    0.000 
#    0.000    0.000    0.000    0.000    0.000    0.000 
#
# Total GULP energy -167101.761929 kJ/mol
# GULP energy per Si atom -5570.058731 kJ/mol
# Density = 1.876193 g / cm^3
# Si number density = 18.804728 Si / 1000 Ang^3
#
#
#
# Elastic Constant Matrix: (Units=GPa)
#
#
# Indices 1 2 3 4 5 6 
#
# 1 81.8158 47.5321 30.8929 0.0000 0.0000 0.0000
# 2 47.5321 133.9963 37.2631 0.0000 0.0000 0.0000
# 3 30.8929 37.2631 91.5813 0.0000 0.0000 0.0000
# 4 0.0000 0.0000 0.0000 30.9456 0.0000 0.0000
# 5 0.0000 0.0000 0.0000 0.0000 22.1126 0.0000
# 6 0.0000 0.0000 0.0000 0.0000 0.0000 15.1939
#
#
#
# Elastic Compliance Matrix: (Units=1/GPa)
#
#
# Indices 1 2 3 4 5 6 
#
# 1 0.016364 -0.004815 -0.003561 0.000000 0.000000 0.000000
# 2 -0.004815 0.009832 -0.002376 0.000000 0.000000 0.000000
# 3 -0.003561 -0.002376 0.013087 0.000000 0.000000 0.000000
# 4 0.000000 0.000000 0.000000 0.032315 0.000000 0.000000
# 5 0.000000 0.000000 0.000000 0.000000 0.045223 0.000000
# 6 0.000000 0.000000 0.000000 0.000000 0.000000 0.065816
#
#
# Mechanical properties :
#
#
# Convention : Reuss Voigt Hill
#
# Bulk Modulus (GPa) = 56.24493 59.86328 58.05411
# Shear Modulus (GPa) = 23.80188 26.43076 25.11632
#
# Velocity S-wave (km/s) = 3.56158 3.75312 3.65860
# Velocity P-wave (km/s) = 6.84749 7.11930 6.98472
#
# Compressibility (1/GPa) = 0.01777938
#
# Stress axis : x y z
#
# Youngs Moduli (GPa) = 61.10856 101.71336 76.40934
#
# Poissons Ratio (x) = 0.48970 0.27211
# Poissons Ratio (y) = 0.29421 0.18157
# Poissons Ratio (z) = 0.21762 0.24170
#
# Static dielectric constant tensor:
#      x y z
#    x 1.729810 0.000000 0.000000 
#    y 0.000000 1.672180 0.000000 
#    z 0.000000 0.000000 1.777840 
# 
# From -- ./inp_files/7834.got.cif
#   From: 2010.05.17/outbox.cif.g08.bks.cpg/sg24_4_cif.got.tgz:7834.got - 2010.06.04 00:33:39.
