data_PCOD9333892
_publ_section_title
;
Structure prediction by ZEFSAII (Michael W. Deem and Ramdas Pophale) SiO2 
 PCOD9333892
Probable space group: I 21 21 21
;
_chemical_formula_sum "Si O2"
_cell_formula_units_Z 28
_cell_length_a 19.181725
_cell_length_b 5.075429
_cell_length_c 13.694922
_cell_angle_alpha 90.000000
_cell_angle_beta 90.000000
_cell_angle_gamma 90.000000
_cell_volume 1333.275751
_symmetry_space_group_name_H-M "I 21 21 21"
_symmetry_group_IT_number 24
_symmetry_cell_setting 'orthorhombic'
loop_
_space_group_symop_operation_xyz
x,y,z
-x,1/2-y,z
x,-y,1/2-z
1/2-x,y,-z
1/2+x,1/2+y,1/2+z
1/2-x,-y,1/2+z
1/2+x,1/2-y,-z
-x,1/2+y,1/2-z
loop_
_atom_site_type_symbol
_atom_site_label
_atom_site_fract_x
_atom_site_fract_y
_atom_site_fract_z
Si Si1 0.354053 0.349633 0.146468
Si Si2 0.801333 0.650635 0.352811
Si Si3 0.000000 0.250000 0.813605
Si Si4 0.170623 0.343572 0.463312
O O1 0.340857 0.500000 0.250000
O O2 0.282343 0.186841 0.129692
O O3 0.424723 0.179442 0.141835
O O4 0.367808 0.556946 0.059374
O O5 0.807933 0.500000 0.250000
O O6 0.832462 0.939677 0.375958
O O7 0.839395 0.449884 0.426177
O O8 0.019154 0.500000 0.750000
O O9 0.250000 0.351583 0.500000
#
# Coordination Sequence:
#
# PCOD9333892 Si02
#       4
#     8   8   4   8
#     4  10  21  36  55  81 117 149 182 223 272 334
#     4  11  20  33  52  76 106 140 176 225 275 316
#     4  10  22  36  54  80 114 158 192 214 262 338
#     4  10  20  32  50  76 105 139 178 219 270 325
#
# _framework density 21.000904999999999
#
# number of rings (size 3 to 8) (size 9 to 14) (size 15 to 20)
#    0.000    1.714    0.000    7.714    0.000    9.143 
#    0.000    0.000    0.000    0.000    0.000    4.000 
#    0.000    2.286    0.000    0.000    0.000    0.000 
#
# Total GULP energy -77944.569829 kJ/mol
# GULP energy per Si atom -5567.469273 kJ/mol
# Density = 2.095311 g / cm^3
# Si number density = 21.000905 Si / 1000 Ang^3
#
#
#
# Elastic Constant Matrix: (Units=GPa)
#
#
# Indices 1 2 3 4 5 6 
#
# 1 34.3102 4.4456 8.3171 0.0000 0.0000 0.0000
# 2 4.4456 103.0514 20.3296 0.0000 0.0000 0.0000
# 3 8.3171 20.3296 80.9229 0.0000 0.0000 0.0000
# 4 0.0000 0.0000 0.0000 32.4368 0.0000 0.0000
# 5 0.0000 0.0000 0.0000 0.0000 4.4279 0.0000
# 6 0.0000 0.0000 0.0000 0.0000 0.0000 20.1762
#
#
#
# Elastic Compliance Matrix: (Units=1/GPa)
#
#
# Indices 1 2 3 4 5 6 
#
# 1 0.029941 -0.000720 -0.002896 0.000000 0.000000 0.000000
# 2 -0.000720 0.010227 -0.002495 0.000000 0.000000 0.000000
# 3 -0.002896 -0.002495 0.013282 0.000000 0.000000 0.000000
# 4 0.000000 0.000000 0.000000 0.030829 0.000000 0.000000
# 5 0.000000 0.000000 0.000000 0.000000 0.225842 0.000000
# 6 0.000000 0.000000 0.000000 0.000000 0.000000 0.049563
#
#
# Mechanical properties :
#
#
# Convention : Reuss Voigt Hill
#
# Bulk Modulus (GPa) = 24.25612 31.60767 27.93189
# Shear Modulus (GPa) = 12.96509 23.75432 18.35971
#
# Velocity S-wave (km/s) = 2.48737 3.36685 2.95995
# Velocity P-wave (km/s) = 4.45246 5.49522 5.00110
#
# Compressibility (1/GPa) = 0.04122671
#
# Stress axis : x y z
#
# Youngs Moduli (GPa) = 33.39866 97.77823 75.28996
#
# Poissons Ratio (x) = 0.07043 0.21807
# Poissons Ratio (y) = 0.02406 0.18787
# Poissons Ratio (z) = 0.09673 0.24398
#
# Static dielectric constant tensor:
#      x y z
#    x 1.774540 0.000000 0.000000 
#    y 0.000000 1.815860 0.000000 
#    z 0.000000 0.000000 1.927000 
# 
# From -- ./inp_files/3255.got.cif
#   From: 2010.05.17/outbox.cif.g08.bks.cpg/sg24_2_cif.got.tgz:3255.got - 2010.06.04 00:33:39.
