data_PCOD9333277
_publ_section_title
;
Structure prediction by ZEFSAII (Michael W. Deem and Ramdas Pophale) SiO2 
 PCOD9333277
Probable space group: I 21 21 21
;
_chemical_formula_sum "Si O2"
_cell_formula_units_Z 24
_cell_length_a 7.914795
_cell_length_b 12.927843
_cell_length_c 8.995424
_cell_angle_alpha 90.000000
_cell_angle_beta 90.000000
_cell_angle_gamma 90.000000
_cell_volume 920.422822
_symmetry_space_group_name_H-M "I 21 21 21"
_symmetry_group_IT_number 24
_symmetry_cell_setting 'orthorhombic'
loop_
_space_group_symop_operation_xyz
x,y,z
-x,1/2-y,z
x,-y,1/2-z
1/2-x,y,-z
1/2+x,1/2+y,1/2+z
1/2-x,-y,1/2+z
1/2+x,1/2-y,-z
-x,1/2+y,1/2-z
loop_
_atom_site_type_symbol
_atom_site_label
_atom_site_fract_x
_atom_site_fract_y
_atom_site_fract_z
Si Si1 0.433173 0.633849 0.922963
Si Si2 0.377580 0.102502 0.303120
Si Si3 0.729492 0.180271 0.174959
O O1 0.500000 0.750000 0.948937
O O2 0.388786 0.622890 0.750179
O O3 0.250000 0.618784 0.000000
O O4 0.567154 0.578655 0.027452
O O5 0.556259 0.120928 0.215218
O O6 0.283520 0.208763 0.260474
O O7 0.286722 0.000000 0.250000
O O8 0.750000 0.193256 0.000000
#
# Coordination Sequence:
#
# PCOD9333277 Si02
#       3
#     8   8   8
#     4  10  18  38  66  84 119 167 206 244 313 369
#     4  10  21  41  61  90 121 161 212 256 307 376
#     4  10  22  39  62  88 125 162 206 261 313 368
#
# _framework density 26.074973
#
# number of rings (size 3 to 8) (size 9 to 14) (size 15 to 20)
#    0.000    2.000    6.667    0.000    4.667    4.000 
#    6.000    0.000    0.000    0.000    0.000    0.000 
#    0.000    0.000    0.000    0.000    0.000    0.000 
#
# Total GULP energy -67014.705045 kJ/mol
# GULP energy per Si atom -5584.558754 kJ/mol
# Density = 2.601563 g / cm^3
# Si number density = 26.074973 Si / 1000 Ang^3
#
#
#
# Elastic Constant Matrix: (Units=GPa)
#
#
# Indices 1 2 3 4 5 6 
#
# 1 126.6283 9.6472 49.9848 0.0000 -0.0001 0.0000
# 2 9.6472 108.6919 22.8215 0.0007 0.0000 -0.0001
# 3 49.9848 22.8215 221.1791 0.0014 0.0001 -0.0002
# 4 0.0000 0.0007 0.0014 5.4361 0.0002 -0.0001
# 5 -0.0001 0.0000 0.0001 0.0002 20.9741 0.0000
# 6 0.0000 -0.0001 -0.0002 -0.0001 0.0000 3.5429
#
#
#
# Elastic Compliance Matrix: (Units=1/GPa)
#
#
# Indices 1 2 3 4 5 6 
#
# 1 0.008685 -0.000367 -0.001925 0.000001 0.000000 0.000000
# 2 -0.000367 0.009420 -0.000889 -0.000001 0.000000 0.000000
# 3 -0.001925 -0.000889 0.005048 -0.000001 0.000000 0.000000
# 4 0.000001 -0.000001 -0.000001 0.183956 -0.000002 0.000006
# 5 0.000000 0.000000 0.000000 -0.000002 0.047678 0.000001
# 6 0.000000 0.000000 0.000000 0.000006 0.000001 0.282258
#
#
# Mechanical properties :
#
#
# Convention : Reuss Voigt Hill
#
# Bulk Modulus (GPa) = 59.55522 69.04515 64.30019
# Shear Modulus (GPa) = 9.10742 30.92699 20.01721
#
# Velocity S-wave (km/s) = 1.87093 3.44769 2.77371
# Velocity P-wave (km/s) = 5.24945 6.51043 5.91365
#
# Compressibility (1/GPa) = 0.01679114
#
# Stress axis : x y z
#
# Youngs Moduli (GPa) = 115.14260 106.16239 198.09967
#
# Poissons Ratio (x) = 0.03893 0.38132
# Poissons Ratio (y) = 0.04222 0.17612
# Poissons Ratio (z) = 0.22164 0.09438
#
# Static dielectric constant tensor:
#      x y z
#    x 2.066590 0.000000 0.000000 
#    y 0.000000 2.045010 0.000000 
#    z 0.000000 0.000000 2.097120 
# 
# From -- ./inp_files/8517.got.cif
#   From: 2010.05.17/outbox.cif.g08.bks.cpg/sg24_5_cif.got.tgz:8517.got - 2010.06.04 00:33:39.
