data_PCOD9333570
_publ_section_title
;
Structure prediction by ZEFSAII (Michael W. Deem and Ramdas Pophale) SiO2 
 PCOD9333570
Probable space group: I 21 21 21
;
_chemical_formula_sum "Si O2"
_cell_formula_units_Z 48
_cell_length_a 11.316298
_cell_length_b 13.654632
_cell_length_c 14.401618
_cell_angle_alpha 90.000000
_cell_angle_beta 90.000000
_cell_angle_gamma 90.000000
_cell_volume 2225.336354
_symmetry_space_group_name_H-M "I 21 21 21"
_symmetry_group_IT_number 24
_symmetry_cell_setting 'orthorhombic'
loop_
_space_group_symop_operation_xyz
x,y,z
-x,1/2-y,z
x,-y,1/2-z
1/2-x,y,-z
1/2+x,1/2+y,1/2+z
1/2-x,-y,1/2+z
1/2+x,1/2-y,-z
-x,1/2+y,1/2-z
loop_
_atom_site_type_symbol
_atom_site_label
_atom_site_fract_x
_atom_site_fract_y
_atom_site_fract_z
Si Si1 0.354479 0.610843 0.787984
Si Si2 0.499367 0.463418 0.143987
Si Si3 0.387081 0.543116 0.979634
Si Si4 0.375290 0.712506 0.264015
Si Si5 0.002971 0.355061 0.108019
Si Si6 0.753134 0.585299 0.672067
O O1 0.341397 0.500000 0.750000
O O2 0.414273 0.608291 0.889221
O O3 0.223947 0.655047 0.793180
O O4 0.432551 0.659260 0.707671
O O5 0.505492 0.500000 0.250000
O O6 0.419386 0.364571 0.155340
O O7 0.633621 0.445635 0.111233
O O8 0.451159 0.547763 0.077653
O O9 0.420822 0.433462 0.947345
O O10 0.250000 0.551753 0.000000
O O11 0.500000 0.750000 0.222632
O O12 0.303306 0.810501 0.291473
O O13 0.872178 0.396536 0.124728
O O14 0.000000 0.250000 0.060210
O O15 0.736358 0.500000 0.750000
#
# Coordination Sequence:
#
# PCOD9333570 Si02
#       6
#     8   8   8   8   8   8
#     4  10  20  38  63  90 129 168 213 260 316 395
#     4  10  21  39  61  94 131 168 210 267 330 382
#     4  11  23  37  62  96 126 162 219 261 312 384
#     4  10  19  34  62  93 127 169 209 259 323 389
#     4  11  22  40  64  93 130 167 210 266 330 390
#     4  10  21  37  61  94 125 168 210 258 331 386
#
# _framework density 21.569773000000001
#
# number of rings (size 3 to 8) (size 9 to 14) (size 15 to 20)
#    0.000    1.667    1.667    5.000    0.000    3.333 
#    0.000    0.000    0.000   12.000   17.333    0.000 
#    0.000    0.000    0.000    0.000    0.000    0.000 
#
# Total GULP energy -133786.498160 kJ/mol
# GULP energy per Si atom -5574.437423 kJ/mol
# Density = 2.152068 g / cm^3
# Si number density = 21.569773 Si / 1000 Ang^3
#
#
#
# Elastic Constant Matrix: (Units=GPa)
#
#
# Indices 1 2 3 4 5 6 
#
# 1 69.1043 -2.6582 22.6216 0.0000 0.0000 0.0000
# 2 -2.6582 40.5713 -7.8626 0.0000 0.0000 0.0000
# 3 22.6216 -7.8626 80.1607 0.0000 0.0000 0.0000
# 4 0.0000 0.0000 0.0000 18.2116 0.0000 0.0000
# 5 0.0000 0.0000 0.0000 0.0000 9.1047 0.0000
# 6 0.0000 0.0000 0.0000 0.0000 0.0000 43.5156
#
#
#
# Elastic Compliance Matrix: (Units=1/GPa)
#
#
# Indices 1 2 3 4 5 6 
#
# 1 0.015945 0.000176 -0.004482 0.000000 0.000000 0.000000
# 2 0.000176 0.025128 0.002415 0.000000 0.000000 0.000000
# 3 -0.004482 0.002415 0.013977 0.000000 0.000000 0.000000
# 4 0.000000 0.000000 0.000000 0.054910 0.000000 0.000000
# 5 0.000000 0.000000 0.000000 0.000000 0.109833 0.000000
# 6 0.000000 0.000000 0.000000 0.000000 0.000000 0.022980
#
#
# Mechanical properties :
#
#
# Convention : Reuss Voigt Hill
#
# Bulk Modulus (GPa) = 19.50597 23.78198 21.64397
# Shear Modulus (GPa) = 18.96493 26.01542 22.49018
#
# Velocity S-wave (km/s) = 2.96841 3.47667 3.23254
# Velocity P-wave (km/s) = 4.56195 5.21209 4.89782
#
# Compressibility (1/GPa) = 0.05126637
#
# Stress axis : x y z
#
# Youngs Moduli (GPa) = 62.71564 39.79700 71.54725
#
# Poissons Ratio (x) = -0.00701 0.32071
# Poissons Ratio (y) = -0.01104 -0.17278
# Poissons Ratio (z) = 0.28112 -0.09611
#
# Static dielectric constant tensor:
#      x y z
#    x 1.769080 0.000000 0.000000 
#    y 0.000000 1.816490 0.000000 
#    z 0.000000 0.000000 1.847400 
# 
# From -- ./inp_files/20723.got.cif
#   From: 2010.05.17/outbox.cif.g08.bks.cpg/sg24_11_cif.got.tgz:20723.got - 2010.06.04 00:33:39.
