data_PCOD9333513
_publ_section_title
;
Structure prediction by ZEFSAII (Michael W. Deem and Ramdas Pophale) SiO2 
 PCOD9333513
Probable space group: I 21 21 21
;
_chemical_formula_sum "Si O2"
_cell_formula_units_Z 64
_cell_length_a 15.128827
_cell_length_b 8.999218
_cell_length_c 23.690374
_cell_angle_alpha 90.000000
_cell_angle_beta 90.000000
_cell_angle_gamma 90.000000
_cell_volume 3225.387854
_symmetry_space_group_name_H-M "I 21 21 21"
_symmetry_group_IT_number 24
_symmetry_cell_setting 'orthorhombic'
loop_
_space_group_symop_operation_xyz
x,y,z
-x,1/2-y,z
x,-y,1/2-z
1/2-x,y,-z
1/2+x,1/2+y,1/2+z
1/2-x,-y,1/2+z
1/2+x,1/2-y,-z
-x,1/2+y,1/2-z
loop_
_atom_site_type_symbol
_atom_site_label
_atom_site_fract_x
_atom_site_fract_y
_atom_site_fract_z
Si Si1 0.218043 0.158520 0.395449
Si Si2 0.402457 0.323720 0.129509
Si Si3 0.007688 0.575477 0.811489
Si Si4 0.396911 0.601591 0.942589
Si Si5 0.821254 0.459223 0.816177
Si Si6 0.582234 0.519614 0.534386
Si Si7 0.653103 0.809383 0.500585
Si Si8 0.591415 0.301141 0.443937
O O1 0.152177 0.300588 0.395230
O O2 0.313724 0.214522 0.415947
O O3 0.240666 0.049824 0.343735
O O4 0.170420 0.050837 0.440045
O O5 0.500000 0.250000 0.135311
O O6 0.415204 0.490780 0.154050
O O7 0.335520 0.212911 0.164107
O O8 0.377192 0.333321 0.063730
O O9 0.012942 0.500000 0.750000
O O10 0.000000 0.750000 0.800442
O O11 0.912928 0.532187 0.837997
O O12 0.496951 0.544702 0.932913
O O13 0.342814 0.459199 0.963169
O O14 0.403907 0.702657 0.998793
O O15 0.818827 0.500000 0.750000
O O16 0.590283 0.694343 0.532067
O O17 0.577175 0.465655 0.469269
O O18 0.750000 0.740371 0.500000
O O19 0.500000 0.250000 0.414785
#
# Coordination Sequence:
#
# PCOD9333513 Si02
#       8
#     8   8   8   8   8   8   8   8
#     4  11  20  35  56  79 110 152 194 240 296 354
#     4  10  21  37  55  79 113 155 198 239 294 361
#     4  10  20  36  57  80 111 151 196 246 298 356
#     4  10  21  34  50  79 116 147 190 241 286 348
#     4  10  21  37  56  81 110 145 198 255 302 355
#     4  10  19  34  54  76 109 154 193 234 291 352
#     4  12  22  34  52  81 120 157 193 238 296 368
#     4   9  18  31  48  75 109 143 183 229 279 346
#
# _framework density 19.842573999999999
#
# number of rings (size 3 to 8) (size 9 to 14) (size 15 to 20)
#    0.000    1.750    0.000    8.625    0.000    5.500 
#    0.000    2.500    0.000    0.000    0.000    7.000 
#    0.000    1.000    0.000    0.000    0.000    0.000 
#
# Total GULP energy -178458.810364 kJ/mol
# GULP energy per Si atom -5576.837824 kJ/mol
# Density = 1.979741 g / cm^3
# Si number density = 19.842574 Si / 1000 Ang^3
#
#
#
# Elastic Constant Matrix: (Units=GPa)
#
#
# Indices 1 2 3 4 5 6 
#
# 1 107.9500 36.3833 32.9448 0.0000 0.0000 0.0000
# 2 36.3833 145.3800 36.0475 0.0000 0.0000 0.0000
# 3 32.9448 36.0475 75.7781 0.0000 0.0000 0.0000
# 4 0.0000 0.0000 0.0000 17.7674 0.0000 0.0000
# 5 0.0000 0.0000 0.0000 0.0000 19.1256 0.0000
# 6 0.0000 0.0000 0.0000 0.0000 0.0000 31.7151
#
#
#
# Elastic Compliance Matrix: (Units=1/GPa)
#
#
# Indices 1 2 3 4 5 6 
#
# 1 0.011076 -0.001789 -0.003964 0.000000 0.000000 0.000000
# 2 -0.001789 0.008087 -0.003069 0.000000 0.000000 0.000000
# 3 -0.003964 -0.003069 0.016380 0.000000 0.000000 0.000000
# 4 0.000000 0.000000 0.000000 0.056283 0.000000 0.000000
# 5 0.000000 0.000000 0.000000 0.000000 0.052286 0.000000
# 6 0.000000 0.000000 0.000000 0.000000 0.000000 0.031531
#
#
# Mechanical properties :
#
#
# Convention : Reuss Voigt Hill
#
# Bulk Modulus (GPa) = 55.87174 59.98436 57.92805
# Shear Modulus (GPa) = 25.09347 28.63712 26.86529
#
# Velocity S-wave (km/s) = 3.56002 3.80309 3.68356
# Velocity P-wave (km/s) = 6.71691 7.04134 6.88104
#
# Compressibility (1/GPa) = 0.01789813
#
# Stress axis : x y z
#
# Youngs Moduli (GPa) = 90.28191 123.65068 61.04974
#
# Poissons Ratio (x) = 0.22121 0.24203
# Poissons Ratio (y) = 0.16152 0.18738
# Poissons Ratio (z) = 0.35792 0.37952
#
# Static dielectric constant tensor:
#      x y z
#    x 1.758260 0.000000 0.000000 
#    y 0.000000 1.844420 0.000000 
#    z 0.000000 0.000000 1.720010 
# 
# From -- ./inp_files/35876.got.cif
#   From: 2010.05.17/outbox.cif.g08.bks.cpg/sg24_18_cif.got.tgz:35876.got - 2010.06.04 00:33:39.
