data_PCOD9333970
_publ_section_title
;
Structure prediction by ZEFSAII (Michael W. Deem and Ramdas Pophale) SiO2 
 PCOD9333970
Probable space group: I 21 21 21
;
_chemical_formula_sum "Si O2"
_cell_formula_units_Z 48
_cell_length_a 5.516248
_cell_length_b 28.072784
_cell_length_c 13.629719
_cell_angle_alpha 90.000000
_cell_angle_beta 90.000000
_cell_angle_gamma 90.000000
_cell_volume 2110.649743
_symmetry_space_group_name_H-M "I 21 21 21"
_symmetry_group_IT_number 24
_symmetry_cell_setting 'orthorhombic'
loop_
_space_group_symop_operation_xyz
x,y,z
-x,1/2-y,z
x,-y,1/2-z
1/2-x,y,-z
1/2+x,1/2+y,1/2+z
1/2-x,-y,1/2+z
1/2+x,1/2-y,-z
-x,1/2+y,1/2-z
loop_
_atom_site_type_symbol
_atom_site_label
_atom_site_fract_x
_atom_site_fract_y
_atom_site_fract_z
Si Si1 0.499102 0.434776 0.537919
Si Si2 0.269473 0.693626 0.608851
Si Si3 0.248345 0.762276 0.196655
Si Si4 0.993517 0.954725 0.464320
Si Si5 0.275242 0.149952 0.175136
Si Si6 0.844509 0.449117 0.244730
O O1 0.250000 0.412696 0.500000
O O2 0.497911 0.490086 0.499355
O O3 0.520844 0.437584 0.654802
O O4 0.750000 0.412897 0.500000
O O5 0.250000 0.715990 0.500000
O O6 0.261184 0.731301 0.699790
O O7 0.517884 0.662561 0.621327
O O8 0.019154 0.664744 0.619920
O O9 0.500000 0.750000 0.146590
O O10 0.256376 0.816659 0.229252
O O11 0.000000 0.750000 0.143675
O O12 0.250000 0.933632 0.500000
O O13 0.979359 0.956254 0.347391
O O14 0.750000 0.930578 0.500000
O O15 0.305140 0.096312 0.211911
O O16 0.709242 0.500000 0.250000
#
# Coordination Sequence:
#
# PCOD9333970 Si02
#       6
#     8   8   8   8   8   8
#     4   9  19  36  56  75  96 133 188 239 282 333
#     4  10  20  34  52  77 113 152 190 232 277 335
#     4   8  16  30  48  70 102 139 181 225 269 325
#     4   9  19  34  51  74 104 140 182 225 278 340
#     4  10  21  33  49  76 105 143 192 227 272 336
#     4  10  22  39  58  80 113 153 193 246 299 339
#
# _framework density 22.741811999999999
#
# number of rings (size 3 to 8) (size 9 to 14) (size 15 to 20)
#    0.000    2.667    0.000    0.500    0.000   12.000 
#    0.000   10.833    0.000    0.000    0.000    0.000 
#    0.000   24.000    0.000    0.000    0.000    0.000 
#
# Total GULP energy -133835.937526 kJ/mol
# GULP energy per Si atom -5576.497397 kJ/mol
# Density = 2.269005 g / cm^3
# Si number density = 22.741812 Si / 1000 Ang^3
#
#
#
# Elastic Constant Matrix: (Units=GPa)
#
#
# Indices 1 2 3 4 5 6 
#
# 1 207.5491 11.5470 29.9989 0.0000 0.0000 0.0000
# 2 11.5470 88.9769 -8.1906 0.0000 0.0000 0.0000
# 3 29.9989 -8.1906 69.3483 0.0001 0.0000 0.0000
# 4 0.0000 0.0000 0.0001 8.2796 0.0000 0.0000
# 5 0.0000 0.0000 0.0000 0.0000 2.8858 0.0000
# 6 0.0000 0.0000 0.0000 0.0000 0.0000 25.8106
#
#
#
# Elastic Compliance Matrix: (Units=1/GPa)
#
#
# Indices 1 2 3 4 5 6 
#
# 1 0.005209 -0.000893 -0.002359 0.000000 0.000000 0.000000
# 2 -0.000893 0.011516 0.001746 0.000000 0.000000 0.000000
# 3 -0.002359 0.001746 0.015647 0.000000 0.000000 0.000000
# 4 0.000000 0.000000 0.000000 0.120778 0.000000 0.000000
# 5 0.000000 0.000000 0.000000 0.000000 0.346521 0.000000
# 6 0.000000 0.000000 0.000000 0.000000 0.000000 0.038744
#
#
# Mechanical properties :
#
#
# Convention : Reuss Voigt Hill
#
# Bulk Modulus (GPa) = 34.05987 48.06502 41.06245
# Shear Modulus (GPa) = 9.07094 29.56315 19.31704
#
# Velocity S-wave (km/s) = 1.99933 3.60939 2.91762
# Velocity P-wave (km/s) = 4.50988 6.20896 5.42634
#
# Compressibility (1/GPa) = 0.02936007
#
# Stress axis : x y z
#
# Youngs Moduli (GPa) = 191.98475 86.83925 63.91183
#
# Poissons Ratio (x) = 0.07756 0.15075
# Poissons Ratio (y) = 0.17146 -0.11162
# Poissons Ratio (z) = 0.45283 -0.15166
#
# Static dielectric constant tensor:
#      x y z
#    x 1.916000 0.000000 0.000000 
#    y 0.000000 1.897000 0.000000 
#    z 0.000000 0.000000 1.827310 
# 
# From -- ./inp_files/23904.got.cif
#   From: 2010.05.17/outbox.cif.g08.bks.cpg/sg24_12_cif.got.tgz:23904.got - 2010.06.04 00:33:39.
