data_PCOD9333849
_publ_section_title
;
Structure prediction by ZEFSAII (Michael W. Deem and Ramdas Pophale) SiO2 
 PCOD9333849
Probable space group: I 21 21 21
;
_chemical_formula_sum "Si O2"
_cell_formula_units_Z 40
_cell_length_a 11.793794
_cell_length_b 14.968747
_cell_length_c 10.711804
_cell_angle_alpha 90.000000
_cell_angle_beta 90.000000
_cell_angle_gamma 90.000000
_cell_volume 1891.043867
_symmetry_space_group_name_H-M "I 21 21 21"
_symmetry_group_IT_number 24
_symmetry_cell_setting 'orthorhombic'
loop_
_space_group_symop_operation_xyz
x,y,z
-x,1/2-y,z
x,-y,1/2-z
1/2-x,y,-z
1/2+x,1/2+y,1/2+z
1/2-x,-y,1/2+z
1/2+x,1/2-y,-z
-x,1/2+y,1/2-z
loop_
_atom_site_type_symbol
_atom_site_label
_atom_site_fract_x
_atom_site_fract_y
_atom_site_fract_z
Si Si1 0.027628 0.000000 0.250000
Si Si2 0.850322 0.187876 0.757110
Si Si3 0.500000 0.750000 0.453214
Si Si4 0.384263 0.065109 0.500473
Si Si5 0.514677 0.000000 0.250000
Si Si6 0.413327 0.323759 0.803761
Si Si7 0.000000 0.750000 0.965054
O O1 0.946371 0.083336 0.250759
O O2 0.096484 0.002413 0.378643
O O3 0.716820 0.191669 0.775054
O O4 0.898818 0.261529 0.855245
O O5 0.896186 0.217337 0.623288
O O6 0.907045 0.088755 0.777225
O O7 0.446868 0.678726 0.549066
O O8 0.250000 0.081551 0.500000
O O9 0.449714 0.158922 0.521466
O O10 0.437293 0.023635 0.372109
O O11 0.500000 0.250000 0.752623
#
# Coordination Sequence:
#
# PCOD9333849 Si02
#       7
#     4   8   4   8   4   8   4
#     4  12  26  44  64 104 132 177 227 280 348 410
#     4  10  19  42  65  94 133 175 232 282 337 415
#     4   9  20  35  62  96 130 178 222 270 346 402
#     4  11  25  44  67  97 141 175 231 284 346 418
#     4  10  22  44  70 100 128 187 233 282 352 416
#     4  10  24  39  64  98 134 177 225 286 342 402
#     4   9  24  39  68  96 124 186 220 278 352 408
#
# _framework density 21.152336999999999
#
# number of rings (size 3 to 8) (size 9 to 14) (size 15 to 20)
#    0.600    1.200    0.000    3.000    4.200    0.000 
#    7.200    7.000    0.000    0.000    0.000    0.000 
#    0.000    0.000    0.000    0.000    0.000    0.000 
#
# Total GULP energy -111354.058358 kJ/mol
# GULP energy per Si atom -5567.702918 kJ/mol
# Density = 2.110419 g / cm^3
# Si number density = 21.152337 Si / 1000 Ang^3
#
#
#
# Elastic Constant Matrix: (Units=GPa)
#
#
# Indices 1 2 3 4 5 6 
#
# 1 195.7535 62.9821 62.6874 0.0000 0.0000 0.0000
# 2 62.9821 78.4738 23.7673 0.0000 0.0000 0.0000
# 3 62.6874 23.7673 103.2481 0.0000 0.0000 0.0000
# 4 0.0000 0.0000 0.0000 41.2852 0.0000 0.0000
# 5 0.0000 0.0000 0.0000 0.0000 16.4561 0.0000
# 6 0.0000 0.0000 0.0000 0.0000 0.0000 24.7981
#
#
#
# Elastic Compliance Matrix: (Units=1/GPa)
#
#
# Indices 1 2 3 4 5 6 
#
# 1 0.007974 -0.005303 -0.003621 0.000000 0.000000 0.000000
# 2 -0.005303 0.017225 -0.000745 0.000000 0.000000 0.000000
# 3 -0.003621 -0.000745 0.012055 0.000000 0.000000 0.000000
# 4 0.000000 0.000000 0.000000 0.024222 0.000000 0.000000
# 5 0.000000 0.000000 0.000000 0.000000 0.060768 0.000000
# 6 0.000000 0.000000 0.000000 0.000000 0.000000 0.040326
#
#
# Mechanical properties :
#
#
# Convention : Reuss Voigt Hill
#
# Bulk Modulus (GPa) = 55.81589 75.14989 65.48289
# Shear Modulus (GPa) = 26.61257 31.71045 29.16151
#
# Velocity S-wave (km/s) = 3.55087 3.87608 3.71704
# Velocity P-wave (km/s) = 6.57696 7.45903 7.03184
#
# Compressibility (1/GPa) = 0.01791605
#
# Stress axis : x y z
#
# Youngs Moduli (GPa) = 125.40264 58.05421 82.95090
#
# Poissons Ratio (x) = 0.30789 0.30035
# Poissons Ratio (y) = 0.66507 0.06181
# Poissons Ratio (z) = 0.45406 0.04326
#
# Static dielectric constant tensor:
#      x y z
#    x 1.688130 0.000000 0.000000 
#    y 0.000000 1.728940 0.000000 
#    z 0.000000 0.000000 1.870330 
# 
# From -- ./inp_files/19508.got.cif
#   From: 2010.05.17/outbox.cif.g08.bks.cpg/sg24_10_cif.got.tgz:19508.got - 2010.06.04 00:33:39.
