data_PCOD9333736
_publ_section_title
;
Structure prediction by ZEFSAII (Michael W. Deem and Ramdas Pophale) SiO2 
 PCOD9333736
Probable space group: I 21 21 21
;
_chemical_formula_sum "Si O2"
_cell_formula_units_Z 60
_cell_length_a 18.375833
_cell_length_b 5.303205
_cell_length_c 27.461858
_cell_angle_alpha 90.000000
_cell_angle_beta 90.000000
_cell_angle_gamma 90.000000
_cell_volume 2676.180291
_symmetry_space_group_name_H-M "I 21 21 21"
_symmetry_group_IT_number 24
_symmetry_cell_setting 'orthorhombic'
loop_
_space_group_symop_operation_xyz
x,y,z
-x,1/2-y,z
x,-y,1/2-z
1/2-x,y,-z
1/2+x,1/2+y,1/2+z
1/2-x,-y,1/2+z
1/2+x,1/2-y,-z
-x,1/2+y,1/2-z
loop_
_atom_site_type_symbol
_atom_site_label
_atom_site_fract_x
_atom_site_fract_y
_atom_site_fract_z
Si Si1 0.089359 0.498364 0.692622
Si Si2 0.596887 0.401577 0.939310
Si Si3 0.000000 0.250000 0.133477
Si Si4 0.421447 0.593973 0.803189
Si Si5 0.105976 0.011099 0.545883
Si Si6 0.573785 0.502084 0.348492
Si Si7 0.299980 0.487352 0.048673
Si Si8 0.665796 0.123610 0.602082
O O1 0.057643 0.999802 0.594315
O O2 0.116346 0.245470 0.667539
O O3 0.002307 0.500312 0.680833
O O4 0.116529 0.750556 0.667357
O O5 0.530835 0.458479 0.902585
O O6 0.654631 0.620382 0.928885
O O7 0.624384 0.120558 0.923486
O O8 0.571550 0.435860 0.994392
O O9 0.061238 0.334058 0.169661
O O10 0.500000 0.750000 0.800273
O O11 0.397742 0.500000 0.750000
O O12 0.363299 0.692251 0.843315
O O13 0.165886 0.790172 0.552237
O O14 0.141002 0.289284 0.543815
O O15 0.399448 0.500000 0.250000
O O16 0.249007 0.546513 0.094789
O O17 0.250000 0.492460 0.000000
#
# Coordination Sequence:
#
# PCOD9333736 Si02
#       8
#     8   8   4   8   8   8   8   8
#     4  10  19  37  61  83 116 158 206 236 298 363
#     4  11  21  37  56  88 120 159 187 240 294 357
#     4  10  22  34  56  86 126 150 194 236 304 362
#     4  11  21  38  61  88 116 150 194 248 303 368
#     4  12  23  37  60  89 124 156 207 246 301 346
#     4  10  20  33  55  89 118 150 198 251 296 349
#     4  12  22  40  61  84 115 162 207 249 284 354
#     4  11  23  38  62  85 116 150 202 243 292 353
#
# _framework density 22.420016
#
# number of rings (size 3 to 8) (size 9 to 14) (size 15 to 20)
#    0.000    1.067    4.667    4.000    0.000    1.067 
#    0.000    4.000    0.000    6.400    0.000    0.000 
#    0.000    0.000    0.000    0.000    0.000    0.000 
#
# Total GULP energy -167210.983858 kJ/mol
# GULP energy per Si atom -5573.699462 kJ/mol
# Density = 2.236899 g / cm^3
# Si number density = 22.420016 Si / 1000 Ang^3
#
#
#
# Elastic Constant Matrix: (Units=GPa)
#
#
# Indices 1 2 3 4 5 6 
#
# 1 16.7157 -2.6127 4.2916 0.0000 0.0000 0.0000
# 2 -2.6127 135.6532 17.6071 0.0000 0.0000 0.0000
# 3 4.2916 17.6071 183.5345 0.0000 0.0000 0.0000
# 4 0.0000 0.0000 0.0000 25.1589 0.0000 0.0000
# 5 0.0000 0.0000 0.0000 0.0000 24.4137 0.0000
# 6 0.0000 0.0000 0.0000 0.0000 0.0000 18.2120
#
#
#
# Elastic Compliance Matrix: (Units=1/GPa)
#
#
# Indices 1 2 3 4 5 6 
#
# 1 0.060434 0.001364 -0.001544 0.000000 0.000000 0.000000
# 2 0.001364 0.007495 -0.000751 0.000000 0.000000 0.000000
# 3 -0.001544 -0.000751 0.005557 0.000000 0.000000 0.000000
# 4 0.000000 0.000000 0.000000 0.039747 0.000000 0.000000
# 5 0.000000 0.000000 0.000000 0.000000 0.040961 0.000000
# 6 0.000000 0.000000 0.000000 0.000000 0.000000 0.054909
#
#
# Mechanical properties :
#
#
# Convention : Reuss Voigt Hill
#
# Bulk Modulus (GPa) = 13.96169 41.60838 27.78504
# Shear Modulus (GPa) = 21.29122 34.66476 27.97799
#
# Velocity S-wave (km/s) = 3.08499 3.93638 3.53640
# Velocity P-wave (km/s) = 4.35090 6.26570 5.39395
#
# Compressibility (1/GPa) = 0.07162454
#
# Stress axis : x y z
#
# Youngs Moduli (GPa) = 16.54710 133.41360 179.96256
#
# Poissons Ratio (x) = -0.18202 0.27786
# Poissons Ratio (y) = -0.02258 0.13515
# Poissons Ratio (z) = 0.02555 0.10019
#
# Static dielectric constant tensor:
#      x y z
#    x 1.899770 0.000000 0.000000 
#    y 0.000000 1.838040 0.000000 
#    z 0.000000 0.000000 1.825900 
# 
# From -- ./inp_files/36090.got.cif
#   From: 2010.05.17/outbox.cif.g08.bks.cpg/sg24_19_cif.got.tgz:36090.got - 2010.06.04 00:33:39.
