data_PCOD9333452
_publ_section_title
;
Structure prediction by ZEFSAII (Michael W. Deem and Ramdas Pophale) SiO2 
 PCOD9333452
Probable space group: I 21 21 21
;
_chemical_formula_sum "Si O2"
_cell_formula_units_Z 64
_cell_length_a 12.284680
_cell_length_b 7.753420
_cell_length_c 37.042224
_cell_angle_alpha 90.000000
_cell_angle_beta 90.000000
_cell_angle_gamma 90.000000
_cell_volume 3528.208257
_symmetry_space_group_name_H-M "I 21 21 21"
_symmetry_group_IT_number 24
_symmetry_cell_setting 'orthorhombic'
loop_
_space_group_symop_operation_xyz
x,y,z
-x,1/2-y,z
x,-y,1/2-z
1/2-x,y,-z
1/2+x,1/2+y,1/2+z
1/2-x,-y,1/2+z
1/2+x,1/2-y,-z
-x,1/2+y,1/2-z
loop_
_atom_site_type_symbol
_atom_site_label
_atom_site_fract_x
_atom_site_fract_y
_atom_site_fract_z
Si Si1 0.297340 0.044819 0.157409
Si Si2 0.377060 0.457618 0.788994
Si Si3 0.133281 0.250098 0.522399
Si Si4 0.202838 0.544750 0.657344
Si Si5 0.877013 0.457622 0.211009
Si Si6 0.371695 0.949291 0.419640
Si Si7 0.871521 0.051020 0.919693
Si Si8 0.000121 0.454316 0.707557
O O1 0.284629 0.249999 0.152781
O O2 0.192719 0.973733 0.178012
O O3 0.317649 0.980023 0.117086
O O4 0.396284 0.019656 0.185173
O O5 0.326939 0.500000 0.750000
O O6 0.307421 0.526238 0.822016
O O7 0.500025 0.524882 0.789283
O O8 0.380471 0.249996 0.791496
O O9 0.250000 0.249909 0.500000
O O10 0.141865 0.420997 0.547244
O O11 0.000000 0.250000 0.509199
O O12 0.141778 0.079510 0.547338
O O13 0.182710 0.480197 0.616993
O O14 0.103843 0.519301 0.685074
O O15 0.826894 0.500000 0.250000
O O16 0.337246 0.750213 0.427315
O O17 0.500099 0.942361 0.411166
O O18 0.000293 0.500000 0.750000
O O19 0.000000 0.250000 0.705269
#
# Coordination Sequence:
#
# PCOD9333452 Si02
#       8
#     8   8   8   8   8   8   8   8
#     4  10  19  33  52  74 103 135 179 229 273 327
#     4   9  18  32  48  66  94 135 181 226 274 322
#     4  10  22  40  64  90 122 152 190 232 290 352
#     4  10  19  33  52  74 103 135 179 229 273 327
#     4   9  18  32  48  66  94 135 181 226 274 322
#     4   9  18  34  58  86 115 149 185 226 281 349
#     4   9  18  34  58  86 115 149 185 226 281 349
#     4  12  24  32  46  72 108 144 182 230 282 322
#
# _framework density 18.139517000000001
#
# number of rings (size 3 to 8) (size 9 to 14) (size 15 to 20)
#    0.000    2.250    1.250    1.875    1.750    3.500 
#    0.000    1.250    0.000    1.500    0.000    0.000 
#    0.000    0.000    0.000    0.000    0.000    0.000 
#
# Total GULP energy -178143.709479 kJ/mol
# GULP energy per Si atom -5566.990921 kJ/mol
# Density = 1.809823 g / cm^3
# Si number density = 18.139517 Si / 1000 Ang^3
#
#
#
# Elastic Constant Matrix: (Units=GPa)
#
#
# Indices 1 2 3 4 5 6 
#
# 1 83.7069 11.9932 53.9532 0.0000 0.0000 0.0000
# 2 11.9932 56.9365 25.6075 0.0000 0.0000 0.0000
# 3 53.9532 25.6075 88.7471 0.0000 0.0000 0.0000
# 4 0.0000 0.0000 0.0000 22.0119 0.0000 0.0000
# 5 0.0000 0.0000 0.0000 0.0000 25.6070 0.0000
# 6 0.0000 0.0000 0.0000 0.0000 0.0000 21.8979
#
#
#
# Elastic Compliance Matrix: (Units=1/GPa)
#
#
# Indices 1 2 3 4 5 6 
#
# 1 0.019744 0.001424 -0.012414 0.000000 0.000000 0.000000
# 2 0.001424 0.020285 -0.006719 0.000000 0.000000 0.000000
# 3 -0.012414 -0.006719 0.020754 0.000000 0.000000 0.000000
# 4 0.000000 0.000000 0.000000 0.045430 0.000000 0.000000
# 5 0.000000 0.000000 0.000000 0.000000 0.039052 0.000000
# 6 0.000000 0.000000 0.000000 0.000000 0.000000 0.045667
#
#
# Mechanical properties :
#
#
# Convention : Reuss Voigt Hill
#
# Bulk Modulus (GPa) = 39.42398 45.83313 42.62855
# Shear Modulus (GPa) = 21.29431 23.09247 22.19339
#
# Velocity S-wave (km/s) = 3.42997 3.57185 3.50163
# Velocity P-wave (km/s) = 6.12104 6.50636 6.31664
#
# Compressibility (1/GPa) = 0.02536527
#
# Stress axis : x y z
#
# Youngs Moduli (GPa) = 50.64852 49.29661 48.18373
#
# Poissons Ratio (x) = -0.07022 0.59816
# Poissons Ratio (y) = -0.07215 0.32376
# Poissons Ratio (z) = 0.62876 0.33124
#
# Static dielectric constant tensor:
#      x y z
#    x 1.668560 0.000000 0.000000 
#    y 0.000000 1.648960 0.000000 
#    z 0.000000 0.000000 1.594350 
# 
# From -- ./inp_files/38603.got.cif
#   From: 2010.05.17/outbox.cif.g08.bks.cpg/sg24_20_cif.got.tgz:38603.got - 2010.06.04 00:33:39.
