data_PCOD9333536
_publ_section_title
;
Structure prediction by ZEFSAII (Michael W. Deem and Ramdas Pophale) SiO2 
 PCOD9333536
Probable space group: I 21 21 21
;
_chemical_formula_sum "Si O2"
_cell_formula_units_Z 40
_cell_length_a 5.563216
_cell_length_b 25.966372
_cell_length_c 11.236575
_cell_angle_alpha 90.000000
_cell_angle_beta 90.000000
_cell_angle_gamma 90.000000
_cell_volume 1623.196703
_symmetry_space_group_name_H-M "I 21 21 21"
_symmetry_group_IT_number 24
_symmetry_cell_setting 'orthorhombic'
loop_
_space_group_symop_operation_xyz
x,y,z
-x,1/2-y,z
x,-y,1/2-z
1/2-x,y,-z
1/2+x,1/2+y,1/2+z
1/2-x,-y,1/2+z
1/2+x,1/2-y,-z
-x,1/2+y,1/2-z
loop_
_atom_site_type_symbol
_atom_site_label
_atom_site_fract_x
_atom_site_fract_y
_atom_site_fract_z
Si Si1 0.999647 0.519929 0.492096
Si Si2 0.438611 0.937941 0.259999
Si Si3 0.064628 0.594768 0.274170
Si Si4 0.254790 0.782154 0.128370
Si Si5 0.108651 0.806890 0.380918
O O1 0.750000 0.490154 0.500000
O O2 0.969431 0.564039 0.594627
O O3 0.031616 0.548166 0.367456
O O4 0.250000 0.490590 0.500000
O O5 0.195711 0.911992 0.212859
O O6 0.684283 0.914407 0.209491
O O7 0.437441 0.000000 0.250000
O O8 0.077218 0.648337 0.345461
O O9 0.500000 0.750000 0.120248
O O10 0.267204 0.805611 0.260567
O O11 0.000000 0.750000 0.133082
O O12 0.250000 0.811067 0.000000
O O13 0.250000 0.820637 0.500000
O O14 0.000000 0.750000 0.399038
#
# Coordination Sequence:
#
# PCOD9333536 Si02
#       5
#     8   8   8   8   8
#     4   8  15  28  47  70 101 141 181 222 287 364
#     4  10  19  34  57  81 105 149 205 252 306 384
#     4  10  21  36  55  83 123 160 197 251 326 388
#     4   9  19  37  59  82 113 161 213 259 314 376
#     4  11  23  37  61  98 136 175 223 276 322 384
#
# _framework density 24.642731000000001
#
# number of rings (size 3 to 8) (size 9 to 14) (size 15 to 20)
#    0.000    2.400    0.000    3.000    0.000    7.200 
#    0.000    0.000    0.000   10.800    0.000    0.000 
#    0.000    0.000    0.000    0.000    0.000    0.000 
#
# Total GULP energy -111345.878689 kJ/mol
# GULP energy per Si atom -5567.293934 kJ/mol
# Density = 2.458664 g / cm^3
# Si number density = 24.642731 Si / 1000 Ang^3
#
#
#
# Elastic Constant Matrix: (Units=GPa)
#
#
# Indices 1 2 3 4 5 6 
#
# 1 237.8289 39.9319 -6.3138 0.0000 0.0000 0.0000
# 2 39.9319 106.4901 -4.3228 0.0001 0.0000 0.0000
# 3 -6.3138 -4.3228 123.2599 0.0001 0.0000 0.0000
# 4 0.0000 0.0001 0.0001 13.5779 0.0000 0.0000
# 5 0.0000 0.0000 0.0000 0.0000 0.1027 0.0000
# 6 0.0000 0.0000 0.0000 0.0000 0.0000 30.9447
#
#
#
# Elastic Compliance Matrix: (Units=1/GPa)
#
#
# Indices 1 2 3 4 5 6 
#
# 1 0.004491 -0.001677 0.000171 0.000000 0.000000 0.000000
# 2 -0.001677 0.010030 0.000266 0.000000 0.000001 0.000000
# 3 0.000171 0.000266 0.008131 0.000000 0.000002 0.000000
# 4 0.000000 0.000000 0.000000 0.073649 0.000017 0.000000
# 5 0.000000 0.000001 0.000002 0.000017 9.737549 -0.000002
# 6 0.000000 0.000000 0.000000 0.000000 -0.000002 0.032316
#
#
# Mechanical properties :
#
#
# Convention : Reuss Voigt Hill
#
# Bulk Modulus (GPa) = 49.57327 58.46326 54.01827
# Shear Modulus (GPa) = 0.50631 38.14397 19.32514
#
# Velocity S-wave (km/s) = 0.45377 3.93858 2.80342
# Velocity P-wave (km/s) = 4.52051 6.66776 5.69623
#
# Compressibility (1/GPa) = 0.02017216
#
# Stress axis : x y z
#
# Youngs Moduli (GPa) = 222.67624 99.69904 122.98564
#
# Poissons Ratio (x) = 0.16720 -0.02106
# Poissons Ratio (y) = 0.37343 -0.03270
# Poissons Ratio (z) = -0.03813 -0.02651
#
# Static dielectric constant tensor:
#      x y z
#    x 2.157630 0.000000 0.000000 
#    y 0.000000 1.937430 0.000000 
#    z 0.000000 0.000000 1.724560 
# 
# From -- ./inp_files/17732.got.cif
#   From: 2010.05.17/outbox.cif.g08.bks.cpg/sg24_9_cif.got.tgz:17732.got - 2010.06.04 00:33:39.
