data_PCOD9333024
_publ_section_title
;
Structure prediction by ZEFSAII (Michael W. Deem and Ramdas Pophale) SiO2 
 PCOD9333024
Probable space group: I 21 21 21
;
_chemical_formula_sum "Si O2"
_cell_formula_units_Z 64
_cell_length_a 8.463112
_cell_length_b 20.132498
_cell_length_c 20.825664
_cell_angle_alpha 90.000000
_cell_angle_beta 90.000000
_cell_angle_gamma 90.000000
_cell_volume 3548.351301
_symmetry_space_group_name_H-M "I 21 21 21"
_symmetry_group_IT_number 24
_symmetry_cell_setting 'orthorhombic'
loop_
_space_group_symop_operation_xyz
x,y,z
-x,1/2-y,z
x,-y,1/2-z
1/2-x,y,-z
1/2+x,1/2+y,1/2+z
1/2-x,-y,1/2+z
1/2+x,1/2-y,-z
-x,1/2+y,1/2-z
loop_
_atom_site_type_symbol
_atom_site_label
_atom_site_fract_x
_atom_site_fract_y
_atom_site_fract_z
Si Si1 0.266432 0.007284 0.828196
Si Si2 0.896448 0.964347 0.179564
Si Si3 0.451200 0.549436 0.188053
Si Si4 0.402523 0.862749 0.384427
Si Si5 0.062619 0.326723 0.010265
Si Si6 0.407084 0.682280 0.265293
Si Si7 0.450973 0.677801 0.767540
Si Si8 0.413685 0.819541 0.638173
O O1 0.444809 0.994003 0.851867
O O2 0.119459 0.959280 0.846433
O O3 0.278301 0.000000 0.750000
O O4 0.198108 0.075960 0.856243
O O5 0.715585 0.968821 0.153746
O O6 0.932659 0.885793 0.187335
O O7 0.884710 0.000000 0.250000
O O8 0.456942 0.500000 0.250000
O O9 0.443227 0.623807 0.215021
O O10 0.475186 0.867346 0.454283
O O11 0.536472 0.844002 0.334116
O O12 0.265816 0.807279 0.382830
O O13 0.000000 0.250000 0.005698
O O14 0.250000 0.328179 0.000000
O O15 0.006272 0.353553 0.079623
O O16 0.500000 0.750000 0.251263
O O17 0.220421 0.690601 0.263222
O O18 0.500000 0.750000 0.794448
O O19 0.567081 0.653413 0.710277
O O20 0.500000 0.750000 0.644734
#
# Coordination Sequence:
#
# PCOD9333024 Si02
#       8
#     8   8   8   8   8   8   8   8
#     4  10  18  32  50  65  91 120 158 209 239 299
#     4   9  18  29  47  66  88 124 156 205 246 288
#     4   9  17  32  44  61  93 119 154 199 238 295
#     4  12  21  33  49  69  88 126 169 205 257 297
#     4  11  22  37  50  65  94 128 164 215 265 298
#     4  11  20  28  45  68  92 121 159 209 242 280
#     4  10  20  31  45  69  95 123 167 209 244 294
#     4  10  19  32  47  63  90 119 156 206 247 288
#
# _framework density 18.036543999999999
#
# number of rings (size 3 to 8) (size 9 to 14) (size 15 to 20)
#    0.000    1.750    2.500    6.000    1.750    0.000 
#    2.250    0.000    0.000    0.000    0.000    0.000 
#    0.000    0.000    0.000    0.000    0.000   13.750 
#
# Total GULP energy -178206.738417 kJ/mol
# GULP energy per Si atom -5568.960576 kJ/mol
# Density = 1.799549 g / cm^3
# Si number density = 18.036544 Si / 1000 Ang^3
#
#
#
# Elastic Constant Matrix: (Units=GPa)
#
#
# Indices 1 2 3 4 5 6 
#
# 1 75.5756 -5.7310 -1.0225 0.0000 0.0000 0.0000
# 2 -5.7310 70.0131 4.5362 0.0000 0.0000 0.0000
# 3 -1.0225 4.5362 15.0904 0.0000 0.0000 0.0000
# 4 0.0000 0.0000 0.0000 10.6506 0.0000 0.0000
# 5 0.0000 0.0000 0.0000 0.0000 7.8047 0.0000
# 6 0.0000 0.0000 0.0000 0.0000 0.0000 22.2249
#
#
#
# Elastic Compliance Matrix: (Units=1/GPa)
#
#
# Indices 1 2 3 4 5 6 
#
# 1 0.013320 0.001052 0.000586 0.000000 0.000000 0.000000
# 2 0.001052 0.014650 -0.004332 0.000000 0.000000 0.000000
# 3 0.000586 -0.004332 0.067609 0.000000 0.000000 0.000000
# 4 0.000000 0.000000 0.000000 0.093892 0.000000 0.000000
# 5 0.000000 0.000000 0.000000 0.000000 0.128127 0.000000
# 6 0.000000 0.000000 0.000000 0.000000 0.000000 0.044995
#
#
# Mechanical properties :
#
#
# Convention : Reuss Voigt Hill
#
# Bulk Modulus (GPa) = 11.08761 17.36051 14.22406
# Shear Modulus (GPa) = 12.56142 18.99579 15.77860
#
# Velocity S-wave (km/s) = 2.64188 3.24880 2.96093
# Velocity P-wave (km/s) = 3.93277 4.87022 4.42638
#
# Compressibility (1/GPa) = 0.09019080
#
# Stress axis : x y z
#
# Youngs Moduli (GPa) = 75.07783 68.25990 14.79083
#
# Poissons Ratio (x) = -0.07183 -0.00867
# Poissons Ratio (y) = -0.07900 0.06408
# Poissons Ratio (z) = -0.04401 0.29574
#
# Static dielectric constant tensor:
#      x y z
#    x 1.733540 0.000000 0.000000 
#    y 0.000000 1.722080 0.000000 
#    z 0.000000 0.000000 1.640210 
# 
# From -- ./inp_files/14686.got.cif
#   From: 2010.05.17/outbox.cif.g08.bks.cpg/sg24_8_cif.got.tgz:14686.got - 2010.06.04 00:33:39.
