data_PCOD9333160
_publ_section_title
;
Structure prediction by ZEFSAII (Michael W. Deem and Ramdas Pophale) SiO2 
 PCOD9333160
Probable space group: I 21 21 21
;
_chemical_formula_sum "Si O2"
_cell_formula_units_Z 32
_cell_length_a 10.356509
_cell_length_b 14.158580
_cell_length_c 7.919655
_cell_angle_alpha 90.000000
_cell_angle_beta 90.000000
_cell_angle_gamma 90.000000
_cell_volume 1161.286424
_symmetry_space_group_name_H-M "I 21 21 21"
_symmetry_group_IT_number 24
_symmetry_cell_setting 'orthorhombic'
loop_
_space_group_symop_operation_xyz
x,y,z
-x,1/2-y,z
x,-y,1/2-z
1/2-x,y,-z
1/2+x,1/2+y,1/2+z
1/2-x,-y,1/2+z
1/2+x,1/2-y,-z
-x,1/2+y,1/2-z
loop_
_atom_site_type_symbol
_atom_site_label
_atom_site_fract_x
_atom_site_fract_y
_atom_site_fract_z
Si Si1 0.332390 0.205244 0.753803
Si Si2 0.105940 0.042942 0.435778
Si Si3 0.063357 0.133089 0.885902
Si Si4 0.787731 0.108237 0.804297
O O1 0.403524 0.153092 0.600889
O O2 0.192809 0.152194 0.779333
O O3 0.307483 0.314876 0.721572
O O4 0.402499 0.182593 0.933486
O O5 0.250000 0.022431 0.500000
O O6 0.085007 0.000000 0.250000
O O7 0.030610 0.976420 0.563035
O O8 0.930130 0.155407 0.793426
O O9 0.772910 0.000000 0.750000
O O10 0.750000 0.112879 0.000000
#
# Coordination Sequence:
#
# PCOD9333160 Si02
#       4
#     8   8   8   8
#     4  10  21  40  70 104 128 178 232 286 329 406
#     4  10  18  34  66 105 132 160 229 295 326 383
#     4  10  20  40  69 102 125 176 233 277 333 402
#     4  12  28  45  68  97 146 186 226 276 353 414
#
# _framework density 27.555647
#
# number of rings (size 3 to 8) (size 9 to 14) (size 15 to 20)
#    0.000    1.500    7.500    0.750    3.500    4.000 
#    0.000    0.000    0.000    0.000    0.000    0.000 
#    0.000    0.000    0.000    0.000    0.000    0.000 
#
# Total GULP energy -89496.620350 kJ/mol
# GULP energy per Si atom -5593.538772 kJ/mol
# Density = 2.749293 g / cm^3
# Si number density = 27.555647 Si / 1000 Ang^3
#
#
#
# Elastic Constant Matrix: (Units=GPa)
#
#
# Indices 1 2 3 4 5 6 
#
# 1 112.1067 52.2064 15.2701 0.0000 0.0000 0.0000
# 2 52.2064 233.2500 28.9688 0.0000 0.0000 0.0000
# 3 15.2701 28.9688 82.6801 0.0000 0.0000 0.0000
# 4 0.0000 0.0000 0.0000 22.7462 0.0000 0.0000
# 5 0.0000 0.0000 0.0000 0.0000 14.9044 0.0000
# 6 0.0000 0.0000 0.0000 0.0000 0.0000 35.6260
#
#
#
# Elastic Compliance Matrix: (Units=1/GPa)
#
#
# Indices 1 2 3 4 5 6 
#
# 1 0.010056 -0.002112 -0.001117 0.000000 0.000000 0.000000
# 2 -0.002112 0.004926 -0.001336 0.000000 0.000000 0.000000
# 3 -0.001117 -0.001336 0.012769 0.000000 0.000000 0.000000
# 4 0.000000 0.000000 0.000000 0.043963 0.000000 0.000000
# 5 0.000000 0.000000 0.000000 0.000000 0.067094 0.000000
# 6 0.000000 0.000000 0.000000 0.000000 0.000000 0.028069
#
#
# Mechanical properties :
#
#
# Convention : Reuss Voigt Hill
#
# Bulk Modulus (GPa) = 53.70336 68.99193 61.34764
# Shear Modulus (GPa) = 27.44014 36.76142 32.10078
#
# Velocity S-wave (km/s) = 3.15907 3.65647 3.41683
# Velocity P-wave (km/s) = 5.73041 6.55118 6.15450
#
# Compressibility (1/GPa) = 0.01862081
#
# Stress axis : x y z
#
# Youngs Moduli (GPa) = 99.44559 203.01075 78.31353
#
# Poissons Ratio (x) = 0.42875 0.08749
# Poissons Ratio (y) = 0.21002 0.10461
# Poissons Ratio (z) = 0.11110 0.27119
#
# Static dielectric constant tensor:
#      x y z
#    x 2.211600 0.000000 0.000000 
#    y 0.000000 2.327940 0.000000 
#    z 0.000000 0.000000 2.102070 
# 
# From -- ./inp_files/10362.got.cif
#   From: 2010.05.17/outbox.cif.g08.bks.cpg/sg24_6_cif.got.tgz:10362.got - 2010.06.04 00:33:39.
