data_PCOD9333522
_publ_section_title
;
Structure prediction by ZEFSAII (Michael W. Deem and Ramdas Pophale) SiO2 
 PCOD9333522
Probable space group: I 21 21 21
;
_chemical_formula_sum "Si O2"
_cell_formula_units_Z 32
_cell_length_a 5.526708
_cell_length_b 13.753713
_cell_length_c 17.761509
_cell_angle_alpha 90.000000
_cell_angle_beta 90.000000
_cell_angle_gamma 90.000000
_cell_volume 1350.101244
_symmetry_space_group_name_H-M "I 21 21 21"
_symmetry_group_IT_number 24
_symmetry_cell_setting 'orthorhombic'
loop_
_space_group_symop_operation_xyz
x,y,z
-x,1/2-y,z
x,-y,1/2-z
1/2-x,y,-z
1/2+x,1/2+y,1/2+z
1/2-x,-y,1/2+z
1/2+x,1/2-y,-z
-x,1/2+y,1/2-z
loop_
_atom_site_type_symbol
_atom_site_label
_atom_site_fract_x
_atom_site_fract_y
_atom_site_fract_z
Si Si1 0.327818 0.334026 0.416944
Si Si2 0.083407 0.385469 0.273621
Si Si3 0.417126 0.108799 0.212278
Si Si4 0.498496 0.953298 0.454354
O O1 0.500000 0.250000 0.386216
O O2 0.250000 0.301922 0.500000
O O3 0.104618 0.363721 0.362625
O O4 0.471763 0.434373 0.429272
O O5 0.088299 0.500000 0.250000
O O6 0.338005 0.347082 0.243938
O O7 0.839294 0.348228 0.236643
O O8 0.409656 0.000000 0.250000
O O9 0.458796 0.103508 0.123282
O O10 0.750000 0.930165 0.500000
O O11 0.250000 0.941844 0.500000
#
# Coordination Sequence:
#
# PCOD9333522 Si02
#       4
#     8   8   8   8
#     4  11  24  38  56  89 134 179 212 252 322 402
#     4  10  20  37  58  79 110 168 220 270 299 358
#     4  10  19  34  56  79 108 154 214 269 307 345
#     4  11  22  35  56  83 120 162 208 260 321 382
#
# _framework density 23.701927999999999
#
# number of rings (size 3 to 8) (size 9 to 14) (size 15 to 20)
#    0.000    1.500    5.000    2.250   10.500    2.000 
#    0.000    0.000    0.000    0.000    0.000    0.000 
#    0.000    8.000    1.000    1.000    0.000    1.000 
#
# Total GULP energy -89421.438642 kJ/mol
# GULP energy per Si atom -5588.839915 kJ/mol
# Density = 2.364798 g / cm^3
# Si number density = 23.701928 Si / 1000 Ang^3
#
#
#
# Elastic Constant Matrix: (Units=GPa)
#
#
# Indices 1 2 3 4 5 6 
#
# 1 257.2766 45.1460 103.2886 0.0000 0.0000 0.0000
# 2 45.1460 55.5585 37.7708 0.0000 0.0000 0.0000
# 3 103.2886 37.7708 186.6896 0.0000 0.0000 0.0000
# 4 0.0000 0.0000 0.0000 -27.3211 0.0000 0.0000
# 5 0.0000 0.0000 0.0000 0.0000 62.3031 0.0000
# 6 0.0000 0.0000 0.0000 0.0000 0.0000 9.0878
#
#
#
# Elastic Compliance Matrix: (Units=1/GPa)
#
#
# Indices 1 2 3 4 5 6 
#
# 1 0.005323 -0.002694 -0.002400 0.000000 0.000000 0.000000
# 2 -0.002694 0.022233 -0.003008 0.000000 0.000000 0.000000
# 3 -0.002400 -0.003008 0.007293 0.000000 0.000000 0.000000
# 4 0.000000 0.000000 0.000000 -0.036602 0.000000 0.000000
# 5 0.000000 0.000000 0.000000 0.000000 0.016051 0.000000
# 6 0.000000 0.000000 0.000000 0.000000 0.000000 0.110037
#
#
# Mechanical properties :
#
#
# Convention : Reuss Voigt Hill
#
# Bulk Modulus (GPa) = 53.63212 96.88173 75.25693
# Shear Modulus (GPa) = 34.07079 29.70193 31.88636
#
# Velocity S-wave (km/s) = 3.79551 3.54382 3.67182
# Velocity P-wave (km/s) = 6.47184 7.59662 7.05668
#
# Compressibility (1/GPa) = 0.01864554
#
# Stress axis : x y z
#
# Youngs Moduli (GPa) = 187.85931 44.97864 137.12009
#
# Poissons Ratio (x) = 0.12116 0.32910
# Poissons Ratio (y) = 0.50606 0.41242
# Poissons Ratio (z) = 0.45088 0.13528
#
# Static dielectric constant tensor:
#      x y z
#    x 1.919040 0.000000 0.000000 
#    y 0.000000 1.898230 0.000000 
#    z 0.000000 0.000000 1.965380 
# 
# From -- ./inp_files/3061.got.cif
#   From: 2010.05.17/outbox.cif.g08.bks.cpg/sg24_2_cif.got.tgz:3061.got - 2010.06.04 00:33:39.
