data_PCOD9333070
_publ_section_title
;
Structure prediction by ZEFSAII (Michael W. Deem and Ramdas Pophale) SiO2 
 PCOD9333070
Probable space group: I 21 21 21
;
_chemical_formula_sum "Si O2"
_cell_formula_units_Z 36
_cell_length_a 10.133423
_cell_length_b 13.442401
_cell_length_c 11.961407
_cell_angle_alpha 90.000000
_cell_angle_beta 90.000000
_cell_angle_gamma 90.000000
_cell_volume 1629.353382
_symmetry_space_group_name_H-M "I 21 21 21"
_symmetry_group_IT_number 24
_symmetry_cell_setting 'orthorhombic'
loop_
_space_group_symop_operation_xyz
x,y,z
-x,1/2-y,z
x,-y,1/2-z
1/2-x,y,-z
1/2+x,1/2+y,1/2+z
1/2-x,-y,1/2+z
1/2+x,1/2-y,-z
-x,1/2+y,1/2-z
loop_
_atom_site_type_symbol
_atom_site_label
_atom_site_fract_x
_atom_site_fract_y
_atom_site_fract_z
Si Si1 0.540648 0.950953 0.013744
Si Si2 0.906975 0.842303 0.763768
Si Si3 0.750000 0.387113 0.500000
Si Si4 0.401387 0.334749 0.006591
Si Si5 0.139400 0.718845 0.157579
O O1 0.580867 0.925771 0.141097
O O2 0.381996 0.949244 0.016997
O O3 0.210435 0.813044 0.100171
O O4 0.588665 0.053618 0.959311
O O5 0.945800 0.856204 0.635578
O O6 0.750769 0.820757 0.761103
O O7 0.000000 0.750000 0.804549
O O8 0.400569 0.360598 0.561138
O O9 0.500000 0.250000 0.964495
O O10 0.250000 0.300909 0.000000
O O11 0.000000 0.750000 0.208539
#
# Coordination Sequence:
#
# PCOD9333070 Si02
#       5
#     8   8   4   8   8
#     4  11  20  36  64  93 122 151 189 246 309 358
#     4  11  19  37  62  89 120 150 196 247 296 356
#     4  10  18  32  62  96 128 136 176 246 320 370
#     4  11  27  43  60  79 116 173 212 240 273 342
#     4  10  18  32  60  99 121 142 175 248 324 360
#
# _framework density 22.094656000000001
#
# number of rings (size 3 to 8) (size 9 to 14) (size 15 to 20)
#    0.000    1.333    4.444    2.667    1.556    0.889 
#    0.000    0.000    0.000    0.000    0.000    0.000 
#    0.000    0.000    0.000    0.000    0.000    0.000 
#
# Total GULP energy -100466.095733 kJ/mol
# GULP energy per Si atom -5581.449763 kJ/mol
# Density = 2.204437 g / cm^3
# Si number density = 22.094656 Si / 1000 Ang^3
#
#
#
# Elastic Constant Matrix: (Units=GPa)
#
#
# Indices 1 2 3 4 5 6 
#
# 1 160.6461 34.2766 -9.8993 0.0000 0.0000 0.0000
# 2 34.2766 89.4915 2.1940 0.0000 0.0000 0.0000
# 3 -9.8993 2.1940 62.8879 0.0000 0.0000 0.0000
# 4 0.0000 0.0000 0.0000 -4.8011 0.0000 0.0000
# 5 0.0000 0.0000 0.0000 0.0000 19.9787 0.0000
# 6 0.0000 0.0000 0.0000 0.0000 0.0000 29.7800
#
#
#
# Elastic Compliance Matrix: (Units=1/GPa)
#
#
# Indices 1 2 3 4 5 6 
#
# 1 0.006864 -0.002658 0.001173 0.000000 0.000000 0.000000
# 2 -0.002658 0.012213 -0.000844 0.000000 0.000000 0.000000
# 3 0.001173 -0.000844 0.016115 0.000000 0.000000 0.000000
# 4 0.000000 0.000000 0.000000 -0.208286 0.000000 0.000000
# 5 0.000000 0.000000 0.000000 0.000000 0.050053 0.000000
# 6 0.000000 0.000000 0.000000 0.000000 0.000000 0.033580
#
#
# Mechanical properties :
#
#
# Convention : Reuss Voigt Hill
#
# Bulk Modulus (GPa) = 32.74985 40.68534 36.71759
# Shear Modulus (GPa) = -67.00273 28.08848 -19.45713
#
# Velocity S-wave (km/s) = -5.51282 3.56937 -2.97075
# Velocity P-wave (km/s) = 5.06624 5.95326 2.21071
#
# Compressibility (1/GPa) = 0.03053449
#
# Stress axis : x y z
#
# Youngs Moduli (GPa) = 145.68205 81.88023 62.05223
#
# Poissons Ratio (x) = 0.21763 -0.07280
# Poissons Ratio (y) = 0.38721 0.05240
# Poissons Ratio (z) = -0.17092 0.06914
#
# Static dielectric constant tensor:
#      x y z
#    x 1.797100 0.000000 0.000000 
#    y 0.000000 1.892340 0.000000 
#    z 0.000000 0.000000 1.847470 
# 
# From -- ./inp_files/24475.got.cif
#   From: 2010.05.17/outbox.cif.g08.bks.cpg/sg24_13_cif.got.tgz:24475.got - 2010.06.04 00:33:39.
