data_PCOD9333335
_publ_section_title
;
Structure prediction by ZEFSAII (Michael W. Deem and Ramdas Pophale) SiO2 
 PCOD9333335
Probable space group: I 21 21 21
;
_chemical_formula_sum "Si O2"
_cell_formula_units_Z 60
_cell_length_a 17.191493
_cell_length_b 8.643986
_cell_length_c 15.388941
_cell_angle_alpha 90.000000
_cell_angle_beta 90.000000
_cell_angle_gamma 90.000000
_cell_volume 2286.843181
_symmetry_space_group_name_H-M "I 21 21 21"
_symmetry_group_IT_number 24
_symmetry_cell_setting 'orthorhombic'
loop_
_space_group_symop_operation_xyz
x,y,z
-x,1/2-y,z
x,-y,1/2-z
1/2-x,y,-z
1/2+x,1/2+y,1/2+z
1/2-x,-y,1/2+z
1/2+x,1/2-y,-z
-x,1/2+y,1/2-z
loop_
_atom_site_type_symbol
_atom_site_label
_atom_site_fract_x
_atom_site_fract_y
_atom_site_fract_z
Si Si1 0.003115 0.583452 0.025866
Si Si2 0.105790 0.589449 0.853624
Si Si3 0.111316 0.921767 0.868561
Si Si4 0.890311 0.245729 0.855647
Si Si5 0.704448 0.547016 0.850515
Si Si6 0.000000 0.750000 0.478860
Si Si7 0.719080 0.880710 0.900935
Si Si8 0.216172 0.720339 0.403907
O O1 0.927862 0.582114 0.962861
O O2 0.000000 0.750000 0.072413
O O3 0.073346 0.586987 0.954072
O O4 0.003196 0.414690 0.069499
O O5 0.084984 0.762344 0.825060
O O6 0.082969 0.419776 0.820907
O O7 0.199204 0.597948 0.850788
O O8 0.204288 0.931858 0.875369
O O9 0.087208 0.083426 0.827510
O O10 0.796547 0.238389 0.849341
O O11 0.926277 0.245578 0.954115
O O12 0.697926 0.500000 0.750000
O O13 0.676185 0.722578 0.871483
O O14 0.675429 0.387662 0.895684
O O15 0.679478 0.050236 0.887237
O O16 0.750000 0.861907 0.000000
O O17 0.250000 0.707581 0.500000
#
# Coordination Sequence:
#
# PCOD9333335 Si02
#       8
#     8   8   8   8   8   4   8   8
#     4   8  12  19  32  50  66  92 125 161 194 234
#     4   8  13  21  35  55  69  94 125 165 206 241
#     4   8  14  23  34  51  70  98 131 166 193 237
#     4   8  13  21  34  53  73  95 127 159 199 240
#     4  10  19  29  42  61  82 112 144 178 217 256
#     4   8  12  18  30  50  72  92 122 154 196 242
#     4   9  17  29  44  62  80 103 138 182 219 260
#     4   9  17  29  44  61  81 107 143 178 216 258
#
# _framework density 26.237041000000001
#
# number of rings (size 3 to 8) (size 9 to 14) (size 15 to 20)
#    0.000    3.467    0.000    0.400    0.000    0.533 
#    0.000    0.000    0.000    0.000  130.000    0.000 
#    0.000    0.000    0.000    0.000   43.067    0.000 
#
# Total GULP energy -167150.447504 kJ/mol
# GULP energy per Si atom -5571.681583 kJ/mol
# Density = 2.617732 g / cm^3
# Si number density = 26.237041 Si / 1000 Ang^3
#
#
#
# Elastic Constant Matrix: (Units=GPa)
#
#
# Indices 1 2 3 4 5 6 
#
# 1 73.5668 34.2144 19.4772 0.0000 0.0000 0.0000
# 2 34.2144 392.2063 29.3260 0.0000 0.0000 0.0000
# 3 19.4772 29.3260 31.1052 0.0000 0.0000 0.0000
# 4 0.0000 0.0000 0.0000 13.1519 0.0000 0.0000
# 5 0.0000 0.0000 0.0000 0.0000 -135.0836 0.0000
# 6 0.0000 0.0000 0.0000 0.0000 0.0000 -0.0867
#
#
#
# Elastic Compliance Matrix: (Units=1/GPa)
#
#
# Indices 1 2 3 4 5 6 
#
# 1 0.016480 -0.000717 -0.009643 0.000000 0.000000 0.000000
# 2 -0.000717 0.002774 -0.002167 0.000000 0.000000 0.000000
# 3 -0.009643 -0.002167 0.040230 0.000000 0.000000 0.000000
# 4 0.000000 0.000000 0.000000 0.076035 0.000000 0.000000
# 5 0.000000 0.000000 0.000000 0.000000 -0.007403 0.000000
# 6 0.000000 0.000000 0.000000 0.000000 0.000000-11.531550
#
#
# Mechanical properties :
#
#
# Convention : Reuss Voigt Hill
#
# Bulk Modulus (GPa) = 29.04412 73.65705 51.35058
# Shear Modulus (GPa) = -0.43987 3.18701 1.37357
#
# Velocity S-wave (km/s) = -0.40990 1.10333 0.72433
# Velocity P-wave (km/s) = 3.29695 5.45507 4.50709
#
# Compressibility (1/GPa) = 0.03443038
#
# Stress axis : x y z
#
# Youngs Moduli (GPa) = 60.68144 360.46361 24.85683
#
# Poissons Ratio (x) = 0.25829 0.23971
# Poissons Ratio (y) = 0.04348 0.05386
# Poissons Ratio (z) = 0.58518 0.78107
#
# Static dielectric constant tensor:
#      x y z
#    x 2.046150 0.000000 0.000000 
#    y 0.000000 2.156110 0.000000 
#    z 0.000000 0.000000 2.152280 
# 
# From -- ./inp_files/31695.got.cif
#   From: 2010.05.17/outbox.cif.g08.bks.cpg/sg24_16_cif.got.tgz:31695.got - 2010.06.04 00:33:39.
