data_PCOD9333556
_publ_section_title
;
Structure prediction by ZEFSAII (Michael W. Deem and Ramdas Pophale) SiO2 
 PCOD9333556
Probable space group: I 21 21 21
;
_chemical_formula_sum "Si O2"
_cell_formula_units_Z 36
_cell_length_a 15.627140
_cell_length_b 5.111701
_cell_length_c 19.486669
_cell_angle_alpha 90.000000
_cell_angle_beta 90.000000
_cell_angle_gamma 90.000000
_cell_volume 1556.619813
_symmetry_space_group_name_H-M "I 21 21 21"
_symmetry_group_IT_number 24
_symmetry_cell_setting 'orthorhombic'
loop_
_space_group_symop_operation_xyz
x,y,z
-x,1/2-y,z
x,-y,1/2-z
1/2-x,y,-z
1/2+x,1/2+y,1/2+z
1/2-x,-y,1/2+z
1/2+x,1/2-y,-z
-x,1/2+y,1/2-z
loop_
_atom_site_type_symbol
_atom_site_label
_atom_site_fract_x
_atom_site_fract_y
_atom_site_fract_z
Si Si1 0.170942 0.440984 0.399454
Si Si2 0.500000 0.750000 0.912742
Si Si3 0.085545 0.844566 0.306766
Si Si4 0.561245 0.499072 0.170453
Si Si5 0.726779 0.542239 0.422917
O O1 0.132456 0.591541 0.334448
O O2 0.216953 0.171039 0.382313
O O3 0.084831 0.385037 0.445623
O O4 0.238286 0.660889 0.423116
O O5 0.547213 0.522563 0.868559
O O6 0.000000 0.750000 0.268848
O O7 0.137121 0.000000 0.250000
O O8 0.500000 0.250000 0.164901
O O9 0.595495 0.500000 0.250000
O O10 0.634247 0.478050 0.111997
O O11 0.500000 0.750000 0.161490
O O12 0.750000 0.448049 0.500000
#
# Coordination Sequence:
#
# PCOD9333556 Si02
#       5
#     8   4   8   8   8
#     4  11  24  42  64  96 143 188 236 295 359 442
#     4  10  20  42  58  94 140 192 240 270 334 436
#     4  10  19  34  59  90 137 189 235 271 324 407
#     4  10  23  49  78 106 140 188 251 316 384 448
#     4  12  26  48  70 107 145 182 242 318 388 460
#
# _framework density 23.127032
#
# number of rings (size 3 to 8) (size 9 to 14) (size 15 to 20)
#    0.000    1.333    3.333    2.000    0.000    0.889 
#   10.000    0.000    0.000    0.000    0.000    0.000 
#    0.000    0.000    0.000    0.000    0.000    0.000 
#
# Total GULP energy -100245.572721 kJ/mol
# GULP energy per Si atom -5569.198484 kJ/mol
# Density = 2.307439 g / cm^3
# Si number density = 23.127032 Si / 1000 Ang^3
#
#
#
# Elastic Constant Matrix: (Units=GPa)
#
#
# Indices 1 2 3 4 5 6 
#
# 1 138.3437 46.5850 59.0811 0.0000 0.0000 0.0000
# 2 46.5850 126.8145 11.4103 0.0000 0.0000 0.0000
# 3 59.0811 11.4103 92.2304 0.0000 0.0000 0.0000
# 4 0.0000 0.0000 0.0000 18.2453 0.0000 0.0000
# 5 0.0000 0.0000 0.0000 0.0000 -9.5644 0.0000
# 6 0.0000 0.0000 0.0000 0.0000 0.0000 36.4896
#
#
#
# Elastic Compliance Matrix: (Units=1/GPa)
#
#
# Indices 1 2 3 4 5 6 
#
# 1 0.011338 -0.003551 -0.006824 0.000000 0.000000 0.000000
# 2 -0.003551 0.009086 0.001151 0.000000 0.000000 0.000000
# 3 -0.006824 0.001151 0.015071 0.000000 0.000000 0.000000
# 4 0.000000 0.000000 0.000000 0.054809 0.000000 0.000000
# 5 0.000000 0.000000 0.000000 0.000000 -0.104555 0.000000
# 6 0.000000 0.000000 0.000000 0.000000 0.000000 0.027405
#
#
# Mechanical properties :
#
#
# Convention : Reuss Voigt Hill
#
# Bulk Modulus (GPa) = 58.65949 65.72680 62.19314
# Shear Modulus (GPa) = 134.09777 25.05494 79.57635
#
# Velocity S-wave (km/s) = 7.62293 3.29502 5.87223
# Velocity P-wave (km/s) = 10.14385 6.55422 8.53978
#
# Compressibility (1/GPa) = 0.01704754
#
# Stress axis : x y z
#
# Youngs Moduli (GPa) = 88.19644 110.05339 66.35151
#
# Poissons Ratio (x) = 0.39081 0.45277
# Poissons Ratio (y) = 0.31320 -0.07635
# Poissons Ratio (z) = 0.60183 -0.12663
#
# Static dielectric constant tensor:
#      x y z
#    x 1.957330 0.000000 0.000000 
#    y 0.000000 1.903510 0.000000 
#    z 0.000000 0.000000 1.965760 
# 
# From -- ./inp_files/35716.got.cif
#   From: 2010.05.17/outbox.cif.g08.bks.cpg/sg24_18_cif.got.tgz:35716.got - 2010.06.04 00:33:39.
