data_PCOD9333878
_publ_section_title
;
Structure prediction by ZEFSAII (Michael W. Deem and Ramdas Pophale) SiO2 
 PCOD9333878
Probable space group: I 21 21 21
;
_chemical_formula_sum "Si O2"
_cell_formula_units_Z 52
_cell_length_a 22.001970
_cell_length_b 14.820219
_cell_length_c 8.307405
_cell_angle_alpha 90.000000
_cell_angle_beta 90.000000
_cell_angle_gamma 90.000000
_cell_volume 2708.828893
_symmetry_space_group_name_H-M "I 21 21 21"
_symmetry_group_IT_number 24
_symmetry_cell_setting 'orthorhombic'
loop_
_space_group_symop_operation_xyz
x,y,z
-x,1/2-y,z
x,-y,1/2-z
1/2-x,y,-z
1/2+x,1/2+y,1/2+z
1/2-x,-y,1/2+z
1/2+x,1/2-y,-z
-x,1/2+y,1/2-z
loop_
_atom_site_type_symbol
_atom_site_label
_atom_site_fract_x
_atom_site_fract_y
_atom_site_fract_z
Si Si1 0.008339 0.102306 0.306917
Si Si2 0.372623 0.322020 0.035689
Si Si3 0.101449 0.746000 0.220352
Si Si4 0.000000 0.250000 0.881852
Si Si5 0.502444 0.095916 0.332275
Si Si6 0.636996 0.176866 0.392966
Si Si7 0.315491 0.500949 0.556264
O O1 0.062232 0.164776 0.237262
O O2 0.946818 0.162041 0.294982
O O3 0.025296 0.092874 0.493148
O O4 0.999711 0.000000 0.250000
O O5 0.444300 0.297836 0.032747
O O6 0.344616 0.295753 0.209983
O O7 0.352585 0.276872 0.866400
O O8 0.364015 0.428734 0.013714
O O9 0.130146 0.747390 0.040479
O O10 0.970397 0.328159 0.773981
O O11 0.570631 0.133680 0.356620
O O12 0.502987 0.000000 0.250000
O O13 0.675433 0.095419 0.471323
O O14 0.319820 0.500000 0.750000
O O15 0.250000 0.536343 0.500000
#
# Coordination Sequence:
#
# PCOD9333878 Si02
#       7
#     8   8   8   4   8   8   8
#     4  10  21  31  47  73 110 146 192 239 284 350
#     4  11  21  35  57  76 111 153 191 239 291 345
#     4  10  21  35  49  75 106 149 194 235 290 348
#     4  10  20  34  54  76 110 154 198 236 286 364
#     4  10  20  31  50  75 107 151 195 231 287 346
#     4  10  20  35  54  74 109 150 191 236 284 343
#     4  12  24  40  59  88 120 159 205 248 295 360
#
# _framework density 19.196487000000001
#
# number of rings (size 3 to 8) (size 9 to 14) (size 15 to 20)
#    0.000    1.538    1.538    6.923   10.769    0.000 
#    0.000    0.000    0.000    0.000    0.000    0.000 
#    0.000    2.462    0.000    0.000    0.000    0.000 
#
# Total GULP energy -144899.500095 kJ/mol
# GULP energy per Si atom -5573.057696 kJ/mol
# Density = 1.915280 g / cm^3
# Si number density = 19.196487 Si / 1000 Ang^3
#
#
#
# Elastic Constant Matrix: (Units=GPa)
#
#
# Indices 1 2 3 4 5 6 
#
# 1 29.3789 16.0235 8.8306 0.0000 0.0000 0.0000
# 2 16.0235 79.1698 12.8460 0.0000 0.0000 0.0000
# 3 8.8306 12.8460 151.1218 0.0000 0.0000 0.0000
# 4 0.0000 0.0000 0.0000 32.2240 0.0000 0.0000
# 5 0.0000 0.0000 0.0000 0.0000 25.8775 0.0000
# 6 0.0000 0.0000 0.0000 0.0000 0.0000 11.0145
#
#
#
# Elastic Compliance Matrix: (Units=1/GPa)
#
#
# Indices 1 2 3 4 5 6 
#
# 1 0.038647 -0.007560 -0.001616 0.000000 0.000000 0.000000
# 2 -0.007560 0.014286 -0.000773 0.000000 0.000000 0.000000
# 3 -0.001616 -0.000773 0.006777 0.000000 0.000000 0.000000
# 4 0.000000 0.000000 0.000000 0.031033 0.000000 0.000000
# 5 0.000000 0.000000 0.000000 0.000000 0.038644 0.000000
# 6 0.000000 0.000000 0.000000 0.000000 0.000000 0.090790
#
#
# Mechanical properties :
#
#
# Convention : Reuss Voigt Hill
#
# Bulk Modulus (GPa) = 25.11650 37.23007 31.17328
# Shear Modulus (GPa) = 19.73600 28.62124 24.17862
#
# Velocity S-wave (km/s) = 3.20989 3.86549 3.55284
# Velocity P-wave (km/s) = 5.18171 6.27367 5.75366
#
# Compressibility (1/GPa) = 0.03981446
#
# Stress axis : x y z
#
# Youngs Moduli (GPa) = 25.87536 69.99623 147.55212
#
# Poissons Ratio (x) = 0.52915 0.23840
# Poissons Ratio (y) = 0.19561 0.11401
# Poissons Ratio (z) = 0.04181 0.05408
#
# Static dielectric constant tensor:
#      x y z
#    x 1.693280 0.000000 0.000000 
#    y 0.000000 1.698270 0.000000 
#    z 0.000000 0.000000 1.835460 
# 
# From -- ./inp_files/13077.got.cif
#   From: 2010.05.17/outbox.cif.g08.bks.cpg/sg24_7_cif.got.tgz:13077.got - 2010.06.04 00:33:39.
