data_PCOD9333142
_publ_section_title
;
Structure prediction by ZEFSAII (Michael W. Deem and Ramdas Pophale) SiO2 
 PCOD9333142
Probable space group: I 21 21 21
;
_chemical_formula_sum "Si O2"
_cell_formula_units_Z 32
_cell_length_a 19.547967
_cell_length_b 8.742508
_cell_length_c 8.719088
_cell_angle_alpha 90.000000
_cell_angle_beta 90.000000
_cell_angle_gamma 90.000000
_cell_volume 1490.076950
_symmetry_space_group_name_H-M "I 21 21 21"
_symmetry_group_IT_number 24
_symmetry_cell_setting 'orthorhombic'
loop_
_space_group_symop_operation_xyz
x,y,z
-x,1/2-y,z
x,-y,1/2-z
1/2-x,y,-z
1/2+x,1/2+y,1/2+z
1/2-x,-y,1/2+z
1/2+x,1/2-y,-z
-x,1/2+y,1/2-z
loop_
_atom_site_type_symbol
_atom_site_label
_atom_site_fract_x
_atom_site_fract_y
_atom_site_fract_z
Si Si1 0.548420 0.000000 0.250000
Si Si2 0.068669 0.950674 0.972094
Si Si3 0.398028 0.310214 0.980402
Si Si4 0.750000 0.281899 0.000000
Si Si5 0.005318 0.500000 0.250000
Si Si6 0.184634 0.000000 0.750000
O O1 0.496161 0.918936 0.134131
O O2 0.591382 0.888929 0.355212
O O3 0.135303 0.910683 0.872136
O O4 0.078390 0.134520 0.997982
O O5 0.046080 0.900980 0.141380
O O6 0.444705 0.400492 0.858653
O O7 0.317285 0.309555 0.948975
O O8 0.728301 0.387870 0.143944
#
# Coordination Sequence:
#
# PCOD9333142 Si02
#       6
#     4   8   8   4   4   4
#     4   9  16  33  56  79 110 145 182 226 284 325
#     4   9  19  37  57  83 111 141 189 240 279 317
#     4  10  21  36  56  82 118 152 182 234 275 332
#     4  10  22  42  58  82 118 150 190 226 280 340
#     4  10  18  34  60  86 116 148 182 234 292 328
#     4   9  20  39  64  79 106 151 188 240 278 327
#
# _framework density 21.4754
#
# number of rings (size 3 to 8) (size 9 to 14) (size 15 to 20)
#    0.000    2.500    0.000    3.000    0.000    5.000 
#    0.000   50.000    0.000    0.000    0.000    0.000 
#    0.000    0.000    0.000    0.000    0.000    0.000 
#
# Total GULP energy -89236.344580 kJ/mol
# GULP energy per Si atom -5577.271536 kJ/mol
# Density = 2.142652 g / cm^3
# Si number density = 21.475400 Si / 1000 Ang^3
#
#
#
# Elastic Constant Matrix: (Units=GPa)
#
#
# Indices 1 2 3 4 5 6 
#
# 1 150.0410 17.5135 49.3258 0.0000 0.0000 0.0000
# 2 17.5135 60.5326 20.9500 0.0000 0.0000 0.0000
# 3 49.3258 20.9500 152.6655 0.0000 0.0000 0.0000
# 4 0.0000 0.0000 0.0000 39.7831 0.0000 0.0000
# 5 0.0000 0.0000 0.0000 0.0000 18.5959 0.0000
# 6 0.0000 0.0000 0.0000 0.0000 0.0000 27.2021
#
#
#
# Elastic Compliance Matrix: (Units=1/GPa)
#
#
# Indices 1 2 3 4 5 6 
#
# 1 0.007570 -0.001411 -0.002252 0.000000 0.000000 0.000000
# 2 -0.001411 0.017607 -0.001960 0.000000 0.000000 0.000000
# 3 -0.002252 -0.001960 0.007547 0.000000 0.000000 0.000000
# 4 0.000000 0.000000 0.000000 0.025136 0.000000 0.000000
# 5 0.000000 0.000000 0.000000 0.000000 0.053775 0.000000
# 6 0.000000 0.000000 0.000000 0.000000 0.000000 0.036762
#
#
# Mechanical properties :
#
#
# Convention : Reuss Voigt Hill
#
# Bulk Modulus (GPa) = 46.56140 59.86864 53.21502
# Shear Modulus (GPa) = 29.97557 35.47954 32.72756
#
# Velocity S-wave (km/s) = 3.74011 4.06901 3.90802
# Velocity P-wave (km/s) = 6.35449 7.07207 6.72286
#
# Compressibility (1/GPa) = 0.02147702
#
# Stress axis : x y z
#
# Youngs Moduli (GPa) = 132.10169 56.79684 132.50346
#
# Poissons Ratio (x) = 0.08012 0.29843
# Poissons Ratio (y) = 0.18635 0.25975
# Poissons Ratio (z) = 0.29752 0.11134
#
# Static dielectric constant tensor:
#      x y z
#    x 1.800580 0.000000 0.000000 
#    y 0.000000 1.818200 0.000000 
#    z 0.000000 0.000000 1.850270 
# 
# From -- ./inp_files/9020.got.cif
#   From: 2010.05.17/outbox.cif.g08.bks.cpg/sg24_5_cif.got.tgz:9020.got - 2010.06.04 00:33:39.
