data_PCOD9333482
_publ_section_title
;
Structure prediction by ZEFSAII (Michael W. Deem and Ramdas Pophale) SiO2 
 PCOD9333482
Probable space group: I 21 21 21
;
_chemical_formula_sum "Si O2"
_cell_formula_units_Z 64
_cell_length_a 17.756018
_cell_length_b 22.351659
_cell_length_c 8.956750
_cell_angle_alpha 90.000000
_cell_angle_beta 90.000000
_cell_angle_gamma 90.000000
_cell_volume 3554.723229
_symmetry_space_group_name_H-M "I 21 21 21"
_symmetry_group_IT_number 24
_symmetry_cell_setting 'orthorhombic'
loop_
_space_group_symop_operation_xyz
x,y,z
-x,1/2-y,z
x,-y,1/2-z
1/2-x,y,-z
1/2+x,1/2+y,1/2+z
1/2-x,-y,1/2+z
1/2+x,1/2-y,-z
-x,1/2+y,1/2-z
loop_
_atom_site_type_symbol
_atom_site_label
_atom_site_fract_x
_atom_site_fract_y
_atom_site_fract_z
Si Si1 0.960657 0.885835 0.415757
Si Si2 0.470151 0.369871 0.562756
Si Si3 0.825894 0.529090 0.913682
Si Si4 0.375017 0.834594 0.086034
Si Si5 0.325914 0.713480 0.935247
Si Si6 0.003517 0.005560 0.570685
Si Si7 0.170817 0.292972 0.080931
Si Si8 0.434230 0.796729 0.404997
O O1 0.974578 0.884026 0.238690
O O2 0.882120 0.851070 0.439511
O O3 0.025058 0.847838 0.499574
O O4 0.963834 0.951112 0.486909
O O5 0.547361 0.340566 0.506301
O O6 0.399853 0.326320 0.533853
O O7 0.465684 0.432191 0.475197
O O8 0.820546 0.500000 0.750000
O O9 0.833224 0.601465 0.915882
O O10 0.907594 0.507569 0.974988
O O11 0.750000 0.511875 0.000000
O O12 0.395962 0.821652 0.257192
O O13 0.334005 0.777647 0.015195
O O14 0.319804 0.719153 0.756758
O O15 0.250000 0.684540 0.000000
O O16 0.001489 0.000000 0.750000
O O17 0.250000 0.300299 0.000000
O O18 0.125220 0.238653 0.005901
O O19 0.500000 0.750000 0.360940
#
# Coordination Sequence:
#
# PCOD9333482 Si02
#       8
#     8   8   8   8   8   8   8   8
#     4  10  20  37  58  82 111 145 189 233 279 339
#     4  10  21  36  58  83 110 145 185 234 284 336
#     4  10  22  38  54  78 111 145 182 225 272 322
#     4  11  21  36  58  83 111 147 190 230 279 340
#     4  11  22  37  56  82 115 145 184 233 285 344
#     4  10  21  38  59  82 108 144 191 234 278 337
#     4  10  22  37  55  82 115 149 183 232 290 340
#     4  10  19  33  56  82 111 146 183 227 280 336
#
# _framework density 18.004214000000001
#
# number of rings (size 3 to 8) (size 9 to 14) (size 15 to 20)
#    0.000    1.750    0.000    5.625    0.000    7.000 
#    0.000    6.875    0.000    0.000    0.000    0.000 
#    0.000    0.000    0.000    0.000    0.000    0.000 
#
# Total GULP energy -178692.563756 kJ/mol
# GULP energy per Si atom -5584.142617 kJ/mol
# Density = 1.796324 g / cm^3
# Si number density = 18.004214 Si / 1000 Ang^3
#
#
#
# Elastic Constant Matrix: (Units=GPa)
#
#
# Indices 1 2 3 4 5 6 
#
# 1 96.5409 33.7034 53.6407 0.0000 0.0000 0.0000
# 2 33.7034 73.1332 26.2965 0.0000 0.0000 0.0000
# 3 53.6407 26.2965 75.9277 0.0000 0.0000 0.0000
# 4 0.0000 0.0000 0.0000 44.6144 0.0000 0.0000
# 5 0.0000 0.0000 0.0000 0.0000 32.4327 0.0000
# 6 0.0000 0.0000 0.0000 0.0000 0.0000 16.6825
#
#
#
# Elastic Compliance Matrix: (Units=1/GPa)
#
#
# Indices 1 2 3 4 5 6 
#
# 1 0.018158 -0.004290 -0.011342 0.000000 0.000000 0.000000
# 2 -0.004290 0.016632 -0.002730 0.000000 0.000000 0.000000
# 3 -0.011342 -0.002730 0.022129 0.000000 0.000000 0.000000
# 4 0.000000 0.000000 0.000000 0.022414 0.000000 0.000000
# 5 0.000000 0.000000 0.000000 0.000000 0.030833 0.000000
# 6 0.000000 0.000000 0.000000 0.000000 0.000000 0.059943
#
#
# Mechanical properties :
#
#
# Convention : Reuss Voigt Hill
#
# Bulk Modulus (GPa) = 49.51645 52.54253 51.02949
# Shear Modulus (GPa) = 23.41205 27.54332 25.47769
#
# Velocity S-wave (km/s) = 3.60997 3.91554 3.76586
# Velocity P-wave (km/s) = 6.70360 7.04903 6.87848
#
# Compressibility (1/GPa) = 0.02019531
#
# Stress axis : x y z
#
# Youngs Moduli (GPa) = 55.07201 60.12457 45.18972
#
# Poissons Ratio (x) = 0.25792 0.51256
# Poissons Ratio (y) = 0.23624 0.12336
# Poissons Ratio (z) = 0.62465 0.16412
#
# Static dielectric constant tensor:
#      x y z
#    x 1.592230 0.000000 0.000000 
#    y 0.000000 1.616910 0.000000 
#    z 0.000000 0.000000 1.589970 
# 
# From -- ./inp_files/13381.got.cif
#   From: 2010.05.17/outbox.cif.g08.bks.cpg/sg24_7_cif.got.tgz:13381.got - 2010.06.04 00:33:39.
