data_PCOD9333105
_publ_section_title
;
Structure prediction by ZEFSAII (Michael W. Deem and Ramdas Pophale) SiO2 
 PCOD9333105
Probable space group: I 21 21 21
;
_chemical_formula_sum "Si O2"
_cell_formula_units_Z 48
_cell_length_a 26.337777
_cell_length_b 14.102122
_cell_length_c 5.376794
_cell_angle_alpha 90.000000
_cell_angle_beta 90.000000
_cell_angle_gamma 90.000000
_cell_volume 1997.041001
_symmetry_space_group_name_H-M "I 21 21 21"
_symmetry_group_IT_number 24
_symmetry_cell_setting 'orthorhombic'
loop_
_space_group_symop_operation_xyz
x,y,z
-x,1/2-y,z
x,-y,1/2-z
1/2-x,y,-z
1/2+x,1/2+y,1/2+z
1/2-x,-y,1/2+z
1/2+x,1/2-y,-z
-x,1/2+y,1/2-z
loop_
_atom_site_type_symbol
_atom_site_label
_atom_site_fract_x
_atom_site_fract_y
_atom_site_fract_z
Si Si1 0.693309 0.128454 0.536208
Si Si2 0.323808 0.043668 0.999299
Si Si3 0.913706 0.052236 0.498372
Si Si4 0.836883 0.763029 0.542177
Si Si5 0.438141 0.038867 0.497695
Si Si6 0.058234 0.249615 0.694338
O O1 0.750000 0.089986 0.500000
O O2 0.647693 0.055354 0.502957
O O3 0.685815 0.200851 0.304235
O O4 0.681766 0.177003 0.804206
O O5 0.302634 0.000000 0.750000
O O6 0.320527 0.155702 0.997872
O O7 0.302909 0.000000 0.250000
O O8 0.383143 0.012003 0.000787
O O9 0.933770 0.159599 0.517222
O O10 0.929296 0.000000 0.250000
O O11 0.928137 0.000000 0.750000
O O12 0.898032 0.761124 0.595063
O O13 0.432711 0.151527 0.457398
O O14 0.464314 0.000000 0.250000
O O15 0.462191 0.000000 0.750000
O O16 0.000000 0.250000 0.786202
#
# Coordination Sequence:
#
# PCOD9333105 Si02
#       6
#     8   8   8   8   8   8
#     4  11  25  45  77 105 136 183 243 304 381 455
#     4  10  18  33  63  94 131 175 232 271 339 413
#     4  11  26  48  71 104 147 190 245 317 370 421
#     4  11  22  42  69 104 143 183 235 296 361 440
#     4  10  21  37  64  98 132 182 253 287 342 431
#     4  11  25  45  71 107 151 202 248 305 377 437
#
# _framework density 24.035561999999999
#
# number of rings (size 3 to 8) (size 9 to 14) (size 15 to 20)
#    0.000    1.333    3.333    3.500    7.000    3.333 
#    0.000   11.667    0.000   10.000    0.000    0.000 
#    0.000    0.000    0.000    0.000    0.000    0.000 
#
# Total GULP energy -134271.024365 kJ/mol
# GULP energy per Si atom -5594.626015 kJ/mol
# Density = 2.398086 g / cm^3
# Si number density = 24.035562 Si / 1000 Ang^3
#
#
#
# Elastic Constant Matrix: (Units=GPa)
#
#
# Indices 1 2 3 4 5 6 
#
# 1 157.2304 -19.7781 6.8822 0.0000 0.0000 0.0000
# 2 -19.7781 123.2197 62.5023 0.0000 0.0000 0.0000
# 3 6.8822 62.5023 221.9495 0.0000 0.0000 0.0000
# 4 0.0000 0.0000 0.0000 41.6379 0.0000 0.0000
# 5 0.0000 0.0000 0.0000 0.0000 9.7318 0.0000
# 6 0.0000 0.0000 0.0000 0.0000 0.0000 -40.3949
#
#
#
# Elastic Compliance Matrix: (Units=1/GPa)
#
#
# Indices 1 2 3 4 5 6 
#
# 1 0.006555 0.001348 -0.000583 0.000000 0.000000 0.000000
# 2 0.001348 0.009745 -0.002786 0.000000 0.000000 0.000000
# 3 -0.000583 -0.002786 0.005308 0.000000 0.000000 0.000000
# 4 0.000000 0.000000 0.000000 0.024017 0.000000 0.000000
# 5 0.000000 0.000000 0.000000 0.000000 0.102755 0.000000
# 6 0.000000 0.000000 0.000000 0.000000 0.000000 -0.024756
#
#
# Mechanical properties :
#
#
# Convention : Reuss Voigt Hill
#
# Bulk Modulus (GPa) = 56.92728 66.84583 61.88656
# Shear Modulus (GPa) = 37.44687 32.38118 34.91402
#
# Velocity S-wave (km/s) = 3.95140 3.67443 3.81543
# Velocity P-wave (km/s) = 6.67489 6.77300 6.72412
#
# Compressibility (1/GPa) = 0.01756627
#
# Stress axis : x y z
#
# Youngs Moduli (GPa) = 152.55200 102.61527 188.38856
#
# Poissons Ratio (x) = -0.13830 0.10979
# Poissons Ratio (y) = -0.20561 0.52487
# Poissons Ratio (z) = 0.08891 0.28589
#
# Static dielectric constant tensor:
#      x y z
#    x 1.820110 0.000000 0.000000 
#    y 0.000000 1.882450 0.000000 
#    z 0.000000 0.000000 2.131930 
# 
# From -- ./inp_files/7097.got.cif
#   From: 2010.05.17/outbox.cif.g08.bks.cpg/sg24_4_cif.got.tgz:7097.got - 2010.06.04 00:33:39.
