data_PCOD9333670
_publ_section_title
;
Structure prediction by ZEFSAII (Michael W. Deem and Ramdas Pophale) SiO2 
 PCOD9333670
Probable space group: I 21 21 21
;
_chemical_formula_sum "Si O2"
_cell_formula_units_Z 52
_cell_length_a 9.470778
_cell_length_b 10.339284
_cell_length_c 24.424606
_cell_angle_alpha 90.000000
_cell_angle_beta 90.000000
_cell_angle_gamma 90.000000
_cell_volume 2391.683394
_symmetry_space_group_name_H-M "I 21 21 21"
_symmetry_group_IT_number 24
_symmetry_cell_setting 'orthorhombic'
loop_
_space_group_symop_operation_xyz
x,y,z
-x,1/2-y,z
x,-y,1/2-z
1/2-x,y,-z
1/2+x,1/2+y,1/2+z
1/2-x,-y,1/2+z
1/2+x,1/2-y,-z
-x,1/2+y,1/2-z
loop_
_atom_site_type_symbol
_atom_site_label
_atom_site_fract_x
_atom_site_fract_y
_atom_site_fract_z
Si Si1 0.875374 0.352591 0.465406
Si Si2 0.833262 0.258994 0.878083
Si Si3 0.836391 0.000000 0.250000
Si Si4 0.665976 0.266021 0.247176
Si Si5 0.852635 0.985142 0.366941
Si Si6 0.338568 0.223061 0.652338
Si Si7 0.418785 0.873737 0.548912
O O1 0.750000 0.294849 0.500000
O O2 0.836944 0.365215 0.401286
O O3 0.902556 0.497528 0.487370
O O4 0.000000 0.250000 0.467763
O O5 0.814520 0.313540 0.815458
O O6 0.777660 0.111737 0.872299
O O7 0.726814 0.327236 0.921600
O O8 0.000000 0.250000 0.890588
O O9 0.737787 0.874963 0.246905
O O10 0.918125 0.979827 0.305919
O O11 0.500000 0.250000 0.256565
O O12 0.744091 0.331915 0.298638
O O13 0.968594 0.927559 0.406902
O O14 0.801723 0.133234 0.371890
O O15 0.500000 0.250000 0.671399
O O16 0.500000 0.750000 0.523696
#
# Coordination Sequence:
#
# PCOD9333670 Si02
#       7
#     8   8   4   8   8   8   8
#     4  11  24  47  66  93 120 152 200 256 313 369
#     4   9  19  35  55  88 130 165 199 246 290 353
#     4   8  16  28  50  78 118 164 200 242 278 346
#     4   9  18  33  49  82 122 164 205 240 292 341
#     4   9  16  33  57  81 119 161 200 239 292 343
#     4  10  19  36  59  83 118 157 204 251 289 362
#     4  10  20  40  67  90 119 159 198 249 300 361
#
# _framework density 21.742006
#
# number of rings (size 3 to 8) (size 9 to 14) (size 15 to 20)
#    0.000    2.462    3.077    0.000    0.000    4.923 
#   13.846    1.538    0.000    0.000    0.000    0.000 
#    0.000    0.000    0.000    0.000    0.000    0.000 
#
# Total GULP energy -144782.085371 kJ/mol
# GULP energy per Si atom -5568.541745 kJ/mol
# Density = 2.169252 g / cm^3
# Si number density = 21.742006 Si / 1000 Ang^3
#
#
#
# Elastic Constant Matrix: (Units=GPa)
#
#
# Indices 1 2 3 4 5 6 
#
# 1 100.7521 3.4044 37.2467 0.0000 0.0000 0.0000
# 2 3.4044 90.4879 5.8284 0.0000 0.0000 0.0000
# 3 37.2467 5.8284 37.5066 0.0000 0.0000 0.0000
# 4 0.0000 0.0000 0.0000 -4.5688 0.0000 0.0000
# 5 0.0000 0.0000 0.0000 0.0000 15.9976 0.0000
# 6 0.0000 0.0000 0.0000 0.0000 0.0000 17.2771
#
#
#
# Elastic Compliance Matrix: (Units=1/GPa)
#
#
# Indices 1 2 3 4 5 6 
#
# 1 0.015699 0.000418 -0.015655 0.000000 0.000000 0.000000
# 2 0.000418 0.011174 -0.002151 0.000000 0.000000 0.000000
# 3 -0.015655 -0.002151 0.042543 0.000000 0.000000 0.000000
# 4 0.000000 0.000000 0.000000 -0.218877 0.000000 0.000000
# 5 0.000000 0.000000 0.000000 0.000000 0.062510 0.000000
# 6 0.000000 0.000000 0.000000 0.000000 0.000000 0.057880
#
#
# Mechanical properties :
#
#
# Convention : Reuss Voigt Hill
#
# Bulk Modulus (GPa) = 28.86947 35.74507 32.30727
# Shear Modulus (GPa) = 289.84277 17.89232 153.86754
#
# Velocity S-wave (km/s) = 11.55852 2.87180 8.42160
# Velocity P-wave (km/s) = 13.83617 5.24143 10.46213
#
# Compressibility (1/GPa) = 0.03463867
#
# Stress axis : x y z
#
# Youngs Moduli (GPa) = 63.70007 89.49308 23.50589
#
# Poissons Ratio (x) = -0.03738 0.36798
# Poissons Ratio (y) = -0.02661 0.05057
# Poissons Ratio (z) = 0.99721 0.19252
#
# Static dielectric constant tensor:
#      x y z
#    x 1.787190 0.000000 0.000000 
#    y 0.000000 1.907480 0.000000 
#    z 0.000000 0.000000 1.879880 
# 
# From -- ./inp_files/36891.got.cif
#   From: 2010.05.17/outbox.cif.g08.bks.cpg/sg24_19_cif.got.tgz:36891.got - 2010.06.04 00:33:39.
