data_PCOD9333835
_publ_section_title
;
Structure prediction by ZEFSAII (Michael W. Deem and Ramdas Pophale) SiO2 
 PCOD9333835
Probable space group: I 21 21 21
;
_chemical_formula_sum "Si O2"
_cell_formula_units_Z 40
_cell_length_a 7.818961
_cell_length_b 11.830216
_cell_length_c 15.655243
_cell_angle_alpha 90.000000
_cell_angle_beta 90.000000
_cell_angle_gamma 90.000000
_cell_volume 1448.109939
_symmetry_space_group_name_H-M "I 21 21 21"
_symmetry_group_IT_number 24
_symmetry_cell_setting 'orthorhombic'
loop_
_space_group_symop_operation_xyz
x,y,z
-x,1/2-y,z
x,-y,1/2-z
1/2-x,y,-z
1/2+x,1/2+y,1/2+z
1/2-x,-y,1/2+z
1/2+x,1/2-y,-z
-x,1/2+y,1/2-z
loop_
_atom_site_type_symbol
_atom_site_label
_atom_site_fract_x
_atom_site_fract_y
_atom_site_fract_z
Si Si1 0.500000 0.750000 0.514202
Si Si2 0.953943 0.123058 0.601919
Si Si3 0.087747 0.897256 0.646809
Si Si4 0.044671 0.621273 0.098195
Si Si5 0.217660 0.696573 0.324828
Si Si6 0.007105 0.000000 0.250000
O O1 0.425110 0.845596 0.450256
O O2 0.363730 0.695645 0.580047
O O3 0.749826 0.101713 0.607998
O O4 0.996314 0.109992 0.501701
O O5 0.000000 0.250000 0.627799
O O6 0.065492 0.030225 0.649669
O O7 0.242665 0.829586 0.691411
O O8 0.904915 0.855338 0.681733
O O9 0.936010 0.534968 0.155176
O O10 0.000000 0.750000 0.119772
O O11 0.100829 0.615674 0.269322
#
# Coordination Sequence:
#
# PCOD9333835 Si02
#       6
#     4   8   8   8   8   4
#     4  10  20  36  64  96 128 160 218 288 320 384
#     4  10  21  44  67  94 127 168 224 279 329 384
#     4  10  19  40  65  97 123 167 222 278 325 385
#     4  10  23  42  65  92 127 177 219 264 333 402
#     4  10  22  37  62  96 128 168 213 264 338 389
#     4  12  22  42  64  90 142 180 208 274 340 410
#
# _framework density 27.622209999999999
#
# number of rings (size 3 to 8) (size 9 to 14) (size 15 to 20)
#    0.000    2.000    2.000    3.600    4.200    0.000 
#   21.600    0.000    0.000    4.800    0.000    0.000 
#    0.000    0.000    0.000    0.000    0.000    0.000 
#
# Total GULP energy -111940.653341 kJ/mol
# GULP energy per Si atom -5597.032667 kJ/mol
# Density = 2.755934 g / cm^3
# Si number density = 27.622210 Si / 1000 Ang^3
#
#
#
# Elastic Constant Matrix: (Units=GPa)
#
#
# Indices 1 2 3 4 5 6 
#
# 1 136.5627 47.3091 15.5070 0.0000 0.0000 0.0000
# 2 47.3091 208.2446 33.6392 0.0000 0.0000 0.0000
# 3 15.5070 33.6392 117.6754 0.0000 0.0000 0.0000
# 4 0.0000 0.0000 0.0000 43.2196 0.0000 0.0000
# 5 0.0000 0.0000 0.0000 0.0000 9.3246 0.0000
# 6 0.0000 0.0000 0.0000 0.0000 0.0000 31.7881
#
#
#
# Elastic Compliance Matrix: (Units=1/GPa)
#
#
# Indices 1 2 3 4 5 6 
#
# 1 0.007983 -0.001723 -0.000559 0.000000 0.000000 0.000000
# 2 -0.001723 0.005407 -0.001318 0.000000 0.000000 0.000000
# 3 -0.000559 -0.001318 0.008949 0.000000 0.000000 0.000000
# 4 0.000000 0.000000 0.000000 0.023138 0.000000 0.000000
# 5 0.000000 0.000000 0.000000 0.000000 0.107243 0.000000
# 6 0.000000 0.000000 0.000000 0.000000 0.000000 0.031458
#
#
# Mechanical properties :
#
#
# Convention : Reuss Voigt Hill
#
# Bulk Modulus (GPa) = 66.06738 72.82147 69.44442
# Shear Modulus (GPa) = 25.45501 41.26830 33.36165
#
# Velocity S-wave (km/s) = 3.03898 3.86946 3.47909
# Velocity P-wave (km/s) = 6.02362 6.81059 6.42916
#
# Compressibility (1/GPa) = 0.01513606
#
# Stress axis : x y z
#
# Youngs Moduli (GPa) = 125.26391 184.96217 111.74981
#
# Poissons Ratio (x) = 0.31874 0.06251
# Poissons Ratio (y) = 0.21586 0.14734
# Poissons Ratio (z) = 0.07007 0.24386
#
# Static dielectric constant tensor:
#      x y z
#    x 2.245700 0.000000 0.000000 
#    y 0.000000 2.129270 0.000000 
#    z 0.000000 0.000000 2.202630 
# 
# From -- ./inp_files/29283.got.cif
#   From: 2010.05.17/outbox.cif.g08.bks.cpg/sg24_15_cif.got.tgz:29283.got - 2010.06.04 00:33:39.
