data_PCOD9333391
_publ_section_title
;
Structure prediction by ZEFSAII (Michael W. Deem and Ramdas Pophale) SiO2 
 PCOD9333391
Probable space group: I 21 21 21
;
_chemical_formula_sum "Si O2"
_cell_formula_units_Z 64
_cell_length_a 37.338336
_cell_length_b 9.204754
_cell_length_c 7.721433
_cell_angle_alpha 90.000000
_cell_angle_beta 90.000000
_cell_angle_gamma 90.000000
_cell_volume 2653.780834
_symmetry_space_group_name_H-M "I 21 21 21"
_symmetry_group_IT_number 24
_symmetry_cell_setting 'orthorhombic'
loop_
_space_group_symop_operation_xyz
x,y,z
-x,1/2-y,z
x,-y,1/2-z
1/2-x,y,-z
1/2+x,1/2+y,1/2+z
1/2-x,-y,1/2+z
1/2+x,1/2-y,-z
-x,1/2+y,1/2-z
loop_
_atom_site_type_symbol
_atom_site_label
_atom_site_fract_x
_atom_site_fract_y
_atom_site_fract_z
Si Si1 0.086575 0.502155 0.473412
Si Si2 0.090348 0.999532 0.981845
Si Si3 0.638207 0.243277 0.555148
Si Si4 0.211019 0.182858 0.940827
Si Si5 0.362681 0.737027 0.360642
Si Si6 0.540184 0.263182 0.839827
Si Si7 0.710313 0.650996 0.024421
Si Si8 0.459921 0.757288 0.072602
O O1 0.114723 0.391225 0.381129
O O2 0.111308 0.611017 0.579163
O O3 0.060048 0.611680 0.374637
O O4 0.061126 0.393727 0.582797
O O5 0.119997 0.106414 0.901314
O O6 0.114527 0.886023 0.092918
O O7 0.062623 0.106776 0.076169
O O8 0.066070 0.886811 0.868540
O O9 0.639838 0.225986 0.345998
O O10 0.679985 0.269558 0.588650
O O11 0.174607 0.273011 0.967289
O O12 0.207409 0.161154 0.732965
O O13 0.208630 0.020618 0.020107
O O14 0.250000 0.240775 0.000000
O O15 0.500000 0.250000 0.910732
O O16 0.537126 0.286810 0.634178
O O17 0.750000 0.709472 0.000000
O O18 0.500000 0.750000 0.145248
#
# Coordination Sequence:
#
# PCOD9333391 Si02
#       8
#     8   8   8   8   8   8   8   8
#     4  10  21  33  55  81 107 140 183 224 264 328
#     4  10  19  31  55  81  99 134 183 224 258 324
#     4  10  19  35  56  78 107 146 183 221 274 334
#     4   9  17  32  55  81 111 147 189 233 282 334
#     4  10  19  35  56  78 107 146 183 221 274 334
#     4  10  20  36  56  77 105 141 178 222 280 339
#     4   9  17  32  55  81 111 147 189 233 282 334
#     4  10  20  36  56  77 105 141 178 222 280 339
#
# _framework density 24.116537000000001
#
# number of rings (size 3 to 8) (size 9 to 14) (size 15 to 20)
#    0.000    2.250    1.250    2.250    0.000    2.000 
#    0.000    8.125    0.000   52.500    0.000    0.000 
#    0.000    0.000    0.000    0.000    0.000    0.000 
#
# Total GULP energy -178781.541283 kJ/mol
# GULP energy per Si atom -5586.923165 kJ/mol
# Density = 2.406165 g / cm^3
# Si number density = 24.116537 Si / 1000 Ang^3
#
#
#
# Elastic Constant Matrix: (Units=GPa)
#
#
# Indices 1 2 3 4 5 6 
#
# 1 215.8046 47.8353 11.9143 0.0000 0.0000 0.0000
# 2 47.8353 136.5724 11.7807 0.0000 0.0000 0.0000
# 3 11.9143 11.7807 38.8540 0.0000 0.0000 0.0000
# 4 0.0000 0.0000 0.0000 33.0450 0.0000 0.0000
# 5 0.0000 0.0000 0.0000 0.0000 28.5041 0.0000
# 6 0.0000 0.0000 0.0000 0.0000 0.0000 18.7777
#
#
#
# Elastic Compliance Matrix: (Units=1/GPa)
#
#
# Indices 1 2 3 4 5 6 
#
# 1 0.005065 -0.001684 -0.001042 0.000000 0.000000 0.000000
# 2 -0.001684 0.008079 -0.001933 0.000000 0.000000 0.000000
# 3 -0.001042 -0.001933 0.026643 0.000000 0.000000 0.000000
# 4 0.000000 0.000000 0.000000 0.030262 0.000000 0.000000
# 5 0.000000 0.000000 0.000000 0.000000 0.035083 0.000000
# 6 0.000000 0.000000 0.000000 0.000000 0.000000 0.053255
#
#
# Mechanical properties :
#
#
# Convention : Reuss Voigt Hill
#
# Bulk Modulus (GPa) = 32.82197 59.36573 46.09385
# Shear Modulus (GPa) = 28.11193 37.37875 32.74534
#
# Velocity S-wave (km/s) = 3.41790 3.94118 3.68883
# Velocity P-wave (km/s) = 5.40512 6.73648 6.10718
#
# Compressibility (1/GPa) = 0.03046739
#
# Stress axis : x y z
#
# Youngs Moduli (GPa) = 197.44705 123.78217 37.53312
#
# Poissons Ratio (x) = 0.20845 0.03913
# Poissons Ratio (y) = 0.33250 0.07256
# Poissons Ratio (z) = 0.20583 0.23928
#
# Static dielectric constant tensor:
#      x y z
#    x 2.011360 0.000000 0.000000 
#    y 0.000000 1.879010 0.000000 
#    z 0.000000 0.000000 2.084700 
# 
# From -- ./inp_files/23184.got.cif
#   From: 2010.05.17/outbox.cif.g08.bks.cpg/sg24_12_cif.got.tgz:23184.got - 2010.06.04 00:33:39.
