data_PCOD9333386
_publ_section_title
;
Structure prediction by ZEFSAII (Michael W. Deem and Ramdas Pophale) SiO2 
 PCOD9333386
Probable space group: I 21 21 21
;
_chemical_formula_sum "Si O2"
_cell_formula_units_Z 40
_cell_length_a 13.630793
_cell_length_b 13.559945
_cell_length_c 8.619246
_cell_angle_alpha 90.000000
_cell_angle_beta 90.000000
_cell_angle_gamma 90.000000
_cell_volume 1593.119401
_symmetry_space_group_name_H-M "I 21 21 21"
_symmetry_group_IT_number 24
_symmetry_cell_setting 'orthorhombic'
loop_
_space_group_symop_operation_xyz
x,y,z
-x,1/2-y,z
x,-y,1/2-z
1/2-x,y,-z
1/2+x,1/2+y,1/2+z
1/2-x,-y,1/2+z
1/2+x,1/2-y,-z
-x,1/2+y,1/2-z
loop_
_atom_site_type_symbol
_atom_site_label
_atom_site_fract_x
_atom_site_fract_y
_atom_site_fract_z
Si Si1 0.964162 0.403994 0.353352
Si Si2 0.849933 0.872293 0.931832
Si Si3 0.115216 0.403357 0.906758
Si Si4 0.883950 0.461251 0.910359
Si Si5 0.108711 0.773348 0.423569
O O1 0.998082 0.500000 0.250000
O O2 0.054995 0.362573 0.455402
O O3 0.882570 0.451513 0.464944
O O4 0.914822 0.324633 0.239738
O O5 0.867266 0.842970 0.752642
O O6 0.835624 0.990265 0.915402
O O7 0.750000 0.828089 0.000000
O O8 0.000969 0.438294 0.897937
O O9 0.147918 0.336639 0.054175
O O10 0.843641 0.500000 0.750000
O O11 0.845575 0.357528 0.970398
O O12 0.000000 0.750000 0.489533
#
# Coordination Sequence:
#
# PCOD9333386 Si02
#       5
#     8   8   8   8   8
#     4   9  17  29  48  73 103 144 191 228 277 338
#     4  10  19  31  52  76 114 164 192 217 272 359
#     4   9  17  33  47  72 104 157 192 224 279 326
#     4   9  14  30  49  67 101 140 177 221 288 338
#     4   9  18  30  47  69 106 141 184 240 280 325
#
# _framework density 25.107973000000001
#
# number of rings (size 3 to 8) (size 9 to 14) (size 15 to 20)
#    0.000    2.800    4.000    1.200    2.800    0.000 
#    3.600    0.000    0.000    0.000    0.000    0.000 
#    0.000    6.400   20.400    1.600    0.000    0.000 
#
# Total GULP energy -111526.629695 kJ/mol
# GULP energy per Si atom -5576.331485 kJ/mol
# Density = 2.505083 g / cm^3
# Si number density = 25.107973 Si / 1000 Ang^3
#
#
#
# Elastic Constant Matrix: (Units=GPa)
#
#
# Indices 1 2 3 4 5 6 
#
# 1 65.8524 -6.4911 8.1649 0.0000 0.0000 0.0000
# 2 -6.4911 116.8451 72.0920 0.0000 0.0000 0.0000
# 3 8.1649 72.0920 151.2786 0.0000 0.0000 0.0000
# 4 0.0000 0.0000 0.0000 45.5469 0.0000 0.0000
# 5 0.0000 0.0000 0.0000 0.0000 7.0917 0.0000
# 6 0.0000 0.0000 0.0000 0.0000 0.0000 -20.0772
#
#
#
# Elastic Compliance Matrix: (Units=1/GPa)
#
#
# Indices 1 2 3 4 5 6 
#
# 1 0.015599 0.001963 -0.001778 0.000000 0.000000 0.000000
# 2 0.001963 0.012370 -0.006001 0.000000 0.000000 0.000000
# 3 -0.001778 -0.006001 0.009566 0.000000 0.000000 0.000000
# 4 0.000000 0.000000 0.000000 0.021955 0.000000 0.000000
# 5 0.000000 0.000000 0.000000 0.000000 0.141010 0.000000
# 6 0.000000 0.000000 0.000000 0.000000 0.000000 -0.049808
#
#
# Mechanical properties :
#
#
# Convention : Reuss Voigt Hill
#
# Bulk Modulus (GPa) = 38.60248 53.50085 46.05166
# Shear Modulus (GPa) = 29.24695 23.85963 26.55329
#
# Velocity S-wave (km/s) = 3.41669 3.08601 3.25555
# Velocity P-wave (km/s) = 5.56534 5.83545 5.70199
#
# Compressibility (1/GPa) = 0.02590507
#
# Stress axis : x y z
#
# Youngs Moduli (GPa) = 64.10504 80.84171 104.53728
#
# Poissons Ratio (x) = -0.15872 0.18582
# Poissons Ratio (y) = -0.12586 0.62731
# Poissons Ratio (z) = 0.11395 0.48512
#
# Static dielectric constant tensor:
#      x y z
#    x 2.101390 0.000000 0.000000 
#    y 0.000000 2.116890 0.000000 
#    z 0.000000 0.000000 2.109410 
# 
# From -- ./inp_files/14010.got.cif
#   From: 2010.05.17/outbox.cif.g08.bks.cpg/sg24_8_cif.got.tgz:14010.got - 2010.06.04 00:33:39.
