data_PCOD9333213
_publ_section_title
;
Structure prediction by ZEFSAII (Michael W. Deem and Ramdas Pophale) SiO2 
 PCOD9333213
Probable space group: I 21 21 21
;
_chemical_formula_sum "Si O2"
_cell_formula_units_Z 44
_cell_length_a 12.110603
_cell_length_b 17.406423
_cell_length_c 9.023254
_cell_angle_alpha 90.000000
_cell_angle_beta 90.000000
_cell_angle_gamma 90.000000
_cell_volume 1902.122504
_symmetry_space_group_name_H-M "I 21 21 21"
_symmetry_group_IT_number 24
_symmetry_cell_setting 'orthorhombic'
loop_
_space_group_symop_operation_xyz
x,y,z
-x,1/2-y,z
x,-y,1/2-z
1/2-x,y,-z
1/2+x,1/2+y,1/2+z
1/2-x,-y,1/2+z
1/2+x,1/2-y,-z
-x,1/2+y,1/2-z
loop_
_atom_site_type_symbol
_atom_site_label
_atom_site_fract_x
_atom_site_fract_y
_atom_site_fract_z
Si Si1 0.930749 0.932346 0.469660
Si Si2 0.918611 0.103272 0.546328
Si Si3 0.227514 0.205510 0.320168
Si Si4 0.000000 0.250000 0.375070
Si Si5 0.255918 0.375796 0.216859
Si Si6 0.896148 0.412721 0.795376
O O1 0.840508 0.907634 0.594673
O O2 0.869008 0.896941 0.327670
O O3 0.046558 0.906159 0.543169
O O4 0.940724 0.024389 0.460033
O O5 0.803510 0.090182 0.632054
O O6 0.931537 0.184433 0.463992
O O7 0.010715 0.110382 0.675185
O O8 0.250000 0.200446 0.500000
O O9 0.096331 0.203907 0.294661
O O10 0.267012 0.285274 0.246754
O O11 0.291750 0.139206 0.236240
O O12 0.870409 0.500000 0.750000
#
# Coordination Sequence:
#
# PCOD9333213 Si02
#       6
#     8   8   8   4   8   8
#     4   9  21  37  65  98 137 176 236 278 351 427
#     4  10  18  36  63 100 134 176 227 287 339 411
#     4  12  23  40  69  98 137 179 227 292 343 413
#     4  12  24  38  64 104 134 170 242 280 340 410
#     4  10  20  38  61  99 137 180 222 284 347 414
#     4   9  19  40  69  99 127 178 235 282 348 412
#
# _framework density 23.132052999999999
#
# number of rings (size 3 to 8) (size 9 to 14) (size 15 to 20)
#    0.000    1.818    3.636    1.636    0.000    6.545 
#    0.000    5.455    4.000    0.000    0.000    0.000 
#    0.000    0.000    0.000    0.000    0.000    0.000 
#
# Total GULP energy -122807.961110 kJ/mol
# GULP energy per Si atom -5582.180050 kJ/mol
# Density = 2.307940 g / cm^3
# Si number density = 23.132053 Si / 1000 Ang^3
#
#
#
# Elastic Constant Matrix: (Units=GPa)
#
#
# Indices 1 2 3 4 5 6 
#
# 1 150.6430 61.5053 51.7792 0.0000 0.0000 0.0000
# 2 61.5053 81.6491 43.2122 0.0000 0.0000 0.0000
# 3 51.7792 43.2122 70.7487 -0.0001 -0.0001 0.0000
# 4 0.0000 0.0000 -0.0001 40.8413 0.0000 0.0000
# 5 0.0000 0.0000 -0.0001 0.0000 28.9267 0.0000
# 6 0.0000 0.0000 0.0000 0.0000 0.0000 30.5119
#
#
#
# Elastic Compliance Matrix: (Units=1/GPa)
#
#
# Indices 1 2 3 4 5 6 
#
# 1 0.010353 -0.005598 -0.004158 0.000000 0.000000 0.000000
# 2 -0.005598 0.021125 -0.008805 0.000000 0.000000 0.000000
# 3 -0.004158 -0.008805 0.022556 0.000000 0.000000 0.000000
# 4 0.000000 0.000000 0.000000 0.024485 0.000000 0.000000
# 5 0.000000 0.000000 0.000000 0.000000 0.034570 0.000000
# 6 0.000000 0.000000 0.000000 0.000000 0.000000 0.032774
#
#
# Mechanical properties :
#
#
# Convention : Reuss Voigt Hill
#
# Bulk Modulus (GPa) = 59.13471 68.44826 63.79148
# Shear Modulus (GPa) = 26.50789 29.82558 28.16674
#
# Velocity S-wave (km/s) = 3.38884 3.59466 3.49327
# Velocity P-wave (km/s) = 6.39780 6.84714 6.62628
#
# Compressibility (1/GPa) = 0.01691054
#
# Stress axis : x y z
#
# Youngs Moduli (GPa) = 96.58989 47.33736 44.33468
#
# Poissons Ratio (x) = 0.26501 0.18433
# Poissons Ratio (y) = 0.54075 0.39039
# Poissons Ratio (z) = 0.40160 0.41683
#
# Static dielectric constant tensor:
#      x y z
#    x 1.901470 0.000000 0.000000 
#    y 0.000000 1.841250 0.000000 
#    z 0.000000 0.000000 1.931770 
# 
# From -- ./inp_files/19635.got.cif
#   From: 2010.05.17/outbox.cif.g08.bks.cpg/sg24_10_cif.got.tgz:19635.got - 2010.06.04 00:33:39.
