data_PCOD9333428
_publ_section_title
;
Structure prediction by ZEFSAII (Michael W. Deem and Ramdas Pophale) SiO2 
 PCOD9333428
Probable space group: I 21 21 21
;
_chemical_formula_sum "Si O2"
_cell_formula_units_Z 60
_cell_length_a 9.569636
_cell_length_b 11.045411
_cell_length_c 26.700970
_cell_angle_alpha 90.000000
_cell_angle_beta 90.000000
_cell_angle_gamma 90.000000
_cell_volume 2822.307555
_symmetry_space_group_name_H-M "I 21 21 21"
_symmetry_group_IT_number 24
_symmetry_cell_setting 'orthorhombic'
loop_
_space_group_symop_operation_xyz
x,y,z
-x,1/2-y,z
x,-y,1/2-z
1/2-x,y,-z
1/2+x,1/2+y,1/2+z
1/2-x,-y,1/2+z
1/2+x,1/2-y,-z
-x,1/2+y,1/2-z
loop_
_atom_site_type_symbol
_atom_site_label
_atom_site_fract_x
_atom_site_fract_y
_atom_site_fract_z
Si Si1 0.335051 0.245614 0.175203
Si Si2 0.287525 0.418795 0.558941
Si Si3 0.346174 0.513992 0.155693
Si Si4 0.385843 0.978378 0.031390
Si Si5 0.000000 0.750000 0.030676
Si Si6 0.330996 0.986000 0.146991
Si Si7 0.404564 0.643612 0.519845
Si Si8 0.333650 0.754038 0.205555
O O1 0.500000 0.250000 0.160318
O O2 0.282473 0.379745 0.160409
O O3 0.270983 0.122076 0.152739
O O4 0.324040 0.232853 0.235024
O O5 0.250000 0.413010 0.500000
O O6 0.168481 0.435363 0.599172
O O7 0.378075 0.300240 0.565613
O O8 0.381878 0.538799 0.560526
O O9 0.509988 0.501963 0.168396
O O10 0.280975 0.621223 0.188977
O O11 0.343390 0.958185 0.088342
O O12 0.250000 0.016880 0.000000
O O13 0.442528 0.856641 0.004748
O O14 0.504157 0.081405 0.024463
O O15 0.271152 0.870647 0.176911
O O16 0.500000 0.750000 0.539322
O O17 0.250000 0.678363 0.500000
O O18 0.500000 0.750000 0.192407
#
# Coordination Sequence:
#
# PCOD9333428 Si02
#       8
#     8   8   8   8   4   8   8   8
#     4   9  18  33  48  75 114 149 186 236 295 359
#     4  10  21  35  53  79 113 152 193 239 281 344
#     4  10  19  32  55  78 111 156 195 230 292 357
#     4  11  24  36  56  84 120 159 200 246 295 358
#     4  10  22  36  54  74 120 150 198 250 292 332
#     4  10  20  30  51  80 115 158 190 234 293 354
#     4  10  21  38  57  79 116 160 202 240 287 343
#     4   9  18  30  50  77 112 149 189 238 293 355
#
# _framework density 21.259198999999999
#
# number of rings (size 3 to 8) (size 9 to 14) (size 15 to 20)
#    0.000    2.133    0.000    4.000    6.533    8.533 
#    0.000    0.000    0.000    0.000    0.000    0.000 
#   24.000    0.000    0.000    0.000    0.000    0.000 
#
# Total GULP energy -167268.698247 kJ/mol
# GULP energy per Si atom -5575.623275 kJ/mol
# Density = 2.121081 g / cm^3
# Si number density = 21.259199 Si / 1000 Ang^3
#
#
#
# Elastic Constant Matrix: (Units=GPa)
#
#
# Indices 1 2 3 4 5 6 
#
# 1 46.7553 30.4125 5.0965 0.0000 0.0000 0.0000
# 2 30.4125 143.0357 15.4388 0.0000 0.0000 0.0000
# 3 5.0965 15.4388 29.8848 0.0000 0.0000 0.0000
# 4 0.0000 0.0000 0.0000 2.8930 0.0000 0.0000
# 5 0.0000 0.0000 0.0000 0.0000 11.6554 0.0000
# 6 0.0000 0.0000 0.0000 0.0000 0.0000 18.5730
#
#
#
# Elastic Compliance Matrix: (Units=1/GPa)
#
#
# Indices 1 2 3 4 5 6 
#
# 1 0.024893 -0.005120 -0.001600 0.000000 0.000000 0.000000
# 2 -0.005120 0.008457 -0.003496 0.000000 0.000000 0.000000
# 3 -0.001600 -0.003496 0.035541 0.000000 0.000000 0.000000
# 4 0.000000 0.000000 0.000000 0.345660 0.000000 0.000000
# 5 0.000000 0.000000 0.000000 0.000000 0.085797 0.000000
# 6 0.000000 0.000000 0.000000 0.000000 0.000000 0.053842
#
#
# Mechanical properties :
#
#
# Convention : Reuss Voigt Hill
#
# Bulk Modulus (GPa) = 20.63620 35.73017 28.18318
# Shear Modulus (GPa) = 8.46346 17.87281 13.16814
#
# Velocity S-wave (km/s) = 1.99743 2.90264 2.49149
# Velocity P-wave (km/s) = 3.87913 5.29879 4.64354
#
# Compressibility (1/GPa) = 0.04845854
#
# Stress axis : x y z
#
# Youngs Moduli (GPa) = 40.17229 118.24192 28.13675
#
# Poissons Ratio (x) = 0.60540 0.04502
# Poissons Ratio (y) = 0.20568 0.09836
# Poissons Ratio (z) = 0.06428 0.41337
#
# Static dielectric constant tensor:
#      x y z
#    x 1.807420 0.000000 0.000000 
#    y 0.000000 1.881660 0.000000 
#    z 0.000000 0.000000 1.748950 
# 
# From -- ./inp_files/38583.got.cif
#   From: 2010.05.17/outbox.cif.g08.bks.cpg/sg24_20_cif.got.tgz:38583.got - 2010.06.04 00:33:39.
