data_PCOD9333466
_publ_section_title
;
Structure prediction by ZEFSAII (Michael W. Deem and Ramdas Pophale) SiO2 
 PCOD9333466
Probable space group: I 21 21 21
;
_chemical_formula_sum "Si O2"
_cell_formula_units_Z 40
_cell_length_a 21.114632
_cell_length_b 6.147446
_cell_length_c 14.754433
_cell_angle_alpha 90.000000
_cell_angle_beta 90.000000
_cell_angle_gamma 90.000000
_cell_volume 1915.141044
_symmetry_space_group_name_H-M "I 21 21 21"
_symmetry_group_IT_number 24
_symmetry_cell_setting 'orthorhombic'
loop_
_space_group_symop_operation_xyz
x,y,z
-x,1/2-y,z
x,-y,1/2-z
1/2-x,y,-z
1/2+x,1/2+y,1/2+z
1/2-x,-y,1/2+z
1/2+x,1/2-y,-z
-x,1/2+y,1/2-z
loop_
_atom_site_type_symbol
_atom_site_label
_atom_site_fract_x
_atom_site_fract_y
_atom_site_fract_z
Si Si1 0.848824 0.649277 0.531168
Si Si2 0.595780 0.970278 0.155154
Si Si3 0.066801 0.231404 0.479498
Si Si4 0.804493 0.964731 0.075935
Si Si5 0.715680 0.335660 0.331294
O O1 0.909342 0.510896 0.499825
O O2 0.800516 0.484359 0.580492
O O3 0.871187 0.821184 0.607967
O O4 0.820474 0.783512 0.446025
O O5 0.557879 0.861883 0.073733
O O6 0.651704 0.802695 0.181195
O O7 0.559946 0.000000 0.250000
O O8 0.128461 0.346226 0.437040
O O9 0.000000 0.250000 0.429269
O O10 0.770766 0.843449 0.158647
O O11 0.750000 0.923256 0.000000
O O12 0.727814 0.500000 0.250000
#
# Coordination Sequence:
#
# PCOD9333466 Si02
#       5
#     8   8   8   8   8
#     4  10  20  35  60  77 127 158 208 265 306 380
#     4  10  19  33  53  85 118 163 207 245 314 377
#     4  10  23  39  55  84 122 169 213 251 314 381
#     4  11  21  34  59  90 114 164 218 257 319 370
#     4  11  21  34  58  92 126 162 202 269 331 370
#
# _framework density 20.886191
#
# number of rings (size 3 to 8) (size 9 to 14) (size 15 to 20)
#    0.000    1.600    8.000    0.000    2.800    3.200 
#    3.600    0.000    0.000    0.000    0.000    4.200 
#    0.000    0.000    0.000    0.000    0.000    0.000 
#
# Total GULP energy -111446.222965 kJ/mol
# GULP energy per Si atom -5572.311148 kJ/mol
# Density = 2.083865 g / cm^3
# Si number density = 20.886191 Si / 1000 Ang^3
#
#
#
# Elastic Constant Matrix: (Units=GPa)
#
#
# Indices 1 2 3 4 5 6 
#
# 1 106.9731 19.3807 7.3773 0.0000 0.0000 0.0000
# 2 19.3807 116.3406 19.7422 0.0000 0.0000 0.0000
# 3 7.3773 19.7422 14.1394 0.0000 0.0000 0.0000
# 4 0.0000 0.0000 0.0000 38.8864 0.0000 0.0000
# 5 0.0000 0.0000 0.0000 0.0000 8.5981 0.0000
# 6 0.0000 0.0000 0.0000 0.0000 0.0000 17.6421
#
#
#
# Elastic Compliance Matrix: (Units=1/GPa)
#
#
# Indices 1 2 3 4 5 6 
#
# 1 0.009785 -0.001001 -0.003708 0.000000 0.000000 0.000000
# 2 -0.001001 0.011367 -0.015349 0.000000 0.000000 0.000000
# 3 -0.003708 -0.015349 0.094089 0.000000 0.000000 0.000000
# 4 0.000000 0.000000 0.000000 0.025716 0.000000 0.000000
# 5 0.000000 0.000000 0.000000 0.000000 0.116305 0.000000
# 6 0.000000 0.000000 0.000000 0.000000 0.000000 0.056683
#
#
# Mechanical properties :
#
#
# Convention : Reuss Voigt Hill
#
# Bulk Modulus (GPa) = 13.31091 36.71703 25.01397
# Shear Modulus (GPa) = 13.18906 25.75551 19.47228
#
# Velocity S-wave (km/s) = 2.51564 3.51541 3.05668
# Velocity P-wave (km/s) = 3.85030 5.83911 4.94571
#
# Compressibility (1/GPa) = 0.07512633
#
# Stress axis : x y z
#
# Youngs Moduli (GPa) = 102.19521 87.97613 10.62820
#
# Poissons Ratio (x) = 0.08805 0.03941
# Poissons Ratio (y) = 0.10228 0.16313
# Poissons Ratio (z) = 0.37894 1.35031
#
# Static dielectric constant tensor:
#      x y z
#    x 1.741650 0.000000 0.000000 
#    y 0.000000 1.808560 0.000000 
#    z 0.000000 0.000000 1.844340 
# 
# From -- ./inp_files/4667.got.cif
#   From: 2010.05.17/outbox.cif.g08.bks.cpg/sg24_3_cif.got.tgz:4667.got - 2010.06.04 00:33:39.
