data_PCOD9333469
_publ_section_title
;
Structure prediction by ZEFSAII (Michael W. Deem and Ramdas Pophale) SiO2 
 PCOD9333469
Probable space group: I 21 21 21
;
_chemical_formula_sum "Si O2"
_cell_formula_units_Z 64
_cell_length_a 7.771366
_cell_length_b 18.897847
_cell_length_c 21.915770
_cell_angle_alpha 90.000000
_cell_angle_beta 90.000000
_cell_angle_gamma 90.000000
_cell_volume 3218.595691
_symmetry_space_group_name_H-M "I 21 21 21"
_symmetry_group_IT_number 24
_symmetry_cell_setting 'orthorhombic'
loop_
_space_group_symop_operation_xyz
x,y,z
-x,1/2-y,z
x,-y,1/2-z
1/2-x,y,-z
1/2+x,1/2+y,1/2+z
1/2-x,-y,1/2+z
1/2+x,1/2-y,-z
-x,1/2+y,1/2-z
loop_
_atom_site_type_symbol
_atom_site_label
_atom_site_fract_x
_atom_site_fract_y
_atom_site_fract_z
Si Si1 0.455124 0.420498 0.247453
Si Si2 0.955552 0.666851 0.866978
Si Si3 0.543186 0.666584 1.000000
Si Si4 0.544876 0.079502 0.752547
Si Si5 0.042244 0.332944 0.867628
Si Si6 0.044448 0.833149 0.133022
Si Si7 0.957756 0.167056 0.132371
Si Si8 0.543329 0.833474 0.500000
O O1 0.525661 0.500000 0.250000
O O2 0.480953 0.378458 0.310199
O O3 0.250000 0.425915 0.237880
O O4 0.525185 0.376510 0.189906
O O5 0.750000 0.661988 0.867736
O O6 0.000000 0.750000 0.859679
O O7 0.021215 0.641090 0.933793
O O8 0.500000 0.750000 1.000000
O O9 0.478785 0.641090 0.933792
O O10 0.750000 0.658270 0.000000
O O11 0.519047 0.121542 0.689801
O O12 0.474815 0.123490 0.810094
O O13 0.474339 0.000000 0.750000
O O14 0.250000 0.337700 0.868288
O O15 0.000000 0.250000 0.861192
O O16 0.979114 0.359670 0.934160
O O17 0.000000 0.750000 0.140321
O O18 0.020886 0.140330 0.065840
O O19 0.000000 0.250000 0.138808
O O20 0.500000 0.750000 0.500000
O O21 0.750000 0.841542 0.500000
#
# Coordination Sequence:
#
# PCOD9333469 Si02
#       8
#     8   8   8   8   8   8   8   8
#     4  10  21  35  48  68 101 135 166 203 244 287
#     4  10  19  33  54  77 100 128 164 205 250 299
#     4   8  16  30  49  74 100 124 156 202 249 294
#     4  10  21  35  48  68 101 135 166 203 244 287
#     4   9  17  30  49  70  92 119 153 194 237 282
#     4  10  19  33  54  77 100 128 164 205 250 299
#     4   9  17  30  49  70  92 119 153 194 237 282
#     4   8  14  26  45  68  90 114 148 190 235 280
#
# _framework density 19.884449
#
# number of rings (size 3 to 8) (size 9 to 14) (size 15 to 20)
#    0.000    2.750    0.000    1.500    0.000    4.500 
#    0.000    1.250    0.000    3.000    0.000    5.250 
#    0.000    0.000    0.000    0.000    0.000    0.000 
#
# Total GULP energy -178292.796563 kJ/mol
# GULP energy per Si atom -5571.649893 kJ/mol
# Density = 1.983919 g / cm^3
# Si number density = 19.884449 Si / 1000 Ang^3
#
#
#
# Elastic Constant Matrix: (Units=GPa)
#
#
# Indices 1 2 3 4 5 6 
#
# 1 29.1812 0.3563 0.7351 0.0000 0.0000 0.0000
# 2 0.3563 85.2144 93.9104 0.0000 0.0000 0.0000
# 3 0.7351 93.9104 246.7636 0.0000 0.0000 0.0000
# 4 0.0000 0.0000 0.0000 -7.0318 0.0000 0.0000
# 5 0.0000 0.0000 0.0000 0.0000 17.6926 0.0000
# 6 0.0000 0.0000 0.0000 0.0000 0.0000 14.0377
#
#
#
# Elastic Compliance Matrix: (Units=1/GPa)
#
#
# Indices 1 2 3 4 5 6 
#
# 1 0.034271 -0.000053 -0.000082 0.000000 0.000000 0.000000
# 2 -0.000053 0.020212 -0.007692 0.000000 0.000000 0.000000
# 3 -0.000082 -0.007692 0.006980 0.000000 0.000000 0.000000
# 4 0.000000 0.000000 0.000000 -0.142210 0.000000 0.000000
# 5 0.000000 0.000000 0.000000 0.000000 0.056521 0.000000
# 6 0.000000 0.000000 0.000000 0.000000 0.000000 0.071237
#
#
# Mechanical properties :
#
#
# Convention : Reuss Voigt Hill
#
# Bulk Modulus (GPa) = 21.82940 61.24033 41.53486
# Shear Modulus (GPa) = 64.15635 22.68352 43.41993
#
# Velocity S-wave (km/s) = 5.68635 3.38119 4.67798
# Velocity P-wave (km/s) = 7.35628 6.79030 7.07895
#
# Compressibility (1/GPa) = 0.04580979
#
# Stress axis : x y z
#
# Youngs Moduli (GPa) = 29.17886 49.47494 143.26591
#
# Poissons Ratio (x) = 0.00262 0.01174
# Poissons Ratio (y) = 0.00155 1.10200
# Poissons Ratio (z) = 0.00239 0.38056
#
# Static dielectric constant tensor:
#      x y z
#    x 1.740800 0.000000 0.000000 
#    y 0.000000 1.644150 0.000000 
#    z 0.000000 0.000000 1.772110 
# 
# From -- ./inp_files/33032.got.cif
#   From: 2010.05.17/outbox.cif.g08.bks.cpg/sg24_17_cif.got.tgz:33032.got - 2010.06.04 00:33:39.
