data_PCOD9333108
_publ_section_title
;
Structure prediction by ZEFSAII (Michael W. Deem and Ramdas Pophale) SiO2 
 PCOD9333108
Probable space group: I 21 21 21
;
_chemical_formula_sum "Si O2"
_cell_formula_units_Z 60
_cell_length_a 5.783500
_cell_length_b 25.997626
_cell_length_c 16.396814
_cell_angle_alpha 90.000000
_cell_angle_beta 90.000000
_cell_angle_gamma 90.000000
_cell_volume 2465.380189
_symmetry_space_group_name_H-M "I 21 21 21"
_symmetry_group_IT_number 24
_symmetry_cell_setting 'orthorhombic'
loop_
_space_group_symop_operation_xyz
x,y,z
-x,1/2-y,z
x,-y,1/2-z
1/2-x,y,-z
1/2+x,1/2+y,1/2+z
1/2-x,-y,1/2+z
1/2+x,1/2-y,-z
-x,1/2+y,1/2-z
loop_
_atom_site_type_symbol
_atom_site_label
_atom_site_fract_x
_atom_site_fract_y
_atom_site_fract_z
Si Si1 0.619500 0.655322 0.710233
Si Si2 0.430584 0.556187 0.217461
Si Si3 0.380835 0.931896 0.583109
Si Si4 0.250000 0.627477 0.500000
Si Si5 0.706204 0.378256 0.616184
Si Si6 0.744537 0.263756 0.408563
Si Si7 0.886913 0.843737 0.665495
Si Si8 0.917110 0.036140 0.424810
O O1 0.677222 0.602521 0.660082
O O2 0.572659 0.640325 0.802628
O O3 0.375425 0.678211 0.679155
O O4 0.873809 0.681510 0.700048
O O5 0.513918 0.500000 0.250000
O O6 0.601610 0.584359 0.154046
O O7 0.376374 0.600157 0.285930
O O8 0.213520 0.541373 0.160835
O O9 0.250000 0.919060 0.500000
O O10 0.632132 0.911205 0.562435
O O11 0.391844 0.992385 0.589570
O O12 0.093752 0.657324 0.565789
O O13 0.787064 0.324622 0.582440
O O14 0.540191 0.410064 0.557826
O O15 0.500000 0.250000 0.366912
O O16 0.750000 0.239563 0.500000
O O17 0.000000 0.250000 0.372887
O O18 0.750000 0.022888 0.500000
#
# Coordination Sequence:
#
# PCOD9333108 Si02
#       8
#     8   8   8   4   8   8   8   8
#     4  10  21  38  58  85 117 165 209 267 309 384
#     4  11  25  41  58  87 134 182 224 277 331 399
#     4  11  22  35  53  77 121 173 224 259 303 363
#     4  10  18  34  52  74 106 170 226 268 290 372
#     4  11  27  41  67  92 128 169 226 282 344 421
#     4  10  25  48  77 102 130 166 216 293 371 420
#     4  10  20  35  54  79 114 163 217 258 315 360
#     4  12  28  37  56  85 125 178 236 279 322 390
#
# _framework density 24.337015999999998
#
# number of rings (size 3 to 8) (size 9 to 14) (size 15 to 20)
#    0.000    1.333    3.333    1.600    9.333    0.533 
#    0.000    0.000    0.000    0.000    0.000    0.000 
#    0.000    1.067    0.000    0.267    0.000    0.000 
#
# Total GULP energy -167080.062036 kJ/mol
# GULP energy per Si atom -5569.335401 kJ/mol
# Density = 2.428162 g / cm^3
# Si number density = 24.337016 Si / 1000 Ang^3
#
#
#
# Elastic Constant Matrix: (Units=GPa)
#
#
# Indices 1 2 3 4 5 6 
#
# 1 141.6358 20.9223 14.9775 0.0000 0.0000 0.0000
# 2 20.9223 47.3123 -1.3603 0.0000 0.0000 0.0000
# 3 14.9775 -1.3603 96.1621 0.0000 0.0000 0.0000
# 4 0.0000 0.0000 0.0000 13.3455 0.0000 0.0000
# 5 0.0000 0.0000 0.0000 0.0000 31.3484 0.0000
# 6 0.0000 0.0000 0.0000 0.0000 0.0000 12.5233
#
#
#
# Elastic Compliance Matrix: (Units=1/GPa)
#
#
# Indices 1 2 3 4 5 6 
#
# 1 0.007701 -0.003441 -0.001248 0.000000 0.000000 0.000000
# 2 -0.003441 0.022683 0.000857 0.000000 0.000000 0.000000
# 3 -0.001248 0.000857 0.010606 0.000000 0.000000 0.000000
# 4 0.000000 0.000000 0.000000 0.074932 0.000000 0.000000
# 5 0.000000 0.000000 0.000000 0.000000 0.031900 0.000000
# 6 0.000000 0.000000 0.000000 0.000000 0.000000 0.079851
#
#
# Mechanical properties :
#
#
# Convention : Reuss Voigt Hill
#
# Bulk Modulus (GPa) = 30.00847 39.35433 34.68140
# Shear Modulus (GPa) = 20.28854 28.14813 24.21834
#
# Velocity S-wave (km/s) = 2.89043 3.40457 3.15798
# Velocity P-wave (km/s) = 4.84733 5.62676 5.25153
#
# Compressibility (1/GPa) = 0.03332392
#
# Stress axis : x y z
#
# Youngs Moduli (GPa) = 129.85866 44.08667 94.28965
#
# Poissons Ratio (x) = 0.15171 0.11768
# Poissons Ratio (y) = 0.44688 -0.08079
# Poissons Ratio (z) = 0.16207 -0.03778
#
# Static dielectric constant tensor:
#      x y z
#    x 2.102080 0.000000 0.000000 
#    y 0.000000 1.951000 0.000000 
#    z 0.000000 0.000000 2.023850 
# 
# From -- ./inp_files/28920.got.cif
#   From: 2010.05.17/outbox.cif.g08.bks.cpg/sg24_15_cif.got.tgz:28920.got - 2010.06.04 00:33:39.
