data_PCOD9333082
_publ_section_title
;
Structure prediction by ZEFSAII (Michael W. Deem and Ramdas Pophale) SiO2 
 PCOD9333082
Probable space group: I 21 21 21
;
_chemical_formula_sum "Si O2"
_cell_formula_units_Z 48
_cell_length_a 10.478142
_cell_length_b 29.344259
_cell_length_c 7.191383
_cell_angle_alpha 90.000000
_cell_angle_beta 90.000000
_cell_angle_gamma 90.000000
_cell_volume 2211.158354
_symmetry_space_group_name_H-M "I 21 21 21"
_symmetry_group_IT_number 24
_symmetry_cell_setting 'orthorhombic'
loop_
_space_group_symop_operation_xyz
x,y,z
-x,1/2-y,z
x,-y,1/2-z
1/2-x,y,-z
1/2+x,1/2+y,1/2+z
1/2-x,-y,1/2+z
1/2+x,1/2-y,-z
-x,1/2+y,1/2-z
loop_
_atom_site_type_symbol
_atom_site_label
_atom_site_fract_x
_atom_site_fract_y
_atom_site_fract_z
Si Si1 0.102718 0.561068 0.434586
Si Si2 0.650974 0.848684 0.720725
Si Si3 0.134056 0.755326 0.299914
Si Si4 0.564824 0.868466 0.131803
Si Si5 0.098704 0.789406 0.713410
Si Si6 0.594749 0.964217 0.995754
O O1 0.250000 0.558451 0.500000
O O2 0.084390 0.615818 0.421583
O O3 0.048168 0.515645 0.535046
O O4 0.074036 0.548654 0.219693
O O5 0.661095 0.797300 0.652785
O O6 0.795705 0.862792 0.774740
O O7 0.579129 0.851563 0.918401
O O8 0.108326 0.783491 0.489112
O O9 0.259891 0.777276 0.214005
O O10 0.000000 0.750000 0.193917
O O11 0.458054 0.837486 0.225809
O O12 0.542886 0.922854 0.120160
O O13 0.000000 0.750000 0.771104
O O14 0.750000 0.962958 0.000000
#
# Coordination Sequence:
#
# PCOD9333082 Si02
#       6
#     8   8   8   8   8   8
#     4   9  17  24  48  76 115 159 187 241 308 368
#     4  10  19  33  52  81 116 158 203 252 315 374
#     4  10  22  37  52  80 116 155 214 266 304 363
#     4  10  18  33  54  78 115 163 204 249 311 380
#     4  10  20  35  57  78 110 163 211 251 309 362
#     4   9  15  30  44  77 116 154 197 239 298 384
#
# _framework density 21.708079000000001
#
# number of rings (size 3 to 8) (size 9 to 14) (size 15 to 20)
#    0.000    2.333    5.000    0.000    2.333    0.667 
#    0.000    0.000    0.000    0.000    0.000    0.000 
#    0.000    2.667   61.000    7.833    2.667    0.500 
#
# Total GULP energy -133676.409596 kJ/mol
# GULP energy per Si atom -5569.850400 kJ/mol
# Density = 2.165867 g / cm^3
# Si number density = 21.708079 Si / 1000 Ang^3
#
#
#
# Elastic Constant Matrix: (Units=GPa)
#
#
# Indices 1 2 3 4 5 6 
#
# 1 107.4001 46.3162 29.9715 0.0029 0.0004 0.0003
# 2 46.3162 218.5444 59.6030 0.0023 -0.0003 0.0002
# 3 29.9715 59.6030 78.9320 0.0060 0.0034 0.0024
# 4 0.0029 0.0023 0.0060 21.8114 -0.0005 0.0005
# 5 0.0004 -0.0003 0.0034 -0.0005 6.7224 -0.0004
# 6 0.0003 0.0002 0.0024 0.0005 -0.0004 15.4532
#
#
#
# Elastic Compliance Matrix: (Units=1/GPa)
#
#
# Indices 1 2 3 4 5 6 
#
# 1 0.010777 -0.001471 -0.002982 0.000000 0.000001 0.000000
# 2 -0.001471 0.005963 -0.003944 0.000001 0.000002 0.000001
# 3 -0.002982 -0.003944 0.016780 -0.000004 -0.000009 -0.000003
# 4 0.000000 0.000001 -0.000004 0.045848 0.000003 -0.000001
# 5 0.000001 0.000002 -0.000009 0.000003 0.148757 0.000004
# 6 0.000000 0.000001 -0.000003 -0.000001 0.000004 0.064711
#
#
# Mechanical properties :
#
#
# Convention : Reuss Voigt Hill
#
# Bulk Modulus (GPa) = 59.78522 75.18421 67.48472
# Shear Modulus (GPa) = 15.86266 26.72979 21.29623
#
# Velocity S-wave (km/s) = 2.70613 3.51284 3.13553
# Velocity P-wave (km/s) = 6.11265 7.15281 6.65309
#
# Compressibility (1/GPa) = 0.01672654
#
# Stress axis : x y z
#
# Youngs Moduli (GPa) = 92.78717 167.69513 59.59554
#
# Poissons Ratio (x) = 0.24666 0.17769
# Poissons Ratio (y) = 0.13648 0.23507
# Poissons Ratio (z) = 0.27665 0.66146
#
# Static dielectric constant tensor:
#      x y z
#    x 1.789700 0.000000 0.000000 
#    y 0.000000 1.864890 0.000000 
#    z 0.000000 0.000000 1.893890 
# 
# From -- ./inp_files/11414.got.cif
#   From: 2010.05.17/outbox.cif.g08.bks.cpg/sg24_6_cif.got.tgz:11414.got - 2010.06.04 00:33:39.
