data_PCOD9333681
_publ_section_title
;
Structure prediction by ZEFSAII (Michael W. Deem and Ramdas Pophale) SiO2 
 PCOD9333681
Probable space group: I 21 21 21
;
_chemical_formula_sum "Si O2"
_cell_formula_units_Z 48
_cell_length_a 12.849809
_cell_length_b 13.780474
_cell_length_c 14.314021
_cell_angle_alpha 90.000000
_cell_angle_beta 90.000000
_cell_angle_gamma 90.000000
_cell_volume 2534.676150
_symmetry_space_group_name_H-M "I 21 21 21"
_symmetry_group_IT_number 24
_symmetry_cell_setting 'orthorhombic'
loop_
_space_group_symop_operation_xyz
x,y,z
-x,1/2-y,z
x,-y,1/2-z
1/2-x,y,-z
1/2+x,1/2+y,1/2+z
1/2-x,-y,1/2+z
1/2+x,1/2-y,-z
-x,1/2+y,1/2-z
loop_
_atom_site_type_symbol
_atom_site_label
_atom_site_fract_x
_atom_site_fract_y
_atom_site_fract_z
Si Si1 0.750000 0.960402 0.500000
Si Si2 0.343947 0.419868 0.674641
Si Si3 0.056532 0.341182 0.915157
Si Si4 0.355525 0.186811 0.456817
Si Si5 0.883536 0.159814 0.705552
Si Si6 0.500000 0.750000 0.884773
Si Si7 0.572683 0.482048 0.351471
O O1 0.658559 0.891936 0.458466
O O2 0.689672 0.027760 0.576647
O O3 0.382087 0.500000 0.750000
O O4 0.232145 0.382236 0.709804
O O5 0.423126 0.328079 0.664974
O O6 0.089056 0.309543 0.810177
O O7 0.000000 0.250000 0.963489
O O8 0.968559 0.422722 0.901162
O O9 0.250000 0.225520 0.500000
O O10 0.385340 0.255788 0.370953
O O11 0.433641 0.185896 0.542851
O O12 0.351079 0.080408 0.414283
O O13 0.967522 0.080568 0.670816
O O14 0.620435 0.500000 0.250000
#
# Coordination Sequence:
#
# PCOD9333681 Si02
#       7
#     4   8   8   8   8   4   8
#     4  12  22  42  68  92 130 170 222 270 316 398
#     4  12  23  43  68  97 131 170 218 264 330 389
#     4  11  23  39  63  92 124 168 218 261 316 383
#     4  12  22  36  63  97 129 155 209 272 327 381
#     4  11  18  38  67  96 120 152 208 276 323 370
#     4  12  24  38  66 104 128 164 216 268 328 390
#     4  10  19  36  60  92 122 156 204 268 324 366
#
# _framework density 18.937329999999999
#
# number of rings (size 3 to 8) (size 9 to 14) (size 15 to 20)
#    0.000    0.667    6.667    4.500    0.000    0.000 
#    3.000    0.833    0.000    0.000    0.000    0.000 
#    0.000    0.000    0.000    0.000    0.000    0.000 
#
# Total GULP energy -133864.632914 kJ/mol
# GULP energy per Si atom -5577.693038 kJ/mol
# Density = 1.889423 g / cm^3
# Si number density = 18.937330 Si / 1000 Ang^3
#
#
#
# Elastic Constant Matrix: (Units=GPa)
#
#
# Indices 1 2 3 4 5 6 
#
# 1 37.5834 25.2503 16.9310 0.0000 0.0000 0.0000
# 2 25.2503 100.5613 43.8909 0.0000 0.0000 0.0000
# 3 16.9310 43.8909 71.6611 0.0000 0.0000 0.0000
# 4 0.0000 0.0000 0.0000 -12.4382 0.0000 0.0000
# 5 0.0000 0.0000 0.0000 0.0000 16.5465 0.0000
# 6 0.0000 0.0000 0.0000 0.0000 0.0000 35.1166
#
#
#
# Elastic Compliance Matrix: (Units=1/GPa)
#
#
# Indices 1 2 3 4 5 6 
#
# 1 0.032703 -0.006605 -0.003681 0.000000 0.000000 0.000000
# 2 -0.006605 0.014906 -0.007569 0.000000 0.000000 0.000000
# 3 -0.003681 -0.007569 0.019460 0.000000 0.000000 0.000000
# 4 0.000000 0.000000 0.000000 -0.080397 0.000000 0.000000
# 5 0.000000 0.000000 0.000000 0.000000 0.060436 0.000000
# 6 0.000000 0.000000 0.000000 0.000000 0.000000 0.028477
#
#
# Mechanical properties :
#
#
# Convention : Reuss Voigt Hill
#
# Bulk Modulus (GPa) = 31.88868 42.43892 37.16380
# Shear Modulus (GPa) = 41.06802 16.09387 28.58095
#
# Velocity S-wave (km/s) = 4.66190 2.91838 3.88911
# Velocity P-wave (km/s) = 6.77152 5.81505 6.31143
#
# Compressibility (1/GPa) = 0.03135909
#
# Stress axis : x y z
#
# Youngs Moduli (GPa) = 30.57786 67.08556 51.38641
#
# Poissons Ratio (x) = 0.44309 0.18917
# Poissons Ratio (y) = 0.20196 0.38896
# Poissons Ratio (z) = 0.11257 0.50779
#
# Static dielectric constant tensor:
#      x y z
#    x 1.701370 0.000000 0.000000 
#    y 0.000000 1.713420 0.000000 
#    z 0.000000 0.000000 1.687850 
# 
# From -- ./inp_files/20763.got.cif
#   From: 2010.05.17/outbox.cif.g08.bks.cpg/sg24_11_cif.got.tgz:20763.got - 2010.06.04 00:33:39.
