data_PCOD9333781
_publ_section_title
;
Structure prediction by ZEFSAII (Michael W. Deem and Ramdas Pophale) SiO2 
 PCOD9333781
Probable space group: I 21 21 21
;
_chemical_formula_sum "Si O2"
_cell_formula_units_Z 52
_cell_length_a 17.906182
_cell_length_b 6.176389
_cell_length_c 21.071933
_cell_angle_alpha 90.000000
_cell_angle_beta 90.000000
_cell_angle_gamma 90.000000
_cell_volume 2330.461926
_symmetry_space_group_name_H-M "I 21 21 21"
_symmetry_group_IT_number 24
_symmetry_cell_setting 'orthorhombic'
loop_
_space_group_symop_operation_xyz
x,y,z
-x,1/2-y,z
x,-y,1/2-z
1/2-x,y,-z
1/2+x,1/2+y,1/2+z
1/2-x,-y,1/2+z
1/2+x,1/2-y,-z
-x,1/2+y,1/2-z
loop_
_atom_site_type_symbol
_atom_site_label
_atom_site_fract_x
_atom_site_fract_y
_atom_site_fract_z
Si Si1 0.143602 0.512779 0.319345
Si Si2 0.000000 0.250000 0.951741
Si Si3 0.921957 0.649242 0.091396
Si Si4 0.034689 0.500000 0.750000
Si Si5 0.900430 0.089156 0.617937
Si Si6 0.743271 0.159850 0.073028
Si Si7 0.000000 0.250000 0.159025
Si Si8 0.137975 0.980047 0.967659
O O1 0.183174 0.500000 0.250000
O O2 0.114952 0.290449 0.352289
O O3 0.189186 0.631952 0.376984
O O4 0.067313 0.640421 0.304148
O O5 0.925353 0.339752 0.984202
O O6 0.033643 0.449808 0.913186
O O7 0.955356 0.428128 0.118684
O O8 0.000000 0.750000 0.064886
O O9 0.861498 0.640979 0.034915
O O10 0.082449 0.419693 0.691166
O O11 0.000000 0.750000 0.731637
O O12 0.892547 0.320841 0.585787
O O13 0.823241 0.971725 0.604349
O O14 0.710062 0.400613 0.060615
O O15 0.750000 0.077666 0.000000
#
# Coordination Sequence:
#
# PCOD9333781 Si02
#       8
#     8   4   8   4   8   8   4   8
#     4  11  26  45  73 103 144 188 240 302 376 455
#     4  10  19  38  62 104 136 183 232 306 362 427
#     4  10  21  40  70 109 136 183 240 312 375 443
#     4  12  26  46  78 110 156 204 260 320 388 466
#     4  11  24  41  69 101 144 194 246 304 375 446
#     4  11  26  46  68 101 147 196 249 308 375 450
#     4  10  23  42  72 104 138 179 240 308 380 447
#     4  11  22  39  70 100 143 187 247 305 373 441
#
# _framework density 22.313172999999999
#
# number of rings (size 3 to 8) (size 9 to 14) (size 15 to 20)
#    0.000    1.231    0.769    4.615    6.462    8.000 
#    0.000    0.000    3.385    0.000    0.000    0.000 
#    0.000    0.000    0.000    0.000    0.000    0.000 
#
# Total GULP energy -144790.698045 kJ/mol
# GULP energy per Si atom -5568.873002 kJ/mol
# Density = 2.226239 g / cm^3
# Si number density = 22.313173 Si / 1000 Ang^3
#
#
#
# Elastic Constant Matrix: (Units=GPa)
#
#
# Indices 1 2 3 4 5 6 
#
# 1 102.5938 40.2177 42.1865 0.0000 0.0000 0.0000
# 2 40.2177 106.2167 42.9951 0.0000 0.0000 0.0000
# 3 42.1865 42.9951 150.9357 0.0000 0.0000 0.0000
# 4 0.0000 0.0000 0.0000 16.2748 0.0000 0.0000
# 5 0.0000 0.0000 0.0000 0.0000 31.5758 0.0000
# 6 0.0000 0.0000 0.0000 0.0000 0.0000 112.5008
#
#
#
# Elastic Compliance Matrix: (Units=1/GPa)
#
#
# Indices 1 2 3 4 5 6 
#
# 1 0.012145 -0.003645 -0.002356 0.000000 0.000000 0.000000
# 2 -0.003645 0.011736 -0.002324 0.000000 0.000000 0.000000
# 3 -0.002356 -0.002324 0.007946 0.000000 0.000000 0.000000
# 4 0.000000 0.000000 0.000000 0.061445 0.000000 0.000000
# 5 0.000000 0.000000 0.000000 0.000000 0.031670 0.000000
# 6 0.000000 0.000000 0.000000 0.000000 0.000000 0.008889
#
#
# Mechanical properties :
#
#
# Convention : Reuss Voigt Hill
#
# Bulk Modulus (GPa) = 65.89381 67.83830 66.86605
# Shear Modulus (GPa) = 32.14631 47.69341 39.91986
#
# Velocity S-wave (km/s) = 3.79976 4.62828 4.23433
# Velocity P-wave (km/s) = 6.98901 7.68310 7.34426
#
# Compressibility (1/GPa) = 0.01517593
#
# Stress axis : x y z
#
# Youngs Moduli (GPa) = 82.33954 85.21102 125.84963
#
# Poissons Ratio (x) = 0.31057 0.29653
# Poissons Ratio (y) = 0.30010 0.29251
# Poissons Ratio (z) = 0.19401 0.19805
#
# Static dielectric constant tensor:
#      x y z
#    x 1.843230 0.000000 0.000000 
#    y 0.000000 1.917490 0.000000 
#    z 0.000000 0.000000 1.856290 
# 
# From -- ./inp_files/34150.got.cif
#   From: 2010.05.17/outbox.cif.g08.bks.cpg/sg24_18_cif.got.tgz:34150.got - 2010.06.04 00:33:39.
