data_PCOD9333327
_publ_section_title
;
Structure prediction by ZEFSAII (Michael W. Deem and Ramdas Pophale) SiO2 
 PCOD9333327
Probable space group: I 21 21 21
;
_chemical_formula_sum "Si O2"
_cell_formula_units_Z 28
_cell_length_a 15.692233
_cell_length_b 10.909229
_cell_length_c 7.469197
_cell_angle_alpha 90.000000
_cell_angle_beta 90.000000
_cell_angle_gamma 90.000000
_cell_volume 1278.653054
_symmetry_space_group_name_H-M "I 21 21 21"
_symmetry_group_IT_number 24
_symmetry_cell_setting 'orthorhombic'
loop_
_space_group_symop_operation_xyz
x,y,z
-x,1/2-y,z
x,-y,1/2-z
1/2-x,y,-z
1/2+x,1/2+y,1/2+z
1/2-x,-y,1/2+z
1/2+x,1/2-y,-z
-x,1/2+y,1/2-z
loop_
_atom_site_type_symbol
_atom_site_label
_atom_site_fract_x
_atom_site_fract_y
_atom_site_fract_z
Si Si1 0.750000 0.213909 0.500000
Si Si2 0.201763 0.500000 0.250000
Si Si3 0.500000 0.250000 0.918044
Si Si4 0.556451 0.994660 0.453399
Si Si5 0.100843 0.124440 0.363323
O O1 0.749475 0.122635 0.674670
O O2 0.830142 0.307073 0.485706
O O3 0.137054 0.517989 0.416680
O O4 0.421606 0.224623 0.786745
O O5 0.506692 0.131815 0.034603
O O6 0.582408 0.000000 0.250000
O O7 0.487013 0.090818 0.531543
O O8 0.125379 0.000000 0.250000
#
# Coordination Sequence:
#
# PCOD9333327 Si02
#       5
#     4   4   4   8   8
#     4  12  26  46  72 110 166 200 244 330 406 450
#     4  12  26  48  72 106 160 200 252 318 382 462
#     4  10  18  44  72 102 144 184 254 320 358 466
#     4  11  23  43  77 108 135 203 259 303 379 462
#     4  10  21  44  75 107 152 196 251 331 378 456
#
# _framework density 21.898043999999999
#
# number of rings (size 3 to 8) (size 9 to 14) (size 15 to 20)
#    0.000    1.143    7.143    0.000    2.000    4.571 
#    0.000    4.286    0.000    0.000    0.000    0.000 
#    0.000    0.000    0.000    0.000    0.000    0.000 
#
# Total GULP energy -77989.547023 kJ/mol
# GULP energy per Si atom -5570.681930 kJ/mol
# Density = 2.184820 g / cm^3
# Si number density = 21.898044 Si / 1000 Ang^3
#
#
#
# Elastic Constant Matrix: (Units=GPa)
#
#
# Indices 1 2 3 4 5 6 
#
# 1 87.3715 55.7614 41.1540 0.0000 0.0000 0.0000
# 2 55.7614 119.6216 47.6102 0.0000 0.0000 0.0000
# 3 41.1540 47.6102 150.8326 0.0000 0.0000 0.0000
# 4 0.0000 0.0000 0.0000 19.2987 0.0000 0.0000
# 5 0.0000 0.0000 0.0000 0.0000 30.4165 0.0000
# 6 0.0000 0.0000 0.0000 0.0000 0.0000 34.1214
#
#
#
# Elastic Compliance Matrix: (Units=1/GPa)
#
#
# Indices 1 2 3 4 5 6 
#
# 1 0.017050 -0.006972 -0.002451 0.000000 0.000000 0.000000
# 2 -0.006972 0.012412 -0.002016 0.000000 0.000000 0.000000
# 3 -0.002451 -0.002016 0.007935 0.000000 0.000000 0.000000
# 4 0.000000 0.000000 0.000000 0.051817 0.000000 0.000000
# 5 0.000000 0.000000 0.000000 0.000000 0.032877 0.000000
# 6 0.000000 0.000000 0.000000 0.000000 0.000000 0.029307
#
#
# Mechanical properties :
#
#
# Convention : Reuss Voigt Hill
#
# Bulk Modulus (GPa) = 68.87603 71.87523 70.37563
# Shear Modulus (GPa) = 27.91513 30.98733 29.45123
#
# Velocity S-wave (km/s) = 3.57428 3.76583 3.67130
# Velocity P-wave (km/s) = 6.96816 7.19740 7.08371
#
# Compressibility (1/GPa) = 0.01451884
#
# Stress axis : x y z
#
# Youngs Moduli (GPa) = 58.65249 80.56789 126.02620
#
# Poissons Ratio (x) = 0.56172 0.30891
# Poissons Ratio (y) = 0.40893 0.25401
# Poissons Ratio (z) = 0.14377 0.16239
#
# Static dielectric constant tensor:
#      x y z
#    x 1.942610 0.000000 0.000000 
#    y 0.000000 1.831950 0.000000 
#    z 0.000000 0.000000 1.878960 
# 
# From -- ./inp_files/10549.got.cif
#   From: 2010.05.17/outbox.cif.g08.bks.cpg/sg24_6_cif.got.tgz:10549.got - 2010.06.04 00:33:39.
