data_PCOD9333998
_publ_section_title
;
Structure prediction by ZEFSAII (Michael W. Deem and Ramdas Pophale) SiO2 
 PCOD9333998
Probable space group: I 21 21 21
;
_chemical_formula_sum "Si O2"
_cell_formula_units_Z 52
_cell_length_a 23.958874
_cell_length_b 8.519189
_cell_length_c 13.737150
_cell_angle_alpha 90.000000
_cell_angle_beta 90.000000
_cell_angle_gamma 90.000000
_cell_volume 2803.892102
_symmetry_space_group_name_H-M "I 21 21 21"
_symmetry_group_IT_number 24
_symmetry_cell_setting 'orthorhombic'
loop_
_space_group_symop_operation_xyz
x,y,z
-x,1/2-y,z
x,-y,1/2-z
1/2-x,y,-z
1/2+x,1/2+y,1/2+z
1/2-x,-y,1/2+z
1/2+x,1/2-y,-z
-x,1/2+y,1/2-z
loop_
_atom_site_type_symbol
_atom_site_label
_atom_site_fract_x
_atom_site_fract_y
_atom_site_fract_z
Si Si1 0.610773 0.615434 0.013066
Si Si2 0.191956 0.726953 0.836175
Si Si3 0.937896 0.297421 0.921585
Si Si4 0.500000 0.250000 0.402175
Si Si5 0.833977 0.123807 0.882399
Si Si6 0.020650 0.000000 0.750000
Si Si7 0.250000 0.162702 0.000000
Si Si8 0.304568 0.082178 0.648606
O O1 0.653021 0.654188 0.102446
O O2 0.591217 0.434057 0.016040
O O3 0.554479 0.711505 0.035215
O O4 0.643841 0.649076 0.913831
O O5 0.185337 0.555695 0.884196
O O6 0.172800 0.696521 0.725737
O O7 0.254998 0.791819 0.836272
O O8 0.897663 0.149485 0.913674
O O9 0.944426 0.378159 0.814897
O O10 0.000000 0.250000 0.953098
O O11 0.488806 0.396655 0.329738
O O12 0.795913 0.227996 0.951463
O O13 0.222257 0.051396 0.080179
O O14 0.320165 0.000000 0.750000
#
# Coordination Sequence:
#
# PCOD9333998 Si02
#       8
#     8   8   8   4   8   4   4   8
#     4  11  24  40  62  92 124 175 211 260 313 389
#     4  11  24  38  64  93 131 163 210 261 319 380
#     4  11  22  36  58  87 134 169 206 242 319 391
#     4  10  22  36  60  90 134 158 212 252 316 382
#     4  11  24  38  57  99 132 164 200 267 318 380
#     4  10  20  34  56  88 126 174 192 244 312 390
#     4  12  22  40  64  88 126 162 208 266 326 370
#     4  12  23  44  68  89 121 173 222 265 317 384
#
# _framework density 18.545649000000001
#
# number of rings (size 3 to 8) (size 9 to 14) (size 15 to 20)
#    0.000    0.923    5.385    1.846    6.462    0.000 
#    0.000    0.000    1.692    0.000    0.000    0.000 
#    0.000    0.000    0.000    0.000    0.000    0.000 
#
# Total GULP energy -145239.196029 kJ/mol
# GULP energy per Si atom -5586.122924 kJ/mol
# Density = 1.850344 g / cm^3
# Si number density = 18.545649 Si / 1000 Ang^3
#
#
#
# Elastic Constant Matrix: (Units=GPa)
#
#
# Indices 1 2 3 4 5 6 
#
# 1 126.2708 45.9529 38.1246 0.0000 0.0000 0.0000
# 2 45.9529 86.6437 20.2104 0.0000 0.0000 0.0000
# 3 38.1246 20.2104 68.0242 0.0000 0.0000 0.0000
# 4 0.0000 0.0000 0.0000 24.2021 0.0000 0.0000
# 5 0.0000 0.0000 0.0000 0.0000 18.7239 0.0000
# 6 0.0000 0.0000 0.0000 0.0000 0.0000 35.6908
#
#
#
# Elastic Compliance Matrix: (Units=1/GPa)
#
#
# Indices 1 2 3 4 5 6 
#
# 1 0.011107 -0.004769 -0.004808 0.000000 0.000000 0.000000
# 2 -0.004769 0.014449 -0.001620 0.000000 0.000000 0.000000
# 3 -0.004808 -0.001620 0.017877 0.000000 0.000000 0.000000
# 4 0.000000 0.000000 0.000000 0.041319 0.000000 0.000000
# 5 0.000000 0.000000 0.000000 0.000000 0.053408 0.000000
# 6 0.000000 0.000000 0.000000 0.000000 0.000000 0.028018
#
#
# Mechanical properties :
#
#
# Convention : Reuss Voigt Hill
#
# Bulk Modulus (GPa) = 47.53276 54.39050 50.96163
# Shear Modulus (GPa) = 25.56454 27.50010 26.53232
#
# Velocity S-wave (km/s) = 3.71680 3.85493 3.78650
# Velocity P-wave (km/s) = 6.64118 7.01467 6.83048
#
# Compressibility (1/GPa) = 0.02103812
#
# Stress axis : x y z
#
# Youngs Moduli (GPa) = 90.03563 69.20999 55.93924
#
# Poissons Ratio (x) = 0.33007 0.26895
# Poissons Ratio (y) = 0.42939 0.09062
# Poissons Ratio (z) = 0.43288 0.11212
#
# Static dielectric constant tensor:
#      x y z
#    x 1.657820 0.000000 0.000000 
#    y 0.000000 1.670500 0.000000 
#    z 0.000000 0.000000 1.619330 
# 
# From -- ./inp_files/27502.got.cif
#   From: 2010.05.17/outbox.cif.g08.bks.cpg/sg24_14_cif.got.tgz:27502.got - 2010.06.04 00:33:39.
