data_PCOD9333134
_publ_section_title
;
Structure prediction by ZEFSAII (Michael W. Deem and Ramdas Pophale) SiO2 
 PCOD9333134
Probable space group: I 21 21 21
;
_chemical_formula_sum "Si O2"
_cell_formula_units_Z 44
_cell_length_a 8.663942
_cell_length_b 25.374503
_cell_length_c 9.539229
_cell_angle_alpha 90.000000
_cell_angle_beta 90.000000
_cell_angle_gamma 90.000000
_cell_volume 2097.134841
_symmetry_space_group_name_H-M "I 21 21 21"
_symmetry_group_IT_number 24
_symmetry_cell_setting 'orthorhombic'
loop_
_space_group_symop_operation_xyz
x,y,z
-x,1/2-y,z
x,-y,1/2-z
1/2-x,y,-z
1/2+x,1/2+y,1/2+z
1/2-x,-y,1/2+z
1/2+x,1/2-y,-z
-x,1/2+y,1/2-z
loop_
_atom_site_type_symbol
_atom_site_label
_atom_site_fract_x
_atom_site_fract_y
_atom_site_fract_z
Si Si1 0.103910 0.475059 0.098269
Si Si2 0.000000 0.250000 0.539336
Si Si3 0.876119 0.674216 0.186461
Si Si4 0.433265 0.867235 0.534839
Si Si5 0.990113 0.343994 0.726360
Si Si6 0.434802 0.922462 0.001881
O O1 0.144871 0.500000 0.250000
O O2 0.005208 0.521840 0.030639
O O3 0.250000 0.465377 0.000000
O O4 0.003677 0.421541 0.094586
O O5 0.104562 0.219790 0.426152
O O6 0.933254 0.204775 0.643260
O O7 0.943651 0.676440 0.342628
O O8 0.693629 0.666041 0.206164
O O9 0.955764 0.623598 0.113076
O O10 0.250000 0.875082 0.500000
O O11 0.516717 0.850270 0.390937
O O12 0.009789 0.398501 0.642827
O O13 0.250000 0.928369 0.000000
#
# Coordination Sequence:
#
# PCOD9333134 Si02
#       6
#     8   4   8   8   8   8
#     4  12  26  41  57  89 132 167 202 248 315 371
#     4  10  18  34  58  88 120 148 184 246 316 364
#     4   9  18  37  59  88 115 156 200 258 296 354
#     4  10  21  41  66  89 120 160 211 262 298 353
#     4   9  20  35  61  91 116 148 208 255 301 354
#     4   9  18  38  64  86 115 160 212 249 292 359
#
# _framework density 20.981007000000002
#
# number of rings (size 3 to 8) (size 9 to 14) (size 15 to 20)
#    0.000    2.182    1.818    2.182    2.545    0.727 
#    0.000   10.909    0.000    0.000    0.000    0.000 
#    0.000    0.000    0.000    0.000    0.000    0.000 
#
# Total GULP energy -122602.284021 kJ/mol
# GULP energy per Si atom -5572.831092 kJ/mol
# Density = 2.093325 g / cm^3
# Si number density = 20.981007 Si / 1000 Ang^3
#
#
#
# Elastic Constant Matrix: (Units=GPa)
#
#
# Indices 1 2 3 4 5 6 
#
# 1 15.3198 20.8615 28.0580 -0.0002 -0.0003 0.0007
# 2 20.8615 88.4847 48.1223 0.0015 0.0003 -0.0017
# 3 28.0580 48.1223 174.6943 0.0117 0.0030 0.0121
# 4 -0.0002 0.0015 0.0117 9.9060 0.0022 0.0059
# 5 -0.0003 0.0003 0.0030 0.0022 22.9872 0.0013
# 6 0.0007 -0.0017 0.0121 0.0059 0.0013 41.4865
#
#
#
# Elastic Compliance Matrix: (Units=1/GPa)
#
#
# Indices 1 2 3 4 5 6 
#
# 1 0.117359 -0.020487 -0.013206 0.000021 0.000003 0.000001
# 2 -0.020487 0.016869 -0.001356 -0.000001 0.000000 0.000001
# 3 -0.013206 -0.001356 0.008219 -0.000010 -0.000001 -0.000002
# 4 0.000021 -0.000001 -0.000010 0.100949 -0.000010 -0.000014
# 5 0.000003 0.000000 -0.000001 -0.000010 0.043502 -0.000001
# 6 0.000001 0.000001 -0.000002 -0.000014 -0.000001 0.024104
#
#
# Mechanical properties :
#
#
# Convention : Reuss Voigt Hill
#
# Bulk Modulus (GPa) = 13.82196 52.50914 33.16555
# Shear Modulus (GPa) = 12.33904 26.97307 19.65606
#
# Velocity S-wave (km/s) = 2.42772 3.58941 3.06412
# Velocity P-wave (km/s) = 3.80271 6.50075 5.32543
#
# Compressibility (1/GPa) = 0.07234864
#
# Stress axis : x y z
#
# Youngs Moduli (GPa) = 8.52086 59.27978 121.67005
#
# Poissons Ratio (x) = 1.21446 1.60675
# Poissons Ratio (y) = 0.17457 0.16503
# Poissons Ratio (z) = 0.11253 0.08041
#
# Static dielectric constant tensor:
#      x y z
#    x 1.791340 0.000000 0.000000 
#    y 0.000000 1.742380 0.000000 
#    z 0.000000 0.000000 1.810560 
# 
# From -- ./inp_files/9647.got.cif
#   From: 2010.05.17/outbox.cif.g08.bks.cpg/sg24_5_cif.got.tgz:9647.got - 2010.06.04 00:33:39.
