data_PCOD9333871
_publ_section_title
;
Structure prediction by ZEFSAII (Michael W. Deem and Ramdas Pophale) SiO2 
 PCOD9333871
Probable space group: I 21 21 21
;
_chemical_formula_sum "Si O2"
_cell_formula_units_Z 24
_cell_length_a 10.545517
_cell_length_b 7.113608
_cell_length_c 15.137015
_cell_angle_alpha 90.000000
_cell_angle_beta 90.000000
_cell_angle_gamma 90.000000
_cell_volume 1135.528521
_symmetry_space_group_name_H-M "I 21 21 21"
_symmetry_group_IT_number 24
_symmetry_cell_setting 'orthorhombic'
loop_
_space_group_symop_operation_xyz
x,y,z
-x,1/2-y,z
x,-y,1/2-z
1/2-x,y,-z
1/2+x,1/2+y,1/2+z
1/2-x,-y,1/2+z
1/2+x,1/2-y,-z
-x,1/2+y,1/2-z
loop_
_atom_site_type_symbol
_atom_site_label
_atom_site_fract_x
_atom_site_fract_y
_atom_site_fract_z
Si Si1 0.706787 0.500000 0.750000
Si Si2 0.147760 0.980962 0.573045
Si Si3 0.886640 0.946701 0.506554
Si Si4 0.500000 0.250000 0.839449
O O1 0.796029 0.462848 0.666564
O O2 0.611498 0.335678 0.780929
O O3 0.250000 0.040047 0.500000
O O4 0.139267 0.752336 0.557857
O O5 0.004182 0.042413 0.554924
O O6 0.750000 0.040977 0.500000
O O7 0.560769 0.898896 0.591546
#
# Coordination Sequence:
#
# PCOD9333871 Si02
#       4
#     4   8   8   4
#     4  12  18  34  56  94 114 156 190 254 286 348
#     4   9  16  29  56  81 109 147 195 230 280 330
#     4   9  15  34  55  85 104 158 198 229 260 375
#     4  10  20  30  58  88 114 150 200 234 290 338
#
# _framework density 21.135531
#
# number of rings (size 3 to 8) (size 9 to 14) (size 15 to 20)
#    0.000    2.667   10.000    0.000    0.000    0.000 
#    0.000    1.667    0.000    6.000    0.000    0.000 
#    0.000    0.000    0.000    0.000    0.000    0.000 
#
# Total GULP energy -66900.780997 kJ/mol
# GULP energy per Si atom -5575.065083 kJ/mol
# Density = 2.108743 g / cm^3
# Si number density = 21.135531 Si / 1000 Ang^3
#
#
#
# Elastic Constant Matrix: (Units=GPa)
#
#
# Indices 1 2 3 4 5 6 
#
# 1 263.2613 25.5638 102.3139 0.0000 0.0000 0.0000
# 2 25.5638 67.0510 25.2655 0.0000 0.0000 0.0000
# 3 102.3139 25.2655 184.5559 0.0000 0.0000 0.0000
# 4 0.0000 0.0000 0.0000 0.3068 0.0000 0.0000
# 5 0.0000 0.0000 0.0000 0.0000 61.3494 0.0000
# 6 0.0000 0.0000 0.0000 0.0000 0.0000 57.3188
#
#
#
# Elastic Compliance Matrix: (Units=1/GPa)
#
#
# Indices 1 2 3 4 5 6 
#
# 1 0.004891 -0.000889 -0.002590 0.000000 0.000000 0.000000
# 2 -0.000889 0.015887 -0.001682 0.000000 0.000000 0.000000
# 3 -0.002590 -0.001682 0.007085 0.000000 0.000000 0.000000
# 4 0.000000 0.000000 0.000000 3.259032 0.000000 0.000000
# 5 0.000000 0.000000 0.000000 0.000000 0.016300 0.000000
# 6 0.000000 0.000000 0.000000 0.000000 0.000000 0.017446
#
#
# Mechanical properties :
#
#
# Convention : Reuss Voigt Hill
#
# Bulk Modulus (GPa) = 57.01035 91.23938 74.12487
# Shear Modulus (GPa) = 1.49844 47.91000 24.70422
#
# Velocity S-wave (km/s) = 0.84291 4.76626 3.42255
# Velocity P-wave (km/s) = 5.28957 8.57625 7.12501
#
# Compressibility (1/GPa) = 0.01754068
#
# Stress axis : x y z
#
# Youngs Moduli (GPa) = 204.44017 62.94546 141.15268
#
# Poissons Ratio (x) = 0.05596 0.36559
# Poissons Ratio (y) = 0.18174 0.23743
# Poissons Ratio (z) = 0.52950 0.10588
#
# Static dielectric constant tensor:
#      x y z
#    x 1.804790 0.000000 0.000000 
#    y 0.000000 1.838880 0.000000 
#    z 0.000000 0.000000 1.693280 
# 
# From -- ./inp_files/8537.got.cif
#   From: 2010.05.17/outbox.cif.g08.bks.cpg/sg24_5_cif.got.tgz:8537.got - 2010.06.04 00:33:39.
