data_PCOD9333062
_publ_section_title
;
Structure prediction by ZEFSAII (Michael W. Deem and Ramdas Pophale) SiO2 
 PCOD9333062
Probable space group: I 21 21 21
;
_chemical_formula_sum "Si O2"
_cell_formula_units_Z 40
_cell_length_a 25.565857
_cell_length_b 8.891716
_cell_length_c 8.660523
_cell_angle_alpha 90.000000
_cell_angle_beta 90.000000
_cell_angle_gamma 90.000000
_cell_volume 1968.747673
_symmetry_space_group_name_H-M "I 21 21 21"
_symmetry_group_IT_number 24
_symmetry_cell_setting 'orthorhombic'
loop_
_space_group_symop_operation_xyz
x,y,z
-x,1/2-y,z
x,-y,1/2-z
1/2-x,y,-z
1/2+x,1/2+y,1/2+z
1/2-x,-y,1/2+z
1/2+x,1/2-y,-z
-x,1/2+y,1/2-z
loop_
_atom_site_type_symbol
_atom_site_label
_atom_site_fract_x
_atom_site_fract_y
_atom_site_fract_z
Si Si1 0.537863 0.106289 0.604425
Si Si2 0.647731 0.259807 0.652806
Si Si3 0.524277 0.404067 0.113443
Si Si4 0.631797 0.601620 0.530706
Si Si5 0.696160 0.500000 0.250000
Si Si6 0.750000 0.711818 0.000000
O O1 0.500000 0.250000 0.610383
O O2 0.597304 0.162247 0.610622
O O3 0.527992 0.000000 0.750000
O O4 0.520861 0.006813 0.458915
O O5 0.638095 0.429386 0.588468
O O6 0.652363 0.286291 0.837069
O O7 0.700058 0.202657 0.569118
O O8 0.500000 0.250000 0.170982
O O9 0.549412 0.500000 0.250000
O O10 0.570145 0.369969 0.992294
O O11 0.661745 0.601853 0.367201
O O12 0.730891 0.395216 0.360150
#
# Coordination Sequence:
#
# PCOD9333062 Si02
#       6
#     8   8   8   8   4   4
#     4  12  23  40  64  92 126 171 215 265 319 391
#     4  10  21  36  61  86 125 163 216 261 320 383
#     4  12  25  39  60  94 132 169 210 264 325 390
#     4  10  19  36  57  90 124 167 210 264 316 379
#     4  10  18  32  58  84 128 158 210 266 316 374
#     4  10  20  34  56  92 120 166 208 268 320 380
#
# _framework density 20.317482999999999
#
# number of rings (size 3 to 8) (size 9 to 14) (size 15 to 20)
#    0.000    1.200    3.000    6.000    0.000    0.000 
#    0.000    0.000    0.000    6.000    0.000    0.000 
#    0.000    0.000    0.000    0.000    0.000    0.000 
#
# Total GULP energy -111733.399531 kJ/mol
# GULP energy per Si atom -5586.669977 kJ/mol
# Density = 2.027124 g / cm^3
# Si number density = 20.317483 Si / 1000 Ang^3
#
#
#
# Elastic Constant Matrix: (Units=GPa)
#
#
# Indices 1 2 3 4 5 6 
#
# 1 116.3608 29.3576 45.3124 0.0000 0.0000 0.0000
# 2 29.3576 63.9365 19.2715 0.0000 0.0000 0.0000
# 3 45.3124 19.2715 106.9667 0.0000 0.0000 0.0000
# 4 0.0000 0.0000 0.0000 22.0935 0.0000 0.0000
# 5 0.0000 0.0000 0.0000 0.0000 148.7063 0.0000
# 6 0.0000 0.0000 0.0000 0.0000 0.0000 5.5246
#
#
#
# Elastic Compliance Matrix: (Units=1/GPa)
#
#
# Indices 1 2 3 4 5 6 
#
# 1 0.011144 -0.003906 -0.004017 0.000000 0.000000 0.000000
# 2 -0.003906 0.017908 -0.001572 0.000000 0.000000 0.000000
# 3 -0.004017 -0.001572 0.011333 0.000000 0.000000 0.000000
# 4 0.000000 0.000000 0.000000 0.045262 0.000000 0.000000
# 5 0.000000 0.000000 0.000000 0.000000 0.006725 0.000000
# 6 0.000000 0.000000 0.000000 0.000000 0.000000 0.181009
#
#
# Mechanical properties :
#
#
# Convention : Reuss Voigt Hill
#
# Bulk Modulus (GPa) = 46.73835 52.79410 49.76623
# Shear Modulus (GPa) = 16.69436 48.15303 32.42370
#
# Velocity S-wave (km/s) = 2.86960 4.87358 3.99915
# Velocity P-wave (km/s) = 5.83381 7.59671 6.77286
#
# Compressibility (1/GPa) = 0.02139571
#
# Stress axis : x y z
#
# Youngs Moduli (GPa) = 89.73704 55.84160 88.23432
#
# Poissons Ratio (x) = 0.21812 0.35443
# Poissons Ratio (y) = 0.35052 0.13868
# Poissons Ratio (z) = 0.36046 0.08777
#
# Static dielectric constant tensor:
#      x y z
#    x 1.741750 0.000000 0.000000 
#    y 0.000000 1.411010 0.000000 
#    z 0.000000 0.000000 1.781530 
# 
# From -- ./inp_files/15663.got.cif
#   From: 2010.05.17/outbox.cif.g08.bks.cpg/sg24_8_cif.got.tgz:15663.got - 2010.06.04 00:33:39.
