data_PCOD9333123
_publ_section_title
;
Structure prediction by ZEFSAII (Michael W. Deem and Ramdas Pophale) SiO2 
 PCOD9333123
Probable space group: I 21 21 21
;
_chemical_formula_sum "Si O2"
_cell_formula_units_Z 36
_cell_length_a 19.238920
_cell_length_b 5.065091
_cell_length_c 18.651063
_cell_angle_alpha 90.000000
_cell_angle_beta 90.000000
_cell_angle_gamma 90.000000
_cell_volume 1817.487908
_symmetry_space_group_name_H-M "I 21 21 21"
_symmetry_group_IT_number 24
_symmetry_cell_setting 'orthorhombic'
loop_
_space_group_symop_operation_xyz
x,y,z
-x,1/2-y,z
x,-y,1/2-z
1/2-x,y,-z
1/2+x,1/2+y,1/2+z
1/2-x,-y,1/2+z
1/2+x,1/2-y,-z
-x,1/2+y,1/2-z
loop_
_atom_site_type_symbol
_atom_site_label
_atom_site_fract_x
_atom_site_fract_y
_atom_site_fract_z
Si Si1 0.325580 0.651346 0.527860
Si Si2 0.500000 0.250000 0.501590
Si Si3 0.049991 0.500000 0.750000
Si Si4 0.924345 0.111307 0.903642
Si Si5 0.386001 0.875354 0.899862
Si Si6 0.451835 0.000000 0.750000
O O1 0.250000 0.572490 0.500000
O O2 0.367367 0.732992 0.455302
O O3 0.361409 0.413261 0.572976
O O4 0.329381 0.909145 0.577433
O O5 0.441525 0.346419 0.446799
O O6 0.457801 0.062527 0.555925
O O7 0.093164 0.434181 0.821112
O O8 0.000000 0.750000 0.766286
O O9 0.000000 0.250000 0.903744
O O10 0.406119 0.902213 0.817161
O O11 0.500000 0.250000 0.771342
#
# Coordination Sequence:
#
# PCOD9333123 Si02
#       6
#     8   4   4   8   8   4
#     4  11  24  41  63  88 123 168 215 254 310 383
#     4  10  18  34  56  90 112 154 194 260 296 366
#     4  10  20  32  50  84 114 140 180 244 308 348
#     4  10  19  34  57  84 115 146 195 253 303 361
#     4  11  23  39  62  90 128 162 208 259 318 372
#     4  12  24  38  62 100 136 164 208 276 332 382
#
# _framework density 19.807558
#
# number of rings (size 3 to 8) (size 9 to 14) (size 15 to 20)
#    0.000    1.333    4.444    2.000    3.111    0.000 
#    0.000    2.222    0.000    1.333    0.000    0.000 
#    0.000    0.000    0.000    0.000    0.000    0.000 
#
# Total GULP energy -100255.379248 kJ/mol
# GULP energy per Si atom -5569.743292 kJ/mol
# Density = 1.976248 g / cm^3
# Si number density = 19.807558 Si / 1000 Ang^3
#
#
#
# Elastic Constant Matrix: (Units=GPa)
#
#
# Indices 1 2 3 4 5 6 
#
# 1 55.5477 1.8423 35.2554 0.0000 0.0000 0.0000
# 2 1.8423 78.6922 14.7389 0.0000 0.0000 0.0000
# 3 35.2554 14.7389 168.6010 0.0000 0.0000 0.0000
# 4 0.0000 0.0000 0.0000 25.4359 0.0000 0.0000
# 5 0.0000 0.0000 0.0000 0.0000 15.0086 0.0000
# 6 0.0000 0.0000 0.0000 0.0000 0.0000 21.2684
#
#
#
# Elastic Compliance Matrix: (Units=1/GPa)
#
#
# Indices 1 2 3 4 5 6 
#
# 1 0.020766 0.000333 -0.004371 0.000000 0.000000 0.000000
# 2 0.000333 0.012925 -0.001199 0.000000 0.000000 0.000000
# 3 -0.004371 -0.001199 0.006950 0.000000 0.000000 0.000000
# 4 0.000000 0.000000 0.000000 0.039314 0.000000 0.000000
# 5 0.000000 0.000000 0.000000 0.000000 0.066629 0.000000
# 6 0.000000 0.000000 0.000000 0.000000 0.000000 0.047018
#
#
# Mechanical properties :
#
#
# Convention : Reuss Voigt Hill
#
# Bulk Modulus (GPa) = 33.15176 45.16821 39.15998
# Shear Modulus (GPa) = 23.34999 29.07620 26.21310
#
# Velocity S-wave (km/s) = 3.43715 3.83552 3.64179
# Velocity P-wave (km/s) = 5.70309 6.51675 6.12345
#
# Compressibility (1/GPa) = 0.03016431
#
# Stress axis : x y z
#
# Youngs Moduli (GPa) = 48.15578 77.37186 143.88317
#
# Poissons Ratio (x) = -0.02573 0.62896
# Poissons Ratio (y) = -0.01602 0.17257
# Poissons Ratio (z) = 0.21051 0.09280
#
# Static dielectric constant tensor:
#      x y z
#    x 1.731500 0.000000 0.000000 
#    y 0.000000 1.790650 0.000000 
#    z 0.000000 0.000000 1.703040 
# 
# From -- ./inp_files/28696.got.cif
#   From: 2010.05.17/outbox.cif.g08.bks.cpg/sg24_15_cif.got.tgz:28696.got - 2010.06.04 00:33:39.
