data_PCOD9333144
_publ_section_title
;
Structure prediction by ZEFSAII (Michael W. Deem and Ramdas Pophale) SiO2 
 PCOD9333144
Probable space group: I 21 21 21
;
_chemical_formula_sum "Si O2"
_cell_formula_units_Z 40
_cell_length_a 19.798367
_cell_length_b 5.404868
_cell_length_c 19.434544
_cell_angle_alpha 90.000000
_cell_angle_beta 90.000000
_cell_angle_gamma 90.000000
_cell_volume 2079.643138
_symmetry_space_group_name_H-M "I 21 21 21"
_symmetry_group_IT_number 24
_symmetry_cell_setting 'orthorhombic'
loop_
_space_group_symop_operation_xyz
x,y,z
-x,1/2-y,z
x,-y,1/2-z
1/2-x,y,-z
1/2+x,1/2+y,1/2+z
1/2-x,-y,1/2+z
1/2+x,1/2-y,-z
-x,1/2+y,1/2-z
loop_
_atom_site_type_symbol
_atom_site_label
_atom_site_fract_x
_atom_site_fract_y
_atom_site_fract_z
Si Si1 0.698206 0.242294 0.383390
Si Si2 0.250000 0.106587 0.000000
Si Si3 0.190272 0.376669 0.180191
Si Si4 0.573531 0.197596 0.483127
Si Si5 0.887544 0.717394 0.446217
Si Si6 0.292118 0.000000 0.250000
O O1 0.733372 0.440335 0.433932
O O2 0.632500 0.161669 0.426750
O O3 0.671483 0.350414 0.310460
O O4 0.759945 0.060837 0.362396
O O5 0.315756 0.261016 0.984047
O O6 0.162368 0.500000 0.250000
O O7 0.132453 0.257400 0.133102
O O8 0.242861 0.177554 0.208025
O O9 0.500000 0.250000 0.451814
O O10 0.591822 0.440588 0.529962
O O11 0.567952 0.946459 0.527864
#
# Coordination Sequence:
#
# PCOD9333144 Si02
#       6
#     8   4   8   8   8   4
#     4  10  20  35  58  87 128 153 197 242 305 360
#     4  10  18  34  60  92 114 152 194 254 318 352
#     4  10  20  34  59  95 123 152 185 244 323 372
#     4  11  25  40  61  85 119 165 210 248 282 341
#     4  11  21  38  61  90 119 151 199 255 303 353
#     4  10  20  34  56  92 126 152 184 244 310 382
#
# _framework density 19.234069000000002
#
# number of rings (size 3 to 8) (size 9 to 14) (size 15 to 20)
#    0.000    1.600    2.000    4.200    5.600    0.800 
#    0.000    0.000    6.600    2.400    0.000    0.000 
#    0.000    0.000    0.000    0.000    0.000    0.000 
#
# Total GULP energy -111418.169526 kJ/mol
# GULP energy per Si atom -5570.908476 kJ/mol
# Density = 1.919029 g / cm^3
# Si number density = 19.234069 Si / 1000 Ang^3
#
#
#
# Elastic Constant Matrix: (Units=GPa)
#
#
# Indices 1 2 3 4 5 6 
#
# 1 37.5703 -8.6729 8.4205 0.0000 0.0000 0.0000
# 2 -8.6729 62.8708 36.3362 0.0000 0.0000 0.0000
# 3 8.4205 36.3362 124.8884 0.0000 0.0000 0.0000
# 4 0.0000 0.0000 0.0000 39.9658 0.0000 0.0000
# 5 0.0000 0.0000 0.0000 0.0000 15.4258 0.0000
# 6 0.0000 0.0000 0.0000 0.0000 0.0000 46.1997
#
#
#
# Elastic Compliance Matrix: (Units=1/GPa)
#
#
# Indices 1 2 3 4 5 6 
#
# 1 0.028871 0.006140 -0.003733 0.000000 0.000000 0.000000
# 2 0.006140 0.020427 -0.006357 0.000000 0.000000 0.000000
# 3 -0.003733 -0.006357 0.010108 0.000000 0.000000 0.000000
# 4 0.000000 0.000000 0.000000 0.025021 0.000000 0.000000
# 5 0.000000 0.000000 0.000000 0.000000 0.064826 0.000000
# 6 0.000000 0.000000 0.000000 0.000000 0.000000 0.021645
#
#
# Mechanical properties :
#
#
# Convention : Reuss Voigt Hill
#
# Bulk Modulus (GPa) = 19.41518 33.05524 26.23521
# Shear Modulus (GPa) = 25.51438 32.93465 29.22451
#
# Velocity S-wave (km/s) = 3.64609 4.14249 3.90219
# Velocity P-wave (km/s) = 5.27650 6.33273 5.82859
#
# Compressibility (1/GPa) = 0.05150608
#
# Stress axis : x y z
#
# Youngs Moduli (GPa) = 34.63697 48.95530 98.92696
#
# Poissons Ratio (x) = -0.30060 0.36930
# Poissons Ratio (y) = -0.21268 0.62890
# Poissons Ratio (z) = 0.12930 0.31122
#
# Static dielectric constant tensor:
#      x y z
#    x 1.642830 0.000000 0.000000 
#    y 0.000000 1.944430 0.000000 
#    z 0.000000 0.000000 1.622190 
# 
# From -- ./inp_files/4690.got.cif
#   From: 2010.05.17/outbox.cif.g08.bks.cpg/sg24_3_cif.got.tgz:4690.got - 2010.06.04 00:33:39.
