data_PCOD9333484
_publ_section_title
;
Structure prediction by ZEFSAII (Michael W. Deem and Ramdas Pophale) SiO2 
 PCOD9333484
Probable space group: I 21 21 21
;
_chemical_formula_sum "Si O2"
_cell_formula_units_Z 44
_cell_length_a 28.281263
_cell_length_b 8.756651
_cell_length_c 8.012684
_cell_angle_alpha 90.000000
_cell_angle_beta 90.000000
_cell_angle_gamma 90.000000
_cell_volume 1984.334381
_symmetry_space_group_name_H-M "I 21 21 21"
_symmetry_group_IT_number 24
_symmetry_cell_setting 'orthorhombic'
loop_
_space_group_symop_operation_xyz
x,y,z
-x,1/2-y,z
x,-y,1/2-z
1/2-x,y,-z
1/2+x,1/2+y,1/2+z
1/2-x,-y,1/2+z
1/2+x,1/2-y,-z
-x,1/2+y,1/2-z
loop_
_atom_site_type_symbol
_atom_site_label
_atom_site_fract_x
_atom_site_fract_y
_atom_site_fract_z
Si Si1 0.572680 0.005177 0.947532
Si Si2 0.216416 0.149700 0.648890
Si Si3 0.866796 0.514610 0.444252
Si Si4 0.500000 0.250000 0.096433
Si Si5 0.854222 0.187360 0.864088
Si Si6 0.065202 0.805915 0.882201
O O1 0.581396 0.000000 0.750000
O O2 0.535102 0.139137 0.994520
O O3 0.621583 0.039323 0.051361
O O4 0.551987 0.842085 0.007223
O O5 0.250000 0.206343 0.500000
O O6 0.172462 0.075359 0.549555
O O7 0.196602 0.280327 0.775611
O O8 0.236374 0.000000 0.750000
O O9 0.861256 0.500000 0.250000
O O10 0.859311 0.689131 0.490167
O O11 0.916577 0.443235 0.503365
O O12 0.530024 0.343052 0.233067
O O13 0.890469 0.244752 0.724697
#
# Coordination Sequence:
#
# PCOD9333484 Si02
#       6
#     8   8   8   4   8   8
#     4  11  23  40  60  85 114 157 205 253 304 358
#     4   9  17  30  52  86 125 156 189 239 299 356
#     4  10  19  33  56  87 116 150 194 243 291 349
#     4  10  22  38  54  76 110 150 196 244 300 350
#     4   9  19  35  56  84 116 154 198 241 294 359
#     4  10  21  38  57  78 110 156 196 240 299 356
#
# _framework density 22.173683
#
# number of rings (size 3 to 8) (size 9 to 14) (size 15 to 20)
#    0.000    2.182    0.000    5.455    0.000    6.545 
#    0.000    4.545    0.000    0.000    0.000  132.364 
#    0.000    0.000    0.000    0.000    0.000    0.000 
#
# Total GULP energy -122604.542462 kJ/mol
# GULP energy per Si atom -5572.933748 kJ/mol
# Density = 2.212321 g / cm^3
# Si number density = 22.173683 Si / 1000 Ang^3
#
#
#
# Elastic Constant Matrix: (Units=GPa)
#
#
# Indices 1 2 3 4 5 6 
#
# 1 48.6975 32.4215 13.2729 0.0000 0.0000 0.0000
# 2 32.4215 54.5039 35.1802 0.0000 0.0000 0.0000
# 3 13.2729 35.1802 130.8431 0.0000 0.0000 0.0000
# 4 0.0000 0.0000 0.0000 28.2318 0.0000 0.0000
# 5 0.0000 0.0000 0.0000 0.0000 34.3405 0.0000
# 6 0.0000 0.0000 0.0000 0.0000 0.0000 4.9151
#
#
#
# Elastic Compliance Matrix: (Units=1/GPa)
#
#
# Indices 1 2 3 4 5 6 
#
# 1 0.034638 -0.022187 0.002452 0.000000 0.000000 0.000000
# 2 -0.022187 0.036412 -0.007539 0.000000 0.000000 0.000000
# 3 0.002452 -0.007539 0.009421 0.000000 0.000000 0.000000
# 4 0.000000 0.000000 0.000000 0.035421 0.000000 0.000000
# 5 0.000000 0.000000 0.000000 0.000000 0.029120 0.000000
# 6 0.000000 0.000000 0.000000 0.000000 0.000000 0.203455
#
#
# Mechanical properties :
#
#
# Convention : Reuss Voigt Hill
#
# Bulk Modulus (GPa) = 38.57776 43.97709 41.27742
# Shear Modulus (GPa) = 12.14602 23.70878 17.92740
#
# Velocity S-wave (km/s) = 2.34298 3.27346 2.84650
# Velocity P-wave (km/s) = 4.97546 5.84495 5.42764
#
# Compressibility (1/GPa) = 0.02592167
#
# Stress axis : x y z
#
# Youngs Moduli (GPa) = 28.86985 27.46381 106.14383
#
# Poissons Ratio (x) = 0.60934 -0.26023
# Poissons Ratio (y) = 0.64053 0.80026
# Poissons Ratio (z) = -0.07078 0.20706
#
# Static dielectric constant tensor:
#      x y z
#    x 1.935550 0.000000 0.000000 
#    y 0.000000 1.935930 0.000000 
#    z 0.000000 0.000000 1.798400 
# 
# From -- ./inp_files/16740.got.cif
#   From: 2010.05.17/outbox.cif.g08.bks.cpg/sg24_9_cif.got.tgz:16740.got - 2010.06.04 00:33:39.
