data_PCOD9333640
_publ_section_title
;
Structure prediction by ZEFSAII (Michael W. Deem and Ramdas Pophale) SiO2 
 PCOD9333640
Probable space group: I 21 21 21
;
_chemical_formula_sum "Si O2"
_cell_formula_units_Z 64
_cell_length_a 8.654633
_cell_length_b 18.629712
_cell_length_c 20.728969
_cell_angle_alpha 90.000000
_cell_angle_beta 90.000000
_cell_angle_gamma 90.000000
_cell_volume 3342.200497
_symmetry_space_group_name_H-M "I 21 21 21"
_symmetry_group_IT_number 24
_symmetry_cell_setting 'orthorhombic'
loop_
_space_group_symop_operation_xyz
x,y,z
-x,1/2-y,z
x,-y,1/2-z
1/2-x,y,-z
1/2+x,1/2+y,1/2+z
1/2-x,-y,1/2+z
1/2+x,1/2-y,-z
-x,1/2+y,1/2-z
loop_
_atom_site_type_symbol
_atom_site_label
_atom_site_fract_x
_atom_site_fract_y
_atom_site_fract_z
Si Si1 0.367466 0.189542 0.695868
Si Si2 0.370113 0.189568 0.555609
Si Si3 0.154318 0.701911 0.562436
Si Si4 0.982798 0.567668 0.517999
Si Si5 0.294880 0.078515 0.894580
Si Si6 0.482012 0.533066 0.818169
Si Si7 0.175125 0.220628 0.820865
Si Si8 0.379696 0.569317 0.953036
O O1 0.500000 0.250000 0.696477
O O2 0.291363 0.192397 0.625449
O O3 0.438965 0.109420 0.700131
O O4 0.255087 0.210273 0.753027
O O5 0.500000 0.250000 0.553394
O O6 0.250000 0.198416 0.500000
O O7 0.465888 0.116599 0.548731
O O8 0.250000 0.721712 0.500000
O O9 0.240813 0.720113 0.628805
O O10 0.000000 0.750000 0.562596
O O11 0.095536 0.621537 0.554700
O O12 0.905871 0.603888 0.453930
O O13 0.846975 0.542864 0.566120
O O14 0.077617 0.502398 0.490461
O O15 0.215016 0.145044 0.857158
O O16 0.393187 0.023357 0.850117
O O17 0.424622 0.500000 0.750000
O O18 0.359525 0.550122 0.876528
O O19 0.000000 0.250000 0.810285
O O20 0.250000 0.604103 0.000000
#
# Coordination Sequence:
#
# PCOD9333640 Si02
#       8
#     8   8   8   8   8   8   8   8
#     4  10  23  41  60  91 121 155 210 259 319 395
#     4  10  22  41  69  93 115 150 197 262 334 397
#     4  11  21  34  52  82 125 167 210 247 295 349
#     4  10  20  34  57  88 122 162 216 260 299 362
#     4  10  19  35  61  86 121 165 220 263 298 378
#     4  10  20  39  66  84 120 177 222 254 317 397
#     4  11  21  36  56  89 127 166 205 259 307 361
#     4  10  22  38  61  94 128 157 206 275 318 374
#
# _framework density 19.149061
#
# number of rings (size 3 to 8) (size 9 to 14) (size 15 to 20)
#    0.000    1.750    3.750    1.500    5.250    2.000 
#    2.250    0.000    0.000    0.750    0.000    0.000 
#    0.000    0.000    0.000    0.000    0.000    0.000 
#
# Total GULP energy -178191.985125 kJ/mol
# GULP energy per Si atom -5568.499535 kJ/mol
# Density = 1.910548 g / cm^3
# Si number density = 19.149061 Si / 1000 Ang^3
#
#
#
# Elastic Constant Matrix: (Units=GPa)
#
#
# Indices 1 2 3 4 5 6 
#
# 1 43.3572 7.4698 52.8647 0.0000 0.0000 0.0000
# 2 7.4698 78.9428 23.5757 0.0000 0.0000 0.0000
# 3 52.8647 23.5757 169.9457 0.0000 0.0000 0.0000
# 4 0.0000 0.0000 0.0000 46.7028 0.0000 0.0000
# 5 0.0000 0.0000 0.0000 0.0000 31.8352 0.0000
# 6 0.0000 0.0000 0.0000 0.0000 0.0000 19.0911
#
#
#
# Elastic Compliance Matrix: (Units=1/GPa)
#
#
# Indices 1 2 3 4 5 6 
#
# 1 0.037158 -0.000067 -0.011549 0.000000 0.000000 0.000000
# 2 -0.000067 0.013215 -0.001812 0.000000 0.000000 0.000000
# 3 -0.011549 -0.001812 0.009728 0.000000 0.000000 0.000000
# 4 0.000000 0.000000 0.000000 0.021412 0.000000 0.000000
# 5 0.000000 0.000000 0.000000 0.000000 0.031412 0.000000
# 6 0.000000 0.000000 0.000000 0.000000 0.000000 0.052381
#
#
# Mechanical properties :
#
#
# Convention : Reuss Voigt Hill
#
# Bulk Modulus (GPa) = 30.08089 51.11845 40.59967
# Shear Modulus (GPa) = 24.60104 33.41484 29.00794
#
# Velocity S-wave (km/s) = 3.58818 4.18183 3.89633
# Velocity P-wave (km/s) = 5.73669 7.07601 6.44126
#
# Compressibility (1/GPa) = 0.03324369
#
# Stress axis : x y z
#
# Youngs Moduli (GPa) = 26.91246 75.67156 102.79321
#
# Poissons Ratio (x) = 0.00506 1.18718
# Poissons Ratio (y) = 0.00180 0.18631
# Poissons Ratio (z) = 0.31082 0.13715
#
# Static dielectric constant tensor:
#      x y z
#    x 1.674820 0.000000 0.000000 
#    y 0.000000 1.777890 0.000000 
#    z 0.000000 0.000000 1.719720 
# 
# From -- ./inp_files/32950.got.cif
#   From: 2010.05.17/outbox.cif.g08.bks.cpg/sg24_17_cif.got.tgz:32950.got - 2010.06.04 00:33:39.
