data_PCOD9333623
_publ_section_title
;
Structure prediction by ZEFSAII (Michael W. Deem and Ramdas Pophale) SiO2 
 PCOD9333623
Probable space group: I 21 21 21
;
_chemical_formula_sum "Si O2"
_cell_formula_units_Z 36
_cell_length_a 14.117537
_cell_length_b 10.963690
_cell_length_c 11.916803
_cell_angle_alpha 90.000000
_cell_angle_beta 90.000000
_cell_angle_gamma 90.000000
_cell_volume 1844.486334
_symmetry_space_group_name_H-M "I 21 21 21"
_symmetry_group_IT_number 24
_symmetry_cell_setting 'orthorhombic'
loop_
_space_group_symop_operation_xyz
x,y,z
-x,1/2-y,z
x,-y,1/2-z
1/2-x,y,-z
1/2+x,1/2+y,1/2+z
1/2-x,-y,1/2+z
1/2+x,1/2-y,-z
-x,1/2+y,1/2-z
loop_
_atom_site_type_symbol
_atom_site_label
_atom_site_fract_x
_atom_site_fract_y
_atom_site_fract_z
Si Si1 0.594274 0.327713 0.489948
Si Si2 0.250000 0.501300 0.500000
Si Si3 0.752417 0.779374 0.845084
Si Si4 0.940030 0.440415 0.136655
Si Si5 0.364176 0.318613 0.870541
O O1 0.500000 0.250000 0.472720
O O2 0.659024 0.267913 0.588437
O O3 0.663217 0.312501 0.381434
O O4 0.564312 0.459012 0.538983
O O5 0.275591 0.410505 0.399226
O O6 0.333799 0.590994 0.532078
O O7 0.719672 0.803104 0.719384
O O8 0.897180 0.500000 0.250000
O O9 0.888341 0.318567 0.095324
O O10 0.042022 0.386185 0.175981
#
# Coordination Sequence:
#
# PCOD9333623 Si02
#       5
#     8   4   8   8   8
#     4  10  19  35  59  89 120 161 204 248 315 378
#     4  10  20  34  56  80 118 154 198 254 298 380
#     4  10  21  36  58  91 121 162 206 259 316 383
#     4  11  20  34  59  88 121 148 201 267 306 362
#     4  11  22  36  58  91 119 158 204 259 317 358
#
# _framework density 19.517628999999999
#
# number of rings (size 3 to 8) (size 9 to 14) (size 15 to 20)
#    0.000    1.778    2.222    6.000    0.000    1.778 
#    0.000    0.000    4.889    0.000   23.111    0.000 
#    0.000    0.000    0.000    0.000    0.000    0.000 
#
# Total GULP energy -100268.035322 kJ/mol
# GULP energy per Si atom -5570.446407 kJ/mol
# Density = 1.947321 g / cm^3
# Si number density = 19.517629 Si / 1000 Ang^3
#
#
#
# Elastic Constant Matrix: (Units=GPa)
#
#
# Indices 1 2 3 4 5 6 
#
# 1 79.5253 33.8622 28.4268 0.0000 0.0000 0.0000
# 2 33.8622 152.9638 42.4037 0.0000 0.0000 0.0000
# 3 28.4268 42.4037 36.7326 0.0000 0.0000 0.0000
# 4 0.0000 0.0000 0.0000 4.1543 0.0000 0.0000
# 5 0.0000 0.0000 0.0000 0.0000 25.8443 0.0000
# 6 0.0000 0.0000 0.0000 0.0000 0.0000 26.4569
#
#
#
# Elastic Compliance Matrix: (Units=1/GPa)
#
#
# Indices 1 2 3 4 5 6 
#
# 1 0.017387 -0.000175 -0.013253 0.000000 0.000000 0.000000
# 2 -0.000175 0.009616 -0.010965 0.000000 0.000000 0.000000
# 3 -0.013253 -0.010965 0.050138 0.000000 0.000000 0.000000
# 4 0.000000 0.000000 0.000000 0.240713 0.000000 0.000000
# 5 0.000000 0.000000 0.000000 0.000000 0.038693 0.000000
# 6 0.000000 0.000000 0.000000 0.000000 0.000000 0.037797
#
#
# Mechanical properties :
#
#
# Convention : Reuss Voigt Hill
#
# Bulk Modulus (GPa) = 35.26820 53.17859 44.22340
# Shear Modulus (GPa) = 11.04772 22.25971 16.65371
#
# Velocity S-wave (km/s) = 2.38174 3.38078 2.92424
# Velocity P-wave (km/s) = 5.06682 6.52267 5.84029
#
# Compressibility (1/GPa) = 0.02835415
#
# Stress axis : x y z
#
# Youngs Moduli (GPa) = 57.51568 103.99432 19.94481
#
# Poissons Ratio (x) = 0.01819 0.26433
# Poissons Ratio (y) = 0.01006 0.21870
# Poissons Ratio (z) = 0.76227 1.14031
#
# Static dielectric constant tensor:
#      x y z
#    x 1.840730 0.000000 0.000000 
#    y 0.000000 1.689280 0.000000 
#    z 0.000000 0.000000 1.717570 
# 
# From -- ./inp_files/25549.got.cif
#   From: 2010.05.17/outbox.cif.g08.bks.cpg/sg24_13_cif.got.tgz:25549.got - 2010.06.04 00:33:39.
