data_PCOD9333422
_publ_section_title
;
Structure prediction by ZEFSAII (Michael W. Deem and Ramdas Pophale) SiO2 
 PCOD9333422
Probable space group: I 21 21 21
;
_chemical_formula_sum "Si O2"
_cell_formula_units_Z 60
_cell_length_a 7.516559
_cell_length_b 24.944873
_cell_length_c 17.433039
_cell_angle_alpha 90.000000
_cell_angle_beta 90.000000
_cell_angle_gamma 90.000000
_cell_volume 3268.688008
_symmetry_space_group_name_H-M "I 21 21 21"
_symmetry_group_IT_number 24
_symmetry_cell_setting 'orthorhombic'
loop_
_space_group_symop_operation_xyz
x,y,z
-x,1/2-y,z
x,-y,1/2-z
1/2-x,y,-z
1/2+x,1/2+y,1/2+z
1/2-x,-y,1/2+z
1/2+x,1/2-y,-z
-x,1/2+y,1/2-z
loop_
_atom_site_type_symbol
_atom_site_label
_atom_site_fract_x
_atom_site_fract_y
_atom_site_fract_z
Si Si1 0.063303 0.515782 0.961553
Si Si2 0.327714 0.847856 0.582395
Si Si3 0.368288 0.037826 0.313598
Si Si4 0.292617 0.301531 0.913733
Si Si5 0.698733 0.919615 0.365650
Si Si6 0.919509 0.362170 0.771900
Si Si7 0.565789 0.530859 0.610412
Si Si8 0.500000 0.250000 0.201003
O O1 0.085910 0.457108 0.922162
O O2 0.983865 0.548043 0.890276
O O3 0.250000 0.532967 0.000000
O O4 0.945560 0.506773 0.036096
O O5 0.250000 0.834061 0.500000
O O6 0.494787 0.808839 0.600303
O O7 0.181358 0.849077 0.648868
O O8 0.381483 0.910268 0.581661
O O9 0.313087 0.095385 0.279371
O O10 0.465085 0.000000 0.250000
O O11 0.205767 0.998744 0.336199
O O12 0.237186 0.364188 0.909090
O O13 0.166067 0.269468 0.853792
O O14 0.250000 0.283290 0.000000
O O15 0.595075 0.896745 0.292306
O O16 0.874199 0.955595 0.351732
O O17 0.960851 0.302015 0.746449
#
# Coordination Sequence:
#
# PCOD9333422 Si02
#       8
#     8   8   8   8   8   8   8   4
#     4  10  19  34  54  81 113 154 181 225 282 357
#     4  11  19  31  55  81 112 150 193 242 293 336
#     4  12  21  35  54  85 117 146 185 236 296 352
#     4  10  20  34  52  77 104 152 207 248 272 324
#     4   9  17  34  54  78 114 149 189 226 281 343
#     4  11  22  38  54  78 112 155 195 245 290 338
#     4  10  19  32  54  81 115 150 186 221 292 362
#     4  10  24  40  52  68 108 156 206 242 290 336
#
# _framework density 18.355989000000001
#
# number of rings (size 3 to 8) (size 9 to 14) (size 15 to 20)
#    0.000    1.600    2.667    5.600    0.000    2.133 
#    4.800    0.000    0.000    0.000    0.000    1.867 
#    0.000    0.000    0.000    0.000    0.000    0.000 
#
# Total GULP energy -167116.074209 kJ/mol
# GULP energy per Si atom -5570.535807 kJ/mol
# Density = 1.831421 g / cm^3
# Si number density = 18.355989 Si / 1000 Ang^3
#
#
#
# Elastic Constant Matrix: (Units=GPa)
#
#
# Indices 1 2 3 4 5 6 
#
# 1 73.1248 30.5606 22.2171 0.0000 0.0000 0.0000
# 2 30.5606 121.2982 33.2802 0.0000 0.0000 0.0000
# 3 22.2171 33.2802 51.7108 0.0001 0.0000 0.0000
# 4 0.0000 0.0000 0.0001 13.8115 0.0000 0.0000
# 5 0.0000 0.0000 0.0000 0.0000 13.6630 0.0000
# 6 0.0000 0.0000 0.0000 0.0000 0.0000 21.2513
#
#
#
# Elastic Compliance Matrix: (Units=1/GPa)
#
#
# Indices 1 2 3 4 5 6 
#
# 1 0.016412 -0.002672 -0.005331 0.000000 0.000000 0.000000
# 2 -0.002672 0.010447 -0.005576 0.000000 0.000000 0.000000
# 3 -0.005331 -0.005576 0.025217 0.000000 0.000000 0.000000
# 4 0.000000 0.000000 0.000000 0.072404 0.000000 0.000000
# 5 0.000000 0.000000 0.000000 0.000000 0.073191 0.000000
# 6 0.000000 0.000000 0.000000 0.000000 0.000000 0.047056
#
#
# Mechanical properties :
#
#
# Convention : Reuss Voigt Hill
#
# Bulk Modulus (GPa) = 40.13171 46.47217 43.30194
# Shear Modulus (GPa) = 17.84500 20.41687 19.13094
#
# Velocity S-wave (km/s) = 3.12133 3.33869 3.23184
# Velocity P-wave (km/s) = 5.90769 6.34308 6.12925
#
# Compressibility (1/GPa) = 0.02491795
#
# Stress axis : x y z
#
# Youngs Moduli (GPa) = 60.93169 95.72024 39.65540
#
# Poissons Ratio (x) = 0.25578 0.21142
# Poissons Ratio (y) = 0.16282 0.22110
# Poissons Ratio (z) = 0.32486 0.53369
#
# Static dielectric constant tensor:
#      x y z
#    x 1.774980 0.000000 0.000000 
#    y 0.000000 1.674060 0.000000 
#    z 0.000000 0.000000 1.655180 
# 
# From -- ./inp_files/25266.got.cif
#   From: 2010.05.17/outbox.cif.g08.bks.cpg/sg24_13_cif.got.tgz:25266.got - 2010.06.04 00:33:39.
