data_PCOD9333609
_publ_section_title
;
Structure prediction by ZEFSAII (Michael W. Deem and Ramdas Pophale) SiO2 
 PCOD9333609
Probable space group: I 21 21 21
;
_chemical_formula_sum "Si O2"
_cell_formula_units_Z 64
_cell_length_a 9.844967
_cell_length_b 21.309079
_cell_length_c 16.777377
_cell_angle_alpha 90.000000
_cell_angle_beta 90.000000
_cell_angle_gamma 90.000000
_cell_volume 3519.678601
_symmetry_space_group_name_H-M "I 21 21 21"
_symmetry_group_IT_number 24
_symmetry_cell_setting 'orthorhombic'
loop_
_space_group_symop_operation_xyz
x,y,z
-x,1/2-y,z
x,-y,1/2-z
1/2-x,y,-z
1/2+x,1/2+y,1/2+z
1/2-x,-y,1/2+z
1/2+x,1/2-y,-z
-x,1/2+y,1/2-z
loop_
_atom_site_type_symbol
_atom_site_label
_atom_site_fract_x
_atom_site_fract_y
_atom_site_fract_z
Si Si1 0.546326 0.680437 0.984848
Si Si2 0.105377 0.195601 0.048671
Si Si3 0.972390 0.560272 0.805528
Si Si4 0.593291 0.948691 0.020138
Si Si5 0.216058 0.165354 0.638417
Si Si6 0.557254 0.850196 0.326561
Si Si7 0.719250 0.272591 0.194024
Si Si8 0.085256 0.586313 0.506230
O O1 0.500000 0.750000 0.961366
O O2 0.656485 0.660929 0.919252
O O3 0.452347 0.619311 0.989444
O O4 0.602382 0.687862 0.075315
O O5 0.155161 0.208730 0.138572
O O6 0.000000 0.250000 0.020631
O O7 0.250000 0.194285 0.000000
O O8 0.012821 0.133809 0.040954
O O9 0.947776 0.500000 0.750000
O O10 0.051626 0.547140 0.887051
O O11 0.058274 0.609281 0.753233
O O12 0.835658 0.598414 0.828381
O O13 0.540691 0.015271 0.985964
O O14 0.750000 0.951928 0.000000
O O15 0.238462 0.211621 0.712758
O O16 0.675676 0.798678 0.324062
O O17 0.413635 0.813590 0.329206
O O18 0.561046 0.895439 0.401818
O O19 0.250000 0.594182 0.500000
#
# Coordination Sequence:
#
# PCOD9333609 Si02
#       8
#     8   8   8   8   8   8   8   8
#     4  10  22  40  65  90 120 156 200 255 316 366
#     4  12  23  38  59  89 125 167 207 251 308 363
#     4  10  19  37  62  87 119 160 208 249 304 366
#     4  10  23  40  62  90 120 160 205 251 311 372
#     4   9  22  39  58  94 119 151 202 256 306 370
#     4  10  19  35  58  85 115 159 207 261 289 361
#     4  10  21  35  57  87 119 157 209 248 308 354
#     4  11  22  40  59  85 125 164 207 252 303 369
#
# _framework density 18.183478999999998
#
# number of rings (size 3 to 8) (size 9 to 14) (size 15 to 20)
#    0.000    1.750    2.500    1.875    7.000    0.500 
#    9.000    1.250    0.000    0.000    0.000    0.000 
#    0.000    0.000    0.000    0.000    0.000    0.000 
#
# Total GULP energy -178203.611892 kJ/mol
# GULP energy per Si atom -5568.862872 kJ/mol
# Density = 1.814209 g / cm^3
# Si number density = 18.183479 Si / 1000 Ang^3
#
#
#
# Elastic Constant Matrix: (Units=GPa)
#
#
# Indices 1 2 3 4 5 6 
#
# 1 65.3287 52.8909 30.2485 0.0000 0.0000 0.0000
# 2 52.8909 150.2900 33.6256 0.0000 0.0000 -0.0001
# 3 30.2485 33.6256 53.6582 0.0000 0.0000 -0.0001
# 4 0.0000 0.0000 0.0000 19.2956 0.0000 -0.0001
# 5 0.0000 0.0000 0.0000 0.0000 7.2206 0.0000
# 6 0.0000 -0.0001 -0.0001 -0.0001 0.0000 -145.0651
#
#
#
# Elastic Compliance Matrix: (Units=1/GPa)
#
#
# Indices 1 2 3 4 5 6 
#
# 1 0.025403 -0.006671 -0.010140 0.000000 0.000000 0.000000
# 2 -0.006671 0.009491 -0.002187 0.000000 0.000000 0.000000
# 3 -0.010140 -0.002187 0.025723 0.000000 0.000000 0.000000
# 4 0.000000 0.000000 0.000000 0.051825 0.000000 0.000000
# 5 0.000000 0.000000 0.000000 0.000000 0.138492 0.000000
# 6 0.000000 0.000000 0.000000 0.000000 0.000000 -0.006893
#
#
# Mechanical properties :
#
#
# Convention : Reuss Voigt Hill
#
# Bulk Modulus (GPa) = 44.20621 55.86742 50.03682
# Shear Modulus (GPa) = 17.26654 -13.54231 1.86212
#
# Velocity S-wave (km/s) = 3.08486 -2.73199 1.01306
# Velocity P-wave (km/s) = 6.08707 4.56501 5.38014
#
# Compressibility (1/GPa) = 0.02262126
#
# Stress axis : x y z
#
# Youngs Moduli (GPa) = 39.36477 105.36392 38.87585
#
# Poissons Ratio (x) = 0.70293 0.39419
# Poissons Ratio (y) = 0.26262 0.08501
# Poissons Ratio (z) = 0.39915 0.23040
#
# Static dielectric constant tensor:
#      x y z
#    x 1.622310 0.000000 0.000000 
#    y 0.000000 1.700680 0.000000 
#    z 0.000000 0.000000 1.640460 
# 
# From -- ./inp_files/29799.got.cif
#   From: 2010.05.17/outbox.cif.g08.bks.cpg/sg24_15_cif.got.tgz:29799.got - 2010.06.04 00:33:39.
