data_PCOD9333045
_publ_section_title
;
Structure prediction by ZEFSAII (Michael W. Deem and Ramdas Pophale) SiO2 
 PCOD9333045
Probable space group: I 21 21 21
;
_chemical_formula_sum "Si O2"
_cell_formula_units_Z 60
_cell_length_a 16.180294
_cell_length_b 10.987161
_cell_length_c 16.778837
_cell_angle_alpha 90.000000
_cell_angle_beta 90.000000
_cell_angle_gamma 90.000000
_cell_volume 2982.866057
_symmetry_space_group_name_H-M "I 21 21 21"
_symmetry_group_IT_number 24
_symmetry_cell_setting 'orthorhombic'
loop_
_space_group_symop_operation_xyz
x,y,z
-x,1/2-y,z
x,-y,1/2-z
1/2-x,y,-z
1/2+x,1/2+y,1/2+z
1/2-x,-y,1/2+z
1/2+x,1/2-y,-z
-x,1/2+y,1/2-z
loop_
_atom_site_type_symbol
_atom_site_label
_atom_site_fract_x
_atom_site_fract_y
_atom_site_fract_z
Si Si1 0.500000 0.250000 0.821689
Si Si2 0.027287 0.625470 0.555942
Si Si3 0.219199 0.331360 0.911862
Si Si4 0.977183 0.982363 0.095356
Si Si5 0.304864 0.559352 0.835043
Si Si6 0.104602 0.119573 0.297273
Si Si7 0.452533 0.128162 0.223924
Si Si8 0.772021 0.709519 0.758169
O O1 0.517346 0.121145 0.866528
O O2 0.424198 0.228209 0.760402
O O3 0.120854 0.645306 0.585900
O O4 0.023804 0.511810 0.497809
O O5 0.000000 0.750000 0.512397
O O6 0.963243 0.619772 0.628683
O O7 0.261964 0.459404 0.890955
O O8 0.240663 0.245493 0.835853
O O9 0.250000 0.290298 0.000000
O O10 0.893267 0.916726 0.124019
O O11 0.054271 0.899412 0.122112
O O12 0.325013 0.500000 0.750000
O O13 0.242715 0.668335 0.810927
O O14 0.202558 0.124134 0.296689
O O15 0.078019 0.000000 0.250000
O O16 0.500000 0.250000 0.248624
O O17 0.360979 0.147133 0.257399
O O18 0.489884 0.000000 0.250000
#
# Coordination Sequence:
#
# PCOD9333045 Si02
#       8
#     4   8   8   8   8   8   8   8
#     4  10  18  32  54  84 128 168 218 258 332 396
#     4  11  22  40  65  99 128 174 227 292 369 402
#     4  11  21  36  62  99 131 169 225 303 348 397
#     4  11  20  36  61  95 137 172 217 286 345 427
#     4  10  21  34  61  94 128 171 224 284 341 410
#     4  10  21  33  56  87 123 170 207 255 327 414
#     4  11  25  45  73  98 129 178 242 305 356 421
#     4  11  22  40  63  92 129 173 231 277 344 425
#
# _framework density 20.114881
#
# number of rings (size 3 to 8) (size 9 to 14) (size 15 to 20)
#    0.000    1.333    4.667    4.000    1.867    0.000 
#    0.000    0.000    7.333    0.000    0.000    0.000 
#    0.000    0.000    0.000    0.000    0.000    0.000 
#
# Total GULP energy -167108.047853 kJ/mol
# GULP energy per Si atom -5570.268262 kJ/mol
# Density = 2.006910 g / cm^3
# Si number density = 20.114881 Si / 1000 Ang^3
#
#
#
# Elastic Constant Matrix: (Units=GPa)
#
#
# Indices 1 2 3 4 5 6 
#
# 1 121.0044 5.7919 30.5186 0.0000 0.0000 0.0000
# 2 5.7919 67.9580 19.7283 0.0000 0.0000 0.0000
# 3 30.5186 19.7283 50.7456 0.0000 0.0000 0.0000
# 4 0.0000 0.0000 0.0000 31.5637 0.0000 0.0000
# 5 0.0000 0.0000 0.0000 0.0000 11.3247 0.0000
# 6 0.0000 0.0000 0.0000 0.0000 0.0000 36.8099
#
#
#
# Elastic Compliance Matrix: (Units=1/GPa)
#
#
# Indices 1 2 3 4 5 6 
#
# 1 0.009800 0.000987 -0.006278 0.000000 0.000000 0.000000
# 2 0.000987 0.016686 -0.007081 0.000000 0.000000 0.000000
# 3 -0.006278 -0.007081 0.026234 0.000000 0.000000 0.000000
# 4 0.000000 0.000000 0.000000 0.031682 0.000000 0.000000
# 5 0.000000 0.000000 0.000000 0.000000 0.088302 0.000000
# 6 0.000000 0.000000 0.000000 0.000000 0.000000 0.027167
#
#
# Mechanical properties :
#
#
# Convention : Reuss Voigt Hill
#
# Bulk Modulus (GPa) = 35.74195 39.08727 37.41461
# Shear Modulus (GPa) = 21.37296 28.18429 24.77863
#
# Velocity S-wave (km/s) = 3.26321 3.74728 3.51359
# Velocity P-wave (km/s) = 5.65734 6.18037 5.92463
#
# Compressibility (1/GPa) = 0.02797832
#
# Stress axis : x y z
#
# Youngs Moduli (GPa) = 102.03876 59.92900 38.11800
#
# Poissons Ratio (x) = -0.05916 0.23929
# Poissons Ratio (y) = -0.10073 0.26991
# Poissons Ratio (z) = 0.64056 0.42435
#
# Static dielectric constant tensor:
#      x y z
#    x 1.741160 0.000000 0.000000 
#    y 0.000000 1.800260 0.000000 
#    z 0.000000 0.000000 1.738080 
# 
# From -- ./inp_files/30865.got.cif
#   From: 2010.05.17/outbox.cif.g08.bks.cpg/sg24_16_cif.got.tgz:30865.got - 2010.06.04 00:33:39.
