data_PCOD9333743
_publ_section_title
;
Structure prediction by ZEFSAII (Michael W. Deem and Ramdas Pophale) SiO2 
 PCOD9333743
Probable space group: I 21 21 21
;
_chemical_formula_sum "Si O2"
_cell_formula_units_Z 64
_cell_length_a 11.549122
_cell_length_b 16.931520
_cell_length_c 17.819748
_cell_angle_alpha 90.000000
_cell_angle_beta 90.000000
_cell_angle_gamma 90.000000
_cell_volume 3484.548191
_symmetry_space_group_name_H-M "I 21 21 21"
_symmetry_group_IT_number 24
_symmetry_cell_setting 'orthorhombic'
loop_
_space_group_symop_operation_xyz
x,y,z
-x,1/2-y,z
x,-y,1/2-z
1/2-x,y,-z
1/2+x,1/2+y,1/2+z
1/2-x,-y,1/2+z
1/2+x,1/2-y,-z
-x,1/2+y,1/2-z
loop_
_atom_site_type_symbol
_atom_site_label
_atom_site_fract_x
_atom_site_fract_y
_atom_site_fract_z
Si Si1 0.415666 0.421065 0.550925
Si Si2 0.812799 0.532239 0.918983
Si Si3 0.458904 0.430877 0.050173
Si Si4 0.033645 0.660777 0.403256
Si Si5 0.222228 0.408933 0.662933
Si Si6 0.766292 0.902860 0.666315
Si Si7 0.585766 0.488401 0.837186
Si Si8 0.505600 0.657962 0.092004
O O1 0.393034 0.498605 0.497416
O O2 0.307974 0.384266 0.595685
O O3 0.506369 0.453636 0.612235
O O4 0.472016 0.358538 0.494679
O O5 0.920421 0.471608 0.926585
O O6 0.717526 0.504859 0.859961
O O7 0.871309 0.615487 0.897393
O O8 0.750000 0.536898 0.000000
O O9 0.385453 0.398343 0.119709
O O10 0.478458 0.362087 0.990377
O O11 0.163669 0.639852 0.377634
O O12 0.000000 0.750000 0.388513
O O13 0.951260 0.599533 0.360007
O O14 0.250246 0.502259 0.667160
O O15 0.237242 0.376392 0.747025
O O16 0.091777 0.388859 0.639245
O O17 0.563304 0.500000 0.750000
O O18 0.500000 0.750000 0.109594
#
# Coordination Sequence:
#
# PCOD9333743 Si02
#       8
#     8   8   8   8   8   8   8   8
#     4  10  19  37  63  90 119 160 207 255 298 378
#     4  11  20  40  62  85 124 165 215 253 303 381
#     4  10  20  38  65  87 120 164 210 255 297 384
#     4  11  23  40  64  98 128 154 207 271 314 365
#     4  11  21  37  66  95 121 162 213 257 310 380
#     4  11  21  38  66  95 124 161 211 258 314 381
#     4  11  22  40  66  90 121 169 209 245 315 388
#     4  11  24  40  63  92 126 162 213 269 316 363
#
# _framework density 18.366800000000001
#
# number of rings (size 3 to 8) (size 9 to 14) (size 15 to 20)
#    0.000    1.250    8.750    1.500    0.000    2.000 
#    6.750    1.875    0.000    0.000    0.000    0.000 
#    0.000    0.000    0.000    0.000    0.000    0.000 
#
# Total GULP energy -178511.064352 kJ/mol
# GULP energy per Si atom -5578.470761 kJ/mol
# Density = 1.832500 g / cm^3
# Si number density = 18.366800 Si / 1000 Ang^3
#
#
#
# Elastic Constant Matrix: (Units=GPa)
#
#
# Indices 1 2 3 4 5 6 
#
# 1 97.4303 31.8482 7.1235 0.0000 0.0000 0.0000
# 2 31.8482 64.1068 -3.3054 0.0000 0.0000 0.0000
# 3 7.1235 -3.3054 53.2432 0.0000 0.0000 0.0000
# 4 0.0000 0.0000 0.0000 6.3113 0.0000 0.0000
# 5 0.0000 0.0000 0.0000 0.0000 16.4980 0.0000
# 6 0.0000 0.0000 0.0000 0.0000 0.0000 18.7696
#
#
#
# Elastic Compliance Matrix: (Units=1/GPa)
#
#
# Indices 1 2 3 4 5 6 
#
# 1 0.012475 -0.006304 -0.002060 0.000000 0.000000 0.000000
# 2 -0.006304 0.018834 0.002013 0.000000 0.000000 0.000000
# 3 -0.002060 0.002013 0.019182 0.000000 0.000000 0.000000
# 4 0.000000 0.000000 0.000000 0.158445 0.000000 0.000000
# 5 0.000000 0.000000 0.000000 0.000000 0.060614 0.000000
# 6 0.000000 0.000000 0.000000 0.000000 0.000000 0.053278
#
#
# Mechanical properties :
#
#
# Convention : Reuss Voigt Hill
#
# Bulk Modulus (GPa) = 26.46291 31.79032 29.12662
# Shear Modulus (GPa) = 14.36254 20.25670 17.30962
#
# Velocity S-wave (km/s) = 2.79943 3.32459 3.07325
# Velocity P-wave (km/s) = 4.98883 5.66422 5.33722
#
# Compressibility (1/GPa) = 0.03778874
#
# Stress axis : x y z
#
# Youngs Moduli (GPa) = 80.16034 53.09412 52.13121
#
# Poissons Ratio (x) = 0.33470 0.10741
# Poissons Ratio (y) = 0.50532 -0.10492
# Poissons Ratio (z) = 0.16516 -0.10686
#
# Static dielectric constant tensor:
#      x y z
#    x 1.659080 0.000000 0.000000 
#    y 0.000000 1.623210 0.000000 
#    z 0.000000 0.000000 1.660790 
# 
# From -- ./inp_files/30429.got.cif
#   From: 2010.05.17/outbox.cif.g08.bks.cpg/sg24_16_cif.got.tgz:30429.got - 2010.06.04 00:33:39.
