data_PCOD9333541
_publ_section_title
;
Structure prediction by ZEFSAII (Michael W. Deem and Ramdas Pophale) SiO2 
 PCOD9333541
Probable space group: I 21 21 21
;
_chemical_formula_sum "Si O2"
_cell_formula_units_Z 40
_cell_length_a 13.661677
_cell_length_b 14.421762
_cell_length_c 8.985699
_cell_angle_alpha 90.000000
_cell_angle_beta 90.000000
_cell_angle_gamma 90.000000
_cell_volume 1770.411427
_symmetry_space_group_name_H-M "I 21 21 21"
_symmetry_group_IT_number 24
_symmetry_cell_setting 'orthorhombic'
loop_
_space_group_symop_operation_xyz
x,y,z
-x,1/2-y,z
x,-y,1/2-z
1/2-x,y,-z
1/2+x,1/2+y,1/2+z
1/2-x,-y,1/2+z
1/2+x,1/2-y,-z
-x,1/2+y,1/2-z
loop_
_atom_site_type_symbol
_atom_site_label
_atom_site_fract_x
_atom_site_fract_y
_atom_site_fract_z
Si Si1 0.231186 0.770656 0.670186
Si Si2 0.037414 0.476471 0.416927
Si Si3 0.144666 0.594600 0.826965
Si Si4 0.326480 0.087314 0.638553
Si Si5 0.028500 0.145050 0.878574
O O1 0.250000 0.741691 0.500000
O O2 0.201990 0.683300 0.769939
O O3 0.315799 0.823776 0.755616
O O4 0.142570 0.845857 0.658352
O O5 0.064560 0.500000 0.250000
O O6 0.937352 0.418043 0.418127
O O7 0.005163 0.571527 0.499250
O O8 0.126073 0.426701 0.501499
O O9 0.179766 0.500000 0.750000
O O10 0.034776 0.614887 0.763686
O O11 0.250000 0.087995 0.500000
O O12 0.311147 0.000000 0.750000
O O13 0.000000 0.250000 0.921833
#
# Coordination Sequence:
#
# PCOD9333541 Si02
#       5
#     8   8   8   8   8
#     4  11  21  37  62  92 123 158 204 258 315 366
#     4  10  19  34  57  87 124 161 202 253 304 364
#     4   9  20  40  63  85 115 163 209 245 298 367
#     4  11  21  34  56  91 130 162 198 256 319 370
#     4   9  18  35  59  85 116 158 204 248 301 365
#
# _framework density 22.593617999999999
#
# number of rings (size 3 to 8) (size 9 to 14) (size 15 to 20)
#    0.000    2.000    0.000    5.400    0.000    1.600 
#    0.000   14.000    0.000    4.800    0.000    0.000 
#    0.000    0.000    0.000    0.000    0.000    0.000 
#
# Total GULP energy -111829.814199 kJ/mol
# GULP energy per Si atom -5591.490710 kJ/mol
# Density = 2.254219 g / cm^3
# Si number density = 22.593618 Si / 1000 Ang^3
#
#
#
# Elastic Constant Matrix: (Units=GPa)
#
#
# Indices 1 2 3 4 5 6 
#
# 1 39.4586 21.9354 25.4691 0.0000 0.0000 0.0000
# 2 21.9354 110.7703 60.3772 0.0000 0.0000 0.0000
# 3 25.4691 60.3772 154.0713 0.0000 0.0000 0.0000
# 4 0.0000 0.0000 0.0000 14.0781 0.0000 0.0000
# 5 0.0000 0.0000 0.0000 0.0000 26.4622 0.0000
# 6 0.0000 0.0000 0.0000 0.0000 0.0000 -3.0708
#
#
#
# Elastic Compliance Matrix: (Units=1/GPa)
#
#
# Indices 1 2 3 4 5 6 
#
# 1 0.029755 -0.004083 -0.003318 0.000000 0.000000 0.000000
# 2 -0.004083 0.012040 -0.004043 0.000000 0.000000 0.000000
# 3 -0.003318 -0.004043 0.008624 0.000000 0.000000 0.000000
# 4 0.000000 0.000000 0.000000 0.071032 0.000000 0.000000
# 5 0.000000 0.000000 0.000000 0.000000 0.037790 0.000000
# 6 0.000000 0.000000 0.000000 0.000000 0.000000 -0.325652
#
#
# Mechanical properties :
#
#
# Convention : Reuss Voigt Hill
#
# Bulk Modulus (GPa) = 36.32630 57.76263 47.04447
# Shear Modulus (GPa) = -37.21761 20.59515 -8.31123
#
# Velocity S-wave (km/s) = -4.06305 3.02246 -1.92004
# Velocity P-wave (km/s) = 2.42861 6.14831 3.99397
#
# Compressibility (1/GPa) = 0.02752826
#
# Stress axis : x y z
#
# Youngs Moduli (GPa) = 33.60780 83.05536 115.96179
#
# Poissons Ratio (x) = 0.33915 0.38482
# Poissons Ratio (y) = 0.13724 0.46886
# Poissons Ratio (z) = 0.11153 0.33581
#
# Static dielectric constant tensor:
#      x y z
#    x 1.903300 0.000000 0.000000 
#    y 0.000000 1.814810 0.000000 
#    z 0.000000 0.000000 1.866360 
# 
# From -- ./inp_files/12293.got.cif
#   From: 2010.05.17/outbox.cif.g08.bks.cpg/sg24_7_cif.got.tgz:12293.got - 2010.06.04 00:33:39.
