data_PCOD9333714
_publ_section_title
;
Structure prediction by ZEFSAII (Michael W. Deem and Ramdas Pophale) SiO2 
 PCOD9333714
Probable space group: I 21 21 21
;
_chemical_formula_sum "Si O2"
_cell_formula_units_Z 56
_cell_length_a 30.213641
_cell_length_b 15.780329
_cell_length_c 5.585081
_cell_angle_alpha 90.000000
_cell_angle_beta 90.000000
_cell_angle_gamma 90.000000
_cell_volume 2662.861595
_symmetry_space_group_name_H-M "I 21 21 21"
_symmetry_group_IT_number 24
_symmetry_cell_setting 'orthorhombic'
loop_
_space_group_symop_operation_xyz
x,y,z
-x,1/2-y,z
x,-y,1/2-z
1/2-x,y,-z
1/2+x,1/2+y,1/2+z
1/2-x,-y,1/2+z
1/2+x,1/2-y,-z
-x,1/2+y,1/2-z
loop_
_atom_site_type_symbol
_atom_site_label
_atom_site_fract_x
_atom_site_fract_y
_atom_site_fract_z
Si Si1 0.250000 0.453125 0.500000
Si Si2 0.177879 0.325405 0.517954
Si Si3 0.492431 0.648849 0.073624
Si Si4 0.383188 0.255533 0.879655
Si Si5 0.777348 0.500000 0.750000
Si Si6 0.473326 0.160624 0.921441
Si Si7 0.203897 0.185893 0.851587
Si Si8 0.401146 0.599985 0.271093
O O1 0.236504 0.500000 0.750000
O O2 0.210592 0.392686 0.401807
O O3 0.139693 0.280448 0.366664
O O4 0.206514 0.251796 0.635932
O O5 0.149029 0.380392 0.700272
O O6 0.500000 0.750000 0.063058
O O7 0.515955 0.618587 0.320899
O O8 0.440384 0.635066 0.104931
O O9 0.510266 0.614613 0.820384
O O10 0.422369 0.187419 0.886314
O O11 0.340658 0.217755 0.018938
O O12 0.403872 0.342505 0.989608
O O13 0.750000 0.493400 0.500000
O O14 0.802449 0.411061 0.772322
O O15 0.500000 0.250000 0.932512
O O16 0.250000 0.190420 0.000000
O O17 0.407310 0.500000 0.250000
#
# Coordination Sequence:
#
# PCOD9333714 Si02
#       8
#     4   8   8   8   4   8   8   8
#     4  12  30  46  64  92 140 198 234 298 350 392
#     4  11  25  41  68  93 140 182 242 283 347 415
#     4  10  19  38  63  89 123 165 220 273 338 395
#     4  11  23  40  68 102 130 185 232 289 343 421
#     4  10  24  44  74 104 138 170 222 286 346 418
#     4  10  19  36  65  91 124 163 223 268 338 398
#     4  10  24  43  70 104 134 178 229 284 351 422
#     4  11  24  40  63  99 135 181 237 293 338 409
#
# _framework density 21.030007000000001
#
# number of rings (size 3 to 8) (size 9 to 14) (size 15 to 20)
#    0.000    1.429    2.857    3.000   14.000    0.000 
#    0.000    0.000    1.571    1.714    0.000    0.000 
#    0.000    0.000    0.000    0.000    0.000    0.000 
#
# Total GULP energy -155964.149932 kJ/mol
# GULP energy per Si atom -5570.148212 kJ/mol
# Density = 2.098214 g / cm^3
# Si number density = 21.030007 Si / 1000 Ang^3
#
#
#
# Elastic Constant Matrix: (Units=GPa)
#
#
# Indices 1 2 3 4 5 6 
#
# 1 118.7655 32.2071 21.8895 -0.0001 0.0000 0.0000
# 2 32.2071 106.8917 15.7515 0.0000 0.0000 0.0000
# 3 21.8895 15.7515 111.6258 -0.0001 0.0000 0.0000
# 4 -0.0001 0.0000 -0.0001 -105.1007 0.0000 0.0000
# 5 0.0000 0.0000 0.0000 0.0000 39.4890 0.0000
# 6 0.0000 0.0000 0.0000 0.0000 0.0000 50.3444
#
#
#
# Elastic Compliance Matrix: (Units=1/GPa)
#
#
# Indices 1 2 3 4 5 6 
#
# 1 0.009401 -0.002615 -0.001474 0.000000 0.000000 0.000000
# 2 -0.002615 0.010281 -0.000938 0.000000 0.000000 0.000000
# 3 -0.001474 -0.000938 0.009380 0.000000 0.000000 0.000000
# 4 0.000000 0.000000 0.000000 -0.009515 0.000000 0.000000
# 5 0.000000 0.000000 0.000000 0.000000 0.025324 0.000000
# 6 0.000000 0.000000 0.000000 0.000000 0.000000 0.019863
#
#
# Mechanical properties :
#
#
# Convention : Reuss Voigt Hill
#
# Bulk Modulus (GPa) = 52.61221 52.99770 52.80496
# Shear Modulus (GPa) = 61.63289 14.77552 38.20421
#
# Velocity S-wave (km/s) = 5.41948 2.65352 4.26684
# Velocity P-wave (km/s) = 8.01455 5.88591 7.03125
#
# Compressibility (1/GPa) = 0.01900699
#
# Stress axis : x y z
#
# Youngs Moduli (GPa) = 106.37249 97.26225 106.60989
#
# Poissons Ratio (x) = 0.25437 0.15719
# Poissons Ratio (y) = 0.27819 0.10000
# Poissons Ratio (z) = 0.15684 0.09123
#
# Static dielectric constant tensor:
#      x y z
#    x 1.834830 0.000000 0.000000 
#    y 0.000000 1.735900 0.000000 
#    z 0.000000 0.000000 1.906280 
# 
# From -- ./inp_files/7761.got.cif
#   From: 2010.05.17/outbox.cif.g08.bks.cpg/sg24_4_cif.got.tgz:7761.got - 2010.06.04 00:33:39.
