data_PCOD9333275
_publ_section_title
;
Structure prediction by ZEFSAII (Michael W. Deem and Ramdas Pophale) SiO2 
 PCOD9333275
Probable space group: I 21 21 21
;
_chemical_formula_sum "Si O2"
_cell_formula_units_Z 40
_cell_length_a 14.624757
_cell_length_b 13.621713
_cell_length_c 9.203234
_cell_angle_alpha 90.000000
_cell_angle_beta 90.000000
_cell_angle_gamma 90.000000
_cell_volume 1833.415290
_symmetry_space_group_name_H-M "I 21 21 21"
_symmetry_group_IT_number 24
_symmetry_cell_setting 'orthorhombic'
loop_
_space_group_symop_operation_xyz
x,y,z
-x,1/2-y,z
x,-y,1/2-z
1/2-x,y,-z
1/2+x,1/2+y,1/2+z
1/2-x,-y,1/2+z
1/2+x,1/2-y,-z
-x,1/2+y,1/2-z
loop_
_atom_site_type_symbol
_atom_site_label
_atom_site_fract_x
_atom_site_fract_y
_atom_site_fract_z
Si Si1 0.000000 0.750000 0.544488
Si Si2 0.088571 0.055340 0.595262
Si Si3 0.277252 0.595631 0.669422
Si Si4 0.750000 0.573724 0.500000
Si Si5 0.486786 0.551674 0.611962
Si Si6 0.826123 0.277983 0.763283
O O1 0.024185 0.846136 0.451627
O O2 0.911025 0.766141 0.643887
O O3 0.126335 0.162838 0.632032
O O4 0.083353 0.000000 0.750000
O O5 0.163300 0.998419 0.497915
O O6 0.994316 0.031216 0.513571
O O7 0.238687 0.500000 0.750000
O O8 0.250000 0.605230 0.500000
O O9 0.385937 0.583244 0.661400
O O10 0.243152 0.689425 0.759092
O O11 0.770645 0.643354 0.637562
O O12 0.531788 0.500000 0.750000
#
# Coordination Sequence:
#
# PCOD9333275 Si02
#       6
#     4   8   8   4   8   8
#     4  12  20  42  70  92 130 182 224 280 350 430
#     4  10  22  41  70 102 132 175 231 286 351 430
#     4  11  24  44  68  96 139 187 237 291 354 434
#     4  10  18  38  64  98 130 160 212 290 346 410
#     4  11  24  42  67 101 141 185 227 291 359 434
#     4  11  22  42  71 101 128 181 235 281 352 429
#
# _framework density 21.817207
#
# number of rings (size 3 to 8) (size 9 to 14) (size 15 to 20)
#    0.000    1.200    7.000    0.000    0.000    4.800 
#    1.800    3.000    0.000    0.000    0.000    0.000 
#    0.000    0.000    0.000    0.000    0.000    0.000 
#
# Total GULP energy -111534.009493 kJ/mol
# GULP energy per Si atom -5576.700475 kJ/mol
# Density = 2.176755 g / cm^3
# Si number density = 21.817207 Si / 1000 Ang^3
#
#
#
# Elastic Constant Matrix: (Units=GPa)
#
#
# Indices 1 2 3 4 5 6 
#
# 1 71.3860 31.6090 24.3116 0.0000 0.0000 0.0000
# 2 31.6090 147.7798 44.3852 0.0000 0.0000 0.0000
# 3 24.3116 44.3852 58.2235 0.0000 0.0000 0.0000
# 4 0.0000 0.0000 0.0000 43.6355 0.0000 0.0000
# 5 0.0000 0.0000 0.0000 0.0000 1.4411 0.0000
# 6 0.0000 0.0000 0.0000 0.0000 0.0000 29.0237
#
#
#
# Elastic Compliance Matrix: (Units=1/GPa)
#
#
# Indices 1 2 3 4 5 6 
#
# 1 0.016741 -0.001921 -0.005526 0.000000 0.000000 0.000000
# 2 -0.001921 0.008997 -0.006056 0.000000 0.000000 0.000000
# 3 -0.005526 -0.006056 0.024099 0.000000 0.000000 0.000000
# 4 0.000000 0.000000 0.000000 0.022917 0.000000 0.000000
# 5 0.000000 0.000000 0.000000 0.000000 0.693906 0.000000
# 6 0.000000 0.000000 0.000000 0.000000 0.000000 0.034455
#
#
# Mechanical properties :
#
#
# Convention : Reuss Voigt Hill
#
# Bulk Modulus (GPa) = 43.80063 53.11120 48.45592
# Shear Modulus (GPa) = 5.98278 26.62564 16.30421
#
# Velocity S-wave (km/s) = 1.65776 3.49721 2.73666
# Velocity P-wave (km/s) = 4.87689 6.37996 5.67837
#
# Compressibility (1/GPa) = 0.02283072
#
# Stress axis : x y z
#
# Youngs Moduli (GPa) = 59.73408 111.15180 41.49495
#
# Poissons Ratio (x) = 0.21353 0.22929
# Poissons Ratio (y) = 0.11476 0.25130
# Poissons Ratio (z) = 0.33007 0.67316
#
# Static dielectric constant tensor:
#      x y z
#    x 1.868960 0.000000 0.000000 
#    y 0.000000 1.811100 0.000000 
#    z 0.000000 0.000000 1.828340 
# 
# From -- ./inp_files/12395.got.cif
#   From: 2010.05.17/outbox.cif.g08.bks.cpg/sg24_7_cif.got.tgz:12395.got - 2010.06.04 00:33:39.
