data_PCOD9333847
_publ_section_title
;
Structure prediction by ZEFSAII (Michael W. Deem and Ramdas Pophale) SiO2 
 PCOD9333847
Probable space group: I 21 21 21
;
_chemical_formula_sum "Si O2"
_cell_formula_units_Z 48
_cell_length_a 8.848126
_cell_length_b 9.702984
_cell_length_c 25.188513
_cell_angle_alpha 90.000000
_cell_angle_beta 90.000000
_cell_angle_gamma 90.000000
_cell_volume 2162.515074
_symmetry_space_group_name_H-M "I 21 21 21"
_symmetry_group_IT_number 24
_symmetry_cell_setting 'orthorhombic'
loop_
_space_group_symop_operation_xyz
x,y,z
-x,1/2-y,z
x,-y,1/2-z
1/2-x,y,-z
1/2+x,1/2+y,1/2+z
1/2-x,-y,1/2+z
1/2+x,1/2-y,-z
-x,1/2+y,1/2-z
loop_
_atom_site_type_symbol
_atom_site_label
_atom_site_fract_x
_atom_site_fract_y
_atom_site_fract_z
Si Si1 0.446854 0.490889 0.946945
Si Si2 0.000000 0.250000 0.571568
Si Si3 0.205641 0.351539 0.152056
Si Si4 0.754975 0.418943 0.900595
Si Si5 0.250000 0.270797 0.500000
Si Si6 0.000000 0.250000 0.971679
Si Si7 0.285872 0.500000 0.250000
Si Si8 0.028743 0.529802 0.846733
O O1 0.371538 0.447246 0.891505
O O2 0.624956 0.496154 0.933255
O O3 0.363248 0.625960 0.968523
O O4 0.429376 0.367572 0.989921
O O5 0.865768 0.311603 0.536637
O O6 0.924172 0.136350 0.608183
O O7 0.174187 0.196825 0.135849
O O8 0.185768 0.402200 0.212409
O O9 0.385177 0.385253 0.145571
O O10 0.870976 0.333470 0.938737
O O11 0.853800 0.508824 0.859459
O O12 0.401124 0.576676 0.209298
#
# Coordination Sequence:
#
# PCOD9333847 Si02
#       8
#     8   4   8   8   4   4   4   8
#     4  12  24  37  60  97 136 169 218 278 339 405
#     4  12  26  42  65  84 133 180 232 260 324 414
#     4  10  19  42  60  97 127 167 208 279 346 399
#     4  12  22  37  66  98 136 165 224 278 340 413
#     4  12  26  44  56  92 138 190 228 268 328 418
#     4  12  20  34  61  98 139 176 194 266 358 418
#     4   8  20  40  72  86 130 166 208 288 338 392
#     4  10  22  41  63  94 119 175 225 277 327 401
#
# _framework density 22.196377999999999
#
# number of rings (size 3 to 8) (size 9 to 14) (size 15 to 20)
#    1.000    0.000    5.000    2.500    2.333    1.333 
#    0.000    0.833    0.000    2.000    0.000    0.000 
#    0.000    0.000    0.000    0.000    0.000    0.000 
#
# Total GULP energy -133825.044784 kJ/mol
# GULP energy per Si atom -5576.043533 kJ/mol
# Density = 2.214586 g / cm^3
# Si number density = 22.196378 Si / 1000 Ang^3
#
#
#
# Elastic Constant Matrix: (Units=GPa)
#
#
# Indices 1 2 3 4 5 6 
#
# 1 84.5226 3.4728 39.3752 0.0000 0.0000 0.0000
# 2 3.4728 18.2490 17.1538 0.0000 0.0000 0.0000
# 3 39.3752 17.1538 134.3086 0.0000 0.0000 0.0000
# 4 0.0000 0.0000 0.0000 19.5837 0.0000 0.0000
# 5 0.0000 0.0000 0.0000 0.0000 37.2501 0.0000
# 6 0.0000 0.0000 0.0000 0.0000 0.0000 40.8845
#
#
#
# Elastic Compliance Matrix: (Units=1/GPa)
#
#
# Indices 1 2 3 4 5 6 
#
# 1 0.013731 0.001331 -0.004195 0.000000 0.000000 0.000000
# 2 0.001331 0.062403 -0.008360 0.000000 0.000000 0.000000
# 3 -0.004195 -0.008360 0.009743 0.000000 0.000000 0.000000
# 4 0.000000 0.000000 0.000000 0.051063 0.000000 0.000000
# 5 0.000000 0.000000 0.000000 0.000000 0.026846 0.000000
# 6 0.000000 0.000000 0.000000 0.000000 0.000000 0.024459
#
#
# Mechanical properties :
#
#
# Convention : Reuss Voigt Hill
#
# Bulk Modulus (GPa) = 15.76612 39.67598 27.72105
# Shear Modulus (GPa) = 21.56687 31.34886 26.45787
#
# Velocity S-wave (km/s) = 3.12049 3.76219 3.45627
# Velocity P-wave (km/s) = 4.48350 6.06514 5.33327
#
# Compressibility (1/GPa) = 0.06342715
#
# Stress axis : x y z
#
# Youngs Moduli (GPa) = 72.82812 16.02491 102.63488
#
# Poissons Ratio (x) = -0.02132 0.43060
# Poissons Ratio (y) = -0.09691 0.85804
# Poissons Ratio (z) = 0.30555 0.13397
#
# Static dielectric constant tensor:
#      x y z
#    x 1.886900 0.000000 0.000000 
#    y 0.000000 1.831970 0.000000 
#    z 0.000000 0.000000 1.857380 
# 
# From -- ./inp_files/36864.got.cif
#   From: 2010.05.17/outbox.cif.g08.bks.cpg/sg24_19_cif.got.tgz:36864.got - 2010.06.04 00:33:39.
