data_PCOD9333378
_publ_section_title
;
Structure prediction by ZEFSAII (Michael W. Deem and Ramdas Pophale) SiO2 
 PCOD9333378
Probable space group: I 21 21 21
;
_chemical_formula_sum "Si O2"
_cell_formula_units_Z 64
_cell_length_a 18.723876
_cell_length_b 14.971757
_cell_length_c 9.876589
_cell_angle_alpha 90.000000
_cell_angle_beta 90.000000
_cell_angle_gamma 90.000000
_cell_volume 2768.697494
_symmetry_space_group_name_H-M "I 21 21 21"
_symmetry_group_IT_number 24
_symmetry_cell_setting 'orthorhombic'
loop_
_space_group_symop_operation_xyz
x,y,z
-x,1/2-y,z
x,-y,1/2-z
1/2-x,y,-z
1/2+x,1/2+y,1/2+z
1/2-x,-y,1/2+z
1/2+x,1/2-y,-z
-x,1/2+y,1/2-z
loop_
_atom_site_type_symbol
_atom_site_label
_atom_site_fract_x
_atom_site_fract_y
_atom_site_fract_z
Si Si1 0.703306 0.408510 0.705468
Si Si2 0.070603 0.302809 0.048887
Si Si3 0.269630 0.278391 0.342213
Si Si4 0.605241 0.539640 0.044589
Si Si5 0.417260 0.770702 0.117962
Si Si6 0.119463 0.676906 0.155608
Si Si7 0.046410 0.496495 0.411998
Si Si8 0.164663 0.858484 0.487922
O O1 0.740643 0.500000 0.750000
O O2 0.753760 0.325075 0.687456
O O3 0.662963 0.429599 0.567674
O O4 0.650203 0.384252 0.829287
O O5 0.072734 0.303441 0.212876
O O6 0.069920 0.409021 0.023400
O O7 0.133718 0.240091 0.992992
O O8 0.000000 0.250000 0.003481
O O9 0.250000 0.293793 0.500000
O O10 0.353562 0.288758 0.315368
O O11 0.200054 0.326370 0.281452
O O12 0.527257 0.531396 0.979287
O O13 0.629727 0.438208 0.073822
O O14 0.596880 0.624513 0.142149
O O15 0.500000 0.750000 0.146649
O O16 0.400373 0.750555 0.957874
O O17 0.102883 0.583911 0.080908
O O18 0.034022 0.500000 0.250000
O O19 0.250000 0.859429 0.500000
#
# Coordination Sequence:
#
# PCOD9333378 Si02
#       8
#     8   8   8   8   8   8   8   8
#     4  10  20  30  50  76 108 138 164 205 261 312
#     4  11  20  34  52  76 104 138 173 218 261 315
#     4  10  19  33  50  76 110 141 167 212 263 313
#     4  11  19  31  49  81 113 135 164 208 264 325
#     4  11  20  30  51  76 111 139 172 207 257 317
#     4  10  19  31  49  79 109 136 164 212 268 320
#     4  10  20  29  51  77 107 136 167 208 272 324
#     4  11  23  34  51  75 108 144 176 210 258 310
#
# _framework density 23.115562000000001
#
# number of rings (size 3 to 8) (size 9 to 14) (size 15 to 20)
#    0.000    1.500    6.250    1.500    7.000    0.000 
#    0.000    1.875    0.000    0.750    0.000    2.625 
#    0.000    0.000    0.000    0.000    0.000    0.000 
#
# Total GULP energy -178440.943650 kJ/mol
# GULP energy per Si atom -5576.279489 kJ/mol
# Density = 2.306295 g / cm^3
# Si number density = 23.115562 Si / 1000 Ang^3
#
#
#
# Elastic Constant Matrix: (Units=GPa)
#
#
# Indices 1 2 3 4 5 6 
#
# 1 165.8552 60.4150 -7.0249 0.0000 0.0000 0.0000
# 2 60.4150 149.3977 0.2288 0.0000 0.0000 0.0000
# 3 -7.0249 0.2288 49.0545 0.0000 0.0000 0.0000
# 4 0.0000 0.0000 0.0000 7.6161 0.0000 0.0000
# 5 0.0000 0.0000 0.0000 0.0000 -4.0662 0.0000
# 6 0.0000 0.0000 0.0000 0.0000 0.0000 33.1822
#
#
#
# Elastic Compliance Matrix: (Units=1/GPa)
#
#
# Indices 1 2 3 4 5 6 
#
# 1 0.007123 -0.002882 0.001033 0.000000 0.000000 0.000000
# 2 -0.002882 0.007860 -0.000449 0.000000 0.000000 0.000000
# 3 0.001033 -0.000449 0.020536 0.000000 0.000000 0.000000
# 4 0.000000 0.000000 0.000000 0.131301 0.000000 0.000000
# 5 0.000000 0.000000 0.000000 0.000000 -0.245928 0.000000
# 6 0.000000 0.000000 0.000000 0.000000 0.000000 0.030137
#
#
# Mechanical properties :
#
#
# Convention : Reuss Voigt Hill
#
# Bulk Modulus (GPa) = 32.33903 52.39391 42.36647
# Shear Modulus (GPa) = -146.76278 28.05897 -59.35190
#
# Velocity S-wave (km/s) = -7.97676 3.48782 -5.07266
# Velocity P-wave (km/s) = 8.41533 6.23981 3.99266
#
# Compressibility (1/GPa) = 0.03092239
#
# Stress axis : x y z
#
# Youngs Moduli (GPa) = 140.39121 127.23128 48.69593
#
# Poissons Ratio (x) = 0.36669 -0.05033
# Poissons Ratio (y) = 0.40461 0.02188
# Poissons Ratio (z) = -0.14509 0.05718
#
# Static dielectric constant tensor:
#      x y z
#    x 1.928830 0.000000 0.000000 
#    y 0.000000 1.916820 0.000000 
#    z 0.000000 0.000000 1.945520 
# 
# From -- ./inp_files/21720.got.cif
#   From: 2010.05.17/outbox.cif.g08.bks.cpg/sg24_11_cif.got.tgz:21720.got - 2010.06.04 00:33:39.
