data_PCOD9333966
_publ_section_title
;
Structure prediction by ZEFSAII (Michael W. Deem and Ramdas Pophale) SiO2 
 PCOD9333966
Probable space group: I 21 21 21
;
_chemical_formula_sum "Si O2"
_cell_formula_units_Z 56
_cell_length_a 14.503827
_cell_length_b 7.388514
_cell_length_c 23.993568
_cell_angle_alpha 90.000000
_cell_angle_beta 90.000000
_cell_angle_gamma 90.000000
_cell_volume 2571.192228
_symmetry_space_group_name_H-M "I 21 21 21"
_symmetry_group_IT_number 24
_symmetry_cell_setting 'orthorhombic'
loop_
_space_group_symop_operation_xyz
x,y,z
-x,1/2-y,z
x,-y,1/2-z
1/2-x,y,-z
1/2+x,1/2+y,1/2+z
1/2-x,-y,1/2+z
1/2+x,1/2-y,-z
-x,1/2+y,1/2-z
loop_
_atom_site_type_symbol
_atom_site_label
_atom_site_fract_x
_atom_site_fract_y
_atom_site_fract_z
Si Si1 0.400831 0.283801 0.599626
Si Si2 0.300044 0.277773 0.364159
Si Si3 0.357617 0.294210 0.481666
Si Si4 0.699956 0.777772 0.364159
Si Si5 0.400831 0.283800 0.900374
Si Si6 0.357617 0.705793 0.481666
Si Si7 0.108511 0.715926 0.750000
O O1 0.500000 0.250000 0.626672
O O2 0.307174 0.222072 0.629469
O O3 0.402372 0.207647 0.536279
O O4 0.390661 0.500000 0.594392
O O5 0.355040 0.215795 0.419610
O O6 0.301892 0.500001 0.365692
O O7 0.345005 0.216228 0.306819
O O8 0.250000 0.303813 0.500000
O O9 0.393201 0.500002 0.476198
O O10 0.807174 0.722071 0.370531
O O11 0.644960 0.715793 0.419610
O O12 0.654996 0.716228 0.306819
O O13 0.500000 0.250000 0.873328
O O14 0.402373 0.207645 0.963721
O O15 0.250000 0.696192 0.500000
O O16 0.122740 0.500000 0.750000
O O17 0.000000 0.750000 0.750000
#
# Coordination Sequence:
#
# PCOD9333966 Si02
#       7
#     8   8   8   8   8   8   8
#     4   9  16  27  45  68  92 118 148 180 216 261
#     4   8  15  29  47  65  88 120 152 179 214 266
#     4   7  11  22  41  62  83 111 146 177 205 246
#     4   8  15  29  47  65  88 120 152 179 214 266
#     4   9  16  27  45  68  92 118 148 180 216 261
#     4   7  11  22  41  62  83 111 146 177 205 246
#     4  10  20  34  51  68  86 112 149 188 223 262
#
# _framework density 21.779779999999999
#
# number of rings (size 3 to 8) (size 9 to 14) (size 15 to 20)
#    0.000    3.714    0.000    3.429    0.000    1.143 
#    0.000    2.143    0.000    7.714    0.000    0.000 
#    0.000    0.000    0.000    0.000    0.000    0.000 
#
# Total GULP energy -155974.040412 kJ/mol
# GULP energy per Si atom -5570.501443 kJ/mol
# Density = 2.173021 g / cm^3
# Si number density = 21.779780 Si / 1000 Ang^3
#
#
#
# Elastic Constant Matrix: (Units=GPa)
#
#
# Indices 1 2 3 4 5 6 
#
# 1 135.5708 -2.3330 76.7580 0.0000 0.0000 0.0000
# 2 -2.3330 77.2659 9.5988 0.0000 0.0000 0.0000
# 3 76.7580 9.5988 180.3706 0.0000 0.0000 0.0000
# 4 0.0000 0.0000 0.0000 -4.8282 0.0000 0.0000
# 5 0.0000 0.0000 0.0000 0.0000 23.8441 0.0000
# 6 0.0000 0.0000 0.0000 0.0000 0.0000 14.3850
#
#
#
# Elastic Compliance Matrix: (Units=1/GPa)
#
#
# Indices 1 2 3 4 5 6 
#
# 1 0.009769 0.000817 -0.004201 0.000000 0.000000 0.000000
# 2 0.000817 0.013097 -0.001045 0.000000 0.000000 0.000000
# 3 -0.004201 -0.001045 0.007387 0.000000 0.000000 0.000000
# 4 0.000000 0.000000 0.000000 -0.207118 0.000000 0.000000
# 5 0.000000 0.000000 0.000000 0.000000 0.041939 0.000000
# 6 0.000000 0.000000 0.000000 0.000000 0.000000 0.069517
#
#
# Mechanical properties :
#
#
# Convention : Reuss Voigt Hill
#
# Bulk Modulus (GPa) = 46.73779 62.36166 54.54973
# Shear Modulus (GPa) = -101.17167 27.29243 -36.93962
#
# Velocity S-wave (km/s) = -6.82297 3.54377 -4.12278
# Velocity P-wave (km/s) = 6.36905 6.74087 1.56119
#
# Compressibility (1/GPa) = 0.02139596
#
# Stress axis : x y z
#
# Youngs Moduli (GPa) = 102.36931 76.35486 135.36741
#
# Poissons Ratio (x) = -0.06237 0.56862
# Poissons Ratio (y) = -0.08361 0.14140
# Poissons Ratio (z) = 0.43001 0.07976
#
# Static dielectric constant tensor:
#      x y z
#    x 1.796940 0.000000 0.000000 
#    y 0.000000 1.860500 0.000000 
#    z 0.000000 0.000000 1.798180 
# 
# From -- ./inp_files/27572.got.cif
#   From: 2010.05.17/outbox.cif.g08.bks.cpg/sg24_14_cif.got.tgz:27572.got - 2010.06.04 00:33:39.
