data_PCOD9333620
_publ_section_title
;
Structure prediction by ZEFSAII (Michael W. Deem and Ramdas Pophale) SiO2 
 PCOD9333620
Probable space group: I 21 21 21
;
_chemical_formula_sum "Si O2"
_cell_formula_units_Z 44
_cell_length_a 9.492278
_cell_length_b 17.402993
_cell_length_c 10.767359
_cell_angle_alpha 90.000000
_cell_angle_beta 90.000000
_cell_angle_gamma 90.000000
_cell_volume 1778.703615
_symmetry_space_group_name_H-M "I 21 21 21"
_symmetry_group_IT_number 24
_symmetry_cell_setting 'orthorhombic'
loop_
_space_group_symop_operation_xyz
x,y,z
-x,1/2-y,z
x,-y,1/2-z
1/2-x,y,-z
1/2+x,1/2+y,1/2+z
1/2-x,-y,1/2+z
1/2+x,1/2-y,-z
-x,1/2+y,1/2-z
loop_
_atom_site_type_symbol
_atom_site_label
_atom_site_fract_x
_atom_site_fract_y
_atom_site_fract_z
Si Si1 0.438197 0.831677 0.353103
Si Si2 0.613898 0.145750 0.383078
Si Si3 0.487198 0.490888 0.105716
Si Si4 0.915756 0.175523 0.325564
Si Si5 0.250000 0.076736 0.500000
Si Si6 0.334978 0.907023 0.742055
O O1 0.500000 0.750000 0.398404
O O2 0.486150 0.836724 0.208531
O O3 0.524320 0.901308 0.418434
O O4 0.273837 0.862390 0.350215
O O5 0.748535 0.177888 0.310462
O O6 0.581461 0.170891 0.522956
O O7 0.635444 0.053498 0.399162
O O8 0.530537 0.500000 0.250000
O O9 0.614144 0.524489 0.025294
O O10 0.000000 0.250000 0.285496
O O11 0.998446 0.110567 0.247411
O O12 0.288182 0.123464 0.621495
O O13 0.318574 0.000000 0.750000
#
# Coordination Sequence:
#
# PCOD9333620 Si02
#       6
#     8   8   8   8   4   8
#     4  11  20  35  57  85 116 147 200 243 286 339
#     4  10  20  36  54  81 117 157 184 233 294 367
#     4  10  19  35  59  87 112 154 204 229 291 348
#     4  11  23  35  53  87 120 147 185 239 314 349
#     4  12  16  36  60  84 116 140 200 256 252 364
#     4  12  21  36  59  90 110 157 200 240 296 347
#
# _framework density 24.737117999999999
#
# number of rings (size 3 to 8) (size 9 to 14) (size 15 to 20)
#    0.000    1.091    7.273    1.636    0.000    5.091 
#    0.000    0.000    0.000    3.273    0.000    0.000 
#    0.000    0.000    0.000    0.000    0.000    0.000 
#
# Total GULP energy -122564.279366 kJ/mol
# GULP energy per Si atom -5571.103608 kJ/mol
# Density = 2.468082 g / cm^3
# Si number density = 24.737118 Si / 1000 Ang^3
#
#
#
# Elastic Constant Matrix: (Units=GPa)
#
#
# Indices 1 2 3 4 5 6 
#
# 1 134.1716 39.1488 6.7790 0.0000 0.0000 0.0000
# 2 39.1488 153.9306 -20.6266 -0.0001 0.0000 0.0000
# 3 6.7790 -20.6266 39.0981 -0.0001 0.0000 0.0000
# 4 0.0000 -0.0001 -0.0001 20.8359 0.0000 0.0000
# 5 0.0000 0.0000 0.0000 0.0000 19.0106 0.0000
# 6 0.0000 0.0000 0.0000 0.0000 0.0000 29.3697
#
#
#
# Elastic Compliance Matrix: (Units=1/GPa)
#
#
# Indices 1 2 3 4 5 6 
#
# 1 0.008317 -0.002484 -0.002753 0.000000 0.000000 0.000000
# 2 -0.002484 0.007733 0.004510 0.000000 0.000000 0.000000
# 3 -0.002753 0.004510 0.028433 0.000000 0.000000 0.000000
# 4 0.000000 0.000000 0.000000 0.047994 0.000000 0.000000
# 5 0.000000 0.000000 0.000000 0.000000 0.052602 0.000000
# 6 0.000000 0.000000 0.000000 0.000000 0.000000 0.034049
#
#
# Mechanical properties :
#
#
# Convention : Reuss Voigt Hill
#
# Bulk Modulus (GPa) = 23.23974 41.97807 32.60891
# Shear Modulus (GPa) = 25.65101 33.96985 29.81043
#
# Velocity S-wave (km/s) = 3.22366 3.70974 3.47521
# Velocity P-wave (km/s) = 4.82400 5.94609 5.41420
#
# Compressibility (1/GPa) = 0.04302973
#
# Stress axis : x y z
#
# Youngs Moduli (GPa) = 120.23528 129.32340 35.17009
#
# Poissons Ratio (x) = 0.32125 0.09681
# Poissons Ratio (y) = 0.29867 -0.15862
# Poissons Ratio (z) = 0.33095 -0.58326
#
# Static dielectric constant tensor:
#      x y z
#    x 2.037730 0.000000 0.000000 
#    y 0.000000 2.135610 0.000000 
#    z 0.000000 0.000000 1.989470 
# 
# From -- ./inp_files/24711.got.cif
#   From: 2010.05.17/outbox.cif.g08.bks.cpg/sg24_13_cif.got.tgz:24711.got - 2010.06.04 00:33:39.
