data_PCOD9333494
_publ_section_title
;
Structure prediction by ZEFSAII (Michael W. Deem and Ramdas Pophale) SiO2 
 PCOD9333494
Probable space group: I 21 21 21
;
_chemical_formula_sum "Si O2"
_cell_formula_units_Z 60
_cell_length_a 12.686473
_cell_length_b 30.156665
_cell_length_c 7.810241
_cell_angle_alpha 90.000000
_cell_angle_beta 90.000000
_cell_angle_gamma 90.000000
_cell_volume 2988.055406
_symmetry_space_group_name_H-M "I 21 21 21"
_symmetry_group_IT_number 24
_symmetry_cell_setting 'orthorhombic'
loop_
_space_group_symop_operation_xyz
x,y,z
-x,1/2-y,z
x,-y,1/2-z
1/2-x,y,-z
1/2+x,1/2+y,1/2+z
1/2-x,-y,1/2+z
1/2+x,1/2-y,-z
-x,1/2+y,1/2-z
loop_
_atom_site_type_symbol
_atom_site_label
_atom_site_fract_x
_atom_site_fract_y
_atom_site_fract_z
Si Si1 0.916765 0.289955 0.110953
Si Si2 0.809312 0.288644 0.733659
Si Si3 0.961685 0.359176 0.618183
Si Si4 0.164900 0.691263 0.864092
Si Si5 0.132157 0.956176 0.446070
Si Si6 0.368573 0.055234 0.541213
Si Si7 0.750000 0.151957 0.000000
Si Si8 0.024910 0.377910 0.007086
O O1 0.815554 0.288957 0.233424
O O2 0.000000 0.250000 0.136304
O O3 0.867938 0.286291 0.918807
O O4 0.972151 0.338047 0.115646
O O5 0.853985 0.331773 0.638930
O O6 0.841426 0.244168 0.637890
O O7 0.943820 0.405656 0.523155
O O8 0.055504 0.327389 0.559394
O O9 0.005384 0.366606 0.809313
O O10 0.207193 0.679068 0.668592
O O11 0.250000 0.675293 0.000000
O O12 0.250000 0.940840 0.500000
O O13 0.130065 0.953638 0.241915
O O14 0.037457 0.923458 0.485057
O O15 0.115745 0.004968 0.527613
O O16 0.250000 0.069267 0.500000
O O17 0.851769 0.122989 0.049654
#
# Coordination Sequence:
#
# PCOD9333494 Si02
#       8
#     8   8   8   8   8   8   4   8
#     4  10  19  33  59  90 123 174 214 259 302 374
#     4  10  20  36  56  86 129 163 212 265 313 363
#     4  10  22  39  60  88 123 161 202 266 318 371
#     4  11  23  40  62  87 125 172 217 258 313 379
#     4  10  22  39  64  91 120 158 205 256 320 402
#     4  10  22  39  61  90 125 156 193 264 332 376
#     4  10  22  42  62  88 124 176 210 268 312 372
#     4  10  21  36  65  89 121 164 215 253 318 381
#
# _framework density 20.079951000000001
#
# number of rings (size 3 to 8) (size 9 to 14) (size 15 to 20)
#    0.000    1.867    0.000    5.200    7.467    2.133 
#    0.000    1.333    1.467    0.000    0.000    0.000 
#    0.000    0.000    0.000    0.000    0.000    0.000 
#
# Total GULP energy -167301.816005 kJ/mol
# GULP energy per Si atom -5576.727200 kJ/mol
# Density = 2.003425 g / cm^3
# Si number density = 20.079951 Si / 1000 Ang^3
#
#
#
# Elastic Constant Matrix: (Units=GPa)
#
#
# Indices 1 2 3 4 5 6 
#
# 1 147.6502 78.0254 14.4797 0.0001 0.0002 0.0003
# 2 78.0254 114.5625 17.4289 -0.0001 0.0001 -0.0003
# 3 14.4797 17.4289 36.5001 -0.0010 0.0077 -0.0001
# 4 0.0001 -0.0001 -0.0010 31.4199 0.0010 0.0035
# 5 0.0002 0.0001 0.0077 0.0010 20.1018 -0.0025
# 6 0.0003 -0.0003 -0.0001 0.0035 -0.0025 22.5320
#
#
#
# Elastic Compliance Matrix: (Units=1/GPa)
#
#
# Indices 1 2 3 4 5 6 
#
# 1 0.010604 -0.007097 -0.000817 0.000000 0.000000 0.000000
# 2 -0.007097 0.014163 -0.003947 0.000000 0.000002 0.000000
# 3 -0.000817 -0.003947 0.029606 0.000001 -0.000011 0.000000
# 4 0.000000 0.000000 0.000001 0.031827 -0.000002 -0.000005
# 5 0.000000 0.000002 -0.000011 -0.000002 0.049747 0.000005
# 6 0.000000 0.000000 0.000000 -0.000005 0.000005 0.044381
#
#
# Mechanical properties :
#
#
# Convention : Reuss Voigt Hill
#
# Bulk Modulus (GPa) = 32.62790 57.62009 45.12399
# Shear Modulus (GPa) = 23.33515 27.39600 25.36558
#
# Velocity S-wave (km/s) = 3.41267 3.69771 3.55805
# Velocity P-wave (km/s) = 5.64028 6.85481 6.27699
#
# Compressibility (1/GPa) = 0.03064862
#
# Stress axis : x y z
#
# Youngs Moduli (GPa) = 94.30805 70.60514 33.77656
#
# Poissons Ratio (x) = 0.50112 0.02761
# Poissons Ratio (y) = 0.66935 0.13333
# Poissons Ratio (z) = 0.07709 0.27871
#
# Static dielectric constant tensor:
#      x y z
#    x 1.648410 0.000000 0.000010 
#    y 0.000000 1.838110 0.000010 
#    z 0.000010 0.000010 1.762320 
# 
# From -- ./inp_files/11542.got.cif
#   From: 2010.05.17/outbox.cif.g08.bks.cpg/sg24_6_cif.got.tgz:11542.got - 2010.06.04 00:33:39.
