data_PCOD9333190
_publ_section_title
;
Structure prediction by ZEFSAII (Michael W. Deem and Ramdas Pophale) SiO2 
 PCOD9333190
Probable space group: I 21 21 21
;
_chemical_formula_sum "Si O2"
_cell_formula_units_Z 48
_cell_length_a 9.038139
_cell_length_b 18.685067
_cell_length_c 10.461077
_cell_angle_alpha 90.000000
_cell_angle_beta 90.000000
_cell_angle_gamma 90.000000
_cell_volume 1766.648197
_symmetry_space_group_name_H-M "I 21 21 21"
_symmetry_group_IT_number 24
_symmetry_cell_setting 'orthorhombic'
loop_
_space_group_symop_operation_xyz
x,y,z
-x,1/2-y,z
x,-y,1/2-z
1/2-x,y,-z
1/2+x,1/2+y,1/2+z
1/2-x,-y,1/2+z
1/2+x,1/2-y,-z
-x,1/2+y,1/2-z
loop_
_atom_site_type_symbol
_atom_site_label
_atom_site_fract_x
_atom_site_fract_y
_atom_site_fract_z
Si Si1 0.882331 0.185233 0.676459
Si Si2 0.778001 0.000000 0.750000
Si Si3 0.750000 0.446047 0.000000
Si Si4 0.221364 0.085700 0.266960
Si Si5 0.580133 0.824564 0.463154
Si Si6 0.918821 0.140534 0.249455
Si Si7 0.494061 0.942294 0.060130
O O1 0.703620 0.198340 0.701037
O O2 0.000000 0.250000 0.662007
O O3 0.906456 0.130191 0.558600
O O4 0.918862 0.148437 0.816072
O O5 0.669709 0.933240 0.761646
O O6 0.887397 0.994285 0.870335
O O7 0.770402 0.396304 0.877055
O O8 0.893588 0.498546 0.012561
O O9 0.359452 0.091878 0.358349
O O10 0.077214 0.127093 0.316456
O O11 0.198597 0.000000 0.250000
O O12 0.500000 0.750000 0.452955
O O13 0.750000 0.813650 0.500000
O O14 0.531846 0.856495 0.600061
#
# Coordination Sequence:
#
# PCOD9333190 Si02
#       7
#     8   4   4   8   8   8   8
#     4   9  20  37  54  77 110 149 187 227 282 334
#     4  10  18  36  54  82 120 148 180 226 296 344
#     4  10  20  34  56  80 114 144 188 226 282 350
#     4  10  20  34  51  84 117 142 183 228 280 340
#     4   9  19  33  49  79 113 145 188 225 273 331
#     4  10  20  31  57  81 116 145 183 233 272 341
#     4  10  20  36  57  77 110 152 182 227 287 340
#
# _framework density 27.170095
#
# number of rings (size 3 to 8) (size 9 to 14) (size 15 to 20)
#    0.000    2.333    3.333    0.000    2.333    6.667 
#    0.000    0.000    0.000    4.000    0.000    0.000 
#    0.000    0.000    0.000    0.000    0.000    0.000 
#
# Total GULP energy -133630.567160 kJ/mol
# GULP energy per Si atom -5567.940298 kJ/mol
# Density = 2.710825 g / cm^3
# Si number density = 27.170095 Si / 1000 Ang^3
#
#
#
# Elastic Constant Matrix: (Units=GPa)
#
#
# Indices 1 2 3 4 5 6 
#
# 1 136.6547 19.1915 24.7236 0.0000 0.0000 0.0000
# 2 19.1915 74.0339 -16.4434 0.0000 0.0000 0.0000
# 3 24.7236 -16.4434 42.0118 0.0001 0.0000 0.0000
# 4 0.0000 0.0000 0.0001 6.4695 0.0000 0.0000
# 5 0.0000 0.0000 0.0000 0.0000 53.1907 0.0000
# 6 0.0000 0.0000 0.0000 0.0000 0.0000 54.8473
#
#
#
# Elastic Compliance Matrix: (Units=1/GPa)
#
#
# Indices 1 2 3 4 5 6 
#
# 1 0.009109 -0.003890 -0.006883 0.000000 0.000000 0.000000
# 2 -0.003890 0.016455 0.008730 0.000000 0.000000 0.000000
# 3 -0.006883 0.008730 0.031271 0.000000 0.000000 0.000000
# 4 0.000000 0.000000 0.000000 0.154572 0.000000 0.000000
# 5 0.000000 0.000000 0.000000 0.000000 0.018800 0.000000
# 6 0.000000 0.000000 0.000000 0.000000 0.000000 0.018232
#
#
# Mechanical properties :
#
#
# Convention : Reuss Voigt Hill
#
# Bulk Modulus (GPa) = 18.95849 34.18264 26.57057
# Shear Modulus (GPa) = 18.51103 37.91675 28.21389
#
# Velocity S-wave (km/s) = 2.61301 3.73974 3.22594
# Velocity P-wave (km/s) = 4.01206 5.59069 4.86582
#
# Compressibility (1/GPa) = 0.05274682
#
# Stress axis : x y z
#
# Youngs Moduli (GPa) = 109.77654 60.77280 31.97894
#
# Poissons Ratio (x) = 0.23642 0.22013
# Poissons Ratio (y) = 0.42706 -0.27917
# Poissons Ratio (z) = 0.75564 -0.53053
#
# Static dielectric constant tensor:
#      x y z
#    x 2.319440 0.000000 0.000000 
#    y 0.000000 2.113550 0.000000 
#    z 0.000000 0.000000 2.912940 
# 
# From -- ./inp_files/25123.got.cif
#   From: 2010.05.17/outbox.cif.g08.bks.cpg/sg24_13_cif.got.tgz:25123.got - 2010.06.04 00:33:39.
