data_PCOD9333818
_publ_section_title
;
Structure prediction by ZEFSAII (Michael W. Deem and Ramdas Pophale) SiO2 
 PCOD9333818
Probable space group: I 21 21 21
;
_chemical_formula_sum "Si O2"
_cell_formula_units_Z 48
_cell_length_a 15.097520
_cell_length_b 9.051820
_cell_length_c 17.020370
_cell_angle_alpha 90.000000
_cell_angle_beta 90.000000
_cell_angle_gamma 90.000000
_cell_volume 2326.004334
_symmetry_space_group_name_H-M "I 21 21 21"
_symmetry_group_IT_number 24
_symmetry_cell_setting 'orthorhombic'
loop_
_space_group_symop_operation_xyz
x,y,z
-x,1/2-y,z
x,-y,1/2-z
1/2-x,y,-z
1/2+x,1/2+y,1/2+z
1/2-x,-y,1/2+z
1/2+x,1/2-y,-z
-x,1/2+y,1/2-z
loop_
_atom_site_type_symbol
_atom_site_label
_atom_site_fract_x
_atom_site_fract_y
_atom_site_fract_z
Si Si1 0.808423 0.504614 0.079375
Si Si2 0.698820 0.721217 0.333444
Si Si3 0.663938 0.041369 0.045609
Si Si4 0.053229 0.964552 0.828920
Si Si5 0.700553 0.232294 0.340166
Si Si6 0.495928 0.072684 0.505549
O O1 0.784156 0.358886 0.128760
O O2 0.770440 0.647418 0.126209
O O3 0.750000 0.498958 0.000000
O O4 0.910414 0.520134 0.053677
O O5 0.631254 0.585366 0.321171
O O6 0.721990 0.797951 0.250870
O O7 0.647955 0.828896 0.392397
O O8 0.690026 0.898543 0.097951
O O9 0.591344 0.998935 0.979938
O O10 0.750000 0.092263 0.000000
O O11 0.103290 0.808071 0.834042
O O12 0.011903 0.976759 0.914203
O O13 0.997564 0.000000 0.750000
O O14 0.500000 0.250000 0.510780
#
# Coordination Sequence:
#
# PCOD9333818 Si02
#       6
#     8   8   8   8   8   8
#     4  11  19  39  65  88 125 161 212 255 312 384
#     4  10  22  39  61  91 126 167 200 258 325 373
#     4  12  25  39  59  92 127 162 211 264 324 376
#     4   9  19  36  58  88 122 157 199 242 309 382
#     4  10  19  39  65  88 121 166 211 257 308 380
#     4  12  22  38  63  93 124 168 213 260 315 379
#
# _framework density 20.636244999999999
#
# number of rings (size 3 to 8) (size 9 to 14) (size 15 to 20)
#    0.000    1.333    5.000    4.000    0.000    2.000 
#    0.000    0.000    0.000   10.000    0.000    0.000 
#    0.000    0.000    0.000    0.000    0.000    0.000 
#
# Total GULP energy -133922.815279 kJ/mol
# GULP energy per Si atom -5580.117303 kJ/mol
# Density = 2.058928 g / cm^3
# Si number density = 20.636245 Si / 1000 Ang^3
#
#
#
# Elastic Constant Matrix: (Units=GPa)
#
#
# Indices 1 2 3 4 5 6 
#
# 1 94.3659 10.6241 15.3136 0.0000 0.0000 0.0000
# 2 10.6241 71.3097 10.5803 0.0000 0.0000 0.0000
# 3 15.3136 10.5803 43.4569 0.0000 0.0000 0.0000
# 4 0.0000 0.0000 0.0000 26.2024 0.0000 0.0000
# 5 0.0000 0.0000 0.0000 0.0000 24.1515 0.0000
# 6 0.0000 0.0000 0.0000 0.0000 0.0000 18.1877
#
#
#
# Elastic Compliance Matrix: (Units=1/GPa)
#
#
# Indices 1 2 3 4 5 6 
#
# 1 0.011328 -0.001136 -0.003715 0.000000 0.000000 0.000000
# 2 -0.001136 0.014663 -0.003169 0.000000 0.000000 0.000000
# 3 -0.003715 -0.003169 0.025092 0.000000 0.000000 0.000000
# 4 0.000000 0.000000 0.000000 0.038164 0.000000 0.000000
# 5 0.000000 0.000000 0.000000 0.000000 0.041405 0.000000
# 6 0.000000 0.000000 0.000000 0.000000 0.000000 0.054982
#
#
# Mechanical properties :
#
#
# Convention : Reuss Voigt Hill
#
# Bulk Modulus (GPa) = 28.53809 31.35205 29.94507
# Shear Modulus (GPa) = 23.43490 25.21597 24.32543
#
# Velocity S-wave (km/s) = 3.37355 3.49940 3.43705
# Velocity P-wave (km/s) = 5.38828 5.61724 5.50395
#
# Compressibility (1/GPa) = 0.03504088
#
# Stress axis : x y z
#
# Youngs Moduli (GPa) = 88.27779 68.19926 39.85314
#
# Poissons Ratio (x) = 0.07751 0.14806
# Poissons Ratio (y) = 0.10033 0.12631
# Poissons Ratio (z) = 0.32796 0.21615
#
# Static dielectric constant tensor:
#      x y z
#    x 1.857940 0.000000 0.000000 
#    y 0.000000 1.747810 0.000000 
#    z 0.000000 0.000000 1.831280 
# 
# From -- ./inp_files/14152.got.cif
#   From: 2010.05.17/outbox.cif.g08.bks.cpg/sg24_8_cif.got.tgz:14152.got - 2010.06.04 00:33:39.
