data_PCOD9333977
_publ_section_title
;
Structure prediction by ZEFSAII (Michael W. Deem and Ramdas Pophale) SiO2 
 PCOD9333977
Probable space group: I 21 21 21
;
_chemical_formula_sum "Si O2"
_cell_formula_units_Z 64
_cell_length_a 30.764908
_cell_length_b 8.480621
_cell_length_c 14.797922
_cell_angle_alpha 90.000000
_cell_angle_beta 90.000000
_cell_angle_gamma 90.000000
_cell_volume 3860.859606
_symmetry_space_group_name_H-M "I 21 21 21"
_symmetry_group_IT_number 24
_symmetry_cell_setting 'orthorhombic'
loop_
_space_group_symop_operation_xyz
x,y,z
-x,1/2-y,z
x,-y,1/2-z
1/2-x,y,-z
1/2+x,1/2+y,1/2+z
1/2-x,-y,1/2+z
1/2+x,1/2-y,-z
-x,1/2+y,1/2-z
loop_
_atom_site_type_symbol
_atom_site_label
_atom_site_fract_x
_atom_site_fract_y
_atom_site_fract_z
Si Si1 0.548365 0.688981 0.855059
Si Si2 0.133998 0.313848 0.434245
Si Si3 0.707790 0.312302 0.061364
Si Si4 0.451635 0.811019 0.644941
Si Si5 0.133998 0.313848 0.065755
Si Si6 0.792209 0.687697 0.938636
Si Si7 0.326782 0.184388 0.750000
Si Si8 0.232954 0.683771 0.750000
O O1 0.500000 0.750000 0.874650
O O2 0.584428 0.757943 0.922019
O O3 0.558225 0.735394 0.750000
O O4 0.549413 0.500000 0.858893
O O5 0.135966 0.500000 0.448936
O O6 0.163813 0.228050 0.508009
O O7 0.155367 0.267462 0.338725
O O8 0.711100 0.500000 0.075809
O O9 0.708775 0.224079 0.157019
O O10 0.750000 0.265687 0.000000
O O11 0.663813 0.271949 0.008008
O O12 0.500000 0.750000 0.625350
O O13 0.415572 0.742056 0.577981
O O14 0.155366 0.267463 0.161276
O O15 0.791225 0.775920 0.842980
O O16 0.750000 0.734312 0.000000
O O17 0.275280 0.205615 0.750001
O O18 0.339102 0.000000 0.750000
O O19 0.245813 0.500000 0.750000
#
# Coordination Sequence:
#
# PCOD9333977 Si02
#       8
#     8   8   8   8   8   8   8   8
#     4  10  20  34  53  77 110 145 181 222 271 325
#     4  12  23  35  54  80 109 144 186 227 271 321
#     4  11  23  38  57  78 108 146 185 224 271 324
#     4  10  20  34  53  77 110 145 181 222 271 325
#     4  12  23  35  54  80 109 144 186 227 271 321
#     4  11  23  38  57  78 108 146 185 224 271 324
#     4  12  22  34  51  75 108 147 185 222 269 321
#     4  12  24  38  56  79 108 141 184 232 274 317
#
# _framework density 16.576619999999998
#
# number of rings (size 3 to 8) (size 9 to 14) (size 15 to 20)
#    0.000    0.750    3.750    6.000    0.000    2.000 
#    0.000    0.000    0.000    0.000    0.000    0.875 
#    0.000    0.000    0.000    0.000    0.000    0.000 
#
# Total GULP energy -178847.270848 kJ/mol
# GULP energy per Si atom -5588.977214 kJ/mol
# Density = 1.653889 g / cm^3
# Si number density = 16.576620 Si / 1000 Ang^3
#
#
#
# Elastic Constant Matrix: (Units=GPa)
#
#
# Indices 1 2 3 4 5 6 
#
# 1 98.2778 6.3092 33.4351 0.0000 0.0000 0.0000
# 2 6.3092 63.3389 11.1999 0.0000 0.0000 0.0000
# 3 33.4351 11.1999 85.7481 0.0000 0.0000 0.0000
# 4 0.0000 0.0000 0.0000 21.4009 0.0000 0.0000
# 5 0.0000 0.0000 0.0000 0.0000 17.6770 0.0000
# 6 0.0000 0.0000 0.0000 0.0000 0.0000 29.7636
#
#
#
# Elastic Compliance Matrix: (Units=1/GPa)
#
#
# Indices 1 2 3 4 5 6 
#
# 1 0.011740 -0.000368 -0.004530 0.000000 0.000000 0.000000
# 2 -0.000368 0.016173 -0.001969 0.000000 0.000000 0.000000
# 3 -0.004530 -0.001969 0.013685 0.000000 0.000000 0.000000
# 4 0.000000 0.000000 0.000000 0.046727 0.000000 0.000000
# 5 0.000000 0.000000 0.000000 0.000000 0.056571 0.000000
# 6 0.000000 0.000000 0.000000 0.000000 0.000000 0.033598
#
#
# Mechanical properties :
#
#
# Convention : Reuss Voigt Hill
#
# Bulk Modulus (GPa) = 35.88769 38.80592 37.34680
# Shear Modulus (GPa) = 24.81196 26.86301 25.83749
#
# Velocity S-wave (km/s) = 3.87305 4.02996 3.95228
# Velocity P-wave (km/s) = 6.45735 6.71676 6.58833
#
# Compressibility (1/GPa) = 0.02786470
#
# Stress axis : x y z
#
# Youngs Moduli (GPa) = 85.17981 61.83183 73.07080
#
# Poissons Ratio (x) = 0.02278 0.33097
# Poissons Ratio (y) = 0.03139 0.14386
# Poissons Ratio (z) = 0.38582 0.12173
#
# Static dielectric constant tensor:
#      x y z
#    x 1.570890 0.000000 0.000000 
#    y 0.000000 1.547020 0.000000 
#    z 0.000000 0.000000 1.550950 
# 
# From -- ./inp_files/28296.got.cif
#   From: 2010.05.17/outbox.cif.g08.bks.cpg/sg24_15_cif.got.tgz:28296.got - 2010.06.04 00:33:39.
