data_PCOD9333545
_publ_section_title
;
Structure prediction by ZEFSAII (Michael W. Deem and Ramdas Pophale) SiO2 
 PCOD9333545
Probable space group: I 21 21 21
;
_chemical_formula_sum "Si O2"
_cell_formula_units_Z 64
_cell_length_a 15.853863
_cell_length_b 24.760240
_cell_length_c 7.898621
_cell_angle_alpha 90.000000
_cell_angle_beta 90.000000
_cell_angle_gamma 90.000000
_cell_volume 3100.567757
_symmetry_space_group_name_H-M "I 21 21 21"
_symmetry_group_IT_number 24
_symmetry_cell_setting 'orthorhombic'
loop_
_space_group_symop_operation_xyz
x,y,z
-x,1/2-y,z
x,-y,1/2-z
1/2-x,y,-z
1/2+x,1/2+y,1/2+z
1/2-x,-y,1/2+z
1/2+x,1/2-y,-z
-x,1/2+y,1/2-z
loop_
_atom_site_type_symbol
_atom_site_label
_atom_site_fract_x
_atom_site_fract_y
_atom_site_fract_z
Si Si1 0.398379 1.000000 0.453981
Si Si2 0.155716 0.383646 0.048050
Si Si3 0.502284 0.689029 0.047324
Si Si4 0.156989 0.883414 0.954012
Si Si5 0.656989 0.616586 0.454012
Si Si6 0.655716 0.883646 0.951950
Si Si7 0.997716 0.310971 0.952676
Si Si8 0.595467 0.000000 0.954151
O O1 0.357122 0.944642 0.518307
O O2 0.497140 1.000000 0.498356
O O3 0.391336 0.000000 0.250000
O O4 0.357122 0.055358 0.518307
O O5 0.149451 0.385210 0.250000
O O6 0.137216 0.444511 0.982102
O O7 0.250000 0.367090 0.000000
O O8 0.083578 0.343409 0.984964
O O9 0.500000 0.750000 0.979488
O O10 0.581598 0.654440 0.981398
O O11 0.513098 0.692580 0.250000
O O12 0.416422 0.656591 0.015036
O O13 0.150882 0.885146 0.750000
O O14 0.250000 0.864060 0.000000
O O15 0.750000 0.635940 0.500000
O O16 0.581598 0.654440 0.518602
O O17 0.637216 0.944511 0.017898
O O18 0.750000 0.867090 0.000000
O O19 0.000000 0.250000 0.020512
O O20 0.601955 0.000000 0.750000
#
# Coordination Sequence:
#
# PCOD9333545 Si02
#       8
#     8   8   8   8   8   8   8   8
#     4  10  19  34  58  85 113 149 189 233 291 350
#     4  11  23  39  61  89 120 155 195 241 295 352
#     4  10  22  41  62  85 116 154 198 246 292 342
#     4  10  21  36  57  85 115 149 188 233 287 344
#     4  10  21  36  57  85 115 149 188 233 287 344
#     4  11  23  39  61  89 120 155 195 241 295 352
#     4  10  22  41  62  85 116 154 198 246 292 342
#     4  10  21  36  58  89 119 151 191 239 293 350
#
# _framework density 20.641379000000001
#
# number of rings (size 3 to 8) (size 9 to 14) (size 15 to 20)
#    0.000    1.750    2.500    1.500    0.000    4.500 
#    0.000    2.500    0.000    0.000    0.000    0.000 
#    0.000    0.000    0.000    0.000    0.000    0.000 
#
# Total GULP energy -178826.626238 kJ/mol
# GULP energy per Si atom -5588.332070 kJ/mol
# Density = 2.059440 g / cm^3
# Si number density = 20.641379 Si / 1000 Ang^3
#
#
#
# Elastic Constant Matrix: (Units=GPa)
#
#
# Indices 1 2 3 4 5 6 
#
# 1 180.6624 90.4838 -14.9916 0.0000 0.0000 0.0000
# 2 90.4838 175.8479 11.3422 0.0000 0.0000 0.0000
# 3 -14.9916 11.3422 14.0182 -0.0002 -0.0004 0.0000
# 4 0.0000 0.0000 -0.0002 2.2507 -0.0001 0.0000
# 5 0.0000 0.0000 -0.0004 -0.0001 33.8802 0.0000
# 6 0.0000 0.0000 0.0000 0.0000 0.0000 1.3402
#
#
#
# Elastic Compliance Matrix: (Units=1/GPa)
#
#
# Indices 1 2 3 4 5 6 
#
# 1 0.009857 -0.006068 0.015451 0.000001 0.000000 0.000000
# 2 -0.006068 0.009736 -0.014367 -0.000001 0.000000 0.000000
# 3 0.015451 -0.014367 0.099485 0.000008 0.000001 0.000000
# 4 0.000001 -0.000001 0.000008 0.444313 0.000001 0.000000
# 5 0.000000 0.000000 0.000001 0.000001 0.029516 0.000000
# 6 0.000000 0.000000 0.000000 0.000000 0.000000 0.746175
#
#
# Mechanical properties :
#
#
# Convention : Reuss Voigt Hill
#
# Bulk Modulus (GPa) = 9.16523 60.46638 34.81580
# Shear Modulus (GPa) = 3.60902 26.40713 15.00807
#
# Velocity S-wave (km/s) = 1.32372 3.58065 2.69938
# Velocity P-wave (km/s) = 2.60503 6.81558 5.15937
#
# Compressibility (1/GPa) = 0.10910804
#
# Stress axis : x y z
#
# Youngs Moduli (GPa) = 101.45406 102.71186 10.05182
#
# Poissons Ratio (x) = 0.62330 -0.15531
# Poissons Ratio (y) = 0.61567 0.14442
# Poissons Ratio (z) = -1.56758 1.47569
#
# Static dielectric constant tensor:
#      x y z
#    x 1.633140 0.000000 0.000000 
#    y 0.000000 1.752190 0.000000 
#    z 0.000000 0.000000 1.941560 
# 
# From -- ./inp_files/13349.got.cif
#   From: 2010.05.17/outbox.cif.g08.bks.cpg/sg24_7_cif.got.tgz:13349.got - 2010.06.04 00:33:39.
