data_PCOD9333675
_publ_section_title
;
Structure prediction by ZEFSAII (Michael W. Deem and Ramdas Pophale) SiO2 
 PCOD9333675
Probable space group: I 21 21 21
;
_chemical_formula_sum "Si O2"
_cell_formula_units_Z 56
_cell_length_a 7.382548
_cell_length_b 20.307131
_cell_length_c 19.888335
_cell_angle_alpha 90.000000
_cell_angle_beta 90.000000
_cell_angle_gamma 90.000000
_cell_volume 2981.626752
_symmetry_space_group_name_H-M "I 21 21 21"
_symmetry_group_IT_number 24
_symmetry_cell_setting 'orthorhombic'
loop_
_space_group_symop_operation_xyz
x,y,z
-x,1/2-y,z
x,-y,1/2-z
1/2-x,y,-z
1/2+x,1/2+y,1/2+z
1/2-x,-y,1/2+z
1/2+x,1/2-y,-z
-x,1/2+y,1/2-z
loop_
_atom_site_type_symbol
_atom_site_label
_atom_site_fract_x
_atom_site_fract_y
_atom_site_fract_z
Si Si1 0.952873 0.979871 0.146722
Si Si2 0.505816 0.103666 0.221287
Si Si3 0.250000 0.112509 0.000000
Si Si4 0.968523 0.997515 0.999669
Si Si5 0.944639 0.106056 0.227651
Si Si6 0.484882 0.531796 0.147692
Si Si7 0.339501 0.793555 0.379950
Si Si8 0.000000 0.750000 0.312679
O O1 0.011211 0.930091 0.204813
O O2 0.014950 0.965216 0.071423
O O3 0.999371 0.054778 0.168628
O O4 0.734289 0.973363 0.149483
O O5 0.725053 0.108906 0.223369
O O6 0.454746 0.038880 0.177449
O O7 0.420116 0.165720 0.183581
O O8 0.455162 0.086711 0.298560
O O9 0.260013 0.156911 0.065833
O O10 0.073394 0.066368 0.999108
O O11 0.750000 0.006255 0.000000
O O12 0.027652 0.961350 0.930989
O O13 0.013976 0.180291 0.224692
O O14 0.500000 0.750000 0.409993
O O15 0.180068 0.746023 0.356599
#
# Coordination Sequence:
#
# PCOD9333675 Si02
#       8
#     8   8   4   8   8   8   8   4
#     4   8  16  31  57  84 115 149 186 244 296 339
#     4   9  16  36  57  80 111 146 192 241 281 338
#     4  12  26  38  54  84 114 158 200 228 288 354
#     4  10  19  36  59  87 119 147 182 241 296 352
#     4   9  17  34  56  84 112 150 200 239 286 348
#     4   8  15  30  61  85 105 145 186 233 300 342
#     4  12  26  41  55  77 116 159 199 240 280 339
#     4  12  24  38  58  84 110 156 204 242 288 346
#
# _framework density 18.781694000000002
#
# number of rings (size 3 to 8) (size 9 to 14) (size 15 to 20)
#    0.000    2.286    2.857    2.571    1.000    1.143 
#    2.571    1.429    0.000    0.000    1.857    0.000 
#    0.000    0.000    0.000    0.000    0.000    0.000 
#
# Total GULP energy -156131.352736 kJ/mol
# GULP energy per Si atom -5576.119741 kJ/mol
# Density = 1.873895 g / cm^3
# Si number density = 18.781694 Si / 1000 Ang^3
#
#
#
# Elastic Constant Matrix: (Units=GPa)
#
#
# Indices 1 2 3 4 5 6 
#
# 1 60.4890 8.3277 9.7115 0.0000 0.0000 0.0000
# 2 8.3277 50.4670 20.5805 0.0000 0.0000 0.0000
# 3 9.7115 20.5805 142.2410 0.0000 0.0000 0.0000
# 4 0.0000 0.0000 0.0000 14.5728 0.0000 0.0000
# 5 0.0000 0.0000 0.0000 0.0000 4.8392 0.0000
# 6 0.0000 0.0000 0.0000 0.0000 0.0000 21.1947
#
#
#
# Elastic Compliance Matrix: (Units=1/GPa)
#
#
# Indices 1 2 3 4 5 6 
#
# 1 0.017002 -0.002478 -0.000802 0.000000 0.000000 0.000000
# 2 -0.002478 0.021419 -0.002930 0.000000 0.000000 0.000000
# 3 -0.000802 -0.002930 0.007509 0.000000 0.000000 0.000000
# 4 0.000000 0.000000 0.000000 0.068621 0.000000 0.000000
# 5 0.000000 0.000000 0.000000 0.000000 0.206648 0.000000
# 6 0.000000 0.000000 0.000000 0.000000 0.000000 0.047182
#
#
# Mechanical properties :
#
#
# Convention : Reuss Voigt Hill
#
# Bulk Modulus (GPa) = 29.84293 36.71517 33.27905
# Shear Modulus (GPa) = 12.75606 22.42647 17.59127
#
# Velocity S-wave (km/s) = 2.60893 3.45927 3.06374
# Velocity P-wave (km/s) = 4.99992 5.96206 5.50206
#
# Compressibility (1/GPa) = 0.03350877
#
# Stress axis : x y z
#
# Youngs Moduli (GPa) = 58.81681 46.68826 133.17358
#
# Poissons Ratio (x) = 0.11571 0.10683
# Poissons Ratio (y) = 0.14577 0.39017
# Poissons Ratio (z) = 0.04718 0.13679
#
# Static dielectric constant tensor:
#      x y z
#    x 1.706430 0.000000 0.000000 
#    y 0.000000 1.640980 0.000000 
#    z 0.000000 0.000000 1.681350 
# 
# From -- ./inp_files/29778.got.cif
#   From: 2010.05.17/outbox.cif.g08.bks.cpg/sg24_15_cif.got.tgz:29778.got - 2010.06.04 00:33:39.
