data_PCOD9333887
_publ_section_title
;
Structure prediction by ZEFSAII (Michael W. Deem and Ramdas Pophale) SiO2 
 PCOD9333887
Probable space group: I 21 21 21
;
_chemical_formula_sum "Si O2"
_cell_formula_units_Z 64
_cell_length_a 27.882559
_cell_length_b 8.833884
_cell_length_c 15.144689
_cell_angle_alpha 90.000000
_cell_angle_beta 90.000000
_cell_angle_gamma 90.000000
_cell_volume 3730.307912
_symmetry_space_group_name_H-M "I 21 21 21"
_symmetry_group_IT_number 24
_symmetry_cell_setting 'orthorhombic'
loop_
_space_group_symop_operation_xyz
x,y,z
-x,1/2-y,z
x,-y,1/2-z
1/2-x,y,-z
1/2+x,1/2+y,1/2+z
1/2-x,-y,1/2+z
1/2+x,1/2-y,-z
-x,1/2+y,1/2-z
loop_
_atom_site_type_symbol
_atom_site_label
_atom_site_fract_x
_atom_site_fract_y
_atom_site_fract_z
Si Si1 0.860874 0.431588 0.475048
Si Si2 0.444652 0.567745 0.844919
Si Si3 0.770620 0.394977 0.096253
Si Si4 0.282637 0.436084 0.845506
Si Si5 0.639623 0.931152 0.976203
Si Si6 0.330508 0.430904 0.155973
Si Si7 0.331797 0.068333 0.157494
Si Si8 0.945180 0.567721 0.155135
O O1 0.814239 0.493553 0.423230
O O2 0.858878 0.250465 0.481443
O O3 0.858665 0.502064 0.572598
O O4 0.907912 0.477652 0.420365
O O5 0.430899 0.500000 0.750000
O O6 0.407340 0.522636 0.920441
O O7 0.499740 0.522047 0.863501
O O8 0.443647 0.750008 0.838451
O O9 0.787339 0.245518 0.147448
O O10 0.724867 0.469085 0.143501
O O11 0.750000 0.343772 0.000000
O O12 0.297197 0.500000 0.750000
O O13 0.314737 0.509910 0.921098
O O14 0.226030 0.469081 0.857063
O O15 0.641411 0.001356 0.073303
O O16 0.345200 0.500000 0.250000
O O17 0.334807 0.249757 0.157988
O O18 0.348203 0.000000 0.250000
O O19 0.931517 0.500000 0.250000
#
# Coordination Sequence:
#
# PCOD9333887 Si02
#       8
#     8   8   8   8   8   8   8   8
#     4  10  21  32  50  76 100 131 167 204 249 294
#     4   9  19  35  53  75 101 131 163 200 246 293
#     4   9  19  34  48  68 100 136 169 205 245 289
#     4  10  20  32  48  71 101 136 169 203 243 289
#     4  11  20  32  51  75 101 130 166 207 246 292
#     4  10  21  35  52  72  98 133 169 205 245 290
#     4  10  20  35  52  71 100 134 167 205 246 291
#     4   9  19  35  53  74 102 131 163 201 244 294
#
# _framework density 17.156760999999999
#
# number of rings (size 3 to 8) (size 9 to 14) (size 15 to 20)
#    0.000    2.250    0.000    3.750    0.000   10.500 
#    0.000    0.000    0.000    0.750    0.000    0.000 
#    0.000    0.000    0.000    0.000    0.000    0.000 
#
# Total GULP energy -178611.596663 kJ/mol
# GULP energy per Si atom -5581.612396 kJ/mol
# Density = 1.711771 g / cm^3
# Si number density = 17.156761 Si / 1000 Ang^3
#
#
#
# Elastic Constant Matrix: (Units=GPa)
#
#
# Indices 1 2 3 4 5 6 
#
# 1 79.9720 43.5246 81.6976 0.0000 0.0000 0.0000
# 2 43.5246 42.6730 49.5018 0.0000 0.0000 0.0000
# 3 81.6976 49.5018 159.0949 0.0000 0.0000 0.0000
# 4 0.0000 0.0000 0.0000 33.1930 0.0000 0.0000
# 5 0.0000 0.0000 0.0000 0.0000 28.5263 0.0000
# 6 0.0000 0.0000 0.0000 0.0000 0.0000 17.0877
#
#
#
# Elastic Compliance Matrix: (Units=1/GPa)
#
#
# Indices 1 2 3 4 5 6 
#
# 1 0.038462 -0.025535 -0.011806 0.000000 0.000000 0.000000
# 2 -0.025535 0.053622 -0.003572 0.000000 0.000000 0.000000
# 3 -0.011806 -0.003572 0.013459 0.000000 0.000000 0.000000
# 4 0.000000 0.000000 0.000000 0.030127 0.000000 0.000000
# 5 0.000000 0.000000 0.000000 0.000000 0.035055 0.000000
# 6 0.000000 0.000000 0.000000 0.000000 0.000000 0.058521
#
#
# Mechanical properties :
#
#
# Convention : Reuss Voigt Hill
#
# Bulk Modulus (GPa) = 42.16098 70.13199 56.14648
# Shear Modulus (GPa) = 15.67506 22.89580 19.28543
#
# Velocity S-wave (km/s) = 3.02592 3.65705 3.35636
# Velocity P-wave (km/s) = 6.06923 7.66798 6.91497
#
# Compressibility (1/GPa) = 0.02371862
#
# Stress axis : x y z
#
# Youngs Moduli (GPa) = 25.99948 18.64918 74.29753
#
# Poissons Ratio (x) = 0.47620 0.87715
# Poissons Ratio (y) = 0.66389 0.26537
# Poissons Ratio (z) = 0.30695 0.06661
#
# Static dielectric constant tensor:
#      x y z
#    x 1.577870 0.000000 0.000000 
#    y 0.000000 1.577200 0.000000 
#    z 0.000000 0.000000 1.579210 
# 
# From -- ./inp_files/27893.got.cif
#   From: 2010.05.17/outbox.cif.g08.bks.cpg/sg24_14_cif.got.tgz:27893.got - 2010.06.04 00:33:39.
