data_PCOD9333852
_publ_section_title
;
Structure prediction by ZEFSAII (Michael W. Deem and Ramdas Pophale) SiO2 
 PCOD9333852
Probable space group: I 21 21 21
;
_chemical_formula_sum "Si O2"
_cell_formula_units_Z 36
_cell_length_a 6.970667
_cell_length_b 9.623250
_cell_length_c 22.365078
_cell_angle_alpha 90.000000
_cell_angle_beta 90.000000
_cell_angle_gamma 90.000000
_cell_volume 1500.259971
_symmetry_space_group_name_H-M "I 21 21 21"
_symmetry_group_IT_number 24
_symmetry_cell_setting 'orthorhombic'
loop_
_space_group_symop_operation_xyz
x,y,z
-x,1/2-y,z
x,-y,1/2-z
1/2-x,y,-z
1/2+x,1/2+y,1/2+z
1/2-x,-y,1/2+z
1/2+x,1/2-y,-z
-x,1/2+y,1/2-z
loop_
_atom_site_type_symbol
_atom_site_label
_atom_site_fract_x
_atom_site_fract_y
_atom_site_fract_z
Si Si1 0.904307 0.103775 0.301011
Si Si2 0.036072 0.975291 0.815279
Si Si3 0.889862 0.890154 0.063096
Si Si4 0.750000 0.139471 0.000000
Si Si5 0.000000 0.250000 0.896312
Si Si6 0.500000 0.750000 0.098901
O O1 0.672634 0.092317 0.300505
O O2 0.949696 0.069282 0.369652
O O3 0.000000 0.250000 0.287595
O O4 0.967829 0.000000 0.250000
O O5 0.117513 0.860049 0.860320
O O6 0.123470 0.000000 0.750000
O O7 0.019103 0.116739 0.853102
O O8 0.665291 0.840203 0.066664
O O9 0.000000 0.750000 0.045815
O O10 0.908496 0.029988 0.024753
O O11 0.826092 0.223311 0.942997
#
# Coordination Sequence:
#
# PCOD9333852 Si02
#       6
#     8   8   8   4   4   4
#     4   9  18  39  66  97 144 182 235 302 362 433
#     4  10  21  41  70 105 139 185 248 307 362 443
#     4  10  23  43  69 100 136 186 240 295 354 431
#     4  12  26  46  64 104 148 186 240 296 360 460
#     4  12  25  46  70 102 148 191 238 302 380 432
#     4  10  19  42  70 100 138 181 248 288 358 430
#
# _framework density 23.995840000000001
#
# number of rings (size 3 to 8) (size 9 to 14) (size 15 to 20)
#    0.000    1.778    4.444    0.667    1.556    1.778 
#    2.000   23.333    0.000    0.000    0.000    0.000 
#    0.000    0.000    0.000    0.000    0.000    0.000 
#
# Total GULP energy -100495.706630 kJ/mol
# GULP energy per Si atom -5583.094813 kJ/mol
# Density = 2.394122 g / cm^3
# Si number density = 23.995840 Si / 1000 Ang^3
#
#
#
# Elastic Constant Matrix: (Units=GPa)
#
#
# Indices 1 2 3 4 5 6 
#
# 1 97.9466 15.6681 18.8004 0.0000 0.0000 0.0000
# 2 15.6681 122.5116 50.3670 0.0000 0.0000 0.0000
# 3 18.8004 50.3670 126.0339 0.0000 0.0000 0.0000
# 4 0.0000 0.0000 0.0000 44.7682 0.0000 0.0000
# 5 0.0000 0.0000 0.0000 0.0000 2.8347 0.0000
# 6 0.0000 0.0000 0.0000 0.0000 0.0000 32.9263
#
#
#
# Elastic Compliance Matrix: (Units=1/GPa)
#
#
# Indices 1 2 3 4 5 6 
#
# 1 0.010583 -0.000843 -0.001242 0.000000 0.000000 0.000000
# 2 -0.000843 0.009834 -0.003804 0.000000 0.000000 0.000000
# 3 -0.001242 -0.003804 0.009640 0.000000 0.000000 0.000000
# 4 0.000000 0.000000 0.000000 0.022337 0.000000 0.000000
# 5 0.000000 0.000000 0.000000 0.000000 0.352776 0.000000
# 6 0.000000 0.000000 0.000000 0.000000 0.000000 0.030371
#
#
# Mechanical properties :
#
#
# Convention : Reuss Voigt Hill
#
# Bulk Modulus (GPa) = 54.70762 57.35147 56.02955
# Shear Modulus (GPa) = 11.02748 33.54960 22.28854
#
# Velocity S-wave (km/s) = 2.14606 3.74323 3.05101
# Velocity P-wave (km/s) = 5.38415 6.52954 5.98431
#
# Compressibility (1/GPa) = 0.01827899
#
# Stress axis : x y z
#
# Youngs Moduli (GPa) = 94.49263 101.68444 103.73500
#
# Poissons Ratio (x) = 0.08571 0.12882
# Poissons Ratio (y) = 0.07965 0.39465
# Poissons Ratio (z) = 0.11734 0.38685
#
# Static dielectric constant tensor:
#      x y z
#    x 2.024930 0.000000 0.000000 
#    y 0.000000 1.849100 0.000000 
#    z 0.000000 0.000000 2.050140 
# 
# From -- ./inp_files/36733.got.cif
#   From: 2010.05.17/outbox.cif.g08.bks.cpg/sg24_19_cif.got.tgz:36733.got - 2010.06.04 00:33:39.
