data_PCOD9333562
_publ_section_title
;
Structure prediction by ZEFSAII (Michael W. Deem and Ramdas Pophale) SiO2 
 PCOD9333562
Probable space group: I 21 21 21
;
_chemical_formula_sum "Si O2"
_cell_formula_units_Z 48
_cell_length_a 13.632181
_cell_length_b 16.267955
_cell_length_c 9.908761
_cell_angle_alpha 90.000000
_cell_angle_beta 90.000000
_cell_angle_gamma 90.000000
_cell_volume 2197.443207
_symmetry_space_group_name_H-M "I 21 21 21"
_symmetry_group_IT_number 24
_symmetry_cell_setting 'orthorhombic'
loop_
_space_group_symop_operation_xyz
x,y,z
-x,1/2-y,z
x,-y,1/2-z
1/2-x,y,-z
1/2+x,1/2+y,1/2+z
1/2-x,-y,1/2+z
1/2+x,1/2-y,-z
-x,1/2+y,1/2-z
loop_
_atom_site_type_symbol
_atom_site_label
_atom_site_fract_x
_atom_site_fract_y
_atom_site_fract_z
Si Si1 0.498112 0.596703 0.037607
Si Si2 0.823517 0.297352 0.618298
Si Si3 0.301385 0.399742 0.364733
Si Si4 0.573509 0.547974 0.614894
Si Si5 0.106364 0.368247 0.247196
Si Si6 0.304083 0.791958 0.629373
O O1 0.564809 0.518985 0.000603
O O2 0.445499 0.625293 0.895484
O O3 0.569636 0.666560 0.092779
O O4 0.411694 0.569432 0.138213
O O5 0.750000 0.325739 0.500000
O O6 0.820209 0.198337 0.616522
O O7 0.776020 0.319222 0.760922
O O8 0.250000 0.432521 0.500000
O O9 0.216516 0.405144 0.254019
O O10 0.607906 0.500000 0.750000
O O11 0.464491 0.581677 0.649723
O O12 0.637514 0.627372 0.585925
O O13 0.124335 0.274450 0.200605
O O14 0.250000 0.754117 0.500000
#
# Coordination Sequence:
#
# PCOD9333562 Si02
#       6
#     8   8   8   8   8   8
#     4  10  19  34  60  93 118 147 200 260 307 348
#     4  10  19  34  62  91 116 155 206 255 293 346
#     4   8  16  30  55  85 111 142 192 255 297 335
#     4  10  21  36  60  87 118 162 199 241 303 369
#     4   9  19  39  61  83 115 160 207 246 297 363
#     4  11  24  41  61  89 126 164 201 245 303 371
#
# _framework density 21.843567
#
# number of rings (size 3 to 8) (size 9 to 14) (size 15 to 20)
#    0.000    2.333    0.000    4.000    0.000    7.333 
#    0.000   12.500    0.000    4.000    0.000    0.000 
#    0.000    0.000    0.000    0.000    0.000    0.000 
#
# Total GULP energy -133981.513254 kJ/mol
# GULP energy per Si atom -5582.563052 kJ/mol
# Density = 2.179385 g / cm^3
# Si number density = 21.843567 Si / 1000 Ang^3
#
#
#
# Elastic Constant Matrix: (Units=GPa)
#
#
# Indices 1 2 3 4 5 6 
#
# 1 58.3876 15.0540 29.0951 0.0000 0.0000 0.0000
# 2 15.0540 89.0736 13.6964 0.0000 0.0000 0.0000
# 3 29.0951 13.6964 59.0325 0.0000 0.0000 0.0000
# 4 0.0000 0.0000 0.0000 16.1696 0.0000 0.0000
# 5 0.0000 0.0000 0.0000 0.0000 11.7925 0.0000
# 6 0.0000 0.0000 0.0000 0.0000 0.0000 66.4522
#
#
#
# Elastic Compliance Matrix: (Units=1/GPa)
#
#
# Indices 1 2 3 4 5 6 
#
# 1 0.023124 -0.002235 -0.010878 0.000000 0.000000 0.000000
# 2 -0.002235 0.011858 -0.001649 0.000000 0.000000 0.000000
# 3 -0.010878 -0.001649 0.022684 0.000000 0.000000 0.000000
# 4 0.000000 0.000000 0.000000 0.061845 0.000000 0.000000
# 5 0.000000 0.000000 0.000000 0.000000 0.084800 0.000000
# 6 0.000000 0.000000 0.000000 0.000000 0.000000 0.015048
#
#
# Mechanical properties :
#
#
# Convention : Reuss Voigt Hill
#
# Bulk Modulus (GPa) = 35.53700 35.79829 35.66765
# Shear Modulus (GPa) = 19.35990 28.79272 24.07631
#
# Velocity S-wave (km/s) = 2.98030 3.63455 3.32356
# Velocity P-wave (km/s) = 5.30539 5.83415 5.57604
#
# Compressibility (1/GPa) = 0.02813968
#
# Stress axis : x y z
#
# Youngs Moduli (GPa) = 43.24495 84.33056 44.08370
#
# Poissons Ratio (x) = 0.18851 0.47956
# Poissons Ratio (y) = 0.09667 0.07272
# Poissons Ratio (z) = 0.47044 0.13910
#
# Static dielectric constant tensor:
#      x y z
#    x 1.827810 0.000000 0.000000 
#    y 0.000000 1.819630 0.000000 
#    z 0.000000 0.000000 1.802560 
# 
# From -- ./inp_files/19690.got.cif
#   From: 2010.05.17/outbox.cif.g08.bks.cpg/sg24_10_cif.got.tgz:19690.got - 2010.06.04 00:33:39.
