data_PCOD9333449
_publ_section_title
;
Structure prediction by ZEFSAII (Michael W. Deem and Ramdas Pophale) SiO2 
 PCOD9333449
Probable space group: I 21 21 21
;
_chemical_formula_sum "Si O2"
_cell_formula_units_Z 64
_cell_length_a 13.637118
_cell_length_b 8.944420
_cell_length_c 31.778187
_cell_angle_alpha 90.000000
_cell_angle_beta 90.000000
_cell_angle_gamma 90.000000
_cell_volume 3876.179664
_symmetry_space_group_name_H-M "I 21 21 21"
_symmetry_group_IT_number 24
_symmetry_cell_setting 'orthorhombic'
loop_
_space_group_symop_operation_xyz
x,y,z
-x,1/2-y,z
x,-y,1/2-z
1/2-x,y,-z
1/2+x,1/2+y,1/2+z
1/2-x,-y,1/2+z
1/2+x,1/2-y,-z
-x,1/2+y,1/2-z
loop_
_atom_site_type_symbol
_atom_site_label
_atom_site_fract_x
_atom_site_fract_y
_atom_site_fract_z
Si Si1 0.699954 0.087419 0.457646
Si Si2 0.114362 0.928797 0.207186
Si Si3 0.509982 0.923453 0.473255
Si Si4 0.644477 0.084338 0.612191
Si Si5 0.036325 0.078328 0.070108
Si Si6 0.798546 0.431859 0.380542
Si Si7 0.884026 0.070453 0.293786
Si Si8 0.411712 0.846945 0.090792
O O1 0.750000 0.142693 0.500000
O O2 0.775609 0.033637 0.422102
O O3 0.638514 0.223461 0.438826
O O4 0.624638 0.961292 0.471548
O O5 0.171470 0.980166 0.166127
O O6 0.120990 0.749609 0.210084
O O7 0.999455 0.970052 0.202701
O O8 0.151851 0.000000 0.250000
O O9 0.500000 0.750000 0.464216
O O10 0.471342 0.955637 0.520372
O O11 0.457616 0.024827 0.438341
O O12 0.655156 0.265070 0.612572
O O13 0.661350 0.032237 0.660485
O O14 0.539790 0.026390 0.595827
O O15 0.000000 0.250000 0.075976
O O16 0.144923 0.041045 0.087260
O O17 0.681283 0.413646 0.384265
O O18 0.846395 0.000000 0.250000
O O19 0.500000 0.750000 0.112510
#
# Coordination Sequence:
#
# PCOD9333449 Si02
#       8
#     8   8   8   8   8   8   8   8
#     4  10  19  33  54  75  96 134 180 219 254 302
#     4   9  17  30  48  73 102 133 164 202 257 316
#     4  10  22  37  48  69 106 141 169 218 267 312
#     4  10  19  33  51  73 101 137 180 216 252 304
#     4  11  22  31  45  74 109 140 176 213 256 320
#     4  10  20  34  54  75 101 137 177 220 263 308
#     4   9  17  30  47  70 103 139 165 202 255 308
#     4   9  21  36  55  77  95 130 186 223 263 301
#
# _framework density 16.511102999999999
#
# number of rings (size 3 to 8) (size 9 to 14) (size 15 to 20)
#    0.000    2.250    2.500    0.375    3.500    3.000 
#    0.000    0.000    0.000    0.000    0.000   14.875 
#    0.000    0.000    0.000    0.000    0.000    0.000 
#
# Total GULP energy -178227.324457 kJ/mol
# GULP energy per Si atom -5569.603889 kJ/mol
# Density = 1.647352 g / cm^3
# Si number density = 16.511103 Si / 1000 Ang^3
#
#
#
# Elastic Constant Matrix: (Units=GPa)
#
#
# Indices 1 2 3 4 5 6 
#
# 1 74.9056 14.6241 37.3987 0.0000 0.0000 0.0000
# 2 14.6241 13.7207 17.9080 0.0000 0.0000 0.0000
# 3 37.3987 17.9080 107.9709 0.0000 0.0000 0.0000
# 4 0.0000 0.0000 0.0000 20.4446 0.0000 0.0000
# 5 0.0000 0.0000 0.0000 0.0000 15.0951 0.0000
# 6 0.0000 0.0000 0.0000 0.0000 0.0000 8.6478
#
#
#
# Elastic Compliance Matrix: (Units=1/GPa)
#
#
# Indices 1 2 3 4 5 6 
#
# 1 0.018065 -0.014151 -0.003910 0.000000 0.000000 0.000000
# 2 -0.014151 0.104104 -0.012365 0.000000 0.000000 0.000000
# 3 -0.003910 -0.012365 0.012667 0.000000 0.000000 0.000000
# 4 0.000000 0.000000 0.000000 0.048913 0.000000 0.000000
# 5 0.000000 0.000000 0.000000 0.000000 0.066247 0.000000
# 6 0.000000 0.000000 0.000000 0.000000 0.000000 0.115637
#
#
# Mechanical properties :
#
#
# Convention : Reuss Voigt Hill
#
# Bulk Modulus (GPa) = 13.51651 37.38433 25.45042
# Shear Modulus (GPa) = 11.08287 17.28191 14.18239
#
# Velocity S-wave (km/s) = 2.59364 3.23876 2.93398
# Velocity P-wave (km/s) = 4.14407 6.05617 5.18896
#
# Compressibility (1/GPa) = 0.07398360
#
# Stress axis : x y z
#
# Youngs Moduli (GPa) = 55.35494 9.60576 78.94481
#
# Poissons Ratio (x) = 0.13593 0.30870
# Poissons Ratio (y) = 0.78333 0.97616
# Poissons Ratio (z) = 0.21645 0.11878
#
# Static dielectric constant tensor:
#      x y z
#    x 1.586370 0.000000 0.000000 
#    y 0.000000 1.567430 0.000000 
#    z 0.000000 0.000000 1.562670 
# 
# From -- ./inp_files/38629.got.cif
#   From: 2010.05.17/outbox.cif.g08.bks.cpg/sg24_20_cif.got.tgz:38629.got - 2010.06.04 00:33:39.
