data_PCOD9333897
_publ_section_title
;
Structure prediction by ZEFSAII (Michael W. Deem and Ramdas Pophale) SiO2 
 PCOD9333897
Probable space group: I 21 21 21
;
_chemical_formula_sum "Si O2"
_cell_formula_units_Z 52
_cell_length_a 23.583959
_cell_length_b 13.902120
_cell_length_c 8.946439
_cell_angle_alpha 90.000000
_cell_angle_beta 90.000000
_cell_angle_gamma 90.000000
_cell_volume 2933.242367
_symmetry_space_group_name_H-M "I 21 21 21"
_symmetry_group_IT_number 24
_symmetry_cell_setting 'orthorhombic'
loop_
_space_group_symop_operation_xyz
x,y,z
-x,1/2-y,z
x,-y,1/2-z
1/2-x,y,-z
1/2+x,1/2+y,1/2+z
1/2-x,-y,1/2+z
1/2+x,1/2-y,-z
-x,1/2+y,1/2-z
loop_
_atom_site_type_symbol
_atom_site_label
_atom_site_fract_x
_atom_site_fract_y
_atom_site_fract_z
Si Si1 0.047799 0.832658 0.561239
Si Si2 0.750000 0.158723 0.000000
Si Si3 0.347644 0.459546 0.094155
Si Si4 0.132747 0.711392 0.399342
Si Si5 0.392822 0.627863 0.925160
Si Si6 0.017143 0.969711 0.080286
Si Si7 0.937591 0.298516 0.600859
O O1 0.096987 0.803602 0.444881
O O2 0.072030 0.830560 0.729370
O O3 0.000000 0.750000 0.548131
O O4 0.022237 0.935578 0.520691
O O5 0.714313 0.088552 0.109205
O O6 0.799330 0.218613 0.080388
O O7 0.369782 0.500000 0.250000
O O8 0.382751 0.372237 0.020682
O O9 0.348723 0.547131 0.977656
O O10 0.118448 0.671004 0.237281
O O11 0.453808 0.574552 0.923457
O O12 0.396091 0.715735 0.041870
O O13 0.029856 0.000000 0.250000
O O14 0.057969 0.887791 0.012397
O O15 0.000000 0.250000 0.599723
#
# Coordination Sequence:
#
# PCOD9333897 Si02
#       7
#     8   4   8   8   8   8   8
#     4  11  20  34  54  79 109 147 184 229 282 339
#     4   8  24  34  54  78 114 146 194 226 288 328
#     4  10  20  32  51  75 107 141 182 222 273 327
#     4  10  21  35  53  78 113 147 186 230 278 336
#     4  11  20  34  54  78 112 149 181 236 276 327
#     4  11  21  33  52  79 111 147 182 223 280 340
#     4   9  21  35  49  75 111 144 184 223 280 338
#
# _framework density 17.727822
#
# number of rings (size 3 to 8) (size 9 to 14) (size 15 to 20)
#    0.923    0.923    0.000    5.538    2.154    3.692 
#    0.000    0.000    0.000    0.000    0.000    7.538 
#    0.000    0.000    0.000    0.000    0.000    0.000 
#
# Total GULP energy -144907.579202 kJ/mol
# GULP energy per Si atom -5573.368431 kJ/mol
# Density = 1.768747 g / cm^3
# Si number density = 17.727822 Si / 1000 Ang^3
#
#
#
# Elastic Constant Matrix: (Units=GPa)
#
#
# Indices 1 2 3 4 5 6 
#
# 1 66.4402 20.4205 10.1979 0.0000 0.0000 0.0000
# 2 20.4205 68.2235 18.4016 0.0000 0.0000 0.0000
# 3 10.1979 18.4016 89.2600 0.0000 0.0000 0.0000
# 4 0.0000 0.0000 0.0000 28.0280 0.0000 0.0000
# 5 0.0000 0.0000 0.0000 0.0000 17.9013 0.0000
# 6 0.0000 0.0000 0.0000 0.0000 0.0000 21.9610
#
#
#
# Elastic Compliance Matrix: (Units=1/GPa)
#
#
# Indices 1 2 3 4 5 6 
#
# 1 0.016648 -0.004733 -0.000926 0.000000 0.000000 0.000000
# 2 -0.004733 0.016866 -0.002936 0.000000 0.000000 0.000000
# 3 -0.000926 -0.002936 0.011914 0.000000 0.000000 0.000000
# 4 0.000000 0.000000 0.000000 0.035679 0.000000 0.000000
# 5 0.000000 0.000000 0.000000 0.000000 0.055862 0.000000
# 6 0.000000 0.000000 0.000000 0.000000 0.000000 0.045535
#
#
# Mechanical properties :
#
#
# Convention : Reuss Voigt Hill
#
# Bulk Modulus (GPa) = 35.41423 35.77375 35.59399
# Shear Modulus (GPa) = 23.91102 25.23832 24.57467
#
# Velocity S-wave (km/s) = 3.67656 3.77723 3.72724
# Velocity P-wave (km/s) = 6.16789 6.26471 6.21649
#
# Compressibility (1/GPa) = 0.02823724
#
# Stress axis : x y z
#
# Youngs Moduli (GPa) = 60.06706 59.28926 83.93199
#
# Poissons Ratio (x) = 0.28063 0.07774
# Poissons Ratio (y) = 0.28431 0.24646
# Poissons Ratio (z) = 0.05564 0.17410
#
# Static dielectric constant tensor:
#      x y z
#    x 1.623010 0.000000 0.000000 
#    y 0.000000 1.600820 0.000000 
#    z 0.000000 0.000000 1.622770 
# 
# From -- ./inp_files/16395.got.cif
#   From: 2010.05.17/outbox.cif.g08.bks.cpg/sg24_9_cif.got.tgz:16395.got - 2010.06.04 00:33:39.
