data_PCOD9333159
_publ_section_title
;
Structure prediction by ZEFSAII (Michael W. Deem and Ramdas Pophale) SiO2 
 PCOD9333159
Probable space group: I 21 21 21
;
_chemical_formula_sum "Si O2"
_cell_formula_units_Z 40
_cell_length_a 8.411955
_cell_length_b 28.828378
_cell_length_c 7.193516
_cell_angle_alpha 90.000000
_cell_angle_beta 90.000000
_cell_angle_gamma 90.000000
_cell_volume 1744.449343
_symmetry_space_group_name_H-M "I 21 21 21"
_symmetry_group_IT_number 24
_symmetry_cell_setting 'orthorhombic'
loop_
_space_group_symop_operation_xyz
x,y,z
-x,1/2-y,z
x,-y,1/2-z
1/2-x,y,-z
1/2+x,1/2+y,1/2+z
1/2-x,-y,1/2+z
1/2+x,1/2-y,-z
-x,1/2+y,1/2-z
loop_
_atom_site_type_symbol
_atom_site_label
_atom_site_fract_x
_atom_site_fract_y
_atom_site_fract_z
Si Si1 0.360909 0.656543 0.208195
Si Si2 0.146248 0.500000 0.750000
Si Si3 0.482658 0.641642 0.624088
Si Si4 0.074527 0.962656 0.414355
Si Si5 0.750000 0.923253 0.000000
Si Si6 0.750000 0.295816 0.000000
Si Si7 0.500000 0.750000 0.231588
O O1 0.442024 0.645864 0.404449
O O2 0.173556 0.658373 0.264547
O O3 0.434651 0.704129 0.130890
O O4 0.382859 0.612960 0.071389
O O5 0.253131 0.541623 0.827629
O O6 0.039918 0.519089 0.580473
O O7 0.521517 0.587987 0.656692
O O8 0.638935 0.673212 0.634763
O O9 0.250000 0.957487 0.500000
O O10 0.082190 0.000000 0.250000
O O11 0.641646 0.264756 0.131490
#
# Coordination Sequence:
#
# PCOD9333159 Si02
#       7
#     8   4   8   8   4   4   4
#     4  10  22  40  65  94 138 174 239 299 363 438
#     4  12  28  44  68 108 144 194 248 304 376 450
#     4  10  20  38  62  95 133 180 230 300 358 431
#     4  12  24  42  66 100 147 197 247 303 367 441
#     4  12  26  44  69 102 144 193 238 308 370 444
#     4  10  18  34  65  92 130 165 230 292 364 428
#     4  10  20  38  64 100 126 182 234 300 368 448
#
# _framework density 22.929872
#
# number of rings (size 3 to 8) (size 9 to 14) (size 15 to 20)
#    0.000    1.200    4.000    3.600    4.200    0.000 
#    0.000    2.000    0.000    0.000    0.000    0.000 
#    0.000    0.000    0.000    0.000    0.000    0.000 
#
# Total GULP energy -111755.119280 kJ/mol
# GULP energy per Si atom -5587.755964 kJ/mol
# Density = 2.287768 g / cm^3
# Si number density = 22.929872 Si / 1000 Ang^3
#
#
#
# Elastic Constant Matrix: (Units=GPa)
#
#
# Indices 1 2 3 4 5 6 
#
# 1 127.6354 56.3403 21.4932 -0.0019 0.0003 0.0003
# 2 56.3403 187.4044 38.4205 -0.0050 0.0001 0.0003
# 3 21.4932 38.4205 82.4340 -0.0029 -0.0023 0.0010
# 4 -0.0019 -0.0050 -0.0029 42.1733 -0.0002 0.0000
# 5 0.0003 0.0001 -0.0023 -0.0002 27.6236 -0.0006
# 6 0.0003 0.0003 0.0010 0.0000 -0.0006 47.9335
#
#
#
# Elastic Compliance Matrix: (Units=1/GPa)
#
#
# Indices 1 2 3 4 5 6 
#
# 1 0.009143 -0.002499 -0.001219 0.000000 0.000000 0.000000
# 2 -0.002499 0.006583 -0.002417 0.000000 0.000000 0.000000
# 3 -0.001219 -0.002417 0.013575 0.000001 0.000001 0.000000
# 4 0.000000 0.000000 0.000001 0.023712 0.000000 0.000000
# 5 0.000000 0.000000 0.000001 0.000000 0.036201 0.000000
# 6 0.000000 0.000000 0.000000 0.000000 0.000000 0.020862
#
#
# Mechanical properties :
#
#
# Convention : Reuss Voigt Hill
#
# Bulk Modulus (GPa) = 58.71384 69.99799 64.35592
# Shear Modulus (GPa) = 39.05573 42.29406 40.67490
#
# Velocity S-wave (km/s) = 4.13154 4.29942 4.21632
# Velocity P-wave (km/s) = 6.95852 7.43236 7.19934
#
# Compressibility (1/GPa) = 0.01703176
#
# Stress axis : x y z
#
# Youngs Moduli (GPa) = 109.37163 151.91341 73.66419
#
# Poissons Ratio (x) = 0.37960 0.08982
# Poissons Ratio (y) = 0.27330 0.17801
# Poissons Ratio (z) = 0.13336 0.36710
#
# Static dielectric constant tensor:
#      x y z
#    x 1.870310 0.000000 0.000000 
#    y 0.000000 1.884470 0.000000 
#    z 0.000000 0.000000 1.869130 
# 
# From -- ./inp_files/9536.got.cif
#   From: 2010.05.17/outbox.cif.g08.bks.cpg/sg24_5_cif.got.tgz:9536.got - 2010.06.04 00:33:39.
