data_PCOD9333944
_publ_section_title
;
Structure prediction by ZEFSAII (Michael W. Deem and Ramdas Pophale) SiO2 
 PCOD9333944
Probable space group: I 21 21 21
;
_chemical_formula_sum "Si O2"
_cell_formula_units_Z 48
_cell_length_a 15.719601
_cell_length_b 27.173232
_cell_length_c 5.223998
_cell_angle_alpha 90.000000
_cell_angle_beta 90.000000
_cell_angle_gamma 90.000000
_cell_volume 2231.443100
_symmetry_space_group_name_H-M "I 21 21 21"
_symmetry_group_IT_number 24
_symmetry_cell_setting 'orthorhombic'
loop_
_space_group_symop_operation_xyz
x,y,z
-x,1/2-y,z
x,-y,1/2-z
1/2-x,y,-z
1/2+x,1/2+y,1/2+z
1/2-x,-y,1/2+z
1/2+x,1/2-y,-z
-x,1/2+y,1/2-z
loop_
_atom_site_type_symbol
_atom_site_label
_atom_site_fract_x
_atom_site_fract_y
_atom_site_fract_z
Si Si1 0.576242 0.556666 0.305282
Si Si2 0.225537 0.630629 0.750130
Si Si3 0.299727 0.738231 0.752254
Si Si4 0.166573 0.093813 0.311636
Si Si5 0.938946 0.688748 0.202277
Si Si6 0.529794 0.849213 0.310391
O O1 0.556735 0.500000 0.250000
O O2 0.647511 0.565786 0.536320
O O3 0.501377 0.594920 0.367505
O O4 0.601534 0.573495 0.019961
O O5 0.250000 0.601640 0.500000
O O6 0.287125 0.679132 0.751341
O O7 0.129581 0.649560 0.742923
O O8 0.250000 0.601671 0.000000
O O9 0.250000 0.755684 0.500000
O O10 0.394125 0.758571 0.781016
O O11 0.250000 0.756698 0.000000
O O12 0.250000 0.091069 0.500000
O O13 0.139744 0.149971 0.257786
O O14 0.001619 0.679621 0.437558
O O15 0.981612 0.674904 0.932282
#
# Coordination Sequence:
#
# PCOD9333944 Si02
#       6
#     8   8   8   8   8   8
#     4  10  21  36  55  81 110 145 186 229 274 322
#     4  10  21  39  58  81 110 144 182 229 287 331
#     4  10  20  35  53  77 109 145 183 227 273 319
#     4  10  20  33  53  79 112 149 182 221 270 325
#     4  10  20  35  56  81 109 146 189 227 270 328
#     4  10  21  38  59  81 109 147 187 227 278 337
#
# _framework density 21.510743999999999
#
# number of rings (size 3 to 8) (size 9 to 14) (size 15 to 20)
#    0.000    2.000    0.000    3.500    0.000    4.000 
#    0.000   20.000    0.000    2.000    0.000    0.000 
#    0.000    0.000    0.000    0.000    0.000    0.000 
#
# Total GULP energy -133719.817869 kJ/mol
# GULP energy per Si atom -5571.659078 kJ/mol
# Density = 2.146178 g / cm^3
# Si number density = 21.510744 Si / 1000 Ang^3
#
#
#
# Elastic Constant Matrix: (Units=GPa)
#
#
# Indices 1 2 3 4 5 6 
#
# 1 73.2283 27.0611 30.2450 -0.0006 -0.0016 0.0012
# 2 27.0611 83.3501 21.8050 -0.0022 -0.0089 -0.0056
# 3 30.2450 21.8050 191.8647 -0.0144 -0.0030 -0.0085
# 4 -0.0006 -0.0022 -0.0144 32.0164 0.0033 -0.0008
# 5 -0.0016 -0.0089 -0.0030 0.0033 37.2903 -0.0084
# 6 0.0012 -0.0056 -0.0085 -0.0008 -0.0084 0.7554
#
#
#
# Elastic Compliance Matrix: (Units=1/GPa)
#
#
# Indices 1 2 3 4 5 6 
#
# 1 0.016244 -0.004745 -0.002021 -0.000001 -0.000001 -0.000085
# 2 -0.004745 0.013751 -0.000815 0.000001 0.000003 0.000101
# 3 -0.002021 -0.000815 0.005623 0.000002 0.000000 0.000060
# 4 -0.000001 0.000001 0.000002 0.031234 -0.000003 0.000033
# 5 -0.000001 0.000003 0.000000 -0.000003 0.026817 0.000297
# 6 -0.000085 0.000101 0.000060 0.000033 0.000297 1.323769
#
#
# Mechanical properties :
#
#
# Convention : Reuss Voigt Hill
#
# Bulk Modulus (GPa) = 48.88509 56.29615 52.59062
# Shear Modulus (GPa) = 3.47362 31.96788 17.72075
#
# Velocity S-wave (km/s) = 1.27214 3.85922 2.87332
# Velocity P-wave (km/s) = 4.99330 6.78868 5.95899
#
# Compressibility (1/GPa) = 0.02045613
#
# Stress axis : x y z
#
# Youngs Moduli (GPa) = 61.55971 72.72001 177.83274
#
# Poissons Ratio (x) = 0.34507 0.35948
# Poissons Ratio (y) = 0.29211 0.14490
# Poissons Ratio (z) = 0.12444 0.05925
#
# Static dielectric constant tensor:
#      x y z
#    x 1.810540 -0.000010 0.000000 
#    y -0.000010 1.840670 -0.000050 
#    z 0.000000 -0.000050 1.750980 
# 
# From -- ./inp_files/3904.got.cif
#   From: 2010.05.17/outbox.cif.g08.bks.cpg/sg24_2_cif.got.tgz:3904.got - 2010.06.04 00:33:39.
