data_PCOD9333008
_publ_section_title
;
Structure prediction by ZEFSAII (Michael W. Deem and Ramdas Pophale) SiO2 
 PCOD9333008
Probable space group: I 21 21 21
;
_chemical_formula_sum "Si O2"
_cell_formula_units_Z 48
_cell_length_a 20.041459
_cell_length_b 7.392404
_cell_length_c 12.891433
_cell_angle_alpha 90.000000
_cell_angle_beta 90.000000
_cell_angle_gamma 90.000000
_cell_volume 1909.924606
_symmetry_space_group_name_H-M "I 21 21 21"
_symmetry_group_IT_number 24
_symmetry_cell_setting 'orthorhombic'
loop_
_space_group_symop_operation_xyz
x,y,z
-x,1/2-y,z
x,-y,1/2-z
1/2-x,y,-z
1/2+x,1/2+y,1/2+z
1/2-x,-y,1/2+z
1/2+x,1/2-y,-z
-x,1/2+y,1/2-z
loop_
_atom_site_type_symbol
_atom_site_label
_atom_site_fract_x
_atom_site_fract_y
_atom_site_fract_z
Si Si1 0.093883 0.447090 0.644822
Si Si2 0.310003 0.843568 0.130610
Si Si3 0.329762 0.213804 0.618258
Si Si4 0.409409 0.887221 0.602058
Si Si5 0.314779 0.236722 0.075384
Si Si6 0.054289 0.510542 0.091460
O O1 0.056215 0.500000 0.750000
O O2 0.122627 0.248126 0.668249
O O3 0.158209 0.581607 0.628534
O O4 0.057756 0.465587 0.534429
O O5 0.241922 0.745700 0.165965
O O6 0.300661 0.058361 0.142502
O O7 0.317698 0.802017 0.006257
O O8 0.389678 0.353435 0.632448
O O9 0.352758 0.013102 0.646874
O O10 0.379322 0.834966 0.489567
O O11 0.425537 0.685675 0.637497
O O12 0.475328 0.010817 0.610917
O O13 0.250000 0.268972 0.000000
#
# Coordination Sequence:
#
# PCOD9333008 Si02
#       6
#     8   8   8   8   8   8
#     4  10  22  33  48  71 105 143 171 199 246 302
#     4   9  17  29  48  71  94 120 173 210 254 293
#     4   9  15  26  46  71  91 120 157 212 257 281
#     4   9  16  28  45  70  95 125 161 207 246 286
#     4  10  18  31  55  73  93 130 173 218 260 289
#     4   9  18  28  47  64 102 131 158 201 242 294
#
# _framework density 25.131882000000001
#
# number of rings (size 3 to 8) (size 9 to 14) (size 15 to 20)
#    0.000    2.667    3.333    0.500    7.000    0.667 
#    0.000    0.000   44.000    0.000    0.000    0.000 
#    0.000    5.333    0.000    0.000    0.000    0.000 
#
# Total GULP energy -133741.572782 kJ/mol
# GULP energy per Si atom -5572.565533 kJ/mol
# Density = 2.507468 g / cm^3
# Si number density = 25.131882 Si / 1000 Ang^3
#
#
#
# Elastic Constant Matrix: (Units=GPa)
#
#
# Indices 1 2 3 4 5 6 
#
# 1 80.9806 29.7652 -2.7870 0.0000 0.0000 0.0000
# 2 29.7652 84.0002 -12.9944 0.0000 0.0000 0.0000
# 3 -2.7870 -12.9944 85.6053 0.0000 0.0000 0.0000
# 4 0.0000 0.0000 0.0000 -70.6039 0.0000 0.0000
# 5 0.0000 0.0000 0.0000 0.0000 -5.7606 0.0000
# 6 0.0000 0.0000 0.0000 0.0000 0.0000 33.9526
#
#
#
# Elastic Compliance Matrix: (Units=1/GPa)
#
#
# Indices 1 2 3 4 5 6 
#
# 1 0.014206 -0.005082 -0.000309 0.000000 0.000000 0.000000
# 2 -0.005082 0.014009 0.001961 0.000000 0.000000 0.000000
# 3 -0.000309 0.001961 0.011969 0.000000 0.000000 0.000000
# 4 0.000000 0.000000 0.000000 -0.014164 0.000000 0.000000
# 5 0.000000 0.000000 0.000000 0.000000 -0.173592 0.000000
# 6 0.000000 0.000000 0.000000 0.000000 0.000000 0.029453
#
#
# Mechanical properties :
#
#
# Convention : Reuss Voigt Hill
#
# Bulk Modulus (GPa) = 30.00765 30.95041 30.47903
# Shear Modulus (GPa) = -49.92396 7.29110 -21.31643
#
# Velocity S-wave (km/s) = -4.46183 1.70512 -2.91552
# Velocity P-wave (km/s) = 3.81810 4.02722 0.90571
#
# Compressibility (1/GPa) = 0.03332483
#
# Stress axis : x y z
#
# Youngs Moduli (GPa) = 70.39392 71.38407 83.54820
#
# Poissons Ratio (x) = 0.36274 0.02580
# Poissons Ratio (y) = 0.35771 -0.16384
# Poissons Ratio (z) = 0.02174 -0.13998
#
# Static dielectric constant tensor:
#      x y z
#    x 1.967810 0.000000 0.000000 
#    y 0.000000 2.018230 0.000000 
#    z 0.000000 0.000000 2.160540 
# 
# From -- ./inp_files/14494.got.cif
#   From: 2010.05.17/outbox.cif.g08.bks.cpg/sg24_8_cif.got.tgz:14494.got - 2010.06.04 00:33:39.
