data_PCOD9333709
_publ_section_title
;
Structure prediction by ZEFSAII (Michael W. Deem and Ramdas Pophale) SiO2 
 PCOD9333709
Probable space group: I 21 21 21
;
_chemical_formula_sum "Si O2"
_cell_formula_units_Z 64
_cell_length_a 8.833736
_cell_length_b 15.679536
_cell_length_c 24.176574
_cell_angle_alpha 90.000000
_cell_angle_beta 90.000000
_cell_angle_gamma 90.000000
_cell_volume 3348.670226
_symmetry_space_group_name_H-M "I 21 21 21"
_symmetry_group_IT_number 24
_symmetry_cell_setting 'orthorhombic'
loop_
_space_group_symop_operation_xyz
x,y,z
-x,1/2-y,z
x,-y,1/2-z
1/2-x,y,-z
1/2+x,1/2+y,1/2+z
1/2-x,-y,1/2+z
1/2+x,1/2-y,-z
-x,1/2+y,1/2-z
loop_
_atom_site_type_symbol
_atom_site_label
_atom_site_fract_x
_atom_site_fract_y
_atom_site_fract_z
Si Si1 0.178910 0.595802 0.130359
Si Si2 0.321087 0.904232 0.869682
Si Si3 0.182219 0.914943 0.632520
Si Si4 0.819359 0.749999 0.938966
Si Si5 0.322203 0.147601 0.255572
Si Si6 0.822159 0.852380 0.755544
Si Si7 0.682565 0.249993 0.060960
Si Si8 0.317833 0.585028 0.367506
O O1 0.261968 0.667345 0.094208
O O2 0.224278 0.612990 0.194077
O O3 0.236732 0.501698 0.115580
O O4 0.000003 0.603415 0.122988
O O5 0.238046 0.832738 0.905879
O O6 0.275603 0.887002 0.805979
O O7 0.263364 0.998364 0.884435
O O8 0.216710 0.892876 0.696501
O O9 0.226942 0.834419 0.595046
O O10 0.000030 0.925296 0.628707
O O11 0.000000 0.750000 0.941297
O O12 0.750000 0.750075 0.000000
O O13 0.306812 0.249988 0.251765
O O14 0.500032 0.129061 0.267003
O O15 0.783303 0.892829 0.696461
O O16 0.500000 0.250000 0.058039
O O17 0.726926 0.165504 0.094983
O O18 0.750000 0.250043 0.000000
#
# Coordination Sequence:
#
# PCOD9333709 Si02
#       8
#     8   8   8   8   8   8   8   8
#     4  12  25  40  61  95 131 164 201 249 310 373
#     4  12  25  40  61  95 131 164 201 249 310 373
#     4  10  21  40  64  91 123 165 212 256 305 368
#     4  12  26  47  70  91 119 160 208 260 309 364
#     4  10  19  36  64  92 121 164 210 252 308 371
#     4  10  19  36  64  92 121 164 210 252 308 371
#     4  10  22  41  64  89 119 158 208 258 305 356
#     4  10  21  40  64  91 123 165 212 256 305 368
#
# _framework density 19.112062999999999
#
# number of rings (size 3 to 8) (size 9 to 14) (size 15 to 20)
#    0.000    1.250    2.500    4.125    0.000    6.000 
#    0.000    2.500    0.000    0.000    0.000    0.000 
#    0.000    0.000    0.000    0.000    0.000    0.000 
#
# Total GULP energy -179012.995074 kJ/mol
# GULP energy per Si atom -5594.156096 kJ/mol
# Density = 1.906856 g / cm^3
# Si number density = 19.112063 Si / 1000 Ang^3
#
#
#
# Elastic Constant Matrix: (Units=GPa)
#
#
# Indices 1 2 3 4 5 6 
#
# 1 106.3218 83.6872 70.3306 0.0000 0.0000 0.0000
# 2 83.6872 173.0560 77.4160 0.0000 0.0000 0.0000
# 3 70.3306 77.4160 134.1938 0.0000 0.0000 0.0000
# 4 0.0000 0.0000 0.0000 -7.8497 0.0000 0.0000
# 5 0.0000 0.0000 0.0000 0.0000 33.3990 0.0000
# 6 0.0000 0.0000 0.0000 0.0000 0.0000 16.1619
#
#
#
# Elastic Compliance Matrix: (Units=1/GPa)
#
#
# Indices 1 2 3 4 5 6 
#
# 1 0.018187 -0.006107 -0.006009 0.000000 0.000000 0.000000
# 2 -0.006107 0.009839 -0.002476 0.000000 0.000000 0.000000
# 3 -0.006009 -0.002476 0.012029 0.000000 0.000000 0.000000
# 4 0.000000 0.000000 0.000000 -0.127394 0.000000 0.000000
# 5 0.000000 0.000000 0.000000 0.000000 0.029941 0.000000
# 6 0.000000 0.000000 0.000000 0.000000 0.000000 0.061874
#
#
# Mechanical properties :
#
#
# Convention : Reuss Voigt Hill
#
# Bulk Modulus (GPa) = 91.97130 97.38212 94.67671
# Shear Modulus (GPa) = 134.10911 20.48477 77.29694
#
# Velocity S-wave (km/s) = 8.38583 3.27742 6.36646
# Velocity P-wave (km/s) = 11.91594 8.08615 10.18272
#
# Compressibility (1/GPa) = 0.01087296
#
# Stress axis : x y z
#
# Youngs Moduli (GPa) = 54.98465 101.63508 83.13163
#
# Poissons Ratio (x) = 0.62068 0.49951
# Poissons Ratio (y) = 0.33579 0.20579
# Poissons Ratio (z) = 0.33038 0.25160
#
# Static dielectric constant tensor:
#      x y z
#    x 1.638230 0.000000 0.000000 
#    y 0.000000 1.656970 0.000000 
#    z 0.000000 0.000000 1.636320 
# 
# From -- ./inp_files/35299.got.cif
#   From: 2010.05.17/outbox.cif.g08.bks.cpg/sg24_18_cif.got.tgz:35299.got - 2010.06.04 00:33:39.
