data_PCOD9333140
_publ_section_title
;
Structure prediction by ZEFSAII (Michael W. Deem and Ramdas Pophale) SiO2 
 PCOD9333140
Probable space group: I 21 21 21
;
_chemical_formula_sum "Si O2"
_cell_formula_units_Z 44
_cell_length_a 18.009202
_cell_length_b 10.425425
_cell_length_c 13.696942
_cell_angle_alpha 90.000000
_cell_angle_beta 90.000000
_cell_angle_gamma 90.000000
_cell_volume 2571.649961
_symmetry_space_group_name_H-M "I 21 21 21"
_symmetry_group_IT_number 24
_symmetry_cell_setting 'orthorhombic'
loop_
_space_group_symop_operation_xyz
x,y,z
-x,1/2-y,z
x,-y,1/2-z
1/2-x,y,-z
1/2+x,1/2+y,1/2+z
1/2-x,-y,1/2+z
1/2+x,1/2-y,-z
-x,1/2+y,1/2-z
loop_
_atom_site_type_symbol
_atom_site_label
_atom_site_fract_x
_atom_site_fract_y
_atom_site_fract_z
Si Si1 0.315893 0.611991 0.566505
Si Si2 0.114246 0.905283 0.118920
Si Si3 0.750000 0.661698 0.000000
Si Si4 0.081713 0.192724 0.175305
Si Si5 0.727445 0.000000 0.250000
Si Si6 0.500000 0.250000 0.483494
Si Si7 0.141117 0.378201 0.580049
O O1 0.250000 0.669576 0.500000
O O2 0.376186 0.715222 0.599560
O O3 0.279597 0.563110 0.667667
O O4 0.345148 0.491600 0.500729
O O5 0.196136 0.915955 0.071927
O O6 0.119745 0.821701 0.218188
O O7 0.082177 0.046325 0.138688
O O8 0.055312 0.832807 0.050647
O O9 0.692001 0.757521 0.051011
O O10 0.000000 0.250000 0.190081
O O11 0.672390 0.915207 0.185057
O O12 0.444713 0.339458 0.422333
#
# Coordination Sequence:
#
# PCOD9333140 Si02
#       7
#     8   8   4   8   4   4   8
#     4  10  21  34  58  86 112 146 191 240 288 336
#     4  10  22  35  56  82 114 156 183 238 286 342
#     4  10  18  36  54  82 112 146 192 224 284 346
#     4  11  22  35  54  86 119 147 189 234 299 346
#     4  10  18  34  60  82 108 140 198 234 272 344
#     4  10  20  36  56  78 118 144 192 232 280 344
#     4  10  19  35  58  85 107 151 188 238 284 331
#
# _framework density 17.109638
#
# number of rings (size 3 to 8) (size 9 to 14) (size 15 to 20)
#    0.000    1.818    3.636    2.182    3.818    1.455 
#    0.000    0.000   16.000    4.364    0.000    0.000 
#    0.000    0.000    0.000    0.000    0.000    0.000 
#
# Total GULP energy -122536.093355 kJ/mol
# GULP energy per Si atom -5569.822425 kJ/mol
# Density = 1.707070 g / cm^3
# Si number density = 17.109638 Si / 1000 Ang^3
#
#
#
# Elastic Constant Matrix: (Units=GPa)
#
#
# Indices 1 2 3 4 5 6 
#
# 1 99.3643 25.2966 28.9571 0.0000 0.0000 0.0000
# 2 25.2966 51.1144 17.4099 0.0000 0.0000 0.0000
# 3 28.9571 17.4099 69.7503 0.0000 0.0000 0.0000
# 4 0.0000 0.0000 0.0000 4.9559 0.0000 0.0000
# 5 0.0000 0.0000 0.0000 0.0000 26.8360 0.0000
# 6 0.0000 0.0000 0.0000 0.0000 0.0000 29.4384
#
#
#
# Elastic Compliance Matrix: (Units=1/GPa)
#
#
# Indices 1 2 3 4 5 6 
#
# 1 0.012444 -0.004808 -0.003966 0.000000 0.000000 0.000000
# 2 -0.004808 0.023239 -0.003805 0.000000 0.000000 0.000000
# 3 -0.003966 -0.003805 0.016933 0.000000 0.000000 0.000000
# 4 0.000000 0.000000 0.000000 0.201782 0.000000 0.000000
# 5 0.000000 0.000000 0.000000 0.000000 0.037263 0.000000
# 6 0.000000 0.000000 0.000000 0.000000 0.000000 0.033969
#
#
# Mechanical properties :
#
#
# Convention : Reuss Voigt Hill
#
# Bulk Modulus (GPa) = 36.41757 40.39513 38.40635
# Shear Modulus (GPa) = 13.89121 22.15040 18.02080
#
# Velocity S-wave (km/s) = 2.85247 3.60198 3.24891
# Velocity P-wave (km/s) = 5.67272 6.39999 6.04730
#
# Compressibility (1/GPa) = 0.02745927
#
# Stress axis : x y z
#
# Youngs Moduli (GPa) = 80.36192 43.03085 59.05612
#
# Poissons Ratio (x) = 0.20687 0.23422
# Poissons Ratio (y) = 0.38634 0.22469
# Poissons Ratio (z) = 0.31872 0.16372
#
# Static dielectric constant tensor:
#      x y z
#    x 1.579950 0.000000 0.000000 
#    y 0.000000 1.592110 0.000000 
#    z 0.000000 0.000000 1.615760 
# 
# From -- ./inp_files/12726.got.cif
#   From: 2010.05.17/outbox.cif.g08.bks.cpg/sg24_7_cif.got.tgz:12726.got - 2010.06.04 00:33:39.
