data_PCOD9333926
_publ_section_title
;
Structure prediction by ZEFSAII (Michael W. Deem and Ramdas Pophale) SiO2 
 PCOD9333926
Probable space group: I 21 21 21
;
_chemical_formula_sum "Si O2"
_cell_formula_units_Z 32
_cell_length_a 15.608106
_cell_length_b 23.314154
_cell_length_c 4.884621
_cell_angle_alpha 90.000000
_cell_angle_beta 90.000000
_cell_angle_gamma 90.000000
_cell_volume 1777.463695
_symmetry_space_group_name_H-M "I 21 21 21"
_symmetry_group_IT_number 24
_symmetry_cell_setting 'orthorhombic'
loop_
_space_group_symop_operation_xyz
x,y,z
-x,1/2-y,z
x,-y,1/2-z
1/2-x,y,-z
1/2+x,1/2+y,1/2+z
1/2-x,-y,1/2+z
1/2+x,1/2-y,-z
-x,1/2+y,1/2-z
loop_
_atom_site_type_symbol
_atom_site_label
_atom_site_fract_x
_atom_site_fract_y
_atom_site_fract_z
Si Si1 0.065036 0.840851 0.499795
Si Si2 0.807120 0.244652 0.248089
Si Si3 0.685214 0.435766 0.248445
Si Si4 0.463511 0.312941 0.523170
O O1 0.135553 0.793953 0.400716
O O2 0.115501 0.888665 0.670065
O O3 0.014497 0.856307 0.221371
O O4 0.991148 0.820073 0.709791
O O5 0.750000 0.269126 0.500000
O O6 0.865512 0.195961 0.391871
O O7 0.750000 0.221367 0.000000
O O8 0.646638 0.500000 0.250000
O O9 0.750000 0.424164 0.500000
O O10 0.750000 0.436745 0.000000
O O11 0.500000 0.250000 0.597133
#
# Coordination Sequence:
#
# PCOD9333926 Si02
#       4
#     8   8   8   8
#     4  11  20  33  50  69  98 135 166 196 246 293
#     4  11  21  33  50  74 103 135 172 206 244 298
#     4  10  21  35  50  72 100 129 167 209 241 281
#     4  10  20  33  47  69  99 129 164 205 241 288
#
# _framework density 18.003181000000001
#
# number of rings (size 3 to 8) (size 9 to 14) (size 15 to 20)
#    0.000    1.500    0.000    9.000    0.000    4.000 
#    0.000    0.000    0.000    0.000    0.000    0.000 
#    0.000   20.000    0.000    0.000    0.000    0.000 
#
# Total GULP energy -89082.610149 kJ/mol
# GULP energy per Si atom -5567.663134 kJ/mol
# Density = 1.796220 g / cm^3
# Si number density = 18.003181 Si / 1000 Ang^3
#
#
#
# Elastic Constant Matrix: (Units=GPa)
#
#
# Indices 1 2 3 4 5 6 
#
# 1 52.5330 14.0636 24.9689 0.0000 0.0000 0.0000
# 2 14.0636 42.1706 13.3842 0.0000 0.0000 0.0000
# 3 24.9689 13.3842 125.6369 0.0000 0.0000 0.0000
# 4 0.0000 0.0000 0.0000 18.4936 0.0000 0.0000
# 5 0.0000 0.0000 0.0000 0.0000 33.6431 0.0000
# 6 0.0000 0.0000 0.0000 0.0000 0.0000 19.1050
#
#
#
# Elastic Compliance Matrix: (Units=1/GPa)
#
#
# Indices 1 2 3 4 5 6 
#
# 1 0.022533 -0.006307 -0.003806 0.000000 0.000000 0.000000
# 2 -0.006307 0.026308 -0.001549 0.000000 0.000000 0.000000
# 3 -0.003806 -0.001549 0.008881 0.000000 0.000000 0.000000
# 4 0.000000 0.000000 0.000000 0.054073 0.000000 0.000000
# 5 0.000000 0.000000 0.000000 0.000000 0.029724 0.000000
# 6 0.000000 0.000000 0.000000 0.000000 0.000000 0.052342
#
#
# Mechanical properties :
#
#
# Convention : Reuss Voigt Hill
#
# Bulk Modulus (GPa) = 29.07163 36.13045 32.60104
# Shear Modulus (GPa) = 21.86733 25.44324 23.65528
#
# Velocity S-wave (km/s) = 3.48895 3.76342 3.62878
# Velocity P-wave (km/s) = 5.69328 6.24475 5.97538
#
# Compressibility (1/GPa) = 0.03439780
#
# Stress axis : x y z
#
# Youngs Moduli (GPa) = 44.37901 38.01113 112.60040
#
# Poissons Ratio (x) = 0.23972 0.42860
# Poissons Ratio (y) = 0.27988 0.17445
# Poissons Ratio (z) = 0.16892 0.05889
#
# Static dielectric constant tensor:
#      x y z
#    x 1.710230 0.000000 0.000000 
#    y 0.000000 1.745380 0.000000 
#    z 0.000000 0.000000 1.684120 
# 
# From -- ./inp_files/2158.got.cif
#   From: 2010.05.17/outbox.cif.g08.bks.cpg/sg24_2_cif.got.tgz:2158.got - 2010.06.04 00:33:39.
