data_PCOD9333361
_publ_section_title
;
Structure prediction by ZEFSAII (Michael W. Deem and Ramdas Pophale) SiO2 
 PCOD9333361
Probable space group: I 21 21 21
;
_chemical_formula_sum "Si O2"
_cell_formula_units_Z 40
_cell_length_a 15.279711
_cell_length_b 5.712121
_cell_length_c 16.060803
_cell_angle_alpha 90.000000
_cell_angle_beta 90.000000
_cell_angle_gamma 90.000000
_cell_volume 1401.779788
_symmetry_space_group_name_H-M "I 21 21 21"
_symmetry_group_IT_number 24
_symmetry_cell_setting 'orthorhombic'
loop_
_space_group_symop_operation_xyz
x,y,z
-x,1/2-y,z
x,-y,1/2-z
1/2-x,y,-z
1/2+x,1/2+y,1/2+z
1/2-x,-y,1/2+z
1/2+x,1/2-y,-z
-x,1/2+y,1/2-z
loop_
_atom_site_type_symbol
_atom_site_label
_atom_site_fract_x
_atom_site_fract_y
_atom_site_fract_z
Si Si1 0.606341 0.614093 0.647111
Si Si2 0.219344 0.000000 0.750000
Si Si3 0.381032 0.385738 0.643806
Si Si4 0.787624 0.000000 0.750000
Si Si5 0.600651 0.181607 0.446027
Si Si6 0.154514 0.820542 0.538020
O O1 0.708318 0.582501 0.678638
O O2 0.578799 0.356920 0.673467
O O3 0.598617 0.632312 0.546558
O O4 0.575670 0.872180 0.670096
O O5 0.165449 0.245579 0.750197
O O6 0.282850 0.428675 0.677063
O O7 0.379640 0.358229 0.544463
O O8 0.500000 0.250000 0.433374
O O9 0.650764 0.421379 0.420268
O O10 0.622537 0.916205 0.415632
O O11 0.250000 0.774150 0.500000
#
# Coordination Sequence:
#
# PCOD9333361 Si02
#       6
#     8   4   8   4   8   8
#     4   8  14  23  37  56  77 104 136 171 209 245
#     4   8  12  20  34  53  74 100 134 167 204 244
#     4   8  14  23  37  54  75 103 138 174 206 239
#     4   8  12  20  34  51  72 100 134 173 204 230
#     4  10  19  31  46  63  85 115 149 185 223 265
#     4  10  19  31  46  65  87 114 148 185 224 266
#
# _framework density 28.535150999999999
#
# number of rings (size 3 to 8) (size 9 to 14) (size 15 to 20)
#    0.000    3.200    0.000    1.200    0.000    0.000 
#    0.000    0.000    0.000   18.000    0.000    0.000 
#    0.000    0.000    0.000    3.600    0.000    7.800 
#
# Total GULP energy -111484.183529 kJ/mol
# GULP energy per Si atom -5574.209176 kJ/mol
# Density = 2.847020 g / cm^3
# Si number density = 28.535151 Si / 1000 Ang^3
#
#
#
# Elastic Constant Matrix: (Units=GPa)
#
#
# Indices 1 2 3 4 5 6 
#
# 1 80.9218 60.4017 9.4157 0.0000 0.0000 0.0000
# 2 60.4017 477.0903 51.9012 0.0000 0.0000 0.0000
# 3 9.4157 51.9012 72.0009 0.0000 0.0000 0.0000
# 4 0.0000 0.0000 0.0000 33.8369 0.0000 0.0000
# 5 0.0000 0.0000 0.0000 0.0000 190.8768 0.0000
# 6 0.0000 0.0000 0.0000 0.0000 0.0000 39.4911
#
#
#
# Elastic Compliance Matrix: (Units=1/GPa)
#
#
# Indices 1 2 3 4 5 6 
#
# 1 0.013670 -0.001667 -0.000586 0.000000 0.000000 0.000000
# 2 -0.001667 0.002478 -0.001568 0.000000 0.000000 0.000000
# 3 -0.000586 -0.001568 0.015096 0.000000 0.000000 0.000000
# 4 0.000000 0.000000 0.000000 0.029554 0.000000 0.000000
# 5 0.000000 0.000000 0.000000 0.000000 0.005239 0.000000
# 6 0.000000 0.000000 0.000000 0.000000 0.000000 0.025322
#
#
# Mechanical properties :
#
#
# Convention : Reuss Voigt Hill
#
# Bulk Modulus (GPa) = 42.37052 97.05001 69.71027
# Shear Modulus (GPa) = 46.78706 86.72725 66.75716
#
# Velocity S-wave (km/s) = 4.05363 5.51898 4.84206
# Velocity P-wave (km/s) = 6.06547 8.64272 7.46614
#
# Compressibility (1/GPa) = 0.02360132
#
# Stress axis : x y z
#
# Youngs Moduli (GPa) = 73.15272 403.60690 66.24426
#
# Poissons Ratio (x) = 0.67278 0.03882
# Poissons Ratio (y) = 0.12194 0.10387
# Poissons Ratio (z) = 0.04287 0.63286
#
# Static dielectric constant tensor:
#      x y z
#    x 2.262230 0.000000 0.000000 
#    y 0.000000 2.307990 0.000000 
#    z 0.000000 0.000000 2.437460 
# 
# From -- ./inp_files/4916.got.cif
#   From: 2010.05.17/outbox.cif.g08.bks.cpg/sg24_3_cif.got.tgz:4916.got - 2010.06.04 00:33:39.
