data_PCOD9333100
_publ_section_title
;
Structure prediction by ZEFSAII (Michael W. Deem and Ramdas Pophale) SiO2 
 PCOD9333100
Probable space group: I 21 21 21
;
_chemical_formula_sum "Si O2"
_cell_formula_units_Z 52
_cell_length_a 27.306453
_cell_length_b 10.990521
_cell_length_c 9.262718
_cell_angle_alpha 90.000000
_cell_angle_beta 90.000000
_cell_angle_gamma 90.000000
_cell_volume 2779.854169
_symmetry_space_group_name_H-M "I 21 21 21"
_symmetry_group_IT_number 24
_symmetry_cell_setting 'orthorhombic'
loop_
_space_group_symop_operation_xyz
x,y,z
-x,1/2-y,z
x,-y,1/2-z
1/2-x,y,-z
1/2+x,1/2+y,1/2+z
1/2-x,-y,1/2+z
1/2+x,1/2-y,-z
-x,1/2+y,1/2-z
loop_
_atom_site_type_symbol
_atom_site_label
_atom_site_fract_x
_atom_site_fract_y
_atom_site_fract_z
Si Si1 0.225051 0.722783 0.141105
Si Si2 0.034204 0.371035 0.839081
Si Si3 0.644044 0.187652 0.090030
Si Si4 0.477275 0.618649 0.683601
Si Si5 0.721978 0.609156 0.356197
Si Si6 0.713193 0.000000 0.250000
Si Si7 0.632251 0.137738 0.754034
O O1 0.239415 0.802505 0.277719
O O2 0.252806 0.594998 0.165964
O O3 0.166676 0.708290 0.142470
O O4 0.250000 0.776987 0.000000
O O5 0.026877 0.500000 0.750000
O O6 0.091374 0.329078 0.832996
O O7 0.000000 0.250000 0.804407
O O8 0.027094 0.399073 0.010571
O O9 0.673287 0.311038 0.122126
O O10 0.678763 0.077593 0.143306
O O11 0.637787 0.183152 0.917679
O O12 0.500000 0.750000 0.704414
O O13 0.503144 0.500000 0.750000
O O14 0.425533 0.629683 0.768290
O O15 0.710953 0.500000 0.250000
O O16 0.750000 0.569409 0.500000
O O17 0.650735 0.000000 0.750000
#
# Coordination Sequence:
#
# PCOD9333100 Si02
#       7
#     8   8   8   8   8   4   8
#     4  11  21  33  55  85 115 150 197 245 302 364
#     4  10  21  39  64  92 126 162 211 266 325 377
#     4  10  20  37  57  86 118 162 195 251 312 366
#     4   9  20  38  62  86 121 164 207 261 315 375
#     4  11  23  40  59  78 119 166 204 247 297 367
#     4  10  20  28  54  84 118 146 190 244 296 372
#     4  10  18  33  58  86 118 150 197 253 310 364
#
# _framework density 18.706016999999999
#
# number of rings (size 3 to 8) (size 9 to 14) (size 15 to 20)
#    0.000    1.846    3.077    1.385    0.000    1.231 
#    0.000    0.769    6.769    0.000    0.000    0.000 
#    0.000    0.000    0.000    0.000    0.000    0.000 
#
# Total GULP energy -144816.021540 kJ/mol
# GULP energy per Si atom -5569.846982 kJ/mol
# Density = 1.866344 g / cm^3
# Si number density = 18.706017 Si / 1000 Ang^3
#
#
#
# Elastic Constant Matrix: (Units=GPa)
#
#
# Indices 1 2 3 4 5 6 
#
# 1 74.7436 42.8813 16.4705 0.0000 0.0000 0.0000
# 2 42.8813 130.2120 38.7665 0.0000 0.0000 0.0000
# 3 16.4705 38.7665 58.6501 0.0000 0.0000 0.0000
# 4 0.0000 0.0000 0.0000 23.1238 0.0000 0.0000
# 5 0.0000 0.0000 0.0000 0.0000 20.1374 0.0000
# 6 0.0000 0.0000 0.0000 0.0000 0.0000 9.5881
#
#
#
# Elastic Compliance Matrix: (Units=1/GPa)
#
#
# Indices 1 2 3 4 5 6 
#
# 1 0.016575 -0.005071 -0.001303 0.000000 0.000000 0.000000
# 2 -0.005071 0.011112 -0.005921 0.000000 0.000000 0.000000
# 3 -0.001303 -0.005921 0.021330 0.000000 0.000000 0.000000
# 4 0.000000 0.000000 0.000000 0.043246 0.000000 0.000000
# 5 0.000000 0.000000 0.000000 0.000000 0.049659 0.000000
# 6 0.000000 0.000000 0.000000 0.000000 0.000000 0.104296
#
#
# Mechanical properties :
#
#
# Convention : Reuss Voigt Hill
#
# Bulk Modulus (GPa) = 40.93692 51.09361 46.01526
# Shear Modulus (GPa) = 17.92434 21.60236 19.76335
#
# Velocity S-wave (km/s) = 3.09886 3.40197 3.25395
# Velocity P-wave (km/s) = 5.89371 6.54252 6.22657
#
# Compressibility (1/GPa) = 0.02442783
#
# Stress axis : x y z
#
# Youngs Moduli (GPa) = 60.33078 89.98918 46.88230
#
# Poissons Ratio (x) = 0.45629 0.06110
# Poissons Ratio (y) = 0.30591 0.27760
# Poissons Ratio (z) = 0.07863 0.53284
#
# Static dielectric constant tensor:
#      x y z
#    x 1.667020 0.000000 0.000000 
#    y 0.000000 1.685390 0.000000 
#    z 0.000000 0.000000 1.681270 
# 
# From -- ./inp_files/16400.got.cif
#   From: 2010.05.17/outbox.cif.g08.bks.cpg/sg24_9_cif.got.tgz:16400.got - 2010.06.04 00:33:39.
