data_PCOD9333343
_publ_section_title
;
Structure prediction by ZEFSAII (Michael W. Deem and Ramdas Pophale) SiO2 
 PCOD9333343
Probable space group: I 21 21 21
;
_chemical_formula_sum "Si O2"
_cell_formula_units_Z 48
_cell_length_a 28.324235
_cell_length_b 13.410817
_cell_length_c 5.334867
_cell_angle_alpha 90.000000
_cell_angle_beta 90.000000
_cell_angle_gamma 90.000000
_cell_volume 2026.455270
_symmetry_space_group_name_H-M "I 21 21 21"
_symmetry_group_IT_number 24
_symmetry_cell_setting 'orthorhombic'
loop_
_space_group_symop_operation_xyz
x,y,z
-x,1/2-y,z
x,-y,1/2-z
1/2-x,y,-z
1/2+x,1/2+y,1/2+z
1/2-x,-y,1/2+z
1/2+x,1/2-y,-z
-x,1/2+y,1/2-z
loop_
_atom_site_type_symbol
_atom_site_label
_atom_site_fract_x
_atom_site_fract_y
_atom_site_fract_z
Si Si1 0.602189 0.626843 0.607223
Si Si2 0.558951 0.869840 0.117493
Si Si3 0.113718 0.366283 0.123216
Si Si4 0.707318 0.611332 0.674125
Si Si5 0.950332 0.627159 0.887918
Si Si6 0.219574 0.330258 0.257581
O O1 0.605590 0.746727 0.610411
O O2 0.655818 0.595290 0.559234
O O3 0.569313 0.595773 0.380258
O O4 0.581654 0.596521 0.876181
O O5 0.588293 0.899282 0.365835
O O6 0.553993 0.748565 0.115573
O O7 0.504777 0.903166 0.094137
O O8 0.586799 0.900538 0.870539
O O9 0.169481 0.380044 0.179390
O O10 0.721067 0.500000 0.750000
O O11 0.750000 0.640843 0.500000
O O12 0.704732 0.714157 0.834719
O O13 0.250000 0.366903 0.500000
O O14 0.250000 0.338220 0.000000
#
# Coordination Sequence:
#
# PCOD9333343 Si02
#       6
#     8   8   8   8   8   8
#     4   9  18  29  41  56  75  94 119 157 204 249
#     4   9  15  24  40  58  76  94 116 145 185 242
#     4   9  16  25  38  57  76  97 124 153 188 233
#     4  10  21  33  46  59  74 100 139 181 219 254
#     4   9  16  27  41  58  76  94 112 143 197 250
#     4  10  19  30  42  56  78 106 135 170 210 242
#
# _framework density 23.686681
#
# number of rings (size 3 to 8) (size 9 to 14) (size 15 to 20)
#    0.000    2.667    0.000    2.500    0.000   13.333 
#    0.000    0.000    0.000    0.000    0.000    0.000 
#    0.000    0.000    0.000    0.000    0.000    0.000 
#
# Total GULP energy -133915.651200 kJ/mol
# GULP energy per Si atom -5579.818800 kJ/mol
# Density = 2.363277 g / cm^3
# Si number density = 23.686681 Si / 1000 Ang^3
#
#
#
# Elastic Constant Matrix: (Units=GPa)
#
#
# Indices 1 2 3 4 5 6 
#
# 1 242.6628 3.4336 119.7751 0.0000 0.0000 0.0000
# 2 3.4336 66.7414 14.0840 0.0000 0.0000 0.0000
# 3 119.7751 14.0840 184.3145 -0.0003 0.0000 0.0001
# 4 0.0000 0.0000 -0.0003 32.7690 0.0000 0.0000
# 5 0.0000 0.0000 0.0000 0.0000 45.2022 0.0000
# 6 0.0000 0.0000 0.0001 0.0000 0.0000 -0.3286
#
#
#
# Elastic Compliance Matrix: (Units=1/GPa)
#
#
# Indices 1 2 3 4 5 6 
#
# 1 0.006085 0.000530 -0.003995 0.000000 0.000000 -0.000001
# 2 0.000530 0.015275 -0.001512 0.000000 0.000000 0.000000
# 3 -0.003995 -0.001512 0.008137 0.000000 0.000000 0.000002
# 4 0.000000 0.000000 0.000000 0.030517 0.000000 0.000002
# 5 0.000000 0.000000 0.000000 0.000000 0.022123 0.000003
# 6 -0.000001 0.000000 0.000002 0.000002 0.000003 -3.042957
#
#
# Mechanical properties :
#
#
# Convention : Reuss Voigt Hill
#
# Bulk Modulus (GPa) = 51.16625 85.36712 68.26669
# Shear Modulus (GPa) = -1.69817 39.29025 18.79604
#
# Velocity S-wave (km/s) = -0.84764 4.07719 2.82002
# Velocity P-wave (km/s) = 4.54865 7.63433 6.28384
#
# Compressibility (1/GPa) = 0.01954413
#
# Stress axis : x y z
#
# Youngs Moduli (GPa) = 164.33005 65.46677 122.89362
#
# Poissons Ratio (x) = -0.03470 0.49096
# Poissons Ratio (y) = -0.08709 0.18577
# Poissons Ratio (z) = 0.65650 0.09896
#
# Static dielectric constant tensor:
#      x y z
#    x 1.729110 0.000000 0.000000 
#    y 0.000000 2.142870 0.000000 
#    z 0.000000 0.000000 1.857460 
# 
# From -- ./inp_files/4830.got.cif
#   From: 2010.05.17/outbox.cif.g08.bks.cpg/sg24_3_cif.got.tgz:4830.got - 2010.06.04 00:33:39.
