data_PCOD9333910
_publ_section_title
;
Structure prediction by ZEFSAII (Michael W. Deem and Ramdas Pophale) SiO2 
 PCOD9333910
Probable space group: I 21 21 21
;
_chemical_formula_sum "Si O2"
_cell_formula_units_Z 48
_cell_length_a 10.935644
_cell_length_b 13.086863
_cell_length_c 19.103764
_cell_angle_alpha 90.000000
_cell_angle_beta 90.000000
_cell_angle_gamma 90.000000
_cell_volume 2734.002228
_symmetry_space_group_name_H-M "I 21 21 21"
_symmetry_group_IT_number 24
_symmetry_cell_setting 'orthorhombic'
loop_
_space_group_symop_operation_xyz
x,y,z
-x,1/2-y,z
x,-y,1/2-z
1/2-x,y,-z
1/2+x,1/2+y,1/2+z
1/2-x,-y,1/2+z
1/2+x,1/2-y,-z
-x,1/2+y,1/2-z
loop_
_atom_site_type_symbol
_atom_site_label
_atom_site_fract_x
_atom_site_fract_y
_atom_site_fract_z
Si Si1 0.181184 0.326809 0.720032
Si Si2 0.743996 0.407014 0.421191
Si Si3 0.302558 0.665791 0.926270
Si Si4 0.066990 0.353346 0.206574
Si Si5 0.409464 0.098019 0.294051
Si Si6 0.488836 0.941609 0.854616
O O1 0.229875 0.363606 0.644133
O O2 0.289504 0.346630 0.774685
O O3 0.160097 0.204533 0.720723
O O4 0.049768 0.379681 0.727101
O O5 0.750000 0.447887 0.500000
O O6 0.785629 0.288227 0.426536
O O7 0.618605 0.416828 0.377183
O O8 0.849052 0.456451 0.374379
O O9 0.438658 0.625161 0.912034
O O10 0.250000 0.627778 0.000000
O O11 0.003017 0.383192 0.280789
O O12 0.048325 0.447886 0.155188
O O13 0.000000 0.250000 0.182931
O O14 0.367238 0.000000 0.250000
#
# Coordination Sequence:
#
# PCOD9333910 Si02
#       6
#     8   8   8   8   8   8
#     4   9  20  35  49  83 106 137 179 218 274 323
#     4  10  21  34  51  82 113 143 177 221 276 330
#     4   9  18  32  54  76 110 138 171 225 270 333
#     4  10  20  34  56  78 108 136 186 237 270 312
#     4  10  21  33  56  77 111 142 173 219 271 331
#     4  10  20  32  55  80 104 145 183 221 275 332
#
# _framework density 17.556678000000002
#
# number of rings (size 3 to 8) (size 9 to 14) (size 15 to 20)
#    0.000    2.333    0.000    3.500   11.667    0.000 
#    0.000    0.000    0.000    1.000    4.333    0.000 
#    0.000    0.000    0.000    0.000    0.000    0.000 
#
# Total GULP energy -133688.791813 kJ/mol
# GULP energy per Si atom -5570.366326 kJ/mol
# Density = 1.751672 g / cm^3
# Si number density = 17.556678 Si / 1000 Ang^3
#
#
#
# Elastic Constant Matrix: (Units=GPa)
#
#
# Indices 1 2 3 4 5 6 
#
# 1 78.9665 12.1986 12.4107 0.0000 0.0000 0.0000
# 2 12.1986 66.0046 19.0986 0.0000 0.0000 0.0000
# 3 12.4107 19.0986 39.7988 0.0000 0.0000 0.0000
# 4 0.0000 0.0000 0.0000 13.5101 0.0000 0.0000
# 5 0.0000 0.0000 0.0000 0.0000 11.3136 0.0000
# 6 0.0000 0.0000 0.0000 0.0000 0.0000 13.5947
#
#
#
# Elastic Compliance Matrix: (Units=1/GPa)
#
#
# Indices 1 2 3 4 5 6 
#
# 1 0.013439 -0.001476 -0.003482 0.000000 0.000000 0.000000
# 2 -0.001476 0.017756 -0.008060 0.000000 0.000000 0.000000
# 3 -0.003482 -0.008060 0.030080 0.000000 0.000000 0.000000
# 4 0.000000 0.000000 0.000000 0.074019 0.000000 0.000000
# 5 0.000000 0.000000 0.000000 0.000000 0.088389 0.000000
# 6 0.000000 0.000000 0.000000 0.000000 0.000000 0.073558
#
#
# Mechanical properties :
#
#
# Convention : Reuss Voigt Hill
#
# Bulk Modulus (GPa) = 28.37899 30.24284 29.31092
# Shear Modulus (GPa) = 14.92433 17.08783 16.00608
#
# Velocity S-wave (km/s) = 2.91875 3.12315 3.02268
# Velocity P-wave (km/s) = 5.24958 5.50170 5.37712
#
# Compressibility (1/GPa) = 0.03523733
#
# Stress axis : x y z
#
# Youngs Moduli (GPa) = 74.41074 56.32055 33.24442
#
# Poissons Ratio (x) = 0.08313 0.11577
# Poissons Ratio (y) = 0.10983 0.26796
# Poissons Ratio (z) = 0.25913 0.45396
#
# Static dielectric constant tensor:
#      x y z
#    x 1.661670 0.000000 0.000000 
#    y 0.000000 1.610250 0.000000 
#    z 0.000000 0.000000 1.604700 
# 
# From -- ./inp_files/21528.got.cif
#   From: 2010.05.17/outbox.cif.g08.bks.cpg/sg24_11_cif.got.tgz:21528.got - 2010.06.04 00:33:39.
