data_PCOD9333605
_publ_section_title
;
Structure prediction by ZEFSAII (Michael W. Deem and Ramdas Pophale) SiO2 
 PCOD9333605
Probable space group: I 21 21 21
;
_chemical_formula_sum "Si O2"
_cell_formula_units_Z 64
_cell_length_a 22.875963
_cell_length_b 17.317262
_cell_length_c 9.085400
_cell_angle_alpha 90.000000
_cell_angle_beta 90.000000
_cell_angle_gamma 90.000000
_cell_volume 3599.172531
_symmetry_space_group_name_H-M "I 21 21 21"
_symmetry_group_IT_number 24
_symmetry_cell_setting 'orthorhombic'
loop_
_space_group_symop_operation_xyz
x,y,z
-x,1/2-y,z
x,-y,1/2-z
1/2-x,y,-z
1/2+x,1/2+y,1/2+z
1/2-x,-y,1/2+z
1/2+x,1/2-y,-z
-x,1/2+y,1/2-z
loop_
_atom_site_type_symbol
_atom_site_label
_atom_site_fract_x
_atom_site_fract_y
_atom_site_fract_z
Si Si1 0.217193 0.924050 0.156667
Si Si2 0.618006 0.197691 0.657883
Si Si3 0.042163 0.177982 0.648261
Si Si4 0.367835 0.304642 0.311917
Si Si5 0.468927 0.581205 0.682130
Si Si6 0.043861 0.418514 0.834088
Si Si7 0.243076 0.750908 0.178899
Si Si8 0.083083 0.876750 0.147677
O O1 0.236878 0.840889 0.223631
O O2 0.146364 0.917172 0.143914
O O3 0.231400 0.000000 0.250000
O O4 0.250000 0.930084 0.000000
O O5 0.623415 0.174252 0.485276
O O6 0.573279 0.145265 0.746586
O O7 0.684350 0.204367 0.715731
O O8 0.595206 0.285521 0.664591
O O9 0.100711 0.221005 0.698541
O O10 0.053017 0.120754 0.512756
O O11 0.000000 0.250000 0.602865
O O12 0.010697 0.131286 0.775149
O O13 0.400457 0.367544 0.214685
O O14 0.301123 0.291421 0.269378
O O15 0.450983 0.500000 0.750000
O O16 0.461505 0.575932 0.508126
O O17 0.536049 0.596257 0.732643
O O18 0.045444 0.500000 0.750000
O O19 0.250000 0.753740 0.000000
#
# Coordination Sequence:
#
# PCOD9333605 Si02
#       8
#     8   8   8   8   8   8   8   8
#     4  10  20  36  55  80 112 146 181 219 264 313
#     4   9  18  34  59  82 105 140 178 220 268 323
#     4   9  17  32  55  81 108 139 176 218 268 322
#     4   9  17  35  58  80 106 139 181 221 266 325
#     4  12  23  36  53  77 110 141 178 225 274 326
#     4  11  23  36  52  77 110 144 178 225 278 323
#     4   8  16  34  59  80 102 140 183 218 261 322
#     4  10  19  35  58  81 108 143 181 218 266 324
#
# _framework density 17.781863999999999
#
# number of rings (size 3 to 8) (size 9 to 14) (size 15 to 20)
#    0.000    2.250    0.000    6.750    0.000    3.000 
#    0.000   11.250    0.000    0.000    0.000    0.000 
#    0.000    0.000    0.000    0.000    0.000    0.000 
#
# Total GULP energy -178438.620523 kJ/mol
# GULP energy per Si atom -5576.206891 kJ/mol
# Density = 1.774139 g / cm^3
# Si number density = 17.781864 Si / 1000 Ang^3
#
#
#
# Elastic Constant Matrix: (Units=GPa)
#
#
# Indices 1 2 3 4 5 6 
#
# 1 116.8611 37.6514 61.4192 0.0000 0.0000 0.0000
# 2 37.6514 59.0339 53.1825 0.0000 0.0000 0.0000
# 3 61.4192 53.1825 106.9615 0.0000 0.0000 0.0000
# 4 0.0000 0.0000 0.0000 27.9193 0.0000 0.0000
# 5 0.0000 0.0000 0.0000 0.0000 8.3337 0.0000
# 6 0.0000 0.0000 0.0000 0.0000 0.0000 7.1883
#
#
#
# Elastic Compliance Matrix: (Units=1/GPa)
#
#
# Indices 1 2 3 4 5 6 
#
# 1 0.012494 -0.002727 -0.005818 0.000000 0.000000 0.000000
# 2 -0.002727 0.031279 -0.013986 0.000000 0.000000 0.000000
# 3 -0.005818 -0.013986 0.019644 0.000000 0.000000 0.000000
# 4 0.000000 0.000000 0.000000 0.035817 0.000000 0.000000
# 5 0.000000 0.000000 0.000000 0.000000 0.119994 0.000000
# 6 0.000000 0.000000 0.000000 0.000000 0.000000 0.139115
#
#
# Mechanical properties :
#
#
# Convention : Reuss Voigt Hill
#
# Bulk Modulus (GPa) = 54.48481 65.26251 59.87366
# Shear Modulus (GPa) = 12.20928 17.39515 14.80222
#
# Velocity S-wave (km/s) = 2.62318 3.13110 2.88832
# Velocity P-wave (km/s) = 6.31521 7.06067 6.69832
#
# Compressibility (1/GPa) = 0.01835374
#
# Stress axis : x y z
#
# Youngs Moduli (GPa) = 80.04063 31.97080 50.90536
#
# Poissons Ratio (x) = 0.08718 0.29618
# Poissons Ratio (y) = 0.21825 0.71198
# Poissons Ratio (z) = 0.46570 0.44715
#
# Static dielectric constant tensor:
#      x y z
#    x 1.639340 0.000000 0.000000 
#    y 0.000000 1.594590 0.000000 
#    z 0.000000 0.000000 1.607610 
# 
# From -- ./inp_files/16044.got.cif
#   From: 2010.05.17/outbox.cif.g08.bks.cpg/sg24_9_cif.got.tgz:16044.got - 2010.06.04 00:33:39.
