data_PCOD9333765
_publ_section_title
;
Structure prediction by ZEFSAII (Michael W. Deem and Ramdas Pophale) SiO2 
 PCOD9333765
Probable space group: I 21 21 21
;
_chemical_formula_sum "Si O2"
_cell_formula_units_Z 28
_cell_length_a 19.409324
_cell_length_b 13.571261
_cell_length_c 5.046923
_cell_angle_alpha 90.000000
_cell_angle_beta 90.000000
_cell_angle_gamma 90.000000
_cell_volume 1329.404950
_symmetry_space_group_name_H-M "I 21 21 21"
_symmetry_group_IT_number 24
_symmetry_cell_setting 'orthorhombic'
loop_
_space_group_symop_operation_xyz
x,y,z
-x,1/2-y,z
x,-y,1/2-z
1/2-x,y,-z
1/2+x,1/2+y,1/2+z
1/2-x,-y,1/2+z
1/2+x,1/2-y,-z
-x,1/2+y,1/2-z
loop_
_atom_site_type_symbol
_atom_site_label
_atom_site_fract_x
_atom_site_fract_y
_atom_site_fract_z
Si Si1 0.750000 0.609408 0.000000
Si Si2 0.163491 0.269522 0.731333
Si Si3 0.923215 0.284842 0.222484
Si Si4 0.250000 0.561156 0.500000
Si Si5 0.871310 0.500000 0.250000
O O1 0.776560 0.686028 0.776695
O O2 0.684473 0.539625 0.961075
O O3 0.129265 0.260956 0.440470
O O4 0.197241 0.369568 0.836972
O O5 0.103360 0.246510 0.936050
O O6 0.916753 0.403394 0.212653
O O7 0.000000 0.250000 0.278303
O O8 0.281489 0.500000 0.750000
#
# Coordination Sequence:
#
# PCOD9333765 Si02
#       5
#     4   8   8   4   4
#     4  10  19  37  70 104 128 164 218 306 354 390
#     4  11  23  42  66  94 134 168 222 290 346 387
#     4  11  24  43  63  93 137 184 221 271 332 416
#     4  12  23  41  66 100 130 172 230 284 348 408
#     4  10  20  36  66  98 126 164 222 268 346 402
#
# _framework density 21.062055000000001
#
# number of rings (size 3 to 8) (size 9 to 14) (size 15 to 20)
#    0.000    1.143    0.000    8.571    0.000    3.429 
#    7.714    0.000    0.000    0.000    0.000    0.000 
#    0.000    0.000    0.000    0.000    0.000    0.000 
#
# Total GULP energy -78040.110709 kJ/mol
# GULP energy per Si atom -5574.293622 kJ/mol
# Density = 2.101412 g / cm^3
# Si number density = 21.062055 Si / 1000 Ang^3
#
#
#
# Elastic Constant Matrix: (Units=GPa)
#
#
# Indices 1 2 3 4 5 6 
#
# 1 115.9368 49.6732 13.4452 0.0000 0.0000 0.0000
# 2 49.6732 125.5050 19.3785 0.0000 0.0000 0.0000
# 3 13.4452 19.3785 94.5505 0.0000 0.0000 0.0000
# 4 0.0000 0.0000 0.0000 38.9894 0.0000 0.0000
# 5 0.0000 0.0000 0.0000 0.0000 35.8150 0.0000
# 6 0.0000 0.0000 0.0000 0.0000 0.0000 16.3968
#
#
#
# Elastic Compliance Matrix: (Units=1/GPa)
#
#
# Indices 1 2 3 4 5 6 
#
# 1 0.010426 -0.004025 -0.000658 0.000000 0.000000 0.000000
# 2 -0.004025 0.009782 -0.001433 0.000000 0.000000 0.000000
# 3 -0.000658 -0.001433 0.010963 0.000000 0.000000 0.000000
# 4 0.000000 0.000000 0.000000 0.025648 0.000000 0.000000
# 5 0.000000 0.000000 0.000000 0.000000 0.027921 0.000000
# 6 0.000000 0.000000 0.000000 0.000000 0.000000 0.060987
#
#
# Mechanical properties :
#
#
# Convention : Reuss Voigt Hill
#
# Bulk Modulus (GPa) = 52.79459 55.66511 54.22985
# Shear Modulus (GPa) = 30.43723 35.13994 32.78858
#
# Velocity S-wave (km/s) = 3.80560 4.08904 3.94986
# Velocity P-wave (km/s) = 6.66564 6.98428 6.82682
#
# Compressibility (1/GPa) = 0.01894134
#
# Stress axis : x y z
#
# Youngs Moduli (GPa) = 95.91250 102.22827 91.21192
#
# Poissons Ratio (x) = 0.41147 0.05999
# Poissons Ratio (y) = 0.38605 0.13066
# Poissons Ratio (z) = 0.06308 0.14644
#
# Static dielectric constant tensor:
#      x y z
#    x 1.745380 0.000000 0.000000 
#    y 0.000000 1.840010 0.000000 
#    z 0.000000 0.000000 1.779950 
# 
# From -- ./inp_files/5227.got.cif
#   From: 2010.05.17/outbox.cif.g08.bks.cpg/sg24_3_cif.got.tgz:5227.got - 2010.06.04 00:33:39.
