data_PCOD9333175
_publ_section_title
;
Structure prediction by ZEFSAII (Michael W. Deem and Ramdas Pophale) SiO2 
 PCOD9333175
Probable space group: I 21 21 21
;
_chemical_formula_sum "Si O2"
_cell_formula_units_Z 40
_cell_length_a 14.763875
_cell_length_b 10.651109
_cell_length_c 9.927322
_cell_angle_alpha 90.000000
_cell_angle_beta 90.000000
_cell_angle_gamma 90.000000
_cell_volume 1561.087684
_symmetry_space_group_name_H-M "I 21 21 21"
_symmetry_group_IT_number 24
_symmetry_cell_setting 'orthorhombic'
loop_
_space_group_symop_operation_xyz
x,y,z
-x,1/2-y,z
x,-y,1/2-z
1/2-x,y,-z
1/2+x,1/2+y,1/2+z
1/2-x,-y,1/2+z
1/2+x,1/2-y,-z
-x,1/2+y,1/2-z
loop_
_atom_site_type_symbol
_atom_site_label
_atom_site_fract_x
_atom_site_fract_y
_atom_site_fract_z
Si Si1 0.851001 0.009956 0.540880
Si Si2 0.778767 0.233853 0.735394
Si Si3 0.518299 0.000000 0.250000
Si Si4 0.750000 0.374129 0.000000
Si Si5 0.872283 0.593440 0.957099
Si Si6 0.416137 0.308449 0.671955
O O1 0.750000 0.966229 0.500000
O O2 0.826019 0.126955 0.642265
O O3 0.909240 0.063390 0.415563
O O4 0.917411 0.932013 0.638009
O O5 0.791396 0.351751 0.635351
O O6 0.676164 0.187627 0.752217
O O7 0.793538 0.291582 0.881525
O O8 0.452223 0.922260 0.153121
O O9 0.664849 0.468186 0.971905
O O10 0.904564 0.696885 0.062183
O O11 0.500000 0.250000 0.752722
#
# Coordination Sequence:
#
# PCOD9333175 Si02
#       6
#     8   8   4   4   8   8
#     4   9  21  39  59  80 110 158 194 243 289 349
#     4  10  21  36  56  83 123 156 187 237 303 342
#     4  12  20  36  64  90 110 146 216 242 282 364
#     4  12  20  36  56  88 126 144 188 242 304 338
#     4  11  20  32  59  93 112 149 193 247 290 344
#     4  10  18  35  59  82 116 152 198 234 286 356
#
# _framework density 25.623159000000001
#
# number of rings (size 3 to 8) (size 9 to 14) (size 15 to 20)
#    0.000    1.600    6.000    1.200    0.000    0.000 
#    1.800    2.000    4.400    0.000    0.000    0.000 
#    0.000    0.000    0.000    0.000    0.000    0.000 
#
# Total GULP energy -111362.253426 kJ/mol
# GULP energy per Si atom -5568.112671 kJ/mol
# Density = 2.556484 g / cm^3
# Si number density = 25.623159 Si / 1000 Ang^3
#
#
#
# Elastic Constant Matrix: (Units=GPa)
#
#
# Indices 1 2 3 4 5 6 
#
# 1 63.4068 -3.2967 -11.9136 0.0000 0.0000 0.0000
# 2 -3.2967 59.8820 22.7503 0.0000 0.0000 0.0000
# 3 -11.9136 22.7503 46.2196 0.0000 0.0000 0.0000
# 4 0.0000 0.0000 0.0000 28.0771 0.0000 0.0000
# 5 0.0000 0.0000 0.0000 0.0000 44.9295 0.0000
# 6 0.0000 0.0000 0.0000 0.0000 0.0000 10.2693
#
#
#
# Elastic Compliance Matrix: (Units=1/GPa)
#
#
# Indices 1 2 3 4 5 6 
#
# 1 0.016611 -0.000876 0.004713 0.000000 0.000000 0.000000
# 2 -0.000876 0.020587 -0.010359 0.000000 0.000000 0.000000
# 3 0.004713 -0.010359 0.027950 0.000000 0.000000 0.000000
# 4 0.000000 0.000000 0.000000 0.035616 0.000000 0.000000
# 5 0.000000 0.000000 0.000000 0.000000 0.022257 0.000000
# 6 0.000000 0.000000 0.000000 0.000000 0.000000 0.097378
#
#
# Mechanical properties :
#
#
# Convention : Reuss Voigt Hill
#
# Bulk Modulus (GPa) = 19.19269 20.50983 19.85126
# Shear Modulus (GPa) = 19.93532 27.45309 23.69420
#
# Velocity S-wave (km/s) = 2.79233 3.27680 3.04422
# Velocity P-wave (km/s) = 4.23116 4.72635 4.48559
#
# Compressibility (1/GPa) = 0.05210318
#
# Stress axis : x y z
#
# Youngs Moduli (GPa) = 60.20053 48.57457 35.77862
#
# Poissons Ratio (x) = 0.04255 -0.16862
# Poissons Ratio (y) = 0.05274 0.37064
# Poissons Ratio (z) = -0.28372 0.50319
#
# Static dielectric constant tensor:
#      x y z
#    x 2.257980 0.000000 0.000000 
#    y 0.000000 2.055620 0.000000 
#    z 0.000000 0.000000 2.049080 
# 
# From -- ./inp_files/12382.got.cif
#   From: 2010.05.17/outbox.cif.g08.bks.cpg/sg24_7_cif.got.tgz:12382.got - 2010.06.04 00:33:39.
