data_PCOD9333219
_publ_section_title
;
Structure prediction by ZEFSAII (Michael W. Deem and Ramdas Pophale) SiO2 
 PCOD9333219
Probable space group: I 21 21 21
;
_chemical_formula_sum "Si O2"
_cell_formula_units_Z 48
_cell_length_a 14.230281
_cell_length_b 9.532676
_cell_length_c 18.766026
_cell_angle_alpha 90.000000
_cell_angle_beta 90.000000
_cell_angle_gamma 90.000000
_cell_volume 2545.661310
_symmetry_space_group_name_H-M "I 21 21 21"
_symmetry_group_IT_number 24
_symmetry_cell_setting 'orthorhombic'
loop_
_space_group_symop_operation_xyz
x,y,z
-x,1/2-y,z
x,-y,1/2-z
1/2-x,y,-z
1/2+x,1/2+y,1/2+z
1/2-x,-y,1/2+z
1/2+x,1/2-y,-z
-x,1/2+y,1/2-z
loop_
_atom_site_type_symbol
_atom_site_label
_atom_site_fract_x
_atom_site_fract_y
_atom_site_fract_z
Si Si1 0.752025 0.649965 0.876135
Si Si2 0.956535 0.905484 0.947370
Si Si3 0.557593 0.397554 0.684367
Si Si4 0.250000 0.640386 0.000000
Si Si5 0.553566 0.388756 0.947595
Si Si6 0.750000 0.423762 0.000000
Si Si7 0.445572 0.126632 0.300941
O O1 0.669737 0.631783 0.818770
O O2 0.718620 0.767471 0.931922
O O3 0.850272 0.679348 0.838304
O O4 0.771226 0.521121 0.930787
O O5 0.847674 0.922345 0.970271
O O6 0.000000 0.750000 0.968549
O O7 0.983036 0.915799 0.864301
O O8 0.009837 0.030522 0.985934
O O9 0.500000 0.250000 0.683824
O O10 0.532846 0.500000 0.750000
O O11 0.547360 0.493328 0.613755
O O12 0.500000 0.250000 0.925102
O O13 0.657991 0.345563 0.972797
O O14 0.500000 0.250000 0.260523
O O15 0.421891 0.000000 0.250000
#
# Coordination Sequence:
#
# PCOD9333219 Si02
#       7
#     8   8   8   4   8   4   8
#     4  10  18  36  64  91 112 162 213 252 304 384
#     4  11  20  38  63  93 117 160 211 262 313 373
#     4  11  23  40  62  87 122 164 206 259 316 376
#     4  11  18  33  68  94 118 146 216 272 308 362
#     4  11  22  37  61  90 122 155 201 259 314 368
#     4   9  18  35  60  86 116 152 206 250 300 368
#     4  11  22  39  61  90 125 166 209 255 316 388
#
# _framework density 18.855611
#
# number of rings (size 3 to 8) (size 9 to 14) (size 15 to 20)
#    0.000    1.333    5.000    4.500    0.000    1.333 
#    0.000    0.833    3.667    0.000    0.000    0.000 
#    0.000    0.000    0.000    0.000    0.000    0.000 
#
# Total GULP energy -133625.501578 kJ/mol
# GULP energy per Si atom -5567.729232 kJ/mol
# Density = 1.881269 g / cm^3
# Si number density = 18.855611 Si / 1000 Ang^3
#
#
#
# Elastic Constant Matrix: (Units=GPa)
#
#
# Indices 1 2 3 4 5 6 
#
# 1 125.5179 30.3702 26.8858 0.0000 0.0000 0.0000
# 2 30.3702 55.6148 22.0594 0.0000 0.0000 0.0000
# 3 26.8858 22.0594 51.1591 0.0000 0.0000 0.0000
# 4 0.0000 0.0000 0.0000 168.5049 0.0000 0.0000
# 5 0.0000 0.0000 0.0000 0.0000 22.9094 0.0000
# 6 0.0000 0.0000 0.0000 0.0000 0.0000 18.7838
#
#
#
# Elastic Compliance Matrix: (Units=1/GPa)
#
#
# Indices 1 2 3 4 5 6 
#
# 1 0.009639 -0.003926 -0.003373 0.000000 0.000000 0.000000
# 2 -0.003926 0.023290 -0.007979 0.000000 0.000000 0.000000
# 3 -0.003373 -0.007979 0.024760 0.000000 0.000000 0.000000
# 4 0.000000 0.000000 0.000000 0.005935 0.000000 0.000000
# 5 0.000000 0.000000 0.000000 0.000000 0.043650 0.000000
# 6 0.000000 0.000000 0.000000 0.000000 0.000000 0.053237
#
#
# Mechanical properties :
#
#
# Convention : Reuss Voigt Hill
#
# Bulk Modulus (GPa) = 36.85558 43.43584 40.14571
# Shear Modulus (GPa) = 24.98607 52.23805 38.61206
#
# Velocity S-wave (km/s) = 3.64418 5.26919 4.53014
# Velocity P-wave (km/s) = 6.10699 7.75276 6.97856
#
# Compressibility (1/GPa) = 0.02713294
#
# Stress axis : x y z
#
# Youngs Moduli (GPa) = 103.74071 42.93753 40.38772
#
# Poissons Ratio (x) = 0.16857 0.13623
# Poissons Ratio (y) = 0.40729 0.32226
# Poissons Ratio (z) = 0.34991 0.34260
#
# Static dielectric constant tensor:
#      x y z
#    x 1.489620 0.000000 0.000000 
#    y 0.000000 1.670940 0.000000 
#    z 0.000000 0.000000 1.644040 
# 
# From -- ./inp_files/30736.got.cif
#   From: 2010.05.17/outbox.cif.g08.bks.cpg/sg24_16_cif.got.tgz:30736.got - 2010.06.04 00:33:39.
