data_PCOD9333528
_publ_section_title
;
Structure prediction by ZEFSAII (Michael W. Deem and Ramdas Pophale) SiO2 
 PCOD9333528
Probable space group: I 21 21 21
;
_chemical_formula_sum "Si O2"
_cell_formula_units_Z 44
_cell_length_a 18.984569
_cell_length_b 21.938918
_cell_length_c 5.153209
_cell_angle_alpha 90.000000
_cell_angle_beta 90.000000
_cell_angle_gamma 90.000000
_cell_volume 2146.316200
_symmetry_space_group_name_H-M "I 21 21 21"
_symmetry_group_IT_number 24
_symmetry_cell_setting 'orthorhombic'
loop_
_space_group_symop_operation_xyz
x,y,z
-x,1/2-y,z
x,-y,1/2-z
1/2-x,y,-z
1/2+x,1/2+y,1/2+z
1/2-x,-y,1/2+z
1/2+x,1/2-y,-z
-x,1/2+y,1/2-z
loop_
_atom_site_type_symbol
_atom_site_label
_atom_site_fract_x
_atom_site_fract_y
_atom_site_fract_z
Si Si1 0.553160 0.696438 0.687432
Si Si2 0.704021 0.309634 0.750659
Si Si3 0.250000 0.543986 0.000000
Si Si4 0.403332 0.542858 0.003755
Si Si5 0.829942 0.445116 0.423323
Si Si6 0.457846 0.114985 0.316302
O O1 0.500000 0.750000 0.631310
O O2 0.631513 0.723653 0.692191
O O3 0.542697 0.643253 0.471829
O O4 0.546556 0.669728 0.976546
O O5 0.750000 0.293554 0.500000
O O6 0.682595 0.381056 0.722616
O O7 0.750000 0.302770 0.000000
O O8 0.248566 0.500000 0.250000
O O9 0.326752 0.576606 0.982459
O O10 0.393518 0.500000 0.250000
O O11 0.471911 0.581028 0.085643
O O12 0.415145 0.500000 0.750000
O O13 0.858850 0.500000 0.250000
O O14 0.750000 0.463290 0.500000
O O15 0.887809 0.426883 0.640131
#
# Coordination Sequence:
#
# PCOD9333528 Si02
#       6
#     8   8   4   8   8   8
#     4  11  23  41  63  83 111 154 201 257 303 353
#     4  10  20  37  59  84 113 152 196 236 289 355
#     4   8  16  30  52  78 104 150 186 214 274 344
#     4  10  19  34  56  84 117 153 189 232 288 363
#     4  10  20  32  51  83 122 160 191 231 281 347
#     4  11  23  37  58  86 117 155 199 245 298 350
#
# _framework density 20.500240999999999
#
# number of rings (size 3 to 8) (size 9 to 14) (size 15 to 20)
#    0.000    1.818    0.000    6.000    0.000    3.636 
#    0.000    0.000    6.000    0.000    0.000    0.000 
#    0.000    0.000    0.000    0.000    0.000    0.000 
#
# Total GULP energy -122614.513249 kJ/mol
# GULP energy per Si atom -5573.386966 kJ/mol
# Density = 2.045358 g / cm^3
# Si number density = 20.500241 Si / 1000 Ang^3
#
#
#
# Elastic Constant Matrix: (Units=GPa)
#
#
# Indices 1 2 3 4 5 6 
#
# 1 169.5661 22.2140 15.7631 0.0000 0.0000 0.0000
# 2 22.2140 21.6653 2.7565 0.0000 0.0000 0.0000
# 3 15.7631 2.7565 106.8562 0.0000 0.0000 0.0000
# 4 0.0000 0.0000 0.0000 12.2791 0.0000 0.0000
# 5 0.0000 0.0000 0.0000 0.0000 31.0101 0.0000
# 6 0.0000 0.0000 0.0000 0.0000 0.0000 36.4534
#
#
#
# Elastic Compliance Matrix: (Units=1/GPa)
#
#
# Indices 1 2 3 4 5 6 
#
# 1 0.006886 -0.006954 -0.000836 0.000000 0.000000 0.000000
# 2 -0.006954 0.053332 -0.000350 0.000000 0.000000 0.000000
# 3 -0.000836 -0.000350 0.009491 0.000000 0.000000 0.000000
# 4 0.000000 0.000000 0.000000 0.081439 0.000000 0.000000
# 5 0.000000 0.000000 0.000000 0.000000 0.032248 0.000000
# 6 0.000000 0.000000 0.000000 0.000000 0.000000 0.027432
#
#
# Mechanical properties :
#
#
# Convention : Reuss Voigt Hill
#
# Bulk Modulus (GPa) = 18.71693 42.17274 30.44484
# Shear Modulus (GPa) = 20.41502 33.10547 26.76024
#
# Velocity S-wave (km/s) = 3.15912 4.02292 3.61690
# Velocity P-wave (km/s) = 4.73885 6.49577 5.68558
#
# Compressibility (1/GPa) = 0.05342756
#
# Stress axis : x y z
#
# Youngs Moduli (GPa) = 145.21814 18.75062 105.36534
#
# Poissons Ratio (x) = 0.13040 0.08813
# Poissons Ratio (y) = 1.00987 0.03687
# Poissons Ratio (z) = 0.12147 0.00656
#
# Static dielectric constant tensor:
#      x y z
#    x 1.844130 0.000000 0.000000 
#    y 0.000000 1.725720 0.000000 
#    z 0.000000 0.000000 1.714890 
# 
# From -- ./inp_files/4759.got.cif
#   From: 2010.05.17/outbox.cif.g08.bks.cpg/sg24_3_cif.got.tgz:4759.got - 2010.06.04 00:33:39.
