data_PCOD9333693
_publ_section_title
;
Structure prediction by ZEFSAII (Michael W. Deem and Ramdas Pophale) SiO2 
 PCOD9333693
Probable space group: I 21 21 21
;
_chemical_formula_sum "Si O2"
_cell_formula_units_Z 64
_cell_length_a 14.578396
_cell_length_b 18.634428
_cell_length_c 11.152291
_cell_angle_alpha 90.000000
_cell_angle_beta 90.000000
_cell_angle_gamma 90.000000
_cell_volume 3029.632161
_symmetry_space_group_name_H-M "I 21 21 21"
_symmetry_group_IT_number 24
_symmetry_cell_setting 'orthorhombic'
loop_
_space_group_symop_operation_xyz
x,y,z
-x,1/2-y,z
x,-y,1/2-z
1/2-x,y,-z
1/2+x,1/2+y,1/2+z
1/2-x,-y,1/2+z
1/2+x,1/2-y,-z
-x,1/2+y,1/2-z
loop_
_atom_site_type_symbol
_atom_site_label
_atom_site_fract_x
_atom_site_fract_y
_atom_site_fract_z
Si Si1 0.007674 0.328553 0.820643
Si Si2 0.649763 0.134542 0.653263
Si Si3 0.490741 0.521155 0.420508
Si Si4 0.844167 0.330282 0.633447
Si Si5 0.525265 0.560648 0.830257
Si Si6 0.365175 0.793466 0.870277
Si Si7 0.860672 0.109640 0.633156
Si Si8 0.695151 0.494536 0.382986
O O1 0.035045 0.394918 0.907631
O O2 0.913005 0.333896 0.744239
O O3 0.000000 0.250000 0.878922
O O4 0.083240 0.334576 0.714518
O O5 0.576485 0.082162 0.712747
O O6 0.615544 0.215116 0.682301
O O7 0.755155 0.113091 0.676784
O O8 0.640369 0.128221 0.508073
O O9 0.509510 0.480911 0.545218
O O10 0.417705 0.465681 0.360994
O O11 0.593870 0.526657 0.369835
O O12 0.880789 0.291187 0.514344
O O13 0.743162 0.300436 0.657241
O O14 0.824793 0.411379 0.592199
O O15 0.568827 0.500000 0.750000
O O16 0.582774 0.634100 0.833054
O O17 0.737591 0.500000 0.250000
O O18 0.750000 0.522737 0.500000
#
# Coordination Sequence:
#
# PCOD9333693 Si02
#       8
#     8   8   8   8   8   8   8   8
#     4  12  22  35  58  89 125 164 201 256 312 373
#     4  10  21  37  60  91 121 151 199 266 324 373
#     4  11  22  40  59  88 123 160 211 259 311 376
#     4  11  19  33  57  89 123 150 196 252 324 380
#     4  11  24  42  59  85 117 167 219 255 312 386
#     4  11  20  35  58  91 122 153 194 260 324 379
#     4  10  19  36  62  90 120 153 195 255 319 375
#     4  12  21  37  59  92 129 169 207 258 314 385
#
# _framework density 21.124676000000001
#
# number of rings (size 3 to 8) (size 9 to 14) (size 15 to 20)
#    0.000    1.000    5.000    4.500    0.000    3.000 
#    0.000    1.250    0.000    0.000    6.500    0.000 
#    0.000    0.000    0.000    0.000    0.000    0.000 
#
# Total GULP energy -178270.020895 kJ/mol
# GULP energy per Si atom -5570.938153 kJ/mol
# Density = 2.107660 g / cm^3
# Si number density = 21.124676 Si / 1000 Ang^3
#
#
#
# Elastic Constant Matrix: (Units=GPa)
#
#
# Indices 1 2 3 4 5 6 
#
# 1 92.9011 56.9541 28.3679 0.0000 0.0000 0.0000
# 2 56.9541 154.7853 20.7669 0.0000 0.0000 0.0000
# 3 28.3679 20.7669 47.0776 0.0000 0.0000 0.0000
# 4 0.0000 0.0000 0.0000 23.7363 0.0000 0.0000
# 5 0.0000 0.0000 0.0000 0.0000 -20.8380 0.0000
# 6 0.0000 0.0000 0.0000 0.0000 0.0000 34.9040
#
#
#
# Elastic Compliance Matrix: (Units=1/GPa)
#
#
# Indices 1 2 3 4 5 6 
#
# 1 0.016065 -0.004903 -0.007518 0.000000 0.000000 0.000000
# 2 -0.004903 0.008363 -0.000735 0.000000 0.000000 0.000000
# 3 -0.007518 -0.000735 0.026096 0.000000 0.000000 0.000000
# 4 0.000000 0.000000 0.000000 0.042130 0.000000 0.000000
# 5 0.000000 0.000000 0.000000 0.000000 -0.047989 0.000000
# 6 0.000000 0.000000 0.000000 0.000000 0.000000 0.028650
#
#
# Mechanical properties :
#
#
# Convention : Reuss Voigt Hill
#
# Bulk Modulus (GPa) = 41.29966 56.32685 48.81326
# Shear Modulus (GPa) = 46.42646 20.13879 33.28262
#
# Velocity S-wave (km/s) = 4.69309 3.09095 3.97360
# Velocity P-wave (km/s) = 6.99712 6.28176 6.64907
#
# Compressibility (1/GPa) = 0.02421327
#
# Stress axis : x y z
#
# Youngs Moduli (GPa) = 62.24532 119.57235 38.32027
#
# Poissons Ratio (x) = 0.58623 0.28809
# Poissons Ratio (y) = 0.30517 0.02816
# Poissons Ratio (z) = 0.46796 0.08787
#
# Static dielectric constant tensor:
#      x y z
#    x 1.822620 0.000000 0.000000 
#    y 0.000000 1.825070 0.000000 
#    z 0.000000 0.000000 1.830100 
# 
# From -- ./inp_files/21053.got.cif
#   From: 2010.05.17/outbox.cif.g08.bks.cpg/sg24_11_cif.got.tgz:21053.got - 2010.06.04 00:33:39.
