data_PCOD9333189
_publ_section_title
;
Structure prediction by ZEFSAII (Michael W. Deem and Ramdas Pophale) SiO2 
 PCOD9333189
Probable space group: I 21 21 21
;
_chemical_formula_sum "Si O2"
_cell_formula_units_Z 56
_cell_length_a 12.533143
_cell_length_b 22.642391
_cell_length_c 11.626828
_cell_angle_alpha 90.000000
_cell_angle_beta 90.000000
_cell_angle_gamma 90.000000
_cell_volume 3299.465020
_symmetry_space_group_name_H-M "I 21 21 21"
_symmetry_group_IT_number 24
_symmetry_cell_setting 'orthorhombic'
loop_
_space_group_symop_operation_xyz
x,y,z
-x,1/2-y,z
x,-y,1/2-z
1/2-x,y,-z
1/2+x,1/2+y,1/2+z
1/2-x,-y,1/2+z
1/2+x,1/2-y,-z
-x,1/2+y,1/2-z
loop_
_atom_site_type_symbol
_atom_site_label
_atom_site_fract_x
_atom_site_fract_y
_atom_site_fract_z
Si Si1 0.372527 0.944559 0.455475
Si Si2 0.346971 0.166364 0.918460
Si Si3 0.250000 0.300037 0.500000
Si Si4 0.094985 0.960577 0.134314
Si Si5 0.792301 0.601244 0.771391
Si Si6 0.904686 0.710723 0.890008
Si Si7 0.534446 0.842206 0.896496
Si Si8 0.000000 0.750000 0.300166
O O1 0.250000 0.945453 0.500000
O O2 0.413958 0.883221 0.511756
O O3 0.362025 0.937350 0.318632
O O4 0.422203 0.000122 0.520025
O O5 0.295641 0.134552 0.807559
O O6 0.409803 0.222664 0.878800
O O7 0.250000 0.183654 0.000000
O O8 0.306037 0.255014 0.410189
O O9 0.152711 0.338380 0.450203
O O10 0.217588 0.936331 0.142995
O O11 0.014027 0.906016 0.130065
O O12 0.081758 0.000000 0.250000
O O13 0.864289 0.651737 0.828052
O O14 0.000000 0.750000 0.835024
O O15 0.953737 0.688868 0.012128
O O16 0.536683 0.802656 0.782801
#
# Coordination Sequence:
#
# PCOD9333189 Si02
#       8
#     8   8   4   8   8   8   8   4
#     4   9  19  34  46  78 110 137 177 220 286 334
#     4   9  19  34  51  78 111 142 178 225 274 335
#     4  10  18  36  50  76 118 130 178 244 268 322
#     4  12  20  33  54  83 106 146 185 233 282 338
#     4  10  19  32  53  75 114 144 172 232 281 337
#     4  10  20  34  51  81 112 139 181 220 290 340
#     4  11  22  31  57  84 105 146 185 234 277 338
#     4  12  16  36  56  82 108 144 190 220 284 338
#
# _framework density 16.972449000000001
#
# number of rings (size 3 to 8) (size 9 to 14) (size 15 to 20)
#    0.000    2.000    6.429    1.714    2.000    0.000 
#    5.143    0.000    0.000    3.429    3.714    0.000 
#    0.000    0.000    0.000    0.000    0.000    0.000 
#
# Total GULP energy -156037.489629 kJ/mol
# GULP energy per Si atom -5572.767487 kJ/mol
# Density = 1.693382 g / cm^3
# Si number density = 16.972449 Si / 1000 Ang^3
#
#
#
# Elastic Constant Matrix: (Units=GPa)
#
#
# Indices 1 2 3 4 5 6 
#
# 1 62.8158 56.5875 37.7715 0.0000 0.0000 0.0000
# 2 56.5875 139.2130 58.9722 0.0000 0.0000 0.0000
# 3 37.7715 58.9722 68.9863 0.0000 0.0000 0.0000
# 4 0.0000 0.0000 0.0000 36.7900 0.0000 0.0000
# 5 0.0000 0.0000 0.0000 0.0000 16.8752 0.0000
# 6 0.0000 0.0000 0.0000 0.0000 0.0000 37.2835
#
#
#
# Elastic Compliance Matrix: (Units=1/GPa)
#
#
# Indices 1 2 3 4 5 6 
#
# 1 0.028180 -0.007711 -0.008838 0.000000 0.000000 0.000000
# 2 -0.007711 0.013371 -0.007208 0.000000 0.000000 0.000000
# 3 -0.008838 -0.007208 0.025496 0.000000 0.000000 0.000000
# 4 0.000000 0.000000 0.000000 0.027181 0.000000 0.000000
# 5 0.000000 0.000000 0.000000 0.000000 0.059258 0.000000
# 6 0.000000 0.000000 0.000000 0.000000 0.000000 0.026822
#
#
# Mechanical properties :
#
#
# Convention : Reuss Voigt Hill
#
# Bulk Modulus (GPa) = 51.19300 64.18639 57.68970
# Shear Modulus (GPa) = 21.33713 26.03535 23.68624
#
# Velocity S-wave (km/s) = 3.54950 3.92085 3.73979
# Velocity P-wave (km/s) = 6.85758 7.64183 7.26030
#
# Compressibility (1/GPa) = 0.01953392
#
# Stress axis : x y z
#
# Youngs Moduli (GPa) = 35.48616 74.78829 39.22153
#
# Poissons Ratio (x) = 0.57669 0.34662
# Poissons Ratio (y) = 0.27363 0.28272
# Poissons Ratio (z) = 0.31361 0.53909
#
# Static dielectric constant tensor:
#      x y z
#    x 1.563720 0.000000 0.000000 
#    y 0.000000 1.623190 0.000000 
#    z 0.000000 0.000000 1.633510 
# 
# From -- ./inp_files/20126.got.cif
#   From: 2010.05.17/outbox.cif.g08.bks.cpg/sg24_11_cif.got.tgz:20126.got - 2010.06.04 00:33:39.
