data_PCOD9333774
_publ_section_title
;
Structure prediction by ZEFSAII (Michael W. Deem and Ramdas Pophale) SiO2 
 PCOD9333774
Probable space group: I 21 21 21
;
_chemical_formula_sum "Si O2"
_cell_formula_units_Z 60
_cell_length_a 20.328325
_cell_length_b 15.594881
_cell_length_c 8.846752
_cell_angle_alpha 90.000000
_cell_angle_beta 90.000000
_cell_angle_gamma 90.000000
_cell_volume 2804.577938
_symmetry_space_group_name_H-M "I 21 21 21"
_symmetry_group_IT_number 24
_symmetry_cell_setting 'orthorhombic'
loop_
_space_group_symop_operation_xyz
x,y,z
-x,1/2-y,z
x,-y,1/2-z
1/2-x,y,-z
1/2+x,1/2+y,1/2+z
1/2-x,-y,1/2+z
1/2+x,1/2-y,-z
-x,1/2+y,1/2-z
loop_
_atom_site_type_symbol
_atom_site_label
_atom_site_fract_x
_atom_site_fract_y
_atom_site_fract_z
Si Si1 0.854924 0.263669 0.907430
Si Si2 0.058076 0.392742 0.871482
Si Si3 0.803326 0.981729 0.591949
Si Si4 0.288689 0.742949 0.716806
Si Si5 0.491808 0.431362 0.464640
Si Si6 0.631466 0.086721 0.652913
Si Si7 0.376072 0.088185 0.336033
Si Si8 0.750000 0.356505 0.500000
O O1 0.919270 0.201966 0.921274
O O2 0.788184 0.225785 0.826965
O O3 0.875952 0.339044 0.793444
O O4 0.825996 0.286322 0.073310
O O5 0.129508 0.435990 0.876568
O O6 0.033045 0.398194 0.700034
O O7 0.015448 0.463647 0.963535
O O8 0.750000 0.929734 0.500000
O O9 0.771037 0.000000 0.750000
O O10 0.823641 0.063673 0.492953
O O11 0.332956 0.660521 0.755090
O O12 0.283676 0.798764 0.869559
O O13 0.441474 0.395176 0.588450
O O14 0.567030 0.402525 0.461926
O O15 0.625825 0.000000 0.750000
O O16 0.305846 0.089456 0.416466
O O17 0.388956 0.000000 0.250000
#
# Coordination Sequence:
#
# PCOD9333774 Si02
#       8
#     8   8   8   8   8   8   8   4
#     4  10  24  40  70  98 136 175 230 277 327 401
#     4  10  19  38  60  97 129 174 220 268 305 398
#     4  11  22  31  51  89 136 187 230 257 306 382
#     4  10  23  43  61 104 141 179 221 277 337 394
#     4  10  21  41  66  94 135 176 230 262 321 415
#     4  11  23  37  61  95 146 188 219 262 324 407
#     4  11  24  49  76  99 120 172 225 289 353 409
#     4  10  26  44  74  98 130 162 224 292 358 394
#
# _framework density 21.393592999999999
#
# number of rings (size 3 to 8) (size 9 to 14) (size 15 to 20)
#    0.000    1.600    4.000    2.000   10.267    2.667 
#    0.000    2.000    2.933    0.000    0.000    0.000 
#    0.000    0.000    0.000    0.000    0.000    0.000 
#
# Total GULP energy -167350.337220 kJ/mol
# GULP energy per Si atom -5578.344574 kJ/mol
# Density = 2.134490 g / cm^3
# Si number density = 21.393593 Si / 1000 Ang^3
#
#
#
# Elastic Constant Matrix: (Units=GPa)
#
#
# Indices 1 2 3 4 5 6 
#
# 1 113.0394 35.7161 27.0288 0.0000 0.0000 0.0000
# 2 35.7161 49.2832 12.2030 0.0000 0.0000 0.0000
# 3 27.0288 12.2030 83.0382 0.0000 0.0000 0.0000
# 4 0.0000 0.0000 0.0000 22.1441 0.0000 0.0000
# 5 0.0000 0.0000 0.0000 0.0000 37.3135 0.0000
# 6 0.0000 0.0000 0.0000 0.0000 0.0000 14.8819
#
#
#
# Elastic Compliance Matrix: (Units=1/GPa)
#
#
# Indices 1 2 3 4 5 6 
#
# 1 0.012045 -0.008051 -0.002737 0.000000 0.000000 0.000000
# 2 -0.008051 0.026439 -0.001265 0.000000 0.000000 0.000000
# 3 -0.002737 -0.001265 0.013120 0.000000 0.000000 0.000000
# 4 0.000000 0.000000 0.000000 0.045159 0.000000 0.000000
# 5 0.000000 0.000000 0.000000 0.000000 0.026800 0.000000
# 6 0.000000 0.000000 0.000000 0.000000 0.000000 0.067196
#
#
# Mechanical properties :
#
#
# Convention : Reuss Voigt Hill
#
# Bulk Modulus (GPa) = 36.36816 43.91739 40.14277
# Shear Modulus (GPa) = 22.31843 26.22876 24.27359
#
# Velocity S-wave (km/s) = 3.23341 3.50524 3.37207
# Velocity P-wave (km/s) = 5.56564 6.07907 5.82802
#
# Compressibility (1/GPa) = 0.02749658
#
# Stress axis : x y z
#
# Youngs Moduli (GPa) = 83.02272 37.82310 76.22230
#
# Poissons Ratio (x) = 0.30452 0.20865
# Poissons Ratio (y) = 0.66844 0.09640
# Poissons Ratio (z) = 0.22727 0.04783
#
# Static dielectric constant tensor:
#      x y z
#    x 1.787530 0.000000 0.000000 
#    y 0.000000 1.839110 0.000000 
#    z 0.000000 0.000000 1.817600 
# 
# From -- ./inp_files/14467.got.cif
#   From: 2010.05.17/outbox.cif.g08.bks.cpg/sg24_8_cif.got.tgz:14467.got - 2010.06.04 00:33:39.
