data_PCOD9333861
_publ_section_title
;
Structure prediction by ZEFSAII (Michael W. Deem and Ramdas Pophale) SiO2 
 PCOD9333861
Probable space group: I 21 21 21
;
_chemical_formula_sum "Si O2"
_cell_formula_units_Z 40
_cell_length_a 8.040833
_cell_length_b 14.566974
_cell_length_c 16.323502
_cell_angle_alpha 90.000000
_cell_angle_beta 90.000000
_cell_angle_gamma 90.000000
_cell_volume 1911.981669
_symmetry_space_group_name_H-M "I 21 21 21"
_symmetry_group_IT_number 24
_symmetry_cell_setting 'orthorhombic'
loop_
_space_group_symop_operation_xyz
x,y,z
-x,1/2-y,z
x,-y,1/2-z
1/2-x,y,-z
1/2+x,1/2+y,1/2+z
1/2-x,-y,1/2+z
1/2+x,1/2-y,-z
-x,1/2+y,1/2-z
loop_
_atom_site_type_symbol
_atom_site_label
_atom_site_fract_x
_atom_site_fract_y
_atom_site_fract_z
Si Si1 0.500000 0.250000 0.173859
Si Si2 0.250000 0.041080 0.000000
Si Si3 0.791624 0.437618 0.671637
Si Si4 0.905800 0.099736 0.953981
Si Si5 0.681288 0.056842 0.330563
Si Si6 0.317680 0.746396 0.788625
O O1 0.522920 0.160955 0.118751
O O2 0.668433 0.254295 0.224761
O O3 0.431465 0.087654 0.989958
O O4 0.274737 0.988171 0.085346
O O5 0.737348 0.500000 0.750000
O O6 0.698514 0.341142 0.662271
O O7 0.987914 0.418099 0.685407
O O8 0.828274 0.008664 0.910126
O O9 0.750000 0.144658 0.000000
O O10 0.784257 0.151056 0.336329
O O11 0.739194 0.000000 0.250000
O O12 0.500000 0.750000 0.750142
#
# Coordination Sequence:
#
# PCOD9333861 Si02
#       6
#     4   4   8   8   8   8
#     4  12  24  48  66 102 146 172 244 288 362 414
#     4  10  24  44  68 102 140 182 242 286 358 418
#     4  10  21  43  70  97 141 185 234 297 351 419
#     4  11  26  43  69  98 142 188 222 293 357 425
#     4  10  19  44  68  94 135 177 231 288 347 412
#     4  12  24  39  72 104 130 186 236 290 355 426
#
# _framework density 20.920703
#
# number of rings (size 3 to 8) (size 9 to 14) (size 15 to 20)
#    0.000    1.200    4.000    2.400    4.200    4.000 
#    1.800    0.000    0.000    0.000    0.000    0.000 
#    0.000    0.000    0.000    0.000    0.000    0.000 
#
# Total GULP energy -111562.286782 kJ/mol
# GULP energy per Si atom -5578.114339 kJ/mol
# Density = 2.087309 g / cm^3
# Si number density = 20.920703 Si / 1000 Ang^3
#
#
#
# Elastic Constant Matrix: (Units=GPa)
#
#
# Indices 1 2 3 4 5 6 
#
# 1 139.5952 20.9792 23.6807 0.0000 0.0000 0.0000
# 2 20.9792 71.6938 7.8128 0.0000 0.0000 0.0000
# 3 23.6807 7.8128 58.2484 0.0000 0.0000 0.0000
# 4 0.0000 0.0000 0.0000 23.3705 0.0000 0.0000
# 5 0.0000 0.0000 0.0000 0.0000 4.8855 0.0000
# 6 0.0000 0.0000 0.0000 0.0000 0.0000 2.2813
#
#
#
# Elastic Compliance Matrix: (Units=1/GPa)
#
#
# Indices 1 2 3 4 5 6 
#
# 1 0.007969 -0.002008 -0.002971 0.000000 0.000000 0.000000
# 2 -0.002008 0.014661 -0.001150 0.000000 0.000000 0.000000
# 3 -0.002971 -0.001150 0.018530 0.000000 0.000000 0.000000
# 4 0.000000 0.000000 0.000000 0.042789 0.000000 0.000000
# 5 0.000000 0.000000 0.000000 0.000000 0.204689 0.000000
# 6 0.000000 0.000000 0.000000 0.000000 0.000000 0.438355
#
#
# Mechanical properties :
#
#
# Convention : Reuss Voigt Hill
#
# Bulk Modulus (GPa) = 34.59899 41.60922 38.10411
# Shear Modulus (GPa) = 6.67659 20.57843 13.62751
#
# Velocity S-wave (km/s) = 1.78838 3.13971 2.55500
# Velocity P-wave (km/s) = 4.56492 5.75116 5.19203
#
# Compressibility (1/GPa) = 0.02890257
#
# Stress axis : x y z
#
# Youngs Moduli (GPa) = 125.48152 68.20724 53.96722
#
# Poissons Ratio (x) = 0.13698 0.16031
# Poissons Ratio (y) = 0.25200 0.06206
# Poissons Ratio (z) = 0.37275 0.07844
#
# Static dielectric constant tensor:
#      x y z
#    x 1.754100 0.000000 0.000000 
#    y 0.000000 1.870960 0.000000 
#    z 0.000000 0.000000 1.763250 
# 
# From -- ./inp_files/24568.got.cif
#   From: 2010.05.17/outbox.cif.g08.bks.cpg/sg24_13_cif.got.tgz:24568.got - 2010.06.04 00:33:39.
