data_PCOD9333050
_publ_section_title
;
Structure prediction by ZEFSAII (Michael W. Deem and Ramdas Pophale) SiO2 
 PCOD9333050
Probable space group: I 21 21 21
;
_chemical_formula_sum "Si O2"
_cell_formula_units_Z 48
_cell_length_a 20.200213
_cell_length_b 16.104268
_cell_length_c 7.785675
_cell_angle_alpha 90.000000
_cell_angle_beta 90.000000
_cell_angle_gamma 90.000000
_cell_volume 2532.755161
_symmetry_space_group_name_H-M "I 21 21 21"
_symmetry_group_IT_number 24
_symmetry_cell_setting 'orthorhombic'
loop_
_space_group_symop_operation_xyz
x,y,z
-x,1/2-y,z
x,-y,1/2-z
1/2-x,y,-z
1/2+x,1/2+y,1/2+z
1/2-x,-y,1/2+z
1/2+x,1/2-y,-z
-x,1/2+y,1/2-z
loop_
_atom_site_type_symbol
_atom_site_label
_atom_site_fract_x
_atom_site_fract_y
_atom_site_fract_z
Si Si1 0.532797 0.409859 0.839138
Si Si2 0.881507 0.236368 0.657274
Si Si3 0.250000 0.777897 0.000000
Si Si4 0.597579 0.585336 0.158358
Si Si5 0.957579 0.087317 0.797331
Si Si6 0.500000 0.750000 0.883856
Si Si7 0.671418 0.410745 0.704768
O O1 0.522665 0.500000 0.750000
O O2 0.517973 0.408028 0.339783
O O3 0.504752 0.332374 0.731959
O O4 0.612803 0.395617 0.842805
O O5 0.810048 0.224430 0.573867
O O6 0.879548 0.328025 0.740869
O O7 0.908970 0.164436 0.777449
O O8 0.935278 0.244682 0.504103
O O9 0.278099 0.838320 0.848010
O O10 0.615106 0.500000 0.250000
O O11 0.496168 0.588061 0.477989
O O12 0.629347 0.581058 0.971430
O O13 0.923920 0.000000 0.750000
O O14 0.703114 0.500000 0.750000
#
# Coordination Sequence:
#
# PCOD9333050 Si02
#       7
#     8   8   4   8   8   4   8
#     4  11  22  36  59  95 123 154 202 260 305 353
#     4  11  21  39  58  89 119 167 198 250 300 365
#     4  10  22  36  58  86 126 170 196 238 310 364
#     4  10  18  32  55  87 122 155 196 250 291 351
#     4  11  21  36  63  91 118 156 206 262 306 345
#     4  12  20  38  62  86 122 158 204 258 300 346
#     4  10  19  37  56  83 121 168 202 232 299 363
#
# _framework density 18.951692999999999
#
# number of rings (size 3 to 8) (size 9 to 14) (size 15 to 20)
#    0.000    1.333    5.000    5.000    2.333    2.667 
#    0.000    0.000    0.000    8.000    0.000    0.000 
#    0.000    0.000    0.000    0.000    0.000    0.000 
#
# Total GULP energy -133870.010185 kJ/mol
# GULP energy per Si atom -5577.917091 kJ/mol
# Density = 1.890856 g / cm^3
# Si number density = 18.951693 Si / 1000 Ang^3
#
#
#
# Elastic Constant Matrix: (Units=GPa)
#
#
# Indices 1 2 3 4 5 6 
#
# 1 104.2238 35.9229 36.6471 0.0000 0.0000 0.0000
# 2 35.9229 119.7739 45.4391 0.0000 0.0000 0.0000
# 3 36.6471 45.4391 73.9268 0.0000 0.0000 0.0000
# 4 0.0000 0.0000 0.0000 37.5244 0.0000 0.0000
# 5 0.0000 0.0000 0.0000 0.0000 18.3288 0.0000
# 6 0.0000 0.0000 0.0000 0.0000 0.0000 25.7304
#
#
#
# Elastic Compliance Matrix: (Units=1/GPa)
#
#
# Indices 1 2 3 4 5 6 
#
# 1 0.011890 -0.001734 -0.004828 0.000000 0.000000 0.000000
# 2 -0.001734 0.011141 -0.005988 0.000000 0.000000 0.000000
# 3 -0.004828 -0.005988 0.019601 0.000000 0.000000 0.000000
# 4 0.000000 0.000000 0.000000 0.026649 0.000000 0.000000
# 5 0.000000 0.000000 0.000000 0.000000 0.054559 0.000000
# 6 0.000000 0.000000 0.000000 0.000000 0.000000 0.038865
#
#
# Mechanical properties :
#
#
# Convention : Reuss Voigt Hill
#
# Bulk Modulus (GPa) = 57.04239 59.32695 58.18467
# Shear Modulus (GPa) = 25.81982 28.31108 27.06545
#
# Velocity S-wave (km/s) = 3.69508 3.86923 3.78316
# Velocity P-wave (km/s) = 6.95478 7.16474 7.06054
#
# Compressibility (1/GPa) = 0.01753082
#
# Stress axis : x y z
#
# Youngs Moduli (GPa) = 84.10266 89.75896 51.01832
#
# Poissons Ratio (x) = 0.15568 0.24632
# Poissons Ratio (y) = 0.14587 0.30550
# Poissons Ratio (z) = 0.40606 0.53747
#
# Static dielectric constant tensor:
#      x y z
#    x 1.668920 0.000000 0.000000 
#    y 0.000000 1.726110 0.000000 
#    z 0.000000 0.000000 1.720500 
# 
# From -- ./inp_files/15323.got.cif
#   From: 2010.05.17/outbox.cif.g08.bks.cpg/sg24_8_cif.got.tgz:15323.got - 2010.06.04 00:33:39.
