data_PCOD9333972
_publ_section_title
;
Structure prediction by ZEFSAII (Michael W. Deem and Ramdas Pophale) SiO2 
 PCOD9333972
Probable space group: I 21 21 21
;
_chemical_formula_sum "Si O2"
_cell_formula_units_Z 44
_cell_length_a 15.951246
_cell_length_b 5.113030
_cell_length_c 25.722873
_cell_angle_alpha 90.000000
_cell_angle_beta 90.000000
_cell_angle_gamma 90.000000
_cell_volume 2097.936926
_symmetry_space_group_name_H-M "I 21 21 21"
_symmetry_group_IT_number 24
_symmetry_cell_setting 'orthorhombic'
loop_
_space_group_symop_operation_xyz
x,y,z
-x,1/2-y,z
x,-y,1/2-z
1/2-x,y,-z
1/2+x,1/2+y,1/2+z
1/2-x,-y,1/2+z
1/2+x,1/2-y,-z
-x,1/2+y,1/2-z
loop_
_atom_site_type_symbol
_atom_site_label
_atom_site_fract_x
_atom_site_fract_y
_atom_site_fract_z
Si Si1 0.092824 0.301965 0.388297
Si Si2 0.593416 0.696780 0.542733
Si Si3 0.330074 0.679895 0.436853
Si Si4 0.771496 0.297247 0.622562
Si Si5 0.000000 0.750000 0.616543
Si Si6 0.913105 0.372087 0.698906
O O1 0.100079 0.596673 0.409902
O O2 0.176505 0.227481 0.357083
O O3 0.000000 0.250000 0.365242
O O4 0.097248 0.098578 0.436786
O O5 0.500000 0.750000 0.522092
O O6 0.658544 0.749194 0.497011
O O7 0.281610 0.416922 0.422847
O O8 0.425621 0.628224 0.417002
O O9 0.291484 0.920907 0.403422
O O10 0.839384 0.227787 0.667413
O O11 0.951927 0.554391 0.654396
O O12 0.873708 0.500000 0.750000
O O13 0.000000 0.250000 0.719693
#
# Coordination Sequence:
#
# PCOD9333972 Si02
#       6
#     8   8   8   8   4   8
#     4  10  22  39  55  77 110 152 199 239 282 318
#     4  10  20  35  56  79 110 156 196 235 276 327
#     4  11  21  34  55  81 119 148 191 229 278 329
#     4  11  24  36  56  84 111 148 192 235 281 341
#     4  10  20  34  52  82 116 156 176 222 274 336
#     4  11  21  37  59  84 116 147 182 224 288 356
#
# _framework density 20.972985000000001
#
# number of rings (size 3 to 8) (size 9 to 14) (size 15 to 20)
#    0.000    1.455    3.636    2.182    0.000    4.364 
#    0.000    0.000    0.000    0.000    0.000   10.182 
#    0.000    0.000    0.000    0.000    0.000    0.000 
#
# Total GULP energy -122686.602598 kJ/mol
# GULP energy per Si atom -5576.663754 kJ/mol
# Density = 2.092525 g / cm^3
# Si number density = 20.972985 Si / 1000 Ang^3
#
#
#
# Elastic Constant Matrix: (Units=GPa)
#
#
# Indices 1 2 3 4 5 6 
#
# 1 161.1324 1.5995 7.9160 0.0000 0.0000 0.0000
# 2 1.5995 73.7392 -1.4985 0.0000 0.0000 0.0000
# 3 7.9160 -1.4985 19.0216 0.0000 0.0000 0.0000
# 4 0.0000 0.0000 0.0000 16.9527 0.0000 0.0000
# 5 0.0000 0.0000 0.0000 0.0000 51.0900 0.0000
# 6 0.0000 0.0000 0.0000 0.0000 0.0000 23.5094
#
#
#
# Elastic Compliance Matrix: (Units=1/GPa)
#
#
# Indices 1 2 3 4 5 6 
#
# 1 0.006338 -0.000191 -0.002653 0.000000 0.000000 0.000000
# 2 -0.000191 0.013589 0.001150 0.000000 0.000000 0.000000
# 3 -0.002653 0.001150 0.053766 0.000000 0.000000 0.000000
# 4 0.000000 0.000000 0.000000 0.058988 0.000000 0.000000
# 5 0.000000 0.000000 0.000000 0.000000 0.019573 0.000000
# 6 0.000000 0.000000 0.000000 0.000000 0.000000 0.042536
#
#
# Mechanical properties :
#
#
# Convention : Reuss Voigt Hill
#
# Bulk Modulus (GPa) = 14.22366 29.99191 22.10778
# Shear Modulus (GPa) = 22.56178 34.70219 28.63198
#
# Velocity S-wave (km/s) = 3.28343 4.07211 3.69885
# Velocity P-wave (km/s) = 4.60121 6.03661 5.36712
#
# Compressibility (1/GPa) = 0.07030540
#
# Stress axis : x y z
#
# Youngs Moduli (GPa) = 157.77102 73.58988 18.59901
#
# Poissons Ratio (x) = 0.01408 0.04934
# Poissons Ratio (y) = 0.03020 -0.02139
# Poissons Ratio (z) = 0.41853 -0.08464
#
# Static dielectric constant tensor:
#      x y z
#    x 1.870680 0.000000 0.000000 
#    y 0.000000 1.714900 0.000000 
#    z 0.000000 0.000000 1.735500 
# 
# From -- ./inp_files/6385.got.cif
#   From: 2010.05.17/outbox.cif.g08.bks.cpg/sg24_4_cif.got.tgz:6385.got - 2010.06.04 00:33:39.
