data_PCOD9333243
_publ_section_title
;
Structure prediction by ZEFSAII (Michael W. Deem and Ramdas Pophale) SiO2 
 PCOD9333243
Probable space group: I 21 21 21
;
_chemical_formula_sum "Si O2"
_cell_formula_units_Z 40
_cell_length_a 8.064924
_cell_length_b 12.259002
_cell_length_c 18.181595
_cell_angle_alpha 90.000000
_cell_angle_beta 90.000000
_cell_angle_gamma 90.000000
_cell_volume 1797.576470
_symmetry_space_group_name_H-M "I 21 21 21"
_symmetry_group_IT_number 24
_symmetry_cell_setting 'orthorhombic'
loop_
_space_group_symop_operation_xyz
x,y,z
-x,1/2-y,z
x,-y,1/2-z
1/2-x,y,-z
1/2+x,1/2+y,1/2+z
1/2-x,-y,1/2+z
1/2+x,1/2-y,-z
-x,1/2+y,1/2-z
loop_
_atom_site_type_symbol
_atom_site_label
_atom_site_fract_x
_atom_site_fract_y
_atom_site_fract_z
Si Si1 0.216462 0.399127 0.305459
Si Si2 0.000000 0.250000 0.201322
Si Si3 0.057848 0.968520 0.392104
Si Si4 0.598863 0.562004 0.325184
Si Si5 0.500000 0.750000 0.230832
Si Si6 0.433082 0.373820 0.034370
O O1 0.243136 0.500000 0.250000
O O2 0.388916 0.332946 0.318363
O O3 0.119801 0.309840 0.258245
O O4 0.086673 0.448429 0.365418
O O5 0.962721 0.350344 0.146732
O O6 0.243386 0.993501 0.364640
O O7 0.041591 0.944649 0.477979
O O8 0.576070 0.500000 0.250000
O O9 0.613897 0.682877 0.289493
O O10 0.452778 0.573912 0.384968
O O11 0.500000 0.250000 0.038138
O O12 0.250000 0.372308 0.000000
#
# Coordination Sequence:
#
# PCOD9333243 Si02
#       6
#     8   4   8   8   4   8
#     4  10  23  38  65 104 145 197 247 302 381 441
#     4  10  18  37  62  99 144 182 242 300 358 459
#     4  11  23  43  70 102 149 196 247 313 382 454
#     4  12  26  45  71 111 148 197 254 312 380 461
#     4  12  24  39  68 105 152 186 250 312 372 439
#     4  12  27  44  70 106 157 197 243 318 395 449
#
# _framework density 22.252184
#
# number of rings (size 3 to 8) (size 9 to 14) (size 15 to 20)
#    0.000    0.800    4.000    4.200    8.400    0.000 
#    0.000    0.000    0.000    1.200    0.000    0.000 
#    0.000    0.000    0.000    0.000    0.000    0.000 
#
# Total GULP energy -111439.750739 kJ/mol
# GULP energy per Si atom -5571.987537 kJ/mol
# Density = 2.220154 g / cm^3
# Si number density = 22.252184 Si / 1000 Ang^3
#
#
#
# Elastic Constant Matrix: (Units=GPa)
#
#
# Indices 1 2 3 4 5 6 
#
# 1 121.5438 55.1862 54.2902 0.0000 0.0000 0.0000
# 2 55.1862 94.2350 45.4853 0.0000 0.0000 0.0000
# 3 54.2902 45.4853 154.8700 0.0000 0.0000 0.0000
# 4 0.0000 0.0000 0.0000 31.2226 0.0000 0.0000
# 5 0.0000 0.0000 0.0000 0.0000 32.0721 0.0000
# 6 0.0000 0.0000 0.0000 0.0000 0.0000 34.3316
#
#
#
# Elastic Compliance Matrix: (Units=1/GPa)
#
#
# Indices 1 2 3 4 5 6 
#
# 1 0.011980 -0.005813 -0.002492 0.000000 0.000000 0.000000
# 2 -0.005813 0.015185 -0.002422 0.000000 0.000000 0.000000
# 3 -0.002492 -0.002422 0.008042 0.000000 0.000000 0.000000
# 4 0.000000 0.000000 0.000000 0.032028 0.000000 0.000000
# 5 0.000000 0.000000 0.000000 0.000000 0.031180 0.000000
# 6 0.000000 0.000000 0.000000 0.000000 0.000000 0.029128
#
#
# Mechanical properties :
#
#
# Convention : Reuss Voigt Hill
#
# Bulk Modulus (GPa) = 72.71408 75.61913 74.16660
# Shear Modulus (GPa) = 32.55602 33.90440 33.23021
#
# Velocity S-wave (km/s) = 3.82913 3.90762 3.86858
# Velocity P-wave (km/s) = 7.23173 7.37671 7.30458
#
# Compressibility (1/GPa) = 0.01375249
#
# Stress axis : x y z
#
# Youngs Moduli (GPa) = 83.47236 65.85472 124.34498
#
# Poissons Ratio (x) = 0.38279 0.30992
# Poissons Ratio (y) = 0.48520 0.30118
# Poissons Ratio (z) = 0.20805 0.15951
#
# Static dielectric constant tensor:
#      x y z
#    x 2.020090 0.000000 0.000000 
#    y 0.000000 1.852040 0.000000 
#    z 0.000000 0.000000 1.775410 
# 
# From -- ./inp_files/18240.got.cif
#   From: 2010.05.17/outbox.cif.g08.bks.cpg/sg24_10_cif.got.tgz:18240.got - 2010.06.04 00:33:39.
