data_PCOD9333542
_publ_section_title
;
Structure prediction by ZEFSAII (Michael W. Deem and Ramdas Pophale) SiO2 
 PCOD9333542
Probable space group: I 21 21 21
;
_chemical_formula_sum "Si O2"
_cell_formula_units_Z 52
_cell_length_a 10.795567
_cell_length_b 9.191788
_cell_length_c 25.939314
_cell_angle_alpha 90.000000
_cell_angle_beta 90.000000
_cell_angle_gamma 90.000000
_cell_volume 2573.972737
_symmetry_space_group_name_H-M "I 21 21 21"
_symmetry_group_IT_number 24
_symmetry_cell_setting 'orthorhombic'
loop_
_space_group_symop_operation_xyz
x,y,z
-x,1/2-y,z
x,-y,1/2-z
1/2-x,y,-z
1/2+x,1/2+y,1/2+z
1/2-x,-y,1/2+z
1/2+x,1/2-y,-z
-x,1/2+y,1/2-z
loop_
_atom_site_type_symbol
_atom_site_label
_atom_site_fract_x
_atom_site_fract_y
_atom_site_fract_z
Si Si1 0.000000 0.250000 0.615951
Si Si2 0.409413 0.023485 0.634283
Si Si3 0.286139 0.781810 0.786185
Si Si4 0.302924 0.520219 0.866046
Si Si5 0.247660 0.771315 0.060927
Si Si6 0.270200 0.219135 0.168629
Si Si7 0.040074 0.979259 0.805785
O O1 0.116034 0.195128 0.583264
O O2 0.966613 0.112729 0.652222
O O3 0.388007 0.113862 0.687504
O O4 0.551518 0.981981 0.630152
O O5 0.355015 0.128942 0.589541
O O6 0.320847 0.884779 0.636885
O O7 0.290538 0.634118 0.818615
O O8 0.290555 0.761401 0.725356
O O9 0.158585 0.872450 0.795365
O O10 0.274356 0.608733 0.918058
O O11 0.223508 0.376488 0.856402
O O12 0.250000 0.785018 0.000000
O O13 0.397625 0.129015 0.175779
O O14 0.976806 0.000000 0.750000
#
# Coordination Sequence:
#
# PCOD9333542 Si02
#       7
#     4   8   8   8   8   8   8
#     4  12  20  44  70  86 118 168 210 250 316 370
#     4  10  20  37  57  87 122 157 203 251 298 362
#     4   9  17  33  54  84 127 162 203 235 281 373
#     4  11  21  35  57  89 128 153 198 249 309 366
#     4  11  25  42  65  88 109 153 217 265 303 364
#     4  10  19  34  57  89 129 162 192 244 307 369
#     4   9  19  38  59  89 128 165 204 249 294 376
#
# _framework density 20.202235000000002
#
# number of rings (size 3 to 8) (size 9 to 14) (size 15 to 20)
#    0.000    1.846    4.615    4.154    2.154    3.692 
#    5.538    0.769    0.000    0.000    0.000    0.000 
#    0.000    0.000    0.000    0.000    0.000    0.000 
#
# Total GULP energy -145266.955017 kJ/mol
# GULP energy per Si atom -5587.190578 kJ/mol
# Density = 2.015625 g / cm^3
# Si number density = 20.202235 Si / 1000 Ang^3
#
#
#
# Elastic Constant Matrix: (Units=GPa)
#
#
# Indices 1 2 3 4 5 6 
#
# 1 48.2108 15.5382 17.4678 0.0000 0.0000 0.0000
# 2 15.5382 140.4741 35.9456 0.0000 0.0000 0.0000
# 3 17.4678 35.9456 120.5476 0.0000 0.0000 0.0000
# 4 0.0000 0.0000 0.0000 8.7042 0.0000 0.0000
# 5 0.0000 0.0000 0.0000 0.0000 14.7098 0.0000
# 6 0.0000 0.0000 0.0000 0.0000 0.0000 28.2971
#
#
#
# Elastic Compliance Matrix: (Units=1/GPa)
#
#
# Indices 1 2 3 4 5 6 
#
# 1 0.022293 -0.001775 -0.002701 0.000000 0.000000 0.000000
# 2 -0.001775 0.007848 -0.002083 0.000000 0.000000 0.000000
# 3 -0.002701 -0.002083 0.009308 0.000000 0.000000 0.000000
# 4 0.000000 0.000000 0.000000 0.114887 0.000000 0.000000
# 5 0.000000 0.000000 0.000000 0.000000 0.067982 0.000000
# 6 0.000000 0.000000 0.000000 0.000000 0.000000 0.035339
#
#
# Mechanical properties :
#
#
# Convention : Reuss Voigt Hill
#
# Bulk Modulus (GPa) = 37.97763 49.68174 43.82968
# Shear Modulus (GPa) = 17.88577 26.36095 22.12336
#
# Velocity S-wave (km/s) = 2.97869 3.61619 3.31281
# Velocity P-wave (km/s) = 5.53802 6.48702 6.03121
#
# Compressibility (1/GPa) = 0.02633129
#
# Stress axis : x y z
#
# Youngs Moduli (GPa) = 44.85732 127.41983 107.43427
#
# Poissons Ratio (x) = 0.22613 0.29020
# Poissons Ratio (y) = 0.07961 0.22379
# Poissons Ratio (z) = 0.12117 0.26542
#
# Static dielectric constant tensor:
#      x y z
#    x 1.771750 0.000000 0.000000 
#    y 0.000000 1.729520 0.000000 
#    z 0.000000 0.000000 1.697570 
# 
# From -- ./inp_files/37168.got.cif
#   From: 2010.05.17/outbox.cif.g08.bks.cpg/sg24_19_cif.got.tgz:37168.got - 2010.06.04 00:33:39.
