data_PCOD9333822
_publ_section_title
;
Structure prediction by ZEFSAII (Michael W. Deem and Ramdas Pophale) SiO2 
 PCOD9333822
Probable space group: I 21 21 21
;
_chemical_formula_sum "Si O2"
_cell_formula_units_Z 40
_cell_length_a 13.424939
_cell_length_b 7.830896
_cell_length_c 17.569480
_cell_angle_alpha 90.000000
_cell_angle_beta 90.000000
_cell_angle_gamma 90.000000
_cell_volume 1847.067153
_symmetry_space_group_name_H-M "I 21 21 21"
_symmetry_group_IT_number 24
_symmetry_cell_setting 'orthorhombic'
loop_
_space_group_symop_operation_xyz
x,y,z
-x,1/2-y,z
x,-y,1/2-z
1/2-x,y,-z
1/2+x,1/2+y,1/2+z
1/2-x,-y,1/2+z
1/2+x,1/2-y,-z
-x,1/2+y,1/2-z
loop_
_atom_site_type_symbol
_atom_site_label
_atom_site_fract_x
_atom_site_fract_y
_atom_site_fract_z
Si Si1 0.596743 0.650722 0.299785
Si Si2 0.266282 0.373149 0.311048
Si Si3 0.115984 0.467611 0.953268
Si Si4 0.880898 0.426576 0.959239
Si Si5 0.118902 0.766893 0.070971
O O1 0.500000 0.750000 0.329151
O O2 0.553422 0.500000 0.250000
O O3 0.660652 0.761676 0.241439
O O4 0.657255 0.576390 0.371830
O O5 0.216702 0.500000 0.250000
O O6 0.329077 0.479217 0.375000
O O7 0.185945 0.260143 0.355159
O O8 0.133955 0.272576 0.980605
O O9 0.996603 0.479190 0.946909
O O10 0.142959 0.607574 0.015832
O O11 0.852989 0.560695 0.024652
O O12 0.000000 0.750000 0.086598
#
# Coordination Sequence:
#
# PCOD9333822 Si02
#       5
#     8   8   8   8   8
#     4  12  22  37  65 103 142 173 215 283 360 425
#     4  12  23  43  66 102 139 178 223 282 351 408
#     4  10  19  39  67  99 129 171 222 278 340 407
#     4  10  19  39  67  96 131 173 221 274 341 403
#     4  10  24  44  70  95 131 184 235 276 322 395
#
# _framework density 21.655954000000001
#
# number of rings (size 3 to 8) (size 9 to 14) (size 15 to 20)
#    0.000    1.200    4.000    3.600    0.000    1.600 
#    3.600    3.000    4.400    0.000    0.000    0.000 
#    0.000    0.000    0.000    0.000    0.000    0.000 
#
# Total GULP energy -111641.406054 kJ/mol
# GULP energy per Si atom -5582.070303 kJ/mol
# Density = 2.160666 g / cm^3
# Si number density = 21.655954 Si / 1000 Ang^3
#
#
#
# Elastic Constant Matrix: (Units=GPa)
#
#
# Indices 1 2 3 4 5 6 
#
# 1 118.7427 30.3818 57.5421 0.0000 0.0000 0.0000
# 2 30.3818 100.1211 63.6562 0.0000 0.0000 0.0000
# 3 57.5421 63.6562 140.2611 0.0000 0.0000 0.0000
# 4 0.0000 0.0000 0.0000 71.4919 0.0000 0.0000
# 5 0.0000 0.0000 0.0000 0.0000 34.4607 0.0000
# 6 0.0000 0.0000 0.0000 0.0000 0.0000 -36.4100
#
#
#
# Elastic Compliance Matrix: (Units=1/GPa)
#
#
# Indices 1 2 3 4 5 6 
#
# 1 0.010540 -0.000631 -0.004037 0.000000 0.000000 0.000000
# 2 -0.000631 0.014077 -0.006130 0.000000 0.000000 0.000000
# 3 -0.004037 -0.006130 0.011568 0.000000 0.000000 0.000000
# 4 0.000000 0.000000 0.000000 0.013988 0.000000 0.000000
# 5 0.000000 0.000000 0.000000 0.000000 0.029019 0.000000
# 6 0.000000 0.000000 0.000000 0.000000 0.000000 -0.027465
#
#
# Mechanical properties :
#
#
# Convention : Reuss Voigt Hill
#
# Bulk Modulus (GPa) = 68.55193 73.58723 71.06958
# Shear Modulus (GPa) = 63.95173 27.74484 45.84829
#
# Velocity S-wave (km/s) = 5.44012 3.58322 4.60621
# Velocity P-wave (km/s) = 8.43704 7.15354 7.82166
#
# Compressibility (1/GPa) = 0.01458748
#
# Stress axis : x y z
#
# Youngs Moduli (GPa) = 94.88051 71.03994 86.44754
#
# Poissons Ratio (x) = 0.04485 0.34902
# Poissons Ratio (y) = 0.05990 0.52988
# Poissons Ratio (z) = 0.38306 0.43544
#
# Static dielectric constant tensor:
#      x y z
#    x 1.798510 0.000000 0.000000 
#    y 0.000000 1.857310 0.000000 
#    z 0.000000 0.000000 1.781150 
# 
# From -- ./inp_files/26299.got.cif
#   From: 2010.05.17/outbox.cif.g08.bks.cpg/sg24_14_cif.got.tgz:26299.got - 2010.06.04 00:33:39.
