data_PCOD9333723
_publ_section_title
;
Structure prediction by ZEFSAII (Michael W. Deem and Ramdas Pophale) SiO2 
 PCOD9333723
Probable space group: I 21 21 21
;
_chemical_formula_sum "Si O2"
_cell_formula_units_Z 40
_cell_length_a 17.409249
_cell_length_b 8.038406
_cell_length_c 14.674795
_cell_angle_alpha 90.000000
_cell_angle_beta 90.000000
_cell_angle_gamma 90.000000
_cell_volume 2053.629137
_symmetry_space_group_name_H-M "I 21 21 21"
_symmetry_group_IT_number 24
_symmetry_cell_setting 'orthorhombic'
loop_
_space_group_symop_operation_xyz
x,y,z
-x,1/2-y,z
x,-y,1/2-z
1/2-x,y,-z
1/2+x,1/2+y,1/2+z
1/2-x,-y,1/2+z
1/2+x,1/2-y,-z
-x,1/2+y,1/2-z
loop_
_atom_site_type_symbol
_atom_site_label
_atom_site_fract_x
_atom_site_fract_y
_atom_site_fract_z
Si Si1 0.084531 0.692130 0.835907
Si Si2 0.180987 0.534533 0.356018
Si Si3 0.659950 0.286974 0.523766
Si Si4 0.840685 0.346574 0.027216
Si Si5 0.356183 0.340118 0.148552
O O1 0.085750 0.493803 0.850592
O O2 0.140197 0.732556 0.750456
O O3 0.000000 0.750000 0.812773
O O4 0.114181 0.767274 0.929889
O O5 0.167070 0.500000 0.250000
O O6 0.152780 0.374028 0.412254
O O7 0.145506 0.701737 0.399392
O O8 0.273047 0.571327 0.367303
O O9 0.750000 0.290524 0.500000
O O10 0.638660 0.469632 0.561077
O O11 0.750000 0.349722 0.000000
O O12 0.875766 0.288409 0.930726
#
# Coordination Sequence:
#
# PCOD9333723 Si02
#       5
#     8   8   8   8   8
#     4  11  22  35  59  90 126 171 202 244 319 393
#     4  11  18  35  61  84 116 155 210 268 305 350
#     4  11  19  36  59  84 117 157 209 261 304 363
#     4   9  20  31  54  87 114 153 207 256 305 361
#     4  10  19  37  54  81 130 169 201 243 315 381
#
# _framework density 19.477713000000001
#
# number of rings (size 3 to 8) (size 9 to 14) (size 15 to 20)
#    0.000    1.600    6.000    0.600    0.000    4.800 
#    0.000    6.000    0.000    0.000    5.200    0.000 
#    0.000    0.000    0.000    0.000    0.000    0.000 
#
# Total GULP energy -111501.295989 kJ/mol
# GULP energy per Si atom -5575.064799 kJ/mol
# Density = 1.943338 g / cm^3
# Si number density = 19.477713 Si / 1000 Ang^3
#
#
#
# Elastic Constant Matrix: (Units=GPa)
#
#
# Indices 1 2 3 4 5 6 
#
# 1 18.5699 8.8321 6.5373 0.0000 0.0000 0.0000
# 2 8.8321 163.8281 69.8493 0.0000 0.0000 0.0000
# 3 6.5373 69.8493 88.5054 0.0000 0.0000 0.0000
# 4 0.0000 0.0000 0.0000 22.6329 0.0000 0.0000
# 5 0.0000 0.0000 0.0000 0.0000 7.1406 0.0000
# 6 0.0000 0.0000 0.0000 0.0000 0.0000 8.3283
#
#
#
# Elastic Compliance Matrix: (Units=1/GPa)
#
#
# Indices 1 2 3 4 5 6 
#
# 1 0.055670 -0.001881 -0.002627 0.000000 0.000000 0.000000
# 2 -0.001881 0.009263 -0.007171 0.000000 0.000000 0.000000
# 3 -0.002627 -0.007171 0.017153 0.000000 0.000000 0.000000
# 4 0.000000 0.000000 0.000000 0.044184 0.000000 0.000000
# 5 0.000000 0.000000 0.000000 0.000000 0.140045 0.000000
# 6 0.000000 0.000000 0.000000 0.000000 0.000000 0.120072
#
#
# Mechanical properties :
#
#
# Convention : Reuss Voigt Hill
#
# Bulk Modulus (GPa) = 17.02830 49.03785 33.03308
# Shear Modulus (GPa) = 11.64628 19.99934 15.82281
#
# Velocity S-wave (km/s) = 2.44791 3.20782 2.85328
# Velocity P-wave (km/s) = 4.09281 6.24109 5.27742
#
# Compressibility (1/GPa) = 0.05872576
#
# Stress axis : x y z
#
# Youngs Moduli (GPa) = 17.96299 107.95666 58.30010
#
# Poissons Ratio (x) = 0.20306 0.15318
# Poissons Ratio (y) = 0.03379 0.41810
# Poissons Ratio (z) = 0.04720 0.77421
#
# Static dielectric constant tensor:
#      x y z
#    x 1.675780 0.000000 0.000000 
#    y 0.000000 1.732010 0.000000 
#    z 0.000000 0.000000 1.718270 
# 
# From -- ./inp_files/12539.got.cif
#   From: 2010.05.17/outbox.cif.g08.bks.cpg/sg24_7_cif.got.tgz:12539.got - 2010.06.04 00:33:39.
