data_PCOD9333095
_publ_section_title
;
Structure prediction by ZEFSAII (Michael W. Deem and Ramdas Pophale) SiO2 
 PCOD9333095
Probable space group: I 21 21 21
;
_chemical_formula_sum "Si O2"
_cell_formula_units_Z 52
_cell_length_a 18.005125
_cell_length_b 13.689673
_cell_length_c 9.999251
_cell_angle_alpha 90.000000
_cell_angle_beta 90.000000
_cell_angle_gamma 90.000000
_cell_volume 2464.658119
_symmetry_space_group_name_H-M "I 21 21 21"
_symmetry_group_IT_number 24
_symmetry_cell_setting 'orthorhombic'
loop_
_space_group_symop_operation_xyz
x,y,z
-x,1/2-y,z
x,-y,1/2-z
1/2-x,y,-z
1/2+x,1/2+y,1/2+z
1/2-x,-y,1/2+z
1/2+x,1/2-y,-z
-x,1/2+y,1/2-z
loop_
_atom_site_type_symbol
_atom_site_label
_atom_site_fract_x
_atom_site_fract_y
_atom_site_fract_z
Si Si1 0.328846 0.592214 0.426033
Si Si2 0.000000 0.750000 0.734576
Si Si3 0.204823 0.887324 0.711295
Si Si4 0.124691 0.381518 0.632064
Si Si5 0.334500 0.805664 0.022166
Si Si6 0.105063 0.200818 0.992064
Si Si7 0.124605 0.116237 0.257163
O O1 0.250000 0.577633 0.500000
O O2 0.376357 0.491869 0.422031
O O3 0.324324 0.617510 0.266909
O O4 0.368568 0.686497 0.490241
O O5 0.048948 0.673525 0.821243
O O6 0.045674 0.812218 0.625022
O O7 0.153999 0.836542 0.824835
O O8 0.172475 0.864565 0.566333
O O9 0.289806 0.852557 0.724973
O O10 0.204729 0.000000 0.750000
O O11 0.159511 0.310541 0.521625
O O12 0.250000 0.840066 0.000000
O O13 0.386728 0.850288 0.909357
O O14 0.079967 0.165788 0.137192
O O15 0.118604 0.000000 0.250000
#
# Coordination Sequence:
#
# PCOD9333095 Si02
#       7
#     8   4   8   8   8   8   8
#     4  10  20  36  64  92 130 167 217 290 343 388
#     4  10  22  42  64  82 130 172 230 260 302 414
#     4  10  18  33  57  89 120 159 210 258 323 389
#     4  10  21  40  59  96 127 167 223 265 332 409
#     4  10  19  33  55  87 124 159 201 270 336 389
#     4  11  21  39  60  89 126 177 219 263 330 383
#     4  10  21  35  57  91 130 159 208 274 331 392
#
# _framework density 21.09826
#
# number of rings (size 3 to 8) (size 9 to 14) (size 15 to 20)
#    0.000    1.846    3.077    2.769    2.154    2.462 
#    5.538    0.769    0.000    0.000    0.000    0.000 
#    0.000    0.000    0.000    0.000    0.000    0.000 
#
# Total GULP energy -144873.857899 kJ/mol
# GULP energy per Si atom -5572.071458 kJ/mol
# Density = 2.105024 g / cm^3
# Si number density = 21.098260 Si / 1000 Ang^3
#
#
#
# Elastic Constant Matrix: (Units=GPa)
#
#
# Indices 1 2 3 4 5 6 
#
# 1 49.7044 8.1770 7.3682 0.0000 0.0000 0.0000
# 2 8.1770 106.4567 31.3650 0.0000 0.0000 0.0000
# 3 7.3682 31.3650 95.9665 0.0000 0.0000 0.0000
# 4 0.0000 0.0000 0.0000 30.3714 0.0000 0.0000
# 5 0.0000 0.0000 0.0000 0.0000 21.0839 0.0000
# 6 0.0000 0.0000 0.0000 0.0000 0.0000 22.7103
#
#
#
# Elastic Compliance Matrix: (Units=1/GPa)
#
#
# Indices 1 2 3 4 5 6 
#
# 1 0.020495 -0.001229 -0.001172 0.000000 0.000000 0.000000
# 2 -0.001229 0.010468 -0.003327 0.000000 0.000000 0.000000
# 3 -0.001172 -0.003327 0.011598 0.000000 0.000000 0.000000
# 4 0.000000 0.000000 0.000000 0.032926 0.000000 0.000000
# 5 0.000000 0.000000 0.000000 0.000000 0.047429 0.000000
# 6 0.000000 0.000000 0.000000 0.000000 0.000000 0.044033
#
#
# Mechanical properties :
#
#
# Convention : Reuss Voigt Hill
#
# Bulk Modulus (GPa) = 32.14922 38.43867 35.29394
# Shear Modulus (GPa) = 26.48690 28.51429 27.50059
#
# Velocity S-wave (km/s) = 3.54702 3.68026 3.61425
# Velocity P-wave (km/s) = 5.66092 6.02640 5.84652
#
# Compressibility (1/GPa) = 0.03110495
#
# Stress axis : x y z
#
# Youngs Moduli (GPa) = 48.79275 95.52836 86.22447
#
# Poissons Ratio (x) = 0.11740 0.10105
# Poissons Ratio (y) = 0.05996 0.28687
# Poissons Ratio (z) = 0.05718 0.31782
#
# Static dielectric constant tensor:
#      x y z
#    x 1.840450 0.000000 0.000000 
#    y 0.000000 1.789260 0.000000 
#    z 0.000000 0.000000 1.802700 
# 
# From -- ./inp_files/15177.got.cif
#   From: 2010.05.17/outbox.cif.g08.bks.cpg/sg24_8_cif.got.tgz:15177.got - 2010.06.04 00:33:39.
