data_PCOD9333091
_publ_section_title
;
Structure prediction by ZEFSAII (Michael W. Deem and Ramdas Pophale) SiO2 
 PCOD9333091
Probable space group: I 21 21 21
;
_chemical_formula_sum "Si O2"
_cell_formula_units_Z 56
_cell_length_a 29.350272
_cell_length_b 5.865825
_cell_length_c 15.417665
_cell_angle_alpha 90.000000
_cell_angle_beta 90.000000
_cell_angle_gamma 90.000000
_cell_volume 2654.360082
_symmetry_space_group_name_H-M "I 21 21 21"
_symmetry_group_IT_number 24
_symmetry_cell_setting 'orthorhombic'
loop_
_space_group_symop_operation_xyz
x,y,z
-x,1/2-y,z
x,-y,1/2-z
1/2-x,y,-z
1/2+x,1/2+y,1/2+z
1/2-x,-y,1/2+z
1/2+x,1/2-y,-z
-x,1/2+y,1/2-z
loop_
_atom_site_type_symbol
_atom_site_label
_atom_site_fract_x
_atom_site_fract_y
_atom_site_fract_z
Si Si1 0.401669 0.298076 0.987916
Si Si2 0.673641 0.472539 0.422044
Si Si3 0.801045 0.746138 0.239028
Si Si4 0.904698 0.747362 0.294379
Si Si5 0.750000 0.238247 0.000000
Si Si6 0.051485 0.665857 0.667122
Si Si7 0.874983 0.500000 0.750000
Si Si8 0.679437 0.106057 0.555013
O O1 0.422104 0.231459 0.894209
O O2 0.370138 0.508043 0.960283
O O3 0.367854 0.099071 0.025436
O O4 0.432648 0.383295 0.068180
O O5 0.717258 0.632222 0.433234
O O6 0.656758 0.410276 0.326789
O O7 0.689725 0.248244 0.470115
O O8 0.777302 0.500000 0.250000
O O9 0.848813 0.750419 0.292928
O O10 0.817078 0.742401 0.139135
O O11 0.779408 0.000000 0.250000
O O12 0.916844 0.500000 0.250000
O O13 0.916776 0.000000 0.250000
O O14 0.715753 0.093716 0.942011
O O15 0.049482 0.500000 0.750000
O O16 0.090818 0.833029 0.700910
O O17 0.000000 0.750000 0.658878
#
# Coordination Sequence:
#
# PCOD9333091 Si02
#       8
#     8   8   8   8   4   8   4   8
#     4  10  21  35  62  95 123 178 219 278 346 419
#     4  10  21  39  63  85 124 168 231 264 347 411
#     4  10  19  32  57  88 121 154 208 277 317 384
#     4  10  18  33  56  94 131 163 217 273 316 393
#     4  10  24  38  56  86 124 172 218 290 330 406
#     4  11  22  41  66 102 140 166 228 289 357 421
#     4  10  22  42  70  94 124 182 216 286 350 424
#     4  11  20  38  59  83 124 171 220 277 340 400
#
# _framework density 21.097363000000001
#
# number of rings (size 3 to 8) (size 9 to 14) (size 15 to 20)
#    0.000    1.714    3.571    3.000    2.000    0.000 
#    0.000    2.857    3.143    0.857    0.000    0.000 
#    0.000    0.000    0.000    0.000    0.000    0.000 
#
# Total GULP energy -155878.779269 kJ/mol
# GULP energy per Si atom -5567.099260 kJ/mol
# Density = 2.104934 g / cm^3
# Si number density = 21.097363 Si / 1000 Ang^3
#
#
#
# Elastic Constant Matrix: (Units=GPa)
#
#
# Indices 1 2 3 4 5 6 
#
# 1 62.6587 20.4392 50.6491 0.0000 0.0000 0.0000
# 2 20.4392 108.0691 43.7063 0.0000 0.0000 0.0000
# 3 50.6491 43.7063 177.2884 0.0000 0.0000 0.0000
# 4 0.0000 0.0000 0.0000 -21.0020 0.0000 0.0000
# 5 0.0000 0.0000 0.0000 0.0000 9.8781 0.0000
# 6 0.0000 0.0000 0.0000 0.0000 0.0000 6.2830
#
#
#
# Elastic Compliance Matrix: (Units=1/GPa)
#
#
# Indices 1 2 3 4 5 6 
#
# 1 0.021035 -0.001719 -0.005586 0.000000 0.000000 0.000000
# 2 -0.001719 0.010419 -0.002077 0.000000 0.000000 0.000000
# 3 -0.005586 -0.002077 0.007748 0.000000 0.000000 0.000000
# 4 0.000000 0.000000 0.000000 -0.047615 0.000000 0.000000
# 5 0.000000 0.000000 0.000000 0.000000 0.101234 0.000000
# 6 0.000000 0.000000 0.000000 0.000000 0.000000 0.159160
#
#
# Mechanical properties :
#
#
# Convention : Reuss Voigt Hill
#
# Bulk Modulus (GPa) = 48.92910 64.17838 56.55374
# Shear Modulus (GPa) = 18.01420 14.57994 16.29707
#
# Velocity S-wave (km/s) = 2.92526 2.63169 2.78235
# Velocity P-wave (km/s) = 5.88659 6.30242 6.09805
#
# Compressibility (1/GPa) = 0.02043774
#
# Stress axis : x y z
#
# Youngs Moduli (GPa) = 47.53879 95.98185 129.05910
#
# Poissons Ratio (x) = 0.16503 0.72088
# Poissons Ratio (y) = 0.08174 0.26809
# Poissons Ratio (z) = 0.26554 0.19938
#
# Static dielectric constant tensor:
#      x y z
#    x 1.697370 0.000000 0.000000 
#    y 0.000000 1.866660 0.000000 
#    z 0.000000 0.000000 1.847040 
# 
# From -- ./inp_files/28253.got.cif
#   From: 2010.05.17/outbox.cif.g08.bks.cpg/sg24_15_cif.got.tgz:28253.got - 2010.06.04 00:33:39.
