data_PCOD9333306
_publ_section_title
;
Structure prediction by ZEFSAII (Michael W. Deem and Ramdas Pophale) SiO2 
 PCOD9333306
Probable space group: I 21 21 21
;
_chemical_formula_sum "Si O2"
_cell_formula_units_Z 48
_cell_length_a 15.380518
_cell_length_b 15.780674
_cell_length_c 9.676504
_cell_angle_alpha 90.000000
_cell_angle_beta 90.000000
_cell_angle_gamma 90.000000
_cell_volume 2348.632093
_symmetry_space_group_name_H-M "I 21 21 21"
_symmetry_group_IT_number 24
_symmetry_cell_setting 'orthorhombic'
loop_
_space_group_symop_operation_xyz
x,y,z
-x,1/2-y,z
x,-y,1/2-z
1/2-x,y,-z
1/2+x,1/2+y,1/2+z
1/2-x,-y,1/2+z
1/2+x,1/2-y,-z
-x,1/2+y,1/2-z
loop_
_atom_site_type_symbol
_atom_site_label
_atom_site_fract_x
_atom_site_fract_y
_atom_site_fract_z
Si Si1 0.048878 0.339885 0.751553
Si Si2 0.946220 0.396710 0.500896
Si Si3 0.504994 0.149101 0.948828
Si Si4 0.606705 0.913973 0.805373
Si Si5 0.830697 0.461912 0.092957
Si Si6 0.343658 0.727662 0.013015
O O1 0.133754 0.312954 0.662758
O O2 0.000000 0.250000 0.764054
O O3 0.992709 0.396539 0.647895
O O4 0.044934 0.378907 0.903255
O O5 0.864932 0.457201 0.491863
O O6 0.914846 0.299710 0.476866
O O7 0.017113 0.430104 0.391171
O O8 0.500000 0.250000 0.951447
O O9 0.574050 0.130038 0.831744
O O10 0.411866 0.104991 0.912941
O O11 0.655930 0.849278 0.904243
O O12 0.649662 0.000000 0.750000
O O13 0.814865 0.500000 0.250000
O O14 0.750000 0.428272 0.000000
O O15 0.250000 0.769209 0.000000
#
# Coordination Sequence:
#
# PCOD9333306 Si02
#       6
#     8   8   8   8   8   8
#     4   8  19  35  60  87 116 162 213 247 302 382
#     4  10  18  40  63  91 122 163 208 253 315 392
#     4  11  21  41  61  86 126 169 211 251 312 393
#     4  11  20  39  64  86 119 163 216 251 306 387
#     4  12  26  41  62 102 135 163 205 267 336 379
#     4  10  21  39  63  91 122 163 215 269 314 365
#
# _framework density 20.437429000000002
#
# number of rings (size 3 to 8) (size 9 to 14) (size 15 to 20)
#    0.000    1.667    3.333    3.000    2.333    0.000 
#    3.000    2.500    0.000    0.000    0.000    0.000 
#    0.000    0.000    0.000    0.000    0.000    0.000 
#
# Total GULP energy -133660.498261 kJ/mol
# GULP energy per Si atom -5569.187428 kJ/mol
# Density = 2.039091 g / cm^3
# Si number density = 20.437429 Si / 1000 Ang^3
#
#
#
# Elastic Constant Matrix: (Units=GPa)
#
#
# Indices 1 2 3 4 5 6 
#
# 1 56.1243 2.3360 6.3942 0.0000 0.0000 0.0000
# 2 2.3360 75.5209 5.3844 0.0000 0.0000 0.0000
# 3 6.3942 5.3844 138.6714 0.0000 0.0000 0.0000
# 4 0.0000 0.0000 0.0000 18.7593 0.0000 0.0000
# 5 0.0000 0.0000 0.0000 0.0000 0.9955 0.0000
# 6 0.0000 0.0000 0.0000 0.0000 0.0000 22.2093
#
#
#
# Elastic Compliance Matrix: (Units=1/GPa)
#
#
# Indices 1 2 3 4 5 6 
#
# 1 0.017930 -0.000497 -0.000807 0.000000 0.000000 0.000000
# 2 -0.000497 0.013292 -0.000493 0.000000 0.000000 0.000000
# 3 -0.000807 -0.000493 0.007268 0.000000 0.000000 0.000000
# 4 0.000000 0.000000 0.000000 0.053307 0.000000 0.000000
# 5 0.000000 0.000000 0.000000 0.000000 1.004530 0.000000
# 6 0.000000 0.000000 0.000000 0.000000 0.000000 0.045026
#
#
# Mechanical properties :
#
#
# Convention : Reuss Voigt Hill
#
# Bulk Modulus (GPa) = 28.65787 33.17177 30.91482
# Shear Modulus (GPa) = 4.32309 25.47294 14.89802
#
# Velocity S-wave (km/s) = 1.45598 3.53425 2.70285
# Velocity P-wave (km/s) = 4.10843 5.73766 4.98998
#
# Compressibility (1/GPa) = 0.03489442
#
# Stress axis : x y z
#
# Youngs Moduli (GPa) = 55.77157 75.23380 137.59557
#
# Poissons Ratio (x) = 0.03740 0.11110
# Poissons Ratio (y) = 0.02772 0.06786
# Poissons Ratio (z) = 0.04503 0.03710
#
# Static dielectric constant tensor:
#      x y z
#    x 1.748940 0.000000 0.000000 
#    y 0.000000 1.863170 0.000000 
#    z 0.000000 0.000000 1.795280 
# 
# From -- ./inp_files/14194.got.cif
#   From: 2010.05.17/outbox.cif.g08.bks.cpg/sg24_8_cif.got.tgz:14194.got - 2010.06.04 00:33:39.
