data_PCOD9333710
_publ_section_title
;
Structure prediction by ZEFSAII (Michael W. Deem and Ramdas Pophale) SiO2 
 PCOD9333710
Probable space group: I 21 21 21
;
_chemical_formula_sum "Si O2"
_cell_formula_units_Z 48
_cell_length_a 13.789420
_cell_length_b 15.853489
_cell_length_c 10.397891
_cell_angle_alpha 90.000000
_cell_angle_beta 90.000000
_cell_angle_gamma 90.000000
_cell_volume 2273.087301
_symmetry_space_group_name_H-M "I 21 21 21"
_symmetry_group_IT_number 24
_symmetry_cell_setting 'orthorhombic'
loop_
_space_group_symop_operation_xyz
x,y,z
-x,1/2-y,z
x,-y,1/2-z
1/2-x,y,-z
1/2+x,1/2+y,1/2+z
1/2-x,-y,1/2+z
1/2+x,1/2-y,-z
-x,1/2+y,1/2-z
loop_
_atom_site_type_symbol
_atom_site_label
_atom_site_fract_x
_atom_site_fract_y
_atom_site_fract_z
Si Si1 0.572081 0.317188 0.660827
Si Si2 0.942920 0.830357 0.708559
Si Si3 0.762322 0.774266 0.299076
Si Si4 0.591067 0.498642 0.534910
Si Si5 0.944443 0.868684 0.409719
Si Si6 0.250000 0.869190 0.500000
Si Si7 0.948069 0.500000 0.750000
O O1 0.500000 0.250000 0.592232
O O2 0.671922 0.270449 0.692913
O O3 0.594597 0.406037 0.593736
O O4 0.514917 0.336269 0.795671
O O5 0.831256 0.823690 0.745405
O O6 0.955428 0.832000 0.553007
O O7 0.000000 0.750000 0.759345
O O8 0.987763 0.916853 0.754654
O O9 0.836760 0.839098 0.369391
O O10 0.720558 0.698359 0.389687
O O11 0.484369 0.536110 0.569705
O O12 0.670309 0.570714 0.567980
O O13 0.609141 0.497864 0.382141
#
# Coordination Sequence:
#
# PCOD9333710 Si02
#       7
#     8   8   8   8   8   4   4
#     4  10  22  40  64  94 129 165 214 263 334 380
#     4  11  21  39  63  90 129 167 213 261 317 386
#     4  11  20  36  66 101 121 164 209 268 326 379
#     4  11  24  41  60  92 129 168 211 271 319 388
#     4  10  19  36  64  94 124 157 208 265 318 376
#     4  12  22  34  68  98 124 152 214 264 324 378
#     4  10  26  42  60  88 126 176 218 248 322 396
#
# _framework density 21.116655999999999
#
# number of rings (size 3 to 8) (size 9 to 14) (size 15 to 20)
#    0.000    1.333    3.333    4.000    0.000    3.333 
#    6.000    0.000    0.000    0.000    0.000    0.000 
#    0.000    0.000    0.000    0.000    0.000    0.000 
#
# Total GULP energy -133797.764976 kJ/mol
# GULP energy per Si atom -5574.906874 kJ/mol
# Density = 2.106859 g / cm^3
# Si number density = 21.116656 Si / 1000 Ang^3
#
#
#
# Elastic Constant Matrix: (Units=GPa)
#
#
# Indices 1 2 3 4 5 6 
#
# 1 59.3729 20.6242 -2.0046 0.0000 0.0000 0.0000
# 2 20.6242 85.9826 8.0489 0.0000 0.0000 0.0000
# 3 -2.0046 8.0489 32.7604 0.0000 0.0000 0.0000
# 4 0.0000 0.0000 0.0000 26.1732 0.0000 0.0000
# 5 0.0000 0.0000 0.0000 0.0000 24.0875 0.0000
# 6 0.0000 0.0000 0.0000 0.0000 0.0000 8.9705
#
#
#
# Elastic Compliance Matrix: (Units=1/GPa)
#
#
# Indices 1 2 3 4 5 6 
#
# 1 0.018538 -0.004660 0.002279 0.000000 0.000000 0.000000
# 2 -0.004660 0.013075 -0.003498 0.000000 0.000000 0.000000
# 3 0.002279 -0.003498 0.031523 0.000000 0.000000 0.000000
# 4 0.000000 0.000000 0.000000 0.038207 0.000000 0.000000
# 5 0.000000 0.000000 0.000000 0.000000 0.041515 0.000000
# 6 0.000000 0.000000 0.000000 0.000000 0.000000 0.111476
#
#
# Mechanical properties :
#
#
# Convention : Reuss Voigt Hill
#
# Bulk Modulus (GPa) = 19.46267 25.71700 22.58983
# Shear Modulus (GPa) = 17.65417 21.94275 19.79846
#
# Velocity S-wave (km/s) = 2.89456 3.22704 3.06531
# Velocity P-wave (km/s) = 4.51752 5.10784 4.82172
#
# Compressibility (1/GPa) = 0.05138042
#
# Stress axis : x y z
#
# Youngs Moduli (GPa) = 53.94207 76.47911 31.72244
#
# Poissons Ratio (x) = 0.35640 -0.07230
# Poissons Ratio (y) = 0.25137 0.11095
# Poissons Ratio (z) = -0.12295 0.26750
#
# Static dielectric constant tensor:
#      x y z
#    x 1.771110 0.000000 0.000000 
#    y 0.000000 1.760110 0.000000 
#    z 0.000000 0.000000 1.802150 
# 
# From -- ./inp_files/20764.got.cif
#   From: 2010.05.17/outbox.cif.g08.bks.cpg/sg24_11_cif.got.tgz:20764.got - 2010.06.04 00:33:39.
