data_PCOD9333264
_publ_section_title
;
Structure prediction by ZEFSAII (Michael W. Deem and Ramdas Pophale) SiO2 
 PCOD9333264
Probable space group: I 21 21 21
;
_chemical_formula_sum "Si O2"
_cell_formula_units_Z 48
_cell_length_a 12.475549
_cell_length_b 17.822057
_cell_length_c 10.891285
_cell_angle_alpha 90.000000
_cell_angle_beta 90.000000
_cell_angle_gamma 90.000000
_cell_volume 2421.567712
_symmetry_space_group_name_H-M "I 21 21 21"
_symmetry_group_IT_number 24
_symmetry_cell_setting 'orthorhombic'
loop_
_space_group_symop_operation_xyz
x,y,z
-x,1/2-y,z
x,-y,1/2-z
1/2-x,y,-z
1/2+x,1/2+y,1/2+z
1/2-x,-y,1/2+z
1/2+x,1/2-y,-z
-x,1/2+y,1/2-z
loop_
_atom_site_type_symbol
_atom_site_label
_atom_site_fract_x
_atom_site_fract_y
_atom_site_fract_z
Si Si1 0.588156 0.438803 0.411258
Si Si2 0.153021 0.438770 0.358555
Si Si3 0.879471 0.089319 0.721635
Si Si4 0.319571 0.924189 0.817091
Si Si5 0.993029 0.338444 0.211710
Si Si6 0.058259 0.567367 0.525611
O O1 0.486361 0.393893 0.356090
O O2 0.692345 0.426994 0.328684
O O3 0.629348 0.419774 0.547418
O O4 0.547905 0.525369 0.422196
O O5 0.153845 0.500000 0.250000
O O6 0.268325 0.397706 0.349022
O O7 0.063785 0.378000 0.319819
O O8 0.124444 0.494357 0.472474
O O9 0.882934 0.000000 0.750000
O O10 0.886191 0.114049 0.864239
O O11 0.369792 0.858701 0.737671
O O12 0.358069 0.000000 0.750000
O O13 0.031600 0.379024 0.087352
O O14 0.000000 0.250000 0.207871
#
# Coordination Sequence:
#
# PCOD9333264 Si02
#       6
#     8   8   8   8   8   8
#     4  10  20  33  63  91 115 147 199 260 305 337
#     4   9  18  34  57  85 112 148 193 248 289 349
#     4   9  19  32  57  93 119 138 184 254 302 349
#     4  11  19  37  61  87 117 151 205 256 296 359
#     4  11  22  37  60  84 120 165 200 242 304 373
#     4  10  18  38  60  93 115 153 200 253 303 350
#
# _framework density 19.821869
#
# number of rings (size 3 to 8) (size 9 to 14) (size 15 to 20)
#    0.000    2.000    3.333    2.000    0.000   10.667 
#    0.000    0.000   22.000    0.000    0.000    0.000 
#    0.000    0.000    0.000    0.000    0.000    0.000 
#
# Total GULP energy -133627.236470 kJ/mol
# GULP energy per Si atom -5567.801520 kJ/mol
# Density = 1.977675 g / cm^3
# Si number density = 19.821869 Si / 1000 Ang^3
#
#
#
# Elastic Constant Matrix: (Units=GPa)
#
#
# Indices 1 2 3 4 5 6 
#
# 1 156.1327 44.3884 58.3783 0.0000 0.0000 0.0000
# 2 44.3884 81.0635 22.0981 0.0000 0.0000 0.0000
# 3 58.3783 22.0981 109.2167 0.0001 0.0000 0.0000
# 4 0.0000 0.0000 0.0001 7.0342 0.0000 0.0000
# 5 0.0000 0.0000 0.0000 0.0000 18.3718 0.0000
# 6 0.0000 0.0000 0.0000 0.0000 0.0000 0.5387
#
#
#
# Elastic Compliance Matrix: (Units=1/GPa)
#
#
# Indices 1 2 3 4 5 6 
#
# 1 0.009003 -0.003829 -0.004038 0.000000 0.000000 0.000000
# 2 -0.003829 0.014685 -0.000924 0.000000 0.000000 0.000000
# 3 -0.004038 -0.000924 0.011501 0.000000 0.000000 0.000000
# 4 0.000000 0.000000 0.000000 0.142163 0.000000 0.000000
# 5 0.000000 0.000000 0.000000 0.000000 0.054431 0.000000
# 6 0.000000 0.000000 0.000000 0.000000 0.000000 1.856304
#
#
# Mechanical properties :
#
#
# Convention : Reuss Voigt Hill
#
# Bulk Modulus (GPa) = 56.79626 66.23807 61.51716
# Shear Modulus (GPa) = 2.36794 19.95881 11.16338
#
# Velocity S-wave (km/s) = 1.09417 3.17662 2.37573
# Velocity P-wave (km/s) = 5.50562 6.85155 6.21513
#
# Compressibility (1/GPa) = 0.01760679
#
# Stress axis : x y z
#
# Youngs Moduli (GPa) = 111.07292 68.09765 86.94682
#
# Poissons Ratio (x) = 0.26076 0.35105
# Poissons Ratio (y) = 0.42532 0.08038
# Poissons Ratio (z) = 0.44846 0.06295
#
# Static dielectric constant tensor:
#      x y z
#    x 1.802560 0.000000 0.000000 
#    y 0.000000 1.649930 0.000000 
#    z 0.000000 0.000000 1.862510 
# 
# From -- ./inp_files/19685.got.cif
#   From: 2010.05.17/outbox.cif.g08.bks.cpg/sg24_10_cif.got.tgz:19685.got - 2010.06.04 00:33:39.
