data_PCOD9333379
_publ_section_title
;
Structure prediction by ZEFSAII (Michael W. Deem and Ramdas Pophale) SiO2 
 PCOD9333379
Probable space group: I 21 21 21
;
_chemical_formula_sum "Si O2"
_cell_formula_units_Z 48
_cell_length_a 10.319579
_cell_length_b 24.002810
_cell_length_c 10.019028
_cell_angle_alpha 90.000000
_cell_angle_beta 90.000000
_cell_angle_gamma 90.000000
_cell_volume 2481.702155
_symmetry_space_group_name_H-M "I 21 21 21"
_symmetry_group_IT_number 24
_symmetry_cell_setting 'orthorhombic'
loop_
_space_group_symop_operation_xyz
x,y,z
-x,1/2-y,z
x,-y,1/2-z
1/2-x,y,-z
1/2+x,1/2+y,1/2+z
1/2-x,-y,1/2+z
1/2+x,1/2-y,-z
-x,1/2+y,1/2-z
loop_
_atom_site_type_symbol
_atom_site_label
_atom_site_fract_x
_atom_site_fract_y
_atom_site_fract_z
Si Si1 0.750000 0.150306 0.000000
Si Si2 0.953336 0.946615 0.508243
Si Si3 0.106286 0.298501 0.246886
Si Si4 0.038811 0.569073 0.944770
Si Si5 0.448662 0.911753 0.763887
Si Si6 0.750000 0.163097 0.500000
Si Si7 0.831147 0.562987 0.715459
O O1 0.637559 0.106087 0.042041
O O2 0.696810 0.189083 0.881147
O O3 0.977720 0.947185 0.349737
O O4 0.092637 0.937304 0.577036
O O5 0.903321 0.006102 0.564374
O O6 0.193275 0.299019 0.381034
O O7 0.000000 0.250000 0.233424
O O8 0.021833 0.353827 0.261291
O O9 0.141052 0.619318 0.947561
O O10 0.937686 0.578063 0.826246
O O11 0.962687 0.567244 0.085355
O O12 0.299864 0.903143 0.724449
O O13 0.788817 0.500000 0.750000
#
# Coordination Sequence:
#
# PCOD9333379 Si02
#       7
#     4   8   8   8   8   4   8
#     4  10  21  40  62  82 118 144 197 246 288 348
#     4  10  19  32  55  85 118 154 184 224 284 347
#     4  10  23  45  60  84 110 149 197 252 294 334
#     4  10  19  32  55  85 118 154 184 224 284 347
#     4  10  20  34  54  78 118 151 189 231 280 339
#     4  10  21  40  62  82 118 144 197 246 288 348
#     4  10  19  31  49  83 122 151 184 221 272 346
#
# _framework density 19.341564000000002
#
# number of rings (size 3 to 8) (size 9 to 14) (size 15 to 20)
#    0.000    2.000    0.000    4.000    0.000    2.667 
#   12.000    5.833    0.000    0.000    0.000    0.000 
#    0.000    0.000    0.000    0.000    0.000    0.000 
#
# Total GULP energy -133855.485637 kJ/mol
# GULP energy per Si atom -5577.311902 kJ/mol
# Density = 1.929754 g / cm^3
# Si number density = 19.341564 Si / 1000 Ang^3
#
#
#
# Elastic Constant Matrix: (Units=GPa)
#
#
# Indices 1 2 3 4 5 6 
#
# 1 68.2470 10.6160 33.7004 0.0000 0.0000 0.0004
# 2 10.6160 41.9060 38.2206 0.0001 0.0001 0.0003
# 3 33.7004 38.2206 105.1956 -0.0006 0.0009 0.0009
# 4 0.0000 0.0001 -0.0006 14.7172 0.0001 -0.0001
# 5 0.0000 0.0001 0.0009 0.0001 29.1868 0.0005
# 6 0.0004 0.0003 0.0009 -0.0001 0.0005 13.2342
#
#
#
# Elastic Compliance Matrix: (Units=1/GPa)
#
#
# Indices 1 2 3 4 5 6 
#
# 1 0.017435 0.001013 -0.005954 0.000000 0.000000 0.000000
# 2 0.001013 0.035749 -0.013313 -0.000001 0.000000 0.000000
# 3 -0.005954 -0.013313 0.016250 0.000001 0.000000 -0.000001
# 4 0.000000 -0.000001 0.000001 0.067948 0.000000 0.000000
# 5 0.000000 0.000000 0.000000 0.000000 0.034262 -0.000001
# 6 0.000000 0.000000 -0.000001 0.000000 -0.000001 0.075562
#
#
# Mechanical properties :
#
#
# Convention : Reuss Voigt Hill
#
# Bulk Modulus (GPa) = 30.37019 42.26915 36.31967
# Shear Modulus (GPa) = 16.96711 20.28174 18.62443
#
# Velocity S-wave (km/s) = 2.96503 3.24174 3.10647
# Velocity P-wave (km/s) = 5.24004 5.99277 5.62900
#
# Compressibility (1/GPa) = 0.03292702
#
# Stress axis : x y z
#
# Youngs Moduli (GPa) = 57.35614 27.97319 61.53697
#
# Poissons Ratio (x) = -0.02834 0.36636
# Poissons Ratio (y) = -0.05811 0.81924
# Poissons Ratio (z) = 0.34147 0.37241
#
# Static dielectric constant tensor:
#      x y z
#    x 1.690040 0.000000 0.000000 
#    y 0.000000 1.679070 0.000000 
#    z 0.000000 0.000000 1.716350 
# 
# From -- ./inp_files/11333.got.cif
#   From: 2010.05.17/outbox.cif.g08.bks.cpg/sg24_6_cif.got.tgz:11333.got - 2010.06.04 00:33:39.
