data_PCOD9333147
_publ_section_title
;
Structure prediction by ZEFSAII (Michael W. Deem and Ramdas Pophale) SiO2 
 PCOD9333147
Probable space group: I 21 21 21
;
_chemical_formula_sum "Si O2"
_cell_formula_units_Z 48
_cell_length_a 10.499232
_cell_length_b 16.889168
_cell_length_c 12.043253
_cell_angle_alpha 90.000000
_cell_angle_beta 90.000000
_cell_angle_gamma 90.000000
_cell_volume 2135.549282
_symmetry_space_group_name_H-M "I 21 21 21"
_symmetry_group_IT_number 24
_symmetry_cell_setting 'orthorhombic'
loop_
_space_group_symop_operation_xyz
x,y,z
-x,1/2-y,z
x,-y,1/2-z
1/2-x,y,-z
1/2+x,1/2+y,1/2+z
1/2-x,-y,1/2+z
1/2+x,1/2-y,-z
-x,1/2+y,1/2-z
loop_
_atom_site_type_symbol
_atom_site_label
_atom_site_fract_x
_atom_site_fract_y
_atom_site_fract_z
Si Si1 0.109008 0.359185 0.454685
Si Si2 0.645988 0.650211 0.591567
Si Si3 0.527330 0.000000 0.250000
Si Si4 0.317864 0.867406 0.222521
Si Si5 0.000000 0.750000 0.236497
Si Si6 0.500000 0.250000 0.358451
Si Si7 0.517211 0.978869 0.491708
Si Si8 0.750000 0.431800 0.500000
O O1 0.250000 0.343530 0.500000
O O2 0.066074 0.313704 0.344408
O O3 0.025624 0.322217 0.555770
O O4 0.088613 0.453178 0.439384
O O5 0.750000 0.675330 0.500000
O O6 0.731666 0.599784 0.677166
O O7 0.603346 0.715948 0.678702
O O8 0.521564 0.606191 0.542194
O O9 0.439545 0.075911 0.270470
O O10 0.585469 0.980216 0.370927
O O11 0.381608 0.779980 0.216208
O O12 0.239282 0.878762 0.109525
O O13 0.374131 0.015092 0.484260
#
# Coordination Sequence:
#
# PCOD9333147 Si02
#       8
#     8   8   4   8   4   4   8   4
#     4  11  24  44  67 103 143 182 232 287 361 424
#     4  12  24  44  67  99 138 186 238 293 355 419
#     4  10  18  38  60  98 128 164 228 290 338 408
#     4  11  21  35  64  97 132 175 225 290 353 407
#     4  11  28  45  68 104 146 193 239 290 356 434
#     4  11  22  37  64  98 132 179 227 286 342 416
#     4  11  21  41  68 102 134 175 236 296 347 419
#     4  10  18  34  62 102 128 164 222 300 342 396
#
# _framework density 22.476652000000001
#
# number of rings (size 3 to 8) (size 9 to 14) (size 15 to 20)
#    0.000    1.000    5.833    3.000    3.500    2.667 
#    0.000    2.500    0.000    0.000    0.000    0.000 
#    0.000    0.000    0.000    0.000    0.000    0.000 
#
# Total GULP energy -133720.010569 kJ/mol
# GULP energy per Si atom -5571.667107 kJ/mol
# Density = 2.242549 g / cm^3
# Si number density = 22.476652 Si / 1000 Ang^3
#
#
#
# Elastic Constant Matrix: (Units=GPa)
#
#
# Indices 1 2 3 4 5 6 
#
# 1 44.5059 13.5868 29.5121 0.0000 0.0000 0.0000
# 2 13.5868 59.2317 43.7472 0.0002 -0.0001 -0.0001
# 3 29.5121 43.7472 150.2663 0.0004 -0.0002 -0.0001
# 4 0.0000 0.0002 0.0004 36.6727 -0.0001 -0.0001
# 5 0.0000 -0.0001 -0.0002 -0.0001 24.2348 0.0000
# 6 0.0000 -0.0001 -0.0001 -0.0001 0.0000 10.4801
#
#
#
# Elastic Compliance Matrix: (Units=1/GPa)
#
#
# Indices 1 2 3 4 5 6 
#
# 1 0.026196 -0.002814 -0.004326 0.000000 0.000000 0.000000
# 2 -0.002814 0.021810 -0.005797 0.000000 0.000000 0.000000
# 3 -0.004326 -0.005797 0.009192 0.000000 0.000000 0.000000
# 4 0.000000 0.000000 0.000000 0.027268 0.000000 0.000000
# 5 0.000000 0.000000 0.000000 0.000000 0.041263 0.000000
# 6 0.000000 0.000000 0.000000 0.000000 0.000000 0.095419
#
#
# Mechanical properties :
#
#
# Convention : Reuss Voigt Hill
#
# Bulk Modulus (GPa) = 31.92348 47.52180 39.72264
# Shear Modulus (GPa) = 19.42024 25.42137 22.42080
#
# Velocity S-wave (km/s) = 2.94261 3.36670 3.16177
# Velocity P-wave (km/s) = 5.07731 6.02508 5.57138
#
# Compressibility (1/GPa) = 0.03132491
#
# Stress axis : x y z
#
# Youngs Moduli (GPa) = 38.17311 45.85104 108.78999
#
# Poissons Ratio (x) = 0.12904 0.47059
# Poissons Ratio (y) = 0.10743 0.63063
# Poissons Ratio (z) = 0.16512 0.26579
#
# Static dielectric constant tensor:
#      x y z
#    x 2.294490 0.000000 0.000000 
#    y 0.000000 2.002550 0.000000 
#    z 0.000000 0.000000 1.911750 
# 
# From -- ./inp_files/19775.got.cif
#   From: 2010.05.17/outbox.cif.g08.bks.cpg/sg24_10_cif.got.tgz:19775.got - 2010.06.04 00:33:39.
