data_PCOD9333508
_publ_section_title
;
Structure prediction by ZEFSAII (Michael W. Deem and Ramdas Pophale) SiO2 
 PCOD9333508
Probable space group: I 21 21 21
;
_chemical_formula_sum "Si O2"
_cell_formula_units_Z 48
_cell_length_a 29.655182
_cell_length_b 5.111386
_cell_length_c 16.423344
_cell_angle_alpha 90.000000
_cell_angle_beta 90.000000
_cell_angle_gamma 90.000000
_cell_volume 2489.435409
_symmetry_space_group_name_H-M "I 21 21 21"
_symmetry_group_IT_number 24
_symmetry_cell_setting 'orthorhombic'
loop_
_space_group_symop_operation_xyz
x,y,z
-x,1/2-y,z
x,-y,1/2-z
1/2-x,y,-z
1/2+x,1/2+y,1/2+z
1/2-x,-y,1/2+z
1/2+x,1/2-y,-z
-x,1/2+y,1/2-z
loop_
_atom_site_type_symbol
_atom_site_label
_atom_site_fract_x
_atom_site_fract_y
_atom_site_fract_z
Si Si1 0.845156 0.308998 0.654939
Si Si2 0.550069 0.701832 0.402145
Si Si3 0.358009 0.313907 0.043489
Si Si4 0.555765 0.204287 0.294807
Si Si5 0.780390 0.153694 0.075658
Si Si6 0.256466 0.846096 0.826465
O O1 0.945160 0.406233 0.626781
O O2 0.847597 0.088534 0.585467
O O3 0.888381 0.260157 0.712215
O O4 0.795785 0.282969 0.693849
O O5 0.500000 0.750000 0.430691
O O6 0.653164 0.586824 0.391279
O O7 0.556393 0.883300 0.317680
O O8 0.329491 0.292535 0.961856
O O9 0.411861 0.288975 0.036532
O O10 0.500000 0.250000 0.280746
O O11 0.759662 0.428560 0.104998
O O12 0.778297 0.923763 0.142558
O O13 0.750000 0.057329 0.000000
O O14 0.277440 0.000000 0.750000
#
# Coordination Sequence:
#
# PCOD9333508 Si02
#       6
#     8   8   8   8   8   8
#     4  10  19  34  50  74 103 139 183 227 262 306
#     4  10  21  36  52  73  99 131 176 239 278 314
#     4  10  20  34  56  77  98 137 187 224 266 321
#     4  10  21  33  50  70 100 140 182 220 274 324
#     4  12  21  37  59  78 108 149 190 224 269 334
#     4  12  24  35  53  83 115 145 183 233 274 316
#
# _framework density 19.281482
#
# number of rings (size 3 to 8) (size 9 to 14) (size 15 to 20)
#    0.000    1.333    3.333    3.000    0.000    6.667 
#    0.000    0.000    0.000    1.000    0.000    0.000 
#    0.000    2.667    0.000    0.167    0.000    0.000 
#
# Total GULP energy -133666.528907 kJ/mol
# GULP energy per Si atom -5569.438704 kJ/mol
# Density = 1.923760 g / cm^3
# Si number density = 19.281482 Si / 1000 Ang^3
#
#
#
# Elastic Constant Matrix: (Units=GPa)
#
#
# Indices 1 2 3 4 5 6 
#
# 1 168.7301 27.3843 46.4850 0.0000 0.0000 0.0000
# 2 27.3843 74.7099 10.0880 0.0000 0.0000 0.0000
# 3 46.4850 10.0880 41.0054 0.0000 0.0000 0.0000
# 4 0.0000 0.0000 0.0000 28.2599 0.0000 0.0000
# 5 0.0000 0.0000 0.0000 0.0000 -560.6946 0.0000
# 6 0.0000 0.0000 0.0000 0.0000 0.0000 20.0352
#
#
#
# Elastic Compliance Matrix: (Units=1/GPa)
#
#
# Indices 1 2 3 4 5 6 
#
# 1 0.008888 -0.001962 -0.009593 0.000000 0.000000 0.000000
# 2 -0.001962 0.014278 -0.001288 0.000000 0.000000 0.000000
# 3 -0.009593 -0.001288 0.035579 0.000000 0.000000 0.000000
# 4 0.000000 0.000000 0.000000 0.035386 0.000000 0.000000
# 5 0.000000 0.000000 0.000000 0.000000 -0.001784 0.000000
# 6 0.000000 0.000000 0.000000 0.000000 0.000000 0.049912
#
#
# Mechanical properties :
#
#
# Convention : Reuss Voigt Hill
#
# Bulk Modulus (GPa) = 30.24957 50.26223 40.25590
# Shear Modulus (GPa) = 27.93834 -89.11403 -30.58785
#
# Velocity S-wave (km/s) = 3.81067 -6.80571 -3.98727
# Velocity P-wave (km/s) = 5.92318 5.96932 0.52381
#
# Compressibility (1/GPa) = 0.03305833
#
# Stress axis : x y z
#
# Youngs Moduli (GPa) = 112.51189 70.03611 28.10677
#
# Poissons Ratio (x) = 0.13745 0.26962
# Poissons Ratio (y) = 0.22080 0.03620
# Poissons Ratio (z) = 1.07931 0.09020
#
# Static dielectric constant tensor:
#      x y z
#    x 1.736030 0.000000 0.000000 
#    y 0.000000 1.834440 0.000000 
#    z 0.000000 0.000000 1.696300 
# 
# From -- ./inp_files/31509.got.cif
#   From: 2010.05.17/outbox.cif.g08.bks.cpg/sg24_16_cif.got.tgz:31509.got - 2010.06.04 00:33:39.
