data_PCOD9333579
_publ_section_title
;
Structure prediction by ZEFSAII (Michael W. Deem and Ramdas Pophale) SiO2 
 PCOD9333579
Probable space group: I 21 21 21
;
_chemical_formula_sum "Si O2"
_cell_formula_units_Z 44
_cell_length_a 27.755749
_cell_length_b 16.744949
_cell_length_c 5.024764
_cell_angle_alpha 90.000000
_cell_angle_beta 90.000000
_cell_angle_gamma 90.000000
_cell_volume 2335.352537
_symmetry_space_group_name_H-M "I 21 21 21"
_symmetry_group_IT_number 24
_symmetry_cell_setting 'orthorhombic'
loop_
_space_group_symop_operation_xyz
x,y,z
-x,1/2-y,z
x,-y,1/2-z
1/2-x,y,-z
1/2+x,1/2+y,1/2+z
1/2-x,-y,1/2+z
1/2+x,1/2-y,-z
-x,1/2+y,1/2-z
loop_
_atom_site_type_symbol
_atom_site_label
_atom_site_fract_x
_atom_site_fract_y
_atom_site_fract_z
Si Si1 0.750000 0.946126 0.000000
Si Si2 0.382266 0.196544 0.643605
Si Si3 0.942748 0.747085 0.624611
Si Si4 0.899288 0.086813 0.791606
Si Si5 0.805240 0.440979 0.497218
Si Si6 0.156996 0.634434 0.225672
O O1 0.707845 0.891813 0.885253
O O2 0.765692 0.000000 0.750000
O O3 0.414420 0.219754 0.388378
O O4 0.346683 0.125042 0.554947
O O5 0.348618 0.270219 0.743476
O O6 0.420821 0.192815 0.886594
O O7 0.929950 0.840884 0.588604
O O8 0.000000 0.750000 0.648294
O O9 0.881003 0.110125 0.500801
O O10 0.921833 0.000000 0.750000
O O11 0.855402 0.087553 0.003489
O O12 0.806600 0.500000 0.250000
O O13 0.750000 0.407035 0.500000
O O14 0.812682 0.500000 0.750000
#
# Coordination Sequence:
#
# PCOD9333579 Si02
#       6
#     4   8   8   8   8   8
#     4  12  22  32  48  76 110 142 178 222 264 304
#     4  10  21  38  60  83 114 154 189 239 291 354
#     4  10  21  38  59  85 114 150 197 244 298 347
#     4  10  19  35  54  75 105 145 186 225 276 334
#     4  10  21  38  61  89 119 157 196 245 307 364
#     4  10  21  33  52  77 106 147 183 221 267 326
#
# _framework density 18.840838000000002
#
# number of rings (size 3 to 8) (size 9 to 14) (size 15 to 20)
#    0.000    1.818    0.000    4.909    1.273    0.000 
#    0.000    2.727    0.000    2.182    0.000    0.000 
#    0.000    0.000    0.000    0.000    0.000    0.000 
#
# Total GULP energy -122561.652997 kJ/mol
# GULP energy per Si atom -5570.984227 kJ/mol
# Density = 1.879796 g / cm^3
# Si number density = 18.840838 Si / 1000 Ang^3
#
#
#
# Elastic Constant Matrix: (Units=GPa)
#
#
# Indices 1 2 3 4 5 6 
#
# 1 129.3041 58.2604 24.1983 0.0000 0.0000 0.0000
# 2 58.2604 75.8756 23.7814 0.0000 0.0000 0.0000
# 3 24.1983 23.7814 122.7103 0.0000 0.0000 0.0000
# 4 0.0000 0.0000 0.0000 53.9431 0.0000 0.0000
# 5 0.0000 0.0000 0.0000 0.0000 19.3873 0.0000
# 6 0.0000 0.0000 0.0000 0.0000 0.0000 -12.7303
#
#
#
# Elastic Compliance Matrix: (Units=1/GPa)
#
#
# Indices 1 2 3 4 5 6 
#
# 1 0.011868 -0.008921 -0.000611 0.000000 0.000000 0.000000
# 2 -0.008921 0.020737 -0.002260 0.000000 0.000000 0.000000
# 3 -0.000611 -0.002260 0.008708 0.000000 0.000000 0.000000
# 4 0.000000 0.000000 0.000000 0.018538 0.000000 0.000000
# 5 0.000000 0.000000 0.000000 0.000000 0.051580 0.000000
# 6 0.000000 0.000000 0.000000 0.000000 0.000000 -0.078553
#
#
# Mechanical properties :
#
#
# Convention : Reuss Voigt Hill
#
# Bulk Modulus (GPa) = 56.40507 60.04112 58.22309
# Shear Modulus (GPa) = 80.16477 26.89669 53.53073
#
# Velocity S-wave (km/s) = 6.52999 3.78242 5.33608
# Velocity P-wave (km/s) = 9.31971 7.14229 8.30269
#
# Compressibility (1/GPa) = 0.01772890
#
# Stress axis : x y z
#
# Youngs Moduli (GPa) = 84.26350 48.22189 114.83959
#
# Poissons Ratio (x) = 0.43018 0.07021
# Poissons Ratio (y) = 0.75169 0.25951
# Poissons Ratio (z) = 0.05152 0.10897
#
# Static dielectric constant tensor:
#      x y z
#    x 1.669400 0.000000 0.000000 
#    y 0.000000 1.679950 0.000000 
#    z 0.000000 0.000000 1.647160 
# 
# From -- ./inp_files/7058.got.cif
#   From: 2010.05.17/outbox.cif.g08.bks.cpg/sg24_4_cif.got.tgz:7058.got - 2010.06.04 00:33:39.
