data_PCOD9333364
_publ_section_title
;
Structure prediction by ZEFSAII (Michael W. Deem and Ramdas Pophale) SiO2 
 PCOD9333364
Probable space group: I 21 21 21
;
_chemical_formula_sum "Si O2"
_cell_formula_units_Z 44
_cell_length_a 14.813154
_cell_length_b 28.286787
_cell_length_c 5.372747
_cell_angle_alpha 90.000000
_cell_angle_beta 90.000000
_cell_angle_gamma 90.000000
_cell_volume 2251.269815
_symmetry_space_group_name_H-M "I 21 21 21"
_symmetry_group_IT_number 24
_symmetry_cell_setting 'orthorhombic'
loop_
_space_group_symop_operation_xyz
x,y,z
-x,1/2-y,z
x,-y,1/2-z
1/2-x,y,-z
1/2+x,1/2+y,1/2+z
1/2-x,-y,1/2+z
1/2+x,1/2-y,-z
-x,1/2+y,1/2-z
loop_
_atom_site_type_symbol
_atom_site_label
_atom_site_fract_x
_atom_site_fract_y
_atom_site_fract_z
Si Si1 0.454241 0.850379 0.413087
Si Si2 0.854320 0.853095 0.413103
Si Si3 0.848934 0.235558 0.412300
Si Si4 0.000000 0.250000 0.802518
Si Si5 0.849568 0.349106 0.406065
Si Si6 0.189679 0.449324 0.254663
O O1 0.559584 0.864356 0.414682
O O2 0.454996 0.793250 0.442063
O O3 0.394157 0.867869 0.648617
O O4 0.412375 0.859559 0.143465
O O5 0.750000 0.850674 0.500000
O O6 0.873145 0.801173 0.302768
O O7 0.858304 0.898634 0.232563
O O8 0.750000 0.220205 0.500000
O O9 0.923219 0.228837 0.623806
O O10 0.843305 0.291856 0.370708
O O11 0.750000 0.364522 0.500000
O O12 0.138538 0.500000 0.250000
O O13 0.250000 0.451297 0.500000
O O14 0.250000 0.448080 0.000000
#
# Coordination Sequence:
#
# PCOD9333364 Si02
#       6
#     8   8   8   4   8   8
#     4  11  21  34  51  72  98 134 174 214 259 304
#     4  11  21  32  52  80 110 141 178 219 260 318
#     4  10  19  31  47  68  97 136 177 214 253 299
#     4  10  20  34  48  68 102 138 174 222 264 302
#     4  10  22  37  52  69  97 135 178 221 261 298
#     4   9  19  35  53  74 105 145 180 215 264 316
#
# _framework density 19.544526000000001
#
# number of rings (size 3 to 8) (size 9 to 14) (size 15 to 20)
#    0.000    1.818    0.000    5.455    0.000    8.000 
#    0.000    0.000    0.000    0.000    0.000    0.000 
#    0.000    2.909    0.000    0.364    0.000    0.364 
#
# Total GULP energy -122477.334964 kJ/mol
# GULP energy per Si atom -5567.151589 kJ/mol
# Density = 1.950004 g / cm^3
# Si number density = 19.544526 Si / 1000 Ang^3
#
#
#
# Elastic Constant Matrix: (Units=GPa)
#
#
# Indices 1 2 3 4 5 6 
#
# 1 126.7736 2.6496 46.6841 0.0072 0.0047 0.1276
# 2 2.6496 34.1890 13.8584 0.0378 -0.0195 0.2280
# 3 46.6841 13.8584 75.2262 0.1186 -0.0074 0.9635
# 4 0.0072 0.0378 0.1186 19.5834 -0.0095 0.5559
# 5 0.0047 -0.0195 -0.0074 -0.0095 24.2916 -0.2524
# 6 0.1276 0.2280 0.9635 0.5559 -0.2524 21.8107
#
#
#
# Elastic Compliance Matrix: (Units=1/GPa)
#
#
# Indices 1 2 3 4 5 6 
#
# 1 0.010344 0.001945 -0.006781 0.000027 0.000000 0.000218
# 2 0.001945 0.031976 -0.007097 -0.000019 0.000023 -0.000031
# 3 -0.006781 -0.007097 0.018818 -0.000077 -0.000006 -0.000716
# 4 0.000027 -0.000019 -0.000077 0.051101 0.000006 -0.001299
# 5 0.000000 0.000023 -0.000006 0.000006 0.041171 0.000476
# 6 0.000218 -0.000031 -0.000716 -0.001299 0.000476 0.045918
#
#
# Mechanical properties :
#
#
# Convention : Reuss Voigt Hill
#
# Bulk Modulus (GPa) = 26.82962 40.28589 33.55775
# Shear Modulus (GPa) = 21.22080 24.67026 22.94553
#
# Velocity S-wave (km/s) = 3.29867 3.55668 3.43010
# Velocity P-wave (km/s) = 5.31654 6.12567 5.73539
#
# Compressibility (1/GPa) = 0.03727224
#
# Stress axis : x y z
#
# Youngs Moduli (GPa) = 96.67313 31.27393 53.14075
#
# Poissons Ratio (x) = -0.06084 0.36033
# Poissons Ratio (y) = -0.18806 0.37716
# Poissons Ratio (z) = 0.65550 0.22196
#
# Static dielectric constant tensor:
#      x y z
#    x 1.729180 -0.000060 0.000450 
#    y -0.000060 1.709040 -0.000170 
#    z 0.000450 -0.000170 1.538940 
# 
# From -- ./inp_files/3878.got.cif
#   From: 2010.05.17/outbox.cif.g08.bks.cpg/sg24_2_cif.got.tgz:3878.got - 2010.06.04 00:33:39.
