data_PCOD9333492
_publ_section_title
;
Structure prediction by ZEFSAII (Michael W. Deem and Ramdas Pophale) SiO2 
 PCOD9333492
Probable space group: I 21 21 21
;
_chemical_formula_sum "Si O2"
_cell_formula_units_Z 60
_cell_length_a 30.821073
_cell_length_b 5.425876
_cell_length_c 14.374479
_cell_angle_alpha 90.000000
_cell_angle_beta 90.000000
_cell_angle_gamma 90.000000
_cell_volume 2403.863102
_symmetry_space_group_name_H-M "I 21 21 21"
_symmetry_group_IT_number 24
_symmetry_cell_setting 'orthorhombic'
loop_
_space_group_symop_operation_xyz
x,y,z
-x,1/2-y,z
x,-y,1/2-z
1/2-x,y,-z
1/2+x,1/2+y,1/2+z
1/2-x,-y,1/2+z
1/2+x,1/2-y,-z
-x,1/2+y,1/2-z
loop_
_atom_site_type_symbol
_atom_site_label
_atom_site_fract_x
_atom_site_fract_y
_atom_site_fract_z
Si Si1 0.835339 0.260214 0.697940
Si Si2 0.745263 0.419120 0.612109
Si Si3 0.881695 0.927215 0.082139
Si Si4 0.453099 0.143695 0.087654
Si Si5 0.712743 0.069804 0.919687
Si Si6 0.413176 0.914716 0.610145
Si Si7 0.000000 0.750000 0.297086
Si Si8 0.076538 0.635657 0.893426
O O1 0.854085 0.500000 0.750000
O O2 0.793059 0.382159 0.651869
O O3 0.874213 0.191633 0.630715
O O4 0.824444 0.000000 0.750000
O O5 0.750000 0.417757 0.500000
O O6 0.720378 0.672276 0.632028
O O7 0.721120 0.171353 0.641311
O O8 0.885971 0.660480 0.128776
O O9 0.834865 0.008304 0.040400
O O10 0.890733 0.165644 0.143799
O O11 0.920647 0.908724 0.005350
O O12 0.500000 0.250000 0.057352
O O13 0.435710 0.370657 0.148705
O O14 0.453329 0.869785 0.129433
O O15 0.419741 0.103507 0.001815
O O16 0.750000 0.073484 0.000000
O O17 0.461576 0.892492 0.648974
O O18 0.020330 0.500000 0.250000
#
# Coordination Sequence:
#
# PCOD9333492 Si02
#       8
#     8   8   8   8   8   8   4   8
#     4  12  25  42  63  91 131 167 209 268 330 388
#     4  10  21  37  62  90 122 164 210 266 310 380
#     4  10  20  35  61  93 123 155 202 272 329 361
#     4  10  19  35  60  89 124 155 205 274 319 367
#     4  10  19  33  58  92 126 157 203 266 319 377
#     4  10  21  37  58  91 126 159 210 265 324 380
#     4  12  24  40  64  90 128 176 218 262 330 414
#     4  10  21  35  59  89 120 166 206 252 322 376
#
# _framework density 24.959824999999999
#
# number of rings (size 3 to 8) (size 9 to 14) (size 15 to 20)
#    0.000    1.600    0.667    5.200    0.000    6.400 
#    0.000    0.000    0.000   20.000    0.000    0.000 
#    0.000    0.000    0.000    0.000    0.000    0.000 
#
# Total GULP energy -167166.500097 kJ/mol
# GULP energy per Si atom -5572.216670 kJ/mol
# Density = 2.490302 g / cm^3
# Si number density = 24.959825 Si / 1000 Ang^3
#
#
#
# Elastic Constant Matrix: (Units=GPa)
#
#
# Indices 1 2 3 4 5 6 
#
# 1 100.4412 60.0287 -2.1160 0.0000 0.0000 0.0000
# 2 60.0287 300.2643 26.6697 0.0000 0.0000 0.0000
# 3 -2.1160 26.6697 37.1464 0.0000 0.0000 0.0000
# 4 0.0000 0.0000 0.0000 21.9467 0.0000 0.0000
# 5 0.0000 0.0000 0.0000 0.0000 7.6471 0.0000
# 6 0.0000 0.0000 0.0000 0.0000 0.0000 40.3225
#
#
#
# Elastic Compliance Matrix: (Units=1/GPa)
#
#
# Indices 1 2 3 4 5 6 
#
# 1 0.011515 -0.002521 0.002466 0.000000 0.000000 0.000000
# 2 -0.002521 0.004109 -0.003094 0.000000 0.000000 0.000000
# 3 0.002466 -0.003094 0.029282 0.000000 0.000000 0.000000
# 4 0.000000 0.000000 0.000000 0.045565 0.000000 0.000000
# 5 0.000000 0.000000 0.000000 0.000000 0.130768 0.000000
# 6 0.000000 0.000000 0.000000 0.000000 0.000000 0.024800
#
#
# Mechanical properties :
#
#
# Convention : Reuss Voigt Hill
#
# Bulk Modulus (GPa) = 25.90121 67.44630 46.67376
# Shear Modulus (GPa) = 18.85322 37.53457 28.19390
#
# Velocity S-wave (km/s) = 2.75133 3.88209 3.36456
# Velocity P-wave (km/s) = 4.52690 6.86839 5.81668
#
# Compressibility (1/GPa) = 0.03860823
#
# Stress axis : x y z
#
# Youngs Moduli (GPa) = 86.84527 243.35613 34.15040
#
# Poissons Ratio (x) = 0.61351 -0.08421
# Poissons Ratio (y) = 0.21894 0.10566
# Poissons Ratio (z) = -0.21416 0.75291
#
# Static dielectric constant tensor:
#      x y z
#    x 1.949920 0.000000 0.000000 
#    y 0.000000 1.977720 0.000000 
#    z 0.000000 0.000000 2.113690 
# 
# From -- ./inp_files/31733.got.cif
#   From: 2010.05.17/outbox.cif.g08.bks.cpg/sg24_16_cif.got.tgz:31733.got - 2010.06.04 00:33:39.
