data_PCOD9333507
_publ_section_title
;
Structure prediction by ZEFSAII (Michael W. Deem and Ramdas Pophale) SiO2 
 PCOD9333507
Probable space group: I 21 21 21
;
_chemical_formula_sum "Si O2"
_cell_formula_units_Z 60
_cell_length_a 10.097513
_cell_length_b 17.617348
_cell_length_c 17.277616
_cell_angle_alpha 90.000000
_cell_angle_beta 90.000000
_cell_angle_gamma 90.000000
_cell_volume 3073.539307
_symmetry_space_group_name_H-M "I 21 21 21"
_symmetry_group_IT_number 24
_symmetry_cell_setting 'orthorhombic'
loop_
_space_group_symop_operation_xyz
x,y,z
-x,1/2-y,z
x,-y,1/2-z
1/2-x,y,-z
1/2+x,1/2+y,1/2+z
1/2-x,-y,1/2+z
1/2+x,1/2-y,-z
-x,1/2+y,1/2-z
loop_
_atom_site_type_symbol
_atom_site_label
_atom_site_fract_x
_atom_site_fract_y
_atom_site_fract_z
Si Si1 0.430578 0.359148 0.931201
Si Si2 0.956391 0.996433 0.865387
Si Si3 0.492709 0.165896 0.101501
Si Si4 0.827388 0.934043 0.191358
Si Si5 0.215119 0.865904 0.347390
Si Si6 0.111101 0.470410 0.466776
Si Si7 0.852348 0.220178 0.217110
Si Si8 0.819165 0.500000 0.750000
O O1 0.575996 0.364422 0.891877
O O2 0.370978 0.442749 0.938672
O O3 0.349474 0.308016 0.872218
O O4 0.441144 0.328040 0.017387
O O5 0.818889 0.961293 0.835640
O O6 0.977747 0.976679 0.956328
O O7 0.949314 0.089144 0.858925
O O8 0.077573 0.967514 0.813630
O O9 0.500000 0.250000 0.137959
O O10 0.338224 0.143315 0.094944
O O11 0.917281 0.928732 0.113733
O O12 0.819880 0.852741 0.232337
O O13 0.876097 0.000000 0.250000
O O14 0.230044 0.796926 0.286113
O O15 0.231956 0.941052 0.297199
O O16 0.250000 0.440550 0.500000
O O17 0.000000 0.250000 0.235553
#
# Coordination Sequence:
#
# PCOD9333507 Si02
#       8
#     8   8   8   8   8   8   8   4
#     4  10  19  34  49  78 114 144 177 219 272 347
#     4   9  20  35  54  80 111 141 188 230 269 341
#     4  10  20  32  51  76 112 147 176 221 282 337
#     4  11  19  33  60  80 108 147 183 231 279 324
#     4  10  22  33  51  75 107 149 185 226 274 338
#     4   9  19  33  55  87 109 142 186 228 280 333
#     4  10  22  35  51  81 114 138 187 232 276 339
#     4  10  20  38  54  78 112 148 190 228 278 332
#
# _framework density 19.521467999999999
#
# number of rings (size 3 to 8) (size 9 to 14) (size 15 to 20)
#    0.000    2.133    2.000    1.600    1.867    3.200 
#    0.000    1.333    0.000    4.800    0.000    0.000 
#    0.000    0.000    0.000    0.000    0.000    0.000 
#
# Total GULP energy -167224.112670 kJ/mol
# GULP energy per Si atom -5574.137089 kJ/mol
# Density = 1.947704 g / cm^3
# Si number density = 19.521468 Si / 1000 Ang^3
#
#
#
# Elastic Constant Matrix: (Units=GPa)
#
#
# Indices 1 2 3 4 5 6 
#
# 1 29.8344 10.0314 6.7914 0.0000 0.0000 0.0000
# 2 10.0314 60.6214 15.7599 0.0000 0.0000 0.0000
# 3 6.7914 15.7599 85.7645 0.0000 0.0000 0.0000
# 4 0.0000 0.0000 0.0000 24.8008 0.0000 0.0000
# 5 0.0000 0.0000 0.0000 0.0000 11.7438 0.0000
# 6 0.0000 0.0000 0.0000 0.0000 0.0000 23.8607
#
#
#
# Elastic Compliance Matrix: (Units=1/GPa)
#
#
# Indices 1 2 3 4 5 6 
#
# 1 0.035765 -0.005442 -0.001832 0.000000 0.000000 0.000000
# 2 -0.005442 0.018151 -0.002905 0.000000 0.000000 0.000000
# 3 -0.001832 -0.002905 0.012339 0.000000 0.000000 0.000000
# 4 0.000000 0.000000 0.000000 0.040321 0.000000 0.000000
# 5 0.000000 0.000000 0.000000 0.000000 0.085151 0.000000
# 6 0.000000 0.000000 0.000000 0.000000 0.000000 0.041910
#
#
# Mechanical properties :
#
#
# Convention : Reuss Voigt Hill
#
# Bulk Modulus (GPa) = 21.78742 26.82061 24.30401
# Shear Modulus (GPa) = 18.56706 21.65691 20.11199
#
# Velocity S-wave (km/s) = 3.08735 3.33436 3.21323
# Velocity P-wave (km/s) = 4.88815 5.34723 5.12283
#
# Compressibility (1/GPa) = 0.04589805
#
# Stress axis : x y z
#
# Youngs Moduli (GPa) = 27.96011 55.09198 81.04614
#
# Poissons Ratio (x) = 0.29981 0.14848
# Poissons Ratio (y) = 0.15216 0.23540
# Poissons Ratio (z) = 0.05123 0.16002
#
# Static dielectric constant tensor:
#      x y z
#    x 1.745590 0.000000 0.000000 
#    y 0.000000 1.707690 0.000000 
#    z 0.000000 0.000000 1.727220 
# 
# From -- ./inp_files/21024.got.cif
#   From: 2010.05.17/outbox.cif.g08.bks.cpg/sg24_11_cif.got.tgz:21024.got - 2010.06.04 00:33:39.
