data_PCOD9333097
_publ_section_title
;
Structure prediction by ZEFSAII (Michael W. Deem and Ramdas Pophale) SiO2 
 PCOD9333097
Probable space group: I 21 21 21
;
_chemical_formula_sum "Si O2"
_cell_formula_units_Z 64
_cell_length_a 7.933775
_cell_length_b 21.555765
_cell_length_c 18.942516
_cell_angle_alpha 90.000000
_cell_angle_beta 90.000000
_cell_angle_gamma 90.000000
_cell_volume 3239.522367
_symmetry_space_group_name_H-M "I 21 21 21"
_symmetry_group_IT_number 24
_symmetry_cell_setting 'orthorhombic'
loop_
_space_group_symop_operation_xyz
x,y,z
-x,1/2-y,z
x,-y,1/2-z
1/2-x,y,-z
1/2+x,1/2+y,1/2+z
1/2-x,-y,1/2+z
1/2+x,1/2-y,-z
-x,1/2+y,1/2-z
loop_
_atom_site_type_symbol
_atom_site_label
_atom_site_fract_x
_atom_site_fract_y
_atom_site_fract_z
Si Si1 0.300861 0.230059 0.729607
Si Si2 0.427689 0.900612 0.742568
Si Si3 0.314584 0.357903 0.245305
Si Si4 0.821163 0.282148 0.426452
Si Si5 0.336007 0.000477 0.863557
Si Si6 0.016035 0.092485 0.461462
Si Si7 0.343417 0.588441 0.107975
Si Si8 0.037346 0.470591 0.828214
O O1 0.500000 0.250000 0.729915
O O2 0.309555 0.160194 0.758557
O O3 0.199111 0.284646 0.767957
O O4 0.235665 0.228884 0.648616
O O5 0.621181 0.881542 0.754580
O O6 0.364948 0.945574 0.805466
O O7 0.423605 0.939885 0.670904
O O8 0.391956 0.373037 0.322477
O O9 0.401941 0.400959 0.186714
O O10 0.750000 0.257160 0.500000
O O11 0.000000 0.250000 0.419329
O O12 0.856120 0.354695 0.436997
O O13 0.412303 0.972997 0.934927
O O14 0.140863 0.019340 0.865826
O O15 0.973686 0.095906 0.543991
O O16 0.839636 0.105877 0.421570
O O17 0.335303 0.516277 0.131439
O O18 0.019041 0.500000 0.750000
#
# Coordination Sequence:
#
# PCOD9333097 Si02
#       8
#     8   8   8   8   8   8   8   8
#     4   9  18  35  54  78 107 146 194 230 272 337
#     4  10  18  33  58  76 104 147 188 236 288 338
#     4  10  19  35  57  79 109 149 190 238 285 338
#     4  11  24  36  51  72 109 156 200 231 271 322
#     4  11  20  34  53  77 110 146 189 239 289 337
#     4  11  22  36  53  77 110 153 198 230 283 342
#     4  10  21  33  55  77 111 150 194 237 275 338
#     4  10  21  34  53  79 107 138 188 238 294 328
#
# _framework density 19.755998000000002
#
# number of rings (size 3 to 8) (size 9 to 14) (size 15 to 20)
#    0.000    1.750    3.750    2.250    8.750    0.000 
#    0.000    0.625    0.000    0.000    0.000    0.000 
#    0.000   20.000    0.000    0.000    0.000    0.000 
#
# Total GULP energy -178679.394789 kJ/mol
# GULP energy per Si atom -5583.731087 kJ/mol
# Density = 1.971103 g / cm^3
# Si number density = 19.755998 Si / 1000 Ang^3
#
#
#
# Elastic Constant Matrix: (Units=GPa)
#
#
# Indices 1 2 3 4 5 6 
#
# 1 50.7621 18.4264 4.9777 0.0000 0.0000 0.0000
# 2 18.4264 112.7271 15.4681 0.0000 0.0000 0.0000
# 3 4.9777 15.4681 19.1799 0.0000 0.0000 0.0000
# 4 0.0000 0.0000 0.0000 22.9709 0.0000 0.0000
# 5 0.0000 0.0000 0.0000 0.0000 23.7520 0.0000
# 6 0.0000 0.0000 0.0000 0.0000 0.0000 13.5448
#
#
#
# Elastic Compliance Matrix: (Units=1/GPa)
#
#
# Indices 1 2 3 4 5 6 
#
# 1 0.021098 -0.003033 -0.003029 0.000000 0.000000 0.000000
# 2 -0.003033 0.010411 -0.007609 0.000000 0.000000 0.000000
# 3 -0.003029 -0.007609 0.059061 0.000000 0.000000 0.000000
# 4 0.000000 0.000000 0.000000 0.043533 0.000000 0.000000
# 5 0.000000 0.000000 0.000000 0.000000 0.042102 0.000000
# 6 0.000000 0.000000 0.000000 0.000000 0.000000 0.073829
#
#
# Mechanical properties :
#
#
# Convention : Reuss Voigt Hill
#
# Bulk Modulus (GPa) = 15.81612 28.93480 22.37546
# Shear Modulus (GPa) = 16.75314 21.63999 19.19657
#
# Velocity S-wave (km/s) = 2.91521 3.31322 3.12056
# Velocity P-wave (km/s) = 4.39936 5.41428 4.93299
#
# Compressibility (1/GPa) = 0.06322662
#
# Stress axis : x y z
#
# Youngs Moduli (GPa) = 47.39839 96.05387 16.93175
#
# Poissons Ratio (x) = 0.29133 0.05129
# Poissons Ratio (y) = 0.14376 0.12883
# Poissons Ratio (z) = 0.14359 0.73087
#
# Static dielectric constant tensor:
#      x y z
#    x 1.774120 0.000000 0.000000 
#    y 0.000000 1.735030 0.000000 
#    z 0.000000 0.000000 1.706880 
# 
# From -- ./inp_files/29833.got.cif
#   From: 2010.05.17/outbox.cif.g08.bks.cpg/sg24_15_cif.got.tgz:29833.got - 2010.06.04 00:33:39.
