data_PCOD9333757
_publ_section_title
;
Structure prediction by ZEFSAII (Michael W. Deem and Ramdas Pophale) SiO2 
 PCOD9333757
Probable space group: I 21 21 21
;
_chemical_formula_sum "Si O2"
_cell_formula_units_Z 60
_cell_length_a 17.937790
_cell_length_b 9.498696
_cell_length_c 16.214651
_cell_angle_alpha 90.000000
_cell_angle_beta 90.000000
_cell_angle_gamma 90.000000
_cell_volume 2762.743268
_symmetry_space_group_name_H-M "I 21 21 21"
_symmetry_group_IT_number 24
_symmetry_cell_setting 'orthorhombic'
loop_
_space_group_symop_operation_xyz
x,y,z
-x,1/2-y,z
x,-y,1/2-z
1/2-x,y,-z
1/2+x,1/2+y,1/2+z
1/2-x,-y,1/2+z
1/2+x,1/2-y,-z
-x,1/2+y,1/2-z
loop_
_atom_site_type_symbol
_atom_site_label
_atom_site_fract_x
_atom_site_fract_y
_atom_site_fract_z
Si Si1 0.617722 0.411892 0.682244
Si Si2 0.777047 0.344013 0.739809
Si Si3 0.500000 0.250000 0.283453
Si Si4 0.340123 0.426166 0.999072
Si Si5 0.634069 0.886189 0.314672
Si Si6 0.876847 0.638014 0.905167
Si Si7 0.580469 0.807046 0.945018
Si Si8 0.162840 0.095410 0.021035
O O1 0.571786 0.500000 0.750000
O O2 0.689598 0.358985 0.733173
O O3 0.586663 0.271884 0.641384
O O4 0.640462 0.513241 0.605072
O O5 0.809560 0.500000 0.750000
O O6 0.808270 0.243367 0.809447
O O7 0.808475 0.308227 0.650512
O O8 0.556158 0.164310 0.224843
O O9 0.447393 0.160805 0.345033
O O10 0.369376 0.440945 0.093157
O O11 0.250000 0.454131 0.000000
O O12 0.391398 0.532807 0.945794
O O13 0.351027 0.262320 0.974137
O O14 0.664053 0.000000 0.250000
O O15 0.869281 0.734719 0.985561
O O16 0.877182 0.481891 0.943867
O O17 0.500000 0.750000 0.975423
O O18 0.250000 0.074671 0.000000
#
# Coordination Sequence:
#
# PCOD9333757 Si02
#       8
#     8   8   4   8   8   8   8   8
#     4  10  23  42  72  96 123 169 237 285 342 401
#     4  10  20  36  64  95 128 168 225 276 335 387
#     4  10  22  40  64  98 142 192 228 280 338 432
#     4  11  26  43  67 101 142 176 234 283 348 414
#     4  11  25  40  62  99 143 177 230 277 344 412
#     4  10  19  37  65  94 134 185 230 263 333 417
#     4  11  25  46  68  93 135 185 227 278 347 429
#     4  10  20  39  64 102 136 172 225 289 340 401
#
# _framework density 21.717545000000001
#
# number of rings (size 3 to 8) (size 9 to 14) (size 15 to 20)
#    0.000    1.600    2.000    2.400    9.333    3.200 
#    2.400    2.000    0.000    0.000    0.000    0.000 
#    0.000    0.000    0.000    0.000    0.000    0.000 
#
# Total GULP energy -167307.444890 kJ/mol
# GULP energy per Si atom -5576.914830 kJ/mol
# Density = 2.166811 g / cm^3
# Si number density = 21.717545 Si / 1000 Ang^3
#
#
#
# Elastic Constant Matrix: (Units=GPa)
#
#
# Indices 1 2 3 4 5 6 
#
# 1 44.1783 30.1623 16.3982 0.0000 0.0000 0.0000
# 2 30.1623 122.7580 30.5014 0.0000 0.0000 0.0000
# 3 16.3982 30.5014 105.5864 0.0000 0.0000 0.0000
# 4 0.0000 0.0000 0.0000 36.3159 0.0000 0.0000
# 5 0.0000 0.0000 0.0000 0.0000 13.6766 0.0000
# 6 0.0000 0.0000 0.0000 0.0000 0.0000 13.2129
#
#
#
# Elastic Compliance Matrix: (Units=1/GPa)
#
#
# Indices 1 2 3 4 5 6 
#
# 1 0.027810 -0.006205 -0.002526 0.000000 0.000000 0.000000
# 2 -0.006205 0.010161 -0.001971 0.000000 0.000000 0.000000
# 3 -0.002526 -0.001971 0.010433 0.000000 0.000000 0.000000
# 4 0.000000 0.000000 0.000000 0.027536 0.000000 0.000000
# 5 0.000000 0.000000 0.000000 0.000000 0.073117 0.000000
# 6 0.000000 0.000000 0.000000 0.000000 0.000000 0.075683
#
#
# Mechanical properties :
#
#
# Convention : Reuss Voigt Hill
#
# Bulk Modulus (GPa) = 37.04130 47.40516 42.22323
# Shear Modulus (GPa) = 19.59665 25.67183 22.63424
#
# Velocity S-wave (km/s) = 3.00716 3.44187 3.23183
# Velocity P-wave (km/s) = 5.39910 6.13765 5.78018
#
# Compressibility (1/GPa) = 0.02699689
#
# Stress axis : x y z
#
# Youngs Moduli (GPa) = 35.95841 98.41920 95.85158
#
# Poissons Ratio (x) = 0.61072 0.24217
# Poissons Ratio (y) = 0.22313 0.18897
# Poissons Ratio (z) = 0.09085 0.19403
#
# Static dielectric constant tensor:
#      x y z
#    x 1.900090 0.000000 0.000000 
#    y 0.000000 1.933950 0.000000 
#    z 0.000000 0.000000 1.883130 
# 
# From -- ./inp_files/31205.got.cif
#   From: 2010.05.17/outbox.cif.g08.bks.cpg/sg24_16_cif.got.tgz:31205.got - 2010.06.04 00:33:39.
