data_PCOD9333619
_publ_section_title
;
Structure prediction by ZEFSAII (Michael W. Deem and Ramdas Pophale) SiO2 
 PCOD9333619
Probable space group: I 21 21 21
;
_chemical_formula_sum "Si O2"
_cell_formula_units_Z 56
_cell_length_a 16.570253
_cell_length_b 18.366298
_cell_length_c 8.309373
_cell_angle_alpha 90.000000
_cell_angle_beta 90.000000
_cell_angle_gamma 90.000000
_cell_volume 2528.826422
_symmetry_space_group_name_H-M "I 21 21 21"
_symmetry_group_IT_number 24
_symmetry_cell_setting 'orthorhombic'
loop_
_space_group_symop_operation_xyz
x,y,z
-x,1/2-y,z
x,-y,1/2-z
1/2-x,y,-z
1/2+x,1/2+y,1/2+z
1/2-x,-y,1/2+z
1/2+x,1/2-y,-z
-x,1/2+y,1/2-z
loop_
_atom_site_type_symbol
_atom_site_label
_atom_site_fract_x
_atom_site_fract_y
_atom_site_fract_z
Si Si1 0.572627 0.350011 0.862668
Si Si2 0.704880 0.710042 0.830547
Si Si3 0.959266 0.820612 0.869202
Si Si4 0.403469 0.645211 0.813559
Si Si5 0.491340 0.938473 0.370939
Si Si6 0.837772 0.925272 0.471819
Si Si7 0.656848 0.239002 0.106785
O O1 0.638209 0.349565 0.720442
O O2 0.483904 0.336359 0.788930
O O3 0.561170 0.421829 0.971472
O O4 0.604106 0.287735 0.985793
O O5 0.655497 0.786126 0.837922
O O6 0.765768 0.719633 0.679224
O O7 0.750000 0.697310 0.000000
O O8 0.008487 0.864839 0.736522
O O9 0.888598 0.783812 0.769106
O O10 0.000000 0.750000 0.949008
O O11 0.931663 0.874563 0.008004
O O12 0.358931 0.582387 0.715877
O O13 0.583994 0.952060 0.429498
O O14 0.463217 0.000000 0.250000
O O15 0.750000 0.959621 0.500000
O O16 0.830939 0.839698 0.524919
#
# Coordination Sequence:
#
# PCOD9333619 Si02
#       7
#     8   8   8   8   8   8   8
#     4  11  22  38  59  85 129 177 218 262 334 396
#     4  12  22  33  53  95 141 158 204 268 346 391
#     4  11  21  35  60  91 128 156 203 274 329 388
#     4  11  22  34  55  91 132 164 202 260 327 396
#     4  10  24  42  62  86 121 173 234 268 321 397
#     4  10  19  35  59  85 127 170 212 255 331 393
#     4  11  20  33  55  93 127 161 205 260 327 400
#
# _framework density 22.144659999999998
#
# number of rings (size 3 to 8) (size 9 to 14) (size 15 to 20)
#    0.000    1.143    5.714    1.714    4.000    0.000 
#    0.000    4.286    0.000    0.000    0.000   14.000 
#    0.000    0.000    0.000    0.000    0.000    0.000 
#
# Total GULP energy -156332.596385 kJ/mol
# GULP energy per Si atom -5583.307014 kJ/mol
# Density = 2.209426 g / cm^3
# Si number density = 22.144660 Si / 1000 Ang^3
#
#
#
# Elastic Constant Matrix: (Units=GPa)
#
#
# Indices 1 2 3 4 5 6 
#
# 1 95.9003 32.4911 52.8301 0.0000 0.0000 0.0000
# 2 32.4911 50.5230 18.1532 0.0000 0.0000 0.0000
# 3 52.8301 18.1532 136.8198 0.0000 0.0000 0.0000
# 4 0.0000 0.0000 0.0000 23.8954 0.0000 0.0000
# 5 0.0000 0.0000 0.0000 0.0000 48.8516 0.0000
# 6 0.0000 0.0000 0.0000 0.0000 0.0000 4.5188
#
#
#
# Elastic Compliance Matrix: (Units=1/GPa)
#
#
# Indices 1 2 3 4 5 6 
#
# 1 0.016128 -0.008541 -0.005094 0.000000 0.000000 0.000000
# 2 -0.008541 0.025307 -0.000060 0.000000 0.000000 0.000000
# 3 -0.005094 -0.000060 0.009284 0.000000 0.000000 0.000000
# 4 0.000000 0.000000 0.000000 0.041849 0.000000 0.000000
# 5 0.000000 0.000000 0.000000 0.000000 0.020470 0.000000
# 6 0.000000 0.000000 0.000000 0.000000 0.000000 0.221298
#
#
# Mechanical properties :
#
#
# Convention : Reuss Voigt Hill
#
# Bulk Modulus (GPa) = 42.86601 54.46576 48.66589
# Shear Modulus (GPa) = 13.53173 27.43774 20.48474
#
# Velocity S-wave (km/s) = 2.47465 3.52379 3.04475
# Velocity P-wave (km/s) = 5.25019 6.41911 5.86385
#
# Compressibility (1/GPa) = 0.02332851
#
# Stress axis : x y z
#
# Youngs Moduli (GPa) = 62.00585 39.51441 107.71475
#
# Poissons Ratio (x) = 0.33750 0.54871
# Poissons Ratio (y) = 0.52960 0.00643
# Poissons Ratio (z) = 0.31586 0.00236
#
# Static dielectric constant tensor:
#      x y z
#    x 1.887990 0.000000 0.000000 
#    y 0.000000 1.805740 0.000000 
#    z 0.000000 0.000000 1.855660 
# 
# From -- ./inp_files/14554.got.cif
#   From: 2010.05.17/outbox.cif.g08.bks.cpg/sg24_8_cif.got.tgz:14554.got - 2010.06.04 00:33:39.
