data_PCOD9333006
_publ_section_title
;
Structure prediction by ZEFSAII (Michael W. Deem and Ramdas Pophale) SiO2 
 PCOD9333006
Probable space group: I 21 21 21
;
_chemical_formula_sum "Si O2"
_cell_formula_units_Z 32
_cell_length_a 7.734993
_cell_length_b 5.005977
_cell_length_c 34.821553
_cell_angle_alpha 90.000000
_cell_angle_beta 90.000000
_cell_angle_gamma 90.000000
_cell_volume 1348.332215
_symmetry_space_group_name_H-M "I 21 21 21"
_symmetry_group_IT_number 24
_symmetry_cell_setting 'orthorhombic'
loop_
_space_group_symop_operation_xyz
x,y,z
-x,1/2-y,z
x,-y,1/2-z
1/2-x,y,-z
1/2+x,1/2+y,1/2+z
1/2-x,-y,1/2+z
1/2+x,1/2-y,-z
-x,1/2+y,1/2-z
loop_
_atom_site_type_symbol
_atom_site_label
_atom_site_fract_x
_atom_site_fract_y
_atom_site_fract_z
Si Si1 0.706382 0.294010 0.173080
Si Si2 0.208614 0.303751 0.714380
Si Si3 0.810539 0.376080 0.087842
Si Si4 0.810569 0.875539 0.956497
O O1 0.500000 0.250000 0.177728
O O2 0.773170 0.506105 0.204839
O O3 0.743810 0.404394 0.131188
O O4 0.770867 0.993356 0.179455
O O5 0.247733 0.500000 0.750000
O O6 0.000000 0.250000 0.716177
O O7 0.803077 0.653610 0.065385
O O8 0.000000 0.250000 0.088768
O O9 0.697926 0.154234 0.065712
O O10 0.000000 0.750000 0.956475
O O11 0.750000 0.915688 0.000000
#
# Coordination Sequence:
#
# PCOD9333006 Si02
#       4
#     8   8   8   8
#     4  10  20  34  56  86 119 158 204 257 313 371
#     4  10  18  31  54  86 120 153 200 259 314 367
#     4  12  25  43  65  94 131 172 217 265 321 382
#     4  12  25  44  68  96 130 169 215 265 321 382
#
# _framework density 23.733024
#
# number of rings (size 3 to 8) (size 9 to 14) (size 15 to 20)
#    0.000    1.000    0.000    9.750    0.000    2.000 
#    0.000    0.000    0.000    3.000    0.000    7.000 
#    0.000    0.000    0.000    0.000    0.000    0.000 
#
# Total GULP energy -89449.435638 kJ/mol
# GULP energy per Si atom -5590.589727 kJ/mol
# Density = 2.367901 g / cm^3
# Si number density = 23.733024 Si / 1000 Ang^3
#
#
#
# Elastic Constant Matrix: (Units=GPa)
#
#
# Indices 1 2 3 4 5 6 
#
# 1 49.9870 23.1641 4.9177 0.0000 0.0000 0.0000
# 2 23.1641 151.4312 61.6815 0.0000 0.0000 0.0000
# 3 4.9177 61.6815 149.6161 0.0000 0.0000 0.0000
# 4 0.0000 0.0000 0.0000 41.7208 0.0000 0.0000
# 5 0.0000 0.0000 0.0000 0.0000 163.3458 0.0000
# 6 0.0000 0.0000 0.0000 0.0000 0.0000 15.3361
#
#
#
# Elastic Compliance Matrix: (Units=1/GPa)
#
#
# Indices 1 2 3 4 5 6 
#
# 1 0.021608 -0.003625 0.000784 0.000000 0.000000 0.000000
# 2 -0.003625 0.008544 -0.003403 0.000000 0.000000 0.000000
# 3 0.000784 -0.003403 0.008061 0.000000 0.000000 0.000000
# 4 0.000000 0.000000 0.000000 0.023969 0.000000 0.000000
# 5 0.000000 0.000000 0.000000 0.000000 0.006122 0.000000
# 6 0.000000 0.000000 0.000000 0.000000 0.000000 0.065206
#
#
# Mechanical properties :
#
#
# Convention : Reuss Voigt Hill
#
# Bulk Modulus (GPa) = 38.87230 58.95123 48.91176
# Shear Modulus (GPa) = 32.34719 61.49860 46.92289
#
# Velocity S-wave (km/s) = 3.69584 5.09597 4.45130
# Velocity P-wave (km/s) = 5.88446 7.71482 6.86095
#
# Compressibility (1/GPa) = 0.02572526
#
# Stress axis : x y z
#
# Youngs Moduli (GPa) = 46.27976 117.03557 124.05234
#
# Poissons Ratio (x) = 0.42421 -0.09727
# Poissons Ratio (y) = 0.16775 0.42220
# Poissons Ratio (z) = -0.03629 0.39832
#
# Static dielectric constant tensor:
#      x y z
#    x 1.961480 0.000000 0.000000 
#    y 0.000000 1.602270 0.000000 
#    z 0.000000 0.000000 1.904190 
# 
# From -- ./inp_files/7455.got.cif
#   From: 2010.05.17/outbox.cif.g08.bks.cpg/sg24_4_cif.got.tgz:7455.got - 2010.06.04 00:33:39.
