data_PCOD9333138
_publ_section_title
;
Structure prediction by ZEFSAII (Michael W. Deem and Ramdas Pophale) SiO2 
 PCOD9333138
Probable space group: I 21 21 21
;
_chemical_formula_sum "Si O2"
_cell_formula_units_Z 48
_cell_length_a 9.552736
_cell_length_b 18.637646
_cell_length_c 14.644537
_cell_angle_alpha 90.000000
_cell_angle_beta 90.000000
_cell_angle_gamma 90.000000
_cell_volume 2607.320864
_symmetry_space_group_name_H-M "I 21 21 21"
_symmetry_group_IT_number 24
_symmetry_cell_setting 'orthorhombic'
loop_
_space_group_symop_operation_xyz
x,y,z
-x,1/2-y,z
x,-y,1/2-z
1/2-x,y,-z
1/2+x,1/2+y,1/2+z
1/2-x,-y,1/2+z
1/2+x,1/2-y,-z
-x,1/2+y,1/2-z
loop_
_atom_site_type_symbol
_atom_site_label
_atom_site_fract_x
_atom_site_fract_y
_atom_site_fract_z
Si Si1 0.598643 0.456871 0.991046
Si Si2 0.398306 0.193312 0.889560
Si Si3 0.898830 0.046827 0.841333
Si Si4 0.917180 0.812638 0.199121
Si Si5 0.612683 0.972680 0.853687
Si Si6 0.653992 0.216530 0.192790
O O1 0.615510 0.378503 0.945951
O O2 0.501500 0.498903 0.921948
O O3 0.750000 0.490968 0.000000
O O4 0.525409 0.453960 0.088647
O O5 0.500000 0.250000 0.939113
O O6 0.487900 0.177230 0.794075
O O7 0.249938 0.233313 0.873613
O O8 0.860192 0.131194 0.828574
O O9 0.930670 0.000000 0.750000
O O10 0.762358 0.006151 0.880273
O O11 0.896973 0.887558 0.150883
O O12 0.761986 0.784638 0.222556
O O13 0.000000 0.750000 0.148111
O O14 0.588883 0.000000 0.750000
O O15 0.500000 0.250000 0.204090
#
# Coordination Sequence:
#
# PCOD9333138 Si02
#       6
#     8   8   8   8   8   8
#     4  12  25  37  55  93 129 162 205 261 322 372
#     4   9  19  35  57  87 125 162 195 244 320 384
#     4  11  23  41  63  90 126 174 218 251 306 392
#     4   9  18  36  61  88 113 155 201 246 313 373
#     4  11  19  40  66  84 117 167 212 251 310 386
#     4  10  18  34  59  89 123 157 201 257 309 367
#
# _framework density 18.409703
#
# number of rings (size 3 to 8) (size 9 to 14) (size 15 to 20)
#    0.000    2.000    5.000    2.500    0.000    2.667 
#    6.000    0.000    0.000    3.000    0.000    0.000 
#    0.000    0.000    0.000    0.000    0.000    0.000 
#
# Total GULP energy -133691.241528 kJ/mol
# GULP energy per Si atom -5570.468397 kJ/mol
# Density = 1.836780 g / cm^3
# Si number density = 18.409703 Si / 1000 Ang^3
#
#
#
# Elastic Constant Matrix: (Units=GPa)
#
#
# Indices 1 2 3 4 5 6 
#
# 1 143.8418 69.7316 28.2189 0.0001 -0.0001 0.0000
# 2 69.7316 152.2041 23.4108 0.0000 0.0000 0.0000
# 3 28.2189 23.4108 34.3922 0.0002 -0.0001 0.0000
# 4 0.0001 0.0000 0.0002 17.0330 -0.0001 0.0000
# 5 -0.0001 0.0000 -0.0001 -0.0001 -7.1297 0.0000
# 6 0.0000 0.0000 0.0000 0.0000 0.0000 22.9224
#
#
#
# Elastic Compliance Matrix: (Units=1/GPa)
#
#
# Indices 1 2 3 4 5 6 
#
# 1 0.009808 -0.003636 -0.005572 0.000000 0.000000 0.000000
# 2 -0.003636 0.008687 -0.002929 0.000000 0.000000 0.000000
# 3 -0.005572 -0.002929 0.035642 0.000000 -0.000001 0.000000
# 4 0.000000 0.000000 0.000000 0.058710 -0.000001 0.000000
# 5 0.000000 0.000000 -0.000001 -0.000001 -0.140259 0.000000
# 6 0.000000 0.000000 0.000000 0.000000 0.000000 0.043625
#
#
# Mechanical properties :
#
#
# Convention : Reuss Voigt Hill
#
# Bulk Modulus (GPa) = 33.48832 63.68452 48.58642
# Shear Modulus (GPa) = 99.12185 20.50361 59.81273
#
# Velocity S-wave (km/s) = 7.34568 3.34089 5.70616
# Velocity P-wave (km/s) = 9.49608 7.03918 8.35840
#
# Compressibility (1/GPa) = 0.02986116
#
# Stress axis : x y z
#
# Youngs Moduli (GPa) = 101.95614 115.11822 28.05647
#
# Poissons Ratio (x) = 0.41862 0.15634
# Poissons Ratio (y) = 0.37076 0.08219
# Poissons Ratio (z) = 0.56813 0.33722
#
# Static dielectric constant tensor:
#      x y z
#    x 1.658650 0.000000 0.000000 
#    y 0.000000 1.660760 0.000000 
#    z 0.000000 0.000000 1.664120 
# 
# From -- ./inp_files/24802.got.cif
#   From: 2010.05.17/outbox.cif.g08.bks.cpg/sg24_13_cif.got.tgz:24802.got - 2010.06.04 00:33:39.
