data_PCOD9333898
_publ_section_title
;
Structure prediction by ZEFSAII (Michael W. Deem and Ramdas Pophale) SiO2 
 PCOD9333898
Probable space group: I 21 21 21
;
_chemical_formula_sum "Si O2"
_cell_formula_units_Z 60
_cell_length_a 25.602717
_cell_length_b 8.718394
_cell_length_c 15.982773
_cell_angle_alpha 90.000000
_cell_angle_beta 90.000000
_cell_angle_gamma 90.000000
_cell_volume 3567.587871
_symmetry_space_group_name_H-M "I 21 21 21"
_symmetry_group_IT_number 24
_symmetry_cell_setting 'orthorhombic'
loop_
_space_group_symop_operation_xyz
x,y,z
-x,1/2-y,z
x,-y,1/2-z
1/2-x,y,-z
1/2+x,1/2+y,1/2+z
1/2-x,-y,1/2+z
1/2+x,1/2-y,-z
-x,1/2+y,1/2-z
loop_
_atom_site_type_symbol
_atom_site_label
_atom_site_fract_x
_atom_site_fract_y
_atom_site_fract_z
Si Si1 0.052184 0.673893 0.404168
Si Si2 0.751438 0.279443 0.379353
Si Si3 0.446203 0.686479 0.944304
Si Si4 0.918265 0.320314 0.266785
Si Si5 0.750000 0.442911 0.000000
Si Si6 0.807105 0.180230 0.228495
Si Si7 0.833565 0.792075 0.462744
Si Si8 0.666755 0.860656 0.008201
O O1 0.050190 0.492468 0.418833
O O2 0.056264 0.717304 0.306188
O O3 0.105484 0.738837 0.444549
O O4 0.000000 0.750000 0.438663
O O5 0.755282 0.448624 0.418615
O O6 0.760014 0.251675 0.281804
O O7 0.697655 0.209007 0.413751
O O8 0.798616 0.190743 0.427779
O O9 0.500000 0.750000 0.983284
O O10 0.438437 0.779092 0.858174
O O11 0.392454 0.696845 0.996709
O O12 0.926035 0.500000 0.250000
O O13 0.857583 0.274082 0.260047
O O14 0.698847 0.338610 0.008147
O O15 0.806499 0.192770 0.128682
O O16 0.813026 0.000000 0.250000
O O17 0.831251 0.955503 0.508298
#
# Coordination Sequence:
#
# PCOD9333898 Si02
#       8
#     8   8   8   8   4   8   8   8
#     4  10  21  33  46  67  94 133 171 207 244 288
#     4  10  20  32  52  68 102 130 170 207 252 303
#     4  11  20  32  49  66  94 130 174 210 245 299
#     4  11  21  30  45  65  99 131 167 209 244 287
#     4  10  22  32  48  76  98 136 166 210 262 298
#     4  11  20  33  51  74  96 136 173 213 244 299
#     4  10  20  33  53  69 104 132 174 207 249 307
#     4   9  18  34  49  68  93 136 166 202 257 297
#
# _framework density 16.818086000000001
#
# number of rings (size 3 to 8) (size 9 to 14) (size 15 to 20)
#    0.000    1.867    2.667    4.000    3.733    2.133 
#    0.000    0.000    0.000    0.000    0.000    0.000 
#    0.000    1.067    1.600    0.133    0.000    0.133 
#
# Total GULP energy -167385.396885 kJ/mol
# GULP energy per Si atom -5579.513230 kJ/mol
# Density = 1.677981 g / cm^3
# Si number density = 16.818086 Si / 1000 Ang^3
#
#
#
# Elastic Constant Matrix: (Units=GPa)
#
#
# Indices 1 2 3 4 5 6 
#
# 1 125.7528 47.4415 27.0397 0.0000 0.0000 0.0000
# 2 47.4415 71.4489 15.9688 0.0000 0.0000 0.0000
# 3 27.0397 15.9688 15.5333 0.0000 0.0000 0.0000
# 4 0.0000 0.0000 0.0000 11.5532 0.0000 0.0000
# 5 0.0000 0.0000 0.0000 0.0000 15.6036 0.0000
# 6 0.0000 0.0000 0.0000 0.0000 0.0000 29.6673
#
#
#
# Elastic Compliance Matrix: (Units=1/GPa)
#
#
# Indices 1 2 3 4 5 6 
#
# 1 0.013953 -0.004980 -0.019168 0.000000 0.000000 0.000000
# 2 -0.004980 0.019949 -0.011838 0.000000 0.000000 0.000000
# 3 -0.019168 -0.011838 0.109915 0.000000 0.000000 0.000000
# 4 0.000000 0.000000 0.000000 0.086556 0.000000 0.000000
# 5 0.000000 0.000000 0.000000 0.000000 0.064088 0.000000
# 6 0.000000 0.000000 0.000000 0.000000 0.000000 0.033707
#
#
# Mechanical properties :
#
#
# Convention : Reuss Voigt Hill
#
# Bulk Modulus (GPa) = 13.91933 43.73722 28.82828
# Shear Modulus (GPa) = 11.79000 19.51716 15.65358
#
# Velocity S-wave (km/s) = 2.65057 3.41029 3.05414
# Velocity P-wave (km/s) = 4.20259 6.44742 5.44201
#
# Compressibility (1/GPa) = 0.07184253
#
# Stress axis : x y z
#
# Youngs Moduli (GPa) = 71.67153 50.12831 9.09795
#
# Poissons Ratio (x) = 0.24966 0.17439
# Poissons Ratio (y) = 0.35695 0.10771
# Poissons Ratio (z) = 1.37380 0.59344
#
# Static dielectric constant tensor:
#      x y z
#    x 1.617540 0.000000 0.000000 
#    y 0.000000 1.584890 0.000000 
#    z 0.000000 0.000000 1.559420 
# 
# From -- ./inp_files/28128.got.cif
#   From: 2010.05.17/outbox.cif.g08.bks.cpg/sg24_15_cif.got.tgz:28128.got - 2010.06.04 00:33:39.
