data_PCOD9333512
_publ_section_title
;
Structure prediction by ZEFSAII (Michael W. Deem and Ramdas Pophale) SiO2 
 PCOD9333512
Probable space group: I 21 21 21
;
_chemical_formula_sum "Si O2"
_cell_formula_units_Z 48
_cell_length_a 30.453458
_cell_length_b 8.365715
_cell_length_c 9.408589
_cell_angle_alpha 90.000000
_cell_angle_beta 90.000000
_cell_angle_gamma 90.000000
_cell_volume 2396.978710
_symmetry_space_group_name_H-M "I 21 21 21"
_symmetry_group_IT_number 24
_symmetry_cell_setting 'orthorhombic'
loop_
_space_group_symop_operation_xyz
x,y,z
-x,1/2-y,z
x,-y,1/2-z
1/2-x,y,-z
1/2+x,1/2+y,1/2+z
1/2-x,-y,1/2+z
1/2+x,1/2-y,-z
-x,1/2+y,1/2-z
loop_
_atom_site_type_symbol
_atom_site_label
_atom_site_fract_x
_atom_site_fract_y
_atom_site_fract_z
Si Si1 0.937371 0.109216 0.991224
Si Si2 0.471137 0.044995 0.090995
Si Si3 0.116073 0.902537 0.012634
Si Si4 0.854092 0.090607 0.607165
Si Si5 0.712317 0.927295 0.605694
Si Si6 0.630201 0.719366 0.669278
O O1 0.910364 0.167629 0.127399
O O2 0.949880 0.276059 0.910126
O O3 0.985664 0.036601 0.006810
O O4 0.902122 0.989404 0.921734
O O5 0.484745 0.000000 0.250000
O O6 0.433658 0.926336 0.037500
O O7 0.120520 0.831258 0.170551
O O8 0.132233 0.081933 0.047622
O O9 0.139469 0.782032 0.902672
O O10 0.839499 0.000000 0.750000
O O11 0.818793 0.046281 0.485677
O O12 0.750000 0.868942 0.500000
O O13 0.677263 0.799673 0.660001
O O14 0.731790 0.000000 0.750000
#
# Coordination Sequence:
#
# PCOD9333512 Si02
#       6
#     8   8   8   8   8   8
#     4   9  20  34  53  80 121 163 210 266 313 364
#     4  10  19  34  53  82 121 164 213 266 309 370
#     4  10  20  37  63  86 123 169 210 261 322 388
#     4  11  21  36  61  91 120 163 211 256 319 383
#     4  11  22  41  67  93 122 156 200 265 326 399
#     4   9  20  41  62  85 123 169 206 264 338 388
#
# _framework density 20.025209
#
# number of rings (size 3 to 8) (size 9 to 14) (size 15 to 20)
#    0.000    2.000    1.667    2.000    0.000    2.000 
#    0.000   14.167    3.667    0.000    0.000    0.000 
#    0.000    0.000    0.000    0.000    0.000    0.000 
#
# Total GULP energy -133652.245774 kJ/mol
# GULP energy per Si atom -5568.843574 kJ/mol
# Density = 1.997963 g / cm^3
# Si number density = 20.025209 Si / 1000 Ang^3
#
#
#
# Elastic Constant Matrix: (Units=GPa)
#
#
# Indices 1 2 3 4 5 6 
#
# 1 84.6084 12.6324 21.2225 0.0000 0.0000 0.0000
# 2 12.6324 33.3639 17.2943 0.0000 0.0000 0.0000
# 3 21.2225 17.2943 65.6696 0.0000 0.0000 0.0000
# 4 0.0000 0.0000 0.0000 23.8506 0.0000 0.0000
# 5 0.0000 0.0000 0.0000 0.0000 8.5096 0.0000
# 6 0.0000 0.0000 0.0000 0.0000 0.0000 7.9813
#
#
#
# Elastic Compliance Matrix: (Units=1/GPa)
#
#
# Indices 1 2 3 4 5 6 
#
# 1 0.013153 -0.003216 -0.003404 0.000000 0.000000 0.000000
# 2 -0.003216 0.035497 -0.008309 0.000000 0.000000 0.000000
# 3 -0.003404 -0.008309 0.018516 0.000000 0.000000 0.000000
# 4 0.000000 0.000000 0.000000 0.041928 0.000000 0.000000
# 5 0.000000 0.000000 0.000000 0.000000 0.117514 0.000000
# 6 0.000000 0.000000 0.000000 0.000000 0.000000 0.125292
#
#
# Mechanical properties :
#
#
# Convention : Reuss Voigt Hill
#
# Bulk Modulus (GPa) = 26.80317 31.77113 29.28715
# Shear Modulus (GPa) = 12.68413 16.90116 14.79265
#
# Velocity S-wave (km/s) = 2.51949 2.90831 2.72085
# Velocity P-wave (km/s) = 4.67734 5.21322 4.95254
#
# Compressibility (1/GPa) = 0.03730901
#
# Stress axis : x y z
#
# Youngs Moduli (GPa) = 76.02798 28.17133 54.00744
#
# Poissons Ratio (x) = 0.09059 0.18383
# Poissons Ratio (y) = 0.24448 0.44875
# Poissons Ratio (z) = 0.25879 0.23408
#
# Static dielectric constant tensor:
#      x y z
#    x 1.673650 0.000000 0.000000 
#    y 0.000000 1.784170 0.000000 
#    z 0.000000 0.000000 1.724340 
# 
# From -- ./inp_files/9767.got.cif
#   From: 2010.05.17/outbox.cif.g08.bks.cpg/sg24_5_cif.got.tgz:9767.got - 2010.06.04 00:33:39.
