data_PCOD9333249
_publ_section_title
;
Structure prediction by ZEFSAII (Michael W. Deem and Ramdas Pophale) SiO2 
 PCOD9333249
Probable space group: I 21 21 21
;
_chemical_formula_sum "Si O2"
_cell_formula_units_Z 48
_cell_length_a 7.092312
_cell_length_b 14.509492
_cell_length_c 20.928237
_cell_angle_alpha 90.000000
_cell_angle_beta 90.000000
_cell_angle_gamma 90.000000
_cell_volume 2153.637897
_symmetry_space_group_name_H-M "I 21 21 21"
_symmetry_group_IT_number 24
_symmetry_cell_setting 'orthorhombic'
loop_
_space_group_symop_operation_xyz
x,y,z
-x,1/2-y,z
x,-y,1/2-z
1/2-x,y,-z
1/2+x,1/2+y,1/2+z
1/2-x,-y,1/2+z
1/2+x,1/2-y,-z
-x,1/2+y,1/2-z
loop_
_atom_site_type_symbol
_atom_site_label
_atom_site_fract_x
_atom_site_fract_y
_atom_site_fract_z
Si Si1 0.250000 0.620945 0.000000
Si Si2 0.997995 0.075719 0.801413
Si Si3 0.066903 0.524666 0.316814
Si Si4 0.000000 0.250000 0.725749
Si Si5 0.469436 0.357855 0.929523
Si Si6 0.335901 0.679318 0.863138
Si Si7 0.550331 0.946281 0.444429
O O1 0.195200 0.681846 0.060644
O O2 0.404235 0.548399 0.028550
O O3 0.766282 0.074419 0.799627
O O4 0.042079 0.052502 0.874906
O O5 0.072320 0.171225 0.773693
O O6 0.053480 0.000000 0.750000
O O7 0.972090 0.500000 0.250000
O O8 0.960452 0.588600 0.366950
O O9 0.113272 0.427169 0.349748
O O10 0.155741 0.293871 0.679091
O O11 0.500000 0.250000 0.923106
O O12 0.249626 0.391747 0.933072
O O13 0.545791 0.392405 0.997621
O O14 0.500000 0.750000 0.845205
#
# Coordination Sequence:
#
# PCOD9333249 Si02
#       7
#     4   8   8   4   8   8   8
#     4  10  18  42  66  96 130 188 226 278 354 410
#     4  10  18  37  65  89 124 176 216 268 345 404
#     4  10  18  40  63  84 133 182 208 276 354 398
#     4  12  24  42  70 100 136 178 228 292 350 420
#     4   9  17  30  57  89 119 162 219 270 327 407
#     4  12  25  42  69 105 134 181 238 282 344 422
#     4   9  17  34  62  87 121 176 220 264 352 401
#
# _framework density 22.287870000000002
#
# number of rings (size 3 to 8) (size 9 to 14) (size 15 to 20)
#    0.000    2.000    8.333    0.000    2.333    0.667 
#    0.000    0.833    0.000    6.000    0.000    0.000 
#    0.000    0.000    0.000    0.000    0.000    0.000 
#
# Total GULP energy -133962.349089 kJ/mol
# GULP energy per Si atom -5581.764545 kJ/mol
# Density = 2.223714 g / cm^3
# Si number density = 22.287870 Si / 1000 Ang^3
#
#
#
# Elastic Constant Matrix: (Units=GPa)
#
#
# Indices 1 2 3 4 5 6 
#
# 1 69.1571 -2.0901 6.9435 0.0000 0.0000 0.0000
# 2 -2.0901 91.4168 39.0147 0.0000 0.0000 0.0000
# 3 6.9435 39.0147 230.9653 0.0000 0.0000 0.0000
# 4 0.0000 0.0000 0.0000 40.9276 0.0000 0.0000
# 5 0.0000 0.0000 0.0000 0.0000 0.7592 0.0000
# 6 0.0000 0.0000 0.0000 0.0000 0.0000 0.4308
#
#
#
# Elastic Compliance Matrix: (Units=1/GPa)
#
#
# Indices 1 2 3 4 5 6 
#
# 1 0.014530 0.000559 -0.000531 0.000000 0.000000 0.000000
# 2 0.000559 0.011810 -0.002012 0.000000 0.000000 0.000000
# 3 -0.000531 -0.002012 0.004685 0.000000 0.000000 0.000000
# 4 0.000000 0.000000 0.000000 0.024433 0.000000 0.000000
# 5 0.000000 0.000000 0.000000 0.000000 1.317205 0.000000
# 6 0.000000 0.000000 0.000000 0.000000 0.000000 2.321257
#
#
# Mechanical properties :
#
#
# Convention : Reuss Voigt Hill
#
# Bulk Modulus (GPa) = 36.95819 53.25280 45.10550
# Shear Modulus (GPa) = 1.34883 31.60159 16.47521
#
# Velocity S-wave (km/s) = 0.77878 3.76956 2.72177
# Velocity P-wave (km/s) = 4.17455 6.54914 5.49172
#
# Compressibility (1/GPa) = 0.02705760
#
# Stress axis : x y z
#
# Youngs Moduli (GPa) = 68.82281 84.67197 213.42627
#
# Poissons Ratio (x) = -0.04733 0.11338
# Poissons Ratio (y) = -0.03847 0.42937
# Poissons Ratio (z) = 0.03656 0.17034
#
# Static dielectric constant tensor:
#      x y z
#    x 1.925730 0.000000 0.000000 
#    y 0.000000 1.704420 0.000000 
#    z 0.000000 0.000000 1.894720 
# 
# From -- ./inp_files/32737.got.cif
#   From: 2010.05.17/outbox.cif.g08.bks.cpg/sg24_17_cif.got.tgz:32737.got - 2010.06.04 00:33:39.
