data_PCOD9333283
_publ_section_title
;
Structure prediction by ZEFSAII (Michael W. Deem and Ramdas Pophale) SiO2 
 PCOD9333283
Probable space group: I 21 21 21
;
_chemical_formula_sum "Si O2"
_cell_formula_units_Z 60
_cell_length_a 17.615608
_cell_length_b 10.539927
_cell_length_c 16.968736
_cell_angle_alpha 90.000000
_cell_angle_beta 90.000000
_cell_angle_gamma 90.000000
_cell_volume 3150.538080
_symmetry_space_group_name_H-M "I 21 21 21"
_symmetry_group_IT_number 24
_symmetry_cell_setting 'orthorhombic'
loop_
_space_group_symop_operation_xyz
x,y,z
-x,1/2-y,z
x,-y,1/2-z
1/2-x,y,-z
1/2+x,1/2+y,1/2+z
1/2-x,-y,1/2+z
1/2+x,1/2-y,-z
-x,1/2+y,1/2-z
loop_
_atom_site_type_symbol
_atom_site_label
_atom_site_fract_x
_atom_site_fract_y
_atom_site_fract_z
Si Si1 0.768479 0.640049 0.786424
Si Si2 0.448067 0.125126 0.304159
Si Si3 0.681513 0.274730 0.855584
Si Si4 0.530277 0.391210 0.887385
Si Si5 0.185975 0.261779 0.433509
Si Si6 0.094121 0.065093 0.522028
Si Si7 0.124619 0.495454 0.158520
Si Si8 0.250000 0.925520 0.500000
O O1 0.755921 0.500000 0.750000
O O2 0.858791 0.658197 0.792861
O O3 0.733951 0.730811 0.720327
O O4 0.724137 0.670020 0.867353
O O5 0.500000 0.250000 0.289018
O O6 0.449531 0.087156 0.396664
O O7 0.465172 0.000000 0.250000
O O8 0.606568 0.360074 0.838529
O O9 0.657466 0.133637 0.877808
O O10 0.722025 0.341392 0.927965
O O11 0.500000 0.250000 0.906056
O O12 0.466050 0.474141 0.845650
O O13 0.551702 0.466797 0.965808
O O14 0.250000 0.288933 0.500000
O O15 0.114775 0.193326 0.475352
O O16 0.155745 0.385172 0.388721
O O17 0.178574 0.005525 0.531995
O O18 0.146175 0.500000 0.250000
#
# Coordination Sequence:
#
# PCOD9333283 Si02
#       8
#     8   8   8   8   8   8   8   4
#     4  11  21  41  69  93 126 169 222 271 323 385
#     4  11  25  44  64  94 131 172 224 278 329 390
#     4  10  21  40  64  93 123 173 215 265 322 390
#     4   9  22  40  63  93 131 164 209 262 328 404
#     4  12  24  40  65 101 128 168 221 272 317 391
#     4  11  21  40  66  93 124 166 216 268 327 381
#     4  11  24  43  58  94 139 169 206 263 329 392
#     4  10  18  38  68  96 116 156 228 266 316 390
#
# _framework density 19.044366
#
# number of rings (size 3 to 8) (size 9 to 14) (size 15 to 20)
#    0.000    1.333    3.333    3.200    2.800    2.133 
#    4.800    1.333    0.000    0.000    0.000    0.000 
#    0.000    0.000    0.000    0.000    0.000    0.000 
#
# Total GULP energy -167419.343732 kJ/mol
# GULP energy per Si atom -5580.644791 kJ/mol
# Density = 1.900102 g / cm^3
# Si number density = 19.044366 Si / 1000 Ang^3
#
#
#
# Elastic Constant Matrix: (Units=GPa)
#
#
# Indices 1 2 3 4 5 6 
#
# 1 43.4735 39.0880 24.1529 0.0000 0.0000 0.0000
# 2 39.0880 92.3512 55.9044 0.0000 0.0000 0.0000
# 3 24.1529 55.9044 100.8693 0.0000 0.0000 0.0000
# 4 0.0000 0.0000 0.0000 32.5441 0.0000 0.0000
# 5 0.0000 0.0000 0.0000 0.0000 26.5252 0.0000
# 6 0.0000 0.0000 0.0000 0.0000 0.0000 28.2064
#
#
#
# Elastic Compliance Matrix: (Units=1/GPa)
#
#
# Indices 1 2 3 4 5 6 
#
# 1 0.037139 -0.015555 -0.000272 0.000000 0.000000 0.000000
# 2 -0.015555 0.022810 -0.008917 0.000000 0.000000 0.000000
# 3 -0.000272 -0.008917 0.014921 0.000000 0.000000 0.000000
# 4 0.000000 0.000000 0.000000 0.030728 0.000000 0.000000
# 5 0.000000 0.000000 0.000000 0.000000 0.037700 0.000000
# 6 0.000000 0.000000 0.000000 0.000000 0.000000 0.035453
#
#
# Mechanical properties :
#
#
# Convention : Reuss Voigt Hill
#
# Bulk Modulus (GPa) = 39.39772 52.77606 46.08689
# Shear Modulus (GPa) = 21.12386 25.29172 23.20779
#
# Velocity S-wave (km/s) = 3.33407 3.64818 3.49466
# Velocity P-wave (km/s) = 5.96268 6.74670 6.36677
#
# Compressibility (1/GPa) = 0.02538218
#
# Stress axis : x y z
#
# Youngs Moduli (GPa) = 26.92579 43.84087 67.01886
#
# Poissons Ratio (x) = 0.68192 0.01824
# Poissons Ratio (y) = 0.41882 0.59763
# Poissons Ratio (z) = 0.00733 0.39094
#
# Static dielectric constant tensor:
#      x y z
#    x 1.678900 0.000000 0.000000 
#    y 0.000000 1.670690 0.000000 
#    z 0.000000 0.000000 1.658300 
# 
# From -- ./inp_files/27198.got.cif
#   From: 2010.05.17/outbox.cif.g08.bks.cpg/sg24_14_cif.got.tgz:27198.got - 2010.06.04 00:33:39.
