data_PCOD9333788
_publ_section_title
;
Structure prediction by ZEFSAII (Michael W. Deem and Ramdas Pophale) SiO2 
 PCOD9333788
Probable space group: I 21 21 21
;
_chemical_formula_sum "Si O2"
_cell_formula_units_Z 32
_cell_length_a 7.728786
_cell_length_b 33.273003
_cell_length_c 5.437994
_cell_angle_alpha 90.000000
_cell_angle_beta 90.000000
_cell_angle_gamma 90.000000
_cell_volume 1398.434101
_symmetry_space_group_name_H-M "I 21 21 21"
_symmetry_group_IT_number 24
_symmetry_cell_setting 'orthorhombic'
loop_
_space_group_symop_operation_xyz
x,y,z
-x,1/2-y,z
x,-y,1/2-z
1/2-x,y,-z
1/2+x,1/2+y,1/2+z
1/2-x,-y,1/2+z
1/2+x,1/2-y,-z
-x,1/2+y,1/2-z
loop_
_atom_site_type_symbol
_atom_site_label
_atom_site_fract_x
_atom_site_fract_y
_atom_site_fract_z
Si Si1 0.250000 0.474545 0.000000
Si Si2 0.500000 0.750000 0.626234
Si Si3 0.937426 0.330095 0.862546
Si Si4 0.436184 0.078917 0.138672
Si Si5 0.750000 0.527002 0.000000
Si Si6 0.250000 0.784550 0.000000
O O1 0.247980 0.500000 0.750000
O O2 0.421970 0.447632 0.003577
O O3 0.527851 0.791815 0.484439
O O4 0.330852 0.757713 0.789878
O O5 0.899639 0.314044 0.590510
O O6 0.750000 0.332450 0.000000
O O7 0.003111 0.375306 0.852018
O O8 0.399338 0.057190 0.401539
O O9 0.250000 0.079322 0.000000
O O10 0.718764 0.500000 0.750000
#
# Coordination Sequence:
#
# PCOD9333788 Si02
#       6
#     4   4   8   8   4   4
#     4  12  32  50  73 114 156 190 250 313 384 462
#     4  10  20  38  66 100 144 186 230 292 354 430
#     4   9  20  41  67  99 138 183 246 288 356 433
#     4  11  26  48  77 109 146 199 251 316 373 450
#     4  12  25  42  82 114 138 202 256 298 392 457
#     4  10  19  38  63 100 134 192 232 289 346 435
#
# _framework density 22.882736999999999
#
# number of rings (size 3 to 8) (size 9 to 14) (size 15 to 20)
#    0.000    1.500    1.250    2.250    7.000    0.000 
#   11.250    0.000    0.000    0.000    0.000    0.000 
#    0.000    0.000    0.000    0.000    0.000    0.000 
#
# Total GULP energy -89307.294058 kJ/mol
# GULP energy per Si atom -5581.705879 kJ/mol
# Density = 2.283065 g / cm^3
# Si number density = 22.882737 Si / 1000 Ang^3
#
#
#
# Elastic Constant Matrix: (Units=GPa)
#
#
# Indices 1 2 3 4 5 6 
#
# 1 81.6312 60.0805 25.7419 0.0078 0.0003 -0.0037
# 2 60.0805 256.3679 94.1029 0.0124 0.0041 0.0157
# 3 25.7419 94.1029 122.6417 0.0088 0.0023 -0.0300
# 4 0.0078 0.0124 0.0088 15.3211 0.0063 0.0585
# 5 0.0003 0.0041 0.0023 0.0063 39.6713 0.0076
# 6 -0.0037 0.0157 -0.0300 0.0585 0.0076 21.9744
#
#
#
# Elastic Compliance Matrix: (Units=1/GPa)
#
#
# Indices 1 2 3 4 5 6 
#
# 1 0.014838 -0.003249 -0.000621 -0.000005 0.000000 0.000004
# 2 -0.003249 0.006141 -0.004030 -0.000001 0.000000 -0.000010
# 3 -0.000621 -0.004030 0.011377 -0.000003 0.000000 0.000018
# 4 -0.000005 -0.000001 -0.000003 0.065270 -0.000010 -0.000174
# 5 0.000000 0.000000 0.000000 -0.000010 0.025207 -0.000009
# 6 0.000004 -0.000010 0.000018 -0.000174 -0.000009 0.045508
#
#
# Mechanical properties :
#
#
# Convention : Reuss Voigt Hill
#
# Bulk Modulus (GPa) = 60.40771 91.16569 75.78670
# Shear Modulus (GPa) = 26.36285 34.10773 30.23529
#
# Velocity S-wave (km/s) = 3.39792 3.86494 3.63893
# Velocity P-wave (km/s) = 6.46920 7.73589 7.13073
#
# Compressibility (1/GPa) = 0.01655418
#
# Stress axis : x y z
#
# Youngs Moduli (GPa) = 67.39671 162.82675 87.89863
#
# Poissons Ratio (x) = 0.52905 0.05461
# Poissons Ratio (y) = 0.21898 0.35426
# Poissons Ratio (z) = 0.04187 0.65625
#
# Static dielectric constant tensor:
#      x y z
#    x 1.874230 0.000000 -0.000010 
#    y 0.000000 1.890360 0.000010 
#    z -0.000010 0.000010 1.947010 
# 
# From -- ./inp_files/1337.got.cif
#   From: 2010.05.17/outbox.cif.g08.bks.cpg/sg24_1_cif.got.tgz:1337.got - 2010.06.04 00:33:39.
