data_PCOD9333801
_publ_section_title
;
Structure prediction by ZEFSAII (Michael W. Deem and Ramdas Pophale) SiO2 
 PCOD9333801
Probable space group: I 21 21 21
;
_chemical_formula_sum "Si O2"
_cell_formula_units_Z 48
_cell_length_a 15.635548
_cell_length_b 13.381338
_cell_length_c 11.634420
_cell_angle_alpha 90.000000
_cell_angle_beta 90.000000
_cell_angle_gamma 90.000000
_cell_volume 2434.206319
_symmetry_space_group_name_H-M "I 21 21 21"
_symmetry_group_IT_number 24
_symmetry_cell_setting 'orthorhombic'
loop_
_space_group_symop_operation_xyz
x,y,z
-x,1/2-y,z
x,-y,1/2-z
1/2-x,y,-z
1/2+x,1/2+y,1/2+z
1/2-x,-y,1/2+z
1/2+x,1/2-y,-z
-x,1/2+y,1/2-z
loop_
_atom_site_type_symbol
_atom_site_label
_atom_site_fract_x
_atom_site_fract_y
_atom_site_fract_z
Si Si1 0.486721 0.053563 0.924188
Si Si2 0.636203 0.678518 0.750629
Si Si3 0.065298 0.169180 0.484789
Si Si4 0.919770 0.697372 0.617978
Si Si5 0.336962 0.655047 0.565287
Si Si6 0.684693 0.604841 0.192831
O O1 0.429639 0.111421 0.826516
O O2 0.587427 0.076627 0.906706
O O3 0.473034 0.935908 0.939052
O O4 0.452756 0.103319 0.043569
O O5 0.596068 0.721133 0.867021
O O6 0.672022 0.769887 0.673615
O O7 0.713314 0.611142 0.800682
O O8 0.139853 0.135017 0.573681
O O9 0.000000 0.250000 0.538560
O O10 0.881965 0.772646 0.526100
O O11 0.849818 0.679309 0.711863
O O12 0.000000 0.750000 0.675259
O O13 0.250000 0.620240 0.500000
O O14 0.657593 0.500000 0.250000
#
# Coordination Sequence:
#
# PCOD9333801 Si02
#       6
#     8   8   8   8   8   8
#     4  10  21  39  63  90 122 161 204 257 309 367
#     4  11  23  39  63  95 126 160 206 259 320 372
#     4  12  25  41  59  86 128 174 207 250 316 380
#     4   9  18  35  59  87 120 153 197 253 308 357
#     4  10  19  38  67  93 118 156 208 263 302 362
#     4  12  22  37  60  91 127 158 206 259 310 376
#
# _framework density 19.718952999999999
#
# number of rings (size 3 to 8) (size 9 to 14) (size 15 to 20)
#    0.000    1.333    3.333    5.000    0.000    0.000 
#    0.000    1.667    0.000    0.000    0.000    0.000 
#    0.000    0.000    0.000    0.000    0.000    0.000 
#
# Total GULP energy -133638.270173 kJ/mol
# GULP energy per Si atom -5568.261257 kJ/mol
# Density = 1.967407 g / cm^3
# Si number density = 19.718953 Si / 1000 Ang^3
#
#
#
# Elastic Constant Matrix: (Units=GPa)
#
#
# Indices 1 2 3 4 5 6 
#
# 1 124.6101 30.3125 40.5446 0.0000 0.0000 0.0000
# 2 30.3125 35.2538 25.7486 0.0000 0.0000 0.0000
# 3 40.5446 25.7486 102.1030 0.0000 0.0000 0.0000
# 4 0.0000 0.0000 0.0000 7.3913 0.0000 0.0000
# 5 0.0000 0.0000 0.0000 0.0000 55.9233 0.0000
# 6 0.0000 0.0000 0.0000 0.0000 0.0000 24.6060
#
#
#
# Elastic Compliance Matrix: (Units=1/GPa)
#
#
# Indices 1 2 3 4 5 6 
#
# 1 0.010584 -0.007393 -0.002339 0.000000 0.000000 0.000000
# 2 -0.007393 0.039933 -0.007135 0.000000 0.000000 0.000000
# 3 -0.002339 -0.007135 0.012522 0.000000 0.000000 0.000000
# 4 0.000000 0.000000 0.000000 0.135294 0.000000 0.000000
# 5 0.000000 0.000000 0.000000 0.000000 0.017882 0.000000
# 6 0.000000 0.000000 0.000000 0.000000 0.000000 0.040641
#
#
# Mechanical properties :
#
#
# Convention : Reuss Voigt Hill
#
# Bulk Modulus (GPa) = 34.12127 50.57537 42.34832
# Shear Modulus (GPa) = 16.64685 28.60819 22.62752
#
# Velocity S-wave (km/s) = 2.90867 3.81306 3.39115
# Velocity P-wave (km/s) = 5.34994 6.71489 6.07090
#
# Compressibility (1/GPa) = 0.02930723
#
# Stress axis : x y z
#
# Youngs Moduli (GPa) = 94.47947 25.04167 79.85943
#
# Poissons Ratio (x) = 0.18513 0.18677
# Poissons Ratio (y) = 0.69846 0.56979
# Poissons Ratio (z) = 0.22096 0.17867
#
# Static dielectric constant tensor:
#      x y z
#    x 1.782900 0.000000 0.000000 
#    y 0.000000 1.641220 0.000000 
#    z 0.000000 0.000000 1.708460 
# 
# From -- ./inp_files/20743.got.cif
#   From: 2010.05.17/outbox.cif.g08.bks.cpg/sg24_11_cif.got.tgz:20743.got - 2010.06.04 00:33:39.
