data_PCOD9333041
_publ_section_title
;
Structure prediction by ZEFSAII (Michael W. Deem and Ramdas Pophale) SiO2 
 PCOD9333041
Probable space group: I 21 21 21
;
_chemical_formula_sum "Si O2"
_cell_formula_units_Z 52
_cell_length_a 18.173550
_cell_length_b 15.067505
_cell_length_c 7.153068
_cell_angle_alpha 90.000000
_cell_angle_beta 90.000000
_cell_angle_gamma 90.000000
_cell_volume 1958.725007
_symmetry_space_group_name_H-M "I 21 21 21"
_symmetry_group_IT_number 24
_symmetry_cell_setting 'orthorhombic'
loop_
_space_group_symop_operation_xyz
x,y,z
-x,1/2-y,z
x,-y,1/2-z
1/2-x,y,-z
1/2+x,1/2+y,1/2+z
1/2-x,-y,1/2+z
1/2+x,1/2-y,-z
-x,1/2+y,1/2-z
loop_
_atom_site_type_symbol
_atom_site_label
_atom_site_fract_x
_atom_site_fract_y
_atom_site_fract_z
Si Si1 0.641742 0.624926 0.422493
Si Si2 0.513883 0.847653 0.502741
Si Si3 0.250000 0.967816 0.000000
Si Si4 0.664934 0.147151 0.470600
Si Si5 0.330160 0.675310 0.468380
Si Si6 0.483710 0.415045 0.390565
Si Si7 0.128249 0.844377 0.025626
O O1 0.563762 0.603233 0.523542
O O2 0.691010 0.538923 0.430287
O O3 0.667389 0.718722 0.509266
O O4 0.637261 0.643376 0.200135
O O5 0.500000 0.750000 0.581060
O O6 0.597436 0.870809 0.555533
O O7 0.517080 0.841430 0.274433
O O8 0.304519 0.901263 0.887176
O O9 0.750000 0.120304 0.500000
O O10 0.663655 0.167180 0.252026
O O11 0.595403 0.081595 0.490781
O O12 0.643080 0.241019 0.567873
O O13 0.250000 0.636437 0.500000
O O14 0.493650 0.500000 0.250000
O O15 0.546399 0.385997 0.538237
#
# Coordination Sequence:
#
# PCOD9333041 Si02
#       7
#     8   8   4   8   8   8   8
#     4   9  17  28  44  72 107 137 176 233 275 326
#     4   8  15  29  49  72  99 133 177 224 276 317
#     4  12  18  26  48  78 108 134 170 228 298 338
#     4  10  20  36  55  80 115 148 186 228 291 349
#     4   9  16  30  53  77 103 141 191 234 273 327
#     4  10  18  32  54  78 103 139 192 243 268 317
#     4  10  19  32  50  77 110 146 184 227 290 346
#
# _framework density 26.547882000000001
#
# number of rings (size 3 to 8) (size 9 to 14) (size 15 to 20)
#    0.000    2.462    1.538    5.538    0.000    0.000 
#    0.000    3.077    0.000    9.231    0.000    0.000 
#    0.000    0.000    0.000    0.000    0.000    0.000 
#
# Total GULP energy -144806.664720 kJ/mol
# GULP energy per Si atom -5569.487105 kJ/mol
# Density = 2.648746 g / cm^3
# Si number density = 26.547882 Si / 1000 Ang^3
#
#
#
# Elastic Constant Matrix: (Units=GPa)
#
#
# Indices 1 2 3 4 5 6 
#
# 1 277.7035 29.9984 -1.0012 0.0000 0.0000 0.0000
# 2 29.9984 83.1004 4.9125 0.0000 0.0000 0.0000
# 3 -1.0012 4.9125 68.6655 0.0000 0.0000 0.0000
# 4 0.0000 0.0000 0.0000 16.4643 0.0000 0.0000
# 5 0.0000 0.0000 0.0000 0.0000 19.3696 0.0000
# 6 0.0000 0.0000 0.0000 0.0000 0.0000 19.0739
#
#
#
# Elastic Compliance Matrix: (Units=1/GPa)
#
#
# Indices 1 2 3 4 5 6 
#
# 1 0.003749 -0.001362 0.000152 0.000000 0.000000 0.000000
# 2 -0.001362 0.012580 -0.000920 0.000000 0.000000 0.000000
# 3 0.000152 -0.000920 0.014631 0.000000 0.000000 0.000000
# 4 0.000000 0.000000 0.000000 0.060737 0.000000 0.000000
# 5 0.000000 0.000000 0.000000 0.000000 0.051627 0.000000
# 6 0.000000 0.000000 0.000000 0.000000 0.000000 0.052428
#
#
# Mechanical properties :
#
#
# Convention : Reuss Voigt Hill
#
# Bulk Modulus (GPa) = 37.45337 55.25434 46.35386
# Shear Modulus (GPa) = 23.93351 37.35220 30.64285
#
# Velocity S-wave (km/s) = 3.00579 3.75504 3.40111
# Velocity P-wave (km/s) = 5.11712 6.29751 5.73775
#
# Compressibility (1/GPa) = 0.02669987
#
# Stress axis : x y z
#
# Youngs Moduli (GPa) = 266.76177 79.49280 68.34628
#
# Poissons Ratio (x) = 0.10829 -0.01040
# Poissons Ratio (y) = 0.36339 0.06287
# Poissons Ratio (z) = -0.04058 0.07312
#
# Static dielectric constant tensor:
#      x y z
#    x 2.254130 0.000000 0.000000 
#    y 0.000000 2.149460 0.000000 
#    z 0.000000 0.000000 2.190310 
# 
# From -- ./inp_files/20971.got.cif
#   From: 2010.05.17/outbox.cif.g08.bks.cpg/sg24_11_cif.got.tgz:20971.got - 2010.06.04 00:33:39.
