data_PCOD9333239
_publ_section_title
;
Structure prediction by ZEFSAII (Michael W. Deem and Ramdas Pophale) SiO2 
 PCOD9333239
Probable space group: I 21 21 21
;
_chemical_formula_sum "Si O2"
_cell_formula_units_Z 40
_cell_length_a 10.626895
_cell_length_b 17.927490
_cell_length_c 9.429406
_cell_angle_alpha 90.000000
_cell_angle_beta 90.000000
_cell_angle_gamma 90.000000
_cell_volume 1796.429648
_symmetry_space_group_name_H-M "I 21 21 21"
_symmetry_group_IT_number 24
_symmetry_cell_setting 'orthorhombic'
loop_
_space_group_symop_operation_xyz
x,y,z
-x,1/2-y,z
x,-y,1/2-z
1/2-x,y,-z
1/2+x,1/2+y,1/2+z
1/2-x,-y,1/2+z
1/2+x,1/2-y,-z
-x,1/2+y,1/2-z
loop_
_atom_site_type_symbol
_atom_site_label
_atom_site_fract_x
_atom_site_fract_y
_atom_site_fract_z
Si Si1 0.009583 0.161288 0.163146
Si Si2 0.744763 0.349206 0.668836
Si Si3 0.643970 0.954019 0.380964
Si Si4 0.762326 0.803836 0.663087
Si Si5 0.127679 0.937041 0.579609
O O1 0.098881 0.137941 0.290560
O O2 0.000000 0.250000 0.149984
O O3 0.863279 0.145809 0.188198
O O4 0.081694 0.128532 0.027651
O O5 0.750000 0.351827 0.500000
O O6 0.774032 0.265573 0.731540
O O7 0.826298 0.405573 0.767785
O O8 0.750000 0.959987 0.500000
O O9 0.630203 0.866403 0.337929
O O10 0.502779 0.982382 0.415267
O O11 0.691054 0.000000 0.250000
O O12 0.750000 0.776354 0.500000
O O13 0.250000 0.970988 0.500000
#
# Coordination Sequence:
#
# PCOD9333239 Si02
#       5
#     8   8   8   8   8
#     4   9  16  33  59  87 117 158 198 228 291 371
#     4  10  21  34  54  97 132 152 189 248 307 356
#     4  11  24  44  64  89 116 157 213 251 296 352
#     4  10  18  37  62  84 118 165 201 236 291 366
#     4  10  20  39  67  86 118 158 204 240 297 371
#
# _framework density 22.266389
#
# number of rings (size 3 to 8) (size 9 to 14) (size 15 to 20)
#    0.000    2.000    4.000    3.000    0.000    0.800 
#   14.400    2.000    0.000    0.000    0.000    0.000 
#    0.000    0.000    0.000    0.000    0.000    0.000 
#
# Total GULP energy -111451.987575 kJ/mol
# GULP energy per Si atom -5572.599379 kJ/mol
# Density = 2.221571 g / cm^3
# Si number density = 22.266389 Si / 1000 Ang^3
#
#
#
# Elastic Constant Matrix: (Units=GPa)
#
#
# Indices 1 2 3 4 5 6 
#
# 1 135.1568 14.9036 47.4923 0.0000 0.0000 0.0000
# 2 14.9036 43.7534 40.5928 0.0000 0.0000 0.0000
# 3 47.4923 40.5928 190.4263 0.0002 -0.0001 0.0000
# 4 0.0000 0.0000 0.0002 19.0698 0.0000 0.0000
# 5 0.0000 0.0000 -0.0001 0.0000 22.2225 0.0000
# 6 0.0000 0.0000 0.0000 0.0000 0.0000 12.1340
#
#
#
# Elastic Compliance Matrix: (Units=1/GPa)
#
#
# Indices 1 2 3 4 5 6 
#
# 1 0.008153 -0.001110 -0.001797 0.000000 0.000000 0.000000
# 2 -0.001110 0.028641 -0.005828 0.000000 0.000000 0.000000
# 3 -0.001797 -0.005828 0.006942 0.000000 0.000000 0.000000
# 4 0.000000 0.000000 0.000000 0.052439 0.000000 0.000000
# 5 0.000000 0.000000 0.000000 0.000000 0.044999 0.000000
# 6 0.000000 0.000000 0.000000 0.000000 0.000000 0.082413
#
#
# Mechanical properties :
#
#
# Convention : Reuss Voigt Hill
#
# Bulk Modulus (GPa) = 38.07354 63.92374 50.99864
# Shear Modulus (GPa) = 20.01504 28.44178 24.22841
#
# Velocity S-wave (km/s) = 3.00140 3.57787 3.30224
# Velocity P-wave (km/s) = 5.39884 6.77046 6.12318
#
# Compressibility (1/GPa) = 0.02626496
#
# Stress axis : x y z
#
# Youngs Moduli (GPa) = 122.66131 34.91500 144.05305
#
# Poissons Ratio (x) = 0.03876 0.25880
# Poissons Ratio (y) = 0.13618 0.83961
# Poissons Ratio (z) = 0.22037 0.20350
#
# Static dielectric constant tensor:
#      x y z
#    x 1.969270 0.000000 0.000000 
#    y 0.000000 1.857160 0.000000 
#    z 0.000000 0.000000 1.819030 
# 
# From -- ./inp_files/11041.got.cif
#   From: 2010.05.17/outbox.cif.g08.bks.cpg/sg24_6_cif.got.tgz:11041.got - 2010.06.04 00:33:39.
