data_PCOD9333658
_publ_section_title
;
Structure prediction by ZEFSAII (Michael W. Deem and Ramdas Pophale) SiO2 
 PCOD9333658
Probable space group: I 21 21 21
;
_chemical_formula_sum "Si O2"
_cell_formula_units_Z 48
_cell_length_a 17.835961
_cell_length_b 7.312876
_cell_length_c 22.865512
_cell_angle_alpha 90.000000
_cell_angle_beta 90.000000
_cell_angle_gamma 90.000000
_cell_volume 2982.398374
_symmetry_space_group_name_H-M "I 21 21 21"
_symmetry_group_IT_number 24
_symmetry_cell_setting 'orthorhombic'
loop_
_space_group_symop_operation_xyz
x,y,z
-x,1/2-y,z
x,-y,1/2-z
1/2-x,y,-z
1/2+x,1/2+y,1/2+z
1/2-x,-y,1/2+z
1/2+x,1/2-y,-z
-x,1/2+y,1/2-z
loop_
_atom_site_type_symbol
_atom_site_label
_atom_site_fract_x
_atom_site_fract_y
_atom_site_fract_z
Si Si1 0.500000 0.031484 0.991591
Si Si2 0.000000 0.531181 0.352294
Si Si3 0.664087 0.965767 0.683188
Si Si4 0.232011 0.750000 0.097129
Si Si5 0.335913 0.034233 0.816812
Si Si6 0.126353 0.750000 0.982886
O O1 0.500000 0.250000 0.000401
O O2 0.427351 0.927481 0.016611
O O3 0.572649 0.927481 0.016611
O O4 0.500000 0.994292 0.921594
O O5 0.922082 0.466441 0.324790
O O6 0.000000 0.750000 0.344823
O O7 0.077918 0.466441 0.324790
O O8 0.666239 0.750000 0.670696
O O9 0.686593 0.000000 0.750000
O O10 0.714288 0.076102 0.637643
O O11 0.314456 0.750000 0.069624
O O12 0.214288 0.923898 0.137643
O O13 0.174161 0.750000 0.042828
O O14 0.313407 0.000000 0.750000
#
# Coordination Sequence:
#
# PCOD9333658 Si02
#       6
#     8   8   8   8   8   8
#     4  10  19  36  57  79 107 142 187 231 274 323
#     4   9  18  30  48  77 109 149 187 216 254 313
#     4  11  21  34  51  77 113 152 189 222 264 321
#     4  11  22  36  52  80 116 149 188 224 272 325
#     4  11  21  34  51  77 113 152 189 222 264 321
#     4  10  22  36  56  80 110 152 186 226 273 329
#
# _framework density 16.094429000000002
#
# number of rings (size 3 to 8) (size 9 to 14) (size 15 to 20)
#    0.000    1.667    5.000    0.500    0.000    2.000 
#    0.000    3.333    0.000    0.000    0.000    4.667 
#    0.000    0.000    0.000    0.000    0.000    0.000 
#
# Total GULP energy -133970.892949 kJ/mol
# GULP energy per Si atom -5582.120540 kJ/mol
# Density = 1.605780 g / cm^3
# Si number density = 16.094429 Si / 1000 Ang^3
#
#
#
# Elastic Constant Matrix: (Units=GPa)
#
#
# Indices 1 2 3 4 5 6 
#
# 1 103.6512 50.5133 63.9617 0.0000 0.0000 0.0000
# 2 50.5133 131.1321 47.3400 0.0000 0.0000 0.0000
# 3 63.9617 47.3400 106.0058 0.0000 0.0000 0.0000
# 4 0.0000 0.0000 0.0000 24.0218 0.0000 0.0000
# 5 0.0000 0.0000 0.0000 0.0000 19.1898 0.0000
# 6 0.0000 0.0000 0.0000 0.0000 0.0000 18.2277
#
#
#
# Elastic Compliance Matrix: (Units=1/GPa)
#
#
# Indices 1 2 3 4 5 6 
#
# 1 0.016480 -0.003289 -0.008475 0.000000 0.000000 0.000000
# 2 -0.003289 0.009748 -0.002369 0.000000 0.000000 0.000000
# 3 -0.008475 -0.002369 0.015605 0.000000 0.000000 0.000000
# 4 0.000000 0.000000 0.000000 0.041629 0.000000 0.000000
# 5 0.000000 0.000000 0.000000 0.000000 0.052111 0.000000
# 6 0.000000 0.000000 0.000000 0.000000 0.000000 0.054862
#
#
# Mechanical properties :
#
#
# Convention : Reuss Voigt Hill
#
# Bulk Modulus (GPa) = 73.70423 73.82435 73.76429
# Shear Modulus (GPa) = 22.39907 24.21945 23.30926
#
# Velocity S-wave (km/s) = 3.73463 3.88343 3.80976
# Velocity P-wave (km/s) = 8.03063 8.12878 8.07985
#
# Compressibility (1/GPa) = 0.01356774
#
# Stress axis : x y z
#
# Youngs Moduli (GPa) = 60.67788 102.58576 64.08140
#
# Poissons Ratio (x) = 0.33738 0.54311
# Poissons Ratio (y) = 0.19955 0.15180
# Poissons Ratio (z) = 0.51426 0.24301
#
# Static dielectric constant tensor:
#      x y z
#    x 1.526540 0.000000 0.000000 
#    y 0.000000 1.560860 0.000000 
#    z 0.000000 0.000000 1.517760 
# 
# From -- ./inp_files/31094.got.cif
#   From: 2010.05.17/outbox.cif.g08.bks.cpg/sg24_16_cif.got.tgz:31094.got - 2010.06.04 00:33:39.
