data_PCOD9333218
_publ_section_title
;
Structure prediction by ZEFSAII (Michael W. Deem and Ramdas Pophale) SiO2 
 PCOD9333218
Probable space group: I 21 21 21
;
_chemical_formula_sum "Si O2"
_cell_formula_units_Z 56
_cell_length_a 13.526914
_cell_length_b 20.342061
_cell_length_c 9.779266
_cell_angle_alpha 90.000000
_cell_angle_beta 90.000000
_cell_angle_gamma 90.000000
_cell_volume 2690.914758
_symmetry_space_group_name_H-M "I 21 21 21"
_symmetry_group_IT_number 24
_symmetry_cell_setting 'orthorhombic'
loop_
_space_group_symop_operation_xyz
x,y,z
-x,1/2-y,z
x,-y,1/2-z
1/2-x,y,-z
1/2+x,1/2+y,1/2+z
1/2-x,-y,1/2+z
1/2+x,1/2-y,-z
-x,1/2+y,1/2-z
loop_
_atom_site_type_symbol
_atom_site_label
_atom_site_fract_x
_atom_site_fract_y
_atom_site_fract_z
Si Si1 0.750000 0.945374 0.000000
Si Si2 0.564286 0.969734 0.606122
Si Si3 0.649971 0.696300 0.421110
Si Si4 0.663676 0.335299 0.406789
Si Si5 0.423778 0.658150 0.487151
Si Si6 0.930405 0.533510 0.886549
Si Si7 0.113199 0.375903 0.705855
Si Si8 0.500000 0.250000 0.391412
O O1 0.794885 0.897949 0.883411
O O2 0.662004 0.990726 0.942135
O O3 0.583343 0.891358 0.613827
O O4 0.534899 0.000000 0.750000
O O5 0.475443 0.985254 0.499319
O O6 0.750000 0.673571 0.500000
O O7 0.665845 0.682071 0.256790
O O8 0.541325 0.665855 0.453861
O O9 0.629252 0.771197 0.476530
O O10 0.750000 0.309426 0.500000
O O11 0.648225 0.412311 0.430290
O O12 0.568599 0.299233 0.469966
O O13 0.372457 0.616383 0.366150
O O14 0.891374 0.500000 0.750000
O O15 0.024445 0.576626 0.837678
O O16 0.072031 0.301264 0.687633
#
# Coordination Sequence:
#
# PCOD9333218 Si02
#       8
#     4   8   8   8   8   8   8   4
#     4  10  26  34  60 100 132 172 216 264 330 402
#     4  11  25  40  62  95 135 167 217 274 335 387
#     4  11  23  41  68  98 124 180 233 273 333 409
#     4  11  22  39  64  98 128 163 221 278 325 390
#     4  11  21  43  70  89 136 181 220 270 344 410
#     4  10  19  40  65  85 122 181 214 257 327 401
#     4  10  18  36  64  89 123 167 219 254 315 405
#     4  10  18  38  64  88 128 172 212 254 328 394
#
# _framework density 20.810766000000001
#
# number of rings (size 3 to 8) (size 9 to 14) (size 15 to 20)
#    0.000    1.429    5.714    0.000    4.000    1.143 
#    0.000    5.000    0.000    0.000    0.000    0.000 
#    0.000    0.000    0.000    0.000    0.000    0.000 
#
# Total GULP energy -155902.006606 kJ/mol
# GULP energy per Si atom -5567.928807 kJ/mol
# Density = 2.076340 g / cm^3
# Si number density = 20.810766 Si / 1000 Ang^3
#
#
#
# Elastic Constant Matrix: (Units=GPa)
#
#
# Indices 1 2 3 4 5 6 
#
# 1 87.2277 13.2000 26.1692 0.0000 0.0000 0.0000
# 2 13.2000 99.0541 22.7362 0.0000 0.0000 0.0000
# 3 26.1692 22.7362 50.9889 -0.0001 0.0000 0.0000
# 4 0.0000 0.0000 -0.0001 10.6977 0.0000 0.0000
# 5 0.0000 0.0000 0.0000 0.0000 26.1400 0.0000
# 6 0.0000 0.0000 0.0000 0.0000 0.0000 14.5164
#
#
#
# Elastic Compliance Matrix: (Units=1/GPa)
#
#
# Indices 1 2 3 4 5 6 
#
# 1 0.013556 -0.000233 -0.006853 0.000000 0.000000 0.000000
# 2 -0.000233 0.011251 -0.004897 0.000000 0.000000 0.000000
# 3 -0.006853 -0.004897 0.025313 0.000000 0.000000 0.000000
# 4 0.000000 0.000000 0.000000 0.093478 0.000000 0.000000
# 5 0.000000 0.000000 0.000000 0.000000 0.038256 0.000000
# 6 0.000000 0.000000 0.000000 0.000000 0.000000 0.068888
#
#
# Mechanical properties :
#
#
# Convention : Reuss Voigt Hill
#
# Bulk Modulus (GPa) = 38.23759 40.16459 39.20109
# Shear Modulus (GPa) = 17.64140 21.94851 19.79496
#
# Velocity S-wave (km/s) = 2.91470 3.25109 3.08748
# Velocity P-wave (km/s) = 5.45354 5.78227 5.62031
#
# Compressibility (1/GPa) = 0.02615227
#
# Stress axis : x y z
#
# Youngs Moduli (GPa) = 73.77045 88.88422 39.50557
#
# Poissons Ratio (x) = 0.02075 0.27073
# Poissons Ratio (y) = 0.01722 0.19345
# Poissons Ratio (z) = 0.50555 0.43526
#
# Static dielectric constant tensor:
#      x y z
#    x 1.765700 0.000000 0.000000 
#    y 0.000000 1.834250 0.000000 
#    z 0.000000 0.000000 1.783520 
# 
# From -- ./inp_files/13202.got.cif
#   From: 2010.05.17/outbox.cif.g08.bks.cpg/sg24_7_cif.got.tgz:13202.got - 2010.06.04 00:33:39.
