data_PCOD9333010
_publ_section_title
;
Structure prediction by ZEFSAII (Michael W. Deem and Ramdas Pophale) SiO2 
 PCOD9333010
Probable space group: I 21 21 21
;
_chemical_formula_sum "Si O2"
_cell_formula_units_Z 32
_cell_length_a 10.841373
_cell_length_b 7.425934
_cell_length_c 16.413406
_cell_angle_alpha 90.000000
_cell_angle_beta 90.000000
_cell_angle_gamma 90.000000
_cell_volume 1321.399335
_symmetry_space_group_name_H-M "I 21 21 21"
_symmetry_group_IT_number 24
_symmetry_cell_setting 'orthorhombic'
loop_
_space_group_symop_operation_xyz
x,y,z
-x,1/2-y,z
x,-y,1/2-z
1/2-x,y,-z
1/2+x,1/2+y,1/2+z
1/2-x,-y,1/2+z
1/2+x,1/2-y,-z
-x,1/2+y,1/2-z
loop_
_atom_site_type_symbol
_atom_site_label
_atom_site_fract_x
_atom_site_fract_y
_atom_site_fract_z
Si Si1 0.627611 0.298666 0.717933
Si Si2 0.191680 0.669109 0.390508
Si Si3 0.298098 0.920286 0.083563
Si Si4 0.942830 0.061595 0.948677
O O1 0.500000 0.250000 0.673683
O O2 0.610385 0.500000 0.750000
O O3 0.645707 0.177985 0.798399
O O4 0.745248 0.313895 0.660111
O O5 0.313234 0.548965 0.403074
O O6 0.093146 0.594921 0.456149
O O7 0.235472 0.876553 0.411410
O O8 0.444712 0.932471 0.072835
O O9 0.250000 0.836466 0.000000
O O10 0.000000 0.250000 0.919845
#
# Coordination Sequence:
#
# PCOD9333010 Si02
#       4
#     8   8   8   8
#     4  10  22  36  60  95 132 166 215 275 337 394
#     4   9  16  29  56  93 122 158 216 278 316 375
#     4  10  18  31  56  95 121 168 207 274 329 386
#     4   9  14  27  54  90 123 150 215 271 308 375
#
# _framework density 24.216750999999999
#
# number of rings (size 3 to 8) (size 9 to 14) (size 15 to 20)
#    0.000    2.500    5.000    0.750    3.500    0.000 
#    0.000    0.000    0.000   27.000    0.000    0.000 
#    0.000    0.000    0.000    0.000    0.000    0.000 
#
# Total GULP energy -89392.125117 kJ/mol
# GULP energy per Si atom -5587.007820 kJ/mol
# Density = 2.416163 g / cm^3
# Si number density = 24.216751 Si / 1000 Ang^3
#
#
#
# Elastic Constant Matrix: (Units=GPa)
#
#
# Indices 1 2 3 4 5 6 
#
# 1 193.0567 39.4515 75.1764 0.0000 0.0000 0.0000
# 2 39.4515 81.5021 45.4455 0.0000 0.0000 0.0000
# 3 75.1764 45.4455 119.1035 0.0000 0.0000 0.0000
# 4 0.0000 0.0000 0.0000 16.3750 0.0000 0.0000
# 5 0.0000 0.0000 0.0000 0.0000 33.2073 0.0000
# 6 0.0000 0.0000 0.0000 0.0000 0.0000 23.6012
#
#
#
# Elastic Compliance Matrix: (Units=1/GPa)
#
#
# Indices 1 2 3 4 5 6 
#
# 1 0.006954 -0.001167 -0.003944 0.000000 0.000000 0.000000
# 2 -0.001167 0.015781 -0.005285 0.000000 0.000000 0.000000
# 3 -0.003944 -0.005285 0.012902 0.000000 0.000000 0.000000
# 4 0.000000 0.000000 0.000000 0.061069 0.000000 0.000000
# 5 0.000000 0.000000 0.000000 0.000000 0.030114 0.000000
# 6 0.000000 0.000000 0.000000 0.000000 0.000000 0.042371
#
#
# Mechanical properties :
#
#
# Convention : Reuss Voigt Hill
#
# Bulk Modulus (GPa) = 67.36060 79.31212 73.33636
# Shear Modulus (GPa) = 25.65005 30.20930 27.92968
#
# Velocity S-wave (km/s) = 3.25804 3.53576 3.39974
# Velocity P-wave (km/s) = 6.48300 7.03497 6.76462
#
# Compressibility (1/GPa) = 0.01484547
#
# Stress axis : x y z
#
# Youngs Moduli (GPa) = 143.79971 63.36563 77.50699
#
# Poissons Ratio (x) = 0.07395 0.30569
# Poissons Ratio (y) = 0.16781 0.40963
# Poissons Ratio (z) = 0.56715 0.33489
#
# Static dielectric constant tensor:
#      x y z
#    x 2.012310 0.000000 0.000000 
#    y 0.000000 2.106510 0.000000 
#    z 0.000000 0.000000 1.906960 
# 
# From -- ./inp_files/20360.got.cif
#   From: 2010.05.17/outbox.cif.g08.bks.cpg/sg24_11_cif.got.tgz:20360.got - 2010.06.04 00:33:39.
