data_PCOD9333172
_publ_section_title
;
Structure prediction by ZEFSAII (Michael W. Deem and Ramdas Pophale) SiO2 
 PCOD9333172
Probable space group: I 21 21 21
;
_chemical_formula_sum "Si O2"
_cell_formula_units_Z 64
_cell_length_a 19.292641
_cell_length_b 15.645252
_cell_length_c 11.964644
_cell_angle_alpha 90.000000
_cell_angle_beta 90.000000
_cell_angle_gamma 90.000000
_cell_volume 3611.386970
_symmetry_space_group_name_H-M "I 21 21 21"
_symmetry_group_IT_number 24
_symmetry_cell_setting 'orthorhombic'
loop_
_space_group_symop_operation_xyz
x,y,z
-x,1/2-y,z
x,-y,1/2-z
1/2-x,y,-z
1/2+x,1/2+y,1/2+z
1/2-x,-y,1/2+z
1/2+x,1/2-y,-z
-x,1/2+y,1/2-z
loop_
_atom_site_type_symbol
_atom_site_label
_atom_site_fract_x
_atom_site_fract_y
_atom_site_fract_z
Si Si1 0.824195 0.847647 0.368199
Si Si2 0.907084 0.952054 0.544834
Si Si3 0.455301 0.877760 0.815131
Si Si4 0.170720 0.322641 0.813402
Si Si5 0.395242 0.304784 0.643356
Si Si6 0.444506 0.050402 0.932793
Si Si7 0.170120 0.179085 0.983573
Si Si8 0.322267 0.376390 0.438244
O O1 0.865727 0.918477 0.435731
O O2 0.741579 0.857857 0.370141
O O3 0.848972 0.844714 0.241170
O O4 0.841036 0.756835 0.427742
O O5 0.890712 0.882632 0.641105
O O6 0.987304 0.955191 0.510053
O O7 0.871458 0.041137 0.576211
O O8 0.410432 0.792934 0.827088
O O9 0.532158 0.855010 0.857291
O O10 0.461463 0.901905 0.684551
O O11 0.426182 0.955686 0.888552
O O12 0.183086 0.331897 0.682157
O O13 0.161934 0.227620 0.864388
O O14 0.359189 0.313792 0.525235
O O15 0.383849 0.103920 0.992367
O O16 0.250000 0.151311 0.000000
O O17 0.250000 0.400309 0.500000
#
# Coordination Sequence:
#
# PCOD9333172 Si02
#       8
#     8   8   8   8   8   8   8   8
#     4  10  18  35  56  89 119 152 193 244 297 345
#     4  11  22  34  56  89 123 154 201 240 293 358
#     4  10  22  36  59  91 122 140 191 253 309 347
#     4  10  22  37  55  84 122 166 200 237 290 351
#     4  11  20  36  58  85 120 153 189 244 299 361
#     4  11  20  37  62  92 114 151 192 249 306 354
#     4   9  20  38  64  88 114 143 200 257 298 346
#     4  12  23  37  57  84 124 165 198 238 291 359
#
# _framework density 17.721723999999998
#
# number of rings (size 3 to 8) (size 9 to 14) (size 15 to 20)
#    0.000    1.500    5.000    2.250    0.000    2.500 
#    0.000    3.125    0.000    0.000    0.000    0.000 
#    0.000    0.000    0.000    0.000    0.000    0.000 
#
# Total GULP energy -178544.128100 kJ/mol
# GULP energy per Si atom -5579.504003 kJ/mol
# Density = 1.768139 g / cm^3
# Si number density = 17.721724 Si / 1000 Ang^3
#
#
#
# Elastic Constant Matrix: (Units=GPa)
#
#
# Indices 1 2 3 4 5 6 
#
# 1 71.2717 31.9566 27.8441 0.0000 0.0000 0.0000
# 2 31.9566 66.8270 24.7118 0.0000 0.0000 0.0000
# 3 27.8441 24.7118 112.1809 0.0000 0.0000 0.0000
# 4 0.0000 0.0000 0.0000 19.4972 0.0000 0.0000
# 5 0.0000 0.0000 0.0000 0.0000 29.6796 0.0000
# 6 0.0000 0.0000 0.0000 0.0000 0.0000 22.6053
#
#
#
# Elastic Compliance Matrix: (Units=1/GPa)
#
#
# Indices 1 2 3 4 5 6 
#
# 1 0.018693 -0.007864 -0.002907 0.000000 0.000000 0.000000
# 2 -0.007864 0.019599 -0.002366 0.000000 0.000000 0.000000
# 3 -0.002907 -0.002366 0.010157 0.000000 0.000000 0.000000
# 4 0.000000 0.000000 0.000000 0.051289 0.000000 0.000000
# 5 0.000000 0.000000 0.000000 0.000000 0.033693 0.000000
# 6 0.000000 0.000000 0.000000 0.000000 0.000000 0.044237
#
#
# Mechanical properties :
#
#
# Convention : Reuss Voigt Hill
#
# Bulk Modulus (GPa) = 45.09504 46.58940 45.84222
# Shear Modulus (GPa) = 23.65927 25.40756 24.53342
#
# Velocity S-wave (km/s) = 3.65779 3.79053 3.72475
# Velocity P-wave (km/s) = 6.58336 6.74566 6.66501
#
# Compressibility (1/GPa) = 0.02217539
#
# Stress axis : x y z
#
# Youngs Moduli (GPa) = 53.49734 51.02259 98.45516
#
# Poissons Ratio (x) = 0.40122 0.28625
# Poissons Ratio (y) = 0.42068 0.23290
# Poissons Ratio (z) = 0.15554 0.12070
#
# Static dielectric constant tensor:
#      x y z
#    x 1.601980 0.000000 0.000000 
#    y 0.000000 1.598570 0.000000 
#    z 0.000000 0.000000 1.611360 
# 
# From -- ./inp_files/21715.got.cif
#   From: 2010.05.17/outbox.cif.g08.bks.cpg/sg24_11_cif.got.tgz:21715.got - 2010.06.04 00:33:39.
