data_PCOD9333924
_publ_section_title
;
Structure prediction by ZEFSAII (Michael W. Deem and Ramdas Pophale) SiO2 
 PCOD9333924
Probable space group: I 21 21 21
;
_chemical_formula_sum "Si O2"
_cell_formula_units_Z 40
_cell_length_a 12.473208
_cell_length_b 16.038837
_cell_length_c 8.886979
_cell_angle_alpha 90.000000
_cell_angle_beta 90.000000
_cell_angle_gamma 90.000000
_cell_volume 1777.891249
_symmetry_space_group_name_H-M "I 21 21 21"
_symmetry_group_IT_number 24
_symmetry_cell_setting 'orthorhombic'
loop_
_space_group_symop_operation_xyz
x,y,z
-x,1/2-y,z
x,-y,1/2-z
1/2-x,y,-z
1/2+x,1/2+y,1/2+z
1/2-x,-y,1/2+z
1/2+x,1/2-y,-z
-x,1/2+y,1/2-z
loop_
_atom_site_type_symbol
_atom_site_label
_atom_site_fract_x
_atom_site_fract_y
_atom_site_fract_z
Si Si1 0.488675 0.500000 0.750000
Si Si2 0.868661 0.404248 0.016704
Si Si3 0.435226 0.827097 0.235734
Si Si4 0.500000 0.750000 0.954990
Si Si5 0.720327 0.916043 0.825592
Si Si6 0.200771 0.760460 0.266513
O O1 0.561856 0.544062 0.630057
O O2 0.406779 0.566440 0.819190
O O3 0.929704 0.398528 0.858576
O O4 0.750000 0.441527 0.000000
O O5 0.845766 0.312488 0.092033
O O6 0.500000 0.750000 0.310759
O O7 0.309219 0.806240 0.212740
O O8 0.492723 0.827271 0.074344
O O9 0.394343 0.756668 0.855059
O O10 0.738545 0.835428 0.721375
O O11 0.768907 0.000000 0.750000
O O12 0.750000 0.903406 0.000000
#
# Coordination Sequence:
#
# PCOD9333924 Si02
#       6
#     4   8   8   4   8   8
#     4  10  24  44  68  92 140 176 220 278 344 388
#     4  10  23  44  70  97 128 180 231 279 334 399
#     4   9  22  35  62 103 127 162 226 276 320 403
#     4  10  20  32  64  96 132 166 210 280 330 394
#     4  10  24  40  63  95 132 177 212 266 339 403
#     4  11  21  41  66  95 133 172 221 275 339 396
#
# _framework density 22.498563999999998
#
# number of rings (size 3 to 8) (size 9 to 14) (size 15 to 20)
#    1.200    0.800    0.000    3.000    4.200    4.000 
#    0.000    9.000    0.000    0.000    0.000    0.000 
#    0.000    0.000    0.000    0.000    0.000    0.000 
#
# Total GULP energy -111460.365378 kJ/mol
# GULP energy per Si atom -5573.018269 kJ/mol
# Density = 2.244736 g / cm^3
# Si number density = 22.498564 Si / 1000 Ang^3
#
#
#
# Elastic Constant Matrix: (Units=GPa)
#
#
# Indices 1 2 3 4 5 6 
#
# 1 105.5826 -7.3268 51.5434 0.0000 0.0000 0.0000
# 2 -7.3268 39.9928 11.0204 0.0000 0.0000 0.0000
# 3 51.5434 11.0204 88.0610 0.0000 0.0000 0.0000
# 4 0.0000 0.0000 0.0000 -576.8149 0.0000 0.0000
# 5 0.0000 0.0000 0.0000 0.0000 54.6703 0.0000
# 6 0.0000 0.0000 0.0000 0.0000 0.0000 15.5561
#
#
#
# Elastic Compliance Matrix: (Units=1/GPa)
#
#
# Indices 1 2 3 4 5 6 
#
# 1 0.014185 0.005061 -0.008936 0.000000 0.000000 0.000000
# 2 0.005061 0.027703 -0.006429 0.000000 0.000000 0.000000
# 3 -0.008936 -0.006429 0.017391 0.000000 0.000000 0.000000
# 4 0.000000 0.000000 0.000000 -0.001734 0.000000 0.000000
# 5 0.000000 0.000000 0.000000 0.000000 0.018291 0.000000
# 6 0.000000 0.000000 0.000000 0.000000 0.000000 0.064283
#
#
# Mechanical properties :
#
#
# Convention : Reuss Voigt Hill
#
# Bulk Modulus (GPa) = 25.85946 38.23450 32.04698
# Shear Modulus (GPa) = 28.79877 -89.42439 -30.31281
#
# Velocity S-wave (km/s) = 3.58163 -6.31134 -3.67457
# Velocity P-wave (km/s) = 5.35003 6.00663 1.93090
#
# Compressibility (1/GPa) = 0.03867057
#
# Stress axis : x y z
#
# Youngs Moduli (GPa) = 70.49789 36.09677 57.50206
#
# Poissons Ratio (x) = -0.18269 0.51384
# Poissons Ratio (y) = -0.35679 0.36969
# Poissons Ratio (z) = 0.62997 0.23207
#
# Static dielectric constant tensor:
#      x y z
#    x 1.905840 0.000000 0.000000 
#    y 0.000000 1.921260 0.000000 
#    z 0.000000 0.000000 1.816660 
# 
# From -- ./inp_files/10768.got.cif
#   From: 2010.05.17/outbox.cif.g08.bks.cpg/sg24_6_cif.got.tgz:10768.got - 2010.06.04 00:33:39.
