data_PCOD9333237
_publ_section_title
;
Structure prediction by ZEFSAII (Michael W. Deem and Ramdas Pophale) SiO2 
 PCOD9333237
Probable space group: I 21 21 21
;
_chemical_formula_sum "Si O2"
_cell_formula_units_Z 40
_cell_length_a 10.726857
_cell_length_b 18.240465
_cell_length_c 10.882680
_cell_angle_alpha 90.000000
_cell_angle_beta 90.000000
_cell_angle_gamma 90.000000
_cell_volume 2129.336290
_symmetry_space_group_name_H-M "I 21 21 21"
_symmetry_group_IT_number 24
_symmetry_cell_setting 'orthorhombic'
loop_
_space_group_symop_operation_xyz
x,y,z
-x,1/2-y,z
x,-y,1/2-z
1/2-x,y,-z
1/2+x,1/2+y,1/2+z
1/2-x,-y,1/2+z
1/2+x,1/2-y,-z
-x,1/2+y,1/2-z
loop_
_atom_site_type_symbol
_atom_site_label
_atom_site_fract_x
_atom_site_fract_y
_atom_site_fract_z
Si Si1 0.419529 0.116664 0.605959
Si Si2 0.370471 0.090359 0.351194
Si Si3 0.883503 0.579617 0.573145
Si Si4 0.872565 0.870549 0.420143
Si Si5 0.000000 0.250000 0.226061
Si Si6 0.080385 0.500000 0.250000
O O1 0.438089 0.133070 0.461761
O O2 0.276823 0.096740 0.629138
O O3 0.446962 0.186343 0.688761
O O4 0.497487 0.047396 0.655294
O O5 0.391407 0.113889 0.210630
O O6 0.398649 0.005937 0.388753
O O7 0.750000 0.588549 0.500000
O O8 0.998950 0.607751 0.491328
O O9 0.750000 0.864829 0.500000
O O10 0.899950 0.792898 0.356129
O O11 0.848752 0.937079 0.324425
#
# Coordination Sequence:
#
# PCOD9333237 Si02
#       6
#     8   8   8   8   4   4
#     4  10  18  37  59  92 119 163 208 252 309 366
#     4  10  19  31  62  93 121 151 209 264 303 352
#     4  11  19  35  63  98 122 152 206 268 308 353
#     4  11  24  41  63  92 125 166 206 255 314 371
#     4  10  24  40  62  80 132 176 206 238 312 384
#     4  10  18  38  62  84 122 160 202 258 314 366
#
# _framework density 18.785197
#
# number of rings (size 3 to 8) (size 9 to 14) (size 15 to 20)
#    0.000    1.600    4.000    3.600    0.000    4.000 
#    0.000    5.000    8.800    0.000    0.000    0.000 
#    0.000    0.000    0.000    0.000    0.000    0.000 
#
# Total GULP energy -111412.582205 kJ/mol
# GULP energy per Si atom -5570.629110 kJ/mol
# Density = 1.874244 g / cm^3
# Si number density = 18.785197 Si / 1000 Ang^3
#
#
#
# Elastic Constant Matrix: (Units=GPa)
#
#
# Indices 1 2 3 4 5 6 
#
# 1 65.7031 27.1619 39.9437 0.0000 0.0000 0.0000
# 2 27.1619 82.7243 33.1065 0.0000 0.0000 0.0000
# 3 39.9437 33.1065 143.9257 0.0002 -0.0001 0.0000
# 4 0.0000 0.0000 0.0002 13.5825 0.0000 0.0000
# 5 0.0000 0.0000 -0.0001 0.0000 26.4793 0.0000
# 6 0.0000 0.0000 0.0000 0.0000 0.0000 4.1888
#
#
#
# Elastic Compliance Matrix: (Units=1/GPa)
#
#
# Indices 1 2 3 4 5 6 
#
# 1 0.019874 -0.004756 -0.004422 0.000000 0.000000 0.000000
# 2 -0.004756 0.014452 -0.002004 0.000000 0.000000 0.000000
# 3 -0.004422 -0.002004 0.008636 0.000000 0.000000 0.000000
# 4 0.000000 0.000000 0.000000 0.073624 0.000000 0.000000
# 5 0.000000 0.000000 0.000000 0.000000 0.037765 0.000000
# 6 0.000000 0.000000 0.000000 0.000000 0.000000 0.238732
#
#
# Mechanical properties :
#
#
# Convention : Reuss Voigt Hill
#
# Bulk Modulus (GPa) = 48.54741 54.75301 51.65021
# Shear Modulus (GPa) = 11.83952 21.65951 16.74952
#
# Velocity S-wave (km/s) = 2.51322 3.39928 2.98926
# Velocity P-wave (km/s) = 5.85843 6.67960 6.28244
#
# Compressibility (1/GPa) = 0.02059842
#
# Stress axis : x y z
#
# Youngs Moduli (GPa) = 50.31631 69.19405 115.79102
#
# Poissons Ratio (x) = 0.32909 0.51199
# Poissons Ratio (y) = 0.23930 0.23209
# Poissons Ratio (z) = 0.22248 0.13869
#
# Static dielectric constant tensor:
#      x y z
#    x 1.624750 0.000000 0.000000 
#    y 0.000000 1.730840 0.000000 
#    z 0.000000 0.000000 1.765840 
# 
# From -- ./inp_files/18260.got.cif
#   From: 2010.05.17/outbox.cif.g08.bks.cpg/sg24_10_cif.got.tgz:18260.got - 2010.06.04 00:33:39.
