data_PCOD9333096
_publ_section_title
;
Structure prediction by ZEFSAII (Michael W. Deem and Ramdas Pophale) SiO2 
 PCOD9333096
Probable space group: I 21 21 21
;
_chemical_formula_sum "Si O2"
_cell_formula_units_Z 56
_cell_length_a 16.130437
_cell_length_b 20.290265
_cell_length_c 8.547081
_cell_angle_alpha 90.000000
_cell_angle_beta 90.000000
_cell_angle_gamma 90.000000
_cell_volume 2797.381331
_symmetry_space_group_name_H-M "I 21 21 21"
_symmetry_group_IT_number 24
_symmetry_cell_setting 'orthorhombic'
loop_
_space_group_symop_operation_xyz
x,y,z
-x,1/2-y,z
x,-y,1/2-z
1/2-x,y,-z
1/2+x,1/2+y,1/2+z
1/2-x,-y,1/2+z
1/2+x,1/2-y,-z
-x,1/2+y,1/2-z
loop_
_atom_site_type_symbol
_atom_site_label
_atom_site_fract_x
_atom_site_fract_y
_atom_site_fract_z
Si Si1 0.282584 0.758716 0.343494
Si Si2 0.550699 0.681610 0.353823
Si Si3 0.530533 0.325276 0.785883
Si Si4 0.662592 0.728775 0.919849
Si Si5 0.220600 0.607081 0.666539
Si Si6 0.448011 0.567478 0.192878
Si Si7 0.121590 0.374262 0.387136
O O1 0.250000 0.791234 0.500000
O O2 0.359852 0.799606 0.281379
O O3 0.198974 0.752137 0.248377
O O4 0.308166 0.682972 0.365810
O O5 0.500000 0.750000 0.353959
O O6 0.560335 0.660116 0.537004
O O7 0.504548 0.627847 0.250576
O O8 0.500000 0.250000 0.790625
O O9 0.593033 0.323586 0.634230
O O10 0.448664 0.366020 0.744456
O O11 0.632437 0.801743 0.975084
O O12 0.750000 0.708155 0.000000
O O13 0.250000 0.580644 0.500000
O O14 0.138722 0.570916 0.716593
O O15 0.291949 0.606839 0.801309
O O16 0.489545 0.500000 0.250000
O O17 0.417766 0.577018 0.014638
#
# Coordination Sequence:
#
# PCOD9333096 Si02
#       7
#     8   8   8   8   8   8   8
#     4  10  18  33  57  91 120 152 199 251 308 368
#     4  11  21  37  61  86 121 162 203 254 309 368
#     4   9  19  34  54  87 121 155 197 250 313 361
#     4  10  19  30  53  89 125 149 187 253 317 367
#     4  10  20  37  61  86 122 162 203 246 301 364
#     4  12  26  40  57  88 124 170 211 248 302 367
#     4  10  21  37  55  82 126 162 201 251 294 372
#
# _framework density 20.018722
#
# number of rings (size 3 to 8) (size 9 to 14) (size 15 to 20)
#    0.000    1.714    2.857    3.000    6.000    1.714 
#    0.000    2.143    0.000    0.000    3.714    0.000 
#    0.000    0.000    0.000    0.000    0.000    0.000 
#
# Total GULP energy -155899.402456 kJ/mol
# GULP energy per Si atom -5567.835802 kJ/mol
# Density = 1.997316 g / cm^3
# Si number density = 20.018722 Si / 1000 Ang^3
#
#
#
# Elastic Constant Matrix: (Units=GPa)
#
#
# Indices 1 2 3 4 5 6 
#
# 1 75.8957 21.5987 2.0438 0.0000 0.0000 0.0000
# 2 21.5987 54.3739 11.2841 0.0000 0.0000 0.0000
# 3 2.0438 11.2841 52.4830 0.0000 0.0000 0.0000
# 4 0.0000 0.0000 0.0000 8.9971 0.0000 0.0000
# 5 0.0000 0.0000 0.0000 0.0000 35.2246 0.0000
# 6 0.0000 0.0000 0.0000 0.0000 0.0000 13.5875
#
#
#
# Elastic Compliance Matrix: (Units=1/GPa)
#
#
# Indices 1 2 3 4 5 6 
#
# 1 0.014881 -0.006061 0.000724 0.000000 0.000000 0.000000
# 2 -0.006061 0.021719 -0.004434 0.000000 0.000000 0.000000
# 3 0.000724 -0.004434 0.019979 0.000000 0.000000 0.000000
# 4 0.000000 0.000000 0.000000 0.111147 0.000000 0.000000
# 5 0.000000 0.000000 0.000000 0.000000 0.028389 0.000000
# 6 0.000000 0.000000 0.000000 0.000000 0.000000 0.073597
#
#
# Mechanical properties :
#
#
# Convention : Reuss Voigt Hill
#
# Bulk Modulus (GPa) = 27.00033 28.06731 27.53382
# Shear Modulus (GPa) = 16.57820 21.41691 18.99755
#
# Velocity S-wave (km/s) = 2.88085 3.27440 3.08391
# Velocity P-wave (km/s) = 4.95808 5.32414 5.14437
#
# Compressibility (1/GPa) = 0.03703658
#
# Stress axis : x y z
#
# Youngs Moduli (GPa) = 67.19759 46.04255 50.05292
#
# Poissons Ratio (x) = 0.27909 -0.03622
# Poissons Ratio (y) = 0.40732 0.22192
# Poissons Ratio (z) = -0.04863 0.20414
#
# Static dielectric constant tensor:
#      x y z
#    x 1.740300 0.000000 0.000000 
#    y 0.000000 1.757640 0.000000 
#    z 0.000000 0.000000 1.851060 
# 
# From -- ./inp_files/13130.got.cif
#   From: 2010.05.17/outbox.cif.g08.bks.cpg/sg24_7_cif.got.tgz:13130.got - 2010.06.04 00:33:39.
