data_PCOD9333865
_publ_section_title
;
Structure prediction by ZEFSAII (Michael W. Deem and Ramdas Pophale) SiO2 
 PCOD9333865
Probable space group: I 21 21 21
;
_chemical_formula_sum "Si O2"
_cell_formula_units_Z 48
_cell_length_a 4.889426
_cell_length_b 23.599770
_cell_length_c 24.025901
_cell_angle_alpha 90.000000
_cell_angle_beta 90.000000
_cell_angle_gamma 90.000000
_cell_volume 2772.332596
_symmetry_space_group_name_H-M "I 21 21 21"
_symmetry_group_IT_number 24
_symmetry_cell_setting 'orthorhombic'
loop_
_space_group_symop_operation_xyz
x,y,z
-x,1/2-y,z
x,-y,1/2-z
1/2-x,y,-z
1/2+x,1/2+y,1/2+z
1/2-x,-y,1/2+z
1/2+x,1/2-y,-z
-x,1/2+y,1/2-z
loop_
_atom_site_type_symbol
_atom_site_label
_atom_site_fract_x
_atom_site_fract_y
_atom_site_fract_z
Si Si1 0.535827 0.814562 0.837226
Si Si2 0.737995 0.507973 0.348633
Si Si3 0.763510 0.948226 0.708040
Si Si4 0.514210 0.155522 0.538568
Si Si5 0.512925 0.974155 0.961408
Si Si6 0.453268 0.115326 0.301955
O O1 0.500000 0.750000 0.819027
O O2 0.453923 0.817079 0.902277
O O3 0.328793 0.851041 0.799889
O O4 0.832279 0.844664 0.834693
O O5 0.455664 0.542483 0.345626
O O6 0.905492 0.503148 0.405544
O O7 0.643198 0.443902 0.331414
O O8 0.947905 0.540692 0.307175
O O9 0.884916 0.897283 0.744556
O O10 0.825243 0.000000 0.750000
O O11 0.250000 0.154119 0.500000
O O12 0.602038 0.090375 0.552663
O O13 0.750000 0.181922 0.500000
O O14 0.250000 0.969783 0.000000
O O15 0.750000 0.000214 0.000000
#
# Coordination Sequence:
#
# PCOD9333865 Si02
#       6
#     8   8   8   8   8   8
#     4  12  24  37  54  72  96 137 178 222 277 307
#     4  11  19  33  53  74  97 127 165 207 253 308
#     4  10  20  31  52  76  93 122 160 206 266 302
#     4  10  21  34  50  66  91 131 178 227 270 296
#     4  10  20  30  47  71  99 132 164 202 256 302
#     4  11  22  37  53  73 104 125 166 227 260 312
#
# _framework density 17.313939000000001
#
# number of rings (size 3 to 8) (size 9 to 14) (size 15 to 20)
#    0.000    1.333    1.667    7.000    4.667    0.667 
#    0.000    0.000    0.000    0.000    0.000    0.000 
#    0.000    0.000    0.000    0.000    0.000  210.000 
#
# Total GULP energy -133675.891551 kJ/mol
# GULP energy per Si atom -5569.828815 kJ/mol
# Density = 1.727453 g / cm^3
# Si number density = 17.313939 Si / 1000 Ang^3
#
#
#
# Elastic Constant Matrix: (Units=GPa)
#
#
# Indices 1 2 3 4 5 6 
#
# 1 110.3720 14.0774 15.5297 0.0000 0.0000 0.0000
# 2 14.0774 33.2008 17.5344 0.0000 0.0000 0.0000
# 3 15.5297 17.5344 48.0703 0.0000 0.0000 0.0000
# 4 0.0000 0.0000 0.0000 12.5774 0.0000 0.0000
# 5 0.0000 0.0000 0.0000 0.0000 32.5622 0.0000
# 6 0.0000 0.0000 0.0000 0.0000 0.0000 8.8387
#
#
#
# Elastic Compliance Matrix: (Units=1/GPa)
#
#
# Indices 1 2 3 4 5 6 
#
# 1 0.009736 -0.003056 -0.002031 0.000000 0.000000 0.000000
# 2 -0.003056 0.038266 -0.012971 0.000000 0.000000 0.000000
# 3 -0.002031 -0.012971 0.026190 0.000000 0.000000 0.000000
# 4 0.000000 0.000000 0.000000 0.079508 0.000000 0.000000
# 5 0.000000 0.000000 0.000000 0.000000 0.030710 0.000000
# 6 0.000000 0.000000 0.000000 0.000000 0.000000 0.113139
#
#
# Mechanical properties :
#
#
# Convention : Reuss Voigt Hill
#
# Bulk Modulus (GPa) = 26.26228 31.76957 29.01593
# Shear Modulus (GPa) = 14.43604 20.42910 17.43257
#
# Velocity S-wave (km/s) = 2.89066 3.43873 3.17654
# Velocity P-wave (km/s) = 5.13249 5.84426 5.49990
#
# Compressibility (1/GPa) = 0.03807742
#
# Stress axis : x y z
#
# Youngs Moduli (GPa) = 102.71463 26.13306 38.18216
#
# Poissons Ratio (x) = 0.07985 0.07754
# Poissons Ratio (y) = 0.31385 0.49526
# Poissons Ratio (z) = 0.20858 0.33897
#
# Static dielectric constant tensor:
#      x y z
#    x 1.674560 0.000000 0.000000 
#    y 0.000000 1.630190 0.000000 
#    z 0.000000 0.000000 1.629540 
# 
# From -- ./inp_files/32228.got.cif
#   From: 2010.05.17/outbox.cif.g08.bks.cpg/sg24_17_cif.got.tgz:32228.got - 2010.06.04 00:33:39.
