data_PCOD9333496
_publ_section_title
;
Structure prediction by ZEFSAII (Michael W. Deem and Ramdas Pophale) SiO2 
 PCOD9333496
Probable space group: I 21 21 21
;
_chemical_formula_sum "Si O2"
_cell_formula_units_Z 48
_cell_length_a 14.566686
_cell_length_b 17.472718
_cell_length_c 9.103854
_cell_angle_alpha 90.000000
_cell_angle_beta 90.000000
_cell_angle_gamma 90.000000
_cell_volume 2317.109248
_symmetry_space_group_name_H-M "I 21 21 21"
_symmetry_group_IT_number 24
_symmetry_cell_setting 'orthorhombic'
loop_
_space_group_symop_operation_xyz
x,y,z
-x,1/2-y,z
x,-y,1/2-z
1/2-x,y,-z
1/2+x,1/2+y,1/2+z
1/2-x,-y,1/2+z
1/2+x,1/2-y,-z
-x,1/2+y,1/2-z
loop_
_atom_site_type_symbol
_atom_site_label
_atom_site_fract_x
_atom_site_fract_y
_atom_site_fract_z
Si Si1 0.750000 0.932601 0.000000
Si Si2 0.083672 0.836014 0.207614
Si Si3 0.860069 0.644564 0.519766
Si Si4 0.875855 0.000000 0.750000
Si Si5 0.985472 0.631640 0.787441
Si Si6 0.358406 0.036987 0.514552
Si Si7 0.897438 0.811248 0.055787
O O1 0.819798 0.873670 0.076087
O O2 0.689258 0.980553 0.112949
O O3 0.099911 0.816813 0.375004
O O4 0.116354 0.920800 0.166070
O O5 0.131752 0.774579 0.097999
O O6 0.977496 0.830883 0.169280
O O7 0.750000 0.656179 0.500000
O O8 0.917199 0.667940 0.665778
O O9 0.875907 0.552817 0.505843
O O10 0.942605 0.071583 0.782973
O O11 0.918221 0.582572 0.893822
O O12 0.052416 0.680215 0.896916
O O13 0.250000 0.048048 0.500000
#
# Coordination Sequence:
#
# PCOD9333496 Si02
#       7
#     4   8   8   4   8   8   8
#     4  10  22  40  66  88 116 156 216 252 304 362
#     4  10  21  38  59  86 126 161 199 242 304 361
#     4  11  21  35  61  97 126 154 201 254 302 354
#     4  10  20  38  62  92 116 154 202 264 302 350
#     4  10  19  38  61  88 126 155 199 253 310 363
#     4  10  19  33  59  93 124 162 196 237 295 367
#     4   9  22  42  60  84 118 167 207 240 303 378
#
# _framework density 20.715468000000001
#
# number of rings (size 3 to 8) (size 9 to 14) (size 15 to 20)
#    0.000    2.000    1.667    1.500    1.167    4.000 
#    3.000    6.667    9.167    0.000    0.000    0.000 
#    0.000    0.000    0.000    0.000    0.000    0.000 
#
# Total GULP energy -133817.687705 kJ/mol
# GULP energy per Si atom -5575.736988 kJ/mol
# Density = 2.066832 g / cm^3
# Si number density = 20.715468 Si / 1000 Ang^3
#
#
#
# Elastic Constant Matrix: (Units=GPa)
#
#
# Indices 1 2 3 4 5 6 
#
# 1 90.1911 21.2690 49.3755 0.0000 0.0000 0.0000
# 2 21.2690 52.3879 16.7915 0.0000 0.0000 0.0000
# 3 49.3755 16.7915 110.6803 0.0000 0.0000 0.0000
# 4 0.0000 0.0000 0.0000 20.0860 0.0000 0.0000
# 5 0.0000 0.0000 0.0000 0.0000 31.7621 0.0000
# 6 0.0000 0.0000 0.0000 0.0000 0.0000 8.3653
#
#
#
# Elastic Compliance Matrix: (Units=1/GPa)
#
#
# Indices 1 2 3 4 5 6 
#
# 1 0.015539 -0.004296 -0.006280 0.000000 0.000000 0.000000
# 2 -0.004296 0.021252 -0.001308 0.000000 0.000000 0.000000
# 3 -0.006280 -0.001308 0.012035 0.000000 0.000000 0.000000
# 4 0.000000 0.000000 0.000000 0.049786 0.000000 0.000000
# 5 0.000000 0.000000 0.000000 0.000000 0.031484 0.000000
# 6 0.000000 0.000000 0.000000 0.000000 0.000000 0.119542
#
#
# Mechanical properties :
#
#
# Convention : Reuss Voigt Hill
#
# Bulk Modulus (GPa) = 39.90738 47.57014 43.73876
# Shear Modulus (GPa) = 17.74578 23.09758 20.42168
#
# Velocity S-wave (km/s) = 2.93002 3.34277 3.14318
# Velocity P-wave (km/s) = 5.54555 6.15729 5.85941
#
# Compressibility (1/GPa) = 0.02505802
#
# Stress axis : x y z
#
# Youngs Moduli (GPa) = 64.35535 47.05547 83.09016
#
# Poissons Ratio (x) = 0.20213 0.52183
# Poissons Ratio (y) = 0.27645 0.10866
# Poissons Ratio (z) = 0.40417 0.06154
#
# Static dielectric constant tensor:
#      x y z
#    x 1.778890 0.000000 0.000000 
#    y 0.000000 1.828170 0.000000 
#    z 0.000000 0.000000 1.767540 
# 
# From -- ./inp_files/12844.got.cif
#   From: 2010.05.17/outbox.cif.g08.bks.cpg/sg24_7_cif.got.tgz:12844.got - 2010.06.04 00:33:39.
