data_PCOD9333296
_publ_section_title
;
Structure prediction by ZEFSAII (Michael W. Deem and Ramdas Pophale) SiO2 
 PCOD9333296
Probable space group: I 21 21 21
;
_chemical_formula_sum "Si O2"
_cell_formula_units_Z 44
_cell_length_a 14.734190
_cell_length_b 7.113891
_cell_length_c 17.007996
_cell_angle_alpha 90.000000
_cell_angle_beta 90.000000
_cell_angle_gamma 90.000000
_cell_volume 1782.734288
_symmetry_space_group_name_H-M "I 21 21 21"
_symmetry_group_IT_number 24
_symmetry_cell_setting 'orthorhombic'
loop_
_space_group_symop_operation_xyz
x,y,z
-x,1/2-y,z
x,-y,1/2-z
1/2-x,y,-z
1/2+x,1/2+y,1/2+z
1/2-x,-y,1/2+z
1/2+x,1/2-y,-z
-x,1/2+y,1/2-z
loop_
_atom_site_type_symbol
_atom_site_label
_atom_site_fract_x
_atom_site_fract_y
_atom_site_fract_z
Si Si1 0.600959 0.693845 0.130745
Si Si2 0.000000 0.750000 0.574271
Si Si3 0.250000 0.828297 0.000000
Si Si4 0.343253 0.215827 0.784193
Si Si5 0.590344 0.557976 0.568678
Si Si6 0.000000 0.750000 0.167924
Si Si7 0.137410 0.757272 0.693193
O O1 0.500000 0.750000 0.100917
O O2 0.623159 0.473990 0.159564
O O3 0.605514 0.779773 0.218411
O O4 0.677422 0.753827 0.065187
O O5 0.947493 0.617710 0.514110
O O6 0.926118 0.847025 0.630511
O O7 0.315269 0.952926 0.945777
O O8 0.413018 0.297623 0.721331
O O9 0.243198 0.288619 0.800820
O O10 0.332381 0.000000 0.750000
O O11 0.390750 0.219575 0.868856
O O12 0.523373 0.420555 0.612520
#
# Coordination Sequence:
#
# PCOD9333296 Si02
#       7
#     8   4   4   8   8   4   8
#     4  11  22  39  69 102 134 175 233 285 335 414
#     4  12  23  38  67 100 138 176 238 282 347 423
#     4  12  22  40  66 104 134 176 232 278 348 412
#     4  10  18  39  68  98 129 178 234 282 340 420
#     4  11  22  39  66 103 134 177 231 291 341 415
#     4  10  23  38  69 102 136 176 240 286 347 409
#     4  11  21  41  66 101 129 185 229 279 346 425
#
# _framework density 24.681189
#
# number of rings (size 3 to 8) (size 9 to 14) (size 15 to 20)
#    0.000    1.091    6.364    1.636    1.273    0.000 
#    0.000    0.000    0.000   41.455    0.000    0.000 
#    0.000    0.000    0.000    0.000    0.000    0.000 
#
# Total GULP energy -122845.849144 kJ/mol
# GULP energy per Si atom -5583.902234 kJ/mol
# Density = 2.462501 g / cm^3
# Si number density = 24.681189 Si / 1000 Ang^3
#
#
#
# Elastic Constant Matrix: (Units=GPa)
#
#
# Indices 1 2 3 4 5 6 
#
# 1 229.0216 39.1276 101.8066 0.0000 0.0000 0.0000
# 2 39.1276 42.5237 29.5630 0.0000 0.0000 0.0000
# 3 101.8066 29.5630 231.7373 0.0000 0.0000 0.0000
# 4 0.0000 0.0000 0.0000 -4.5311 0.0000 0.0000
# 5 0.0000 0.0000 0.0000 0.0000 -27.4158 0.0000
# 6 0.0000 0.0000 0.0000 0.0000 0.0000 379.5986
#
#
#
# Elastic Compliance Matrix: (Units=1/GPa)
#
#
# Indices 1 2 3 4 5 6 
#
# 1 0.006000 -0.004047 -0.002120 0.000000 0.000000 0.000000
# 2 -0.004047 0.028535 -0.001862 0.000000 0.000000 0.000000
# 3 -0.002120 -0.001862 0.005484 0.000000 0.000000 0.000000
# 4 0.000000 0.000000 0.000000 -0.220699 0.000000 0.000000
# 5 0.000000 0.000000 0.000000 0.000000 -0.036475 0.000000
# 6 0.000000 0.000000 0.000000 0.000000 0.000000 0.002634
#
#
# Mechanical properties :
#
#
# Convention : Reuss Voigt Hill
#
# Bulk Modulus (GPa) = 41.73485 93.80857 67.77171
# Shear Modulus (GPa) = -26.25005 91.71603 32.73299
#
# Velocity S-wave (km/s) = -3.26477 6.10254 3.64570
# Velocity P-wave (km/s) = 1.65367 9.36724 6.72606
#
# Compressibility (1/GPa) = 0.02396079
#
# Stress axis : x y z
#
# Youngs Moduli (GPa) = 166.66348 35.04472 182.34896
#
# Poissons Ratio (x) = 0.14184 0.38651
# Poissons Ratio (y) = 0.67454 0.33957
# Poissons Ratio (z) = 0.35327 0.06526
#
# Static dielectric constant tensor:
#      x y z
#    x 2.057660 0.000000 0.000000 
#    y 0.000000 2.313160 0.000000 
#    z 0.000000 0.000000 1.888680 
# 
# From -- ./inp_files/30182.got.cif
#   From: 2010.05.17/outbox.cif.g08.bks.cpg/sg24_16_cif.got.tgz:30182.got - 2010.06.04 00:33:39.
