data_PCOD9333014
_publ_section_title
;
Structure prediction by ZEFSAII (Michael W. Deem and Ramdas Pophale) SiO2 
 PCOD9333014
Probable space group: I 21 21 21
;
_chemical_formula_sum "Si O2"
_cell_formula_units_Z 64
_cell_length_a 14.539394
_cell_length_b 9.423166
_cell_length_c 24.605122
_cell_angle_alpha 90.000000
_cell_angle_beta 90.000000
_cell_angle_gamma 90.000000
_cell_volume 3371.076981
_symmetry_space_group_name_H-M "I 21 21 21"
_symmetry_group_IT_number 24
_symmetry_cell_setting 'orthorhombic'
loop_
_space_group_symop_operation_xyz
x,y,z
-x,1/2-y,z
x,-y,1/2-z
1/2-x,y,-z
1/2+x,1/2+y,1/2+z
1/2-x,-y,1/2+z
1/2+x,1/2-y,-z
-x,1/2+y,1/2-z
loop_
_atom_site_type_symbol
_atom_site_label
_atom_site_fract_x
_atom_site_fract_y
_atom_site_fract_z
Si Si1 0.855002 0.380304 0.506312
Si Si2 0.643547 0.963383 0.002854
Si Si3 0.405488 0.655971 0.276694
Si Si4 0.558716 0.882463 0.392189
Si Si5 0.570081 0.617292 0.124167
Si Si6 0.004104 0.922999 0.083007
Si Si7 0.275606 0.859332 0.212873
Si Si8 0.439558 0.109325 0.700887
O O1 0.750000 0.421079 0.500000
O O2 0.860463 0.208144 0.507105
O O3 0.900059 0.418446 0.563135
O O4 0.911839 0.448316 0.457698
O O5 0.584143 0.988350 0.947981
O O6 0.750000 0.005557 0.000000
O O7 0.602113 0.033856 0.057327
O O8 0.500000 0.750000 0.269089
O O9 0.417081 0.500000 0.250000
O O10 0.378655 0.659849 0.341008
O O11 0.321000 0.730869 0.245851
O O12 0.500000 0.750000 0.412910
O O13 0.488970 0.983161 0.358786
O O14 0.500000 0.750000 0.125871
O O15 0.660339 0.634080 0.159726
O O16 0.026050 0.962254 0.144617
O O17 0.000000 0.750000 0.084529
O O18 0.168347 0.847786 0.197283
O O19 0.285909 0.000000 0.250000
O O20 0.500000 0.250000 0.709805
O O21 0.449349 0.000000 0.750000
#
# Coordination Sequence:
#
# PCOD9333014 Si02
#       8
#     8   8   8   8   8   8   8   8
#     4  10  18  31  58  91 114 145 197 254 299 348
#     4  10  20  37  60  87 119 155 199 246 305 363
#     4  11  22  38  58  90 127 162 200 244 307 372
#     4  11  22  37  57  83 130 163 189 242 306 365
#     4  12  20  35  61  90 119 152 204 247 296 370
#     4   9  17  37  59  86 117 150 194 258 309 344
#     4  11  23  39  60  86 121 164 204 252 307 362
#     4  10  23  44  65  88 120 160 208 261 312 358
#
# _framework density 18.985030999999999
#
# number of rings (size 3 to 8) (size 9 to 14) (size 15 to 20)
#    0.000    1.500    2.500    4.875    0.000    1.500 
#    2.250    1.250    2.750    0.000    0.000    0.000 
#    0.000    0.000    0.000    0.000    0.000    0.000 
#
# Total GULP energy -178455.364221 kJ/mol
# GULP energy per Si atom -5576.730132 kJ/mol
# Density = 1.894182 g / cm^3
# Si number density = 18.985031 Si / 1000 Ang^3
#
#
#
# Elastic Constant Matrix: (Units=GPa)
#
#
# Indices 1 2 3 4 5 6 
#
# 1 135.4109 34.5053 71.9719 0.0000 0.0000 0.0000
# 2 34.5053 57.5963 18.1796 0.0000 0.0000 0.0000
# 3 71.9719 18.1796 150.1190 0.0000 0.0000 0.0000
# 4 0.0000 0.0000 0.0000 17.2377 0.0000 0.0000
# 5 0.0000 0.0000 0.0000 0.0000 27.9091 0.0000
# 6 0.0000 0.0000 0.0000 0.0000 0.0000 -1.8592
#
#
#
# Elastic Compliance Matrix: (Units=1/GPa)
#
#
# Indices 1 2 3 4 5 6 
#
# 1 0.011249 -0.005237 -0.004759 0.000000 0.000000 0.000000
# 2 -0.005237 0.020490 0.000029 0.000000 0.000000 0.000000
# 3 -0.004759 0.000029 0.008939 0.000000 0.000000 0.000000
# 4 0.000000 0.000000 0.000000 0.058012 0.000000 0.000000
# 5 0.000000 0.000000 0.000000 0.000000 0.035831 0.000000
# 6 0.000000 0.000000 0.000000 0.000000 0.000000 -0.537861
#
#
# Mechanical properties :
#
#
# Convention : Reuss Voigt Hill
#
# Bulk Modulus (GPa) = 48.20287 65.82664 57.01475
# Shear Modulus (GPa) = -13.28051 23.22216 4.97082
#
# Velocity S-wave (km/s) = -2.64772 3.50120 1.61987
# Velocity P-wave (km/s) = 4.01221 7.14792 5.79614
#
# Compressibility (1/GPa) = 0.02074565
#
# Stress axis : x y z
#
# Youngs Moduli (GPa) = 88.89878 48.80346 111.86496
#
# Poissons Ratio (x) = 0.25558 0.53234
# Poissons Ratio (y) = 0.46556 -0.00328
# Poissons Ratio (z) = 0.42305 -0.00143
#
# Static dielectric constant tensor:
#      x y z
#    x 1.683380 0.000000 0.000000 
#    y 0.000000 1.648680 0.000000 
#    z 0.000000 0.000000 1.688490 
# 
# From -- ./inp_files/35846.got.cif
#   From: 2010.05.17/outbox.cif.g08.bks.cpg/sg24_18_cif.got.tgz:35846.got - 2010.06.04 00:33:39.
