data_PCOD9333478
_publ_section_title
;
Structure prediction by ZEFSAII (Michael W. Deem and Ramdas Pophale) SiO2 
 PCOD9333478
Probable space group: I 21 21 21
;
_chemical_formula_sum "Si O2"
_cell_formula_units_Z 56
_cell_length_a 14.468657
_cell_length_b 9.386706
_cell_length_c 21.276449
_cell_angle_alpha 90.000000
_cell_angle_beta 90.000000
_cell_angle_gamma 90.000000
_cell_volume 2889.618995
_symmetry_space_group_name_H-M "I 21 21 21"
_symmetry_group_IT_number 24
_symmetry_cell_setting 'orthorhombic'
loop_
_space_group_symop_operation_xyz
x,y,z
-x,1/2-y,z
x,-y,1/2-z
1/2-x,y,-z
1/2+x,1/2+y,1/2+z
1/2-x,-y,1/2+z
1/2+x,1/2-y,-z
-x,1/2+y,1/2-z
loop_
_atom_site_type_symbol
_atom_site_label
_atom_site_fract_x
_atom_site_fract_y
_atom_site_fract_z
Si Si1 0.949615 0.898043 0.062834
Si Si2 0.572222 0.363039 0.888216
Si Si3 0.250736 0.289816 0.424257
Si Si4 0.418538 0.504639 0.423230
Si Si5 0.271761 0.974107 0.373554
Si Si6 0.156124 0.224322 0.978536
Si Si7 0.958912 0.588948 0.688222
O O1 0.846002 0.871033 0.086410
O O2 0.000000 0.750000 0.056102
O O3 0.948765 0.965712 0.993530
O O4 0.012037 0.995609 0.106240
O O5 0.500000 0.250000 0.859887
O O6 0.672534 0.400295 0.860249
O O7 0.598421 0.309620 0.959307
O O8 0.250000 0.258355 0.500000
O O9 0.334891 0.396690 0.409279
O O10 0.259009 0.142881 0.385482
O O11 0.390722 0.669844 0.430038
O O12 0.496299 0.505131 0.370843
O O13 0.309723 0.912584 0.440351
O O14 0.348908 0.924832 0.323969
O O15 0.250000 0.303172 0.000000
O O16 0.983282 0.500000 0.750000
O O17 0.000000 0.750000 0.692179
#
# Coordination Sequence:
#
# PCOD9333478 Si02
#       7
#     8   8   8   8   8   8   8
#     4  11  21  33  54  92 132 167 202 234 297 389
#     4  11  21  33  58  90 126 166 200 242 304 384
#     4  10  22  35  55  91 134 173 203 237 305 388
#     4  11  23  37  58  85 125 169 205 259 309 368
#     4  11  23  39  58  86 124 165 204 263 310 367
#     4  10  19  33  55  85 126 165 200 237 304 379
#     4  12  29  47  67  89 116 162 228 278 323 363
#
# _framework density 19.379718
#
# number of rings (size 3 to 8) (size 9 to 14) (size 15 to 20)
#    0.000    1.143    4.286    3.429   10.000    0.000 
#    0.000    0.000    0.000    0.000    3.714    0.000 
#    0.000    0.000    0.000    0.000    0.000    0.000 
#
# Total GULP energy -156269.510701 kJ/mol
# GULP energy per Si atom -5581.053954 kJ/mol
# Density = 1.933561 g / cm^3
# Si number density = 19.379718 Si / 1000 Ang^3
#
#
#
# Elastic Constant Matrix: (Units=GPa)
#
#
# Indices 1 2 3 4 5 6 
#
# 1 148.4254 55.3451 21.3618 0.0000 0.0000 0.0000
# 2 55.3451 100.0223 17.6237 0.0000 0.0000 0.0000
# 3 21.3618 17.6237 22.6175 0.0000 0.0000 0.0000
# 4 0.0000 0.0000 0.0000 17.6835 0.0000 0.0000
# 5 0.0000 0.0000 0.0000 0.0000 9.5741 0.0000
# 6 0.0000 0.0000 0.0000 0.0000 0.0000 385.4023
#
#
#
# Elastic Compliance Matrix: (Units=1/GPa)
#
#
# Indices 1 2 3 4 5 6 
#
# 1 0.009018 -0.004044 -0.005366 0.000000 0.000000 0.000000
# 2 -0.004044 0.013403 -0.006624 0.000000 0.000000 0.000000
# 3 -0.005366 -0.006624 0.054443 0.000000 0.000000 0.000000
# 4 0.000000 0.000000 0.000000 0.056550 0.000000 0.000000
# 5 0.000000 0.000000 0.000000 0.000000 0.104448 0.000000
# 6 0.000000 0.000000 0.000000 0.000000 0.000000 0.002595
#
#
# Mechanical properties :
#
#
# Convention : Reuss Voigt Hill
#
# Bulk Modulus (GPa) = 22.32364 51.08071 36.70218
# Shear Modulus (GPa) = 17.39405 94.31428 55.85417
#
# Velocity S-wave (km/s) = 2.99915 6.98371 5.37434
# Velocity P-wave (km/s) = 4.85152 9.56267 7.58228
#
# Compressibility (1/GPa) = 0.04479556
#
# Stress axis : x y z
#
# Youngs Moduli (GPa) = 110.89319 74.61193 18.36799
#
# Poissons Ratio (x) = 0.30175 0.09856
# Poissons Ratio (y) = 0.44849 0.12166
# Poissons Ratio (z) = 0.59502 0.49421
#
# Static dielectric constant tensor:
#      x y z
#    x 1.732580 0.000000 0.000000 
#    y 0.000000 1.644640 0.000000 
#    z 0.000000 0.000000 0.970850 
# 
# From -- ./inp_files/27540.got.cif
#   From: 2010.05.17/outbox.cif.g08.bks.cpg/sg24_14_cif.got.tgz:27540.got - 2010.06.04 00:33:39.
