data_PCOD9333940
_publ_section_title
;
Structure prediction by ZEFSAII (Michael W. Deem and Ramdas Pophale) SiO2 
 PCOD9333940
Probable space group: I 21 21 21
;
_chemical_formula_sum "Si O2"
_cell_formula_units_Z 56
_cell_length_a 23.807831
_cell_length_b 7.830694
_cell_length_c 14.647367
_cell_angle_alpha 90.000000
_cell_angle_beta 90.000000
_cell_angle_gamma 90.000000
_cell_volume 2730.735572
_symmetry_space_group_name_H-M "I 21 21 21"
_symmetry_group_IT_number 24
_symmetry_cell_setting 'orthorhombic'
loop_
_space_group_symop_operation_xyz
x,y,z
-x,1/2-y,z
x,-y,1/2-z
1/2-x,y,-z
1/2+x,1/2+y,1/2+z
1/2-x,-y,1/2+z
1/2+x,1/2-y,-z
-x,1/2+y,1/2-z
loop_
_atom_site_type_symbol
_atom_site_label
_atom_site_fract_x
_atom_site_fract_y
_atom_site_fract_z
Si Si1 0.881958 0.064753 0.560077
Si Si2 0.283446 0.577019 0.346401
Si Si3 0.008037 0.452186 0.851479
Si Si4 0.188009 0.051368 0.022142
Si Si5 0.817374 0.176094 0.390969
Si Si6 0.619246 0.430391 0.351653
Si Si7 0.188610 0.816610 0.296289
O O1 0.865921 0.109090 0.456779
O O2 0.869839 0.231632 0.624012
O O3 0.837776 0.920536 0.591106
O O4 0.945363 0.011365 0.577432
O O5 0.301619 0.500000 0.250000
O O6 0.236435 0.449375 0.389640
O O7 0.250318 0.746226 0.318902
O O8 0.029325 0.500000 0.750000
O O9 0.947603 0.540265 0.862318
O O10 0.000000 0.250000 0.855628
O O11 0.151964 0.028809 0.931589
O O12 0.250000 0.119933 0.000000
O O13 0.197466 0.861713 0.066523
O O14 0.160813 0.161311 0.104457
O O15 0.834516 0.198483 0.284877
O O16 0.633706 0.500000 0.250000
O O17 0.191798 0.000000 0.250000
#
# Coordination Sequence:
#
# PCOD9333940 Si02
#       7
#     8   8   8   8   8   8   8
#     4  11  21  37  59  83 115 155 197 235 286 348
#     4  10  20  33  52  79 113 152 191 233 283 347
#     4  11  23  39  57  82 116 153 194 239 287 345
#     4  10  20  33  55  85 117 155 193 233 285 347
#     4   9  19  36  55  81 117 153 188 237 291 345
#     4  10  22  39  59  84 120 159 196 240 293 347
#     4   9  20  37  55  82 119 153 189 237 297 351
#
# _framework density 20.507296
#
# number of rings (size 3 to 8) (size 9 to 14) (size 15 to 20)
#    0.000    2.000    0.000    4.714    0.000    7.429 
#    0.000    2.143    0.000    0.000    0.000   39.000 
#    0.000    0.000    0.000    0.000    0.000    0.000 
#
# Total GULP energy -156386.191959 kJ/mol
# GULP energy per Si atom -5585.221141 kJ/mol
# Density = 2.046062 g / cm^3
# Si number density = 20.507296 Si / 1000 Ang^3
#
#
#
# Elastic Constant Matrix: (Units=GPa)
#
#
# Indices 1 2 3 4 5 6 
#
# 1 77.4702 4.5704 65.3719 0.0000 0.0000 0.0000
# 2 4.5704 48.3311 25.0267 0.0000 0.0000 0.0000
# 3 65.3719 25.0267 179.4843 0.0000 0.0000 0.0000
# 4 0.0000 0.0000 0.0000 23.5328 0.0000 0.0000
# 5 0.0000 0.0000 0.0000 0.0000 28.6168 0.0000
# 6 0.0000 0.0000 0.0000 0.0000 0.0000 9.8910
#
#
#
# Elastic Compliance Matrix: (Units=1/GPa)
#
#
# Indices 1 2 3 4 5 6 
#
# 1 0.018797 0.001905 -0.007112 0.000000 0.000000 0.000000
# 2 0.001905 0.022494 -0.003830 0.000000 0.000000 0.000000
# 3 -0.007112 -0.003830 0.008696 0.000000 0.000000 0.000000
# 4 0.000000 0.000000 0.000000 0.042494 0.000000 0.000000
# 5 0.000000 0.000000 0.000000 0.000000 0.034944 0.000000
# 6 0.000000 0.000000 0.000000 0.000000 0.000000 0.101102
#
#
# Mechanical properties :
#
#
# Convention : Reuss Voigt Hill
#
# Bulk Modulus (GPa) = 31.33557 55.02483 43.18020
# Shear Modulus (GPa) = 19.43720 26.42924 22.93322
#
# Velocity S-wave (km/s) = 3.08201 3.59384 3.34772
# Velocity P-wave (km/s) = 5.28946 6.64161 6.00372
#
# Compressibility (1/GPa) = 0.03191262
#
# Stress axis : x y z
#
# Youngs Moduli (GPa) = 53.19978 44.45648 114.99636
#
# Poissons Ratio (x) = -0.08470 0.81785
# Poissons Ratio (y) = -0.10135 0.44048
# Poissons Ratio (z) = 0.37835 0.17029
#
# Static dielectric constant tensor:
#      x y z
#    x 1.670820 0.000000 0.000000 
#    y 0.000000 1.852320 0.000000 
#    z 0.000000 0.000000 1.774540 
# 
# From -- ./inp_files/27571.got.cif
#   From: 2010.05.17/outbox.cif.g08.bks.cpg/sg24_14_cif.got.tgz:27571.got - 2010.06.04 00:33:39.
