data_PCOD9333730
_publ_section_title
;
Structure prediction by ZEFSAII (Michael W. Deem and Ramdas Pophale) SiO2 
 PCOD9333730
Probable space group: I 21 21 21
;
_chemical_formula_sum "Si O2"
_cell_formula_units_Z 48
_cell_length_a 9.069133
_cell_length_b 14.065317
_cell_length_c 18.161984
_cell_angle_alpha 90.000000
_cell_angle_beta 90.000000
_cell_angle_gamma 90.000000
_cell_volume 2316.746866
_symmetry_space_group_name_H-M "I 21 21 21"
_symmetry_group_IT_number 24
_symmetry_cell_setting 'orthorhombic'
loop_
_space_group_symop_operation_xyz
x,y,z
-x,1/2-y,z
x,-y,1/2-z
1/2-x,y,-z
1/2+x,1/2+y,1/2+z
1/2-x,-y,1/2+z
1/2+x,1/2-y,-z
-x,1/2+y,1/2-z
loop_
_atom_site_type_symbol
_atom_site_label
_atom_site_fract_x
_atom_site_fract_y
_atom_site_fract_z
Si Si1 0.349737 0.687479 0.126245
Si Si2 0.932616 0.453331 0.579306
Si Si3 0.274495 0.394622 0.775037
Si Si4 0.750000 0.683444 0.000000
Si Si5 0.527905 0.358695 0.146108
Si Si6 0.000000 0.250000 0.236270
Si Si7 0.762093 0.602109 0.223170
O O1 0.500000 0.750000 0.137135
O O2 0.406027 0.587676 0.094601
O O3 0.273619 0.661930 0.201667
O O4 0.252451 0.746452 0.069212
O O5 0.882324 0.391537 0.509454
O O6 0.924694 0.566709 0.582993
O O7 0.827873 0.419379 0.648087
O O8 0.320930 0.500000 0.750000
O O9 0.397593 0.324384 0.808559
O O10 0.126014 0.399003 0.822330
O O11 0.500000 0.250000 0.124569
O O12 0.645627 0.363733 0.213689
O O13 0.895224 0.323373 0.280879
O O14 0.818921 0.500000 0.250000
#
# Coordination Sequence:
#
# PCOD9333730 Si02
#       7
#     8   8   8   4   8   4   8
#     4  10  19  37  59  87 125 166 222 260 312 388
#     4  10  20  39  61  89 123 166 230 273 305 402
#     4  12  21  36  60  93 124 172 210 277 331 389
#     4  10  22  34  56  88 132 164 192 264 326 376
#     4  11  19  36  69  94 114 160 227 280 328 371
#     4  12  22  30  48  82 138 160 194 242 340 416
#     4  10  20  36  56  89 127 167 200 272 333 391
#
# _framework density 20.718707999999999
#
# number of rings (size 3 to 8) (size 9 to 14) (size 15 to 20)
#    0.000    1.333    5.000    3.500    0.000    0.000 
#   18.000    0.000    0.000    1.000    8.667    0.000 
#    0.000    0.000    0.000    0.000    0.000    0.000 
#
# Total GULP energy -133729.107288 kJ/mol
# GULP energy per Si atom -5572.046137 kJ/mol
# Density = 2.067155 g / cm^3
# Si number density = 20.718708 Si / 1000 Ang^3
#
#
#
# Elastic Constant Matrix: (Units=GPa)
#
#
# Indices 1 2 3 4 5 6 
#
# 1 67.3041 39.0755 9.2756 0.0000 0.0000 0.0000
# 2 39.0755 185.0836 30.9786 0.0000 0.0000 0.0000
# 3 9.2756 30.9786 37.7740 0.0000 0.0000 0.0000
# 4 0.0000 0.0000 0.0000 28.7580 0.0000 0.0000
# 5 0.0000 0.0000 0.0000 0.0000 15.9749 0.0000
# 6 0.0000 0.0000 0.0000 0.0000 0.0000 33.1659
#
#
#
# Elastic Compliance Matrix: (Units=1/GPa)
#
#
# Indices 1 2 3 4 5 6 
#
# 1 0.017000 -0.003350 -0.001427 0.000000 0.000000 0.000000
# 2 -0.003350 0.006923 -0.004855 0.000000 0.000000 0.000000
# 3 -0.001427 -0.004855 0.030805 0.000000 0.000000 0.000000
# 4 0.000000 0.000000 0.000000 0.034773 0.000000 0.000000
# 5 0.000000 0.000000 0.000000 0.000000 0.062598 0.000000
# 6 0.000000 0.000000 0.000000 0.000000 0.000000 0.030151
#
#
# Mechanical properties :
#
#
# Convention : Reuss Voigt Hill
#
# Bulk Modulus (GPa) = 28.19773 49.86900 39.03336
# Shear Modulus (GPa) = 23.43731 29.63523 26.53627
#
# Velocity S-wave (km/s) = 3.36700 3.78611 3.58269
# Velocity P-wave (km/s) = 5.36236 6.57531 5.99957
#
# Compressibility (1/GPa) = 0.03546385
#
# Stress axis : x y z
#
# Youngs Moduli (GPa) = 58.82481 144.44924 32.46223
#
# Poissons Ratio (x) = 0.48393 0.04632
# Poissons Ratio (y) = 0.19708 0.15760
# Poissons Ratio (z) = 0.08393 0.70127
#
# Static dielectric constant tensor:
#      x y z
#    x 1.851110 0.000000 0.000000 
#    y 0.000000 1.804700 0.000000 
#    z 0.000000 0.000000 1.763310 
# 
# From -- ./inp_files/15930.got.cif
#   From: 2010.05.17/outbox.cif.g08.bks.cpg/sg24_8_cif.got.tgz:15930.got - 2010.06.04 00:33:39.
