data_PCOD9333823
_publ_section_title
;
Structure prediction by ZEFSAII (Michael W. Deem and Ramdas Pophale) SiO2 
 PCOD9333823
Probable space group: I 21 21 21
;
_chemical_formula_sum "Si O2"
_cell_formula_units_Z 48
_cell_length_a 17.379913
_cell_length_b 8.893111
_cell_length_c 14.150594
_cell_angle_alpha 90.000000
_cell_angle_beta 90.000000
_cell_angle_gamma 90.000000
_cell_volume 2187.136971
_symmetry_space_group_name_H-M "I 21 21 21"
_symmetry_group_IT_number 24
_symmetry_cell_setting 'orthorhombic'
loop_
_space_group_symop_operation_xyz
x,y,z
-x,1/2-y,z
x,-y,1/2-z
1/2-x,y,-z
1/2+x,1/2+y,1/2+z
1/2-x,-y,1/2+z
1/2+x,1/2-y,-z
-x,1/2+y,1/2-z
loop_
_atom_site_type_symbol
_atom_site_label
_atom_site_fract_x
_atom_site_fract_y
_atom_site_fract_z
Si Si1 0.338199 0.114141 0.029571
Si Si2 0.532801 0.088150 0.450789
Si Si3 0.327940 0.790740 0.057817
Si Si4 0.181968 0.500000 0.250000
Si Si5 0.819840 0.241849 0.766158
Si Si6 0.046945 0.500000 0.750000
Si Si7 0.568661 0.152276 0.899498
O O1 0.331596 0.169491 0.137315
O O2 0.367278 0.942292 0.017794
O O3 0.250000 0.105841 0.000000
O O4 0.380850 0.232638 0.962360
O O5 0.500000 0.250000 0.476683
O O6 0.623370 0.136709 0.442361
O O7 0.503971 0.034731 0.347522
O O8 0.528213 0.958397 0.526178
O O9 0.316115 0.830211 0.167817
O O10 0.250000 0.764693 0.000000
O O11 0.243091 0.638485 0.256300
O O12 0.123027 0.548490 0.333835
O O13 0.896400 0.139566 0.765461
O O14 0.500000 0.250000 0.850912
#
# Coordination Sequence:
#
# PCOD9333823 Si02
#       7
#     8   8   8   4   8   4   8
#     4  11  21  40  66  98 131 169 224 284 343 402
#     4  11  23  42  62  90 128 177 217 269 339 412
#     4  10  22  38  63 100 136 168 214 276 339 405
#     4  11  24  42  70  98 128 183 238 282 343 414
#     4  10  19  39  67  99 125 169 221 283 335 409
#     4   9  20  36  60  94 124 157 216 268 341 402
#     4  12  26  44  67  96 135 183 231 289 350 419
#
# _framework density 21.9465
#
# number of rings (size 3 to 8) (size 9 to 14) (size 15 to 20)
#    0.000    1.333    3.333    2.500    0.000    2.000 
#    6.000    3.333    0.000    0.000    0.000    0.000 
#    0.000    0.000    0.000    0.000    0.000    0.000 
#
# Total GULP energy -133863.010343 kJ/mol
# GULP energy per Si atom -5577.625431 kJ/mol
# Density = 2.189655 g / cm^3
# Si number density = 21.946500 Si / 1000 Ang^3
#
#
#
# Elastic Constant Matrix: (Units=GPa)
#
#
# Indices 1 2 3 4 5 6 
#
# 1 70.6544 13.4715 9.0975 0.0000 0.0000 0.0000
# 2 13.4715 74.9958 14.2857 0.0000 0.0000 0.0000
# 3 9.0975 14.2857 60.9863 0.0000 0.0000 0.0000
# 4 0.0000 0.0000 0.0000 9.6931 0.0000 0.0000
# 5 0.0000 0.0000 0.0000 0.0000 16.8389 0.0000
# 6 0.0000 0.0000 0.0000 0.0000 0.0000 23.0528
#
#
#
# Elastic Compliance Matrix: (Units=1/GPa)
#
#
# Indices 1 2 3 4 5 6 
#
# 1 0.014814 -0.002345 -0.001661 0.000000 0.000000 0.000000
# 2 -0.002345 0.014328 -0.003006 0.000000 0.000000 0.000000
# 3 -0.001661 -0.003006 0.017349 0.000000 0.000000 0.000000
# 4 0.000000 0.000000 0.000000 0.103166 0.000000 0.000000
# 5 0.000000 0.000000 0.000000 0.000000 0.059386 0.000000
# 6 0.000000 0.000000 0.000000 0.000000 0.000000 0.043379
#
#
# Mechanical properties :
#
#
# Convention : Reuss Voigt Hill
#
# Bulk Modulus (GPa) = 30.79992 31.14953 30.97473
# Shear Modulus (GPa) = 18.03306 21.23576 19.63441
#
# Velocity S-wave (km/s) = 2.86961 3.11403 2.99431
# Velocity P-wave (km/s) = 5.00441 5.21093 5.10871
#
# Compressibility (1/GPa) = 0.03246761
#
# Stress axis : x y z
#
# Youngs Moduli (GPa) = 67.50233 69.79364 57.63990
#
# Poissons Ratio (x) = 0.16365 0.09572
# Poissons Ratio (y) = 0.15828 0.17329
# Poissons Ratio (z) = 0.11210 0.20983
#
# Static dielectric constant tensor:
#      x y z
#    x 1.880040 0.000000 0.000000 
#    y 0.000000 1.830720 0.000000 
#    z 0.000000 0.000000 1.773140 
# 
# From -- ./inp_files/12856.got.cif
#   From: 2010.05.17/outbox.cif.g08.bks.cpg/sg24_7_cif.got.tgz:12856.got - 2010.06.04 00:33:39.
