data_PCOD9333697
_publ_section_title
;
Structure prediction by ZEFSAII (Michael W. Deem and Ramdas Pophale) SiO2 
 PCOD9333697
Probable space group: I 21 21 21
;
_chemical_formula_sum "Si O2"
_cell_formula_units_Z 44
_cell_length_a 11.738367
_cell_length_b 14.871711
_cell_length_c 13.632948
_cell_angle_alpha 90.000000
_cell_angle_beta 90.000000
_cell_angle_gamma 90.000000
_cell_volume 2379.898301
_symmetry_space_group_name_H-M "I 21 21 21"
_symmetry_group_IT_number 24
_symmetry_cell_setting 'orthorhombic'
loop_
_space_group_symop_operation_xyz
x,y,z
-x,1/2-y,z
x,-y,1/2-z
1/2-x,y,-z
1/2+x,1/2+y,1/2+z
1/2-x,-y,1/2+z
1/2+x,1/2-y,-z
-x,1/2+y,1/2-z
loop_
_atom_site_type_symbol
_atom_site_label
_atom_site_fract_x
_atom_site_fract_y
_atom_site_fract_z
Si Si1 0.886090 0.204388 0.733048
Si Si2 0.010120 0.566827 0.924496
Si Si3 0.865792 0.000000 0.250000
Si Si4 0.804500 0.079338 0.898412
Si Si5 0.229185 0.138794 0.612159
Si Si6 0.485521 0.141564 0.643375
O O1 0.927877 0.131737 0.653263
O O2 0.821730 0.158029 0.821136
O O3 0.814511 0.278734 0.676362
O O4 0.000000 0.250000 0.773122
O O5 0.077011 0.473205 0.917172
O O6 0.875675 0.568075 0.895631
O O7 0.020189 0.609611 0.033154
O O8 0.784581 0.985836 0.343555
O O9 0.941829 0.913386 0.223055
O O10 0.750000 0.108540 0.000000
O O11 0.250000 0.169521 0.500000
O O12 0.352850 0.112596 0.651901
O O13 0.500000 0.250000 0.650502
#
# Coordination Sequence:
#
# PCOD9333697 Si02
#       6
#     8   8   4   8   8   8
#     4  10  20  37  60  92 115 155 208 250 302 360
#     4  10  19  36  63  91 116 154 201 260 302 350
#     4  12  24  40  60  90 128 164 204 252 310 372
#     4  12  23  38  61  86 124 160 205 252 305 367
#     4   9  19  36  61  91 122 147 197 259 308 354
#     4  11  22  38  61  93 127 160 201 254 315 368
#
# _framework density 18.488184
#
# number of rings (size 3 to 8) (size 9 to 14) (size 15 to 20)
#    0.000    1.455    3.636    3.818    0.000    0.727 
#    6.545    2.727    0.000    0.000    0.000    0.000 
#    0.000    0.000    0.000    0.000    0.000    0.000 
#
# Total GULP energy -122751.422230 kJ/mol
# GULP energy per Si atom -5579.610101 kJ/mol
# Density = 1.844610 g / cm^3
# Si number density = 18.488184 Si / 1000 Ang^3
#
#
#
# Elastic Constant Matrix: (Units=GPa)
#
#
# Indices 1 2 3 4 5 6 
#
# 1 122.2023 39.6616 52.4090 0.0000 0.0000 0.0000
# 2 39.6616 49.2347 18.9624 -0.0001 0.0000 0.0000
# 3 52.4090 18.9624 69.0808 -0.0001 0.0000 0.0000
# 4 0.0000 -0.0001 -0.0001 24.3420 0.0000 0.0000
# 5 0.0000 0.0000 0.0000 0.0000 27.9336 0.0000
# 6 0.0000 0.0000 0.0000 0.0000 0.0000 25.5030
#
#
#
# Elastic Compliance Matrix: (Units=1/GPa)
#
#
# Indices 1 2 3 4 5 6 
#
# 1 0.014721 -0.008450 -0.008848 0.000000 0.000000 0.000000
# 2 -0.008450 0.027563 -0.001155 0.000000 0.000000 0.000000
# 3 -0.008848 -0.001155 0.021506 0.000000 0.000000 0.000000
# 4 0.000000 0.000000 0.000000 0.041081 0.000000 0.000000
# 5 0.000000 0.000000 0.000000 0.000000 0.035799 0.000000
# 6 0.000000 0.000000 0.000000 0.000000 0.000000 0.039211
#
#
# Mechanical properties :
#
#
# Convention : Reuss Voigt Hill
#
# Bulk Modulus (GPa) = 37.19967 51.39818 44.29893
# Shear Modulus (GPa) = 22.14849 24.18803 23.16826
#
# Velocity S-wave (km/s) = 3.46494 3.62096 3.54381
# Velocity P-wave (km/s) = 6.01433 6.73370 6.38416
#
# Compressibility (1/GPa) = 0.02688196
#
# Stress axis : x y z
#
# Youngs Moduli (GPa) = 67.93196 36.28043 46.49928
#
# Poissons Ratio (x) = 0.30659 0.41144
# Poissons Ratio (y) = 0.57406 0.05370
# Poissons Ratio (z) = 0.60109 0.04190
#
# Static dielectric constant tensor:
#      x y z
#    x 1.692540 0.000000 0.000000 
#    y 0.000000 1.650510 0.000000 
#    z 0.000000 0.000000 1.611580 
# 
# From -- ./inp_files/19612.got.cif
#   From: 2010.05.17/outbox.cif.g08.bks.cpg/sg24_10_cif.got.tgz:19612.got - 2010.06.04 00:33:39.
