data_PCOD9333059
_publ_section_title
;
Structure prediction by ZEFSAII (Michael W. Deem and Ramdas Pophale) SiO2 
 PCOD9333059
Probable space group: I 21 21 21
;
_chemical_formula_sum "Si O2"
_cell_formula_units_Z 32
_cell_length_a 8.445710
_cell_length_b 13.260585
_cell_length_c 14.694498
_cell_angle_alpha 90.000000
_cell_angle_beta 90.000000
_cell_angle_gamma 90.000000
_cell_volume 1645.711117
_symmetry_space_group_name_H-M "I 21 21 21"
_symmetry_group_IT_number 24
_symmetry_cell_setting 'orthorhombic'
loop_
_space_group_symop_operation_xyz
x,y,z
-x,1/2-y,z
x,-y,1/2-z
1/2-x,y,-z
1/2+x,1/2+y,1/2+z
1/2-x,-y,1/2+z
1/2+x,1/2-y,-z
-x,1/2+y,1/2-z
loop_
_atom_site_type_symbol
_atom_site_label
_atom_site_fract_x
_atom_site_fract_y
_atom_site_fract_z
Si Si1 0.824573 0.702879 0.598027
Si Si2 0.182681 0.961469 0.899518
Si Si3 0.178481 0.216049 0.289303
Si Si4 0.614221 0.163070 0.431193
O O1 0.750000 0.729355 0.500000
O O2 0.997106 0.422526 0.602736
O O3 0.720289 0.734947 0.684288
O O4 0.000000 0.750000 0.604723
O O5 0.178024 0.081335 0.892731
O O6 0.283219 0.897533 0.825734
O O7 0.250000 0.935485 0.000000
O O8 0.298001 0.283351 0.348287
O O9 0.000000 0.250000 0.306657
O O10 0.500000 0.250000 0.473497
O O11 0.750000 0.129057 0.500000
#
# Coordination Sequence:
#
# PCOD9333059 Si02
#       4
#     8   8   8   8
#     4  11  24  42  59  79 113 157 198 233 274 331
#     4  10  21  37  59  86 117 149 185 235 288 339
#     4  11  21  37  60  86 116 148 186 237 292 341
#     4  10  18  32  57  89 118 142 179 235 297 349
#
# _framework density 19.444481
#
# number of rings (size 3 to 8) (size 9 to 14) (size 15 to 20)
#    0.000    1.500    0.000    9.000    0.000    1.000 
#    0.000    5.000    0.000    0.000    0.000    0.000 
#    0.000    0.000    0.000    0.000    0.000    0.000 
#
# Total GULP energy -89337.784072 kJ/mol
# GULP energy per Si atom -5583.611504 kJ/mol
# Density = 1.940022 g / cm^3
# Si number density = 19.444481 Si / 1000 Ang^3
#
#
#
# Elastic Constant Matrix: (Units=GPa)
#
#
# Indices 1 2 3 4 5 6 
#
# 1 143.7516 37.8112 47.0124 0.0000 0.0000 0.0000
# 2 37.8112 43.4833 30.3806 0.0000 0.0000 0.0000
# 3 47.0124 30.3806 126.2827 0.0000 0.0000 0.0000
# 4 0.0000 0.0000 0.0000 -11.0811 0.0000 0.0000
# 5 0.0000 0.0000 0.0000 0.0000 24.7092 0.0000
# 6 0.0000 0.0000 0.0000 0.0000 0.0000 15.7179
#
#
#
# Elastic Compliance Matrix: (Units=1/GPa)
#
#
# Indices 1 2 3 4 5 6 
#
# 1 0.009360 -0.006857 -0.001835 0.000000 0.000000 0.000000
# 2 -0.006857 0.032667 -0.005306 0.000000 0.000000 0.000000
# 3 -0.001835 -0.005306 0.009878 0.000000 0.000000 0.000000
# 4 0.000000 0.000000 0.000000 -0.090244 0.000000 0.000000
# 5 0.000000 0.000000 0.000000 0.000000 0.040471 0.000000
# 6 0.000000 0.000000 0.000000 0.000000 0.000000 0.063622
#
#
# Mechanical properties :
#
#
# Convention : Reuss Voigt Hill
#
# Bulk Modulus (GPa) = 41.82477 60.43622 51.13049
# Shear Modulus (GPa) = 49.15414 19.09010 34.12212
#
# Velocity S-wave (km/s) = 5.03330 3.13673 4.19364
# Velocity P-wave (km/s) = 7.43877 6.65339 7.05702
#
# Compressibility (1/GPa) = 0.02390928
#
# Stress axis : x y z
#
# Youngs Moduli (GPa) = 106.83544 30.61167 101.23114
#
# Poissons Ratio (x) = 0.20991 0.18575
# Poissons Ratio (y) = 0.73259 0.53715
# Poissons Ratio (z) = 0.19604 0.16243
#
# Static dielectric constant tensor:
#      x y z
#    x 1.655650 0.000000 0.000000 
#    y 0.000000 1.687510 0.000000 
#    z 0.000000 0.000000 1.704620 
# 
# From -- ./inp_files/12090.got.cif
#   From: 2010.05.17/outbox.cif.g08.bks.cpg/sg24_7_cif.got.tgz:12090.got - 2010.06.04 00:33:39.
