data_PCOD9333872
_publ_section_title
;
Structure prediction by ZEFSAII (Michael W. Deem and Ramdas Pophale) SiO2 
 PCOD9333872
Probable space group: I 21 21 21
;
_chemical_formula_sum "Si O2"
_cell_formula_units_Z 36
_cell_length_a 16.607495
_cell_length_b 5.151284
_cell_length_c 23.886003
_cell_angle_alpha 90.000000
_cell_angle_beta 90.000000
_cell_angle_gamma 90.000000
_cell_volume 2043.445724
_symmetry_space_group_name_H-M "I 21 21 21"
_symmetry_group_IT_number 24
_symmetry_cell_setting 'orthorhombic'
loop_
_space_group_symop_operation_xyz
x,y,z
-x,1/2-y,z
x,-y,1/2-z
1/2-x,y,-z
1/2+x,1/2+y,1/2+z
1/2-x,-y,1/2+z
1/2+x,1/2-y,-z
-x,1/2+y,1/2-z
loop_
_atom_site_type_symbol
_atom_site_label
_atom_site_fract_x
_atom_site_fract_y
_atom_site_fract_z
Si Si1 0.057627 0.500000 0.250000
Si Si2 0.198868 0.559074 0.557740
Si Si3 0.408705 0.345327 0.525152
Si Si4 0.404968 0.694029 0.636053
Si Si5 0.783819 0.435588 0.410154
O O1 0.108741 0.544324 0.306106
O O2 0.000000 0.750000 0.241258
O O3 0.250000 0.551727 0.500000
O O4 0.111874 0.486996 0.532994
O O5 0.218627 0.837608 0.582431
O O6 0.234658 0.330426 0.596540
O O7 0.500000 0.250000 0.527481
O O8 0.393714 0.530556 0.579083
O O9 0.343327 0.115576 0.536070
O O10 0.500000 0.750000 0.636602
O O11 0.349144 0.948520 0.633085
#
# Coordination Sequence:
#
# PCOD9333872 Si02
#       5
#     4   8   8   8   8
#     4  10  24  36  48  66  98 128 172 222 250 266
#     4  10  20  31  47  66  96 121 164 199 246 288
#     4  11  21  31  51  72  97 131 174 201 239 298
#     4  11  21  33  51  69  97 131 177 209 242 279
#     4  11  20  33  47  68  93 128 165 201 242 296
#
# _framework density 17.617301000000001
#
# number of rings (size 3 to 8) (size 9 to 14) (size 15 to 20)
#    0.000    1.333    6.667    2.667    3.111    0.000 
#    0.000    0.000    0.000    0.000    0.000    0.000 
#    0.000    0.000    0.000    4.000    2.222    0.222 
#
# Total GULP energy -100253.281814 kJ/mol
# GULP energy per Si atom -5569.626767 kJ/mol
# Density = 1.757720 g / cm^3
# Si number density = 17.617301 Si / 1000 Ang^3
#
#
#
# Elastic Constant Matrix: (Units=GPa)
#
#
# Indices 1 2 3 4 5 6 
#
# 1 46.0083 17.1975 23.2143 0.0000 0.0000 0.0000
# 2 17.1975 99.2481 16.7603 0.0000 0.0000 0.0000
# 3 23.2143 16.7603 48.9164 0.0000 0.0000 0.0000
# 4 0.0000 0.0000 0.0000 24.1981 0.0000 0.0000
# 5 0.0000 0.0000 0.0000 0.0000 10.8363 0.0000
# 6 0.0000 0.0000 0.0000 0.0000 0.0000 23.6838
#
#
#
# Elastic Compliance Matrix: (Units=1/GPa)
#
#
# Indices 1 2 3 4 5 6 
#
# 1 0.029345 -0.002901 -0.012932 0.000000 0.000000 0.000000
# 2 -0.002901 0.010981 -0.002386 0.000000 0.000000 0.000000
# 3 -0.012932 -0.002386 0.027398 0.000000 0.000000 0.000000
# 4 0.000000 0.000000 0.000000 0.041326 0.000000 0.000000
# 5 0.000000 0.000000 0.000000 0.000000 0.092283 0.000000
# 6 0.000000 0.000000 0.000000 0.000000 0.000000 0.042223
#
#
# Mechanical properties :
#
#
# Convention : Reuss Voigt Hill
#
# Bulk Modulus (GPa) = 31.96333 34.27967 33.12150
# Shear Modulus (GPa) = 17.21636 20.87702 19.04669
#
# Velocity S-wave (km/s) = 3.12948 3.44616 3.29163
# Velocity P-wave (km/s) = 5.58934 5.94432 5.76956
#
# Compressibility (1/GPa) = 0.03128586
#
# Stress axis : x y z
#
# Youngs Moduli (GPa) = 34.07772 91.06364 36.49938
#
# Poissons Ratio (x) = 0.26417 0.47202
# Poissons Ratio (y) = 0.09886 0.08708
# Poissons Ratio (z) = 0.44070 0.21727
#
# Static dielectric constant tensor:
#      x y z
#    x 1.677680 0.000000 0.000000 
#    y 0.000000 1.731980 0.000000 
#    z 0.000000 0.000000 1.633720 
# 
# From -- ./inp_files/28690.got.cif
#   From: 2010.05.17/outbox.cif.g08.bks.cpg/sg24_15_cif.got.tgz:28690.got - 2010.06.04 00:33:39.
