data_PCOD9333618
_publ_section_title
;
Structure prediction by ZEFSAII (Michael W. Deem and Ramdas Pophale) SiO2 
 PCOD9333618
Probable space group: I 21 21 21
;
_chemical_formula_sum "Si O2"
_cell_formula_units_Z 32
_cell_length_a 12.492331
_cell_length_b 14.698136
_cell_length_c 6.968572
_cell_angle_alpha 90.000000
_cell_angle_beta 90.000000
_cell_angle_gamma 90.000000
_cell_volume 1279.527240
_symmetry_space_group_name_H-M "I 21 21 21"
_symmetry_group_IT_number 24
_symmetry_cell_setting 'orthorhombic'
loop_
_space_group_symop_operation_xyz
x,y,z
-x,1/2-y,z
x,-y,1/2-z
1/2-x,y,-z
1/2+x,1/2+y,1/2+z
1/2-x,-y,1/2+z
1/2+x,1/2-y,-z
-x,1/2+y,1/2-z
loop_
_atom_site_type_symbol
_atom_site_label
_atom_site_fract_x
_atom_site_fract_y
_atom_site_fract_z
Si Si1 0.235539 0.893860 0.721922
Si Si2 0.628309 0.983599 0.976471
Si Si3 0.953546 0.348875 0.355694
Si Si4 0.506172 0.641090 0.401006
O O1 0.250000 0.863548 0.500000
O O2 0.324586 0.848308 0.857409
O O3 0.107779 0.885413 0.729448
O O4 0.261654 0.000000 0.750000
O O5 0.527671 0.915131 0.981501
O O6 0.630570 0.000000 0.750000
O O7 0.750000 0.949425 0.000000
O O8 0.597657 0.073545 0.104862
O O9 0.000000 0.250000 0.390845
O O10 0.969250 0.372024 0.128794
O O11 0.500000 0.750000 0.373467
#
# Coordination Sequence:
#
# PCOD9333618 Si02
#       4
#     8   8   8   8
#     4  10  19  35  59  83 114 152 191 236 282 335
#     4  10  21  38  59  84 116 151 189 236 287 340
#     4   9  18  35  57  83 115 152 190 232 285 338
#     4   9  19  34  56  86 113 147 193 236 281 335
#
# _framework density 25.009238
#
# number of rings (size 3 to 8) (size 9 to 14) (size 15 to 20)
#    0.000    2.500    0.000    3.750    0.000    8.000 
#    0.000    3.750    0.000    3.000    0.000    0.000 
#    0.000    0.000    0.000    0.000    0.000    0.000 
#
# Total GULP energy -89145.943686 kJ/mol
# GULP energy per Si atom -5571.621480 kJ/mol
# Density = 2.495232 g / cm^3
# Si number density = 25.009238 Si / 1000 Ang^3
#
#
#
# Elastic Constant Matrix: (Units=GPa)
#
#
# Indices 1 2 3 4 5 6 
#
# 1 221.6135 78.5491 91.3161 0.0000 0.0000 0.0000
# 2 78.5491 103.7848 19.5609 0.0000 0.0000 0.0000
# 3 91.3161 19.5609 79.3781 0.0000 0.0000 0.0000
# 4 0.0000 0.0000 0.0000 -16.5441 0.0000 0.0000
# 5 0.0000 0.0000 0.0000 0.0000 204.9306 0.0000
# 6 0.0000 0.0000 0.0000 0.0000 0.0000 6.6082
#
#
#
# Elastic Compliance Matrix: (Units=1/GPa)
#
#
# Indices 1 2 3 4 5 6 
#
# 1 0.011789 -0.006677 -0.011917 0.000000 0.000000 0.000000
# 2 -0.006677 0.013886 0.004259 0.000000 0.000000 0.000000
# 3 -0.011917 0.004259 0.025258 0.000000 0.000000 0.000000
# 4 0.000000 0.000000 0.000000 -0.060445 0.000000 0.000000
# 5 0.000000 0.000000 0.000000 0.000000 0.004880 0.000000
# 6 0.000000 0.000000 0.000000 0.000000 0.000000 0.151327
#
#
# Mechanical properties :
#
#
# Convention : Reuss Voigt Hill
#
# Bulk Modulus (GPa) = 44.91707 87.06985 65.99346
# Shear Modulus (GPa) = 27.35453 53.35564 40.35508
#
# Velocity S-wave (km/s) = 3.31082 4.62393 4.02133
# Velocity P-wave (km/s) = 5.71091 7.96230 6.92866
#
# Compressibility (1/GPa) = 0.02226325
#
# Stress axis : x y z
#
# Youngs Moduli (GPa) = 84.82347 72.01621 39.59207
#
# Poissons Ratio (x) = 0.48082 0.47182
# Poissons Ratio (y) = 0.56633 -0.16862
# Poissons Ratio (z) = 1.01083 -0.30670
#
# Static dielectric constant tensor:
#      x y z
#    x 2.166520 0.000000 0.000000 
#    y 0.000000 1.930970 0.000000 
#    z 0.000000 0.000000 2.103010 
# 
# From -- ./inp_files/10364.got.cif
#   From: 2010.05.17/outbox.cif.g08.bks.cpg/sg24_6_cif.got.tgz:10364.got - 2010.06.04 00:33:39.
