data_PCOD9333711
_publ_section_title
;
Structure prediction by ZEFSAII (Michael W. Deem and Ramdas Pophale) SiO2 
 PCOD9333711
Probable space group: I 21 21 21
;
_chemical_formula_sum "Si O2"
_cell_formula_units_Z 52
_cell_length_a 16.191614
_cell_length_b 7.313442
_cell_length_c 19.950688
_cell_angle_alpha 90.000000
_cell_angle_beta 90.000000
_cell_angle_gamma 90.000000
_cell_volume 2362.489247
_symmetry_space_group_name_H-M "I 21 21 21"
_symmetry_group_IT_number 24
_symmetry_cell_setting 'orthorhombic'
loop_
_space_group_symop_operation_xyz
x,y,z
-x,1/2-y,z
x,-y,1/2-z
1/2-x,y,-z
1/2+x,1/2+y,1/2+z
1/2-x,-y,1/2+z
1/2+x,1/2-y,-z
-x,1/2+y,1/2-z
loop_
_atom_site_type_symbol
_atom_site_label
_atom_site_fract_x
_atom_site_fract_y
_atom_site_fract_z
Si Si1 0.858223 0.965641 0.323626
Si Si2 0.852910 0.466257 0.170515
Si Si3 0.815033 0.957848 0.632929
Si Si4 0.669989 0.469618 0.170051
Si Si5 0.088992 0.245370 0.431181
Si Si6 0.506347 0.031566 0.170211
Si Si7 0.750000 0.868116 0.000000
O O1 0.761512 0.028125 0.322396
O O2 0.140752 0.749280 0.338931
O O3 0.894439 0.000000 0.250000
O O4 0.900359 0.080432 0.381916
O O5 0.866311 0.500000 0.250000
O O6 0.760613 0.539561 0.151573
O O7 0.910217 0.575005 0.119962
O O8 0.824569 0.744459 0.651252
O O9 0.906335 0.037037 0.642981
O O10 0.782806 0.001996 0.559206
O O11 0.666113 0.500000 0.250000
O O12 0.581907 0.542016 0.144004
O O13 0.170468 0.250955 0.477110
O O14 0.000000 0.250000 0.466391
O O15 0.500000 0.250000 0.159068
O O16 0.510305 0.000000 0.250000
#
# Coordination Sequence:
#
# PCOD9333711 Si02
#       7
#     8   8   8   8   8   8   4
#     4  10  19  36  64  99 129 169 202 264 344 392
#     4  10  19  37  63  98 136 165 203 269 336 396
#     4   9  18  34  61  83 125 177 218 256 315 380
#     4   8  16  31  58  94 134 157 200 267 334 389
#     4  11  25  45  67  92 130 169 221 271 316 386
#     4   9  16  30  51  92 127 153 197 263 324 390
#     4  10  24  48  62  84 128 180 232 262 302 380
#
# _framework density 22.010684000000001
#
# number of rings (size 3 to 8) (size 9 to 14) (size 15 to 20)
#    0.000    2.462    1.538    0.462    0.000    1.231 
#   11.077    6.923   20.308    0.000    0.000    0.000 
#    0.000    0.000    0.000    0.000    0.000    0.000 
#
# Total GULP energy -144970.067592 kJ/mol
# GULP energy per Si atom -5575.771830 kJ/mol
# Density = 2.196059 g / cm^3
# Si number density = 22.010684 Si / 1000 Ang^3
#
#
#
# Elastic Constant Matrix: (Units=GPa)
#
#
# Indices 1 2 3 4 5 6 
#
# 1 156.1639 14.9385 23.8931 0.0000 0.0000 0.0000
# 2 14.9385 112.8415 8.9131 0.0000 0.0000 0.0000
# 3 23.8931 8.9131 61.6738 0.0000 0.0000 0.0000
# 4 0.0000 0.0000 0.0000 21.6823 0.0000 0.0000
# 5 0.0000 0.0000 0.0000 0.0000 21.8619 0.0000
# 6 0.0000 0.0000 0.0000 0.0000 0.0000 15.6522
#
#
#
# Elastic Compliance Matrix: (Units=1/GPa)
#
#
# Indices 1 2 3 4 5 6 
#
# 1 0.006862 -0.000707 -0.002556 0.000000 0.000000 0.000000
# 2 -0.000707 0.009037 -0.001032 0.000000 0.000000 0.000000
# 3 -0.002556 -0.001032 0.017354 0.000000 0.000000 0.000000
# 4 0.000000 0.000000 0.000000 0.046121 0.000000 0.000000
# 5 0.000000 0.000000 0.000000 0.000000 0.045742 0.000000
# 6 0.000000 0.000000 0.000000 0.000000 0.000000 0.063889
#
#
# Mechanical properties :
#
#
# Convention : Reuss Voigt Hill
#
# Bulk Modulus (GPa) = 40.54703 47.35206 43.94955
# Shear Modulus (GPa) = 24.29355 30.70156 27.49756
#
# Velocity S-wave (km/s) = 3.32583 3.73882 3.53835
# Velocity P-wave (km/s) = 5.76278 6.34021 6.05838
#
# Compressibility (1/GPa) = 0.02466272
#
# Stress axis : x y z
#
# Youngs Moduli (GPa) = 145.72495 110.65542 57.62387
#
# Poissons Ratio (x) = 0.07818 0.14731
# Poissons Ratio (y) = 0.10296 0.05949
# Poissons Ratio (z) = 0.37253 0.11423
#
# Static dielectric constant tensor:
#      x y z
#    x 1.904630 0.000000 0.000000 
#    y 0.000000 1.780810 0.000000 
#    z 0.000000 0.000000 1.769030 
# 
# From -- ./inp_files/33699.got.cif
#   From: 2010.05.17/outbox.cif.g08.bks.cpg/sg24_17_cif.got.tgz:33699.got - 2010.06.04 00:33:39.
