data_PCOD9333608
_publ_section_title
;
Structure prediction by ZEFSAII (Michael W. Deem and Ramdas Pophale) SiO2 
 PCOD9333608
Probable space group: I 21 21 21
;
_chemical_formula_sum "Si O2"
_cell_formula_units_Z 56
_cell_length_a 17.114388
_cell_length_b 8.076807
_cell_length_c 21.181484
_cell_angle_alpha 90.000000
_cell_angle_beta 90.000000
_cell_angle_gamma 90.000000
_cell_volume 2927.908247
_symmetry_space_group_name_H-M "I 21 21 21"
_symmetry_group_IT_number 24
_symmetry_cell_setting 'orthorhombic'
loop_
_space_group_symop_operation_xyz
x,y,z
-x,1/2-y,z
x,-y,1/2-z
1/2-x,y,-z
1/2+x,1/2+y,1/2+z
1/2-x,-y,1/2+z
1/2+x,1/2-y,-z
-x,1/2+y,1/2-z
loop_
_atom_site_type_symbol
_atom_site_label
_atom_site_fract_x
_atom_site_fract_y
_atom_site_fract_z
Si Si1 0.667913 0.429400 0.526034
Si Si2 0.778752 0.971552 0.401128
Si Si3 0.527189 0.434581 0.053503
Si Si4 0.619143 0.557994 0.317747
Si Si5 0.242846 0.317269 0.779704
Si Si6 0.772133 0.659875 0.155456
Si Si7 0.364374 0.447293 0.483567
O O1 0.750000 0.498684 0.500000
O O2 0.595140 0.519861 0.495282
O O3 0.673839 0.426699 0.602444
O O4 0.661557 0.241941 0.497309
O O5 0.768283 0.155464 0.372724
O O6 0.697208 0.956882 0.438995
O O7 0.851033 0.968242 0.448610
O O8 0.788155 0.845380 0.344494
O O9 0.500000 0.250000 0.040542
O O10 0.559315 0.439597 0.124945
O O11 0.450892 0.547138 0.043181
O O12 0.586321 0.500000 0.250000
O O13 0.662335 0.730080 0.300608
O O14 0.689639 0.436080 0.340486
O O15 0.229709 0.500000 0.750000
O O16 0.287181 0.199637 0.729479
#
# Coordination Sequence:
#
# PCOD9333608 Si02
#       7
#     8   8   8   8   8   8   8
#     4  11  19  39  63  84 114 162 203 246 291 356
#     4   9  16  33  56  84 115 151 198 244 292 341
#     4  12  25  37  52  90 128 153 197 253 303 342
#     4  10  20  37  55  77 119 164 199 234 287 352
#     4   9  18  31  56  88 116 150 202 245 281 348
#     4   9  17  33  58  86 108 151 203 237 287 350
#     4  10  19  35  58  83 119 159 204 242 287 355
#
# _framework density 19.126280999999999
#
# number of rings (size 3 to 8) (size 9 to 14) (size 15 to 20)
#    0.000    2.000    4.286    1.286    0.000    1.143 
#    2.571   10.000    0.000    0.000    0.000   39.000 
#    0.000    0.000    0.000    0.000    0.000    0.000 
#
# Total GULP energy -155983.799431 kJ/mol
# GULP energy per Si atom -5570.849980 kJ/mol
# Density = 1.908275 g / cm^3
# Si number density = 19.126281 Si / 1000 Ang^3
#
#
#
# Elastic Constant Matrix: (Units=GPa)
#
#
# Indices 1 2 3 4 5 6 
#
# 1 78.9200 16.4846 65.8133 0.0000 0.0000 0.0000
# 2 16.4846 39.4863 39.4437 0.0000 0.0000 0.0000
# 3 65.8133 39.4437 172.2122 0.0000 0.0000 0.0000
# 4 0.0000 0.0000 0.0000 23.8660 0.0000 0.0000
# 5 0.0000 0.0000 0.0000 0.0000 31.4585 0.0000
# 6 0.0000 0.0000 0.0000 0.0000 0.0000 22.1276
#
#
#
# Elastic Compliance Matrix: (Units=1/GPa)
#
#
# Indices 1 2 3 4 5 6 
#
# 1 0.018621 -0.000863 -0.006919 0.000000 0.000000 0.000000
# 2 -0.000863 0.032879 -0.007201 0.000000 0.000000 0.000000
# 3 -0.006919 -0.007201 0.010100 0.000000 0.000000 0.000000
# 4 0.000000 0.000000 0.000000 0.041901 0.000000 0.000000
# 5 0.000000 0.000000 0.000000 0.000000 0.031788 0.000000
# 6 0.000000 0.000000 0.000000 0.000000 0.000000 0.045192
#
#
# Mechanical properties :
#
#
# Convention : Reuss Voigt Hill
#
# Bulk Modulus (GPa) = 31.61031 59.34464 45.47748
# Shear Modulus (GPa) = 22.62548 26.74888 24.68718
#
# Velocity S-wave (km/s) = 3.44314 3.74376 3.59659
# Velocity P-wave (km/s) = 5.68946 7.05570 6.40909
#
# Compressibility (1/GPa) = 0.03163524
#
# Stress axis : x y z
#
# Youngs Moduli (GPa) = 53.70318 30.41501 99.00842
#
# Poissons Ratio (x) = 0.02624 0.68500
# Poissons Ratio (y) = 0.04632 0.71295
# Poissons Ratio (z) = 0.37155 0.21902
#
# Static dielectric constant tensor:
#      x y z
#    x 1.650400 0.000000 0.000000 
#    y 0.000000 1.738240 0.000000 
#    z 0.000000 0.000000 1.727270 
# 
# From -- ./inp_files/15234.got.cif
#   From: 2010.05.17/outbox.cif.g08.bks.cpg/sg24_8_cif.got.tgz:15234.got - 2010.06.04 00:33:39.
