data_PCOD9333451
_publ_section_title
;
Structure prediction by ZEFSAII (Michael W. Deem and Ramdas Pophale) SiO2 
 PCOD9333451
Probable space group: I 21 21 21
;
_chemical_formula_sum "Si O2"
_cell_formula_units_Z 32
_cell_length_a 38.605372
_cell_length_b 7.271817
_cell_length_c 5.194177
_cell_angle_alpha 90.000000
_cell_angle_beta 90.000000
_cell_angle_gamma 90.000000
_cell_volume 1458.167544
_symmetry_space_group_name_H-M "I 21 21 21"
_symmetry_group_IT_number 24
_symmetry_cell_setting 'orthorhombic'
loop_
_space_group_symop_operation_xyz
x,y,z
-x,1/2-y,z
x,-y,1/2-z
1/2-x,y,-z
1/2+x,1/2+y,1/2+z
1/2-x,-y,1/2+z
1/2+x,1/2-y,-z
-x,1/2+y,1/2-z
loop_
_atom_site_type_symbol
_atom_site_label
_atom_site_fract_x
_atom_site_fract_y
_atom_site_fract_z
Si Si1 0.574394 0.222961 0.211992
Si Si2 0.288178 0.128636 0.997717
Si Si3 0.355431 0.625575 0.499368
Si Si4 0.539433 0.781331 0.784402
O O1 0.611868 0.251470 0.083041
O O2 0.565446 0.291369 0.496694
O O3 0.572228 0.000000 0.250000
O O4 0.546921 0.291191 0.001481
O O5 0.287823 0.000000 0.750000
O O6 0.250000 0.220734 0.000000
O O7 0.320323 0.263245 0.964674
O O8 0.292251 0.000000 0.250000
O O9 0.349945 0.500000 0.250000
O O10 0.363566 0.500000 0.750000
O O11 0.500000 0.750000 0.865131
O O12 0.544564 0.000000 0.750000
#
# Coordination Sequence:
#
# PCOD9333451 Si02
#       4
#     8   8   8   8
#     4   9  18  33  52  74 104 139 173 222 282 325
#     4  10  22  40  59  83 120 158 184 222 290 348
#     4  11  21  36  61  88 111 146 198 241 274 328
#     4  10  19  33  52  73 101 137 176 219 272 329
#
# _framework density 21.945353999999998
#
# number of rings (size 3 to 8) (size 9 to 14) (size 15 to 20)
#    0.000    2.000    0.000    6.000    0.000    1.000 
#    0.000    3.750    0.000    0.000    0.000    0.000 
#    0.000    0.000    0.000    0.000    0.000    0.000 
#
# Total GULP energy -89318.477473 kJ/mol
# GULP energy per Si atom -5582.404842 kJ/mol
# Density = 2.189541 g / cm^3
# Si number density = 21.945354 Si / 1000 Ang^3
#
#
#
# Elastic Constant Matrix: (Units=GPa)
#
#
# Indices 1 2 3 4 5 6 
#
# 1 158.4489 12.3732 52.0104 -0.0001 -0.0001 0.0000
# 2 12.3732 36.0067 13.2939 -0.0001 -0.0001 -0.0001
# 3 52.0104 13.2939 157.8206 -0.0001 -0.0002 -0.0001
# 4 -0.0001 -0.0001 -0.0001 4.8335 -0.0001 -0.0001
# 5 -0.0001 -0.0001 -0.0002 -0.0001 34.1393 0.0000
# 6 0.0000 -0.0001 -0.0001 -0.0001 0.0000 10.9748
#
#
#
# Elastic Compliance Matrix: (Units=1/GPa)
#
#
# Indices 1 2 3 4 5 6 
#
# 1 0.007170 -0.001642 -0.002224 0.000000 0.000000 0.000000
# 2 -0.001642 0.029040 -0.001905 0.000001 0.000000 0.000000
# 3 -0.002224 -0.001905 0.007230 0.000000 0.000000 0.000000
# 4 0.000000 0.000001 0.000000 0.206888 0.000001 0.000002
# 5 0.000000 0.000000 0.000000 0.000001 0.029292 0.000000
# 6 0.000000 0.000000 0.000000 0.000002 0.000000 0.091118
#
#
# Mechanical properties :
#
#
# Convention : Reuss Voigt Hill
#
# Bulk Modulus (GPa) = 31.35169 56.40345 43.87757
# Shear Modulus (GPa) = 12.72547 28.29611 20.51079
#
# Velocity S-wave (km/s) = 2.41066 3.59470 3.06049
# Velocity P-wave (km/s) = 4.69741 6.55643 5.70318
#
# Compressibility (1/GPa) = 0.03189621
#
# Stress axis : x y z
#
# Youngs Moduli (GPa) = 139.47782 34.43484 138.31578
#
# Poissons Ratio (x) = 0.05656 0.30767
# Poissons Ratio (y) = 0.22909 0.26348
# Poissons Ratio (z) = 0.31026 0.06560
#
# Static dielectric constant tensor:
#      x y z
#    x 1.842980 0.000000 0.000000 
#    y 0.000000 2.096110 0.000000 
#    z 0.000000 0.000000 1.803090 
# 
# From -- ./inp_files/7457.got.cif
#   From: 2010.05.17/outbox.cif.g08.bks.cpg/sg24_4_cif.got.tgz:7457.got - 2010.06.04 00:33:39.
