data_PCOD9333394
_publ_section_title
;
Structure prediction by ZEFSAII (Michael W. Deem and Ramdas Pophale) SiO2 
 PCOD9333394
Probable space group: I 21 21 21
;
_chemical_formula_sum "Si O2"
_cell_formula_units_Z 64
_cell_length_a 14.692351
_cell_length_b 9.217522
_cell_length_c 28.596122
_cell_angle_alpha 90.000000
_cell_angle_beta 90.000000
_cell_angle_gamma 90.000000
_cell_volume 3872.688975
_symmetry_space_group_name_H-M "I 21 21 21"
_symmetry_group_IT_number 24
_symmetry_cell_setting 'orthorhombic'
loop_
_space_group_symop_operation_xyz
x,y,z
-x,1/2-y,z
x,-y,1/2-z
1/2-x,y,-z
1/2+x,1/2+y,1/2+z
1/2-x,-y,1/2+z
1/2+x,1/2-y,-z
-x,1/2+y,1/2-z
loop_
_atom_site_type_symbol
_atom_site_label
_atom_site_fract_x
_atom_site_fract_y
_atom_site_fract_z
Si Si1 0.712861 0.674931 0.890503
Si Si2 0.600715 0.696694 0.062116
Si Si3 0.216246 0.164488 0.109881
Si Si4 0.093856 0.825713 0.196495
Si Si5 0.588806 0.825494 0.542327
Si Si6 0.905357 0.327343 0.195897
Si Si7 0.658836 0.612848 0.467023
Si Si8 0.095309 0.665261 0.032341
O O1 0.820756 0.692679 0.898785
O O2 0.687642 0.504521 0.898668
O O3 0.674159 0.711355 0.839440
O O4 0.662057 0.770654 0.928898
O O5 0.500000 0.750000 0.076586
O O6 0.602907 0.536023 0.038442
O O7 0.630548 0.801490 0.019755
O O8 0.168066 0.281158 0.077200
O O9 0.180687 0.199161 0.161779
O O10 0.315381 0.159262 0.085954
O O11 0.112799 0.783458 0.250301
O O12 0.000000 0.750000 0.181465
O O13 0.079736 0.999217 0.195404
O O14 0.500000 0.750000 0.562836
O O15 0.608769 0.741281 0.494035
O O16 0.580206 0.995407 0.537927
O O17 0.000000 0.250000 0.181216
O O18 0.750000 0.583839 0.500000
O O19 0.000000 0.750000 0.036753
#
# Coordination Sequence:
#
# PCOD9333394 Si02
#       8
#     8   8   8   8   8   8   8   8
#     4  10  19  32  48  67  96 127 157 196 236 281
#     4  10  19  32  48  66  91 125 161 197 239 278
#     4   9  18  31  47  66  91 124 158 192 233 273
#     4   9  18  31  47  70  97 123 153 188 232 280
#     4  11  20  30  45  66  94 126 160 193 229 277
#     4   9  17  30  48  69  94 122 153 188 226 281
#     4   9  18  33  48  65  93 126 159 197 237 278
#     4  11  21  31  46  69  97 127 159 193 232 282
#
# _framework density 16.525984000000001
#
# number of rings (size 3 to 8) (size 9 to 14) (size 15 to 20)
#    0.000    2.250    0.000    5.625    0.000    6.000 
#    0.000    0.000    0.000    0.000    0.000    0.875 
#    0.000   24.000    0.000    0.000    0.000    0.625 
#
# Total GULP energy -178164.107740 kJ/mol
# GULP energy per Si atom -5567.628367 kJ/mol
# Density = 1.648837 g / cm^3
# Si number density = 16.525984 Si / 1000 Ang^3
#
#
#
# Elastic Constant Matrix: (Units=GPa)
#
#
# Indices 1 2 3 4 5 6 
#
# 1 77.0829 33.5194 40.7844 0.0000 0.0000 0.0000
# 2 33.5194 83.9183 21.1330 0.0000 0.0000 0.0000
# 3 40.7844 21.1330 86.3596 0.0000 0.0000 0.0000
# 4 0.0000 0.0000 0.0000 1.2660 0.0000 0.0000
# 5 0.0000 0.0000 0.0000 0.0000 27.3934 0.0000
# 6 0.0000 0.0000 0.0000 0.0000 0.0000 25.0937
#
#
#
# Elastic Compliance Matrix: (Units=1/GPa)
#
#
# Indices 1 2 3 4 5 6 
#
# 1 0.019691 -0.005886 -0.007859 0.000000 0.000000 0.000000
# 2 -0.005886 0.014458 -0.000758 0.000000 0.000000 0.000000
# 3 -0.007859 -0.000758 0.015476 0.000000 0.000000 0.000000
# 4 0.000000 0.000000 0.000000 0.789881 0.000000 0.000000
# 5 0.000000 0.000000 0.000000 0.000000 0.036505 0.000000
# 6 0.000000 0.000000 0.000000 0.000000 0.000000 0.039851
#
#
# Mechanical properties :
#
#
# Convention : Reuss Voigt Hill
#
# Bulk Modulus (GPa) = 48.49846 48.69272 48.59559
# Shear Modulus (GPa) = 5.25353 20.87889 13.06621
#
# Velocity S-wave (km/s) = 1.78490 3.55829 2.81489
# Velocity P-wave (km/s) = 5.80158 6.81250 6.32726
#
# Compressibility (1/GPa) = 0.02061921
#
# Stress axis : x y z
#
# Youngs Moduli (GPa) = 50.78558 69.16421 64.61411
#
# Poissons Ratio (x) = 0.40710 0.50779
# Poissons Ratio (y) = 0.29892 0.04900
# Poissons Ratio (z) = 0.39911 0.05245
#
# Static dielectric constant tensor:
#      x y z
#    x 1.596640 0.000000 0.000000 
#    y 0.000000 1.610320 0.000000 
#    z 0.000000 0.000000 1.587460 
# 
# From -- ./inp_files/38767.got.cif
#   From: 2010.05.17/outbox.cif.g08.bks.cpg/sg24_20_cif.got.tgz:38767.got - 2010.06.04 00:33:39.
