data_PCOD9333920
_publ_section_title
;
Structure prediction by ZEFSAII (Michael W. Deem and Ramdas Pophale) SiO2 
 PCOD9333920
Probable space group: I 21 21 21
;
_chemical_formula_sum "Si O2"
_cell_formula_units_Z 60
_cell_length_a 30.510589
_cell_length_b 18.029440
_cell_length_c 5.686180
_cell_angle_alpha 90.000000
_cell_angle_beta 90.000000
_cell_angle_gamma 90.000000
_cell_volume 3127.904125
_symmetry_space_group_name_H-M "I 21 21 21"
_symmetry_group_IT_number 24
_symmetry_cell_setting 'orthorhombic'
loop_
_space_group_symop_operation_xyz
x,y,z
-x,1/2-y,z
x,-y,1/2-z
1/2-x,y,-z
1/2+x,1/2+y,1/2+z
1/2-x,-y,1/2+z
1/2+x,1/2-y,-z
-x,1/2+y,1/2-z
loop_
_atom_site_type_symbol
_atom_site_label
_atom_site_fract_x
_atom_site_fract_y
_atom_site_fract_z
Si Si1 0.684709 0.197942 0.349977
Si Si2 0.750000 0.839276 0.500000
Si Si3 0.392141 0.692389 0.530268
Si Si4 0.329025 0.413378 0.733271
Si Si5 0.514635 0.039659 0.500994
Si Si6 0.957795 0.801692 0.841735
Si Si7 0.408417 0.038902 0.499936
Si Si8 0.381530 0.204657 0.583934
O O1 0.686573 0.119908 0.485616
O O2 0.666240 0.261531 0.521609
O O3 0.729683 0.208865 0.211171
O O4 0.645546 0.191523 0.164459
O O5 0.789771 0.889109 0.406457
O O6 0.373822 0.630906 0.709428
O O7 0.438507 0.676710 0.413453
O O8 0.390636 0.773650 0.646204
O O9 0.336002 0.500000 0.750000
O O10 0.532524 0.123479 0.483449
O O11 0.461528 0.044139 0.499373
O O12 0.527247 0.000000 0.250000
O O13 0.527127 0.000000 0.750000
O O14 0.000000 0.750000 0.822443
O O15 0.919723 0.752239 0.957446
O O16 0.387745 0.120535 0.513698
O O17 0.396685 0.000000 0.750000
O O18 0.396386 0.000000 0.250000
#
# Coordination Sequence:
#
# PCOD9333920 Si02
#       8
#     8   4   8   8   8   8   8   8
#     4   9  20  38  55  84 121 151 205 245 309 367
#     4  10  20  32  60  90 118 156 206 250 302 364
#     4   9  22  38  55  81 114 163 208 260 308 376
#     4  10  21  37  57  85 126 163 206 257 309 376
#     4  10  23  41  55  85 120 152 210 274 321 377
#     4  11  22  38  59  82 111 169 217 268 326 386
#     4  10  22  38  63  90 121 157 200 268 334 376
#     4  10  21  39  59  83 124 156 212 261 317 386
#
# _framework density 19.182172000000001
#
# number of rings (size 3 to 8) (size 9 to 14) (size 15 to 20)
#    0.000    2.133    1.333    0.400    7.467    3.200 
#    7.200    0.000    0.000    0.000    0.000    0.000 
#   12.000    0.000    0.000    0.000    0.000    0.000 
#
# Total GULP energy -167191.334870 kJ/mol
# GULP energy per Si atom -5573.044496 kJ/mol
# Density = 1.913851 g / cm^3
# Si number density = 19.182172 Si / 1000 Ang^3
#
#
#
# Elastic Constant Matrix: (Units=GPa)
#
#
# Indices 1 2 3 4 5 6 
#
# 1 52.0083 45.6348 27.7562 0.0000 0.0000 0.0000
# 2 45.6348 144.3234 59.5345 0.0000 0.0000 0.0000
# 3 27.7562 59.5345 112.7872 0.0000 0.0000 0.0001
# 4 0.0000 0.0000 0.0000 19.4875 0.0000 0.0000
# 5 0.0000 0.0000 0.0000 0.0000 29.8108 0.0000
# 6 0.0000 0.0000 0.0001 0.0000 0.0000 9.0110
#
#
#
# Elastic Compliance Matrix: (Units=1/GPa)
#
#
# Indices 1 2 3 4 5 6 
#
# 1 0.027267 -0.007483 -0.002760 0.000000 0.000000 0.000000
# 2 -0.007483 0.010911 -0.003918 0.000000 0.000000 0.000000
# 3 -0.002760 -0.003918 0.011614 0.000000 0.000000 0.000000
# 4 0.000000 0.000000 0.000000 0.051315 0.000000 0.000000
# 5 0.000000 0.000000 0.000000 0.000000 0.033545 0.000000
# 6 0.000000 0.000000 0.000000 0.000000 0.000000 0.110976
#
#
# Mechanical properties :
#
#
# Convention : Reuss Voigt Hill
#
# Bulk Modulus (GPa) = 46.57850 63.88555 55.23203
# Shear Modulus (GPa) = 17.78685 23.40807 20.59746
#
# Velocity S-wave (km/s) = 3.04840 3.49707 3.28042
# Velocity P-wave (km/s) = 6.06013 7.04862 6.57298
#
# Compressibility (1/GPa) = 0.02146913
#
# Stress axis : x y z
#
# Youngs Moduli (GPa) = 36.67448 91.64897 86.10600
#
# Poissons Ratio (x) = 0.68582 0.23768
# Poissons Ratio (y) = 0.27444 0.33736
# Poissons Ratio (z) = 0.10123 0.35907
#
# Static dielectric constant tensor:
#      x y z
#    x 1.659490 0.000000 0.000000 
#    y 0.000000 1.655150 0.000000 
#    z 0.000000 0.000000 1.825190 
# 
# From -- ./inp_files/7845.got.cif
#   From: 2010.05.17/outbox.cif.g08.bks.cpg/sg24_4_cif.got.tgz:7845.got - 2010.06.04 00:33:39.
