data_PCOD9333470
_publ_section_title
;
Structure prediction by ZEFSAII (Michael W. Deem and Ramdas Pophale) SiO2 
 PCOD9333470
Probable space group: I 21 21 21
;
_chemical_formula_sum "Si O2"
_cell_formula_units_Z 52
_cell_length_a 25.766458
_cell_length_b 7.948519
_cell_length_c 13.710110
_cell_angle_alpha 90.000000
_cell_angle_beta 90.000000
_cell_angle_gamma 90.000000
_cell_volume 2807.901560
_symmetry_space_group_name_H-M "I 21 21 21"
_symmetry_group_IT_number 24
_symmetry_cell_setting 'orthorhombic'
loop_
_space_group_symop_operation_xyz
x,y,z
-x,1/2-y,z
x,-y,1/2-z
1/2-x,y,-z
1/2+x,1/2+y,1/2+z
1/2-x,-y,1/2+z
1/2+x,1/2-y,-z
-x,1/2+y,1/2-z
loop_
_atom_site_type_symbol
_atom_site_label
_atom_site_fract_x
_atom_site_fract_y
_atom_site_fract_z
Si Si1 0.623508 0.797349 0.472562
Si Si2 0.322456 0.182992 0.367032
Si Si3 0.469114 0.567416 0.355915
Si Si4 0.750000 0.889927 0.000000
Si Si5 0.684556 0.893559 0.652000
Si Si6 0.713728 0.295572 0.159245
Si Si7 0.423542 0.032085 0.368575
O O1 0.579921 0.917357 0.426101
O O2 0.636155 0.831933 0.585751
O O3 0.680394 0.803636 0.421783
O O4 0.600071 0.618270 0.435204
O O5 0.293156 0.275716 0.450738
O O6 0.310476 0.259402 0.261893
O O7 0.383688 0.181173 0.384382
O O8 0.300117 0.991507 0.358873
O O9 0.500000 0.750000 0.345905
O O10 0.453068 0.500000 0.250000
O O11 0.516319 0.450499 0.391375
O O12 0.720600 0.988340 0.914970
O O13 0.725070 0.738901 0.666822
O O14 0.672389 0.000000 0.750000
O O15 0.419676 0.000000 0.250000
#
# Coordination Sequence:
#
# PCOD9333470 Si02
#       7
#     8   8   8   4   8   8   8
#     4  10  19  33  54  79 108 152 179 215 290 342
#     4  10  20  33  54  85 108 143 180 230 282 340
#     4   9  19  33  54  85 111 139 177 223 286 349
#     4  12  24  32  52  82 110 138 190 234 276 336
#     4  12  24  38  50  79 115 152 192 234 279 346
#     4  10  19  36  56  74 116 149 178 221 284 340
#     4   9  16  34  56  83 110 136 180 228 277 343
#
# _framework density 18.519168000000001
#
# number of rings (size 3 to 8) (size 9 to 14) (size 15 to 20)
#    0.000    1.846    6.154    0.000    4.308    1.846 
#    0.000    0.000    0.000    0.000   12.000    0.000 
#    0.000    0.000    0.000    0.000    0.000    0.000 
#
# Total GULP energy -144837.830004 kJ/mol
# GULP energy per Si atom -5570.685769 kJ/mol
# Density = 1.847702 g / cm^3
# Si number density = 18.519168 Si / 1000 Ang^3
#
#
#
# Elastic Constant Matrix: (Units=GPa)
#
#
# Indices 1 2 3 4 5 6 
#
# 1 65.9241 14.0236 29.6836 0.0000 0.0000 0.0000
# 2 14.0236 31.3971 22.2374 0.0000 0.0000 0.0000
# 3 29.6836 22.2374 93.5722 0.0000 0.0000 0.0000
# 4 0.0000 0.0000 0.0000 27.4293 0.0000 0.0000
# 5 0.0000 0.0000 0.0000 0.0000 25.2563 0.0000
# 6 0.0000 0.0000 0.0000 0.0000 0.0000 8.8532
#
#
#
# Elastic Compliance Matrix: (Units=1/GPa)
#
#
# Indices 1 2 3 4 5 6 
#
# 1 0.018299 -0.004884 -0.004644 0.000000 0.000000 0.000000
# 2 -0.004884 0.039600 -0.007862 0.000000 0.000000 0.000000
# 3 -0.004644 -0.007862 0.014029 0.000000 0.000000 0.000000
# 4 0.000000 0.000000 0.000000 0.036457 0.000000 0.000000
# 5 0.000000 0.000000 0.000000 0.000000 0.039594 0.000000
# 6 0.000000 0.000000 0.000000 0.000000 0.000000 0.112953
#
#
# Mechanical properties :
#
#
# Convention : Reuss Voigt Hill
#
# Bulk Modulus (GPa) = 26.91960 35.86472 31.39216
# Shear Modulus (GPa) = 16.22883 20.63768 18.43326
#
# Velocity S-wave (km/s) = 2.96349 3.34188 3.15836
# Velocity P-wave (km/s) = 5.12614 5.85655 5.50348
#
# Compressibility (1/GPa) = 0.03714765
#
# Stress axis : x y z
#
# Youngs Moduli (GPa) = 54.64762 25.25282 71.28337
#
# Poissons Ratio (x) = 0.12333 0.33106
# Poissons Ratio (y) = 0.26689 0.56040
# Poissons Ratio (z) = 0.25380 0.19853
#
# Static dielectric constant tensor:
#      x y z
#    x 1.664580 0.000000 0.000000 
#    y 0.000000 1.759100 0.000000 
#    z 0.000000 0.000000 1.666910 
# 
# From -- ./inp_files/22915.got.cif
#   From: 2010.05.17/outbox.cif.g08.bks.cpg/sg24_12_cif.got.tgz:22915.got - 2010.06.04 00:33:39.
