data_PCOD9333433
_publ_section_title
;
Structure prediction by ZEFSAII (Michael W. Deem and Ramdas Pophale) SiO2 
 PCOD9333433
Probable space group: I 21 21 21
;
_chemical_formula_sum "Si O2"
_cell_formula_units_Z 60
_cell_length_a 22.671191
_cell_length_b 8.435868
_cell_length_c 13.833854
_cell_angle_alpha 90.000000
_cell_angle_beta 90.000000
_cell_angle_gamma 90.000000
_cell_volume 2645.740828
_symmetry_space_group_name_H-M "I 21 21 21"
_symmetry_group_IT_number 24
_symmetry_cell_setting 'orthorhombic'
loop_
_space_group_symop_operation_xyz
x,y,z
-x,1/2-y,z
x,-y,1/2-z
1/2-x,y,-z
1/2+x,1/2+y,1/2+z
1/2-x,-y,1/2+z
1/2+x,1/2-y,-z
-x,1/2+y,1/2-z
loop_
_atom_site_type_symbol
_atom_site_label
_atom_site_fract_x
_atom_site_fract_y
_atom_site_fract_z
Si Si1 0.040706 0.898897 0.122107
Si Si2 0.059208 0.439459 0.043853
Si Si3 0.373393 0.033566 0.441553
Si Si4 0.333126 0.359809 0.495655
Si Si5 0.833962 0.705108 0.426274
Si Si6 0.750587 0.009053 0.135502
Si Si7 0.366523 0.000000 0.750000
Si Si8 0.492900 0.056942 0.354123
O O1 0.086393 0.874096 0.208046
O O2 0.000000 0.750000 0.104063
O O3 0.083331 0.939791 0.033526
O O4 0.991838 0.038852 0.123421
O O5 0.105314 0.585101 0.039957
O O6 0.026587 0.460344 0.939664
O O7 0.101995 0.292041 0.064340
O O8 0.337894 0.196527 0.438763
O O9 0.422939 0.015404 0.360498
O O10 0.330787 0.891256 0.473125
O O11 0.287757 0.365645 0.585216
O O12 0.311901 0.490701 0.417544
O O13 0.786137 0.837319 0.400242
O O14 0.832431 0.581127 0.337212
O O15 0.748280 0.000000 0.250000
O O16 0.500000 0.250000 0.365900
O O17 0.515543 0.000000 0.250000
#
# Coordination Sequence:
#
# PCOD9333433 Si02
#       8
#     8   8   8   8   8   8   4   8
#     4  10  19  32  56  92 132 175 209 254 309 418
#     4  10  20  40  63  89 138 180 216 258 335 399
#     4  10  20  41  63  89 137 173 216 269 349 389
#     4  10  20  44  67  91 120 175 218 286 342 398
#     4  10  24  39  65  95 134 183 217 288 333 411
#     4  10  24  42  69  96 119 163 244 277 345 408
#     4  10  24  32  54  98 144 166 220 252 342 388
#     4  11  23  38  64 106 139 182 227 270 325 415
#
# _framework density 22.677959000000001
#
# number of rings (size 3 to 8) (size 9 to 14) (size 15 to 20)
#    0.000    1.867    2.667    0.800    7.467    4.267 
#    1.200    6.667    0.000    0.000    0.000    0.000 
#    0.000    0.000    0.000    0.000    0.000    0.000 
#
# Total GULP energy -167232.401009 kJ/mol
# GULP energy per Si atom -5574.413367 kJ/mol
# Density = 2.262634 g / cm^3
# Si number density = 22.677959 Si / 1000 Ang^3
#
#
#
# Elastic Constant Matrix: (Units=GPa)
#
#
# Indices 1 2 3 4 5 6 
#
# 1 64.2383 18.5679 8.2335 0.0000 0.0000 0.0000
# 2 18.5679 91.1903 -0.8057 0.0000 0.0000 0.0000
# 3 8.2335 -0.8057 75.3641 0.0000 0.0000 0.0000
# 4 0.0000 0.0000 0.0000 22.8098 0.0000 0.0000
# 5 0.0000 0.0000 0.0000 0.0000 18.0775 0.0000
# 6 0.0000 0.0000 0.0000 0.0000 0.0000 37.2630
#
#
#
# Elastic Compliance Matrix: (Units=1/GPa)
#
#
# Indices 1 2 3 4 5 6 
#
# 1 0.016801 -0.003437 -0.001872 0.000000 0.000000 0.000000
# 2 -0.003437 0.011670 0.000500 0.000000 0.000000 0.000000
# 3 -0.001872 0.000500 0.013479 0.000000 0.000000 0.000000
# 4 0.000000 0.000000 0.000000 0.043841 0.000000 0.000000
# 5 0.000000 0.000000 0.000000 0.000000 0.055317 0.000000
# 6 0.000000 0.000000 0.000000 0.000000 0.000000 0.026836
#
#
# Mechanical properties :
#
#
# Convention : Reuss Voigt Hill
#
# Bulk Modulus (GPa) = 30.92992 31.42045 31.17518
# Shear Modulus (GPa) = 26.54774 29.28319 27.91546
#
# Velocity S-wave (km/s) = 3.42517 3.59731 3.51230
# Velocity P-wave (km/s) = 5.41394 5.58026 5.49773
#
# Compressibility (1/GPa) = 0.03233115
#
# Stress axis : x y z
#
# Youngs Moduli (GPa) = 59.52177 85.68668 74.19055
#
# Poissons Ratio (x) = 0.29454 0.13890
# Poissons Ratio (y) = 0.20460 -0.03712
# Poissons Ratio (z) = 0.11144 -0.04287
#
# Static dielectric constant tensor:
#      x y z
#    x 1.891400 0.000000 0.000000 
#    y 0.000000 1.959240 0.000000 
#    z 0.000000 0.000000 1.884740 
# 
# From -- ./inp_files/27855.got.cif
#   From: 2010.05.17/outbox.cif.g08.bks.cpg/sg24_14_cif.got.tgz:27855.got - 2010.06.04 00:33:39.
