data_PCOD9333674
_publ_section_title
;
Structure prediction by ZEFSAII (Michael W. Deem and Ramdas Pophale) SiO2 
 PCOD9333674
Probable space group: I 21 21 21
;
_chemical_formula_sum "Si O2"
_cell_formula_units_Z 64
_cell_length_a 14.826187
_cell_length_b 24.627739
_cell_length_c 8.845448
_cell_angle_alpha 90.000000
_cell_angle_beta 90.000000
_cell_angle_gamma 90.000000
_cell_volume 3229.786758
_symmetry_space_group_name_H-M "I 21 21 21"
_symmetry_group_IT_number 24
_symmetry_cell_setting 'orthorhombic'
loop_
_space_group_symop_operation_xyz
x,y,z
-x,1/2-y,z
x,-y,1/2-z
1/2-x,y,-z
1/2+x,1/2+y,1/2+z
1/2-x,-y,1/2+z
1/2+x,1/2-y,-z
-x,1/2+y,1/2-z
loop_
_atom_site_type_symbol
_atom_site_label
_atom_site_fract_x
_atom_site_fract_y
_atom_site_fract_z
Si Si1 0.751572 0.830419 0.319246
Si Si2 0.659704 0.460532 0.104839
Si Si3 0.633084 0.374174 0.653381
Si Si4 0.514546 0.450663 0.863604
Si Si5 0.809322 0.946288 0.351973
Si Si6 0.896523 0.755326 0.820044
Si Si7 0.398001 0.251732 0.677744
Si Si8 0.341248 0.868462 0.182613
O O1 0.750000 0.830615 0.500000
O O2 0.769369 0.892529 0.271109
O O3 0.660956 0.802195 0.258299
O O4 0.833065 0.792613 0.262527
O O5 0.670720 0.500000 0.250000
O O6 0.630505 0.401856 0.171471
O O7 0.750000 0.459575 0.000000
O O8 0.575570 0.474099 0.998354
O O9 0.571126 0.405188 0.772096
O O10 0.633398 0.310207 0.684986
O O11 0.738070 0.388917 0.666564
O O12 0.608890 0.381935 0.475902
O O13 0.503753 0.500000 0.750000
O O14 0.412774 0.432766 0.900021
O O15 0.750000 0.956271 0.500000
O O16 0.806975 0.000000 0.250000
O O17 0.850137 0.696233 0.798629
O O18 0.000000 0.750000 0.768194
O O19 0.898184 0.766876 0.999872
O O20 0.500000 0.250000 0.735172
#
# Coordination Sequence:
#
# PCOD9333674 Si02
#       8
#     8   8   8   8   8   8   8   8
#     4  11  23  39  62  94 127 162 201 260 318 371
#     4  12  25  38  60  91 126 169 213 259 319 382
#     4  10  19  36  59  86 127 163 208 259 305 370
#     4  11  23  42  64  90 125 165 215 264 314 379
#     4  10  25  47  69  93 123 164 211 268 320 370
#     4  10  22  40  63  94 129 166 211 255 301 368
#     4  10  20  37  62  90 123 167 213 253 302 367
#     4  10  21  35  58  88 127 171 205 253 308 365
#
# _framework density 19.815550000000002
#
# number of rings (size 3 to 8) (size 9 to 14) (size 15 to 20)
#    0.000    1.500    2.500    2.250    1.750    5.500 
#    0.000    2.500    0.000    0.000    0.000    0.000 
#    0.000    0.000    0.000    0.000    0.000    0.000 
#
# Total GULP energy -178585.953682 kJ/mol
# GULP energy per Si atom -5580.811053 kJ/mol
# Density = 1.977045 g / cm^3
# Si number density = 19.815550 Si / 1000 Ang^3
#
#
#
# Elastic Constant Matrix: (Units=GPa)
#
#
# Indices 1 2 3 4 5 6 
#
# 1 129.8834 50.9092 43.1132 -0.0001 0.0534 0.0000
# 2 50.9092 104.9132 45.9327 0.0001 -0.0620 0.0000
# 3 43.1132 45.9327 73.4162 0.0041 0.2801 0.0004
# 4 -0.0001 0.0001 0.0041 44.8719 0.0136 -0.0001
# 5 0.0534 -0.0620 0.2801 0.0136-1538.9217 -0.0662
# 6 0.0000 0.0000 0.0004 -0.0001 -0.0662 23.5241
#
#
#
# Elastic Compliance Matrix: (Units=1/GPa)
#
#
# Indices 1 2 3 4 5 6 
#
# 1 0.010305 -0.003238 -0.004026 0.000000 0.000000 0.000000
# 2 -0.003238 0.014145 -0.006948 0.000001 -0.000002 0.000000
# 3 -0.004026 -0.006948 0.020332 -0.000002 0.000004 0.000000
# 4 0.000000 0.000001 -0.000002 0.022286 0.000000 0.000000
# 5 0.000000 -0.000002 0.000004 0.000000 -0.000650 -0.000002
# 6 0.000000 0.000000 0.000000 0.000000 -0.000002 0.042510
#
#
# Mechanical properties :
#
#
# Convention : Reuss Voigt Hill
#
# Bulk Modulus (GPa) = 61.13145 65.34701 63.23923
# Shear Modulus (GPa) = 35.01319 -282.88796 -123.93738
#
# Velocity S-wave (km/s) = 4.20808 -11.96121 -7.91715
# Velocity P-wave (km/s) = 7.38429 12.55832 7.18275
#
# Compressibility (1/GPa) = 0.01635819
#
# Stress axis : x y z
#
# Youngs Moduli (GPa) = 97.04448 70.69656 49.18322
#
# Poissons Ratio (x) = 0.22890 0.19799
# Poissons Ratio (y) = 0.31422 0.34174
# Poissons Ratio (z) = 0.39066 0.49122
#
# Static dielectric constant tensor:
#      x y z
#    x 1.500960 0.000590 0.000000 
#    y 0.000590 8.926880 -0.000490 
#    z 0.000000 -0.000490 1.705260 
# 
# From -- ./inp_files/13343.got.cif
#   From: 2010.05.17/outbox.cif.g08.bks.cpg/sg24_7_cif.got.tgz:13343.got - 2010.06.04 00:33:39.
