data_PCOD9333440
_publ_section_title
;
Structure prediction by ZEFSAII (Michael W. Deem and Ramdas Pophale) SiO2 
 PCOD9333440
Probable space group: I 21 21 21
;
_chemical_formula_sum "Si O2"
_cell_formula_units_Z 48
_cell_length_a 15.718852
_cell_length_b 20.980588
_cell_length_c 7.527777
_cell_angle_alpha 90.000000
_cell_angle_beta 90.000000
_cell_angle_gamma 90.000000
_cell_volume 2482.591280
_symmetry_space_group_name_H-M "I 21 21 21"
_symmetry_group_IT_number 24
_symmetry_cell_setting 'orthorhombic'
loop_
_space_group_symop_operation_xyz
x,y,z
-x,1/2-y,z
x,-y,1/2-z
1/2-x,y,-z
1/2+x,1/2+y,1/2+z
1/2-x,-y,1/2+z
1/2+x,1/2-y,-z
-x,1/2+y,1/2-z
loop_
_atom_site_type_symbol
_atom_site_label
_atom_site_fract_x
_atom_site_fract_y
_atom_site_fract_z
Si Si1 0.528813 0.655981 0.720760
Si Si2 0.631700 0.781896 0.631603
Si Si3 0.843819 0.636877 0.838713
Si Si4 0.480313 0.674294 0.125518
Si Si5 0.678645 0.425081 0.729278
Si Si6 0.310277 0.720990 0.233333
O O1 0.586077 0.719691 0.709338
O O2 0.442934 0.666240 0.610539
O O3 0.594095 0.600323 0.674135
O O4 0.494778 0.654378 0.922259
O O5 0.663867 0.764702 0.436703
O O6 0.712031 0.799790 0.754242
O O7 0.768385 0.607792 0.720143
O O8 0.820671 0.711489 0.865960
O O9 0.941968 0.638421 0.774756
O O10 0.837861 0.598564 0.025182
O O11 0.500000 0.750000 0.147412
O O12 0.380872 0.670512 0.170623
O O13 0.687107 0.500000 0.750000
#
# Coordination Sequence:
#
# PCOD9333440 Si02
#       6
#     8   8   8   8   8   8
#     4  10  19  33  49  76 105 138 182 225 265 326
#     4  10  20  32  49  82 112 139 175 218 286 332
#     4   9  19  34  51  74 103 142 180 217 257 327
#     4   9  17  30  52  73 102 141 169 210 269 323
#     4  10  20  37  53  73 104 148 189 224 260 309
#     4  10  20  33  52  78 111 146 167 218 283 341
#
# _framework density 19.334636
#
# number of rings (size 3 to 8) (size 9 to 14) (size 15 to 20)
#    0.000    2.333    3.333    0.000    7.000    0.667 
#    6.000    0.000    0.000    0.000    0.000   10.500 
#    0.000    0.000    0.000    0.000    0.000    0.000 
#
# Total GULP energy -133697.547890 kJ/mol
# GULP energy per Si atom -5570.731162 kJ/mol
# Density = 1.929063 g / cm^3
# Si number density = 19.334636 Si / 1000 Ang^3
#
#
#
# Elastic Constant Matrix: (Units=GPa)
#
#
# Indices 1 2 3 4 5 6 
#
# 1 186.4507 54.2797 26.9591 0.0000 0.0000 0.0000
# 2 54.2797 64.7731 7.0912 0.0000 0.0000 0.0000
# 3 26.9591 7.0912 44.1253 0.0000 0.0000 0.0000
# 4 0.0000 0.0000 0.0000 8.2090 0.0000 0.0000
# 5 0.0000 0.0000 0.0000 0.0000 23.4977 0.0000
# 6 0.0000 0.0000 0.0000 0.0000 0.0000 15.0555
#
#
#
# Elastic Compliance Matrix: (Units=1/GPa)
#
#
# Indices 1 2 3 4 5 6 
#
# 1 0.007647 -0.006002 -0.003707 0.000000 0.000000 0.000000
# 2 -0.006002 0.020426 0.000384 0.000000 0.000000 0.000000
# 3 -0.003707 0.000384 0.024866 0.000000 0.000000 0.000000
# 4 0.000000 0.000000 0.000000 0.121818 0.000000 0.000000
# 5 0.000000 0.000000 0.000000 0.000000 0.042557 0.000000
# 6 0.000000 0.000000 0.000000 0.000000 0.000000 0.066421
#
#
# Mechanical properties :
#
#
# Convention : Reuss Voigt Hill
#
# Bulk Modulus (GPa) = 29.16387 52.44546 40.80467
# Shear Modulus (GPa) = 15.93299 23.15371 19.54335
#
# Velocity S-wave (km/s) = 2.87377 3.46428 3.18275
# Velocity P-wave (km/s) = 5.11154 6.57158 5.88700
#
# Compressibility (1/GPa) = 0.03428900
#
# Stress axis : x y z
#
# Youngs Moduli (GPa) = 130.77495 48.95686 40.21554
#
# Poissons Ratio (x) = 0.29384 0.14909
# Poissons Ratio (y) = 0.78492 -0.01546
# Poissons Ratio (z) = 0.48483 -0.01882
#
# Static dielectric constant tensor:
#      x y z
#    x 1.805230 0.000000 0.000000 
#    y 0.000000 1.636450 0.000000 
#    z 0.000000 0.000000 1.783800 
# 
# From -- ./inp_files/13247.got.cif
#   From: 2010.05.17/outbox.cif.g08.bks.cpg/sg24_7_cif.got.tgz:13247.got - 2010.06.04 00:33:39.
