data_PCOD9333911
_publ_section_title
;
Structure prediction by ZEFSAII (Michael W. Deem and Ramdas Pophale) SiO2 
 PCOD9333911
Probable space group: I 21 21 21
;
_chemical_formula_sum "Si O2"
_cell_formula_units_Z 40
_cell_length_a 10.673809
_cell_length_b 6.004923
_cell_length_c 29.750340
_cell_angle_alpha 90.000000
_cell_angle_beta 90.000000
_cell_angle_gamma 90.000000
_cell_volume 1906.859977
_symmetry_space_group_name_H-M "I 21 21 21"
_symmetry_group_IT_number 24
_symmetry_cell_setting 'orthorhombic'
loop_
_space_group_symop_operation_xyz
x,y,z
-x,1/2-y,z
x,-y,1/2-z
1/2-x,y,-z
1/2+x,1/2+y,1/2+z
1/2-x,-y,1/2+z
1/2+x,1/2-y,-z
-x,1/2+y,1/2-z
loop_
_atom_site_type_symbol
_atom_site_label
_atom_site_fract_x
_atom_site_fract_y
_atom_site_fract_z
Si Si1 0.500000 0.750000 0.922275
Si Si2 0.662355 0.890304 0.624461
Si Si3 0.795088 0.398866 0.206635
Si Si4 0.626254 0.789736 0.161484
Si Si5 0.363517 0.500000 0.250000
Si Si6 0.134809 0.871209 0.465771
O O1 0.444812 0.560818 0.890242
O O2 0.600410 0.626364 0.953792
O O3 0.637295 0.737459 0.667640
O O4 0.680224 0.739431 0.580801
O O5 0.780309 0.044113 0.636593
O O6 0.868116 0.500000 0.250000
O O7 0.709188 0.582108 0.180160
O O8 0.713518 0.212899 0.232794
O O9 0.500000 0.750000 0.133563
O O10 0.571251 0.926204 0.204612
O O11 0.250000 0.851116 0.500000
O O12 0.000000 0.750000 0.477853
#
# Coordination Sequence:
#
# PCOD9333911 Si02
#       6
#     4   8   8   8   4   8
#     4  10  22  42  72  98 128 182 216 276 342 414
#     4  10  21  40  63  97 127 175 221 270 344 404
#     4   9  18  35  55  90 125 172 221 273 326 391
#     4  10  20  32  55  90 128 168 216 269 331 397
#     4   8  18  28  50  82 120 170 216 268 320 390
#     4  10  23  46  73 103 136 178 224 283 350 424
#
# _framework density 20.976896
#
# number of rings (size 3 to 8) (size 9 to 14) (size 15 to 20)
#    0.000    2.400    0.000    1.200    4.200    5.600 
#    7.200    0.000    0.000    0.000  618.800    0.000 
#    0.000    0.000    0.000    0.000    0.000    0.000 
#
# Total GULP energy -111356.424955 kJ/mol
# GULP energy per Si atom -5567.821248 kJ/mol
# Density = 2.092915 g / cm^3
# Si number density = 20.976896 Si / 1000 Ang^3
#
#
#
# Elastic Constant Matrix: (Units=GPa)
#
#
# Indices 1 2 3 4 5 6 
#
# 1 103.7019 34.1721 60.7755 0.0000 0.0000 0.0000
# 2 34.1721 104.6623 53.9276 0.0000 0.0000 0.0000
# 3 60.7755 53.9276 124.3163 0.0000 0.0000 0.0000
# 4 0.0000 0.0000 0.0000 25.3787 0.0000 0.0000
# 5 0.0000 0.0000 0.0000 0.0000 6.4369 0.0000
# 6 0.0000 0.0000 0.0000 0.0000 0.0000 26.3213
#
#
#
# Elastic Compliance Matrix: (Units=1/GPa)
#
#
# Indices 1 2 3 4 5 6 
#
# 1 0.013654 -0.001312 -0.006106 0.000000 0.000000 0.000000
# 2 -0.001312 0.012431 -0.004751 0.000000 0.000000 0.000000
# 3 -0.006106 -0.004751 0.013090 0.000000 0.000000 0.000000
# 4 0.000000 0.000000 0.000000 0.039403 0.000000 0.000000
# 5 0.000000 0.000000 0.000000 0.000000 0.155355 0.000000
# 6 0.000000 0.000000 0.000000 0.000000 0.000000 0.037992
#
#
# Mechanical properties :
#
#
# Convention : Reuss Voigt Hill
#
# Bulk Modulus (GPa) = 67.39946 70.04788 68.72367
# Shear Modulus (GPa) = 16.59980 23.88107 20.24043
#
# Velocity S-wave (km/s) = 2.81612 3.37775 3.10964
# Velocity P-wave (km/s) = 6.54020 6.97693 6.76209
#
# Compressibility (1/GPa) = 0.01483691
#
# Stress axis : x y z
#
# Youngs Moduli (GPa) = 73.23987 80.44496 76.39381
#
# Poissons Ratio (x) = 0.10553 0.46646
# Poissons Ratio (y) = 0.09608 0.36295
# Poissons Ratio (z) = 0.44720 0.38220
#
# Static dielectric constant tensor:
#      x y z
#    x 1.788340 0.000000 0.000000 
#    y 0.000000 1.845380 0.000000 
#    z 0.000000 0.000000 1.741670 
# 
# From -- ./inp_files/22808.got.cif
#   From: 2010.05.17/outbox.cif.g08.bks.cpg/sg24_12_cif.got.tgz:22808.got - 2010.06.04 00:33:39.
