data_PCOD9333651
_publ_section_title
;
Structure prediction by ZEFSAII (Michael W. Deem and Ramdas Pophale) SiO2 
 PCOD9333651
Probable space group: I 21 21 21
;
_chemical_formula_sum "Si O2"
_cell_formula_units_Z 56
_cell_length_a 15.593498
_cell_length_b 14.504371
_cell_length_c 11.623662
_cell_angle_alpha 90.000000
_cell_angle_beta 90.000000
_cell_angle_gamma 90.000000
_cell_volume 2628.968736
_symmetry_space_group_name_H-M "I 21 21 21"
_symmetry_group_IT_number 24
_symmetry_cell_setting 'orthorhombic'
loop_
_space_group_symop_operation_xyz
x,y,z
-x,1/2-y,z
x,-y,1/2-z
1/2-x,y,-z
1/2+x,1/2+y,1/2+z
1/2-x,-y,1/2+z
1/2+x,1/2-y,-z
-x,1/2+y,1/2-z
loop_
_atom_site_type_symbol
_atom_site_label
_atom_site_fract_x
_atom_site_fract_y
_atom_site_fract_z
Si Si1 0.656556 0.940885 0.648314
Si Si2 0.353900 0.996716 0.619518
Si Si3 0.980036 0.033775 0.504615
Si Si4 0.190933 0.138777 0.838501
Si Si5 0.454172 0.000000 0.250000
Si Si6 0.750000 0.788161 0.500000
Si Si7 0.713910 0.702449 0.882349
Si Si8 0.942902 0.172295 0.317055
O O1 0.708042 0.856045 0.593908
O O2 0.577822 0.903160 0.723692
O O3 0.703934 0.000000 0.750000
O O4 0.610718 0.994242 0.542602
O O5 0.271261 0.928766 0.624855
O O6 0.386348 0.000000 0.750000
O O7 0.435520 0.977439 0.539601
O O8 0.321848 0.099697 0.591646
O O9 0.984018 0.129408 0.432130
O O10 0.990492 0.037446 0.641908
O O11 0.220334 0.187632 0.720831
O O12 0.109608 0.077516 0.803197
O O13 0.184791 0.218161 0.934998
O O14 0.643460 0.774626 0.844943
O O15 0.750000 0.739564 0.000000
O O16 0.000000 0.250000 0.261634
#
# Coordination Sequence:
#
# PCOD9333651 Si02
#       8
#     8   8   8   8   4   4   8   8
#     4  10  25  48  67  94 127 175 236 284 337 392
#     4  10  19  35  64  98 129 175 214 265 334 396
#     4  11  24  42  64  90 134 184 218 270 336 402
#     4  11  23  37  66 104 139 169 218 280 344 405
#     4  12  24  44  62 104 150 180 210 266 358 420
#     4  12  24  46  72 102 126 174 234 296 340 396
#     4  11  21  37  60  96 133 174 214 271 330 399
#     4  11  22  39  67  97 125 167 228 278 322 401
#
# _framework density 21.301127999999999
#
# number of rings (size 3 to 8) (size 9 to 14) (size 15 to 20)
#    0.000    1.143    5.000    3.000    3.000    1.143 
#    9.000    0.000    0.000    0.000    0.000    0.000 
#    0.000    0.000    0.000    0.000    0.000    0.000 
#
# Total GULP energy -156148.173616 kJ/mol
# GULP energy per Si atom -5576.720486 kJ/mol
# Density = 2.125265 g / cm^3
# Si number density = 21.301128 Si / 1000 Ang^3
#
#
#
# Elastic Constant Matrix: (Units=GPa)
#
#
# Indices 1 2 3 4 5 6 
#
# 1 26.6136 18.7121 28.4249 0.0000 0.0000 0.0000
# 2 18.7121 91.4275 32.4668 0.0000 0.0000 0.0000
# 3 28.4249 32.4668 136.6637 0.0000 0.0000 0.0000
# 4 0.0000 0.0000 0.0000 43.1126 0.0000 0.0000
# 5 0.0000 0.0000 0.0000 0.0000 -16.1064 0.0000
# 6 0.0000 0.0000 0.0000 0.0000 0.0000 27.5194
#
#
#
# Elastic Compliance Matrix: (Units=1/GPa)
#
#
# Indices 1 2 3 4 5 6 
#
# 1 0.052651 -0.007522 -0.009164 0.000000 0.000000 0.000000
# 2 -0.007522 0.013020 -0.001529 0.000000 0.000000 0.000000
# 3 -0.009164 -0.001529 0.009586 0.000000 0.000000 0.000000
# 4 0.000000 0.000000 0.000000 0.023195 0.000000 0.000000
# 5 0.000000 0.000000 0.000000 0.000000 -0.062087 0.000000
# 6 0.000000 0.000000 0.000000 0.000000 0.000000 0.036338
#
#
# Mechanical properties :
#
#
# Convention : Reuss Voigt Hill
#
# Bulk Modulus (GPa) = 25.75419 45.99025 35.87222
# Shear Modulus (GPa) = 40.95857 22.57853 31.76855
#
# Velocity S-wave (km/s) = 4.38977 3.25925 3.86606
# Velocity P-wave (km/s) = 6.14900 5.98339 6.06676
#
# Compressibility (1/GPa) = 0.03882864
#
# Stress axis : x y z
#
# Youngs Moduli (GPa) = 18.99301 76.80555 104.31404
#
# Poissons Ratio (x) = 0.57770 0.95594
# Poissons Ratio (y) = 0.14286 0.15946
# Poissons Ratio (z) = 0.17405 0.11741
#
# Static dielectric constant tensor:
#      x y z
#    x 1.786930 0.000000 0.000000 
#    y 0.000000 1.806650 0.000000 
#    z 0.000000 0.000000 1.753810 
# 
# From -- ./inp_files/20879.got.cif
#   From: 2010.05.17/outbox.cif.g08.bks.cpg/sg24_11_cif.got.tgz:20879.got - 2010.06.04 00:33:39.
