data_PCOD9333584
_publ_section_title
;
Structure prediction by ZEFSAII (Michael W. Deem and Ramdas Pophale) SiO2 
 PCOD9333584
Probable space group: I 21 21 21
;
_chemical_formula_sum "Si O2"
_cell_formula_units_Z 32
_cell_length_a 4.884651
_cell_length_b 19.047470
_cell_length_c 17.102794
_cell_angle_alpha 90.000000
_cell_angle_beta 90.000000
_cell_angle_gamma 90.000000
_cell_volume 1591.248116
_symmetry_space_group_name_H-M "I 21 21 21"
_symmetry_group_IT_number 24
_symmetry_cell_setting 'orthorhombic'
loop_
_space_group_symop_operation_xyz
x,y,z
-x,1/2-y,z
x,-y,1/2-z
1/2-x,y,-z
1/2+x,1/2+y,1/2+z
1/2-x,-y,1/2+z
1/2+x,1/2-y,-z
-x,1/2+y,1/2-z
loop_
_atom_site_type_symbol
_atom_site_label
_atom_site_fract_x
_atom_site_fract_y
_atom_site_fract_z
Si Si1 0.557669 0.827637 0.145563
Si Si2 0.125150 0.467608 0.168987
Si Si3 0.056940 0.827641 0.255106
Si Si4 0.617609 0.527091 0.083488
O O1 0.500000 0.750000 0.112224
O O2 0.135286 0.667411 0.177805
O O3 0.485419 0.892822 0.091088
O O4 0.364293 0.833559 0.222750
O O5 0.237151 0.500000 0.250000
O O6 0.028908 0.389006 0.186737
O O7 0.360186 0.478419 0.105222
O O8 0.858131 0.511918 0.145350
O O9 0.000000 0.750000 0.287607
O O10 0.750000 0.513311 0.000000
#
# Coordination Sequence:
#
# PCOD9333584 Si02
#       4
#     8   8   8   8
#     4  10  19  35  55  84 119 155 193 237 293 363
#     4  12  21  38  64  86 117 161 208 251 297 354
#     4  10  20  34  59  89 113 145 200 255 299 342
#     4  12  24  38  57  90 126 162 198 248 304 361
#
# _framework density 20.110002000000001
#
# number of rings (size 3 to 8) (size 9 to 14) (size 15 to 20)
#    0.000    1.000    5.000    3.000    0.000    0.000 
#    0.000    6.250    0.000    3.000    0.000    0.000 
#    0.000    0.000    0.000    0.000    0.000    0.000 
#
# Total GULP energy -89463.400289 kJ/mol
# GULP energy per Si atom -5591.462518 kJ/mol
# Density = 2.006423 g / cm^3
# Si number density = 20.110002 Si / 1000 Ang^3
#
#
#
# Elastic Constant Matrix: (Units=GPa)
#
#
# Indices 1 2 3 4 5 6 
#
# 1 75.9420 5.6788 4.1714 0.0000 0.0000 0.0000
# 2 5.6788 111.2455 20.6873 0.0000 0.0000 0.0000
# 3 4.1714 20.6873 38.1460 0.0000 0.0000 0.0000
# 4 0.0000 0.0000 0.0000 15.9857 0.0000 0.0000
# 5 0.0000 0.0000 0.0000 0.0000 34.5599 0.0000
# 6 0.0000 0.0000 0.0000 0.0000 0.0000 27.7684
#
#
#
# Elastic Compliance Matrix: (Units=1/GPa)
#
#
# Indices 1 2 3 4 5 6 
#
# 1 0.013268 -0.000453 -0.001205 0.000000 0.000000 0.000000
# 2 -0.000453 0.010013 -0.005381 0.000000 0.000000 0.000000
# 3 -0.001205 -0.005381 0.029265 0.000000 0.000000 0.000000
# 4 0.000000 0.000000 0.000000 0.062556 0.000000 0.000000
# 5 0.000000 0.000000 0.000000 0.000000 0.028935 0.000000
# 6 0.000000 0.000000 0.000000 0.000000 0.000000 0.036012
#
#
# Mechanical properties :
#
#
# Convention : Reuss Voigt Hill
#
# Bulk Modulus (GPa) = 25.99571 31.82315 28.90943
# Shear Modulus (GPa) = 24.16049 28.64921 26.40485
#
# Velocity S-wave (km/s) = 3.46991 3.77852 3.62749
# Velocity P-wave (km/s) = 5.38595 5.90721 5.65259
#
# Compressibility (1/GPa) = 0.03846789
#
# Stress axis : x y z
#
# Youngs Moduli (GPa) = 75.36918 99.87178 34.17072
#
# Poissons Ratio (x) = 0.04526 0.04118
# Poissons Ratio (y) = 0.03416 0.18386
# Poissons Ratio (z) = 0.09083 0.53737
#
# Static dielectric constant tensor:
#      x y z
#    x 1.715790 0.000000 0.000000 
#    y 0.000000 1.747120 0.000000 
#    z 0.000000 0.000000 1.703790 
# 
# From -- ./inp_files/23519.got.cif
#   From: 2010.05.17/outbox.cif.g08.bks.cpg/sg24_12_cif.got.tgz:23519.got - 2010.06.04 00:33:39.
