data_PCOD9333113
_publ_section_title
;
Structure prediction by ZEFSAII (Michael W. Deem and Ramdas Pophale) SiO2 
 PCOD9333113
Probable space group: I 21 21 21
;
_chemical_formula_sum "Si O2"
_cell_formula_units_Z 52
_cell_length_a 9.672801
_cell_length_b 21.660373
_cell_length_c 13.145689
_cell_angle_alpha 90.000000
_cell_angle_beta 90.000000
_cell_angle_gamma 90.000000
_cell_volume 2754.238455
_symmetry_space_group_name_H-M "I 21 21 21"
_symmetry_group_IT_number 24
_symmetry_cell_setting 'orthorhombic'
loop_
_space_group_symop_operation_xyz
x,y,z
-x,1/2-y,z
x,-y,1/2-z
1/2-x,y,-z
1/2+x,1/2+y,1/2+z
1/2-x,-y,1/2+z
1/2+x,1/2-y,-z
-x,1/2+y,1/2-z
loop_
_atom_site_type_symbol
_atom_site_label
_atom_site_fract_x
_atom_site_fract_y
_atom_site_fract_z
Si Si1 0.750000 0.680697 0.000000
Si Si2 0.506730 0.351440 0.233740
Si Si3 0.245948 0.783459 0.378657
Si Si4 0.743567 0.424378 0.335287
Si Si5 0.750000 0.471767 0.000000
Si Si6 0.066984 0.100222 0.154072
Si Si7 0.500000 0.250000 0.399541
Si Si8 0.766269 0.859511 0.378500
O O1 0.718423 0.634229 0.906792
O O2 0.876292 0.723559 0.966798
O O3 0.608866 0.309319 0.164425
O O4 0.605831 0.404514 0.276251
O O5 0.459089 0.306885 0.325731
O O6 0.377224 0.377797 0.173592
O O7 0.250000 0.785397 0.500000
O O8 0.127970 0.830291 0.342924
O O9 0.218649 0.712988 0.349345
O O10 0.712844 0.482255 0.407553
O O11 0.864713 0.431573 0.252661
O O12 0.869379 0.429878 0.050798
O O13 0.902468 0.103374 0.153007
O O14 0.750000 0.862803 0.500000
#
# Coordination Sequence:
#
# PCOD9333113 Si02
#       8
#     4   8   8   8   4   8   4   8
#     4   9  20  36  56  88 120 150 203 242 302 350
#     4  10  19  36  59  86 124 165 196 234 311 369
#     4  10  18  34  55  88 127 164 190 227 290 379
#     4   9  22  41  64  84 112 158 213 257 290 358
#     4  11  22  44  68  82 110 162 223 262 288 354
#     4  11  22  36  63  90 116 157 210 244 300 352
#     4  10  18  34  54  84 118 166 190 238 288 370
#     4  11  22  33  56  94 136 154 186 248 305 369
#
# _framework density 18.879991
#
# number of rings (size 3 to 8) (size 9 to 14) (size 15 to 20)
#    0.000    1.846    2.308    1.846    2.154    3.692 
#    0.000    0.000    6.769    0.000    0.000    0.000 
#    0.000    0.000    0.000    0.000    0.000    0.000 
#
# Total GULP energy -145124.293217 kJ/mol
# GULP energy per Si atom -5581.703585 kJ/mol
# Density = 1.883702 g / cm^3
# Si number density = 18.879991 Si / 1000 Ang^3
#
#
#
# Elastic Constant Matrix: (Units=GPa)
#
#
# Indices 1 2 3 4 5 6 
#
# 1 155.3533 47.5961 78.6541 0.0000 0.0000 0.0000
# 2 47.5961 67.4102 39.2466 0.0001 0.0000 0.0000
# 3 78.6541 39.2466 104.5449 0.0001 0.0000 0.0000
# 4 0.0000 0.0001 0.0001 -13.9442 0.0000 0.0000
# 5 0.0000 0.0000 0.0000 0.0000 33.6152 0.0000
# 6 0.0000 0.0000 0.0000 0.0000 0.0000 1.8272
#
#
#
# Elastic Compliance Matrix: (Units=1/GPa)
#
#
# Indices 1 2 3 4 5 6 
#
# 1 0.011114 -0.003812 -0.006930 0.000000 0.000000 0.000000
# 2 -0.003812 0.020291 -0.004749 0.000000 0.000000 0.000000
# 3 -0.006930 -0.004749 0.016562 0.000000 0.000000 0.000000
# 4 0.000000 0.000000 0.000000 -0.071715 0.000000 -0.000001
# 5 0.000000 0.000000 0.000000 0.000000 0.029748 0.000000
# 6 0.000000 0.000000 0.000000 -0.000001 0.000000 0.547271
#
#
# Mechanical properties :
#
#
# Convention : Reuss Voigt Hill
#
# Bulk Modulus (GPa) = 58.88040 73.14465 66.01253
# Shear Modulus (GPa) = 8.47578 15.08709 11.78143
#
# Velocity S-wave (km/s) = 2.12109 2.82991 2.50074
# Velocity P-wave (km/s) = 6.10353 7.03590 6.58623
#
# Compressibility (1/GPa) = 0.01698358
#
# Stress axis : x y z
#
# Youngs Moduli (GPa) = 89.98015 49.28221 60.37876
#
# Poissons Ratio (x) = 0.18787 0.41844
# Poissons Ratio (y) = 0.34302 0.28676
# Poissons Ratio (z) = 0.62358 0.23406
#
# Static dielectric constant tensor:
#      x y z
#    x 1.631190 0.000000 0.000000 
#    y 0.000000 1.676810 0.000000 
#    z 0.000000 0.000000 1.681590 
# 
# From -- ./inp_files/25040.got.cif
#   From: 2010.05.17/outbox.cif.g08.bks.cpg/sg24_13_cif.got.tgz:25040.got - 2010.06.04 00:33:39.
