data_PCOD9333981
_publ_section_title
;
Structure prediction by ZEFSAII (Michael W. Deem and Ramdas Pophale) SiO2 
 PCOD9333981
Probable space group: I 21 21 21
;
_chemical_formula_sum "Si O2"
_cell_formula_units_Z 64
_cell_length_a 25.785482
_cell_length_b 15.297715
_cell_length_c 9.339440
_cell_angle_alpha 90.000000
_cell_angle_beta 90.000000
_cell_angle_gamma 90.000000
_cell_volume 3684.025741
_symmetry_space_group_name_H-M "I 21 21 21"
_symmetry_group_IT_number 24
_symmetry_cell_setting 'orthorhombic'
loop_
_space_group_symop_operation_xyz
x,y,z
-x,1/2-y,z
x,-y,1/2-z
1/2-x,y,-z
1/2+x,1/2+y,1/2+z
1/2-x,-y,1/2+z
1/2+x,1/2-y,-z
-x,1/2+y,1/2-z
loop_
_atom_site_type_symbol
_atom_site_label
_atom_site_fract_x
_atom_site_fract_y
_atom_site_fract_z
Si Si1 0.444377 0.220628 0.806180
Si Si2 0.483437 0.038234 0.905671
Si Si3 0.916008 0.875704 0.521862
Si Si4 0.801537 0.873514 0.089945
Si Si5 0.802611 0.914749 0.417665
Si Si6 0.529182 0.833470 0.204664
Si Si7 0.395756 0.247720 0.507949
Si Si8 0.925766 0.570366 0.864740
O O1 0.500000 0.250000 0.745616
O O2 0.454971 0.130514 0.885850
O O3 0.407415 0.216629 0.669476
O O4 0.428409 0.292658 0.921793
O O5 0.493756 0.000000 0.750000
O O6 0.539889 0.053463 0.977288
O O7 0.443480 0.978269 0.991418
O O8 0.856344 0.893220 0.494073
O O9 0.926185 0.860830 0.688265
O O10 0.800511 0.866327 0.263285
O O11 0.847594 0.814606 0.022895
O O12 0.805821 0.979186 0.083351
O O13 0.750000 0.850470 0.000000
O O14 0.750000 0.891462 0.500000
O O15 0.500000 0.750000 0.270915
O O16 0.482278 0.900500 0.194030
O O17 0.555880 0.803027 0.057567
O O18 0.394782 0.159642 0.407450
O O19 0.903495 0.500000 0.750000
#
# Coordination Sequence:
#
# PCOD9333981 Si02
#       8
#     8   8   8   8   8   8   8   8
#     4  10  20  34  53  82 117 152 194 234 281 348
#     4  11  22  33  55  82 116 155 194 238 285 339
#     4  11  22  35  56  79 118 159 192 232 290 339
#     4  10  23  42  60  85 114 147 195 245 293 347
#     4  10  23  40  60  85 115 148 196 247 287 340
#     4  10  22  35  51  80 123 157 190 228 281 348
#     4  11  22  37  58  83 113 160 192 240 293 350
#     4  11  22  37  52  85 122 154 195 237 285 352
#
# _framework density 17.372301
#
# number of rings (size 3 to 8) (size 9 to 14) (size 15 to 20)
#    0.000    1.500    3.750    2.250    8.750    0.000 
#    0.000    0.000    0.000    0.000    3.250    0.000 
#    0.000    0.000    0.000    0.000    0.000    0.000 
#
# Total GULP energy -178212.484375 kJ/mol
# GULP energy per Si atom -5569.140137 kJ/mol
# Density = 1.733276 g / cm^3
# Si number density = 17.372301 Si / 1000 Ang^3
#
#
#
# Elastic Constant Matrix: (Units=GPa)
#
#
# Indices 1 2 3 4 5 6 
#
# 1 89.7325 21.1408 28.0333 0.0000 0.0000 0.0000
# 2 21.1408 55.2419 14.7917 0.0000 0.0000 0.0000
# 3 28.0333 14.7917 72.5004 0.0000 0.0000 0.0000
# 4 0.0000 0.0000 0.0000 9.1716 0.0000 0.0000
# 5 0.0000 0.0000 0.0000 0.0000 22.5777 0.0000
# 6 0.0000 0.0000 0.0000 0.0000 0.0000 28.3962
#
#
#
# Elastic Compliance Matrix: (Units=1/GPa)
#
#
# Indices 1 2 3 4 5 6 
#
# 1 0.013452 -0.003972 -0.004391 0.000000 0.000000 0.000000
# 2 -0.003972 0.020321 -0.002610 0.000000 0.000000 0.000000
# 3 -0.004391 -0.002610 0.016023 0.000000 0.000000 0.000000
# 4 0.000000 0.000000 0.000000 0.109032 0.000000 0.000000
# 5 0.000000 0.000000 0.000000 0.000000 0.044291 0.000000
# 6 0.000000 0.000000 0.000000 0.000000 0.000000 0.035216
#
#
# Mechanical properties :
#
#
# Convention : Reuss Voigt Hill
#
# Bulk Modulus (GPa) = 35.90664 38.37849 37.14256
# Shear Modulus (GPa) = 18.54835 22.26304 20.40570
#
# Velocity S-wave (km/s) = 3.27111 3.58372 3.43098
# Velocity P-wave (km/s) = 5.91444 6.26609 6.09280
#
# Compressibility (1/GPa) = 0.02785000
#
# Stress axis : x y z
#
# Youngs Moduli (GPa) = 74.33925 49.20963 62.40892
#
# Poissons Ratio (x) = 0.19547 0.27403
# Poissons Ratio (y) = 0.29529 0.16289
# Poissons Ratio (z) = 0.32642 0.12844
#
# Static dielectric constant tensor:
#      x y z
#    x 1.594610 0.000000 0.000000 
#    y 0.000000 1.648230 0.000000 
#    z 0.000000 0.000000 1.619330 
# 
# From -- ./inp_files/13379.got.cif
#   From: 2010.05.17/outbox.cif.g08.bks.cpg/sg24_7_cif.got.tgz:13379.got - 2010.06.04 00:33:39.
