data_PCOD9333973
_publ_section_title
;
Structure prediction by ZEFSAII (Michael W. Deem and Ramdas Pophale) SiO2 
 PCOD9333973
Probable space group: I 21 21 21
;
_chemical_formula_sum "Si O2"
_cell_formula_units_Z 48
_cell_length_a 18.080689
_cell_length_b 15.540132
_cell_length_c 8.673187
_cell_angle_alpha 90.000000
_cell_angle_beta 90.000000
_cell_angle_gamma 90.000000
_cell_volume 2436.959938
_symmetry_space_group_name_H-M "I 21 21 21"
_symmetry_group_IT_number 24
_symmetry_cell_setting 'orthorhombic'
loop_
_space_group_symop_operation_xyz
x,y,z
-x,1/2-y,z
x,-y,1/2-z
1/2-x,y,-z
1/2+x,1/2+y,1/2+z
1/2-x,-y,1/2+z
1/2+x,1/2-y,-z
-x,1/2+y,1/2-z
loop_
_atom_site_type_symbol
_atom_site_label
_atom_site_fract_x
_atom_site_fract_y
_atom_site_fract_z
Si Si1 0.069868 0.366298 0.057679
Si Si2 0.011064 0.462542 0.597620
Si Si3 0.880600 0.824017 0.749358
Si Si4 0.538883 0.664996 0.843751
Si Si5 0.670657 0.745228 0.961929
Si Si6 0.284703 0.396202 0.749477
O O1 0.150700 0.372439 0.132188
O O2 0.007505 0.349753 0.187242
O O3 0.051080 0.458635 0.985873
O O4 0.079084 0.303409 0.911248
O O5 0.970238 0.500000 0.750000
O O6 0.071960 0.397937 0.666964
O O7 0.968000 0.412360 0.463973
O O8 0.797177 0.859205 0.719057
O O9 0.871803 0.749732 0.875594
O O10 0.500000 0.750000 0.912527
O O11 0.623841 0.694169 0.835117
O O12 0.685754 0.843137 0.900964
O O13 0.750000 0.706634 0.000000
O O14 0.280642 0.500000 0.750000
#
# Coordination Sequence:
#
# PCOD9333973 Si02
#       6
#     8   8   8   8   8   8
#     4  11  21  33  55  84 119 157 195 238 286 350
#     4  10  21  38  57  84 114 153 197 242 287 345
#     4  10  20  34  52  84 123 156 198 225 277 352
#     4  12  21  39  58  83 118 153 192 243 303 349
#     4  10  22  39  58  81 117 163 194 240 297 344
#     4  11  19  31  53  82 123 164 193 223 273 350
#
# _framework density 19.696670999999998
#
# number of rings (size 3 to 8) (size 9 to 14) (size 15 to 20)
#    0.000    1.333    3.333    4.500    0.000    2.667 
#    6.000    0.000    0.000    2.000    0.000    0.000 
#    0.000    0.000    0.000    0.000    0.000    0.000 
#
# Total GULP energy -133746.006672 kJ/mol
# GULP energy per Si atom -5572.750278 kJ/mol
# Density = 1.965184 g / cm^3
# Si number density = 19.696671 Si / 1000 Ang^3
#
#
#
# Elastic Constant Matrix: (Units=GPa)
#
#
# Indices 1 2 3 4 5 6 
#
# 1 88.7271 3.7852 46.9181 0.0000 0.0000 0.0000
# 2 3.7852 9.9448 20.2469 0.0000 0.0000 0.0000
# 3 46.9181 20.2469 128.6387 0.0000 0.0000 0.0000
# 4 0.0000 0.0000 0.0000 24.7107 0.0000 0.0000
# 5 0.0000 0.0000 0.0000 0.0000 16.3922 0.0000
# 6 0.0000 0.0000 0.0000 0.0000 0.0000 19.6960
#
#
#
# Elastic Compliance Matrix: (Units=1/GPa)
#
#
# Indices 1 2 3 4 5 6 
#
# 1 0.014348 0.007642 -0.006436 0.000000 0.000000 0.000000
# 2 0.007642 0.152041 -0.026717 0.000000 0.000000 0.000000
# 3 -0.006436 -0.026717 0.014326 0.000000 0.000000 0.000000
# 4 0.000000 0.000000 0.000000 0.040468 0.000000 0.000000
# 5 0.000000 0.000000 0.000000 0.000000 0.061005 0.000000
# 6 0.000000 0.000000 0.000000 0.000000 0.000000 0.050772
#
#
# Mechanical properties :
#
#
# Convention : Reuss Voigt Hill
#
# Bulk Modulus (GPa) = 7.71058 41.02345 24.36702
# Shear Modulus (GPa) = 11.70376 22.58380 17.14378
#
# Velocity S-wave (km/s) = 2.44027 3.38979 2.95344
# Velocity P-wave (km/s) = 3.44427 6.01612 4.90188
#
# Compressibility (1/GPa) = 0.12969185
#
# Stress axis : x y z
#
# Youngs Moduli (GPa) = 69.69771 6.57718 69.80247
#
# Poissons Ratio (x) = -0.05026 0.44923
# Poissons Ratio (y) = -0.53261 1.86494
# Poissons Ratio (z) = 0.44856 0.17572
#
# Static dielectric constant tensor:
#      x y z
#    x 1.751730 0.000000 0.000000 
#    y 0.000000 1.698300 0.000000 
#    z 0.000000 0.000000 1.793870 
# 
# From -- ./inp_files/14197.got.cif
#   From: 2010.05.17/outbox.cif.g08.bks.cpg/sg24_8_cif.got.tgz:14197.got - 2010.06.04 00:33:39.
