data_PCOD9333912
_publ_section_title
;
Structure prediction by ZEFSAII (Michael W. Deem and Ramdas Pophale) SiO2 
 PCOD9333912
Probable space group: I 21 21 21
;
_chemical_formula_sum "Si O2"
_cell_formula_units_Z 60
_cell_length_a 26.072003
_cell_length_b 12.063467
_cell_length_c 8.463391
_cell_angle_alpha 90.000000
_cell_angle_beta 90.000000
_cell_angle_gamma 90.000000
_cell_volume 2661.895140
_symmetry_space_group_name_H-M "I 21 21 21"
_symmetry_group_IT_number 24
_symmetry_cell_setting 'orthorhombic'
loop_
_space_group_symop_operation_xyz
x,y,z
-x,1/2-y,z
x,-y,1/2-z
1/2-x,y,-z
1/2+x,1/2+y,1/2+z
1/2-x,-y,1/2+z
1/2+x,1/2-y,-z
-x,1/2+y,1/2-z
loop_
_atom_site_type_symbol
_atom_site_label
_atom_site_fract_x
_atom_site_fract_y
_atom_site_fract_z
Si Si1 0.952350 0.105419 0.683264
Si Si2 0.694073 0.860024 0.073661
Si Si3 0.539170 0.103944 0.670284
Si Si4 0.576904 0.348997 0.691553
Si Si5 0.000000 0.750000 0.588979
Si Si6 0.886250 0.696055 0.506460
Si Si7 0.117172 0.178859 0.635652
Si Si8 0.190602 0.603385 0.550717
O O1 0.919132 0.214860 0.669707
O O2 0.971040 0.078066 0.511580
O O3 0.997224 0.140359 0.801256
O O4 0.923177 0.000000 0.750000
O O5 0.665855 0.742275 0.059363
O O6 0.693345 0.881049 0.260833
O O7 0.672473 0.977896 0.006824
O O8 0.750000 0.850853 0.000000
O O9 0.571909 0.215159 0.676233
O O10 0.481607 0.118729 0.735552
O O11 0.565130 0.000000 0.750000
O O12 0.593049 0.386789 0.513820
O O13 0.612971 0.372960 0.842258
O O14 0.055185 0.755204 0.507854
O O15 0.875753 0.639219 0.680463
O O16 0.846757 0.798871 0.492310
O O17 0.250000 0.614831 0.500000
#
# Coordination Sequence:
#
# PCOD9333912 Si02
#       8
#     8   8   8   8   4   8   8   8
#     4  10  21  32  54  71 101 142 176 220 267 317
#     4   9  18  31  49  69 105 141 174 225 260 306
#     4  10  21  34  48  75 103 135 179 219 265 328
#     4  10  21  36  50  71 107 137 174 225 265 315
#     4  10  20  34  52  74 102 140 178 216 270 314
#     4  10  20  32  56  69 101 139 175 217 268 309
#     4   9  20  33  49  72  99 138 182 212 261 313
#     4   9  19  32  47  74 103 136 183 220 263 317
#
# _framework density 22.540331999999999
#
# number of rings (size 3 to 8) (size 9 to 14) (size 15 to 20)
#    0.000    2.400    0.000    3.200   13.067    1.067 
#    0.000    0.000    0.000    0.000    0.000    0.000 
#    0.000    2.133    0.000    0.000    0.000    0.000 
#
# Total GULP energy -167148.392868 kJ/mol
# GULP energy per Si atom -5571.613096 kJ/mol
# Density = 2.248903 g / cm^3
# Si number density = 22.540332 Si / 1000 Ang^3
#
#
#
# Elastic Constant Matrix: (Units=GPa)
#
#
# Indices 1 2 3 4 5 6 
#
# 1 76.0707 -1.1206 16.7300 0.0000 0.0000 0.0000
# 2 -1.1206 37.9498 20.3920 0.0000 0.0000 0.0000
# 3 16.7300 20.3920 119.6801 0.0000 0.0000 0.0000
# 4 0.0000 0.0000 0.0000 24.7793 0.0000 0.0000
# 5 0.0000 0.0000 0.0000 0.0000 27.9341 0.0000
# 6 0.0000 0.0000 0.0000 0.0000 0.0000 -30.2948
#
#
#
# Elastic Compliance Matrix: (Units=1/GPa)
#
#
# Indices 1 2 3 4 5 6 
#
# 1 0.013647 0.001572 -0.002176 0.000000 0.000000 0.000000
# 2 0.001572 0.029187 -0.005193 0.000000 0.000000 0.000000
# 3 -0.002176 -0.005193 0.009545 0.000000 0.000000 0.000000
# 4 0.000000 0.000000 0.000000 0.040356 0.000000 0.000000
# 5 0.000000 0.000000 0.000000 0.000000 0.035799 0.000000
# 6 0.000000 0.000000 0.000000 0.000000 0.000000 -0.033009
#
#
# Mechanical properties :
#
#
# Convention : Reuss Voigt Hill
#
# Bulk Modulus (GPa) = 24.51807 33.96703 29.24255
# Shear Modulus (GPa) = 41.42037 17.66365 29.54201
#
# Velocity S-wave (km/s) = 4.29139 2.80241 3.62419
# Velocity P-wave (km/s) = 5.95447 5.05702 5.52400
#
# Compressibility (1/GPa) = 0.04078625
#
# Stress axis : x y z
#
# Youngs Moduli (GPa) = 73.27458 34.26138 104.77190
#
# Poissons Ratio (x) = -0.05386 0.22794
# Poissons Ratio (y) = -0.11519 0.54407
# Poissons Ratio (z) = 0.15942 0.17792
#
# Static dielectric constant tensor:
#      x y z
#    x 1.885030 0.000000 0.000000 
#    y 0.000000 1.899400 0.000000 
#    z 0.000000 0.000000 1.988020 
# 
# From -- ./inp_files/16498.got.cif
#   From: 2010.05.17/outbox.cif.g08.bks.cpg/sg24_9_cif.got.tgz:16498.got - 2010.06.04 00:33:39.
