data_PCOD9333012
_publ_section_title
;
Structure prediction by ZEFSAII (Michael W. Deem and Ramdas Pophale) SiO2 
 PCOD9333012
Probable space group: I 21 21 21
;
_chemical_formula_sum "Si O2"
_cell_formula_units_Z 64
_cell_length_a 31.624608
_cell_length_b 7.652484
_cell_length_c 12.431367
_cell_angle_alpha 90.000000
_cell_angle_beta 90.000000
_cell_angle_gamma 90.000000
_cell_volume 3008.475431
_symmetry_space_group_name_H-M "I 21 21 21"
_symmetry_group_IT_number 24
_symmetry_cell_setting 'orthorhombic'
loop_
_space_group_symop_operation_xyz
x,y,z
-x,1/2-y,z
x,-y,1/2-z
1/2-x,y,-z
1/2+x,1/2+y,1/2+z
1/2-x,-y,1/2+z
1/2+x,1/2-y,-z
-x,1/2+y,1/2-z
loop_
_atom_site_type_symbol
_atom_site_label
_atom_site_fract_x
_atom_site_fract_y
_atom_site_fract_z
Si Si1 0.935329 0.203056 0.250000
Si Si2 0.702420 0.286169 0.976125
Si Si3 0.162538 0.787934 0.250000
Si Si4 0.797580 0.286169 0.476125
Si Si5 0.546424 0.792466 0.985508
Si Si6 0.546424 0.792466 0.514492
Si Si7 0.872670 0.707901 0.628794
Si Si8 0.127330 0.792099 0.871206
O O1 0.884645 0.214227 0.250000
O O2 0.950167 0.281956 0.363600
O O3 0.950166 0.281955 0.136401
O O4 0.948748 0.000000 0.250000
O O5 0.686791 0.235032 0.857772
O O6 0.702520 0.500000 0.978310
O O7 0.750000 0.228559 0.000000
O O8 0.667710 0.224321 0.062409
O O9 0.186791 0.735033 0.142228
O O10 0.158955 0.000000 0.250000
O O11 0.750000 0.228559 0.500000
O O12 0.832290 0.224322 0.562409
O O13 0.500000 0.750000 0.029222
O O14 0.550817 1.000000 0.977648
O O15 0.584829 0.732404 0.059902
O O16 0.500000 0.750000 0.470778
O O17 0.584829 0.732404 0.440098
O O18 0.876106 0.778759 0.750000
O O19 0.866402 0.500000 0.637249
#
# Coordination Sequence:
#
# PCOD9333012 Si02
#       8
#     8   8   8   8   8   8   8   8
#     4  10  21  37  57  84 116 146 178 229 285 333
#     4   9  18  31  52  85 117 145 184 233 279 323
#     4  10  18  31  57  84 111 150 189 229 278 333
#     4   9  18  31  52  85 117 145 184 233 279 323
#     4  11  23  39  60  84 112 145 184 230 282 337
#     4  11  23  39  60  84 112 145 184 230 282 337
#     4  10  21  37  57  82 114 150 188 232 279 329
#     4  10  21  37  57  82 114 150 188 232 279 329
#
# _framework density 21.273232
#
# number of rings (size 3 to 8) (size 9 to 14) (size 15 to 20)
#    0.000    2.000    2.500    1.125    1.750    2.000 
#    0.000    0.000    0.000    3.000    0.000    0.000 
#    0.000    0.000    0.000    0.000    0.000    0.000 
#
# Total GULP energy -178783.912969 kJ/mol
# GULP energy per Si atom -5586.997280 kJ/mol
# Density = 2.122481 g / cm^3
# Si number density = 21.273232 Si / 1000 Ang^3
#
#
#
# Elastic Constant Matrix: (Units=GPa)
#
#
# Indices 1 2 3 4 5 6 
#
# 1 193.4690 -10.1759 95.1719 0.0000 0.0000 0.0000
# 2 -10.1759 41.7544 10.0112 0.0000 0.0000 0.0000
# 3 95.1719 10.0112 178.4709 0.0000 0.0000 0.0000
# 4 0.0000 0.0000 0.0000 38.4488 0.0000 0.0000
# 5 0.0000 0.0000 0.0000 0.0000 24.9797 0.0000
# 6 0.0000 0.0000 0.0000 0.0000 0.0000 17.9783
#
#
#
# Elastic Compliance Matrix: (Units=1/GPa)
#
#
# Indices 1 2 3 4 5 6 
#
# 1 0.007306 0.002752 -0.004050 0.000000 0.000000 0.000000
# 2 0.002752 0.025312 -0.002887 0.000000 0.000000 0.000000
# 3 -0.004050 -0.002887 0.007925 0.000000 0.000000 0.000000
# 4 0.000000 0.000000 0.000000 0.026009 0.000000 0.000000
# 5 0.000000 0.000000 0.000000 0.000000 0.040033 0.000000
# 6 0.000000 0.000000 0.000000 0.000000 0.000000 0.055622
#
#
# Mechanical properties :
#
#
# Convention : Reuss Voigt Hill
#
# Bulk Modulus (GPa) = 31.08335 67.07874 49.08105
# Shear Modulus (GPa) = 27.57816 37.52716 32.55266
#
# Velocity S-wave (km/s) = 3.60443 4.20462 3.91604
# Velocity P-wave (km/s) = 5.65383 7.42780 6.60068
#
# Compressibility (1/GPa) = 0.03217156
#
# Stress axis : x y z
#
# Youngs Moduli (GPa) = 136.87414 39.50624 126.18271
#
# Poissons Ratio (x) = -0.10871 0.51109
# Poissons Ratio (y) = -0.37663 0.36432
# Poissons Ratio (z) = 0.55439 0.11406
#
# Static dielectric constant tensor:
#      x y z
#    x 1.839200 0.000000 0.000000 
#    y 0.000000 1.809810 0.000000 
#    z 0.000000 0.000000 1.772010 
# 
# From -- ./inp_files/23176.got.cif
#   From: 2010.05.17/outbox.cif.g08.bks.cpg/sg24_12_cif.got.tgz:23176.got - 2010.06.04 00:33:39.
