data_PCOD9333581
_publ_section_title
;
Structure prediction by ZEFSAII (Michael W. Deem and Ramdas Pophale) SiO2 
 PCOD9333581
Probable space group: I 21 21 21
;
_chemical_formula_sum "Si O2"
_cell_formula_units_Z 44
_cell_length_a 25.040732
_cell_length_b 16.750812
_cell_length_c 5.286498
_cell_angle_alpha 90.000000
_cell_angle_beta 90.000000
_cell_angle_gamma 90.000000
_cell_volume 2217.435300
_symmetry_space_group_name_H-M "I 21 21 21"
_symmetry_group_IT_number 24
_symmetry_cell_setting 'orthorhombic'
loop_
_space_group_symop_operation_xyz
x,y,z
-x,1/2-y,z
x,-y,1/2-z
1/2-x,y,-z
1/2+x,1/2+y,1/2+z
1/2-x,-y,1/2+z
1/2+x,1/2-y,-z
-x,1/2+y,1/2-z
loop_
_atom_site_type_symbol
_atom_site_label
_atom_site_fract_x
_atom_site_fract_y
_atom_site_fract_z
Si Si1 0.066291 0.546148 0.498473
Si Si2 0.101969 0.271849 0.919473
Si Si3 0.447190 0.977837 0.996431
Si Si4 0.947382 0.293905 0.406612
Si Si5 0.713610 0.177592 0.250163
Si Si6 0.214183 0.500000 0.750000
O O1 0.087072 0.500000 0.250000
O O2 0.083645 0.637928 0.504962
O O3 0.001614 0.531843 0.495877
O O4 0.084064 0.500000 0.750000
O O5 0.068719 0.245477 0.673175
O O6 0.162410 0.269626 0.815375
O O7 0.093230 0.219049 0.172522
O O8 0.417868 0.000000 0.250000
O O9 0.460232 0.885205 0.972874
O O10 0.414872 0.000000 0.750000
O O11 0.000000 0.250000 0.310193
O O12 0.750000 0.193554 0.500000
O O13 0.689365 0.087598 0.278328
O O14 0.750000 0.179489 0.000000
O O15 0.250000 0.506600 0.500000
#
# Coordination Sequence:
#
# PCOD9333581 Si02
#       6
#     8   8   8   8   8   4
#     4  10  20  35  51  77 109 152 204 238 285 347
#     4  12  24  38  60  88 117 164 207 255 308 368
#     4  10  19  35  55  76 111 157 193 235 291 349
#     4  12  23  38  57  85 124 157 205 256 305 359
#     4  10  21  39  58  82 117 153 201 259 304 350
#     4   8  16  32  52  74 104 146 188 242 298 324
#
# _framework density 19.842742999999999
#
# number of rings (size 3 to 8) (size 9 to 14) (size 15 to 20)
#    0.000    1.455    0.000    8.182    1.273    0.000 
#    6.545    0.000    0.000    0.000    0.000    0.000 
#    0.000   40.727    0.000    0.000    0.000    0.000 
#
# Total GULP energy -122688.906893 kJ/mol
# GULP energy per Si atom -5576.768495 kJ/mol
# Density = 1.979758 g / cm^3
# Si number density = 19.842743 Si / 1000 Ang^3
#
#
#
# Elastic Constant Matrix: (Units=GPa)
#
#
# Indices 1 2 3 4 5 6 
#
# 1 57.3560 20.6487 25.4125 0.0000 0.0000 0.0000
# 2 20.6487 64.9527 34.0543 0.0000 0.0000 0.0000
# 3 25.4125 34.0543 187.2834 0.0000 0.0000 0.0000
# 4 0.0000 0.0000 0.0000 33.9810 0.0000 0.0000
# 5 0.0000 0.0000 0.0000 0.0000 16.2304 0.0000
# 6 0.0000 0.0000 0.0000 0.0000 0.0000 10.1896
#
#
#
# Elastic Compliance Matrix: (Units=1/GPa)
#
#
# Indices 1 2 3 4 5 6 
#
# 1 0.020187 -0.005506 -0.001738 0.000000 0.000000 0.000000
# 2 -0.005506 0.018520 -0.002620 0.000000 0.000000 0.000000
# 3 -0.001738 -0.002620 0.006052 0.000000 0.000000 0.000000
# 4 0.000000 0.000000 0.000000 0.029428 0.000000 0.000000
# 5 0.000000 0.000000 0.000000 0.000000 0.061613 0.000000
# 6 0.000000 0.000000 0.000000 0.000000 0.000000 0.098139
#
#
# Mechanical properties :
#
#
# Convention : Reuss Voigt Hill
#
# Bulk Modulus (GPa) = 39.95251 52.20258 46.07754
# Shear Modulus (GPa) = 19.08307 27.37865 23.23086
#
# Velocity S-wave (km/s) = 3.10452 3.71857 3.42533
# Velocity P-wave (km/s) = 5.74709 6.69345 6.23824
#
# Compressibility (1/GPa) = 0.02502972
#
# Stress axis : x y z
#
# Youngs Moduli (GPa) = 49.53592 53.99511 165.23993
#
# Poissons Ratio (x) = 0.29732 0.28718
# Poissons Ratio (y) = 0.27277 0.43300
# Poissons Ratio (z) = 0.08609 0.14149
#
# Static dielectric constant tensor:
#      x y z
#    x 1.740180 0.000000 0.000000 
#    y 0.000000 1.815020 0.000000 
#    z 0.000000 0.000000 1.790190 
# 
# From -- ./inp_files/7044.got.cif
#   From: 2010.05.17/outbox.cif.g08.bks.cpg/sg24_4_cif.got.tgz:7044.got - 2010.06.04 00:33:39.
