data_PCOD9333752
_publ_section_title
;
Structure prediction by ZEFSAII (Michael W. Deem and Ramdas Pophale) SiO2 
 PCOD9333752
Probable space group: I 21 21 21
;
_chemical_formula_sum "Si O2"
_cell_formula_units_Z 60
_cell_length_a 5.356351
_cell_length_b 26.928294
_cell_length_c 19.979395
_cell_angle_alpha 90.000000
_cell_angle_beta 90.000000
_cell_angle_gamma 90.000000
_cell_volume 2881.775878
_symmetry_space_group_name_H-M "I 21 21 21"
_symmetry_group_IT_number 24
_symmetry_cell_setting 'orthorhombic'
loop_
_space_group_symop_operation_xyz
x,y,z
-x,1/2-y,z
x,-y,1/2-z
1/2-x,y,-z
1/2+x,1/2+y,1/2+z
1/2-x,-y,1/2+z
1/2+x,1/2-y,-z
-x,1/2+y,1/2-z
loop_
_atom_site_type_symbol
_atom_site_label
_atom_site_fract_x
_atom_site_fract_y
_atom_site_fract_z
Si Si1 0.656979 0.923146 0.639842
Si Si2 0.748133 0.263990 0.173108
Si Si3 0.653213 0.621638 0.298653
Si Si4 0.653890 0.108192 0.331022
Si Si5 0.894824 0.543524 0.936857
Si Si6 0.250000 0.539497 0.500000
Si Si7 0.022650 0.978175 0.183771
Si Si8 0.251181 0.277251 0.678038
O O1 0.393509 0.904918 0.669646
O O2 0.642821 0.927699 0.559992
O O3 0.683557 0.979756 0.666546
O O4 0.897634 0.891610 0.661804
O O5 0.500000 0.250000 0.134246
O O6 0.724113 0.320499 0.196455
O O7 0.751992 0.230319 0.240968
O O8 0.000000 0.250000 0.136300
O O9 0.574200 0.608384 0.222427
O O10 0.569467 0.083380 0.400237
O O11 0.875305 0.072857 0.304841
O O12 0.742863 0.164653 0.337014
O O13 0.702570 0.526088 0.879564
O O14 0.045199 0.497057 0.967156
O O15 0.750000 0.566116 0.000000
O O16 0.153167 0.000000 0.250000
O O17 0.500000 0.250000 0.653262
O O18 0.000000 0.250000 0.654074
#
# Coordination Sequence:
#
# PCOD9333752 Si02
#       8
#     8   8   8   8   8   4   8   8
#     4  12  26  43  68  98 146 189 240 298 353 435
#     4  10  19  37  64  96 144 175 216 281 367 434
#     4  12  25  41  69 110 143 181 233 300 378 429
#     4  12  25  41  68 106 145 183 241 296 371 441
#     4  12  25  45  70  95 141 201 259 288 352 438
#     4  12  26  50  64  98 136 214 258 294 342 430
#     4  12  25  40  67 104 144 186 233 310 366 430
#     4  10  22  38  65  98 138 179 219 291 362 425
#
# _framework density 20.820494
#
# number of rings (size 3 to 8) (size 9 to 14) (size 15 to 20)
#    0.000    0.533    6.667    2.400    3.733    0.533 
#    0.000    0.000    0.000    0.000    5.200    9.333 
#    0.000    0.000    0.000    0.000    0.000    0.000 
#
# Total GULP energy -167735.680817 kJ/mol
# GULP energy per Si atom -5591.189361 kJ/mol
# Density = 2.077311 g / cm^3
# Si number density = 20.820494 Si / 1000 Ang^3
#
#
#
# Elastic Constant Matrix: (Units=GPa)
#
#
# Indices 1 2 3 4 5 6 
#
# 1 165.7623 50.7105 43.1134 0.0000 0.0000 0.0000
# 2 50.7105 108.9111 34.0190 0.0000 0.0000 0.0000
# 3 43.1134 34.0190 113.7891 0.0000 0.0000 0.0000
# 4 0.0000 0.0000 0.0000 12.9405 0.0000 0.0000
# 5 0.0000 0.0000 0.0000 0.0000 23.5502 0.0000
# 6 0.0000 0.0000 0.0000 0.0000 0.0000 34.5797
#
#
#
# Elastic Compliance Matrix: (Units=1/GPa)
#
#
# Indices 1 2 3 4 5 6 
#
# 1 0.007411 -0.002839 -0.001959 0.000000 0.000000 0.000000
# 2 -0.002839 0.011215 -0.002277 0.000000 0.000000 0.000000
# 3 -0.001959 -0.002277 0.010211 0.000000 0.000000 0.000000
# 4 0.000000 0.000000 0.000000 0.077277 0.000000 0.000000
# 5 0.000000 0.000000 0.000000 0.000000 0.042462 0.000000
# 6 0.000000 0.000000 0.000000 0.000000 0.000000 0.028919
#
#
# Mechanical properties :
#
#
# Convention : Reuss Voigt Hill
#
# Bulk Modulus (GPa) = 68.08898 71.57203 69.83050
# Shear Modulus (GPa) = 25.44004 31.58874 28.51439
#
# Velocity S-wave (km/s) = 3.49932 3.89934 3.70474
# Velocity P-wave (km/s) = 7.00720 7.39754 7.20501
#
# Compressibility (1/GPa) = 0.01468666
#
# Stress axis : x y z
#
# Youngs Moduli (GPa) = 134.94040 89.16784 97.93023
#
# Poissons Ratio (x) = 0.25311 0.19186
# Poissons Ratio (y) = 0.38303 0.22302
# Poissons Ratio (z) = 0.26437 0.20307
#
# Static dielectric constant tensor:
#      x y z
#    x 1.850290 0.000000 0.000000 
#    y 0.000000 1.764670 0.000000 
#    z 0.000000 0.000000 1.755330 
# 
# From -- ./inp_files/28906.got.cif
#   From: 2010.05.17/outbox.cif.g08.bks.cpg/sg24_15_cif.got.tgz:28906.got - 2010.06.04 00:33:39.
