data_PCOD9333462
_publ_section_title
;
Structure prediction by ZEFSAII (Michael W. Deem and Ramdas Pophale) SiO2 
 PCOD9333462
Probable space group: I 21 21 21
;
_chemical_formula_sum "Si O2"
_cell_formula_units_Z 52
_cell_length_a 7.808812
_cell_length_b 11.592168
_cell_length_c 30.224173
_cell_angle_alpha 90.000000
_cell_angle_beta 90.000000
_cell_angle_gamma 90.000000
_cell_volume 2735.924195
_symmetry_space_group_name_H-M "I 21 21 21"
_symmetry_group_IT_number 24
_symmetry_cell_setting 'orthorhombic'
loop_
_space_group_symop_operation_xyz
x,y,z
-x,1/2-y,z
x,-y,1/2-z
1/2-x,y,-z
1/2+x,1/2+y,1/2+z
1/2-x,-y,1/2+z
1/2+x,1/2-y,-z
-x,1/2+y,1/2-z
loop_
_atom_site_type_symbol
_atom_site_label
_atom_site_fract_x
_atom_site_fract_y
_atom_site_fract_z
Si Si1 0.656368 0.607995 0.100099
Si Si2 0.250000 0.063994 0.500000
Si Si3 0.324613 0.417920 0.288335
Si Si4 0.182373 0.809592 0.248712
Si Si5 0.240673 0.635181 0.882789
Si Si6 0.210155 0.001393 0.813827
Si Si7 0.922180 0.879503 0.027953
O O1 0.450233 0.601152 0.100880
O O2 0.720555 0.726960 0.121948
O O3 0.722550 0.509419 0.133280
O O4 0.714140 0.615177 0.049337
O O5 0.443068 0.024834 0.511027
O O6 0.255431 0.500000 0.250000
O O7 0.308608 0.289515 0.269163
O O8 0.227598 0.419403 0.335159
O O9 0.517868 0.459283 0.299916
O O10 0.251925 0.875514 0.292012
O O11 0.000000 0.750000 0.256098
O O12 0.171085 0.908357 0.211160
O O13 0.376900 0.609187 0.920617
O O14 0.000000 0.750000 0.019863
O O15 0.750000 0.885376 0.000000
#
# Coordination Sequence:
#
# PCOD9333462 Si02
#       7
#     8   4   8   8   8   8   8
#     4  10  19  33  53  77 113 150 197 241 310 357
#     4  12  22  32  54  74 112 158 192 246 306 378
#     4  11  22  38  63  83 116 161 209 242 303 366
#     4  11  23  38  57  86 122 158 199 258 308 350
#     4  10  20  31  49  80 115 148 192 250 288 371
#     4  10  22  40  59  82 120 161 205 252 297 376
#     4  12  20  31  46  75 111 150 195 235 294 364
#
# _framework density 19.006375999999999
#
# number of rings (size 3 to 8) (size 9 to 14) (size 15 to 20)
#    0.000    1.231    6.923    0.462    2.154    1.846 
#    0.000    0.000    0.000    0.000    0.000    0.000 
#   11.538    0.000    0.000    0.000    0.000    0.154 
#
# Total GULP energy -144845.787305 kJ/mol
# GULP energy per Si atom -5570.991819 kJ/mol
# Density = 1.896312 g / cm^3
# Si number density = 19.006376 Si / 1000 Ang^3
#
#
#
# Elastic Constant Matrix: (Units=GPa)
#
#
# Indices 1 2 3 4 5 6 
#
# 1 93.4449 17.7169 38.9296 0.0000 0.0000 0.0000
# 2 17.7169 41.5804 34.0305 0.0000 0.0000 0.0000
# 3 38.9296 34.0305 154.7852 0.0000 0.0000 0.0000
# 4 0.0000 0.0000 0.0000 16.8173 0.0000 0.0000
# 5 0.0000 0.0000 0.0000 0.0000 27.1559 0.0000
# 6 0.0000 0.0000 0.0000 0.0000 0.0000 16.4478
#
#
#
# Elastic Compliance Matrix: (Units=1/GPa)
#
#
# Indices 1 2 3 4 5 6 
#
# 1 0.012316 -0.003308 -0.002370 0.000000 0.000000 0.000000
# 2 -0.003308 0.030215 -0.005811 0.000000 0.000000 0.000000
# 3 -0.002370 -0.005811 0.008334 0.000000 0.000000 0.000000
# 4 0.000000 0.000000 0.000000 0.059462 0.000000 0.000000
# 5 0.000000 0.000000 0.000000 0.000000 0.036824 0.000000
# 6 0.000000 0.000000 0.000000 0.000000 0.000000 0.060799
#
#
# Mechanical properties :
#
#
# Convention : Reuss Voigt Hill
#
# Bulk Modulus (GPa) = 35.85881 52.35161 44.10521
# Shear Modulus (GPa) = 20.81381 25.35976 23.08679
#
# Velocity S-wave (km/s) = 3.31281 3.65674 3.48902
# Velocity P-wave (km/s) = 5.79143 6.74040 6.28386
#
# Compressibility (1/GPa) = 0.02788715
#
# Stress axis : x y z
#
# Youngs Moduli (GPa) = 81.19424 33.09606 119.98583
#
# Poissons Ratio (x) = 0.10948 0.28441
# Poissons Ratio (y) = 0.26858 0.69724
# Poissons Ratio (z) = 0.19246 0.19232
#
# Static dielectric constant tensor:
#      x y z
#    x 1.762610 0.000000 0.000000 
#    y 0.000000 1.660320 0.000000 
#    z 0.000000 0.000000 1.683790 
# 
# From -- ./inp_files/38362.got.cif
#   From: 2010.05.17/outbox.cif.g08.bks.cpg/sg24_20_cif.got.tgz:38362.got - 2010.06.04 00:33:39.
