data_PCOD9333166
_publ_section_title
;
Structure prediction by ZEFSAII (Michael W. Deem and Ramdas Pophale) SiO2 
 PCOD9333166
Probable space group: I 21 21 21
;
_chemical_formula_sum "Si O2"
_cell_formula_units_Z 64
_cell_length_a 16.139689
_cell_length_b 10.917178
_cell_length_c 18.343971
_cell_angle_alpha 90.000000
_cell_angle_beta 90.000000
_cell_angle_gamma 90.000000
_cell_volume 3232.205079
_symmetry_space_group_name_H-M "I 21 21 21"
_symmetry_group_IT_number 24
_symmetry_cell_setting 'orthorhombic'
loop_
_space_group_symop_operation_xyz
x,y,z
-x,1/2-y,z
x,-y,1/2-z
1/2-x,y,-z
1/2+x,1/2+y,1/2+z
1/2-x,-y,1/2+z
1/2+x,1/2-y,-z
-x,1/2+y,1/2-z
loop_
_atom_site_type_symbol
_atom_site_label
_atom_site_fract_x
_atom_site_fract_y
_atom_site_fract_z
Si Si1 0.708825 0.987853 0.167349
Si Si2 0.348858 0.380835 0.477243
Si Si3 0.545992 0.039525 0.614810
Si Si4 0.845722 0.180782 0.146260
Si Si5 0.349545 0.721750 0.808567
Si Si6 0.839950 0.396997 0.539592
Si Si7 0.879388 0.412498 0.073077
Si Si8 0.753170 0.459570 0.332942
O O1 0.649744 0.942270 0.102553
O O2 0.778893 0.881286 0.176526
O O3 0.674707 0.000000 0.250000
O O4 0.756186 0.113244 0.142271
O O5 0.250000 0.387761 0.500000
O O6 0.407223 0.445644 0.536756
O O7 0.375864 0.237818 0.475216
O O8 0.568526 0.163586 0.657198
O O9 0.593423 0.932685 0.656481
O O10 0.454048 0.987474 0.610089
O O11 0.853312 0.248961 0.223119
O O12 0.880967 0.265855 0.081430
O O13 0.316124 0.845931 0.842421
O O14 0.750000 0.389350 0.500000
O O15 0.877061 0.519531 0.504320
O O16 0.828641 0.415957 0.625532
O O17 0.794356 0.436598 0.117373
O O18 0.743440 0.500000 0.250000
#
# Coordination Sequence:
#
# PCOD9333166 Si02
#       8
#     8   8   8   8   8   8   8   8
#     4   9  18  33  58  82 107 139 186 245 284 330
#     4  11  17  35  58  79 106 144 196 241 279 320
#     4  11  22  35  55  80 113 155 189 230 279 337
#     4  10  20  36  52  77 117 150 180 229 280 340
#     4  10  18  35  55  78 109 146 188 228 278 335
#     4   9  20  36  56  76 108 145 189 241 269 331
#     4  11  23  37  50  81 118 152 188 223 286 350
#     4  11  20  36  57  81 109 146 186 236 289 341
#
# _framework density 19.800723999999999
#
# number of rings (size 3 to 8) (size 9 to 14) (size 15 to 20)
#    0.000    1.750    5.000    3.000    0.000    3.000 
#    9.000    0.000    0.000    0.750    0.000    0.000 
#    0.000    0.000    0.000    0.000    0.000    0.000 
#
# Total GULP energy -178154.610956 kJ/mol
# GULP energy per Si atom -5567.331592 kJ/mol
# Density = 1.975566 g / cm^3
# Si number density = 19.800724 Si / 1000 Ang^3
#
#
#
# Elastic Constant Matrix: (Units=GPa)
#
#
# Indices 1 2 3 4 5 6 
#
# 1 6.3952 4.3930 2.5325 0.0000 0.0000 0.0000
# 2 4.3930 64.0717 28.6266 0.0000 0.0000 0.0000
# 3 2.5325 28.6266 67.6747 0.0000 0.0000 0.0000
# 4 0.0000 0.0000 0.0000 33.4906 0.0000 0.0000
# 5 0.0000 0.0000 0.0000 0.0000 5.8931 0.0000
# 6 0.0000 0.0000 0.0000 0.0000 0.0000 11.7399
#
#
#
# Elastic Compliance Matrix: (Units=1/GPa)
#
#
# Indices 1 2 3 4 5 6 
#
# 1 0.164256 -0.010500 -0.001705 0.000000 0.000000 0.000000
# 2 -0.010500 0.019916 -0.008032 0.000000 0.000000 0.000000
# 3 -0.001705 -0.008032 0.018238 0.000000 0.000000 0.000000
# 4 0.000000 0.000000 0.000000 0.029859 0.000000 0.000000
# 5 0.000000 0.000000 0.000000 0.000000 0.169689 0.000000
# 6 0.000000 0.000000 0.000000 0.000000 0.000000 0.085179
#
#
# Mechanical properties :
#
#
# Convention : Reuss Voigt Hill
#
# Bulk Modulus (GPa) = 6.17526 23.24952 14.71239
# Shear Modulus (GPa) = 8.59713 17.06404 12.83058
#
# Velocity S-wave (km/s) = 2.08597 2.93881 2.54832
# Velocity P-wave (km/s) = 2.98783 4.82522 4.01309
#
# Compressibility (1/GPa) = 0.16193649
#
# Stress axis : x y z
#
# Youngs Moduli (GPa) = 6.08804 50.21125 54.83129
#
# Poissons Ratio (x) = 0.52723 0.09349
# Poissons Ratio (y) = 0.06393 0.44038
# Poissons Ratio (z) = 0.01038 0.40327
#
# Static dielectric constant tensor:
#      x y z
#    x 1.742170 0.000000 0.000000 
#    y 0.000000 1.736760 0.000000 
#    z 0.000000 0.000000 1.764050 
# 
# From -- ./inp_files/31255.got.cif
#   From: 2010.05.17/outbox.cif.g08.bks.cpg/sg24_16_cif.got.tgz:31255.got - 2010.06.04 00:33:39.
