data_PCOD9333254
_publ_section_title
;
Structure prediction by ZEFSAII (Michael W. Deem and Ramdas Pophale) SiO2 
 PCOD9333254
Probable space group: I 21 21 21
;
_chemical_formula_sum "Si O2"
_cell_formula_units_Z 48
_cell_length_a 15.105811
_cell_length_b 10.481619
_cell_length_c 12.381422
_cell_angle_alpha 90.000000
_cell_angle_beta 90.000000
_cell_angle_gamma 90.000000
_cell_volume 1960.392092
_symmetry_space_group_name_H-M "I 21 21 21"
_symmetry_group_IT_number 24
_symmetry_cell_setting 'orthorhombic'
loop_
_space_group_symop_operation_xyz
x,y,z
-x,1/2-y,z
x,-y,1/2-z
1/2-x,y,-z
1/2+x,1/2+y,1/2+z
1/2-x,-y,1/2+z
1/2+x,1/2-y,-z
-x,1/2+y,1/2-z
loop_
_atom_site_type_symbol
_atom_site_label
_atom_site_fract_x
_atom_site_fract_y
_atom_site_fract_z
Si Si1 0.163797 0.896268 0.658984
Si Si2 0.815917 0.878866 0.400139
Si Si3 0.127160 0.648711 0.012013
Si Si4 0.450016 0.136953 0.609705
Si Si5 0.370066 0.116708 0.910304
Si Si6 0.835553 0.862005 0.766665
O O1 0.271109 0.894144 0.640928
O O2 0.129777 0.916216 0.537717
O O3 0.128008 0.761492 0.705402
O O4 0.143460 0.000000 0.750000
O O5 0.888471 0.767619 0.399383
O O6 0.759410 0.874796 0.291613
O O7 0.843506 0.022081 0.426200
O O8 0.167190 0.657551 0.894149
O O9 0.136478 0.784652 0.072162
O O10 0.250000 0.343343 0.000000
O O11 0.020924 0.627513 0.011612
O O12 0.500000 0.250000 0.678250
O O13 0.429083 0.994007 0.640953
O O14 0.880969 0.000000 0.750000
#
# Coordination Sequence:
#
# PCOD9333254 Si02
#       6
#     8   8   8   8   8   8
#     4  10  20  31  56  90 114 156 198 258 301 336
#     4  11  19  35  58  85 118 155 196 256 302 342
#     4   9  20  38  55  86 120 156 201 240 294 367
#     4   8  21  39  57  81 121 168 198 229 294 367
#     4  10  18  38  55  85 125 153 203 245 299 364
#     4  11  19  33  55  83 123 147 193 250 300 354
#
# _framework density 24.484898000000001
#
# number of rings (size 3 to 8) (size 9 to 14) (size 15 to 20)
#    1.000    1.000    5.000    1.000    0.000    2.000 
#    3.000    4.167    0.000    1.000    0.000    0.000 
#    0.000    0.000    0.000    0.000    0.000    0.000 
#
# Total GULP energy -133726.115599 kJ/mol
# GULP energy per Si atom -5571.921483 kJ/mol
# Density = 2.442917 g / cm^3
# Si number density = 24.484898 Si / 1000 Ang^3
#
#
#
# Elastic Constant Matrix: (Units=GPa)
#
#
# Indices 1 2 3 4 5 6 
#
# 1 46.1708 28.9456 28.0055 0.0000 0.0000 0.0000
# 2 28.9456 176.2717 57.8649 0.0000 0.0000 0.0000
# 3 28.0055 57.8649 155.1042 0.0000 0.0000 0.0000
# 4 0.0000 0.0000 0.0000 -30.6653 0.0000 0.0000
# 5 0.0000 0.0000 0.0000 0.0000 -5.3285 0.0000
# 6 0.0000 0.0000 0.0000 0.0000 0.0000 19.7239
#
#
#
# Elastic Compliance Matrix: (Units=1/GPa)
#
#
# Indices 1 2 3 4 5 6 
#
# 1 0.025706 -0.003074 -0.003495 0.000000 0.000000 0.000000
# 2 -0.003074 0.006832 -0.001994 0.000000 0.000000 0.000000
# 3 -0.003495 -0.001994 0.007822 0.000000 0.000000 0.000000
# 4 0.000000 0.000000 0.000000 -0.032610 0.000000 0.000000
# 5 0.000000 0.000000 0.000000 0.000000 -0.187670 0.000000
# 6 0.000000 0.000000 0.000000 0.000000 0.000000 0.050700
#
#
# Mechanical properties :
#
#
# Convention : Reuss Voigt Hill
#
# Bulk Modulus (GPa) = 43.03829 67.46431 55.25130
# Shear Modulus (GPa) = -47.91539 14.26140 -16.82699
#
# Velocity S-wave (km/s) = -4.42853 2.41603 -2.62437
# Velocity P-wave (km/s) = 2.92121 5.94947 3.66488
#
# Compressibility (1/GPa) = 0.02323512
#
# Stress axis : x y z
#
# Youngs Moduli (GPa) = 38.90216 146.36175 127.84231
#
# Poissons Ratio (x) = 0.44991 0.44675
# Poissons Ratio (y) = 0.11958 0.25491
# Poissons Ratio (z) = 0.13595 0.29184
#
# Static dielectric constant tensor:
#      x y z
#    x 2.006120 0.000000 0.000000 
#    y 0.000000 2.040330 0.000000 
#    z 0.000000 0.000000 1.909570 
# 
# From -- ./inp_files/27038.got.cif
#   From: 2010.05.17/outbox.cif.g08.bks.cpg/sg24_14_cif.got.tgz:27038.got - 2010.06.04 00:33:39.
