data_PCOD9333089
_publ_section_title
;
Structure prediction by ZEFSAII (Michael W. Deem and Ramdas Pophale) SiO2 
 PCOD9333089
Probable space group: I 21 21 21
;
_chemical_formula_sum "Si O2"
_cell_formula_units_Z 64
_cell_length_a 19.425024
_cell_length_b 8.998185
_cell_length_c 18.756709
_cell_angle_alpha 90.000000
_cell_angle_beta 90.000000
_cell_angle_gamma 90.000000
_cell_volume 3278.484408
_symmetry_space_group_name_H-M "I 21 21 21"
_symmetry_group_IT_number 24
_symmetry_cell_setting 'orthorhombic'
loop_
_space_group_symop_operation_xyz
x,y,z
-x,1/2-y,z
x,-y,1/2-z
1/2-x,y,-z
1/2+x,1/2+y,1/2+z
1/2-x,-y,1/2+z
1/2+x,1/2-y,-z
-x,1/2+y,1/2-z
loop_
_atom_site_type_symbol
_atom_site_label
_atom_site_fract_x
_atom_site_fract_y
_atom_site_fract_z
Si Si1 0.767236 0.887334 0.578454
Si Si2 0.573995 0.330860 0.326920
Si Si3 0.924776 0.813537 0.105225
Si Si4 0.383693 0.625884 0.045985
Si Si5 0.644494 0.149656 0.209765
Si Si6 0.864380 0.075602 0.173090
Si Si7 0.924667 0.325853 0.253832
Si Si8 0.486966 0.418171 0.117015
O O1 0.750000 0.820135 0.500000
O O2 0.808921 0.803804 0.642105
O O3 0.697479 0.933452 0.617767
O O4 0.817339 0.026372 0.562215
O O5 0.500000 0.250000 0.312769
O O6 0.605653 0.254614 0.396879
O O7 0.625246 0.281422 0.263990
O O8 0.551606 0.498131 0.347033
O O9 0.893149 0.718377 0.169578
O O10 0.000000 0.750000 0.089911
O O11 0.925703 0.980409 0.137458
O O12 0.882658 0.813205 0.033156
O O13 0.451519 0.520356 0.056636
O O14 0.572505 0.093572 0.176465
O O15 0.672859 0.000000 0.250000
O O16 0.883648 0.244065 0.191320
O O17 0.849679 0.000000 0.250000
O O18 0.929778 0.500000 0.250000
O O19 0.000000 0.250000 0.253616
O O20 0.500000 0.250000 0.093003
#
# Coordination Sequence:
#
# PCOD9333089 Si02
#       8
#     8   8   8   8   8   8   8   8
#     4  11  21  37  60  86 124 164 222 259 304 377
#     4  10  18  33  55  86 123 160 197 257 312 369
#     4  10  18  34  59  89 123 151 200 260 321 381
#     4  10  20  35  56  86 120 168 202 255 309 370
#     4  11  19  32  57  87 119 162 207 260 307 367
#     4  10  21  35  62  93 119 160 208 258 317 382
#     4  10  20  38  63  94 124 153 201 272 335 389
#     4  10  21  32  54  86 128 160 201 250 321 385
#
# _framework density 19.521215999999999
#
# number of rings (size 3 to 8) (size 9 to 14) (size 15 to 20)
#    0.000    1.750    5.000    3.750    0.000    0.000 
#    0.000    4.375    5.500    0.000    0.000    0.000 
#    0.000    0.000    0.000    0.000    0.000    0.000 
#
# Total GULP energy -178378.853444 kJ/mol
# GULP energy per Si atom -5574.339170 kJ/mol
# Density = 1.947678 g / cm^3
# Si number density = 19.521216 Si / 1000 Ang^3
#
#
#
# Elastic Constant Matrix: (Units=GPa)
#
#
# Indices 1 2 3 4 5 6 
#
# 1 63.5872 30.1507 41.3717 0.0000 0.0000 0.0000
# 2 30.1507 111.2171 37.3481 0.0000 0.0000 0.0000
# 3 41.3717 37.3481 136.1579 0.0000 0.0000 0.0000
# 4 0.0000 0.0000 0.0000 16.7485 0.0000 0.0000
# 5 0.0000 0.0000 0.0000 0.0000 -31.6156 0.0000
# 6 0.0000 0.0000 0.0000 0.0000 0.0000 12.3154
#
#
#
# Elastic Compliance Matrix: (Units=1/GPa)
#
#
# Indices 1 2 3 4 5 6 
#
# 1 0.021046 -0.003919 -0.005320 0.000000 0.000000 0.000000
# 2 -0.003919 0.010633 -0.001726 0.000000 0.000000 0.000000
# 3 -0.005320 -0.001726 0.009434 0.000000 0.000000 0.000000
# 4 0.000000 0.000000 0.000000 0.059707 0.000000 0.000000
# 5 0.000000 0.000000 0.000000 0.000000 -0.031630 0.000000
# 6 0.000000 0.000000 0.000000 0.000000 0.000000 0.081199
#
#
# Mechanical properties :
#
#
# Convention : Reuss Voigt Hill
#
# Bulk Modulus (GPa) = 52.12671 58.74480 55.43576
# Shear Modulus (GPa) = 27.97768 12.96245 20.47007
#
# Velocity S-wave (km/s) = 3.78986 2.57965 3.24173
# Velocity P-wave (km/s) = 6.77579 6.24747 6.51699
#
# Compressibility (1/GPa) = 0.01918402
#
# Stress axis : x y z
#
# Youngs Moduli (GPa) = 47.51515 94.04278 105.99652
#
# Poissons Ratio (x) = 0.36856 0.56388
# Poissons Ratio (y) = 0.18621 0.18295
# Poissons Ratio (z) = 0.25277 0.16231
#
# Static dielectric constant tensor:
#      x y z
#    x 1.706950 0.000000 0.000000 
#    y 0.000000 1.740980 0.000000 
#    z 0.000000 0.000000 1.731600 
# 
# From -- ./inp_files/31395.got.cif
#   From: 2010.05.17/outbox.cif.g08.bks.cpg/sg24_16_cif.got.tgz:31395.got - 2010.06.04 00:33:39.
