data_PCOD9333022
_publ_section_title
;
Structure prediction by ZEFSAII (Michael W. Deem and Ramdas Pophale) SiO2 
 PCOD9333022
Probable space group: I 21 21 21
;
_chemical_formula_sum "Si O2"
_cell_formula_units_Z 64
_cell_length_a 25.932392
_cell_length_b 15.182041
_cell_length_c 8.584532
_cell_angle_alpha 90.000000
_cell_angle_beta 90.000000
_cell_angle_gamma 90.000000
_cell_volume 3379.787237
_symmetry_space_group_name_H-M "I 21 21 21"
_symmetry_group_IT_number 24
_symmetry_cell_setting 'orthorhombic'
loop_
_space_group_symop_operation_xyz
x,y,z
-x,1/2-y,z
x,-y,1/2-z
1/2-x,y,-z
1/2+x,1/2+y,1/2+z
1/2-x,-y,1/2+z
1/2+x,1/2-y,-z
-x,1/2+y,1/2-z
loop_
_atom_site_type_symbol
_atom_site_label
_atom_site_fract_x
_atom_site_fract_y
_atom_site_fract_z
Si Si1 0.483008 0.648450 0.469338
Si Si2 0.204092 0.561751 0.385735
Si Si3 0.871215 0.050956 0.590048
Si Si4 0.105195 0.732622 0.981315
Si Si5 0.479011 0.612358 0.112728
Si Si6 0.382921 0.297971 0.848844
Si Si7 0.591538 0.420740 0.525144
Si Si8 0.909035 0.605663 0.395898
O O1 0.432255 0.449200 0.448897
O O2 0.482649 0.605147 0.299008
O O3 0.428505 0.651144 0.558965
O O4 0.529809 0.611065 0.570906
O O5 0.226765 0.500000 0.250000
O O6 0.250000 0.586037 0.500000
O O7 0.163310 0.495397 0.464086
O O8 0.169928 0.647470 0.348718
O O9 0.860086 0.156127 0.596245
O O10 0.863700 0.000000 0.750000
O O11 0.103223 0.715241 0.166850
O O12 0.118623 0.834218 0.952524
O O13 0.048476 0.706984 0.918676
O O14 0.500000 0.750000 0.444270
O O15 0.532428 0.591236 0.030690
O O16 0.382746 0.200303 0.925634
O O17 0.609416 0.521508 0.503259
O O18 0.596041 0.409187 0.711256
#
# Coordination Sequence:
#
# PCOD9333022 Si02
#       8
#     8   8   8   8   8   8   8   8
#     4  10  19  30  48  74 108 152 191 227 268 323
#     4  12  24  41  62  87 108 136 179 237 296 361
#     4  10  22  36  52  79 108 150 187 224 283 344
#     4   9  19  33  53  73 108 147 190 229 277 333
#     4  10  20  30  47  73 113 152 194 231 277 325
#     4  10  20  39  53  75 110 144 186 227 291 340
#     4  10  18  32  49  76 107 149 199 234 263 312
#     4   9  21  32  50  75 109 149 195 235 263 329
#
# _framework density 18.936104
#
# number of rings (size 3 to 8) (size 9 to 14) (size 15 to 20)
#    0.750    1.250    1.250    3.000    3.500    2.000 
#    0.000    0.000    0.000    0.000    0.000    0.875 
#    3.750    0.000    0.000    0.000    0.000    0.000 
#
# Total GULP energy -178175.887350 kJ/mol
# GULP energy per Si atom -5567.996480 kJ/mol
# Density = 1.889300 g / cm^3
# Si number density = 18.936104 Si / 1000 Ang^3
#
#
#
# Elastic Constant Matrix: (Units=GPa)
#
#
# Indices 1 2 3 4 5 6 
#
# 1 29.9307 4.3970 1.9840 0.0000 0.0000 0.0000
# 2 4.3970 139.6231 10.5547 0.0000 0.0000 0.0000
# 3 1.9840 10.5547 23.0462 0.0000 0.0000 0.0000
# 4 0.0000 0.0000 0.0000 24.3455 0.0000 0.0000
# 5 0.0000 0.0000 0.0000 0.0000 8.1351 0.0000
# 6 0.0000 0.0000 0.0000 0.0000 0.0000 -21.7811
#
#
#
# Elastic Compliance Matrix: (Units=1/GPa)
#
#
# Indices 1 2 3 4 5 6 
#
# 1 0.033705 -0.000872 -0.002502 0.000000 0.000000 0.000000
# 2 -0.000872 0.007442 -0.003333 0.000000 0.000000 0.000000
# 3 -0.002502 -0.003333 0.045133 0.000000 0.000000 0.000000
# 4 0.000000 0.000000 0.000000 0.041075 0.000000 0.000000
# 5 0.000000 0.000000 0.000000 0.000000 0.122924 0.000000
# 6 0.000000 0.000000 0.000000 0.000000 0.000000 -0.045911
#
#
# Mechanical properties :
#
#
# Convention : Reuss Voigt Hill
#
# Bulk Modulus (GPa) = 13.72414 25.16349 19.44381
# Shear Modulus (GPa) = 20.65521 13.85087 17.25304
#
# Velocity S-wave (km/s) = 3.30629 2.70747 3.02175
# Velocity P-wave (km/s) = 4.67319 4.80535 4.73973
#
# Compressibility (1/GPa) = 0.07286431
#
# Stress axis : x y z
#
# Youngs Moduli (GPa) = 29.66961 134.38031 22.15672
#
# Poissons Ratio (x) = 0.11721 0.05544
# Poissons Ratio (y) = 0.02588 0.07385
# Poissons Ratio (z) = 0.07424 0.44789
#
# Static dielectric constant tensor:
#      x y z
#    x 1.609230 0.000000 0.000000 
#    y 0.000000 1.833510 0.000000 
#    z 0.000000 0.000000 1.747620 
# 
# From -- ./inp_files/17059.got.cif
#   From: 2010.05.17/outbox.cif.g08.bks.cpg/sg24_9_cif.got.tgz:17059.got - 2010.06.04 00:33:39.
