data_PCOD9333114
_publ_section_title
;
Structure prediction by ZEFSAII (Michael W. Deem and Ramdas Pophale) SiO2 
 PCOD9333114
Probable space group: I 21 21 21
;
_chemical_formula_sum "Si O2"
_cell_formula_units_Z 48
_cell_length_a 12.253098
_cell_length_b 8.722176
_cell_length_c 22.509828
_cell_angle_alpha 90.000000
_cell_angle_beta 90.000000
_cell_angle_gamma 90.000000
_cell_volume 2405.708094
_symmetry_space_group_name_H-M "I 21 21 21"
_symmetry_group_IT_number 24
_symmetry_cell_setting 'orthorhombic'
loop_
_space_group_symop_operation_xyz
x,y,z
-x,1/2-y,z
x,-y,1/2-z
1/2-x,y,-z
1/2+x,1/2+y,1/2+z
1/2-x,-y,1/2+z
1/2+x,1/2-y,-z
-x,1/2+y,1/2-z
loop_
_atom_site_type_symbol
_atom_site_label
_atom_site_fract_x
_atom_site_fract_y
_atom_site_fract_z
Si Si1 0.558483 0.098640 0.691613
Si Si2 0.057885 0.897472 0.401217
Si Si3 0.718757 0.232072 0.067231
Si Si4 0.500000 0.750000 0.116272
Si Si5 0.215370 0.399394 0.621792
Si Si6 0.439211 0.988789 0.474662
Si Si7 0.750000 0.718076 0.000000
O O1 0.500000 0.250000 0.712865
O O2 0.675542 0.117075 0.660243
O O3 0.574469 0.000000 0.750000
O O4 0.473671 0.031972 0.642649
O O5 0.182204 0.841735 0.410486
O O6 0.001932 0.929072 0.466041
O O7 0.000000 0.750000 0.374298
O O8 0.616310 0.345450 0.058127
O O9 0.699558 0.081628 0.107321
O O10 0.750000 0.182355 0.000000
O O11 0.612567 0.800598 0.148255
O O12 0.509372 0.601076 0.073391
O O13 0.237191 0.319019 0.558284
O O14 0.350976 0.102733 0.504584
#
# Coordination Sequence:
#
# PCOD9333114 Si02
#       7
#     8   8   8   4   8   8   4
#     4  12  28  45  69  94 128 170 223 276 331 385
#     4  11  21  35  60  92 129 173 215 258 324 381
#     4  10  20  36  58  90 134 175 211 258 324 391
#     4  10  26  36  60  94 132 174 224 254 328 392
#     4  11  23  40  62  91 133 169 215 268 323 394
#     4  10  21  34  55  92 134 173 212 254 315 403
#     4  10  18  34  54  88 128 172 206 248 328 376
#
# _framework density 19.952546000000002
#
# number of rings (size 3 to 8) (size 9 to 14) (size 15 to 20)
#    0.000    1.333    5.000    1.500   12.833    0.000 
#    0.000    0.000    0.000    3.000    0.000    0.000 
#    0.000    0.000    0.000    0.000    0.000    0.000 
#
# Total GULP energy -133828.546741 kJ/mol
# GULP energy per Si atom -5576.189448 kJ/mol
# Density = 1.990713 g / cm^3
# Si number density = 19.952546 Si / 1000 Ang^3
#
#
#
# Elastic Constant Matrix: (Units=GPa)
#
#
# Indices 1 2 3 4 5 6 
#
# 1 100.2279 45.7557 42.3885 0.0000 0.0000 0.0000
# 2 45.7557 100.5341 28.1346 0.0000 0.0000 0.0000
# 3 42.3885 28.1346 57.9645 0.0000 0.0000 0.0000
# 4 0.0000 0.0000 0.0000 10.3216 0.0000 0.0000
# 5 0.0000 0.0000 0.0000 0.0000 -278.1415 0.0000
# 6 0.0000 0.0000 0.0000 0.0000 0.0000 23.7927
#
#
#
# Elastic Compliance Matrix: (Units=1/GPa)
#
#
# Indices 1 2 3 4 5 6 
#
# 1 0.016147 -0.004680 -0.009536 0.000000 0.000000 0.000000
# 2 -0.004680 0.012867 -0.002823 0.000000 0.000000 0.000000
# 3 -0.009536 -0.002823 0.025596 0.000000 0.000000 0.000000
# 4 0.000000 0.000000 0.000000 0.096885 0.000000 0.000000
# 5 0.000000 0.000000 0.000000 0.000000 -0.003595 0.000000
# 6 0.000000 0.000000 0.000000 0.000000 0.000000 0.042030
#
#
# Mechanical properties :
#
#
# Convention : Reuss Voigt Hill
#
# Bulk Modulus (GPa) = 48.70659 54.58711 51.64685
# Shear Modulus (GPa) = 21.65901 -39.30892 -8.82495
#
# Velocity S-wave (km/s) = 3.29831 -4.44342 -2.10537
# Velocity P-wave (km/s) = 6.24254 1.04526 4.47559
#
# Compressibility (1/GPa) = 0.02053110
#
# Stress axis : x y z
#
# Youngs Moduli (GPa) = 61.93130 77.71895 39.06889
#
# Poissons Ratio (x) = 0.36373 0.37257
# Poissons Ratio (y) = 0.28985 0.11028
# Poissons Ratio (z) = 0.59060 0.21938
#
# Static dielectric constant tensor:
#      x y z
#    x 1.798620 0.000000 0.000000 
#    y 0.000000 2.011990 0.000000 
#    z 0.000000 0.000000 1.660110 
# 
# From -- ./inp_files/22620.got.cif
#   From: 2010.05.17/outbox.cif.g08.bks.cpg/sg24_12_cif.got.tgz:22620.got - 2010.06.04 00:33:39.
