data_PCOD9333382
_publ_section_title
;
Structure prediction by ZEFSAII (Michael W. Deem and Ramdas Pophale) SiO2 
 PCOD9333382
Probable space group: I 21 21 21
;
_chemical_formula_sum "Si O2"
_cell_formula_units_Z 36
_cell_length_a 5.173345
_cell_length_b 28.174403
_cell_length_c 12.654016
_cell_angle_alpha 90.000000
_cell_angle_beta 90.000000
_cell_angle_gamma 90.000000
_cell_volume 1844.397578
_symmetry_space_group_name_H-M "I 21 21 21"
_symmetry_group_IT_number 24
_symmetry_cell_setting 'orthorhombic'
loop_
_space_group_symop_operation_xyz
x,y,z
-x,1/2-y,z
x,-y,1/2-z
1/2-x,y,-z
1/2+x,1/2+y,1/2+z
1/2-x,-y,1/2+z
1/2+x,1/2-y,-z
-x,1/2+y,1/2-z
loop_
_atom_site_type_symbol
_atom_site_label
_atom_site_fract_x
_atom_site_fract_y
_atom_site_fract_z
Si Si1 0.502321 0.006951 0.072647
Si Si2 0.999575 0.079332 0.731309
Si Si3 0.004598 0.630333 0.296322
Si Si4 0.353826 0.206345 0.113303
Si Si5 0.750000 0.135611 0.000000
O O1 0.516806 0.957073 0.135101
O O2 0.509479 0.047593 0.162039
O O3 0.250000 0.009227 0.000000
O O4 0.750000 0.011257 0.000000
O O5 0.767598 0.117668 0.734978
O O6 0.276171 0.103992 0.736395
O O7 0.880610 0.682129 0.322680
O O8 0.060040 0.611234 0.416267
O O9 0.500000 0.250000 0.167206
O O10 0.250000 0.224498 0.000000
O O11 0.563672 0.166888 0.076197
#
# Coordination Sequence:
#
# PCOD9333382 Si02
#       5
#     8   8   8   8   4
#     4  11  24  40  62  81 112 156 192 245 307 347
#     4  11  24  39  56  87 114 146 203 247 279 355
#     4  11  22  34  53  78 117 152 194 236 281 328
#     4  10  19  31  50  75 115 160 199 226 275 346
#     4  10  20  32  48  80 106 168 178 232 274 340
#
# _framework density 19.518567999999998
#
# number of rings (size 3 to 8) (size 9 to 14) (size 15 to 20)
#    0.000    1.333    3.333    2.667    4.667    3.556 
#    0.000    0.000    0.000    0.000    0.000    0.000 
#    0.000    5.333    0.889    0.000    0.000    0.444 
#
# Total GULP energy -100445.506627 kJ/mol
# GULP energy per Si atom -5580.305924 kJ/mol
# Density = 1.947414 g / cm^3
# Si number density = 19.518568 Si / 1000 Ang^3
#
#
#
# Elastic Constant Matrix: (Units=GPa)
#
#
# Indices 1 2 3 4 5 6 
#
# 1 147.9232 26.5523 24.4399 0.0000 0.0000 0.0000
# 2 26.5523 58.0042 11.1222 0.0000 0.0000 0.0000
# 3 24.4399 11.1222 42.6629 0.0000 0.0000 0.0000
# 4 0.0000 0.0000 0.0000 23.6519 0.0000 0.0000
# 5 0.0000 0.0000 0.0000 0.0000 6.9716 0.0000
# 6 0.0000 0.0000 0.0000 0.0000 0.0000 14.6885
#
#
#
# Elastic Compliance Matrix: (Units=1/GPa)
#
#
# Indices 1 2 3 4 5 6 
#
# 1 0.007903 -0.002894 -0.003773 0.000000 0.000000 0.000000
# 2 -0.002894 0.019207 -0.003349 0.000000 0.000000 0.000000
# 3 -0.003773 -0.003349 0.026474 0.000000 0.000000 0.000000
# 4 0.000000 0.000000 0.000000 0.042280 0.000000 0.000000
# 5 0.000000 0.000000 0.000000 0.000000 0.143440 0.000000
# 6 0.000000 0.000000 0.000000 0.000000 0.000000 0.068080
#
#
# Mechanical properties :
#
#
# Convention : Reuss Voigt Hill
#
# Bulk Modulus (GPa) = 29.80491 41.42435 35.61463
# Shear Modulus (GPa) = 14.76662 21.49413 18.13037
#
# Velocity S-wave (km/s) = 2.75352 3.32205 3.05106
# Velocity P-wave (km/s) = 5.04106 5.99865 5.54058
#
# Compressibility (1/GPa) = 0.03355152
#
# Stress axis : x y z
#
# Youngs Moduli (GPa) = 126.53181 52.06357 37.77281
#
# Poissons Ratio (x) = 0.15069 0.14251
# Poissons Ratio (y) = 0.36623 0.12651
# Poissons Ratio (z) = 0.47739 0.17438
#
# Static dielectric constant tensor:
#      x y z
#    x 1.663490 0.000000 0.000000 
#    y 0.000000 1.765710 0.000000 
#    z 0.000000 0.000000 1.751920 
# 
# From -- ./inp_files/7585.got.cif
#   From: 2010.05.17/outbox.cif.g08.bks.cpg/sg24_4_cif.got.tgz:7585.got - 2010.06.04 00:33:39.
