data_PCOD9333708
_publ_section_title
;
Structure prediction by ZEFSAII (Michael W. Deem and Ramdas Pophale) SiO2 
 PCOD9333708
Probable space group: I 21 21 21
;
_chemical_formula_sum "Si O2"
_cell_formula_units_Z 56
_cell_length_a 18.965432
_cell_length_b 15.351605
_cell_length_c 8.382906
_cell_angle_alpha 90.000000
_cell_angle_beta 90.000000
_cell_angle_gamma 90.000000
_cell_volume 2440.681579
_symmetry_space_group_name_H-M "I 21 21 21"
_symmetry_group_IT_number 24
_symmetry_cell_setting 'orthorhombic'
loop_
_space_group_symop_operation_xyz
x,y,z
-x,1/2-y,z
x,-y,1/2-z
1/2-x,y,-z
1/2+x,1/2+y,1/2+z
1/2-x,-y,1/2+z
1/2+x,1/2-y,-z
-x,1/2+y,1/2-z
loop_
_atom_site_type_symbol
_atom_site_label
_atom_site_fract_x
_atom_site_fract_y
_atom_site_fract_z
Si Si1 0.398871 0.354064 0.831172
Si Si2 0.968336 0.031038 0.908009
Si Si3 0.385699 0.094733 0.177771
Si Si4 0.848807 0.332950 0.151298
Si Si5 0.030822 0.910115 0.150154
Si Si6 0.712075 0.727987 0.172487
Si Si7 0.746279 0.904093 0.307049
O O1 0.383931 0.258769 0.899654
O O2 0.465579 0.353458 0.714276
O O3 0.326564 0.383662 0.748477
O O4 0.417974 0.424392 0.965525
O O5 0.030948 0.097220 0.861363
O O6 0.930449 0.000000 0.750000
O O7 0.010098 0.947206 0.978954
O O8 0.355987 0.168345 0.296395
O O9 0.369104 0.000000 0.250000
O O10 0.352196 0.105234 0.001216
O O11 0.895961 0.366770 0.299739
O O12 0.770804 0.312614 0.208905
O O13 0.030107 0.000000 0.250000
O O14 0.700332 0.826858 0.231081
O O15 0.750000 0.726673 0.000000
O O16 0.750000 0.897363 0.500000
O O17 0.728216 0.000000 0.250000
#
# Coordination Sequence:
#
# PCOD9333708 Si02
#       7
#     8   8   8   8   8   8   8
#     4  10  21  41  68  97 130 176 223 277 344 416
#     4  10  22  39  66  97 137 171 222 280 336 410
#     4  11  24  42  64  95 138 180 228 281 334 399
#     4  11  22  41  69  91 133 180 228 279 339 403
#     4  10  19  36  64  91 125 170 220 266 332 405
#     4  11  26  42  64 100 137 182 239 282 339 418
#     4  11  23  44  72  99 137 179 226 292 355 415
#
# _framework density 22.944410000000001
#
# number of rings (size 3 to 8) (size 9 to 14) (size 15 to 20)
#    0.000    1.429    2.857    4.286    4.000    2.286 
#    0.000    7.143    6.286    0.000    0.000    0.000 
#    0.000    0.000    0.000    0.000    0.000    0.000 
#
# Total GULP energy -156502.240513 kJ/mol
# GULP energy per Si atom -5589.365733 kJ/mol
# Density = 2.289219 g / cm^3
# Si number density = 22.944410 Si / 1000 Ang^3
#
#
#
# Elastic Constant Matrix: (Units=GPa)
#
#
# Indices 1 2 3 4 5 6 
#
# 1 71.5969 28.1541 -12.9393 0.0000 0.0000 0.0000
# 2 28.1541 117.1412 14.5718 0.0000 0.0000 0.0000
# 3 -12.9393 14.5718 82.2825 0.0000 0.0000 0.0000
# 4 0.0000 0.0000 0.0000 33.8653 0.0000 0.0000
# 5 0.0000 0.0000 0.0000 0.0000 13.4901 0.0000
# 6 0.0000 0.0000 0.0000 0.0000 0.0000 20.3762
#
#
#
# Elastic Compliance Matrix: (Units=1/GPa)
#
#
# Indices 1 2 3 4 5 6 
#
# 1 0.016268 -0.004323 0.003324 0.000000 0.000000 0.000000
# 2 -0.004323 0.009878 -0.002429 0.000000 0.000000 0.000000
# 3 0.003324 -0.002429 0.013106 0.000000 0.000000 0.000000
# 4 0.000000 0.000000 0.000000 0.029529 0.000000 0.000000
# 5 0.000000 0.000000 0.000000 0.000000 0.074128 0.000000
# 6 0.000000 0.000000 0.000000 0.000000 0.000000 0.049077
#
#
# Mechanical properties :
#
#
# Convention : Reuss Voigt Hill
#
# Bulk Modulus (GPa) = 30.86939 36.73265 33.80102
# Shear Modulus (GPa) = 23.85023 29.62858 26.73941
#
# Velocity S-wave (km/s) = 3.22759 3.59739 3.41750
# Velocity P-wave (km/s) = 5.23192 5.77054 5.50782
#
# Compressibility (1/GPa) = 0.03239455
#
# Stress axis : x y z
#
# Youngs Moduli (GPa) = 61.47098 101.23539 76.30009
#
# Poissons Ratio (x) = 0.43767 -0.25361
# Poissons Ratio (y) = 0.26576 0.18535
# Poissons Ratio (z) = -0.20432 0.24592
#
# Static dielectric constant tensor:
#      x y z
#    x 1.864430 0.000000 0.000000 
#    y 0.000000 1.853860 0.000000 
#    z 0.000000 0.000000 1.921920 
# 
# From -- ./inp_files/15229.got.cif
#   From: 2010.05.17/outbox.cif.g08.bks.cpg/sg24_8_cif.got.tgz:15229.got - 2010.06.04 00:33:39.
