data_PCOD9333411
_publ_section_title
;
Structure prediction by ZEFSAII (Michael W. Deem and Ramdas Pophale) SiO2 
 PCOD9333411
Probable space group: I 21 21 21
;
_chemical_formula_sum "Si O2"
_cell_formula_units_Z 64
_cell_length_a 22.942769
_cell_length_b 18.179605
_cell_length_c 8.553267
_cell_angle_alpha 90.000000
_cell_angle_beta 90.000000
_cell_angle_gamma 90.000000
_cell_volume 3567.486222
_symmetry_space_group_name_H-M "I 21 21 21"
_symmetry_group_IT_number 24
_symmetry_cell_setting 'orthorhombic'
loop_
_space_group_symop_operation_xyz
x,y,z
-x,1/2-y,z
x,-y,1/2-z
1/2-x,y,-z
1/2+x,1/2+y,1/2+z
1/2-x,-y,1/2+z
1/2+x,1/2-y,-z
-x,1/2+y,1/2-z
loop_
_atom_site_type_symbol
_atom_site_label
_atom_site_fract_x
_atom_site_fract_y
_atom_site_fract_z
Si Si1 0.879694 0.716742 0.307116
Si Si2 0.861404 0.711840 0.684186
Si Si3 0.456963 0.077561 0.817909
Si Si4 0.042615 0.682691 0.676111
Si Si5 0.083498 0.375926 0.152231
Si Si6 0.258761 0.265224 0.684091
Si Si7 0.942950 0.417658 0.805927
Si Si8 0.216304 0.423404 0.165288
O O1 0.868946 0.716174 0.495624
O O2 0.919443 0.647658 0.262261
O O3 0.909653 0.795056 0.272481
O O4 0.816995 0.720814 0.227392
O O5 0.903895 0.775119 0.755557
O O6 0.796319 0.728081 0.732697
O O7 0.887635 0.633332 0.732046
O O8 0.525636 0.086706 0.780172
O O9 0.436147 0.000000 0.750000
O O10 0.450442 0.079761 0.006151
O O11 0.069090 0.640198 0.529146
O O12 0.000000 0.750000 0.620982
O O13 0.999798 0.625623 0.760252
O O14 0.145624 0.416497 0.156505
O O15 0.250000 0.265857 0.500000
O O16 0.264853 0.349066 0.745097
O O17 0.938362 0.500000 0.750000
O O18 0.230874 0.500000 0.250000
O O19 0.250000 0.421955 0.000000
#
# Coordination Sequence:
#
# PCOD9333411 Si02
#       8
#     8   8   8   8   8   8   8   8
#     4   9  18  34  56  76  99 137 178 214 259 317
#     4   9  17  34  56  74  99 138 179 213 255 315
#     4  10  19  32  52  78 107 134 169 217 267 317
#     4   8  14  28  52  77 100 132 175 213 253 312
#     4   9  16  31  54  77 101 135 178 216 256 308
#     4  11  22  36  55  79 104 133 175 221 265 314
#     4   9  18  32  51  77 106 136 169 213 265 315
#     4  11  22  37  55  78 111 147 180 215 257 306
#
# _framework density 17.939803999999999
#
# number of rings (size 3 to 8) (size 9 to 14) (size 15 to 20)
#    0.000    2.500    0.000    6.000    0.000    1.000 
#    0.000   11.250    0.000    4.500    0.000    0.000 
#    0.000    0.000    0.000    0.000    0.000    0.000 
#
# Total GULP energy -178304.152952 kJ/mol
# GULP energy per Si atom -5572.004780 kJ/mol
# Density = 1.789897 g / cm^3
# Si number density = 17.939804 Si / 1000 Ang^3
#
#
#
# Elastic Constant Matrix: (Units=GPa)
#
#
# Indices 1 2 3 4 5 6 
#
# 1 128.7439 67.9024 28.6701 0.0000 0.0000 0.0000
# 2 67.9024 127.8503 26.6718 0.0000 0.0000 0.0000
# 3 28.6701 26.6718 29.8318 0.0000 0.0000 0.0000
# 4 0.0000 0.0000 0.0000 28.8843 0.0000 0.0000
# 5 0.0000 0.0000 0.0000 0.0000 5.9462 0.0000
# 6 0.0000 0.0000 0.0000 0.0000 0.0000 18.5076
#
#
#
# Elastic Compliance Matrix: (Units=1/GPa)
#
#
# Indices 1 2 3 4 5 6 
#
# 1 0.011903 -0.004838 -0.007114 0.000000 0.000000 0.000000
# 2 -0.004838 0.011581 -0.005705 0.000000 0.000000 0.000000
# 3 -0.007114 -0.005705 0.045459 0.000000 0.000000 0.000000
# 4 0.000000 0.000000 0.000000 0.034621 0.000000 0.000000
# 5 0.000000 0.000000 0.000000 0.000000 0.168176 0.000000
# 6 0.000000 0.000000 0.000000 0.000000 0.000000 0.054032
#
#
# Mechanical properties :
#
#
# Convention : Reuss Voigt Hill
#
# Bulk Modulus (GPa) = 29.73590 59.21273 44.47432
# Shear Modulus (GPa) = 13.43016 21.54639 17.48827
#
# Velocity S-wave (km/s) = 2.73907 3.46936 3.12562
# Velocity P-wave (km/s) = 5.15894 7.00904 6.15391
#
# Compressibility (1/GPa) = 0.03362938
#
# Stress axis : x y z
#
# Youngs Moduli (GPa) = 84.01117 86.34710 21.99763
#
# Poissons Ratio (x) = 0.41772 0.15650
# Poissons Ratio (y) = 0.40642 0.12550
# Poissons Ratio (z) = 0.59769 0.49262
#
# Static dielectric constant tensor:
#      x y z
#    x 1.630300 0.000000 0.000000 
#    y 0.000000 1.605670 0.000000 
#    z 0.000000 0.000000 1.618550 
# 
# From -- ./inp_files/15421.got.cif
#   From: 2010.05.17/outbox.cif.g08.bks.cpg/sg24_8_cif.got.tgz:15421.got - 2010.06.04 00:33:39.
