data_PCOD9333079
_publ_section_title
;
Structure prediction by ZEFSAII (Michael W. Deem and Ramdas Pophale) SiO2 
 PCOD9333079
Probable space group: I 21 21 21
;
_chemical_formula_sum "Si O2"
_cell_formula_units_Z 60
_cell_length_a 14.655588
_cell_length_b 13.790766
_cell_length_c 15.695282
_cell_angle_alpha 90.000000
_cell_angle_beta 90.000000
_cell_angle_gamma 90.000000
_cell_volume 3172.201456
_symmetry_space_group_name_H-M "I 21 21 21"
_symmetry_group_IT_number 24
_symmetry_cell_setting 'orthorhombic'
loop_
_space_group_symop_operation_xyz
x,y,z
-x,1/2-y,z
x,-y,1/2-z
1/2-x,y,-z
1/2+x,1/2+y,1/2+z
1/2-x,-y,1/2+z
1/2+x,1/2-y,-z
-x,1/2+y,1/2-z
loop_
_atom_site_type_symbol
_atom_site_label
_atom_site_fract_x
_atom_site_fract_y
_atom_site_fract_z
Si Si1 0.127501 0.908529 0.925642
Si Si2 0.181946 0.307482 0.079644
Si Si3 0.479868 0.096698 0.129343
Si Si4 0.658092 0.568704 0.884616
Si Si5 0.182656 0.130717 0.209115
Si Si6 0.127708 0.199162 0.732623
Si Si7 0.000000 0.250000 0.003551
Si Si8 0.822210 0.092363 0.811015
O O1 0.235242 0.926113 0.910671
O O2 0.110275 0.814107 0.867529
O O3 0.071717 0.996722 0.884175
O O4 0.108148 0.908163 0.026747
O O5 0.176282 0.219479 0.145896
O O6 0.232326 0.392709 0.131464
O O7 0.250000 0.286516 0.000000
O O8 0.076968 0.312537 0.050767
O O9 0.455788 0.152484 0.216254
O O10 0.449378 0.172628 0.056839
O O11 0.588315 0.081333 0.129824
O O12 0.637213 0.636733 0.802895
O O13 0.648033 0.462001 0.843493
O O14 0.289450 0.128972 0.235309
O O15 0.158495 0.306757 0.759919
O O16 0.815856 0.000000 0.750000
#
# Coordination Sequence:
#
# PCOD9333079 Si02
#       8
#     8   8   8   8   8   8   4   8
#     4  10  19  27  51  82 125 158 194 247 307 385
#     4  11  22  39  62  89 118 148 213 267 310 363
#     4  12  19  33  56  94 123 152 202 259 330 373
#     4   9  17  28  46  80 121 156 189 224 312 380
#     4   9  17  30  51  78 116 155 184 245 306 355
#     4  10  18  33  51  85 120 160 203 246 313 375
#     4  12  22  36  64  92 114 158 208 268 316 362
#     4  11  23  38  61  84 124 169 206 255 319 382
#
# _framework density 18.914308999999999
#
# number of rings (size 3 to 8) (size 9 to 14) (size 15 to 20)
#    0.000    1.600    4.000    2.800    1.867    0.000 
#    0.000    0.000   14.667    0.000    3.467    0.000 
#    0.000    0.000    0.000    0.000    0.000    0.000 
#
# Total GULP energy -167031.206875 kJ/mol
# GULP energy per Si atom -5567.706896 kJ/mol
# Density = 1.887126 g / cm^3
# Si number density = 18.914309 Si / 1000 Ang^3
#
#
#
# Elastic Constant Matrix: (Units=GPa)
#
#
# Indices 1 2 3 4 5 6 
#
# 1 54.9641 11.1018 17.4143 0.0000 0.0000 0.0000
# 2 11.1018 57.4202 36.4207 0.0000 0.0000 0.0000
# 3 17.4143 36.4207 135.2631 0.0000 0.0000 0.0000
# 4 0.0000 0.0000 0.0000 26.4591 0.0000 0.0000
# 5 0.0000 0.0000 0.0000 0.0000 22.4477 0.0000
# 6 0.0000 0.0000 0.0000 0.0000 0.0000 13.5181
#
#
#
# Elastic Compliance Matrix: (Units=1/GPa)
#
#
# Indices 1 2 3 4 5 6 
#
# 1 0.019283 -0.002597 -0.001783 0.000000 0.000000 0.000000
# 2 -0.002597 0.021352 -0.005415 0.000000 0.000000 0.000000
# 3 -0.001783 -0.005415 0.009081 0.000000 0.000000 0.000000
# 4 0.000000 0.000000 0.000000 0.037794 0.000000 0.000000
# 5 0.000000 0.000000 0.000000 0.000000 0.044548 0.000000
# 6 0.000000 0.000000 0.000000 0.000000 0.000000 0.073975
#
#
# Mechanical properties :
#
#
# Convention : Reuss Voigt Hill
#
# Bulk Modulus (GPa) = 33.19463 41.94678 37.57070
# Shear Modulus (GPa) = 21.21647 24.66566 22.94107
#
# Velocity S-wave (km/s) = 3.35284 3.61511 3.48644
# Velocity P-wave (km/s) = 5.70761 6.29689 6.00948
#
# Compressibility (1/GPa) = 0.03012536
#
# Stress axis : x y z
#
# Youngs Moduli (GPa) = 51.85837 46.83353 110.12503
#
# Poissons Ratio (x) = 0.12164 0.19638
# Poissons Ratio (y) = 0.13469 0.59632
# Poissons Ratio (z) = 0.09248 0.25360
#
# Static dielectric constant tensor:
#      x y z
#    x 1.731100 0.000000 0.000000 
#    y 0.000000 1.664440 0.000000 
#    z 0.000000 0.000000 1.728900 
# 
# From -- ./inp_files/26674.got.cif
#   From: 2010.05.17/outbox.cif.g08.bks.cpg/sg24_14_cif.got.tgz:26674.got - 2010.06.04 00:33:39.
