data_PCOD9333866
_publ_section_title
;
Structure prediction by ZEFSAII (Michael W. Deem and Ramdas Pophale) SiO2 
 PCOD9333866
Probable space group: I 21 21 21
;
_chemical_formula_sum "Si O2"
_cell_formula_units_Z 44
_cell_length_a 16.262158
_cell_length_b 9.525419
_cell_length_c 14.781107
_cell_angle_alpha 90.000000
_cell_angle_beta 90.000000
_cell_angle_gamma 90.000000
_cell_volume 2289.650659
_symmetry_space_group_name_H-M "I 21 21 21"
_symmetry_group_IT_number 24
_symmetry_cell_setting 'orthorhombic'
loop_
_space_group_symop_operation_xyz
x,y,z
-x,1/2-y,z
x,-y,1/2-z
1/2-x,y,-z
1/2+x,1/2+y,1/2+z
1/2-x,-y,1/2+z
1/2+x,1/2-y,-z
-x,1/2+y,1/2-z
loop_
_atom_site_type_symbol
_atom_site_label
_atom_site_fract_x
_atom_site_fract_y
_atom_site_fract_z
Si Si1 0.612535 0.044912 0.910779
Si Si2 0.633374 0.265640 0.655007
Si Si3 0.595354 0.233045 0.078245
Si Si4 0.169760 0.966513 0.446617
Si Si5 0.500000 0.750000 0.695064
Si Si6 0.743165 0.238155 0.812553
O O1 0.534833 0.123532 0.864790
O O2 0.691994 0.109490 0.858098
O O3 0.611426 0.880365 0.892849
O O4 0.611583 0.097724 0.013918
O O5 0.626098 0.396622 0.589624
O O6 0.572521 0.292326 0.738446
O O7 0.720966 0.249657 0.706928
O O8 0.500000 0.250000 0.103860
O O9 0.661725 0.230242 0.158884
O O10 0.619040 0.363156 0.011778
O O11 0.250000 0.015459 0.500000
O O12 0.204653 0.872437 0.364516
#
# Coordination Sequence:
#
# PCOD9333866 Si02
#       6
#     8   8   8   8   4   8
#     4  10  20  34  53  82 111 146 185 230 281 340
#     4  11  22  33  58  84 118 144 183 244 291 329
#     4  10  20  36  60  79 113 151 194 227 275 349
#     4   9  20  36  55  81 110 152 189 230 289 343
#     4  10  20  30  48  84 120 138 176 220 302 342
#     4   9  19  36  54  80 109 153 191 222 280 346
#
# _framework density 19.216905000000001
#
# number of rings (size 3 to 8) (size 9 to 14) (size 15 to 20)
#    0.000    2.182    0.909    4.364    2.545    5.818 
#    0.000    0.000    0.000    8.727    0.000    0.000 
#    0.000    0.000    0.000    0.000    0.000    0.000 
#
# Total GULP energy -122819.139438 kJ/mol
# GULP energy per Si atom -5582.688156 kJ/mol
# Density = 1.917317 g / cm^3
# Si number density = 19.216905 Si / 1000 Ang^3
#
#
#
# Elastic Constant Matrix: (Units=GPa)
#
#
# Indices 1 2 3 4 5 6 
#
# 1 112.4947 30.1665 25.3555 0.0000 0.0000 0.0000
# 2 30.1665 99.1244 23.2855 0.0000 0.0000 0.0000
# 3 25.3555 23.2855 43.2134 0.0000 0.0000 0.0000
# 4 0.0000 0.0000 0.0000 3.5791 0.0000 0.0000
# 5 0.0000 0.0000 0.0000 0.0000 27.0788 0.0000
# 6 0.0000 0.0000 0.0000 0.0000 0.0000 9.1744
#
#
#
# Elastic Compliance Matrix: (Units=1/GPa)
#
#
# Indices 1 2 3 4 5 6 
#
# 1 0.010585 -0.002018 -0.005124 0.000000 0.000000 0.000000
# 2 -0.002018 0.011935 -0.005247 0.000000 0.000000 0.000000
# 3 -0.005124 -0.005247 0.028975 0.000000 0.000000 0.000000
# 4 0.000000 0.000000 0.000000 0.279398 0.000000 0.000000
# 5 0.000000 0.000000 0.000000 0.000000 0.036929 0.000000
# 6 0.000000 0.000000 0.000000 0.000000 0.000000 0.108999
#
#
# Mechanical properties :
#
#
# Convention : Reuss Voigt Hill
#
# Bulk Modulus (GPa) = 37.42838 45.82749 41.62794
# Shear Modulus (GPa) = 9.79424 19.70147 14.74785
#
# Velocity S-wave (km/s) = 2.26003 3.20537 2.77328
# Velocity P-wave (km/s) = 5.13122 6.13176 5.65367
#
# Compressibility (1/GPa) = 0.02671770
#
# Stress axis : x y z
#
# Youngs Moduli (GPa) = 94.47131 83.78682 34.51291
#
# Poissons Ratio (x) = 0.16907 0.17683
# Poissons Ratio (y) = 0.19063 0.18110
# Poissons Ratio (z) = 0.48403 0.43965
#
# Static dielectric constant tensor:
#      x y z
#    x 1.752250 0.000000 0.000000 
#    y 0.000000 1.665200 0.000000 
#    z 0.000000 0.000000 1.672600 
# 
# From -- ./inp_files/14067.got.cif
#   From: 2010.05.17/outbox.cif.g08.bks.cpg/sg24_8_cif.got.tgz:14067.got - 2010.06.04 00:33:39.
