data_PCOD9333229
_publ_section_title
;
Structure prediction by ZEFSAII (Michael W. Deem and Ramdas Pophale) SiO2 
 PCOD9333229
Probable space group: I 21 21 21
;
_chemical_formula_sum "Si O2"
_cell_formula_units_Z 48
_cell_length_a 9.608545
_cell_length_b 14.533020
_cell_length_c 16.743214
_cell_angle_alpha 90.000000
_cell_angle_beta 90.000000
_cell_angle_gamma 90.000000
_cell_volume 2338.042104
_symmetry_space_group_name_H-M "I 21 21 21"
_symmetry_group_IT_number 24
_symmetry_cell_setting 'orthorhombic'
loop_
_space_group_symop_operation_xyz
x,y,z
-x,1/2-y,z
x,-y,1/2-z
1/2-x,y,-z
1/2+x,1/2+y,1/2+z
1/2-x,-y,1/2+z
1/2+x,1/2-y,-z
-x,1/2+y,1/2-z
loop_
_atom_site_type_symbol
_atom_site_label
_atom_site_fract_x
_atom_site_fract_y
_atom_site_fract_z
Si Si1 0.405106 0.066863 0.876605
Si Si2 0.000000 0.250000 0.151112
Si Si3 0.000000 0.750000 0.718034
Si Si4 0.586172 0.450069 0.167746
Si Si5 0.714268 0.197516 0.710021
Si Si6 0.000000 0.250000 0.427359
Si Si7 0.868460 0.000000 0.250000
Si Si8 0.406983 0.078759 0.484620
O O1 0.442913 0.168850 0.902021
O O2 0.253611 0.064025 0.836792
O O3 0.525276 0.037663 0.816055
O O4 0.411619 0.000915 0.950365
O O5 0.123907 0.275203 0.211966
O O6 0.019127 0.846714 0.668629
O O7 0.134456 0.738361 0.774586
O O8 0.548718 0.500000 0.250000
O O9 0.560154 0.525768 0.097650
O O10 0.631006 0.238182 0.633926
O O11 0.714448 0.085965 0.712727
O O12 0.999023 0.161865 0.485004
O O13 0.250000 0.115805 0.500000
#
# Coordination Sequence:
#
# PCOD9333229 Si02
#       8
#     8   4   4   8   8   4   4   8
#     4  10  18  38  66  98 129 175 233 285 334 404
#     4   9  18  33  66  96 128 178 234 279 327 386
#     4  12  26  42  64 104 150 182 230 278 354 430
#     4  11  25  43  65  94 139 187 227 280 356 422
#     4  10  22  37  68 104 139 182 225 288 337 419
#     4  11  22  47  70 108 136 176 244 295 345 418
#     4  10  18  36  68 100 140 172 238 284 338 400
#     4  10  24  41  69 100 134 180 229 291 351 404
#
# _framework density 20.529999
#
# number of rings (size 3 to 8) (size 9 to 14) (size 15 to 20)
#    0.000    1.667    4.167    0.000    5.833    1.333 
#    0.000    0.000    0.000    0.000    0.000    0.000 
#    0.000    0.000    0.000    0.000    0.000    0.000 
#
# Total GULP energy -133817.386499 kJ/mol
# GULP energy per Si atom -5575.724437 kJ/mol
# Density = 2.048327 g / cm^3
# Si number density = 20.529999 Si / 1000 Ang^3
#
#
#
# Elastic Constant Matrix: (Units=GPa)
#
#
# Indices 1 2 3 4 5 6 
#
# 1 95.5234 24.9467 21.6606 0.0000 0.0000 0.0000
# 2 24.9467 71.6920 -1.1799 0.0000 0.0000 0.0000
# 3 21.6606 -1.1799 52.3065 0.0000 0.0000 0.0000
# 4 0.0000 0.0000 0.0000 18.6518 0.0000 0.0000
# 5 0.0000 0.0000 0.0000 0.0000 13.3538 0.0000
# 6 0.0000 0.0000 0.0000 0.0000 0.0000 35.3195
#
#
#
# Elastic Compliance Matrix: (Units=1/GPa)
#
#
# Indices 1 2 3 4 5 6 
#
# 1 0.012899 -0.004578 -0.005445 0.000000 0.000000 0.000000
# 2 -0.004578 0.015579 0.002247 0.000000 0.000000 0.000000
# 3 -0.005445 0.002247 0.021423 0.000000 0.000000 0.000000
# 4 0.000000 0.000000 0.000000 0.053614 0.000000 0.000000
# 5 0.000000 0.000000 0.000000 0.000000 0.074885 0.000000
# 6 0.000000 0.000000 0.000000 0.000000 0.000000 0.028313
#
#
# Mechanical properties :
#
#
# Convention : Reuss Voigt Hill
#
# Bulk Modulus (GPa) = 29.11234 34.48629 31.79931
# Shear Modulus (GPa) = 21.39367 25.07134 23.23251
#
# Velocity S-wave (km/s) = 3.23161 3.49837 3.36763
# Velocity P-wave (km/s) = 5.30430 5.75783 5.53571
#
# Compressibility (1/GPa) = 0.03434970
#
# Stress axis : x y z
#
# Youngs Moduli (GPa) = 77.52622 64.19080 46.67773
#
# Poissons Ratio (x) = 0.29387 0.25415
# Poissons Ratio (y) = 0.35492 -0.10489
# Poissons Ratio (z) = 0.42211 -0.14425
#
# Static dielectric constant tensor:
#      x y z
#    x 1.860550 0.000000 0.000000 
#    y 0.000000 1.802460 0.000000 
#    z 0.000000 0.000000 1.655000 
# 
# From -- ./inp_files/29548.got.cif
#   From: 2010.05.17/outbox.cif.g08.bks.cpg/sg24_15_cif.got.tgz:29548.got - 2010.06.04 00:33:39.
