data_PCOD9333221
_publ_section_title
;
Structure prediction by ZEFSAII (Michael W. Deem and Ramdas Pophale) SiO2 
 PCOD9333221
Probable space group: I 21 21 21
;
_chemical_formula_sum "Si O2"
_cell_formula_units_Z 32
_cell_length_a 7.470346
_cell_length_b 9.947417
_cell_length_c 14.910594
_cell_angle_alpha 90.000000
_cell_angle_beta 90.000000
_cell_angle_gamma 90.000000
_cell_volume 1108.015884
_symmetry_space_group_name_H-M "I 21 21 21"
_symmetry_group_IT_number 24
_symmetry_cell_setting 'orthorhombic'
loop_
_space_group_symop_operation_xyz
x,y,z
-x,1/2-y,z
x,-y,1/2-z
1/2-x,y,-z
1/2+x,1/2+y,1/2+z
1/2-x,-y,1/2+z
1/2+x,1/2-y,-z
-x,1/2+y,1/2-z
loop_
_atom_site_type_symbol
_atom_site_label
_atom_site_fract_x
_atom_site_fract_y
_atom_site_fract_z
Si Si1 0.250000 0.803671 0.500000
Si Si2 0.291504 0.791804 0.311543
Si Si3 0.571896 0.523156 0.097786
Si Si4 0.250000 0.732203 0.000000
Si Si5 0.684136 0.097828 0.670729
O O1 0.224303 0.728705 0.406231
O O2 0.084462 0.906419 0.521211
O O3 0.500000 0.750000 0.301972
O O4 0.195024 0.736880 0.225851
O O5 0.291063 0.948394 0.335416
O O6 0.385455 0.543775 0.147705
O O7 0.644197 0.663146 0.062454
O O8 0.365650 0.637893 0.931842
O O9 0.611856 0.000000 0.750000
#
# Coordination Sequence:
#
# PCOD9333221 Si02
#       5
#     4   8   8   4   8
#     4   7  18  35  56  92 125 158 197 254 314 355
#     4  10  18  36  64  92 123 158 216 254 297 371
#     4   9  20  39  57  91 127 164 199 254 313 364
#     4  11  24  37  58  92 137 158 197 268 324 355
#     4  12  23  37  65  96 125 161 214 262 304 365
#
# _framework density 28.880451999999998
#
# number of rings (size 3 to 8) (size 9 to 14) (size 15 to 20)
#    1.500    0.500    2.500    2.250    0.000    1.000 
#    0.000    0.000    0.000    9.000    0.000    0.000 
#    0.000    0.000    0.000    0.000    0.000    0.000 
#
# Total GULP energy -89273.602822 kJ/mol
# GULP energy per Si atom -5579.600176 kJ/mol
# Density = 2.881472 g / cm^3
# Si number density = 28.880452 Si / 1000 Ang^3
#
#
#
# Elastic Constant Matrix: (Units=GPa)
#
#
# Indices 1 2 3 4 5 6 
#
# 1 86.8001 17.5896 38.5524 0.0000 0.0000 0.0000
# 2 17.5896 142.5745 61.0955 0.0000 0.0000 0.0000
# 3 38.5524 61.0955 211.5960 0.0000 0.0000 0.0000
# 4 0.0000 0.0000 0.0000 73.6368 0.0000 0.0000
# 5 0.0000 0.0000 0.0000 0.0000 41.2424 0.0000
# 6 0.0000 0.0000 0.0000 0.0000 0.0000 31.5795
#
#
#
# Elastic Compliance Matrix: (Units=1/GPa)
#
#
# Indices 1 2 3 4 5 6 
#
# 1 0.012588 -0.000651 -0.002106 0.000000 0.000000 0.000000
# 2 -0.000651 0.008038 -0.002202 0.000000 0.000000 0.000000
# 3 -0.002106 -0.002202 0.005745 0.000000 0.000000 0.000000
# 4 0.000000 0.000000 0.000000 0.013580 0.000000 0.000000
# 5 0.000000 0.000000 0.000000 0.000000 0.024247 0.000000
# 6 0.000000 0.000000 0.000000 0.000000 0.000000 0.031666
#
#
# Mechanical properties :
#
#
# Convention : Reuss Voigt Hill
#
# Bulk Modulus (GPa) = 60.77534 75.04949 67.91242
# Shear Modulus (GPa) = 44.93732 50.87395 47.90563
#
# Velocity S-wave (km/s) = 3.94887 4.20162 4.07720
# Velocity P-wave (km/s) = 6.47154 7.04136 6.76246
#
# Compressibility (1/GPa) = 0.01645404
#
# Stress axis : x y z
#
# Youngs Moduli (GPa) = 79.44208 124.41121 174.04933
#
# Poissons Ratio (x) = 0.08095 0.36648
# Poissons Ratio (y) = 0.05169 0.38330
# Poissons Ratio (z) = 0.16727 0.27399
#
# Static dielectric constant tensor:
#      x y z
#    x 2.325750 0.000000 0.000000 
#    y 0.000000 2.316080 0.000000 
#    z 0.000000 0.000000 2.301350 
# 
# From -- ./inp_files/20449.got.cif
#   From: 2010.05.17/outbox.cif.g08.bks.cpg/sg24_11_cif.got.tgz:20449.got - 2010.06.04 00:33:39.
