data_PCOD9333282
_publ_section_title
;
Structure prediction by ZEFSAII (Michael W. Deem and Ramdas Pophale) SiO2 
 PCOD9333282
Probable space group: I 21 21 21
;
_chemical_formula_sum "Si O2"
_cell_formula_units_Z 28
_cell_length_a 9.314620
_cell_length_b 17.112536
_cell_length_c 7.420369
_cell_angle_alpha 90.000000
_cell_angle_beta 90.000000
_cell_angle_gamma 90.000000
_cell_volume 1182.782851
_symmetry_space_group_name_H-M "I 21 21 21"
_symmetry_group_IT_number 24
_symmetry_cell_setting 'orthorhombic'
loop_
_space_group_symop_operation_xyz
x,y,z
-x,1/2-y,z
x,-y,1/2-z
1/2-x,y,-z
1/2+x,1/2+y,1/2+z
1/2-x,-y,1/2+z
1/2+x,1/2-y,-z
-x,1/2+y,1/2-z
loop_
_atom_site_type_symbol
_atom_site_label
_atom_site_fract_x
_atom_site_fract_y
_atom_site_fract_z
Si Si1 0.418269 0.518484 0.036362
Si Si2 0.088832 0.829831 0.934171
Si Si3 0.750000 0.752333 0.500000
Si Si4 0.017348 0.854827 0.528634
O O1 0.432465 0.500000 0.250000
O O2 0.503067 0.596396 0.985621
O O3 0.483612 0.439536 0.951961
O O4 0.250000 0.526995 0.000000
O O5 0.095475 0.851355 0.721370
O O6 0.000000 0.750000 0.958893
O O7 0.250000 0.820762 0.000000
O O8 0.871341 0.696058 0.410077
O O9 0.634301 0.813566 0.420162
#
# Coordination Sequence:
#
# PCOD9333282 Si02
#       4
#     8   8   4   8
#     4  10  22  42  62  90 128 162 208 258 310 369
#     4  11  23  43  61  87 126 167 204 249 309 376
#     4  10  18  38  68  90 120 156 208 254 304 358
#     4  10  21  40  65  92 123 157 208 259 307 356
#
# _framework density 23.672985000000001
#
# number of rings (size 3 to 8) (size 9 to 14) (size 15 to 20)
#    0.000    1.714    4.286    0.857    2.000    0.000 
#   10.286    0.000    0.000    0.000    0.000    0.000 
#    0.000    0.000    0.000    0.000    0.000    0.000 
#
# Total GULP energy -78038.391756 kJ/mol
# GULP energy per Si atom -5574.170840 kJ/mol
# Density = 2.361910 g / cm^3
# Si number density = 23.672985 Si / 1000 Ang^3
#
#
#
# Elastic Constant Matrix: (Units=GPa)
#
#
# Indices 1 2 3 4 5 6 
#
# 1 226.5199 105.8337 36.2741 0.0000 0.0000 0.0000
# 2 105.8337 232.2603 7.0751 -0.0001 0.0000 0.0000
# 3 36.2741 7.0751 47.7660 -0.0006 0.0000 -0.0001
# 4 0.0000 -0.0001 -0.0006 6.7115 0.0000 0.0000
# 5 0.0000 0.0000 0.0000 0.0000 37.3479 0.0000
# 6 0.0000 0.0000 -0.0001 0.0000 0.0000 36.2497
#
#
#
# Elastic Compliance Matrix: (Units=1/GPa)
#
#
# Indices 1 2 3 4 5 6 
#
# 1 0.006438 -0.002797 -0.004475 0.000000 0.000000 0.000000
# 2 -0.002797 0.005540 0.001304 0.000000 0.000000 0.000000
# 3 -0.004475 0.001304 0.024141 0.000002 0.000000 0.000000
# 4 0.000000 0.000000 0.000002 0.148998 0.000000 0.000000
# 5 0.000000 0.000000 0.000000 0.000000 0.026775 0.000000
# 6 0.000000 0.000000 0.000000 0.000000 0.000000 0.027586
#
#
# Mechanical properties :
#
#
# Convention : Reuss Voigt Hill
#
# Bulk Modulus (GPa) = 41.35283 89.43465 65.39374
# Shear Modulus (GPa) = 19.26957 39.88604 29.57781
#
# Velocity S-wave (km/s) = 2.85615 4.10918 3.53857
# Velocity P-wave (km/s) = 5.32757 7.77014 6.66176
#
# Compressibility (1/GPa) = 0.02418214
#
# Stress axis : x y z
#
# Youngs Moduli (GPa) = 155.32303 180.48996 41.42398
#
# Poissons Ratio (x) = 0.50490 0.18537
# Poissons Ratio (y) = 0.43450 -0.05400
# Poissons Ratio (z) = 0.69506 -0.23531
#
# Static dielectric constant tensor:
#      x y z
#    x 1.849090 0.000000 0.000000 
#    y 0.000000 1.997290 0.000000 
#    z 0.000000 0.000000 2.068610 
# 
# From -- ./inp_files/8775.got.cif
#   From: 2010.05.17/outbox.cif.g08.bks.cpg/sg24_5_cif.got.tgz:8775.got - 2010.06.04 00:33:39.
