data_PCOD9333738
_publ_section_title
;
Structure prediction by ZEFSAII (Michael W. Deem and Ramdas Pophale) SiO2 
 PCOD9333738
Probable space group: I 21 21 21
;
_chemical_formula_sum "Si O2"
_cell_formula_units_Z 48
_cell_length_a 14.636875
_cell_length_b 11.475889
_cell_length_c 12.552404
_cell_angle_alpha 90.000000
_cell_angle_beta 90.000000
_cell_angle_gamma 90.000000
_cell_volume 2108.441770
_symmetry_space_group_name_H-M "I 21 21 21"
_symmetry_group_IT_number 24
_symmetry_cell_setting 'orthorhombic'
loop_
_space_group_symop_operation_xyz
x,y,z
-x,1/2-y,z
x,-y,1/2-z
1/2-x,y,-z
1/2+x,1/2+y,1/2+z
1/2-x,-y,1/2+z
1/2+x,1/2-y,-z
-x,1/2+y,1/2-z
loop_
_atom_site_type_symbol
_atom_site_label
_atom_site_fract_x
_atom_site_fract_y
_atom_site_fract_z
Si Si1 0.301256 0.777581 0.612664
Si Si2 0.588408 0.477701 0.978544
Si Si3 0.095955 0.212206 0.578535
Si Si4 0.380894 0.539028 0.572711
Si Si5 0.196793 0.551427 0.863509
Si Si6 0.635140 0.378832 0.206143
O O1 0.250000 0.766455 0.500000
O O2 0.354916 0.898769 0.602550
O O3 0.365414 0.666307 0.623136
O O4 0.218575 0.789280 0.694635
O O5 0.630828 0.602872 0.009506
O O6 0.589109 0.405307 0.091817
O O7 0.486503 0.492495 0.934069
O O8 0.158785 0.323854 0.598673
O O9 0.072758 0.161376 0.696494
O O10 0.000000 0.250000 0.529024
O O11 0.306991 0.454607 0.628422
O O12 0.345098 0.537047 0.450773
O O13 0.168448 0.500000 0.750000
O O14 0.674900 0.500000 0.250000
#
# Coordination Sequence:
#
# PCOD9333738 Si02
#       6
#     8   8   8   8   8   8
#     4  10  19  37  61  87 121 163 207 259 307 380
#     4  10  22  38  61  92 121 163 214 260 316 377
#     4  11  22  37  60  91 131 158 202 269 326 383
#     4  11  22  41  61  93 126 171 220 256 317 382
#     4  11  24  39  63  92 130 171 209 262 320 381
#     4   9  21  38  59  94 122 159 208 263 331 373
#
# _framework density 22.765626999999999
#
# number of rings (size 3 to 8) (size 9 to 14) (size 15 to 20)
#    0.000    1.667    3.333    1.500    4.667    0.000 
#   15.000    0.833    0.000    0.000    0.000    0.000 
#    0.000    0.000    0.000    0.000    0.000    0.000 
#
# Total GULP energy -133919.777615 kJ/mol
# GULP energy per Si atom -5579.990734 kJ/mol
# Density = 2.271381 g / cm^3
# Si number density = 22.765627 Si / 1000 Ang^3
#
#
#
# Elastic Constant Matrix: (Units=GPa)
#
#
# Indices 1 2 3 4 5 6 
#
# 1 88.3150 55.4244 -1.3774 0.0000 0.0000 0.0000
# 2 55.4244 157.5039 8.5936 0.0000 0.0000 0.0000
# 3 -1.3774 8.5936 20.7736 0.0000 0.0000 0.0000
# 4 0.0000 0.0000 0.0000 14.4672 0.0000 0.0000
# 5 0.0000 0.0000 0.0000 0.0000 22.5191 0.0000
# 6 0.0000 0.0000 0.0000 0.0000 0.0000 38.4137
#
#
#
# Elastic Compliance Matrix: (Units=1/GPa)
#
#
# Indices 1 2 3 4 5 6 
#
# 1 0.014737 -0.005360 0.003194 0.000000 0.000000 0.000000
# 2 -0.005360 0.008445 -0.003849 0.000000 0.000000 0.000000
# 3 0.003194 -0.003849 0.049942 0.000000 0.000000 0.000000
# 4 0.000000 0.000000 0.000000 0.069122 0.000000 0.000000
# 5 0.000000 0.000000 0.000000 0.000000 0.044407 0.000000
# 6 0.000000 0.000000 0.000000 0.000000 0.000000 0.026032
#
#
# Mechanical properties :
#
#
# Convention : Reuss Voigt Hill
#
# Bulk Modulus (GPa) = 16.36797 43.54152 29.95475
# Shear Modulus (GPa) = 20.40155 28.67679 24.53917
#
# Velocity S-wave (km/s) = 2.99683 3.55301 3.28671
# Velocity P-wave (km/s) = 4.37951 5.99995 5.25259
#
# Compressibility (1/GPa) = 0.06109492
#
# Stress axis : x y z
#
# Youngs Moduli (GPa) = 67.85747 118.41024 20.02319
#
# Poissons Ratio (x) = 0.63468 -0.06396
# Poissons Ratio (y) = 0.36372 0.07707
# Poissons Ratio (z) = -0.21677 0.45576
#
# Static dielectric constant tensor:
#      x y z
#    x 1.865250 0.000000 0.000000 
#    y 0.000000 1.916900 0.000000 
#    z 0.000000 0.000000 1.858160 
# 
# From -- ./inp_files/20735.got.cif
#   From: 2010.05.17/outbox.cif.g08.bks.cpg/sg24_11_cif.got.tgz:20735.got - 2010.06.04 00:33:39.
