data_PCOD9333499
_publ_section_title
;
Structure prediction by ZEFSAII (Michael W. Deem and Ramdas Pophale) SiO2 
 PCOD9333499
Probable space group: I 21 21 21
;
_chemical_formula_sum "Si O2"
_cell_formula_units_Z 56
_cell_length_a 11.847696
_cell_length_b 14.239999
_cell_length_c 15.504600
_cell_angle_alpha 90.000000
_cell_angle_beta 90.000000
_cell_angle_gamma 90.000000
_cell_volume 2615.799349
_symmetry_space_group_name_H-M "I 21 21 21"
_symmetry_group_IT_number 24
_symmetry_cell_setting 'orthorhombic'
loop_
_space_group_symop_operation_xyz
x,y,z
-x,1/2-y,z
x,-y,1/2-z
1/2-x,y,-z
1/2+x,1/2+y,1/2+z
1/2-x,-y,1/2+z
1/2+x,1/2-y,-z
-x,1/2+y,1/2-z
loop_
_atom_site_type_symbol
_atom_site_label
_atom_site_fract_x
_atom_site_fract_y
_atom_site_fract_z
Si Si1 0.153036 0.886742 0.064460
Si Si2 0.198065 0.016643 0.846417
Si Si3 0.241938 0.203152 0.901600
Si Si4 0.932503 0.845196 0.610786
Si Si5 0.982353 0.947409 0.931459
Si Si6 0.367083 0.237252 0.734077
Si Si7 0.824639 0.895073 0.782549
O O1 0.156604 0.830920 0.153405
O O2 0.199648 0.989882 0.090728
O O3 0.250000 0.848148 0.000000
O O4 0.032743 0.897563 0.016564
O O5 0.160579 0.123705 0.859921
O O6 0.233312 0.000000 0.750000
O O7 0.092954 0.951334 0.869929
O O8 0.194803 0.307929 0.905002
O O9 0.340387 0.200572 0.830936
O O10 0.250000 0.174003 0.000000
O O11 0.922034 0.864086 0.713850
O O12 0.000000 0.750000 0.586358
O O13 0.953926 0.941443 0.559461
O O14 0.881474 0.901141 0.877292
O O15 0.500000 0.250000 0.730009
O O16 0.282121 0.325527 0.720811
O O17 0.793556 0.000000 0.750000
#
# Coordination Sequence:
#
# PCOD9333499 Si02
#       7
#     8   8   8   8   8   8   8
#     4  10  23  40  64  99 138 182 232 280 345 417
#     4  11  19  36  62  94 138 174 224 283 350 413
#     4  11  23  40  62  93 131 173 223 292 338 421
#     4  10  19  33  60  97 129 167 218 278 354 405
#     4  10  20  37  64 100 134 175 224 289 351 409
#     4  11  25  47  66  97 133 185 239 282 356 431
#     4   9  21  41  66  97 136 175 229 294 354 417
#
# _framework density 21.408370000000001
#
# number of rings (size 3 to 8) (size 9 to 14) (size 15 to 20)
#    0.000    1.714    2.857    2.571    0.000    2.857 
#    2.571    2.857    0.000    0.857    0.000    0.000 
#    0.000    0.000    0.000    0.000    0.000    0.000 
#
# Total GULP energy -155875.411040 kJ/mol
# GULP energy per Si atom -5566.978966 kJ/mol
# Density = 2.135964 g / cm^3
# Si number density = 21.408370 Si / 1000 Ang^3
#
#
#
# Elastic Constant Matrix: (Units=GPa)
#
#
# Indices 1 2 3 4 5 6 
#
# 1 81.3678 37.3792 40.6613 0.0000 0.0000 0.0000
# 2 37.3792 76.9354 53.5398 0.0000 0.0000 0.0000
# 3 40.6613 53.5398 137.0804 0.0000 0.0000 0.0000
# 4 0.0000 0.0000 0.0000 26.0457 0.0000 0.0000
# 5 0.0000 0.0000 0.0000 0.0000 25.4056 0.0000
# 6 0.0000 0.0000 0.0000 0.0000 0.0000 23.3004
#
#
#
# Elastic Compliance Matrix: (Units=1/GPa)
#
#
# Indices 1 2 3 4 5 6 
#
# 1 0.016378 -0.006285 -0.002403 0.000000 0.000000 0.000000
# 2 -0.006285 0.020261 -0.006049 0.000000 0.000000 0.000000
# 3 -0.002403 -0.006049 0.010371 0.000000 0.000000 0.000000
# 4 0.000000 0.000000 0.000000 0.038394 0.000000 0.000000
# 5 0.000000 0.000000 0.000000 0.000000 0.039361 0.000000
# 6 0.000000 0.000000 0.000000 0.000000 0.000000 0.042918
#
#
# Mechanical properties :
#
#
# Convention : Reuss Voigt Hill
#
# Bulk Modulus (GPa) = 57.02922 62.06046 59.54484
# Shear Modulus (GPa) = 24.63023 25.87056 25.25039
#
# Velocity S-wave (km/s) = 3.39557 3.48002 3.43806
# Velocity P-wave (km/s) = 6.48613 6.72304 6.60564
#
# Compressibility (1/GPa) = 0.01753487
#
# Stress axis : x y z
#
# Youngs Moduli (GPa) = 61.05730 49.35582 96.42666
#
# Poissons Ratio (x) = 0.31019 0.23176
# Poissons Ratio (y) = 0.38373 0.58331
# Poissons Ratio (z) = 0.14675 0.29856
#
# Static dielectric constant tensor:
#      x y z
#    x 1.900490 0.000000 0.000000 
#    y 0.000000 1.842090 0.000000 
#    z 0.000000 0.000000 1.821100 
# 
# From -- ./inp_files/25798.got.cif
#   From: 2010.05.17/outbox.cif.g08.bks.cpg/sg24_13_cif.got.tgz:25798.got - 2010.06.04 00:33:39.
