data_PCOD9333336
_publ_section_title
;
Structure prediction by ZEFSAII (Michael W. Deem and Ramdas Pophale) SiO2 
 PCOD9333336
Probable space group: I 21 21 21
;
_chemical_formula_sum "Si O2"
_cell_formula_units_Z 64
_cell_length_a 33.191071
_cell_length_b 5.023384
_cell_length_c 14.588471
_cell_angle_alpha 90.000000
_cell_angle_beta 90.000000
_cell_angle_gamma 90.000000
_cell_volume 2432.357580
_symmetry_space_group_name_H-M "I 21 21 21"
_symmetry_group_IT_number 24
_symmetry_cell_setting 'orthorhombic'
loop_
_space_group_symop_operation_xyz
x,y,z
-x,1/2-y,z
x,-y,1/2-z
1/2-x,y,-z
1/2+x,1/2+y,1/2+z
1/2-x,-y,1/2+z
1/2+x,1/2-y,-z
-x,1/2+y,1/2-z
loop_
_atom_site_type_symbol
_atom_site_label
_atom_site_fract_x
_atom_site_fract_y
_atom_site_fract_z
Si Si1 0.991629 0.497634 0.917980
Si Si2 0.201628 0.841948 0.918311
Si Si3 0.246555 0.668338 0.611123
Si Si4 0.826649 0.439016 0.118245
Si Si5 0.526328 0.997071 0.881125
Si Si6 0.596964 0.579305 0.063801
Si Si7 0.869336 0.964723 0.645732
Si Si8 0.380265 0.403783 0.617521
O O1 0.946996 0.473820 0.955525
O O2 0.000000 0.250000 0.858230
O O3 0.000000 0.750000 0.861142
O O4 0.020962 0.510383 0.007238
O O5 0.237029 0.644238 0.881253
O O6 0.165168 0.638636 0.902940
O O7 0.210496 0.122036 0.867601
O O8 0.307158 0.929297 0.975699
O O9 0.250000 0.686675 0.500000
O O10 0.286979 0.784405 0.655996
O O11 0.850072 0.688786 0.167571
O O12 0.857287 0.185832 0.101869
O O13 0.500000 0.250000 0.853207
O O14 0.500000 0.750000 0.848213
O O15 0.573522 0.977481 0.854211
O O16 0.621603 0.328868 0.106509
O O17 0.593678 0.830735 0.131626
O O18 0.611396 0.716221 0.970428
O O19 0.857990 0.000000 0.750000
#
# Coordination Sequence:
#
# PCOD9333336 Si02
#       8
#     8   8   8   8   8   8   8   8
#     4  10  19  31  50  71  85 113 152 198 240 305
#     4  11  21  36  54  68  96 128 149 186 242 295
#     4  10  20  34  50  75  99 122 149 179 229 304
#     4  11  22  32  50  77 104 121 151 190 241 312
#     4  10  19  29  44  69  95 117 157 197 230 291
#     4  12  23  37  55  71  92 121 154 206 261 299
#     4  12  27  41  55  74  94 121 166 210 255 312
#     4  12  21  32  50  78  98 124 154 195 254 295
#
# _framework density 26.311920000000001
#
# number of rings (size 3 to 8) (size 9 to 14) (size 15 to 20)
#    0.000    1.000    3.750    6.750    5.250    0.000 
#    0.000    0.000    0.000    7.500    0.000    0.000 
#    0.000    0.000    0.000    0.000    0.000    0.000 
#
# Total GULP energy -178164.672102 kJ/mol
# GULP energy per Si atom -5567.646003 kJ/mol
# Density = 2.625203 g / cm^3
# Si number density = 26.311920 Si / 1000 Ang^3
#
#
#
# Elastic Constant Matrix: (Units=GPa)
#
#
# Indices 1 2 3 4 5 6 
#
# 1 153.3129 68.0304 1.0091 0.0000 0.0000 0.0000
# 2 68.0304 272.8485 27.6533 0.0000 0.0000 0.0000
# 3 1.0091 27.6533 57.0795 0.0000 0.0000 0.0000
# 4 0.0000 0.0000 0.0000 -8.5051 0.0000 0.0000
# 5 0.0000 0.0000 0.0000 0.0000 19.3663 0.0000
# 6 0.0000 0.0000 0.0000 0.0000 0.0000 57.3211
#
#
#
# Elastic Compliance Matrix: (Units=1/GPa)
#
#
# Indices 1 2 3 4 5 6 
#
# 1 0.007369 -0.001918 0.000799 0.000000 0.000000 0.000000
# 2 -0.001918 0.004354 -0.002075 0.000000 0.000000 0.000000
# 3 0.000799 -0.002075 0.018511 0.000000 0.000000 0.000000
# 4 0.000000 0.000000 0.000000 -0.117576 0.000000 0.000000
# 5 0.000000 0.000000 0.000000 0.000000 0.051636 0.000000
# 6 0.000000 0.000000 0.000000 0.000000 0.000000 0.017446
#
#
# Mechanical properties :
#
#
# Convention : Reuss Voigt Hill
#
# Bulk Modulus (GPa) = 41.93933 75.18073 58.56003
# Shear Modulus (GPa) = -1273.93719 39.40631 -617.26544
#
# Velocity S-wave (km/s) = -22.02767 3.87416 -15.33312
# Velocity P-wave (km/s) = 25.11939 6.97474 17.06366
#
# Compressibility (1/GPa) = 0.02384397
#
# Stress axis : x y z
#
# Youngs Moduli (GPa) = 135.71235 229.69259 54.02274
#
# Poissons Ratio (x) = 0.44060 -0.04317
# Poissons Ratio (y) = 0.26032 0.11211
# Poissons Ratio (z) = -0.10844 0.47668
#
# Static dielectric constant tensor:
#      x y z
#    x 2.385580 0.000000 0.000000 
#    y 0.000000 2.352580 0.000000 
#    z 0.000000 0.000000 2.229870 
# 
# From -- ./inp_files/31754.got.cif
#   From: 2010.05.17/outbox.cif.g08.bks.cpg/sg24_16_cif.got.tgz:31754.got - 2010.06.04 00:33:39.
