data_PCOD9333682
_publ_section_title
;
Structure prediction by ZEFSAII (Michael W. Deem and Ramdas Pophale) SiO2 
 PCOD9333682
Probable space group: I 21 21 21
;
_chemical_formula_sum "Si O2"
_cell_formula_units_Z 48
_cell_length_a 9.476176
_cell_length_b 15.159689
_cell_length_c 15.457972
_cell_angle_alpha 90.000000
_cell_angle_beta 90.000000
_cell_angle_gamma 90.000000
_cell_volume 2220.628587
_symmetry_space_group_name_H-M "I 21 21 21"
_symmetry_group_IT_number 24
_symmetry_cell_setting 'orthorhombic'
loop_
_space_group_symop_operation_xyz
x,y,z
-x,1/2-y,z
x,-y,1/2-z
1/2-x,y,-z
1/2+x,1/2+y,1/2+z
1/2-x,-y,1/2+z
1/2+x,1/2-y,-z
-x,1/2+y,1/2-z
loop_
_atom_site_type_symbol
_atom_site_label
_atom_site_fract_x
_atom_site_fract_y
_atom_site_fract_z
Si Si1 0.526763 0.902768 0.094849
Si Si2 0.500000 0.250000 0.523851
Si Si3 0.615818 0.331670 0.253756
Si Si4 0.750000 0.982296 0.500000
Si Si5 0.611511 0.135923 0.858166
Si Si6 0.698356 0.811743 0.827688
Si Si7 0.201663 0.163331 0.097016
O O1 0.432415 0.909218 0.181567
O O2 0.665638 0.860705 0.137839
O O3 0.447176 0.827451 0.038953
O O4 0.602845 0.970700 0.030327
O O5 0.605636 0.202650 0.588449
O O6 0.500000 0.250000 0.246375
O O7 0.753045 0.283580 0.293485
O O8 0.668403 0.360353 0.159874
O O9 0.706739 0.929443 0.586216
O O10 0.633415 0.138055 0.754637
O O11 0.447487 0.119327 0.879074
O O12 0.663211 0.232802 0.890329
O O13 0.250000 0.146238 0.000000
#
# Coordination Sequence:
#
# PCOD9333682 Si02
#       7
#     8   4   8   4   8   8   8
#     4  11  22  36  63  97 132 177 216 280 333 397
#     4  12  18  36  62  94 130 166 234 264 320 392
#     4   9  19  34  60 100 125 159 228 280 326 373
#     4  12  24  44  64 102 140 176 220 268 364 414
#     4  10  23  39  64  97 133 174 215 282 334 410
#     4  10  19  36  60  92 124 167 222 274 315 383
#     4  10  20  38  67  99 121 174 233 278 323 390
#
# _framework density 21.615500999999998
#
# number of rings (size 3 to 8) (size 9 to 14) (size 15 to 20)
#    0.000    1.667    5.000    2.000    2.333    2.000 
#    0.000    0.000    3.667    0.000    8.667    0.000 
#    0.000    0.000    0.000    0.000    0.000    0.000 
#
# Total GULP energy -133678.557621 kJ/mol
# GULP energy per Si atom -5569.939901 kJ/mol
# Density = 2.156630 g / cm^3
# Si number density = 21.615501 Si / 1000 Ang^3
#
#
#
# Elastic Constant Matrix: (Units=GPa)
#
#
# Indices 1 2 3 4 5 6 
#
# 1 55.1861 8.7050 56.8394 0.0000 0.0000 0.0000
# 2 8.7050 33.3982 21.8265 0.0000 0.0000 0.0000
# 3 56.8394 21.8265 177.5391 0.0000 0.0000 0.0000
# 4 0.0000 0.0000 0.0000 33.5657 0.0000 0.0000
# 5 0.0000 0.0000 0.0000 0.0000 52.0836 0.0000
# 6 0.0000 0.0000 0.0000 0.0000 0.0000 19.8976
#
#
#
# Elastic Compliance Matrix: (Units=1/GPa)
#
#
# Indices 1 2 3 4 5 6 
#
# 1 0.027106 -0.001515 -0.008492 0.000000 0.000000 0.000000
# 2 -0.001515 0.032642 -0.003528 0.000000 0.000000 0.000000
# 3 -0.008492 -0.003528 0.008785 0.000000 0.000000 0.000000
# 4 0.000000 0.000000 0.000000 0.029792 0.000000 0.000000
# 5 0.000000 0.000000 0.000000 0.000000 0.019200 0.000000
# 6 0.000000 0.000000 0.000000 0.000000 0.000000 0.050257
#
#
# Mechanical properties :
#
#
# Convention : Reuss Voigt Hill
#
# Bulk Modulus (GPa) = 24.11792 48.98501 36.55146
# Shear Modulus (GPa) = 23.96096 33.02621 28.49359
#
# Velocity S-wave (km/s) = 3.33304 3.91307 3.63464
# Velocity P-wave (km/s) = 5.09844 6.56714 5.87884
#
# Compressibility (1/GPa) = 0.04146294
#
# Stress axis : x y z
#
# Youngs Moduli (GPa) = 36.89285 30.63519 113.83226
#
# Poissons Ratio (x) = 0.04643 0.96661
# Poissons Ratio (y) = 0.05591 0.40158
# Poissons Ratio (z) = 0.31328 0.10808
#
# Static dielectric constant tensor:
#      x y z
#    x 1.766040 0.000000 0.000000 
#    y 0.000000 1.817160 0.000000 
#    z 0.000000 0.000000 1.821320 
# 
# From -- ./inp_files/12876.got.cif
#   From: 2010.05.17/outbox.cif.g08.bks.cpg/sg24_7_cif.got.tgz:12876.got - 2010.06.04 00:33:39.
