data_PCOD9333162
_publ_section_title
;
Structure prediction by ZEFSAII (Michael W. Deem and Ramdas Pophale) SiO2 
 PCOD9333162
Probable space group: I 21 21 21
;
_chemical_formula_sum "Si O2"
_cell_formula_units_Z 60
_cell_length_a 8.767922
_cell_length_b 10.225078
_cell_length_c 31.078450
_cell_angle_alpha 90.000000
_cell_angle_beta 90.000000
_cell_angle_gamma 90.000000
_cell_volume 2786.266530
_symmetry_space_group_name_H-M "I 21 21 21"
_symmetry_group_IT_number 24
_symmetry_cell_setting 'orthorhombic'
loop_
_space_group_symop_operation_xyz
x,y,z
-x,1/2-y,z
x,-y,1/2-z
1/2-x,y,-z
1/2+x,1/2+y,1/2+z
1/2-x,-y,1/2+z
1/2+x,1/2-y,-z
-x,1/2+y,1/2-z
loop_
_atom_site_type_symbol
_atom_site_label
_atom_site_fract_x
_atom_site_fract_y
_atom_site_fract_z
Si Si1 0.435836 0.059491 0.704599
Si Si2 0.823791 0.527245 0.046302
Si Si3 0.827574 0.730102 0.590152
Si Si4 0.115031 0.626532 0.464770
Si Si5 0.364258 0.826117 0.111407
Si Si6 0.762272 0.179045 0.307395
Si Si7 0.350406 0.073498 0.168706
Si Si8 0.046816 0.500000 0.750000
O O1 0.591721 0.091857 0.680791
O O2 0.337432 0.190802 0.713095
O O3 0.479469 0.000000 0.750000
O O4 0.322487 0.967316 0.678973
O O5 0.744378 0.396084 0.066167
O O6 0.774090 0.637698 0.080076
O O7 0.001589 0.495069 0.040195
O O8 0.750000 0.552112 0.000000
O O9 0.710597 0.843975 0.578412
O O10 0.841523 0.703738 0.640859
O O11 0.000000 0.750000 0.574136
O O12 0.250000 0.617433 0.500000
O O13 0.000000 0.750000 0.473475
O O14 0.500000 0.750000 0.087725
O O15 0.317953 0.730764 0.150082
O O16 0.412076 0.961048 0.135820
O O17 0.650482 0.105224 0.275034
O O18 0.443219 0.066721 0.212984
#
# Coordination Sequence:
#
# PCOD9333162 Si02
#       8
#     8   8   8   8   8   8   8   4
#     4  10  20  39  60  84 124 163 210 272 331 394
#     4  10  21  38  70  98 130 175 221 268 335 418
#     4  10  20  37  59  98 138 170 214 272 337 394
#     4  10  18  34  66  98 135 181 215 265 332 418
#     4  10  20  41  68  91 128 169 216 286 338 383
#     4  10  22  37  66  91 119 167 222 275 340 397
#     4  10  22  36  62  91 126 172 216 275 331 393
#     4  12  20  38  64  98 118 170 248 268 338 410
#
# _framework density 21.534193999999999
#
# number of rings (size 3 to 8) (size 9 to 14) (size 15 to 20)
#    0.000    1.867    2.667    2.800    0.000    1.067 
#    0.000    8.000   46.933    0.000    0.000    0.000 
#    0.000    0.000    0.000    0.000    0.000    0.000 
#
# Total GULP energy -167492.130942 kJ/mol
# GULP energy per Si atom -5583.071031 kJ/mol
# Density = 2.148518 g / cm^3
# Si number density = 21.534194 Si / 1000 Ang^3
#
#
#
# Elastic Constant Matrix: (Units=GPa)
#
#
# Indices 1 2 3 4 5 6 
#
# 1 152.6476 46.7462 56.4984 0.0000 0.0000 0.0000
# 2 46.7462 29.7654 37.7665 0.0000 0.0000 0.0000
# 3 56.4984 37.7665 115.3861 0.0000 0.0000 0.0000
# 4 0.0000 0.0000 0.0000 -94.5011 0.0000 0.0000
# 5 0.0000 0.0000 0.0000 0.0000 -0.0683 0.0000
# 6 0.0000 0.0000 0.0000 0.0000 0.0000 25.9455
#
#
#
# Elastic Compliance Matrix: (Units=1/GPa)
#
#
# Indices 1 2 3 4 5 6 
#
# 1 0.012640 -0.020519 0.000527 0.000000 0.000000 0.000000
# 2 -0.020519 0.090769 -0.019662 0.000000 -0.000001 0.000000
# 3 0.000527 -0.019662 0.014844 0.000000 0.000000 0.000000
# 4 0.000000 0.000000 0.000000 -0.010582 0.000000 0.000000
# 5 0.000000 -0.000001 0.000000 0.000000-14.649686 0.000000
# 6 0.000000 0.000000 0.000000 0.000000 0.000000 0.038542
#
#
# Mechanical properties :
#
#
# Convention : Reuss Voigt Hill
#
# Bulk Modulus (GPa) = 25.67786 64.42458 45.05122
# Shear Modulus (GPa) = -0.34695 -3.27225 -1.80960
#
# Velocity S-wave (km/s) = -0.40183 -1.23404 -0.91769
# Velocity P-wave (km/s) = 3.42561 5.28695 4.45458
#
# Compressibility (1/GPa) = 0.03894405
#
# Stress axis : x y z
#
# Youngs Moduli (GPa) = 79.11595 11.01703 67.36766
#
# Poissons Ratio (x) = 0.22606 -0.03551
# Poissons Ratio (y) = 1.62340 1.32458
# Poissons Ratio (z) = -0.04170 0.21662
#
# Static dielectric constant tensor:
#      x y z
#    x 2.209670 0.000000 0.000000 
#    y 0.000000 1.841690 0.000000 
#    z 0.000000 0.000000 1.778170 
# 
# From -- ./inp_files/38406.got.cif
#   From: 2010.05.17/outbox.cif.g08.bks.cpg/sg24_20_cif.got.tgz:38406.got - 2010.06.04 00:33:39.
