data_PCOD9333679
_publ_section_title
;
Structure prediction by ZEFSAII (Michael W. Deem and Ramdas Pophale) SiO2 
 PCOD9333679
Probable space group: I 21 21 21
;
_chemical_formula_sum "Si O2"
_cell_formula_units_Z 64
_cell_length_a 9.438764
_cell_length_b 16.200940
_cell_length_c 19.933711
_cell_angle_alpha 90.000000
_cell_angle_beta 90.000000
_cell_angle_gamma 90.000000
_cell_volume 3048.200280
_symmetry_space_group_name_H-M "I 21 21 21"
_symmetry_group_IT_number 24
_symmetry_cell_setting 'orthorhombic'
loop_
_space_group_symop_operation_xyz
x,y,z
-x,1/2-y,z
x,-y,1/2-z
1/2-x,y,-z
1/2+x,1/2+y,1/2+z
1/2-x,-y,1/2+z
1/2+x,1/2-y,-z
-x,1/2+y,1/2-z
loop_
_atom_site_type_symbol
_atom_site_label
_atom_site_fract_x
_atom_site_fract_y
_atom_site_fract_z
Si Si1 0.605419 0.930102 0.480672
Si Si2 0.151827 0.002856 0.909360
Si Si3 0.166494 0.731498 0.598650
Si Si4 0.982527 0.901363 0.259781
Si Si5 0.801394 0.202536 0.749437
Si Si6 0.763586 0.359841 0.324890
Si Si7 0.043816 0.080610 0.774909
Si Si8 0.894950 0.631415 0.410658
O O1 0.750000 0.975673 0.500000
O O2 0.482885 0.992619 0.457541
O O3 0.666026 0.863066 0.426511
O O4 0.527565 0.877796 0.539429
O O5 0.086783 0.060906 0.849809
O O6 0.292301 0.053991 0.925846
O O7 0.204544 0.911857 0.887639
O O8 0.193304 0.745827 0.677830
O O9 0.294593 0.789562 0.572333
O O10 0.000000 0.750000 0.585410
O O11 0.073967 0.866628 0.197128
O O12 0.049519 0.875423 0.333016
O O13 0.828586 0.860610 0.254387
O O14 0.979243 0.000000 0.250000
O O15 0.781986 0.265928 0.688563
O O16 0.948878 0.155278 0.751611
O O17 0.688120 0.411411 0.265489
O O18 0.961927 0.000000 0.750000
#
# Coordination Sequence:
#
# PCOD9333679 Si02
#       8
#     8   8   8   8   8   8   8   8
#     4  12  28  41  60  90 131 172 234 277 321 393
#     4  11  21  41  62  85 123 178 221 266 320 394
#     4  12  24  38  60  90 131 177 223 267 318 401
#     4  12  23  40  60  92 134 172 220 273 334 396
#     4  12  22  36  59  94 134 168 209 270 335 387
#     4  11  21  38  62  87 126 172 217 263 325 400
#     4  10  19  36  60  87 125 165 205 253 325 394
#     4  12  24  41  63  88 130 182 224 261 331 392
#
# _framework density 20.995996000000002
#
# number of rings (size 3 to 8) (size 9 to 14) (size 15 to 20)
#    0.000    0.500    6.250    3.375    1.750    1.000 
#    0.000    0.000    0.000    0.000    0.000    0.000 
#   30.000    0.000    0.000    0.000    0.000    0.000 
#
# Total GULP energy -178362.279921 kJ/mol
# GULP energy per Si atom -5573.821248 kJ/mol
# Density = 2.094821 g / cm^3
# Si number density = 20.995996 Si / 1000 Ang^3
#
#
#
# Elastic Constant Matrix: (Units=GPa)
#
#
# Indices 1 2 3 4 5 6 
#
# 1 129.5810 10.1025 23.5254 0.0000 0.0000 0.0000
# 2 10.1025 66.8471 11.6134 0.0000 0.0000 0.0000
# 3 23.5254 11.6134 40.8917 0.0000 0.0000 0.0000
# 4 0.0000 0.0000 0.0000 15.0832 0.0000 0.0000
# 5 0.0000 0.0000 0.0000 0.0000 14.7036 0.0000
# 6 0.0000 0.0000 0.0000 0.0000 0.0000 19.5505
#
#
#
# Elastic Compliance Matrix: (Units=1/GPa)
#
#
# Indices 1 2 3 4 5 6 
#
# 1 0.008631 -0.000465 -0.004833 0.000000 0.000000 0.000000
# 2 -0.000465 0.015761 -0.004209 0.000000 0.000000 0.000000
# 3 -0.004833 -0.004209 0.028431 0.000000 0.000000 0.000000
# 4 0.000000 0.000000 0.000000 0.066299 0.000000 0.000000
# 5 0.000000 0.000000 0.000000 0.000000 0.068010 0.000000
# 6 0.000000 0.000000 0.000000 0.000000 0.000000 0.051150
#
#
# Mechanical properties :
#
#
# Convention : Reuss Voigt Hill
#
# Bulk Modulus (GPa) = 29.57808 36.42248 33.00028
# Shear Modulus (GPa) = 18.61745 22.67271 20.64508
#
# Velocity S-wave (km/s) = 2.98101 3.28969 3.13914
# Velocity P-wave (km/s) = 5.09574 5.64042 5.37499
#
# Compressibility (1/GPa) = 0.03380882
#
# Stress axis : x y z
#
# Youngs Moduli (GPa) = 115.86246 63.44799 35.17296
#
# Poissons Ratio (x) = 0.02948 0.17001
# Poissons Ratio (y) = 0.05384 0.14804
# Poissons Ratio (z) = 0.56002 0.26704
#
# Static dielectric constant tensor:
#      x y z
#    x 1.768420 0.000000 0.000000 
#    y 0.000000 1.897530 0.000000 
#    z 0.000000 0.000000 1.851490 
# 
# From -- ./inp_files/32945.got.cif
#   From: 2010.05.17/outbox.cif.g08.bks.cpg/sg24_17_cif.got.tgz:32945.got - 2010.06.04 00:33:39.
