data_PCOD9333717
_publ_section_title
;
Structure prediction by ZEFSAII (Michael W. Deem and Ramdas Pophale) SiO2 
 PCOD9333717
Probable space group: I 21 21 21
;
_chemical_formula_sum "Si O2"
_cell_formula_units_Z 48
_cell_length_a 13.698540
_cell_length_b 18.506181
_cell_length_c 8.748948
_cell_angle_alpha 90.000000
_cell_angle_beta 90.000000
_cell_angle_gamma 90.000000
_cell_volume 2217.925341
_symmetry_space_group_name_H-M "I 21 21 21"
_symmetry_group_IT_number 24
_symmetry_cell_setting 'orthorhombic'
loop_
_space_group_symop_operation_xyz
x,y,z
-x,1/2-y,z
x,-y,1/2-z
1/2-x,y,-z
1/2+x,1/2+y,1/2+z
1/2-x,-y,1/2+z
1/2+x,1/2-y,-z
-x,1/2+y,1/2-z
loop_
_atom_site_type_symbol
_atom_site_label
_atom_site_fract_x
_atom_site_fract_y
_atom_site_fract_z
Si Si1 0.250000 0.961979 0.000000
Si Si2 0.060426 0.607863 0.860615
Si Si3 0.143748 0.243020 0.780278
Si Si4 0.109264 0.159686 0.466162
Si Si5 0.250000 0.597598 0.000000
Si Si6 0.099384 0.000000 0.750000
Si Si7 0.349939 0.294423 0.742929
Si Si8 0.000000 0.250000 0.034272
O O1 0.321970 0.905649 0.913082
O O2 0.325658 0.003811 0.107733
O O3 0.094694 0.681642 0.779100
O O4 0.157667 0.563684 0.910122
O O5 0.999768 0.631797 0.010365
O O6 0.977571 0.565121 0.768685
O O7 0.142835 0.190106 0.633426
O O8 0.252979 0.263581 0.824130
O O9 0.080131 0.215485 0.921330
O O10 0.114615 0.227682 0.358890
O O11 0.305277 0.645954 0.871671
O O12 0.437109 0.305953 0.863064
#
# Coordination Sequence:
#
# PCOD9333717 Si02
#       8
#     4   8   8   8   4   4   8   4
#     4  10  21  42  66  94 124 169 234 274 328 406
#     4  10  20  36  65  85 125 165 217 267 331 392
#     4  11  20  37  55  90 131 163 201 272 351 398
#     4  11  17  37  67  89 116 170 225 276 317 403
#     4  10  19  36  66  86 118 171 228 278 304 416
#     4  10  24  42  66  94 126 172 222 280 334 390
#     4  11  20  34  58  93 121 164 218 259 334 410
#     4  12  24  30  50  92 142 162 186 264 362 416
#
# _framework density 21.641846999999999
#
# number of rings (size 3 to 8) (size 9 to 14) (size 15 to 20)
#    0.000    1.333    6.667    1.500    0.000    0.000 
#    3.000    0.000    7.333    1.000    0.000    0.000 
#    0.000    0.000    0.000    0.000    0.000    0.000 
#
# Total GULP energy -133710.801808 kJ/mol
# GULP energy per Si atom -5571.283409 kJ/mol
# Density = 2.159259 g / cm^3
# Si number density = 21.641847 Si / 1000 Ang^3
#
#
#
# Elastic Constant Matrix: (Units=GPa)
#
#
# Indices 1 2 3 4 5 6 
#
# 1 186.5376 33.7534 51.9859 0.0000 0.0000 0.0000
# 2 33.7534 40.3764 14.1965 0.0000 0.0000 0.0000
# 3 51.9859 14.1965 83.1838 0.0000 0.0000 0.0000
# 4 0.0000 0.0000 0.0000 8.6617 0.0000 0.0000
# 5 0.0000 0.0000 0.0000 0.0000 54.2255 0.0000
# 6 0.0000 0.0000 0.0000 0.0000 0.0000 34.7227
#
#
#
# Elastic Compliance Matrix: (Units=1/GPa)
#
#
# Indices 1 2 3 4 5 6 
#
# 1 0.007260 -0.004760 -0.003725 0.000000 0.000000 0.000000
# 2 -0.004760 0.029468 -0.002055 0.000000 0.000000 0.000000
# 3 -0.003725 -0.002055 0.014700 0.000000 0.000000 0.000000
# 4 0.000000 0.000000 0.000000 0.115450 0.000000 0.000000
# 5 0.000000 0.000000 0.000000 0.000000 0.018442 0.000000
# 6 0.000000 0.000000 0.000000 0.000000 0.000000 0.028800
#
#
# Mechanical properties :
#
#
# Convention : Reuss Voigt Hill
#
# Bulk Modulus (GPa) = 32.94877 56.66327 44.80602
# Shear Modulus (GPa) = 20.38194 33.53278 26.95736
#
# Velocity S-wave (km/s) = 3.07218 3.94057 3.53315
# Velocity P-wave (km/s) = 5.27655 6.85151 6.11495
#
# Compressibility (1/GPa) = 0.03035014
#
# Stress axis : x y z
#
# Youngs Moduli (GPa) = 137.73743 33.93486 68.02640
#
# Poissons Ratio (x) = 0.16152 0.25340
# Poissons Ratio (y) = 0.65557 0.13977
# Poissons Ratio (z) = 0.51307 0.06972
#
# Static dielectric constant tensor:
#      x y z
#    x 1.886150 0.000000 0.000000 
#    y 0.000000 1.803930 0.000000 
#    z 0.000000 0.000000 1.891690 
# 
# From -- ./inp_files/13038.got.cif
#   From: 2010.05.17/outbox.cif.g08.bks.cpg/sg24_7_cif.got.tgz:13038.got - 2010.06.04 00:33:39.
