data_PCOD9333321
_publ_section_title
;
Structure prediction by ZEFSAII (Michael W. Deem and Ramdas Pophale) SiO2 
 PCOD9333321
Probable space group: I 21 21 21
;
_chemical_formula_sum "Si O2"
_cell_formula_units_Z 40
_cell_length_a 8.990914
_cell_length_b 16.231685
_cell_length_c 12.711756
_cell_angle_alpha 90.000000
_cell_angle_beta 90.000000
_cell_angle_gamma 90.000000
_cell_volume 1855.124229
_symmetry_space_group_name_H-M "I 21 21 21"
_symmetry_group_IT_number 24
_symmetry_cell_setting 'orthorhombic'
loop_
_space_group_symop_operation_xyz
x,y,z
-x,1/2-y,z
x,-y,1/2-z
1/2-x,y,-z
1/2+x,1/2+y,1/2+z
1/2-x,-y,1/2+z
1/2+x,1/2-y,-z
-x,1/2+y,1/2-z
loop_
_atom_site_type_symbol
_atom_site_label
_atom_site_fract_x
_atom_site_fract_y
_atom_site_fract_z
Si Si1 0.494037 0.985831 0.083212
Si Si2 0.416442 0.667385 0.953717
Si Si3 0.072465 0.670434 0.507446
Si Si4 0.737581 0.500000 0.750000
Si Si5 0.730144 0.000000 0.250000
Si Si6 0.476612 0.625135 0.718859
O O1 0.341419 0.988353 0.148055
O O2 0.622532 0.959042 0.165502
O O3 0.532279 0.080070 0.052752
O O4 0.504501 0.917835 0.991762
O O5 0.500000 0.750000 0.991421
O O6 0.423883 0.667697 0.826507
O O7 0.250000 0.667655 0.000000
O O8 0.250000 0.680086 0.500000
O O9 0.000000 0.750000 0.564542
O O10 0.004160 0.669669 0.390640
O O11 0.628587 0.577320 0.740523
O O12 0.841575 0.937769 0.305542
#
# Coordination Sequence:
#
# PCOD9333321 Si02
#       6
#     8   8   8   4   4   8
#     4  11  23  47  73  96 142 184 230 275 350 417
#     4  12  27  46  73 103 138 185 233 286 347 415
#     4  12  27  46  73 103 138 185 233 286 347 415
#     4  10  26  40  74 110 136 182 230 294 334 408
#     4  10  18  42  72 100 122 186 232 270 336 414
#     4  11  23  44  69 101 144 173 233 291 339 402
#
# _framework density 21.561899
#
# number of rings (size 3 to 8) (size 9 to 14) (size 15 to 20)
#    0.000    0.800    4.000    3.600    5.600    1.600 
#    0.000    5.000    0.000    0.000    0.000    0.000 
#    0.000    0.000    0.000    0.000    0.000    0.000 
#
# Total GULP energy -111707.568202 kJ/mol
# GULP energy per Si atom -5585.378410 kJ/mol
# Density = 2.151282 g / cm^3
# Si number density = 21.561899 Si / 1000 Ang^3
#
#
#
# Elastic Constant Matrix: (Units=GPa)
#
#
# Indices 1 2 3 4 5 6 
#
# 1 147.7652 47.9957 25.4205 0.0000 0.0000 0.0000
# 2 47.9957 106.1696 -2.1526 0.0000 0.0000 0.0001
# 3 25.4205 -2.1526 51.4299 0.0000 0.0000 0.0001
# 4 0.0000 0.0000 0.0000 -1.9503 0.0000 0.0000
# 5 0.0000 0.0000 0.0000 0.0000 20.0305 -0.0002
# 6 0.0000 0.0001 0.0001 0.0000 -0.0002 -210.0156
#
#
#
# Elastic Compliance Matrix: (Units=1/GPa)
#
#
# Indices 1 2 3 4 5 6 
#
# 1 0.008888 -0.004111 -0.004565 0.000000 0.000000 0.000000
# 2 -0.004111 0.011328 0.002506 0.000000 0.000000 0.000000
# 3 -0.004565 0.002506 0.021805 0.000000 0.000000 0.000000
# 4 0.000000 0.000000 0.000000 -0.512742 0.000000 0.000000
# 5 0.000000 0.000000 0.000000 0.000000 0.049924 0.000000
# 6 0.000000 0.000000 0.000000 0.000000 0.000000 -0.004762
#
#
# Mechanical properties :
#
#
# Convention : Reuss Voigt Hill
#
# Bulk Modulus (GPa) = 33.69099 49.76579 41.72839
# Shear Modulus (GPa) = -12.39694 -22.78035 -17.58865
#
# Velocity S-wave (km/s) = -2.40041 -3.25393 -2.85919
# Velocity P-wave (km/s) = 2.82428 3.00219 2.91459
#
# Compressibility (1/GPa) = 0.02968153
#
# Stress axis : x y z
#
# Youngs Moduli (GPa) = 112.51127 88.27737 45.86048
#
# Poissons Ratio (x) = 0.36287 0.20936
# Poissons Ratio (y) = 0.46248 -0.11492
# Poissons Ratio (z) = 0.51363 -0.22121
#
# Static dielectric constant tensor:
#      x y z
#    x 1.736310 0.000000 0.000000 
#    y 0.000000 1.637140 0.000000 
#    z 0.000000 0.000000 3.646570 
# 
# From -- ./inp_files/18252.got.cif
#   From: 2010.05.17/outbox.cif.g08.bks.cpg/sg24_10_cif.got.tgz:18252.got - 2010.06.04 00:33:39.
