data_PCOD9333767
_publ_section_title
;
Structure prediction by ZEFSAII (Michael W. Deem and Ramdas Pophale) SiO2 
 PCOD9333767
Probable space group: I 21 21 21
;
_chemical_formula_sum "Si O2"
_cell_formula_units_Z 56
_cell_length_a 9.267584
_cell_length_b 19.347079
_cell_length_c 14.895252
_cell_angle_alpha 90.000000
_cell_angle_beta 90.000000
_cell_angle_gamma 90.000000
_cell_volume 2670.728809
_symmetry_space_group_name_H-M "I 21 21 21"
_symmetry_group_IT_number 24
_symmetry_cell_setting 'orthorhombic'
loop_
_space_group_symop_operation_xyz
x,y,z
-x,1/2-y,z
x,-y,1/2-z
1/2-x,y,-z
1/2+x,1/2+y,1/2+z
1/2-x,-y,1/2+z
1/2+x,1/2-y,-z
-x,1/2+y,1/2-z
loop_
_atom_site_type_symbol
_atom_site_label
_atom_site_fract_x
_atom_site_fract_y
_atom_site_fract_z
Si Si1 0.593551 0.572199 0.640238
Si Si2 0.656224 0.142976 0.243577
Si Si3 0.262248 0.455397 0.896480
Si Si4 0.858758 0.900976 0.930351
Si Si5 0.992366 0.832411 0.208045
Si Si6 0.000000 0.250000 0.887701
Si Si7 0.110259 0.074676 0.442053
Si Si8 0.750000 0.671200 0.500000
O O1 0.423257 0.563772 0.628039
O O2 0.595619 0.620111 0.728855
O O3 0.641899 0.492475 0.621474
O O4 0.670006 0.620263 0.568231
O O5 0.656326 0.077184 0.176892
O O6 0.584436 0.137253 0.341928
O O7 0.585223 0.199582 0.179759
O O8 0.824319 0.154204 0.269213
O O9 0.239763 0.536933 0.892930
O O10 0.250000 0.431609 0.000000
O O11 0.750000 0.862660 0.000000
O O12 0.985581 0.939401 0.984292
O O13 0.044095 0.860838 0.112129
O O14 0.000000 0.750000 0.218359
O O15 0.875406 0.284773 0.949910
O O16 0.250000 0.091935 0.500000
#
# Coordination Sequence:
#
# PCOD9333767 Si02
#       8
#     8   8   8   8   8   4   8   4
#     4  11  22  42  73 101 145 184 241 312 381 452
#     4  11  24  43  69 100 138 186 246 294 359 456
#     4  10  19  37  71 102 130 176 228 289 365 437
#     4  11  21  42  68 100 136 177 240 297 362 435
#     4  11  25  46  71 104 142 200 247 302 382 464
#     4  12  30  44  70 106 146 204 254 310 402 466
#     4  12  25  45  70 110 146 194 248 317 389 447
#     4  12  28  46  72 106 150 194 250 322 386 470
#
# _framework density 20.968059
#
# number of rings (size 3 to 8) (size 9 to 14) (size 15 to 20)
#    0.000    0.857    5.000    2.571    6.000    4.571 
#    3.857    1.429    0.000    0.000    0.000    0.000 
#    0.000    0.000    0.000    0.000    0.000    0.000 
#
# Total GULP energy -155976.581699 kJ/mol
# GULP energy per Si atom -5570.592204 kJ/mol
# Density = 2.092033 g / cm^3
# Si number density = 20.968059 Si / 1000 Ang^3
#
#
#
# Elastic Constant Matrix: (Units=GPa)
#
#
# Indices 1 2 3 4 5 6 
#
# 1 79.0932 36.9611 26.3638 0.0000 0.0000 0.0000
# 2 36.9611 73.5441 59.1051 0.0000 0.0000 0.0000
# 3 26.3638 59.1051 103.3206 0.0001 0.0000 0.0000
# 4 0.0000 0.0000 0.0001 -54.4445 0.0000 0.0000
# 5 0.0000 0.0000 0.0000 0.0000 35.1407 0.0000
# 6 0.0000 0.0000 0.0000 0.0000 0.0000 43.7497
#
#
#
# Elastic Compliance Matrix: (Units=1/GPa)
#
#
# Indices 1 2 3 4 5 6 
#
# 1 0.016579 -0.009129 0.000992 0.000000 0.000000 0.000000
# 2 -0.009129 0.030196 -0.014944 0.000000 0.000000 0.000000
# 3 0.000992 -0.014944 0.017974 0.000000 0.000000 0.000000
# 4 0.000000 0.000000 0.000000 -0.018367 0.000000 0.000000
# 5 0.000000 0.000000 0.000000 0.000000 0.028457 0.000000
# 6 0.000000 0.000000 0.000000 0.000000 0.000000 0.022857
#
#
# Mechanical properties :
#
#
# Convention : Reuss Voigt Hill
#
# Bulk Modulus (GPa) = 53.80358 55.64645 54.72502
# Shear Modulus (GPa) = 33.32143 13.79103 23.55623
#
# Velocity S-wave (km/s) = 3.99074 2.56738 3.35540
# Velocity P-wave (km/s) = 6.85202 5.94852 6.41619
#
# Compressibility (1/GPa) = 0.01858612
#
# Stress axis : x y z
#
# Youngs Moduli (GPa) = 60.31767 33.11747 55.63520
#
# Poissons Ratio (x) = 0.30235 -0.05520
# Poissons Ratio (y) = 0.55067 0.83141
# Poissons Ratio (z) = -0.05985 0.49491
#
# Static dielectric constant tensor:
#      x y z
#    x 2.039280 0.000000 0.000000 
#    y 0.000000 1.785200 0.000000 
#    z 0.000000 0.000000 1.867840 
# 
# From -- ./inp_files/25114.got.cif
#   From: 2010.05.17/outbox.cif.g08.bks.cpg/sg24_13_cif.got.tgz:25114.got - 2010.06.04 00:33:39.
