data_PCOD9333033
_publ_section_title
;
Structure prediction by ZEFSAII (Michael W. Deem and Ramdas Pophale) SiO2 
 PCOD9333033
Probable space group: I 21 21 21
;
_chemical_formula_sum "Si O2"
_cell_formula_units_Z 40
_cell_length_a 20.124319
_cell_length_b 5.437313
_cell_length_c 13.691287
_cell_angle_alpha 90.000000
_cell_angle_beta 90.000000
_cell_angle_gamma 90.000000
_cell_volume 1498.131036
_symmetry_space_group_name_H-M "I 21 21 21"
_symmetry_group_IT_number 24
_symmetry_cell_setting 'orthorhombic'
loop_
_space_group_symop_operation_xyz
x,y,z
-x,1/2-y,z
x,-y,1/2-z
1/2-x,y,-z
1/2+x,1/2+y,1/2+z
1/2-x,-y,1/2+z
1/2+x,1/2-y,-z
-x,1/2+y,1/2-z
loop_
_atom_site_type_symbol
_atom_site_label
_atom_site_fract_x
_atom_site_fract_y
_atom_site_fract_z
Si Si1 0.128481 0.270889 0.350596
Si Si2 0.191066 0.023954 0.586560
Si Si3 0.077670 0.753813 0.370462
Si Si4 0.763773 0.982834 0.615606
Si Si5 0.540686 0.502638 0.367636
O O1 0.100813 0.495373 0.414305
O O2 0.091632 0.261788 0.246748
O O3 0.202407 0.368301 0.338333
O O4 0.117870 0.001612 0.393081
O O5 0.250000 0.049981 0.500000
O O6 0.182295 0.304537 0.624204
O O7 0.112900 0.956878 0.583122
O O8 0.220949 0.793799 0.648548
O O9 0.000000 0.750000 0.384492
O O10 0.750000 0.947274 0.500000
O O11 0.500000 0.250000 0.393959
O O12 0.550292 0.500000 0.250000
O O13 0.500000 0.750000 0.391473
#
# Coordination Sequence:
#
# PCOD9333033 Si02
#       5
#     8   8   8   8   8
#     4  10  18  32  52  79 111 153 191 240 301 348
#     4  10  21  40  64  92 129 168 215 267 329 394
#     4  10  19  33  54  80 114 154 191 241 298 361
#     4  10  21  37  58  80 119 161 201 255 308 362
#     4  10  21  40  67  99 136 172 216 277 346 411
#
# _framework density 26.699933000000001
#
# number of rings (size 3 to 8) (size 9 to 14) (size 15 to 20)
#    0.000    2.000    0.000    5.400    0.000    0.000 
#   10.800    0.000    0.000   62.400    0.000    0.000 
#    0.000    0.000    0.000    0.000    0.000    0.000 
#
# Total GULP energy -111450.661158 kJ/mol
# GULP energy per Si atom -5572.533058 kJ/mol
# Density = 2.663916 g / cm^3
# Si number density = 26.699933 Si / 1000 Ang^3
#
#
#
# Elastic Constant Matrix: (Units=GPa)
#
#
# Indices 1 2 3 4 5 6 
#
# 1 156.3969 24.3417 18.6485 0.0000 0.0000 0.0000
# 2 24.3417 246.6210 10.9798 0.0000 0.0000 0.0000
# 3 18.6485 10.9798 114.4882 0.0000 0.0000 0.0000
# 4 0.0000 0.0000 0.0000 -0.0371 0.0000 0.0000
# 5 0.0000 0.0000 0.0000 0.0000 -56.9052 0.0000
# 6 0.0000 0.0000 0.0000 0.0000 0.0000 52.3661
#
#
#
# Elastic Compliance Matrix: (Units=1/GPa)
#
#
# Indices 1 2 3 4 5 6 
#
# 1 0.006610 -0.000607 -0.001018 0.000000 0.000000 0.000000
# 2 -0.000607 0.004128 -0.000297 0.000000 0.000000 0.000000
# 3 -0.001018 -0.000297 0.008929 0.000000 0.000000 0.000000
# 4 0.000000 0.000000 0.000000-26.938312 0.000000 0.000000
# 5 0.000000 0.000000 0.000000 0.000000 -0.017573 0.000000
# 6 0.000000 0.000000 0.000000 0.000000 0.000000 0.019096
#
#
# Mechanical properties :
#
#
# Convention : Reuss Voigt Hill
#
# Bulk Modulus (GPa) = 63.20416 69.49400 66.34908
# Shear Modulus (GPa) = -0.18582 29.98717 14.90067
#
# Velocity S-wave (km/s) = -0.26409 3.35493 2.36493
# Velocity P-wave (km/s) = 4.86111 6.41028 5.68868
#
# Compressibility (1/GPa) = 0.01582174
#
# Stress axis : x y z
#
# Youngs Moduli (GPa) = 151.28798 242.25126 111.99593
#
# Poissons Ratio (x) = 0.14706 0.11406
# Poissons Ratio (y) = 0.09184 0.03326
# Poissons Ratio (z) = 0.15408 0.07195
#
# Static dielectric constant tensor:
#      x y z
#    x 2.263610 0.000000 0.000000 
#    y 0.000000 2.085750 0.000000 
#    z 0.000000 0.000000 2.238900 
# 
# From -- ./inp_files/31302.got.cif
#   From: 2010.05.17/outbox.cif.g08.bks.cpg/sg24_16_cif.got.tgz:31302.got - 2010.06.04 00:33:39.
