data_PCOD9333922
_publ_section_title
;
Structure prediction by ZEFSAII (Michael W. Deem and Ramdas Pophale) SiO2 
 PCOD9333922
Probable space group: I 21 21 21
;
_chemical_formula_sum "Si O2"
_cell_formula_units_Z 40
_cell_length_a 11.208945
_cell_length_b 7.465658
_cell_length_c 20.235813
_cell_angle_alpha 90.000000
_cell_angle_beta 90.000000
_cell_angle_gamma 90.000000
_cell_volume 1693.376337
_symmetry_space_group_name_H-M "I 21 21 21"
_symmetry_group_IT_number 24
_symmetry_cell_setting 'orthorhombic'
loop_
_space_group_symop_operation_xyz
x,y,z
-x,1/2-y,z
x,-y,1/2-z
1/2-x,y,-z
1/2+x,1/2+y,1/2+z
1/2-x,-y,1/2+z
1/2+x,1/2-y,-z
-x,1/2+y,1/2-z
loop_
_atom_site_type_symbol
_atom_site_label
_atom_site_fract_x
_atom_site_fract_y
_atom_site_fract_z
Si Si1 0.834741 0.999845 0.645021
Si Si2 0.858322 0.000000 0.250000
Si Si3 0.369795 0.792303 0.039063
Si Si4 0.000000 0.250000 0.147231
Si Si5 0.806173 0.500000 0.750000
Si Si6 0.000000 0.750000 0.728498
Si Si7 0.262492 0.876334 0.607136
O O1 0.783452 0.827955 0.604793
O O2 0.941960 0.904554 0.684026
O O3 0.733655 0.073390 0.694881
O O4 0.878160 0.155407 0.599163
O O5 0.936191 0.879968 0.299259
O O6 0.500000 0.750000 0.004974
O O7 0.323689 0.989490 0.065868
O O8 0.250000 0.734442 0.000000
O O9 0.905765 0.355432 0.099957
O O10 0.893261 0.663096 0.767140
O O11 0.741780 0.559617 0.683910
#
# Coordination Sequence:
#
# PCOD9333922 Si02
#       7
#     8   4   8   4   4   4   8
#     4  10  23  42  63 101 138 182 233 294 359 431
#     4  10  22  36  64 104 144 190 228 282 362 438
#     4  12  29  49  74 103 139 196 256 308 364 434
#     4  10  22  40  62 105 147 194 228 292 362 438
#     4  10  20  32  62 100 136 182 220 288 360 434
#     4  10  20  34  62 101 141 180 222 292 364 424
#     4  10  24  42  67 100 144 187 236 293 365 431
#
# _framework density 23.621447
#
# number of rings (size 3 to 8) (size 9 to 14) (size 15 to 20)
#    0.000    1.600    0.000    3.600   15.400    4.000 
#    0.000    0.000    0.000    0.000    0.000    0.000 
#    0.000    0.000    0.000    0.000    0.000    0.000 
#
# Total GULP energy -111398.714128 kJ/mol
# GULP energy per Si atom -5569.935706 kJ/mol
# Density = 2.356768 g / cm^3
# Si number density = 23.621447 Si / 1000 Ang^3
#
#
#
# Elastic Constant Matrix: (Units=GPa)
#
#
# Indices 1 2 3 4 5 6 
#
# 1 166.4225 52.8172 14.7194 0.0000 0.0000 0.0000
# 2 52.8172 102.6993 12.4017 0.0000 0.0000 0.0000
# 3 14.7194 12.4017 19.7502 0.0000 0.0000 0.0000
# 4 0.0000 0.0000 0.0000 15.4851 0.0000 0.0000
# 5 0.0000 0.0000 0.0000 0.0000 68.3399 0.0000
# 6 0.0000 0.0000 0.0000 0.0000 0.0000 46.4762
#
#
#
# Elastic Compliance Matrix: (Units=1/GPa)
#
#
# Indices 1 2 3 4 5 6 
#
# 1 0.007383 -0.003390 -0.003374 0.000000 0.000000 0.000000
# 2 -0.003390 0.012092 -0.005067 0.000000 0.000000 0.000000
# 3 -0.003374 -0.005067 0.056329 0.000000 0.000000 0.000000
# 4 0.000000 0.000000 0.000000 0.064578 0.000000 0.000000
# 5 0.000000 0.000000 0.000000 0.000000 0.014633 0.000000
# 6 0.000000 0.000000 0.000000 0.000000 0.000000 0.021516
#
#
# Mechanical properties :
#
#
# Convention : Reuss Voigt Hill
#
# Bulk Modulus (GPa) = 19.17807 49.86097 34.51952
# Shear Modulus (GPa) = 22.98079 39.98913 31.48496
#
# Velocity S-wave (km/s) = 3.12248 4.11897 3.65485
# Velocity P-wave (km/s) = 4.59744 6.61630 5.69701
#
# Compressibility (1/GPa) = 0.05214289
#
# Stress axis : x y z
#
# Youngs Moduli (GPa) = 135.44718 82.69766 17.75299
#
# Poissons Ratio (x) = 0.28031 0.05990
# Poissons Ratio (y) = 0.45910 0.08995
# Poissons Ratio (z) = 0.45699 0.41902
#
# Static dielectric constant tensor:
#      x y z
#    x 2.030300 0.000000 0.000000 
#    y 0.000000 1.914690 0.000000 
#    z 0.000000 0.000000 1.916070 
# 
# From -- ./inp_files/35052.got.cif
#   From: 2010.05.17/outbox.cif.g08.bks.cpg/sg24_18_cif.got.tgz:35052.got - 2010.06.04 00:33:39.
