data_PCOD9333436
_publ_section_title
;
Structure prediction by ZEFSAII (Michael W. Deem and Ramdas Pophale) SiO2 
 PCOD9333436
Probable space group: I 21 21 21
;
_chemical_formula_sum "Si O2"
_cell_formula_units_Z 48
_cell_length_a 28.646718
_cell_length_b 8.963470
_cell_length_c 8.598965
_cell_angle_alpha 90.000000
_cell_angle_beta 90.000000
_cell_angle_gamma 90.000000
_cell_volume 2207.990616
_symmetry_space_group_name_H-M "I 21 21 21"
_symmetry_group_IT_number 24
_symmetry_cell_setting 'orthorhombic'
loop_
_space_group_symop_operation_xyz
x,y,z
-x,1/2-y,z
x,-y,1/2-z
1/2-x,y,-z
1/2+x,1/2+y,1/2+z
1/2-x,-y,1/2+z
1/2+x,1/2-y,-z
-x,1/2+y,1/2-z
loop_
_atom_site_type_symbol
_atom_site_label
_atom_site_fract_x
_atom_site_fract_y
_atom_site_fract_z
Si Si1 0.099189 0.439915 0.425688
Si Si2 0.364082 0.000000 0.250000
Si Si3 0.803357 0.669563 0.492872
Si Si4 0.358127 0.000000 0.750000
Si Si5 0.988541 0.075803 0.076989
Si Si6 0.298358 0.514832 0.936569
Si Si7 0.072598 0.875947 0.990897
O O1 0.106309 0.500000 0.250000
O O2 0.063756 0.562517 0.493768
O O3 0.152051 0.410637 0.480164
O O4 0.068344 0.291801 0.447922
O O5 0.332345 0.086586 0.126049
O O6 0.398744 0.116797 0.332132
O O7 0.750000 0.617810 0.500000
O O8 0.826134 0.626383 0.327227
O O9 0.803198 0.847933 0.506191
O O10 0.392320 0.945277 0.883119
O O11 0.000000 0.250000 0.088669
O O12 0.989214 0.000000 0.250000
O O13 0.026920 0.978612 0.985733
O O14 0.293505 0.500000 0.750000
O O15 0.250000 0.583166 0.000000
#
# Coordination Sequence:
#
# PCOD9333436 Si02
#       7
#     8   4   8   4   8   8   8
#     4  10  21  37  63  97 128 166 221 277 326 382
#     4  10  25  40  64  88 142 176 217 272 344 404
#     4  10  21  39  61  93 131 177 228 275 330 392
#     4  10  19  32  64  86 122 170 227 268 322 380
#     4  11  22  36  66 100 131 169 226 283 328 386
#     4  10  22  39  64  95 134 173 223 280 335 395
#     4  11  22  40  62  94 130 175 216 274 334 398
#
# _framework density 21.739224
#
# number of rings (size 3 to 8) (size 9 to 14) (size 15 to 20)
#    0.000    1.667    0.833    5.000    4.667    2.667 
#    0.000    5.833    1.833    0.000    0.000    0.000 
#    0.000    0.000    0.000    0.000    0.000    0.000 
#
# Total GULP energy -133873.919043 kJ/mol
# GULP energy per Si atom -5578.079960 kJ/mol
# Density = 2.168974 g / cm^3
# Si number density = 21.739224 Si / 1000 Ang^3
#
#
#
# Elastic Constant Matrix: (Units=GPa)
#
#
# Indices 1 2 3 4 5 6 
#
# 1 174.3359 26.7896 31.0820 0.0000 0.0000 0.0000
# 2 26.7896 79.9766 -1.7371 0.0000 0.0000 0.0000
# 3 31.0820 -1.7371 42.8762 0.0000 0.0000 0.0000
# 4 0.0000 0.0000 0.0000 23.6166 0.0000 0.0000
# 5 0.0000 0.0000 0.0000 0.0000 10.5656 0.0000
# 6 0.0000 0.0000 0.0000 0.0000 0.0000 35.6928
#
#
#
# Elastic Compliance Matrix: (Units=1/GPa)
#
#
# Indices 1 2 3 4 5 6 
#
# 1 0.007044 -0.002473 -0.005207 0.000000 0.000000 0.000000
# 2 -0.002473 0.013383 0.002335 0.000000 0.000000 0.000000
# 3 -0.005207 0.002335 0.027192 0.000000 0.000000 0.000000
# 4 0.000000 0.000000 0.000000 0.042343 0.000000 0.000000
# 5 0.000000 0.000000 0.000000 0.000000 0.094647 0.000000
# 6 0.000000 0.000000 0.000000 0.000000 0.000000 0.028017
#
#
# Mechanical properties :
#
#
# Convention : Reuss Voigt Hill
#
# Bulk Modulus (GPa) = 27.07865 45.49532 36.28699
# Shear Modulus (GPa) = 21.22011 30.04527 25.63269
#
# Velocity S-wave (km/s) = 3.12768 3.72166 3.43753
# Velocity P-wave (km/s) = 5.05236 6.28020 5.69944
#
# Compressibility (1/GPa) = 0.03692947
#
# Stress axis : x y z
#
# Youngs Moduli (GPa) = 141.95796 74.72365 36.77539
#
# Poissons Ratio (x) = 0.18477 0.19148
# Poissons Ratio (y) = 0.35102 -0.08586
# Poissons Ratio (z) = 0.73915 -0.17446
#
# Static dielectric constant tensor:
#      x y z
#    x 1.873520 0.000000 0.000000 
#    y 0.000000 1.868170 0.000000 
#    z 0.000000 0.000000 1.834710 
# 
# From -- ./inp_files/16865.got.cif
#   From: 2010.05.17/outbox.cif.g08.bks.cpg/sg24_9_cif.got.tgz:16865.got - 2010.06.04 00:33:39.
