data_PCOD9333477
_publ_section_title
;
Structure prediction by ZEFSAII (Michael W. Deem and Ramdas Pophale) SiO2 
 PCOD9333477
Probable space group: I 21 21 21
;
_chemical_formula_sum "Si O2"
_cell_formula_units_Z 64
_cell_length_a 8.117604
_cell_length_b 17.597751
_cell_length_c 23.476777
_cell_angle_alpha 90.000000
_cell_angle_beta 90.000000
_cell_angle_gamma 90.000000
_cell_volume 3353.694545
_symmetry_space_group_name_H-M "I 21 21 21"
_symmetry_group_IT_number 24
_symmetry_cell_setting 'orthorhombic'
loop_
_space_group_symop_operation_xyz
x,y,z
-x,1/2-y,z
x,-y,1/2-z
1/2-x,y,-z
1/2+x,1/2+y,1/2+z
1/2-x,-y,1/2+z
1/2+x,1/2-y,-z
-x,1/2+y,1/2-z
loop_
_atom_site_type_symbol
_atom_site_label
_atom_site_fract_x
_atom_site_fract_y
_atom_site_fract_z
Si Si1 0.997776 0.425885 0.783982
Si Si2 0.063603 0.075198 0.016111
Si Si3 0.848109 0.143003 0.245171
Si Si4 0.957034 0.338773 0.355137
Si Si5 0.133825 0.422623 0.904594
Si Si6 0.637308 0.061640 0.551308
Si Si7 0.053671 0.336260 0.124982
Si Si8 0.833901 0.294007 0.716315
O O1 0.941460 0.500000 0.750000
O O2 0.185639 0.407325 0.763884
O O3 0.010214 0.436384 0.852041
O O4 0.890556 0.354584 0.763393
O O5 0.034314 0.117020 0.075599
O O6 0.250000 0.082685 0.000000
O O7 0.005679 0.989028 0.023636
O O8 0.950878 0.101574 0.963419
O O9 0.964160 0.137606 0.190136
O O10 0.782285 0.229521 0.255147
O O11 0.948829 0.124609 0.301314
O O12 0.765665 0.335100 0.334945
O O13 0.000000 0.250000 0.360953
O O14 0.040625 0.380875 0.408214
O O15 0.245190 0.498692 0.916313
O O16 0.253993 0.354206 0.886274
O O17 0.750000 0.094316 0.500000
O O18 0.000000 0.250000 0.120443
O O19 0.000000 0.250000 0.696481
#
# Coordination Sequence:
#
# PCOD9333477 Si02
#       8
#     8   8   8   8   8   8   8   8
#     4  10  19  33  55  82 109 142 184 224 272 337
#     4  10  22  37  53  76 109 147 184 229 285 334
#     4   9  19  35  55  80 110 143 177 225 281 325
#     4  10  19  35  60  84 107 141 184 224 275 335
#     4   9  20  37  55  76 108 147 186 229 281 330
#     4   9  19  39  60  78 106 145 186 232 281 329
#     4  10  19  34  55  77 105 142 189 232 268 324
#     4   9  19  34  51  81 120 147 169 217 288 338
#
# _framework density 19.083431999999998
#
# number of rings (size 3 to 8) (size 9 to 14) (size 15 to 20)
#    0.000    2.500    0.000    3.000    0.000    4.000 
#    0.000   10.625    0.000    3.750    0.000    0.000 
#    0.000    0.000    0.000    0.000    0.000    0.250 
#
# Total GULP energy -178283.274338 kJ/mol
# GULP energy per Si atom -5571.352323 kJ/mol
# Density = 1.904000 g / cm^3
# Si number density = 19.083432 Si / 1000 Ang^3
#
#
#
# Elastic Constant Matrix: (Units=GPa)
#
#
# Indices 1 2 3 4 5 6 
#
# 1 41.8435 -4.9501 21.2790 0.0000 0.0000 0.0000
# 2 -4.9501 24.3761 17.5370 0.0000 0.0000 0.0000
# 3 21.2790 17.5370 109.0390 0.0000 0.0000 0.0000
# 4 0.0000 0.0000 0.0000 23.4571 0.0000 0.0000
# 5 0.0000 0.0000 0.0000 0.0000 4.5682 0.0000
# 6 0.0000 0.0000 0.0000 0.0000 0.0000 15.3027
#
#
#
# Elastic Compliance Matrix: (Units=1/GPa)
#
#
# Indices 1 2 3 4 5 6 
#
# 1 0.029037 0.011278 -0.007480 0.000000 0.000000 0.000000
# 2 0.011278 0.050772 -0.010367 0.000000 0.000000 0.000000
# 3 -0.007480 -0.010367 0.012298 0.000000 0.000000 0.000000
# 4 0.000000 0.000000 0.000000 0.042631 0.000000 0.000000
# 5 0.000000 0.000000 0.000000 0.000000 0.218904 0.000000
# 6 0.000000 0.000000 0.000000 0.000000 0.000000 0.065348
#
#
# Mechanical properties :
#
#
# Convention : Reuss Voigt Hill
#
# Bulk Modulus (GPa) = 12.66311 26.99893 19.83102
# Shear Modulus (GPa) = 10.90627 18.09179 14.49903
#
# Velocity S-wave (km/s) = 2.39321 3.08236 2.75938
# Velocity P-wave (km/s) = 3.77977 5.18136 4.53504
#
# Compressibility (1/GPa) = 0.07896951
#
# Stress axis : x y z
#
# Youngs Moduli (GPa) = 34.43890 19.69577 81.31294
#
# Poissons Ratio (x) = -0.22214 0.60826
# Poissons Ratio (y) = -0.38841 0.84295
# Poissons Ratio (z) = 0.25762 0.20418
#
# Static dielectric constant tensor:
#      x y z
#    x 1.698560 0.000000 0.000000 
#    y 0.000000 1.666620 0.000000 
#    z 0.000000 0.000000 1.704320 
# 
# From -- ./inp_files/32936.got.cif
#   From: 2010.05.17/outbox.cif.g08.bks.cpg/sg24_17_cif.got.tgz:32936.got - 2010.06.04 00:33:39.
