data_PCOD9333442
_publ_section_title
;
Structure prediction by ZEFSAII (Michael W. Deem and Ramdas Pophale) SiO2 
 PCOD9333442
Probable space group: I 21 21 21
;
_chemical_formula_sum "Si O2"
_cell_formula_units_Z 32
_cell_length_a 25.208671
_cell_length_b 7.766501
_cell_length_c 7.083684
_cell_angle_alpha 90.000000
_cell_angle_beta 90.000000
_cell_angle_gamma 90.000000
_cell_volume 1386.866098
_symmetry_space_group_name_H-M "I 21 21 21"
_symmetry_group_IT_number 24
_symmetry_cell_setting 'orthorhombic'
loop_
_space_group_symop_operation_xyz
x,y,z
-x,1/2-y,z
x,-y,1/2-z
1/2-x,y,-z
1/2+x,1/2+y,1/2+z
1/2-x,-y,1/2+z
1/2+x,1/2-y,-z
-x,1/2+y,1/2-z
loop_
_atom_site_type_symbol
_atom_site_label
_atom_site_fract_x
_atom_site_fract_y
_atom_site_fract_z
Si Si1 0.207475 0.000000 0.750000
Si Si2 0.560684 0.698082 0.043985
Si Si3 0.250000 0.295621 0.500000
Si Si4 0.357839 0.512310 0.019753
Si Si5 0.109572 0.856339 0.538370
O O1 0.238712 0.164528 0.673455
O O2 0.166844 0.061090 0.912383
O O3 0.500000 0.750000 0.027824
O O4 0.598247 0.847586 0.969138
O O5 0.575280 0.512740 0.957072
O O6 0.578351 0.684808 0.265179
O O7 0.300755 0.414599 0.536513
O O8 0.355028 0.500000 0.250000
O O9 0.376500 0.326099 0.948823
#
# Coordination Sequence:
#
# PCOD9333442 Si02
#       5
#     4   8   4   8   8
#     4  10  20  36  56  76 116 152 198 234 294 330
#     4   9  17  28  48  76 113 148 179 225 301 355
#     4  12  20  38  56  82 112 162 196 250 284 352
#     4  10  19  33  50  76 112 148 193 231 286 342
#     4   9  18  32  44  80 109 151 177 241 277 355
#
# _framework density 23.073604
#
# number of rings (size 3 to 8) (size 9 to 14) (size 15 to 20)
#    0.000    2.500    7.500    0.000   10.500    1.000 
#    0.000    0.000    0.000    0.000    0.000    0.000 
#    3.750    8.000    0.000    0.250    0.000    0.000 
#
# Total GULP energy -89356.053127 kJ/mol
# GULP energy per Si atom -5584.753320 kJ/mol
# Density = 2.302109 g / cm^3
# Si number density = 23.073604 Si / 1000 Ang^3
#
#
#
# Elastic Constant Matrix: (Units=GPa)
#
#
# Indices 1 2 3 4 5 6 
#
# 1 209.0726 130.2797 28.8567 0.0000 0.0000 0.0000
# 2 130.2797 262.6750 22.5631 0.0000 0.0000 0.0000
# 3 28.8567 22.5631 77.6127 0.0000 0.0000 0.0000
# 4 0.0000 0.0000 0.0000 -3.2363 0.0000 0.0000
# 5 0.0000 0.0000 0.0000 0.0000 -9.4246 0.0000
# 6 0.0000 0.0000 0.0000 0.0000 0.0000 74.9190
#
#
#
# Elastic Compliance Matrix: (Units=1/GPa)
#
#
# Indices 1 2 3 4 5 6 
#
# 1 0.007126 -0.003391 -0.001664 0.000000 0.000000 0.000000
# 2 -0.003391 0.005519 -0.000343 0.000000 0.000000 0.000000
# 3 -0.001664 -0.000343 0.013603 0.000000 0.000000 0.000000
# 4 0.000000 0.000000 0.000000 -0.308996 0.000000 0.000000
# 5 0.000000 0.000000 0.000000 0.000000 -0.106105 0.000000
# 6 0.000000 0.000000 0.000000 0.000000 0.000000 0.013348
#
#
# Mechanical properties :
#
#
# Convention : Reuss Voigt Hill
#
# Bulk Modulus (GPa) = 64.72203 101.41769 83.06986
# Shear Modulus (GPa) = -13.90592 36.96234 11.52821
#
# Velocity S-wave (km/s) = -2.45761 4.00676 2.23766
# Velocity P-wave (km/s) = 4.47862 8.09042 6.53884
#
# Compressibility (1/GPa) = 0.01545069
#
# Stress axis : x y z
#
# Youngs Moduli (GPa) = 140.33339 181.20858 73.51418
#
# Poissons Ratio (x) = 0.61454 0.12229
# Poissons Ratio (y) = 0.47592 0.02524
# Poissons Ratio (z) = 0.23345 0.06222
#
# Static dielectric constant tensor:
#      x y z
#    x 1.786550 0.000000 0.000000 
#    y 0.000000 1.887260 0.000000 
#    z 0.000000 0.000000 1.978670 
# 
# From -- ./inp_files/9195.got.cif
#   From: 2010.05.17/outbox.cif.g08.bks.cpg/sg24_5_cif.got.tgz:9195.got - 2010.06.04 00:33:39.
