data_PCOD9333918
_publ_section_title
;
Structure prediction by ZEFSAII (Michael W. Deem and Ramdas Pophale) SiO2 
 PCOD9333918
Probable space group: I 21 21 21
;
_chemical_formula_sum "Si O2"
_cell_formula_units_Z 56
_cell_length_a 5.002942
_cell_length_b 16.389622
_cell_length_c 32.164233
_cell_angle_alpha 90.000000
_cell_angle_beta 90.000000
_cell_angle_gamma 90.000000
_cell_volume 2637.349008
_symmetry_space_group_name_H-M "I 21 21 21"
_symmetry_group_IT_number 24
_symmetry_cell_setting 'orthorhombic'
loop_
_space_group_symop_operation_xyz
x,y,z
-x,1/2-y,z
x,-y,1/2-z
1/2-x,y,-z
1/2+x,1/2+y,1/2+z
1/2-x,-y,1/2+z
1/2+x,1/2-y,-z
-x,1/2+y,1/2-z
loop_
_atom_site_type_symbol
_atom_site_label
_atom_site_fract_x
_atom_site_fract_y
_atom_site_fract_z
Si Si1 0.967549 0.976403 0.703916
Si Si2 0.635764 0.416331 0.457832
Si Si3 0.253673 0.194210 0.377998
Si Si4 0.261638 0.694308 0.580588
Si Si5 0.740944 0.805266 0.679077
Si Si6 0.023741 0.962728 0.159460
Si Si7 0.871406 0.012737 0.066068
O O1 0.732678 0.037219 0.689107
O O2 0.231434 0.980016 0.674862
O O3 0.054390 0.000000 0.750000
O O4 0.818127 0.889629 0.700703
O O5 0.750000 0.377599 0.500000
O O6 0.666891 0.354804 0.419518
O O7 0.338143 0.451074 0.454812
O O8 0.835497 0.493250 0.451223
O O9 0.500000 0.250000 0.364169
O O10 0.000000 0.250000 0.387320
O O11 0.158618 0.125379 0.345817
O O12 0.500000 0.750000 0.564100
O O13 0.311932 0.678489 0.630025
O O14 0.269142 0.604679 0.560958
O O15 0.000000 0.750000 0.576687
O O16 0.500000 0.750000 0.695897
O O17 0.000000 0.750000 0.680867
O O18 0.905067 0.990943 0.114969
#
# Coordination Sequence:
#
# PCOD9333918 Si02
#       7
#     8   8   8   8   8   8   8
#     4  12  24  41  64  92 129 173 214 261 324 396
#     4  11  24  40  64  95 128 168 207 257 320 375
#     4  11  23  41  65  94 124 164 214 264 318 377
#     4  10  20  32  58  92 118 150 202 261 310 347
#     4  10  21  36  58  88 123 154 200 269 323 362
#     4  11  23  41  64  90 123 165 218 265 314 382
#     4  11  21  39  65  89 125 163 208 262 304 376
#
# _framework density 21.233445
#
# number of rings (size 3 to 8) (size 9 to 14) (size 15 to 20)
#    0.000    1.143    1.429    6.857    4.000    0.571 
#    0.000    4.286    0.000    8.571    0.000    0.000 
#    0.000    0.000    0.000    0.000    0.000    0.000 
#
# Total GULP energy -156458.240113 kJ/mol
# GULP energy per Si atom -5587.794290 kJ/mol
# Density = 2.118512 g / cm^3
# Si number density = 21.233445 Si / 1000 Ang^3
#
#
#
# Elastic Constant Matrix: (Units=GPa)
#
#
# Indices 1 2 3 4 5 6 
#
# 1 109.3534 21.5147 17.9842 0.0000 0.0000 0.0000
# 2 21.5147 88.7294 1.1440 0.0000 0.0000 0.0000
# 3 17.9842 1.1440 44.2103 0.0000 0.0000 0.0000
# 4 0.0000 0.0000 0.0000 -4.3909 0.0000 0.0000
# 5 0.0000 0.0000 0.0000 0.0000 22.8507 0.0000
# 6 0.0000 0.0000 0.0000 0.0000 0.0000 33.2158
#
#
#
# Elastic Compliance Matrix: (Units=1/GPa)
#
#
# Indices 1 2 3 4 5 6 
#
# 1 0.010305 -0.002445 -0.004129 0.000000 0.000000 0.000000
# 2 -0.002445 0.011854 0.000688 0.000000 0.000000 0.000000
# 3 -0.004129 0.000688 0.024281 0.000000 0.000000 0.000000
# 4 0.000000 0.000000 0.000000 -0.227744 0.000000 0.000000
# 5 0.000000 0.000000 0.000000 0.000000 0.043762 0.000000
# 6 0.000000 0.000000 0.000000 0.000000 0.000000 0.030106
#
#
# Mechanical properties :
#
#
# Convention : Reuss Voigt Hill
#
# Bulk Modulus (GPa) = 28.84512 35.95322 32.39917
# Shear Modulus (GPa) = -59.44745 23.77845 -17.83450
#
# Velocity S-wave (km/s) = -5.29697 3.35006 -2.90129
# Velocity P-wave (km/s) = 4.87814 5.65093 2.01702
#
# Compressibility (1/GPa) = 0.03466791
#
# Stress axis : x y z
#
# Youngs Moduli (GPa) = 97.04241 84.35749 41.18479
#
# Poissons Ratio (x) = 0.20629 0.17003
# Poissons Ratio (y) = 0.23731 -0.02834
# Poissons Ratio (z) = 0.40065 -0.05804
#
# Static dielectric constant tensor:
#      x y z
#    x 1.768370 0.000000 0.000000 
#    y 0.000000 1.804710 0.000000 
#    z 0.000000 0.000000 1.806410 
# 
# From -- ./inp_files/37923.got.cif
#   From: 2010.05.17/outbox.cif.g08.bks.cpg/sg24_19_cif.got.tgz:37923.got - 2010.06.04 00:33:39.
