data_PCOD9333304
_publ_section_title
;
Structure prediction by ZEFSAII (Michael W. Deem and Ramdas Pophale) SiO2 
 PCOD9333304
Probable space group: I 21 21 21
;
_chemical_formula_sum "Si O2"
_cell_formula_units_Z 28
_cell_length_a 5.274774
_cell_length_b 10.781080
_cell_length_c 21.515020
_cell_angle_alpha 90.000000
_cell_angle_beta 90.000000
_cell_angle_gamma 90.000000
_cell_volume 1223.511004
_symmetry_space_group_name_H-M "I 21 21 21"
_symmetry_group_IT_number 24
_symmetry_cell_setting 'orthorhombic'
loop_
_space_group_symop_operation_xyz
x,y,z
-x,1/2-y,z
x,-y,1/2-z
1/2-x,y,-z
1/2+x,1/2+y,1/2+z
1/2-x,-y,1/2+z
1/2+x,1/2-y,-z
-x,1/2+y,1/2-z
loop_
_atom_site_type_symbol
_atom_site_label
_atom_site_fract_x
_atom_site_fract_y
_atom_site_fract_z
Si Si1 0.136536 0.009145 0.089087
Si Si2 0.000000 0.750000 0.042186
Si Si3 0.415005 0.614189 0.704586
Si Si4 0.633854 0.876839 0.421348
O O1 0.036128 0.871191 0.083901
O O2 0.422537 0.019231 0.066075
O O3 0.081857 0.407309 0.055715
O O4 0.134588 0.061370 0.158972
O O5 0.250000 0.737637 0.000000
O O6 0.500000 0.750000 0.729538
O O7 0.354496 0.500000 0.750000
O O8 0.195265 0.631889 0.652921
O O9 0.500000 0.750000 0.439717
#
# Coordination Sequence:
#
# PCOD9333304 Si02
#       4
#     8   4   8   8
#     4  10  22  40  67  90 133 175 213 283 340 395
#     4  12  26  46  70 102 130 172 236 290 348 400
#     4  10  22  38  63  99 139 182 226 271 336 406
#     4  10  18  40  62  89 128 176 213 262 335 393
#
# _framework density 22.884961000000001
#
# number of rings (size 3 to 8) (size 9 to 14) (size 15 to 20)
#    1.714    0.000    2.857    2.571    2.000    1.143 
#    0.000    0.000    0.000   29.143    0.000    0.000 
#    0.000    0.000    0.000    0.000    0.000    0.000 
#
# Total GULP energy -78033.102272 kJ/mol
# GULP energy per Si atom -5573.793019 kJ/mol
# Density = 2.283287 g / cm^3
# Si number density = 22.884961 Si / 1000 Ang^3
#
#
#
# Elastic Constant Matrix: (Units=GPa)
#
#
# Indices 1 2 3 4 5 6 
#
# 1 116.2212 23.9397 11.4398 0.0000 0.0000 0.0000
# 2 23.9397 187.2886 43.8720 0.0000 0.0000 0.0000
# 3 11.4398 43.8720 58.7368 0.0000 0.0000 0.0000
# 4 0.0000 0.0000 0.0000 35.6764 0.0000 0.0000
# 5 0.0000 0.0000 0.0000 0.0000 23.6058 0.0000
# 6 0.0000 0.0000 0.0000 0.0000 0.0000 37.7543
#
#
#
# Elastic Compliance Matrix: (Units=1/GPa)
#
#
# Indices 1 2 3 4 5 6 
#
# 1 0.008892 -0.000886 -0.001070 0.000000 0.000000 0.000000
# 2 -0.000886 0.006560 -0.004727 0.000000 0.000000 0.000000
# 3 -0.001070 -0.004727 0.020764 0.000000 0.000000 0.000000
# 4 0.000000 0.000000 0.000000 0.028030 0.000000 0.000000
# 5 0.000000 0.000000 0.000000 0.000000 0.042363 0.000000
# 6 0.000000 0.000000 0.000000 0.000000 0.000000 0.026487
#
#
# Mechanical properties :
#
#
# Convention : Reuss Voigt Hill
#
# Bulk Modulus (GPa) = 43.76397 57.86107 50.81252
# Shear Modulus (GPa) = 32.45088 38.27363 35.36225
#
# Velocity S-wave (km/s) = 3.76972 4.09398 3.93519
# Velocity P-wave (km/s) = 6.17355 6.90550 6.54975
#
# Compressibility (1/GPa) = 0.02284985
#
# Stress axis : x y z
#
# Youngs Moduli (GPa) = 112.45924 152.44035 48.15931
#
# Poissons Ratio (x) = 0.13505 0.05154
# Poissons Ratio (y) = 0.09963 0.22766
# Poissons Ratio (z) = 0.12035 0.72062
#
# Static dielectric constant tensor:
#      x y z
#    x 1.870990 0.000000 0.000000 
#    y 0.000000 1.849260 0.000000 
#    z 0.000000 0.000000 1.989740 
# 
# From -- ./inp_files/36259.got.cif
#   From: 2010.05.17/outbox.cif.g08.bks.cpg/sg24_19_cif.got.tgz:36259.got - 2010.06.04 00:33:39.
