data_PCOD9333137
_publ_section_title
;
Structure prediction by ZEFSAII (Michael W. Deem and Ramdas Pophale) SiO2 
 PCOD9333137
Probable space group: I 21 21 21
;
_chemical_formula_sum "Si O2"
_cell_formula_units_Z 56
_cell_length_a 14.774025
_cell_length_b 9.661942
_cell_length_c 18.916026
_cell_angle_alpha 90.000000
_cell_angle_beta 90.000000
_cell_angle_gamma 90.000000
_cell_volume 2700.182747
_symmetry_space_group_name_H-M "I 21 21 21"
_symmetry_group_IT_number 24
_symmetry_cell_setting 'orthorhombic'
loop_
_space_group_symop_operation_xyz
x,y,z
-x,1/2-y,z
x,-y,1/2-z
1/2-x,y,-z
1/2+x,1/2+y,1/2+z
1/2-x,-y,1/2+z
1/2+x,1/2-y,-z
-x,1/2+y,1/2-z
loop_
_atom_site_type_symbol
_atom_site_label
_atom_site_fract_x
_atom_site_fract_y
_atom_site_fract_z
Si Si1 0.582887 0.946571 0.525903
Si Si2 0.203932 0.838623 0.224375
Si Si3 0.637733 0.261030 0.868431
Si Si4 0.088335 0.834447 0.740774
Si Si5 0.378505 0.987538 0.513877
Si Si6 0.889450 0.240124 0.419782
Si Si7 0.837460 0.739811 0.589805
O O1 0.574154 0.851520 0.595758
O O2 0.484492 0.979388 0.495972
O O3 0.627701 0.850205 0.466821
O O4 0.629402 0.087139 0.551241
O O5 0.140177 0.772471 0.285047
O O6 0.311710 0.801657 0.226372
O O7 0.160649 0.788893 0.151316
O O8 0.203652 0.000000 0.250000
O O9 0.629347 0.404734 0.911681
O O10 0.739527 0.212215 0.886136
O O11 0.102774 0.791438 0.658455
O O12 0.000000 0.750000 0.767333
O O13 0.073867 0.000000 0.750000
O O14 0.328531 0.904018 0.452986
O O15 0.358063 0.146655 0.523312
O O16 0.000000 0.250000 0.410445
#
# Coordination Sequence:
#
# PCOD9333137 Si02
#       7
#     8   8   8   8   8   8   8
#     4  10  20  34  55  87 121 154 197 251 307 355
#     4  10  20  39  62  83 126 168 203 251 303 368
#     4  10  19  34  57  83 113 159 206 240 299 363
#     4  10  22  43  68  92 119 159 213 265 317 374
#     4  10  18  34  59  83 118 159 199 247 293 369
#     4  10  22  37  56  92 131 159 203 249 301 370
#     4  10  20  38  63  89 114 157 205 249 312 376
#
# _framework density 20.739336999999999
#
# number of rings (size 3 to 8) (size 9 to 14) (size 15 to 20)
#    0.000    2.000    1.429    4.286    0.000    1.714 
#    5.143    6.429    0.000    0.000    0.000    0.000 
#    0.000    0.000    0.000    0.000    0.000    0.000 
#
# Total GULP energy -156117.704144 kJ/mol
# GULP energy per Si atom -5575.632291 kJ/mol
# Density = 2.069213 g / cm^3
# Si number density = 20.739337 Si / 1000 Ang^3
#
#
#
# Elastic Constant Matrix: (Units=GPa)
#
#
# Indices 1 2 3 4 5 6 
#
# 1 73.7567 24.6860 22.8322 0.0000 0.0000 0.0000
# 2 24.6860 132.2246 29.7207 0.0000 0.0000 0.0000
# 3 22.8322 29.7207 58.2942 0.0000 0.0000 0.0000
# 4 0.0000 0.0000 0.0000 14.8195 0.0000 0.0000
# 5 0.0000 0.0000 0.0000 0.0000 13.0776 0.0000
# 6 0.0000 0.0000 0.0000 0.0000 0.0000 19.5371
#
#
#
# Elastic Compliance Matrix: (Units=1/GPa)
#
#
# Indices 1 2 3 4 5 6 
#
# 1 0.015783 -0.001759 -0.005285 0.000000 0.000000 0.000000
# 2 -0.001759 0.008738 -0.003766 0.000000 0.000000 0.000000
# 3 -0.005285 -0.003766 0.021144 0.000000 0.000000 0.000000
# 4 0.000000 0.000000 0.000000 0.067479 0.000000 0.000000
# 5 0.000000 0.000000 0.000000 0.000000 0.076467 0.000000
# 6 0.000000 0.000000 0.000000 0.000000 0.000000 0.051185
#
#
# Mechanical properties :
#
#
# Convention : Reuss Voigt Hill
#
# Bulk Modulus (GPa) = 41.58784 46.52814 44.05799
# Shear Modulus (GPa) = 18.48909 21.95593 20.22251
#
# Velocity S-wave (km/s) = 2.98904 3.25724 3.12601
# Velocity P-wave (km/s) = 5.65762 6.05224 5.85825
#
# Compressibility (1/GPa) = 0.02404549
#
# Stress axis : x y z
#
# Youngs Moduli (GPa) = 63.36037 114.44613 47.29374
#
# Poissons Ratio (x) = 0.20127 0.24995
# Poissons Ratio (y) = 0.11143 0.17811
# Poissons Ratio (z) = 0.33486 0.43101
#
# Static dielectric constant tensor:
#      x y z
#    x 1.837910 0.000000 0.000000 
#    y 0.000000 1.752770 0.000000 
#    z 0.000000 0.000000 1.730630 
# 
# From -- ./inp_files/32828.got.cif
#   From: 2010.05.17/outbox.cif.g08.bks.cpg/sg24_17_cif.got.tgz:32828.got - 2010.06.04 00:33:39.
