data_PCOD9333749
_publ_section_title
;
Structure prediction by ZEFSAII (Michael W. Deem and Ramdas Pophale) SiO2 
 PCOD9333749
Probable space group: I 21 21 21
;
_chemical_formula_sum "Si O2"
_cell_formula_units_Z 32
_cell_length_a 15.361481
_cell_length_b 8.709352
_cell_length_c 11.694233
_cell_angle_alpha 90.000000
_cell_angle_beta 90.000000
_cell_angle_gamma 90.000000
_cell_volume 1564.554421
_symmetry_space_group_name_H-M "I 21 21 21"
_symmetry_group_IT_number 24
_symmetry_cell_setting 'orthorhombic'
loop_
_space_group_symop_operation_xyz
x,y,z
-x,1/2-y,z
x,-y,1/2-z
1/2-x,y,-z
1/2+x,1/2+y,1/2+z
1/2-x,-y,1/2+z
1/2+x,1/2-y,-z
-x,1/2+y,1/2-z
loop_
_atom_site_type_symbol
_atom_site_label
_atom_site_fract_x
_atom_site_fract_y
_atom_site_fract_z
Si Si1 0.261572 0.500000 0.750000
Si Si2 0.839638 0.752564 0.426433
Si Si3 0.000000 0.250000 0.911538
Si Si4 0.286696 0.212139 0.373143
Si Si5 0.424307 0.000000 0.250000
Si Si6 0.349438 0.000000 0.750000
O O1 0.316138 0.393844 0.840281
O O2 0.204194 0.381255 0.677987
O O3 0.750000 0.714300 0.500000
O O4 0.915281 0.792176 0.514530
O O5 0.881257 0.605856 0.356395
O O6 0.977859 0.390759 0.830608
O O7 0.250000 0.220988 0.500000
O O8 0.208442 0.128809 0.308461
O O9 0.366491 0.105095 0.336220
#
# Coordination Sequence:
#
# PCOD9333749 Si02
#       6
#     4   8   4   8   4   4
#     4  10  22  36  64  96 128 170 218 260 316 396
#     4  11  23  41  65  94 131 174 217 273 334 389
#     4  12  26  44  66  94 134 172 216 280 336 388
#     4  10  19  37  64  92 123 164 208 259 320 383
#     4  11  26  41  62  98 130 166 220 274 330 402
#     4   9  18  35  60  88 118 158 212 254 306 386
#
# _framework density 20.453108
#
# number of rings (size 3 to 8) (size 9 to 14) (size 15 to 20)
#    0.000    1.500    0.000    7.500    0.000    7.000 
#    0.000    0.000    0.000    0.000    0.000    0.000 
#    0.000    0.000    0.000    0.000    0.000    0.000 
#
# Total GULP energy -89101.480154 kJ/mol
# GULP energy per Si atom -5568.842510 kJ/mol
# Density = 2.040656 g / cm^3
# Si number density = 20.453108 Si / 1000 Ang^3
#
#
#
# Elastic Constant Matrix: (Units=GPa)
#
#
# Indices 1 2 3 4 5 6 
#
# 1 94.2570 46.0647 63.5562 0.0000 0.0000 0.0000
# 2 46.0647 160.5535 73.2299 0.0000 0.0000 0.0000
# 3 63.5562 73.2299 144.0776 0.0000 0.0000 0.0000
# 4 0.0000 0.0000 0.0000 30.5511 0.0000 0.0000
# 5 0.0000 0.0000 0.0000 0.0000 29.8205 0.0000
# 6 0.0000 0.0000 0.0000 0.0000 0.0000 36.3499
#
#
#
# Elastic Compliance Matrix: (Units=1/GPa)
#
#
# Indices 1 2 3 4 5 6 
#
# 1 0.015459 -0.001725 -0.005943 0.000000 0.000000 0.000000
# 2 -0.001725 0.008301 -0.003458 0.000000 0.000000 0.000000
# 3 -0.005943 -0.003458 0.011320 0.000000 0.000000 0.000000
# 4 0.000000 0.000000 0.000000 0.032732 0.000000 0.000000
# 5 0.000000 0.000000 0.000000 0.000000 0.033534 0.000000
# 6 0.000000 0.000000 0.000000 0.000000 0.000000 0.027510
#
#
# Mechanical properties :
#
#
# Convention : Reuss Voigt Hill
#
# Bulk Modulus (GPa) = 77.95239 84.95443 81.45341
# Shear Modulus (GPa) = 32.17835 33.74676 32.96256
#
# Velocity S-wave (km/s) = 3.97076 4.06637 4.01885
# Velocity P-wave (km/s) = 7.69532 7.97957 7.83874
#
# Compressibility (1/GPa) = 0.01282834
#
# Stress axis : x y z
#
# Youngs Moduli (GPa) = 64.68541 120.47343 88.34069
#
# Poissons Ratio (x) = 0.20781 0.52499
# Poissons Ratio (y) = 0.11158 0.30548
# Poissons Ratio (z) = 0.38441 0.41660
#
# Static dielectric constant tensor:
#      x y z
#    x 1.716020 0.000000 0.000000 
#    y 0.000000 1.625830 0.000000 
#    z 0.000000 0.000000 1.785890 
# 
# From -- ./inp_files/10345.got.cif
#   From: 2010.05.17/outbox.cif.g08.bks.cpg/sg24_6_cif.got.tgz:10345.got - 2010.06.04 00:33:39.
