data_PCOD9333907
_publ_section_title
;
Structure prediction by ZEFSAII (Michael W. Deem and Ramdas Pophale) SiO2 
 PCOD9333907
Probable space group: I 21 21 21
;
_chemical_formula_sum "Si O2"
_cell_formula_units_Z 48
_cell_length_a 12.238426
_cell_length_b 20.768148
_cell_length_c 9.755000
_cell_angle_alpha 90.000000
_cell_angle_beta 90.000000
_cell_angle_gamma 90.000000
_cell_volume 2479.422911
_symmetry_space_group_name_H-M "I 21 21 21"
_symmetry_group_IT_number 24
_symmetry_cell_setting 'orthorhombic'
loop_
_space_group_symop_operation_xyz
x,y,z
-x,1/2-y,z
x,-y,1/2-z
1/2-x,y,-z
1/2+x,1/2+y,1/2+z
1/2-x,-y,1/2+z
1/2+x,1/2-y,-z
-x,1/2+y,1/2-z
loop_
_atom_site_type_symbol
_atom_site_label
_atom_site_fract_x
_atom_site_fract_y
_atom_site_fract_z
Si Si1 0.123430 0.676945 0.157056
Si Si2 0.635038 0.198490 0.344376
Si Si3 0.000000 0.750000 0.379899
Si Si4 0.438323 0.068850 0.711857
Si Si5 0.250000 0.090653 0.500000
Si Si6 0.599731 0.343120 0.276279
Si Si7 0.870829 0.637617 0.489218
O O1 0.251281 0.660968 0.176413
O O2 0.093700 0.726903 0.276377
O O3 0.032084 0.620303 0.166251
O O4 0.120433 0.710293 0.007976
O O5 0.632816 0.267090 0.266428
O O6 0.528519 0.158410 0.306420
O O7 0.039153 0.807847 0.471897
O O8 0.342113 0.058646 0.599115
O O9 0.384641 0.095795 0.852841
O O10 0.488558 0.000000 0.750000
O O11 0.324584 0.131598 0.397269
O O12 0.614743 0.387927 0.142672
O O13 0.750000 0.666256 0.500000
#
# Coordination Sequence:
#
# PCOD9333907 Si02
#       7
#     8   8   4   8   4   8   8
#     4  10  20  36  60  88 125 161 211 247 305 370
#     4  10  20  33  62  94 129 158 197 246 305 391
#     4  10  20  32  54  88 122 166 186 244 320 378
#     4  11  26  43  64  86 118 168 219 263 310 361
#     4  12  22  38  64  86 118 160 210 258 306 368
#     4  11  21  35  59  99 127 157 196 249 318 381
#     4  11  22  37  57  89 129 153 197 255 319 372
#
# _framework density 19.359344
#
# number of rings (size 3 to 8) (size 9 to 14) (size 15 to 20)
#    0.000    1.333    3.333    4.000    5.833    0.000 
#    0.000    2.500    7.333    0.000    0.000    0.000 
#    0.000    0.000    0.000    0.000    0.000    0.000 
#
# Total GULP energy -133671.559910 kJ/mol
# GULP energy per Si atom -5569.648330 kJ/mol
# Density = 1.931528 g / cm^3
# Si number density = 19.359344 Si / 1000 Ang^3
#
#
#
# Elastic Constant Matrix: (Units=GPa)
#
#
# Indices 1 2 3 4 5 6 
#
# 1 125.1933 4.6101 26.2636 0.0000 0.0000 0.0000
# 2 4.6101 34.6197 10.5077 0.0000 0.0000 0.0000
# 3 26.2636 10.5077 109.2541 0.0000 -0.0001 0.0000
# 4 0.0000 0.0000 0.0000 5.8806 0.0000 0.0000
# 5 0.0000 0.0000 -0.0001 0.0000 17.0674 0.0000
# 6 0.0000 0.0000 0.0000 0.0000 0.0000 6.0335
#
#
#
# Elastic Compliance Matrix: (Units=1/GPa)
#
#
# Indices 1 2 3 4 5 6 
#
# 1 0.008421 -0.000522 -0.001974 0.000000 0.000000 0.000000
# 2 -0.000522 0.029786 -0.002739 0.000000 0.000000 0.000000
# 3 -0.001974 -0.002739 0.009891 0.000000 0.000000 0.000000
# 4 0.000000 0.000000 0.000000 0.170051 0.000000 0.000000
# 5 0.000000 0.000000 0.000000 0.000000 0.058591 0.000000
# 6 0.000000 0.000000 0.000000 0.000000 0.000000 0.165741
#
#
# Mechanical properties :
#
#
# Convention : Reuss Voigt Hill
#
# Bulk Modulus (GPa) = 26.57652 39.09221 32.83436
# Shear Modulus (GPa) = 10.74125 20.97534 15.85829
#
# Velocity S-wave (km/s) = 2.35805 3.29519 2.86519
# Velocity P-wave (km/s) = 4.60127 5.89190 5.28612
#
# Compressibility (1/GPa) = 0.03762720
#
# Stress axis : x y z
#
# Youngs Moduli (GPa) = 118.75050 33.57256 101.10228
#
# Poissons Ratio (x) = 0.01753 0.19959
# Poissons Ratio (y) = 0.06201 0.27694
# Poissons Ratio (z) = 0.23443 0.09196
#
# Static dielectric constant tensor:
#      x y z
#    x 1.693810 0.000000 0.000000 
#    y 0.000000 1.655590 0.000000 
#    z 0.000000 0.000000 1.743300 
# 
# From -- ./inp_files/11300.got.cif
#   From: 2010.05.17/outbox.cif.g08.bks.cpg/sg24_6_cif.got.tgz:11300.got - 2010.06.04 00:33:39.
