data_PCOD9333034
_publ_section_title
;
Structure prediction by ZEFSAII (Michael W. Deem and Ramdas Pophale) SiO2 
 PCOD9333034
Probable space group: I 21 21 21
;
_chemical_formula_sum "Si O2"
_cell_formula_units_Z 32
_cell_length_a 7.227334
_cell_length_b 33.804998
_cell_length_c 5.385729
_cell_angle_alpha 90.000000
_cell_angle_beta 90.000000
_cell_angle_gamma 90.000000
_cell_volume 1315.841371
_symmetry_space_group_name_H-M "I 21 21 21"
_symmetry_group_IT_number 24
_symmetry_cell_setting 'orthorhombic'
loop_
_space_group_symop_operation_xyz
x,y,z
-x,1/2-y,z
x,-y,1/2-z
1/2-x,y,-z
1/2+x,1/2+y,1/2+z
1/2-x,-y,1/2+z
1/2+x,1/2-y,-z
-x,1/2+y,1/2-z
loop_
_atom_site_type_symbol
_atom_site_label
_atom_site_fract_x
_atom_site_fract_y
_atom_site_fract_z
Si Si1 0.045511 0.047045 0.754456
Si Si2 0.472207 0.331792 0.540100
Si Si3 0.535695 0.580559 0.762360
Si Si4 0.530898 0.795177 0.464344
O O1 0.951880 0.058295 0.497399
O O2 0.250340 0.066528 0.748056
O O3 0.065655 0.000000 0.750000
O O4 0.958040 0.066314 0.999176
O O5 0.250000 0.329646 0.500000
O O6 0.519520 0.373839 0.663179
O O7 0.542036 0.322906 0.260176
O O8 0.540198 0.301763 0.754660
O O9 0.500000 0.750000 0.387138
O O10 0.750000 0.802453 0.500000
#
# Coordination Sequence:
#
# PCOD9333034 Si02
#       4
#     8   8   8   8
#     4  10  19  33  54  81 117 149 178 233 296 332
#     4  10  21  37  58  78 112 149 186 233 286 337
#     4  10  18  32  52  80 108 142 188 221 277 337
#     4  10  21  40  58  81 110 151 189 232 293 351
#
# _framework density 24.319040000000001
#
# number of rings (size 3 to 8) (size 9 to 14) (size 15 to 20)
#    0.000    2.000    0.000    6.000    0.000    0.000 
#   13.500    0.000    0.000    4.500    0.000    0.000 
#    0.000    0.000    0.000    0.000    0.000    0.000 
#
# Total GULP energy -89320.668691 kJ/mol
# GULP energy per Si atom -5582.541793 kJ/mol
# Density = 2.426369 g / cm^3
# Si number density = 24.319040 Si / 1000 Ang^3
#
#
#
# Elastic Constant Matrix: (Units=GPa)
#
#
# Indices 1 2 3 4 5 6 
#
# 1 98.4476 -14.2271 21.2560 0.0015 -0.0062 -0.0498
# 2 -14.2271 99.4354 71.5038 -0.0102 -0.0147 -0.2588
# 3 21.2560 71.5038 265.9356 -0.0308 0.0129 0.0592
# 4 0.0015 -0.0102 -0.0308 48.4302 0.0049 0.0976
# 5 -0.0062 -0.0147 0.0129 0.0049 -26.7064 0.0169
# 6 -0.0498 -0.2588 0.0592 0.0976 0.0169 -331.4050
#
#
#
# Elastic Compliance Matrix: (Units=1/GPa)
#
#
# Indices 1 2 3 4 5 6 
#
# 1 0.010894 0.002709 -0.001599 -0.000001 -0.000005 -0.000004
# 2 0.002709 0.013141 -0.003750 0.000000 -0.000010 -0.000011
# 3 -0.001599 -0.003750 0.004896 0.000002 0.000005 0.000004
# 4 -0.000001 0.000000 0.000002 0.020648 0.000004 0.000006
# 5 -0.000005 -0.000010 0.000005 0.000004 -0.037444 -0.000002
# 6 -0.000004 -0.000011 0.000004 0.000006 -0.000002 -0.003017
#
#
# Mechanical properties :
#
#
# Convention : Reuss Voigt Hill
#
# Bulk Modulus (GPa) = 42.28130 68.98711 55.63420
# Shear Modulus (GPa) = 224.39533 -36.25053 94.07240
#
# Velocity S-wave (km/s) = 9.61622 -3.86505 6.22628
# Velocity P-wave (km/s) = 11.86253 2.91736 8.63801
#
# Compressibility (1/GPa) = 0.02365112
#
# Stress axis : x y z
#
# Youngs Moduli (GPa) = 91.79042 76.09932 204.23450
#
# Poissons Ratio (x) = -0.20612 0.32658
# Poissons Ratio (y) = -0.24863 0.76582
# Poissons Ratio (z) = 0.14678 0.28535
#
# Static dielectric constant tensor:
#      x y z
#    x 1.895740 -0.000010 -0.000020 
#    y -0.000010 1.943700 0.000200 
#    z -0.000020 0.000200 2.065760 
# 
# From -- ./inp_files/1156.got.cif
#   From: 2010.05.17/outbox.cif.g08.bks.cpg/sg24_1_cif.got.tgz:1156.got - 2010.06.04 00:33:39.
