data_PCOD9333668
_publ_section_title
;
Structure prediction by ZEFSAII (Michael W. Deem and Ramdas Pophale) SiO2 
 PCOD9333668
Probable space group: I 21 21 21
;
_chemical_formula_sum "Si O2"
_cell_formula_units_Z 52
_cell_length_a 29.075536
_cell_length_b 5.222694
_cell_length_c 19.323432
_cell_angle_alpha 90.000000
_cell_angle_beta 90.000000
_cell_angle_gamma 90.000000
_cell_volume 2934.313920
_symmetry_space_group_name_H-M "I 21 21 21"
_symmetry_group_IT_number 24
_symmetry_cell_setting 'orthorhombic'
loop_
_space_group_symop_operation_xyz
x,y,z
-x,1/2-y,z
x,-y,1/2-z
1/2-x,y,-z
1/2+x,1/2+y,1/2+z
1/2-x,-y,1/2+z
1/2+x,1/2-y,-z
-x,1/2+y,1/2-z
loop_
_atom_site_type_symbol
_atom_site_label
_atom_site_fract_x
_atom_site_fract_y
_atom_site_fract_z
Si Si1 0.362238 0.713308 0.915720
Si Si2 0.319220 0.750325 0.204633
Si Si3 0.114153 0.748223 0.925168
Si Si4 0.919548 0.290034 0.098963
Si Si5 0.290370 0.248758 0.703874
Si Si6 0.053297 0.757263 0.558541
Si Si7 0.000000 0.250000 0.204671
O O1 0.380444 0.426415 0.903810
O O2 0.317439 0.750067 0.868567
O O3 0.398576 0.928403 0.890748
O O4 0.361410 0.754692 0.998937
O O5 0.329269 0.500000 0.250000
O O6 0.348135 0.743023 0.134608
O O7 0.264421 0.754492 0.190731
O O8 0.330463 0.000000 0.250000
O O9 0.081361 0.499089 0.923047
O O10 0.081764 0.996386 0.916239
O O11 0.955541 0.219254 0.157135
O O12 0.944631 0.281295 0.024832
O O13 0.301199 0.500000 0.750000
O O14 0.302190 0.000000 0.750000
O O15 0.000000 0.750000 0.580722
O O16 0.993897 0.500000 0.250000
#
# Coordination Sequence:
#
# PCOD9333668 Si02
#       7
#     8   8   8   8   8   8   4
#     4  10  21  35  56  81 109 139 188 235 268 314
#     4  10  21  39  60  82 113 146 177 220 277 346
#     4  10  21  35  59  88 106 143 188 224 279 320
#     4  10  21  36  50  74 107 143 180 233 273 307
#     4  10  21  36  56  80 110 152 186 217 277 332
#     4  10  19  36  59  79 109 141 181 227 270 330
#     4  12  24  34  48  72 104 148 190 222 270 320
#
# _framework density 17.721347000000002
#
# number of rings (size 3 to 8) (size 9 to 14) (size 15 to 20)
#    0.000    1.846    0.769    3.231    0.000    4.308 
#    0.000    0.000    0.000   20.308    0.000    0.000 
#    0.000    0.000    0.000    0.000    0.000    0.000 
#
# Total GULP energy -145136.016687 kJ/mol
# GULP energy per Si atom -5582.154488 kJ/mol
# Density = 1.768101 g / cm^3
# Si number density = 17.721347 Si / 1000 Ang^3
#
#
#
# Elastic Constant Matrix: (Units=GPa)
#
#
# Indices 1 2 3 4 5 6 
#
# 1 81.7225 30.6126 69.1332 0.0000 0.0000 0.0000
# 2 30.6126 112.8567 26.8893 0.0000 0.0000 0.0000
# 3 69.1332 26.8893 94.7202 0.0000 0.0000 0.0000
# 4 0.0000 0.0000 0.0000 13.5700 0.0000 0.0000
# 5 0.0000 0.0000 0.0000 0.0000 43.2928 0.0000
# 6 0.0000 0.0000 0.0000 0.0000 0.0000 41.0077
#
#
#
# Elastic Compliance Matrix: (Units=1/GPa)
#
#
# Indices 1 2 3 4 5 6 
#
# 1 0.033204 -0.003467 -0.023250 0.000000 0.000000 0.000000
# 2 -0.003467 0.009866 -0.000270 0.000000 0.000000 0.000000
# 3 -0.023250 -0.000270 0.027604 0.000000 0.000000 0.000000
# 4 0.000000 0.000000 0.000000 0.073692 0.000000 0.000000
# 5 0.000000 0.000000 0.000000 0.000000 0.023099 0.000000
# 6 0.000000 0.000000 0.000000 0.000000 0.000000 0.024386
#
#
# Mechanical properties :
#
#
# Convention : Reuss Voigt Hill
#
# Bulk Modulus (GPa) = 59.88630 60.28552 60.08591
# Shear Modulus (GPa) = 19.88948 30.41840 25.15394
#
# Velocity S-wave (km/s) = 3.35378 4.14754 3.77160
# Velocity P-wave (km/s) = 6.99026 7.55173 7.27641
#
# Compressibility (1/GPa) = 0.01669831
#
# Stress axis : x y z
#
# Youngs Moduli (GPa) = 30.11724 101.36232 36.22724
#
# Poissons Ratio (x) = 0.35142 0.84228
# Poissons Ratio (y) = 0.10442 0.00979
# Poissons Ratio (z) = 0.70023 0.02739
#
# Static dielectric constant tensor:
#      x y z
#    x 1.579870 0.000000 0.000000 
#    y 0.000000 1.599800 0.000000 
#    z 0.000000 0.000000 1.573660 
# 
# From -- ./inp_files/31640.got.cif
#   From: 2010.05.17/outbox.cif.g08.bks.cpg/sg24_16_cif.got.tgz:31640.got - 2010.06.04 00:33:39.
