data_PCOD9333191
_publ_section_title
;
Structure prediction by ZEFSAII (Michael W. Deem and Ramdas Pophale) SiO2 
 PCOD9333191
Probable space group: I 21 21 21
;
_chemical_formula_sum "Si O2"
_cell_formula_units_Z 48
_cell_length_a 9.501293
_cell_length_b 8.613687
_cell_length_c 28.730132
_cell_angle_alpha 90.000000
_cell_angle_beta 90.000000
_cell_angle_gamma 90.000000
_cell_volume 2351.307445
_symmetry_space_group_name_H-M "I 21 21 21"
_symmetry_group_IT_number 24
_symmetry_cell_setting 'orthorhombic'
loop_
_space_group_symop_operation_xyz
x,y,z
-x,1/2-y,z
x,-y,1/2-z
1/2-x,y,-z
1/2+x,1/2+y,1/2+z
1/2-x,-y,1/2+z
1/2+x,1/2-y,-z
-x,1/2+y,1/2-z
loop_
_atom_site_type_symbol
_atom_site_label
_atom_site_fract_x
_atom_site_fract_y
_atom_site_fract_z
Si Si1 0.915374 0.983499 0.547009
Si Si2 0.500000 0.250000 0.974703
Si Si3 0.082343 0.996762 0.093702
Si Si4 0.274500 0.446370 0.869960
Si Si5 0.000000 0.750000 0.021011
Si Si6 0.144125 0.095234 0.872191
Si Si7 0.442425 0.427887 0.301041
O O1 0.047465 0.938649 0.581624
O O2 0.906271 0.849422 0.509194
O O3 0.785093 0.002843 0.580707
O O4 0.928797 0.133279 0.514974
O O5 0.591826 0.356118 0.940971
O O6 0.941638 0.029634 0.123954
O O7 0.218860 0.989027 0.124838
O O8 0.083572 0.855723 0.057559
O O9 0.207330 0.270554 0.866635
O O10 0.203353 0.548739 0.829546
O O11 0.050439 0.037773 0.829537
O O12 0.500000 0.250000 0.300942
O O13 0.427515 0.500000 0.250000
#
# Coordination Sequence:
#
# PCOD9333191 Si02
#       7
#     8   4   8   8   4   8   8
#     4  10  21  35  58  82 124 174 224 264 294 337
#     4  10  18  36  54  88 118 182 220 250 284 354
#     4  11  24  37  60  89 133 172 207 255 313 358
#     4  11  22  41  65  92 127 162 210 257 314 367
#     4  10  26  36  52  86 130 174 228 262 296 358
#     4  11  22  41  65  92 127 162 210 257 314 367
#     4  11  25  46  75  98 119 152 197 251 311 383
#
# _framework density 20.414173999999999
#
# number of rings (size 3 to 8) (size 9 to 14) (size 15 to 20)
#    0.000    1.333    3.333    2.500    7.000    8.000 
#    0.000    0.833    0.000    0.000    0.000    0.000 
#    0.000    0.000    0.000    0.000    0.000    0.000 
#
# Total GULP energy -133912.471240 kJ/mol
# GULP energy per Si atom -5579.686302 kJ/mol
# Density = 2.036771 g / cm^3
# Si number density = 20.414174 Si / 1000 Ang^3
#
#
#
# Elastic Constant Matrix: (Units=GPa)
#
#
# Indices 1 2 3 4 5 6 
#
# 1 113.0655 2.0512 41.7820 0.0000 0.0000 0.0000
# 2 2.0512 91.7009 33.3735 0.0000 0.0000 0.0000
# 3 41.7820 33.3735 126.6609 0.0000 0.0000 0.0000
# 4 0.0000 0.0000 0.0000 28.1377 0.0000 0.0000
# 5 0.0000 0.0000 0.0000 0.0000 -18.1720 0.0000
# 6 0.0000 0.0000 0.0000 0.0000 0.0000 -3.0431
#
#
#
# Elastic Compliance Matrix: (Units=1/GPa)
#
#
# Indices 1 2 3 4 5 6 
#
# 1 0.010171 0.001099 -0.003645 0.000000 0.000000 0.000000
# 2 0.001099 0.012180 -0.003572 0.000000 0.000000 0.000000
# 3 -0.003645 -0.003572 0.010039 0.000000 0.000000 0.000000
# 4 0.000000 0.000000 0.000000 0.035540 0.000000 0.000000
# 5 0.000000 0.000000 0.000000 0.000000 -0.055030 0.000000
# 6 0.000000 0.000000 0.000000 0.000000 0.000000 -0.328609
#
#
# Mechanical properties :
#
#
# Convention : Reuss Voigt Hill
#
# Bulk Modulus (GPa) = 49.61584 53.98230 51.79907
# Shear Modulus (GPa) = -16.84892 18.33254 0.74181
#
# Velocity S-wave (km/s) = -2.87601 2.99997 0.60346
# Velocity P-wave (km/s) = 3.65086 6.20489 5.09065
#
# Compressibility (1/GPa) = 0.02015485
#
# Stress axis : x y z
#
# Youngs Moduli (GPa) = 98.31484 82.09923 99.61567
#
# Poissons Ratio (x) = -0.09023 0.36308
# Poissons Ratio (y) = -0.10805 0.35582
# Poissons Ratio (z) = 0.35834 0.29325
#
# Static dielectric constant tensor:
#      x y z
#    x 1.782590 0.000000 0.000000 
#    y 0.000000 1.898030 0.000000 
#    z 0.000000 0.000000 1.671960 
# 
# From -- ./inp_files/38311.got.cif
#   From: 2010.05.17/outbox.cif.g08.bks.cpg/sg24_20_cif.got.tgz:38311.got - 2010.06.04 00:33:39.
