data_PCOD9333403
_publ_section_title
;
Structure prediction by ZEFSAII (Michael W. Deem and Ramdas Pophale) SiO2 
 PCOD9333403
Probable space group: I 21 21 21
;
_chemical_formula_sum "Si O2"
_cell_formula_units_Z 64
_cell_length_a 18.969734
_cell_length_b 10.434753
_cell_length_c 19.308275
_cell_angle_alpha 90.000000
_cell_angle_beta 90.000000
_cell_angle_gamma 90.000000
_cell_volume 3821.966624
_symmetry_space_group_name_H-M "I 21 21 21"
_symmetry_group_IT_number 24
_symmetry_cell_setting 'orthorhombic'
loop_
_space_group_symop_operation_xyz
x,y,z
-x,1/2-y,z
x,-y,1/2-z
1/2-x,y,-z
1/2+x,1/2+y,1/2+z
1/2-x,-y,1/2+z
1/2+x,1/2-y,-z
-x,1/2+y,1/2-z
loop_
_atom_site_type_symbol
_atom_site_label
_atom_site_fract_x
_atom_site_fract_y
_atom_site_fract_z
Si Si1 0.282883 0.010458 0.667274
Si Si2 0.274018 0.757573 0.396022
Si Si3 0.128370 0.738445 0.483504
Si Si4 0.580794 0.264557 0.488904
Si Si5 0.277106 0.746477 0.081318
Si Si6 0.074547 0.011763 0.084903
Si Si7 0.774286 0.000611 0.167592
Si Si8 0.084127 0.483475 0.414712
O O1 0.254186 0.136636 0.627047
O O2 0.363461 0.993780 0.641118
O O3 0.281642 0.000000 0.750000
O O4 0.236389 0.890814 0.642174
O O5 0.203229 0.747820 0.443230
O O6 0.346230 0.756850 0.438527
O O7 0.267039 0.629265 0.352319
O O8 0.095748 0.600495 0.468090
O O9 0.081127 0.852446 0.453910
O O10 0.500000 0.250000 0.465152
O O11 0.639034 0.257330 0.429497
O O12 0.588011 0.398203 0.529867
O O13 0.593619 0.149805 0.544325
O O14 0.257356 0.617439 0.122930
O O15 0.250000 0.747191 0.000000
O O16 0.995634 0.991238 0.112677
O O17 0.855830 0.002603 0.142516
O O18 0.772204 0.000000 0.250000
#
# Coordination Sequence:
#
# PCOD9333403 Si02
#       8
#     8   8   8   8   8   8   8   8
#     4  11  22  35  53  82 115 148 184 225 273 331
#     4   9  19  31  51  71 103 134 180 225 273 306
#     4   9  17  30  49  72  96 134 177 226 262 307
#     4  10  20  34  56  85 109 137 185 237 278 320
#     4  12  21  37  62  82 109 150 191 234 274 323
#     4  10  19  32  50  77 112 146 179 217 269 328
#     4  11  22  35  53  82 115 148 184 225 273 331
#     4  10  19  32  50  77 112 146 179 217 269 328
#
# _framework density 16.745305999999999
#
# number of rings (size 3 to 8) (size 9 to 14) (size 15 to 20)
#    0.000    1.750    2.500    2.625    3.500    0.500 
#    0.000    0.000    0.000    6.750    0.000    3.500 
#    0.000    0.000    0.000    0.000    0.000    0.000 
#
# Total GULP energy -178318.322084 kJ/mol
# GULP energy per Si atom -5572.447565 kJ/mol
# Density = 1.670719 g / cm^3
# Si number density = 16.745306 Si / 1000 Ang^3
#
#
#
# Elastic Constant Matrix: (Units=GPa)
#
#
# Indices 1 2 3 4 5 6 
#
# 1 47.2981 -16.5905 25.0070 0.0000 0.0000 0.0000
# 2 -16.5905 66.4758 6.8565 0.0000 0.0000 0.0000
# 3 25.0070 6.8565 77.0798 0.0000 0.0000 0.0000
# 4 0.0000 0.0000 0.0000 -10.5393 0.0000 0.0000
# 5 0.0000 0.0000 0.0000 0.0000 17.3698 0.0000
# 6 0.0000 0.0000 0.0000 0.0000 0.0000 20.4722
#
#
#
# Elastic Compliance Matrix: (Units=1/GPa)
#
#
# Indices 1 2 3 4 5 6 
#
# 1 0.029577 0.008449 -0.010347 0.000000 0.000000 0.000000
# 2 0.008449 0.017596 -0.004306 0.000000 0.000000 0.000000
# 3 -0.010347 -0.004306 0.016714 0.000000 0.000000 0.000000
# 4 0.000000 0.000000 0.000000 -0.094883 0.000000 0.000000
# 5 0.000000 0.000000 0.000000 0.000000 0.057571 0.000000
# 6 0.000000 0.000000 0.000000 0.000000 0.000000 0.048847
#
#
# Mechanical properties :
#
#
# Convention : Reuss Voigt Hill
#
# Bulk Modulus (GPa) = 19.42624 24.59997 22.01311
# Shear Modulus (GPa) = 47.62388 17.16590 32.39489
#
# Velocity S-wave (km/s) = 5.33871 3.20522 4.40314
# Velocity P-wave (km/s) = 7.04476 5.33108 6.24697
#
# Compressibility (1/GPa) = 0.05147676
#
# Stress axis : x y z
#
# Youngs Moduli (GPa) = 33.81050 56.83175 59.83177
#
# Poissons Ratio (x) = -0.48016 0.61908
# Poissons Ratio (y) = -0.28566 0.25765
# Poissons Ratio (z) = 0.34984 0.24473
#
# Static dielectric constant tensor:
#      x y z
#    x 1.576370 0.000000 0.000000 
#    y 0.000000 1.568480 0.000000 
#    z 0.000000 0.000000 1.483610 
# 
# From -- ./inp_files/31426.got.cif
#   From: 2010.05.17/outbox.cif.g08.bks.cpg/sg24_16_cif.got.tgz:31426.got - 2010.06.04 00:33:39.
