data_PCOD9333834
_publ_section_title
;
Structure prediction by ZEFSAII (Michael W. Deem and Ramdas Pophale) SiO2 
 PCOD9333834
Probable space group: I 21 21 21
;
_chemical_formula_sum "Si O2"
_cell_formula_units_Z 48
_cell_length_a 9.640882
_cell_length_b 15.478769
_cell_length_c 15.810138
_cell_angle_alpha 90.000000
_cell_angle_beta 90.000000
_cell_angle_gamma 90.000000
_cell_volume 2359.330853
_symmetry_space_group_name_H-M "I 21 21 21"
_symmetry_group_IT_number 24
_symmetry_cell_setting 'orthorhombic'
loop_
_space_group_symop_operation_xyz
x,y,z
-x,1/2-y,z
x,-y,1/2-z
1/2-x,y,-z
1/2+x,1/2+y,1/2+z
1/2-x,-y,1/2+z
1/2+x,1/2-y,-z
-x,1/2+y,1/2-z
loop_
_atom_site_type_symbol
_atom_site_label
_atom_site_fract_x
_atom_site_fract_y
_atom_site_fract_z
Si Si1 0.469250 0.494949 0.351299
Si Si2 0.588480 0.168675 0.039676
Si Si3 0.053427 0.158433 0.273786
Si Si4 0.749789 0.592054 0.910110
Si Si5 0.315217 0.548382 0.840982
Si Si6 0.540211 0.564859 0.599023
O O1 0.490482 0.500000 0.250000
O O2 0.425241 0.587182 0.394290
O O3 0.604150 0.450559 0.388565
O O4 0.338544 0.432523 0.368188
O O5 0.500000 0.250000 0.078030
O O6 0.750000 0.180604 0.000000
O O7 0.482861 0.142638 0.963935
O O8 0.185741 0.149026 0.334387
O O9 0.000000 0.250000 0.242083
O O10 0.922926 0.124315 0.327857
O O11 0.073529 0.097250 0.193091
O O12 0.649142 0.508926 0.921897
O O13 0.750000 0.639508 0.000000
O O14 0.304347 0.500000 0.750000
O O15 0.390762 0.481268 0.901588
#
# Coordination Sequence:
#
# PCOD9333834 Si02
#       6
#     8   8   8   8   8   8
#     4  11  22  42  62  89 130 176 219 258 319 402
#     4  12  26  41  66 106 141 168 205 277 344 394
#     4  10  21  40  63  94 125 166 224 275 323 385
#     4  11  22  39  66  91 123 171 226 272 316 389
#     4   8  17  35  62  83 114 165 213 247 306 393
#     4  10  19  40  64  92 128 169 211 257 329 409
#
# _framework density 20.344750999999999
#
# number of rings (size 3 to 8) (size 9 to 14) (size 15 to 20)
#    0.000    1.667    3.333    3.000    2.333    0.000 
#    3.000    2.500    0.000    0.000    0.000    0.000 
#    0.000    0.000    0.000    0.000    0.000    0.000 
#
# Total GULP energy -133605.555028 kJ/mol
# GULP energy per Si atom -5566.898126 kJ/mol
# Density = 2.029845 g / cm^3
# Si number density = 20.344751 Si / 1000 Ang^3
#
#
#
# Elastic Constant Matrix: (Units=GPa)
#
#
# Indices 1 2 3 4 5 6 
#
# 1 113.2127 -9.8025 12.9713 0.0000 0.0000 0.0000
# 2 -9.8025 16.0954 -2.8468 0.0000 0.0000 0.0000
# 3 12.9713 -2.8468 88.3726 0.0000 0.0000 0.0000
# 4 0.0000 0.0000 0.0000 22.5300 0.0000 0.0000
# 5 0.0000 0.0000 0.0000 0.0000 21.7249 0.0000
# 6 0.0000 0.0000 0.0000 0.0000 0.0000 13.8666
#
#
#
# Elastic Compliance Matrix: (Units=1/GPa)
#
#
# Indices 1 2 3 4 5 6 
#
# 1 0.009451 0.005542 -0.001209 0.000000 0.000000 0.000000
# 2 0.005542 0.065736 0.001304 0.000000 0.000000 0.000000
# 3 -0.001209 0.001304 0.011535 0.000000 0.000000 0.000000
# 4 0.000000 0.000000 0.000000 0.044385 0.000000 0.000000
# 5 0.000000 0.000000 0.000000 0.000000 0.046030 0.000000
# 6 0.000000 0.000000 0.000000 0.000000 0.000000 0.072116
#
#
# Mechanical properties :
#
#
# Convention : Reuss Voigt Hill
#
# Bulk Modulus (GPa) = 10.20434 24.25830 17.23132
# Shear Modulus (GPa) = 18.47449 26.11490 22.29469
#
# Velocity S-wave (km/s) = 3.01669 3.58665 3.31395
# Velocity P-wave (km/s) = 4.14252 5.39459 4.80947
#
# Compressibility (1/GPa) = 0.09799753
#
# Stress axis : x y z
#
# Youngs Moduli (GPa) = 105.80556 15.21242 86.69160
#
# Poissons Ratio (x) = -0.08431 0.10479
# Poissons Ratio (y) = -0.58641 -0.11305
# Poissons Ratio (z) = 0.12789 -0.01984
#
# Static dielectric constant tensor:
#      x y z
#    x 1.745760 0.000000 0.000000 
#    y 0.000000 1.780860 0.000000 
#    z 0.000000 0.000000 1.816890 
# 
# From -- ./inp_files/14193.got.cif
#   From: 2010.05.17/outbox.cif.g08.bks.cpg/sg24_8_cif.got.tgz:14193.got - 2010.06.04 00:33:39.
