data_PCOD9333532
_publ_section_title
;
Structure prediction by ZEFSAII (Michael W. Deem and Ramdas Pophale) SiO2 
 PCOD9333532
Probable space group: I 21 21 21
;
_chemical_formula_sum "Si O2"
_cell_formula_units_Z 64
_cell_length_a 23.757246
_cell_length_b 15.792699
_cell_length_c 9.030214
_cell_angle_alpha 90.000000
_cell_angle_beta 90.000000
_cell_angle_gamma 90.000000
_cell_volume 3388.055338
_symmetry_space_group_name_H-M "I 21 21 21"
_symmetry_group_IT_number 24
_symmetry_cell_setting 'orthorhombic'
loop_
_space_group_symop_operation_xyz
x,y,z
-x,1/2-y,z
x,-y,1/2-z
1/2-x,y,-z
1/2+x,1/2+y,1/2+z
1/2-x,-y,1/2+z
1/2+x,1/2-y,-z
-x,1/2+y,1/2-z
loop_
_atom_site_type_symbol
_atom_site_label
_atom_site_fract_x
_atom_site_fract_y
_atom_site_fract_z
Si Si1 0.783490 0.086343 0.654278
Si Si2 0.728585 0.743643 0.333514
Si Si3 0.916143 0.087189 0.655319
Si Si4 0.223077 0.916469 0.163013
Si Si5 0.121583 0.034848 0.507841
Si Si6 0.007612 0.492562 0.424338
Si Si7 0.875567 0.370185 0.815986
Si Si8 0.995223 0.841823 0.610617
O O1 0.750000 0.079617 0.500000
O O2 0.764249 0.168825 0.745933
O O3 0.850375 0.100791 0.629045
O O4 0.776807 0.000000 0.750000
O O5 0.750000 0.753055 0.500000
O O6 0.761671 0.667245 0.252747
O O7 0.663701 0.711218 0.334844
O O8 0.949522 0.071382 0.503720
O O9 0.949488 0.154257 0.757283
O O10 0.921371 0.000000 0.750000
O O11 0.243108 0.000000 0.250000
O O12 0.250000 0.913420 0.000000
O O13 0.157308 0.929624 0.127913
O O14 0.133662 0.090605 0.653561
O O15 0.055768 0.032906 0.470120
O O16 0.139372 0.939887 0.557903
O O17 0.013346 0.500000 0.250000
O O18 0.018401 0.584675 0.495531
O O19 0.942494 0.359345 0.826930
O O20 0.000000 0.750000 0.539751
#
# Coordination Sequence:
#
# PCOD9333532 Si02
#       8
#     8   8   8   8   8   8   8   8
#     4  11  25  46  69  91 119 154 207 268 328 379
#     4  12  25  41  61  89 122 166 215 260 310 371
#     4   9  19  39  64  87 110 154 202 242 301 379
#     4  12  22  34  55  86 128 170 210 245 297 367
#     4  10  19  34  56  89 128 168 201 240 297 367
#     4  10  20  36  61  91 125 159 197 249 311 369
#     4  10  19  35  60  88 125 162 208 248 299 365
#     4  10  19  36  62  88 117 158 206 248 295 364
#
# _framework density 18.889893000000001
#
# number of rings (size 3 to 8) (size 9 to 14) (size 15 to 20)
#    0.000    1.500    2.500    3.750    0.000    1.500 
#    0.000    3.125    0.000    0.000    0.000    0.000 
#    0.000    0.000    0.000    0.000    0.000    0.000 
#
# Total GULP energy -178685.140529 kJ/mol
# GULP energy per Si atom -5583.910642 kJ/mol
# Density = 1.884690 g / cm^3
# Si number density = 18.889893 Si / 1000 Ang^3
#
#
#
# Elastic Constant Matrix: (Units=GPa)
#
#
# Indices 1 2 3 4 5 6 
#
# 1 97.2933 41.0862 62.7348 0.0000 0.0000 0.0000
# 2 41.0862 117.8349 61.4907 0.0000 0.0000 0.0000
# 3 62.7348 61.4907 147.8410 0.0000 0.0000 0.0000
# 4 0.0000 0.0000 0.0000 25.8479 0.0000 0.0000
# 5 0.0000 0.0000 0.0000 0.0000 26.4532 0.0000
# 6 0.0000 0.0000 0.0000 0.0000 0.0000 14.9624
#
#
#
# Elastic Compliance Matrix: (Units=1/GPa)
#
#
# Indices 1 2 3 4 5 6 
#
# 1 0.014655 -0.002382 -0.005228 0.000000 0.000000 0.000000
# 2 -0.002382 0.011226 -0.003659 0.000000 0.000000 0.000000
# 3 -0.005228 -0.003659 0.010504 0.000000 0.000000 0.000000
# 4 0.000000 0.000000 0.000000 0.038688 0.000000 0.000000
# 5 0.000000 0.000000 0.000000 0.000000 0.037803 0.000000
# 6 0.000000 0.000000 0.000000 0.000000 0.000000 0.066834
#
#
# Mechanical properties :
#
#
# Convention : Reuss Voigt Hill
#
# Bulk Modulus (GPa) = 72.20923 77.06583 74.63753
# Shear Modulus (GPa) = 24.17060 26.62986 25.40023
#
# Velocity S-wave (km/s) = 3.58096 3.75873 3.67092
# Velocity P-wave (km/s) = 7.44359 7.72809 7.58717
#
# Compressibility (1/GPa) = 0.01384865
#
# Stress axis : x y z
#
# Youngs Moduli (GPa) = 68.23589 89.07858 95.19986
#
# Poissons Ratio (x) = 0.21215 0.49772
# Poissons Ratio (y) = 0.16251 0.34830
# Poissons Ratio (z) = 0.35675 0.32590
#
# Static dielectric constant tensor:
#      x y z
#    x 1.698360 0.000000 0.000000 
#    y 0.000000 1.662590 0.000000 
#    z 0.000000 0.000000 1.623470 
# 
# From -- ./inp_files/16062.got.cif
#   From: 2010.05.17/outbox.cif.g08.bks.cpg/sg24_9_cif.got.tgz:16062.got - 2010.06.04 00:33:39.
