data_PCOD9333996
_publ_section_title
;
Structure prediction by ZEFSAII (Michael W. Deem and Ramdas Pophale) SiO2 
 PCOD9333996
Probable space group: I 21 21 21
;
_chemical_formula_sum "Si O2"
_cell_formula_units_Z 36
_cell_length_a 7.632172
_cell_length_b 19.469801
_cell_length_c 8.438800
_cell_angle_alpha 90.000000
_cell_angle_beta 90.000000
_cell_angle_gamma 90.000000
_cell_volume 1253.979267
_symmetry_space_group_name_H-M "I 21 21 21"
_symmetry_group_IT_number 24
_symmetry_cell_setting 'orthorhombic'
loop_
_space_group_symop_operation_xyz
x,y,z
-x,1/2-y,z
x,-y,1/2-z
1/2-x,y,-z
1/2+x,1/2+y,1/2+z
1/2-x,-y,1/2+z
1/2+x,1/2-y,-z
-x,1/2+y,1/2-z
loop_
_atom_site_type_symbol
_atom_site_label
_atom_site_fract_x
_atom_site_fract_y
_atom_site_fract_z
Si Si1 0.913562 0.650955 0.242801
Si Si2 0.000000 0.250000 0.981971
Si Si3 0.066572 0.524498 0.573253
Si Si4 0.000000 0.250000 0.503764
Si Si5 0.344967 0.000000 0.750000
Si Si6 0.316320 0.340035 0.244573
O O1 0.800006 0.582322 0.228754
O O2 0.121438 0.635407 0.212611
O O3 0.934261 0.687107 0.411490
O O4 0.870017 0.711546 0.119932
O O5 0.846098 0.225409 0.866398
O O6 0.003683 0.500000 0.750000
O O7 0.250000 0.495868 0.500000
O O8 0.938295 0.512230 0.425374
O O9 0.110202 0.600803 0.630887
O O10 0.925645 0.186419 0.605324
#
# Coordination Sequence:
#
# PCOD9333996 Si02
#       6
#     8   4   8   4   4   8
#     4  11  21  38  58  89 125 159 196 257 311 369
#     4  10  20  34  56  82 120 164 206 226 300 384
#     4  12  20  31  53  87 125 162 188 233 315 390
#     4  10  24  36  56  84 122 168 214 240 300 386
#     4  12  22  36  60  94 132 162 192 254 340 386
#     4  11  20  37  55  83 126 162 199 248 301 368
#
# _framework density 28.708611000000001
#
# number of rings (size 3 to 8) (size 9 to 14) (size 15 to 20)
#    0.000    0.889    5.556    2.667    0.000    0.000 
#    0.000    0.000    0.000    0.000    0.000   24.889 
#    6.667    0.000    0.000    0.000    0.000    0.000 
#
# Total GULP energy -100409.383643 kJ/mol
# GULP energy per Si atom -5578.299091 kJ/mol
# Density = 2.864327 g / cm^3
# Si number density = 28.708611 Si / 1000 Ang^3
#
#
#
# Elastic Constant Matrix: (Units=GPa)
#
#
# Indices 1 2 3 4 5 6 
#
# 1 60.1193 33.3101 10.2771 0.0001 -0.0001 0.0001
# 2 33.3101 155.2751 41.7875 0.0001 -0.0001 0.0000
# 3 10.2771 41.7875 201.1113 0.0009 -0.0007 0.0005
# 4 0.0001 0.0001 0.0009 -28.3787 0.0004 -0.0002
# 5 -0.0001 -0.0001 -0.0007 0.0004 39.2075 -0.0001
# 6 0.0001 0.0000 0.0005 -0.0002 -0.0001 19.3636
#
#
#
# Elastic Compliance Matrix: (Units=1/GPa)
#
#
# Indices 1 2 3 4 5 6 
#
# 1 0.018881 -0.004015 -0.000131 0.000000 0.000000 0.000000
# 2 -0.004015 0.007676 -0.001390 0.000000 0.000000 0.000000
# 3 -0.000131 -0.001390 0.005268 0.000000 0.000000 0.000000
# 4 0.000000 0.000000 0.000000 -0.035238 0.000000 0.000000
# 5 0.000000 0.000000 0.000000 0.000000 0.025505 0.000000
# 6 0.000000 0.000000 0.000000 0.000000 0.000000 0.051643
#
#
# Mechanical properties :
#
#
# Convention : Reuss Voigt Hill
#
# Bulk Modulus (GPa) = 48.18553 65.25059 56.71806
# Shear Modulus (GPa) = 54.51169 28.11387 41.31278
#
# Velocity S-wave (km/s) = 4.36224 3.13275 3.79758
# Velocity P-wave (km/s) = 6.49561 5.98860 6.24725
#
# Compressibility (1/GPa) = 0.02075312
#
# Stress axis : x y z
#
# Youngs Moduli (GPa) = 52.96438 130.28436 189.83299
#
# Poissons Ratio (x) = 0.52312 0.02478
# Poissons Ratio (y) = 0.21266 0.26380
# Poissons Ratio (z) = 0.00691 0.18105
#
# Static dielectric constant tensor:
#      x y z
#    x 2.721300 0.000000 0.000000 
#    y 0.000000 2.217640 0.000000 
#    z 0.000000 0.000000 2.223760 
# 
# From -- ./inp_files/10977.got.cif
#   From: 2010.05.17/outbox.cif.g08.bks.cpg/sg24_6_cif.got.tgz:10977.got - 2010.06.04 00:33:39.
