data_PCOD9333444
_publ_section_title
;
Structure prediction by ZEFSAII (Michael W. Deem and Ramdas Pophale) SiO2 
 PCOD9333444
Probable space group: I 21 21 21
;
_chemical_formula_sum "Si O2"
_cell_formula_units_Z 36
_cell_length_a 23.527104
_cell_length_b 5.352764
_cell_length_c 15.061603
_cell_angle_alpha 90.000000
_cell_angle_beta 90.000000
_cell_angle_gamma 90.000000
_cell_volume 1896.783506
_symmetry_space_group_name_H-M "I 21 21 21"
_symmetry_group_IT_number 24
_symmetry_cell_setting 'orthorhombic'
loop_
_space_group_symop_operation_xyz
x,y,z
-x,1/2-y,z
x,-y,1/2-z
1/2-x,y,-z
1/2+x,1/2+y,1/2+z
1/2-x,-y,1/2+z
1/2+x,1/2-y,-z
-x,1/2+y,1/2-z
loop_
_atom_site_type_symbol
_atom_site_label
_atom_site_fract_x
_atom_site_fract_y
_atom_site_fract_z
Si Si1 0.136282 0.500000 0.250000
Si Si2 0.303399 0.499469 0.433526
Si Si3 0.260870 0.002355 0.354187
Si Si4 0.552508 0.386690 0.842237
Si Si5 0.150841 0.213222 0.416318
O O1 0.097829 0.691424 0.304462
O O2 0.168881 0.362189 0.327377
O O3 0.250000 0.501289 0.500000
O O4 0.298648 0.761402 0.382391
O O5 0.352093 0.405391 0.502021
O O6 0.294546 0.258540 0.371726
O O7 0.246389 0.000000 0.250000
O O8 0.203140 0.014036 0.415997
O O9 0.500000 0.250000 0.888999
O O10 0.528219 0.500000 0.750000
O O11 0.590294 0.584564 0.896356
#
# Coordination Sequence:
#
# PCOD9333444 Si02
#       5
#     4   8   8   8   8
#     4  10  20  32  56  70 118 146 206 226 290 340
#     4  10  22  35  53  75 110 144 192 245 287 335
#     4  11  22  36  54  77 107 148 198 240 293 343
#     4  10  19  33  50  78 110 156 200 244 280 335
#     4  10  23  33  53  79 108 156 200 240 291 344
#
# _framework density 18.979499000000001
#
# number of rings (size 3 to 8) (size 9 to 14) (size 15 to 20)
#    0.000    1.778    1.111    4.667   15.556    0.000 
#    0.000    0.000    0.000    0.000    0.000    0.000 
#    0.000    0.000    7.556    0.222    0.000    0.444 
#
# Total GULP energy -100290.111215 kJ/mol
# GULP energy per Si atom -5571.672845 kJ/mol
# Density = 1.893630 g / cm^3
# Si number density = 18.979499 Si / 1000 Ang^3
#
#
#
# Elastic Constant Matrix: (Units=GPa)
#
#
# Indices 1 2 3 4 5 6 
#
# 1 44.4272 18.3391 13.9723 0.0000 0.0000 0.0000
# 2 18.3391 120.4262 30.8958 0.0000 0.0000 0.0000
# 3 13.9723 30.8958 57.6390 0.0000 0.0000 0.0000
# 4 0.0000 0.0000 0.0000 33.2637 0.0000 0.0000
# 5 0.0000 0.0000 0.0000 0.0000 14.6356 0.0000
# 6 0.0000 0.0000 0.0000 0.0000 0.0000 31.4877
#
#
#
# Elastic Compliance Matrix: (Units=1/GPa)
#
#
# Indices 1 2 3 4 5 6 
#
# 1 0.025058 -0.002618 -0.004671 0.000000 0.000000 0.000000
# 2 -0.002618 0.009901 -0.004673 0.000000 0.000000 0.000000
# 3 -0.004671 -0.004673 0.020986 0.000000 0.000000 0.000000
# 4 0.000000 0.000000 0.000000 0.030063 0.000000 0.000000
# 5 0.000000 0.000000 0.000000 0.000000 0.068327 0.000000
# 6 0.000000 0.000000 0.000000 0.000000 0.000000 0.031758
#
#
# Mechanical properties :
#
#
# Convention : Reuss Voigt Hill
#
# Bulk Modulus (GPa) = 31.22781 38.76743 34.99762
# Shear Modulus (GPa) = 22.65606 26.49641 24.57624
#
# Velocity S-wave (km/s) = 3.45876 3.74043 3.60235
# Velocity P-wave (km/s) = 5.69560 6.25498 5.98183
#
# Compressibility (1/GPa) = 0.03202274
#
# Stress axis : x y z
#
# Youngs Moduli (GPa) = 39.90680 100.99702 47.64976
#
# Poissons Ratio (x) = 0.26437 0.22259
# Poissons Ratio (y) = 0.10446 0.22266
# Poissons Ratio (z) = 0.18642 0.47194
#
# Static dielectric constant tensor:
#      x y z
#    x 1.711900 0.000000 0.000000 
#    y 0.000000 1.848410 0.000000 
#    z 0.000000 0.000000 1.712230 
# 
# From -- ./inp_files/3468.got.cif
#   From: 2010.05.17/outbox.cif.g08.bks.cpg/sg24_2_cif.got.tgz:3468.got - 2010.06.04 00:33:39.
