data_PCOD9333211
_publ_section_title
;
Structure prediction by ZEFSAII (Michael W. Deem and Ramdas Pophale) SiO2 
 PCOD9333211
Probable space group: I 21 21 21
;
_chemical_formula_sum "Si O2"
_cell_formula_units_Z 52
_cell_length_a 7.981058
_cell_length_b 16.103240
_cell_length_c 18.543661
_cell_angle_alpha 90.000000
_cell_angle_beta 90.000000
_cell_angle_gamma 90.000000
_cell_volume 2383.247861
_symmetry_space_group_name_H-M "I 21 21 21"
_symmetry_group_IT_number 24
_symmetry_cell_setting 'orthorhombic'
loop_
_space_group_symop_operation_xyz
x,y,z
-x,1/2-y,z
x,-y,1/2-z
1/2-x,y,-z
1/2+x,1/2+y,1/2+z
1/2-x,-y,1/2+z
1/2+x,1/2-y,-z
-x,1/2+y,1/2-z
loop_
_atom_site_type_symbol
_atom_site_label
_atom_site_fract_x
_atom_site_fract_y
_atom_site_fract_z
Si Si1 0.069132 0.840094 0.962266
Si Si2 0.642473 0.179676 0.068525
Si Si3 0.942709 0.936352 0.184684
Si Si4 0.849354 0.991190 0.907797
Si Si5 0.679176 0.795519 0.717394
Si Si6 0.014933 0.000000 0.750000
Si Si7 0.206950 0.149457 0.693872
O O1 0.110699 0.829657 0.878209
O O2 0.000000 0.750000 0.990071
O O3 0.935227 0.917019 0.954885
O O4 0.250000 0.859235 0.000000
O O5 0.500000 0.250000 0.077615
O O6 0.753106 0.179121 0.140597
O O7 0.604808 0.080943 0.057909
O O8 0.750000 0.206728 0.000000
O O9 0.845288 0.972276 0.114982
O O10 0.827446 0.870566 0.226589
O O11 0.112099 0.885992 0.168313
O O12 0.981427 0.000000 0.250000
O O13 0.921444 0.998167 0.826168
O O14 0.500000 0.750000 0.709455
O O15 0.789777 0.728429 0.756286
O O16 0.128627 0.080219 0.744552
#
# Coordination Sequence:
#
# PCOD9333211 Si02
#       7
#     8   8   8   8   8   4   8
#     4  11  27  47  68  99 134 179 224 282 346 419
#     4  12  26  43  61  88 128 176 221 271 325 394
#     4  11  19  37  66 101 130 167 214 280 326 397
#     4  11  23  41  68  96 131 174 224 275 346 404
#     4  10  21  38  63  95 126 166 213 262 325 387
#     4  10  18  36  62  96 128 162 214 278 324 396
#     4  10  22  38  66  99 134 169 218 274 339 391
#
# _framework density 21.818964000000001
#
# number of rings (size 3 to 8) (size 9 to 14) (size 15 to 20)
#    0.000    1.231    3.077    2.308    0.000    8.615 
#    0.000    0.000    0.000    0.000    0.000    0.000 
#    0.000    0.000    0.000    0.000    0.000    0.000 
#
# Total GULP energy -145054.385220 kJ/mol
# GULP energy per Si atom -5579.014816 kJ/mol
# Density = 2.176930 g / cm^3
# Si number density = 21.818964 Si / 1000 Ang^3
#
#
#
# Elastic Constant Matrix: (Units=GPa)
#
#
# Indices 1 2 3 4 5 6 
#
# 1 60.9816 22.3365 20.2193 0.0000 0.0000 0.0000
# 2 22.3365 114.1712 25.2107 0.0000 0.0000 0.0000
# 3 20.2193 25.2107 65.1512 0.0000 0.0000 0.0000
# 4 0.0000 0.0000 0.0000 22.1688 0.0000 0.0000
# 5 0.0000 0.0000 0.0000 0.0000 42.1535 0.0000
# 6 0.0000 0.0000 0.0000 0.0000 0.0000 43.4923
#
#
#
# Elastic Compliance Matrix: (Units=1/GPa)
#
#
# Indices 1 2 3 4 5 6 
#
# 1 0.018979 -0.002638 -0.004869 0.000000 0.000000 0.000000
# 2 -0.002638 0.009944 -0.003029 0.000000 0.000000 0.000000
# 3 -0.004869 -0.003029 0.018032 0.000000 0.000000 0.000000
# 4 0.000000 0.000000 0.000000 0.045108 0.000000 0.000000
# 5 0.000000 0.000000 0.000000 0.000000 0.023723 0.000000
# 6 0.000000 0.000000 0.000000 0.000000 0.000000 0.022993
#
#
# Mechanical properties :
#
#
# Convention : Reuss Voigt Hill
#
# Bulk Modulus (GPa) = 38.63629 41.75965 40.19797
# Shear Modulus (GPa) = 29.67729 33.06542 31.37136
#
# Velocity S-wave (km/s) = 3.69204 3.89709 3.79595
# Velocity P-wave (km/s) = 5.99341 6.27937 6.13806
#
# Compressibility (1/GPa) = 0.02588240
#
# Stress axis : x y z
#
# Youngs Moduli (GPa) = 52.68959 100.56586 55.45632
#
# Poissons Ratio (x) = 0.26528 0.27003
# Poissons Ratio (y) = 0.13899 0.16799
# Poissons Ratio (z) = 0.25656 0.30463
#
# Static dielectric constant tensor:
#      x y z
#    x 1.873900 0.000000 0.000000 
#    y 0.000000 1.387380 0.000000 
#    z 0.000000 0.000000 1.726450 
# 
# From -- ./inp_files/32781.got.cif
#   From: 2010.05.17/outbox.cif.g08.bks.cpg/sg24_17_cif.got.tgz:32781.got - 2010.06.04 00:33:39.
