data_PCOD9333874
_publ_section_title
;
Structure prediction by ZEFSAII (Michael W. Deem and Ramdas Pophale) SiO2 
 PCOD9333874
Probable space group: I 21 21 21
;
_chemical_formula_sum "Si O2"
_cell_formula_units_Z 48
_cell_length_a 7.459526
_cell_length_b 7.911470
_cell_length_c 38.933184
_cell_angle_alpha 90.000000
_cell_angle_beta 90.000000
_cell_angle_gamma 90.000000
_cell_volume 2297.673630
_symmetry_space_group_name_H-M "I 21 21 21"
_symmetry_group_IT_number 24
_symmetry_cell_setting 'orthorhombic'
loop_
_space_group_symop_operation_xyz
x,y,z
-x,1/2-y,z
x,-y,1/2-z
1/2-x,y,-z
1/2+x,1/2+y,1/2+z
1/2-x,-y,1/2+z
1/2+x,1/2-y,-z
-x,1/2+y,1/2-z
loop_
_atom_site_type_symbol
_atom_site_label
_atom_site_fract_x
_atom_site_fract_y
_atom_site_fract_z
Si Si1 0.285310 0.559513 0.460429
Si Si2 0.781173 0.058145 0.211722
Si Si3 0.714690 0.440487 0.039571
Si Si4 0.214632 0.250000 0.584495
Si Si5 0.785353 0.250000 0.334911
Si Si6 0.281173 0.058145 0.788278
O O1 0.250000 0.511727 0.500000
O O2 0.500000 0.567644 0.456368
O O3 0.214958 0.750000 0.454949
O O4 0.215835 0.417836 0.434528
O O5 0.722249 0.250000 0.204976
O O6 1.000000 0.059724 0.211274
O O7 0.729000 0.000000 0.250000
O O8 0.719684 0.918563 0.184412
O O9 0.784165 0.582164 0.065472
O O10 0.750000 0.488273 0.000000
O O11 0.247890 0.250000 0.624874
O O12 0.000000 0.250000 0.579610
O O13 0.719684 0.418564 0.315588
O O14 0.000000 0.250000 0.330648
O O15 0.229000 0.000000 0.750000
#
# Coordination Sequence:
#
# PCOD9333874 Si02
#       6
#     8   8   8   8   8   8
#     4   9  18  33  53  75  97 126 164 201 239 283
#     4   9  15  26  46  71  96 120 152 199 249 289
#     4   9  18  33  53  75  97 126 164 201 239 283
#     4  10  21  35  49  68 102 138 162 190 238 295
#     4  10  20  31  47  74  99 124 162 204 243 285
#     4   9  15  26  46  71  96 120 152 199 249 289
#
# _framework density 20.890694
#
# number of rings (size 3 to 8) (size 9 to 14) (size 15 to 20)
#    0.000    2.667    1.667    0.500    0.000    2.667 
#    0.000    0.000    0.000    1.000    0.000    0.000 
#    0.000    0.000    0.000    0.000    0.000    0.000 
#
# Total GULP energy -134010.032378 kJ/mol
# GULP energy per Si atom -5583.751349 kJ/mol
# Density = 2.084315 g / cm^3
# Si number density = 20.890694 Si / 1000 Ang^3
#
#
#
# Elastic Constant Matrix: (Units=GPa)
#
#
# Indices 1 2 3 4 5 6 
#
# 1 61.7518 7.8507 -5.2740 0.0000 0.0000 0.0000
# 2 7.8507 227.1735 153.9809 0.0000 0.0000 0.0000
# 3 -5.2740 153.9809 197.5499 0.0000 0.0000 0.0000
# 4 0.0000 0.0000 0.0000 1076.8965 0.0000 0.0000
# 5 0.0000 0.0000 0.0000 0.0000 12.7565 0.0000
# 6 0.0000 0.0000 0.0000 0.0000 0.0000 -19.7454
#
#
#
# Elastic Compliance Matrix: (Units=1/GPa)
#
#
# Indices 1 2 3 4 5 6 
#
# 1 0.016590 -0.001852 0.001886 0.000000 0.000000 0.000000
# 2 -0.001852 0.009539 -0.007485 0.000000 0.000000 0.000000
# 3 0.001886 -0.007485 0.010946 0.000000 0.000000 0.000000
# 4 0.000000 0.000000 0.000000 0.000929 0.000000 0.000000
# 5 0.000000 0.000000 0.000000 0.000000 0.078391 0.000000
# 6 0.000000 0.000000 0.000000 0.000000 0.000000 -0.050645
#
#
# Mechanical properties :
#
#
# Convention : Reuss Voigt Hill
#
# Bulk Modulus (GPa) = 45.09507 88.84338 66.96922
# Shear Modulus (GPa) = 56.78983 235.97603 146.38293
#
# Velocity S-wave (km/s) = 5.21951 10.63968 8.37992
# Velocity P-wave (km/s) = 7.61298 13.91248 11.21415
#
# Compressibility (1/GPa) = 0.02217538
#
# Stress axis : x y z
#
# Youngs Moduli (GPa) = 60.27573 104.83031 91.35389
#
# Poissons Ratio (x) = 0.19415 -0.17234
# Poissons Ratio (y) = 0.11163 0.68377
# Poissons Ratio (z) = -0.11371 0.78464
#
# Static dielectric constant tensor:
#      x y z
#    x 1.802420 0.000000 0.000000 
#    y 0.000000 1.759140 0.000000 
#    z 0.000000 0.000000 1.683320 
# 
# From -- ./inp_files/38295.got.cif
#   From: 2010.05.17/outbox.cif.g08.bks.cpg/sg24_20_cif.got.tgz:38295.got - 2010.06.04 00:33:39.
