data_PCOD9333046
_publ_section_title
;
Structure prediction by ZEFSAII (Michael W. Deem and Ramdas Pophale) SiO2 
 PCOD9333046
Probable space group: I 21 21 21
;
_chemical_formula_sum "Si O2"
_cell_formula_units_Z 56
_cell_length_a 20.771810
_cell_length_b 23.892802
_cell_length_c 6.000834
_cell_angle_alpha 90.000000
_cell_angle_beta 90.000000
_cell_angle_gamma 90.000000
_cell_volume 2978.194373
_symmetry_space_group_name_H-M "I 21 21 21"
_symmetry_group_IT_number 24
_symmetry_cell_setting 'orthorhombic'
loop_
_space_group_symop_operation_xyz
x,y,z
-x,1/2-y,z
x,-y,1/2-z
1/2-x,y,-z
1/2+x,1/2+y,1/2+z
1/2-x,-y,1/2+z
1/2+x,1/2-y,-z
-x,1/2+y,1/2-z
loop_
_atom_site_type_symbol
_atom_site_label
_atom_site_fract_x
_atom_site_fract_y
_atom_site_fract_z
Si Si1 0.693007 0.064249 0.321584
Si Si2 0.465273 0.000000 0.250000
Si Si3 0.599655 0.127051 0.601106
Si Si4 0.492477 0.904447 0.565068
Si Si5 0.886260 0.441181 0.381948
Si Si6 0.250000 0.032991 0.500000
Si Si7 0.820216 0.169028 0.008876
Si Si8 0.954768 0.803922 0.717061
O O1 0.750000 0.073642 0.500000
O O2 0.626881 0.079094 0.443675
O O3 0.696790 0.000000 0.250000
O O4 0.691570 0.110670 0.126030
O O5 0.423915 0.044814 0.391509
O O6 0.499613 0.961942 0.430348
O O7 0.550740 0.098830 0.766169
O O8 0.657448 0.154373 0.741983
O O9 0.562879 0.174291 0.462174
O O10 0.427030 0.903229 0.712072
O O11 0.504112 0.852426 0.403468
O O12 0.882949 0.500000 0.250000
O O13 0.813057 0.430183 0.450584
O O14 0.239521 0.000000 0.750000
O O15 0.750000 0.198035 0.000000
O O16 0.883693 0.198658 0.901604
O O17 0.000000 0.750000 0.714561
#
# Coordination Sequence:
#
# PCOD9333046 Si02
#       8
#     8   4   8   8   8   4   8   8
#     4  11  22  36  53  84 129 173 207 249 296 370
#     4  10  18  36  54  82 124 154 198 242 310 380
#     4  10  22  40  56  85 121 163 208 261 312 374
#     4  10  21  39  57  88 118 165 204 261 315 382
#     4   9  18  32  54  81 122 158 203 252 302 377
#     4  10  18  32  54  88 120 170 222 254 312 386
#     4  10  20  40  64  89 118 158 214 257 317 377
#     4  10  23  42  64  89 118 160 215 272 326 383
#
# _framework density 18.803339999999999
#
# number of rings (size 3 to 8) (size 9 to 14) (size 15 to 20)
#    0.000    2.000    2.143    1.286    0.000    2.286 
#   38.571    0.000    0.000    3.429    0.000    0.000 
#    0.000    0.000    0.000    0.000    0.000    0.000 
#
# Total GULP energy -155890.006555 kJ/mol
# GULP energy per Si atom -5567.500234 kJ/mol
# Density = 1.876054 g / cm^3
# Si number density = 18.803340 Si / 1000 Ang^3
#
#
#
# Elastic Constant Matrix: (Units=GPa)
#
#
# Indices 1 2 3 4 5 6 
#
# 1 126.3263 58.5862 42.0371 0.0000 0.0000 0.0000
# 2 58.5862 69.4107 35.1101 0.0000 0.0000 0.0000
# 3 42.0371 35.1101 94.0102 0.0000 0.0000 0.0000
# 4 0.0000 0.0000 0.0000 20.7632 0.0000 0.0000
# 5 0.0000 0.0000 0.0000 0.0000 30.8836 0.0000
# 6 0.0000 0.0000 0.0000 0.0000 0.0000 20.3267
#
#
#
# Elastic Compliance Matrix: (Units=1/GPa)
#
#
# Indices 1 2 3 4 5 6 
#
# 1 0.013358 -0.010176 -0.002173 0.000000 0.000000 0.000000
# 2 -0.010176 0.025515 -0.004979 0.000000 0.000000 0.000000
# 3 -0.002173 -0.004979 0.013468 0.000000 0.000000 0.000000
# 4 0.000000 0.000000 0.000000 0.048162 0.000000 0.000000
# 5 0.000000 0.000000 0.000000 0.000000 0.032380 0.000000
# 6 0.000000 0.000000 0.000000 0.000000 0.000000 0.049196
#
#
# Mechanical properties :
#
#
# Convention : Reuss Voigt Hill
#
# Bulk Modulus (GPa) = 56.54211 62.35710 59.44960
# Shear Modulus (GPa) = 22.45882 24.66228 23.56055
#
# Velocity S-wave (km/s) = 3.45977 3.62552 3.54361
# Velocity P-wave (km/s) = 6.78937 7.12465 6.95903
#
# Compressibility (1/GPa) = 0.01768593
#
# Stress axis : x y z
#
# Youngs Moduli (GPa) = 74.85924 39.19336 74.24954
#
# Poissons Ratio (x) = 0.39884 0.16133
# Poissons Ratio (y) = 0.76178 0.36966
# Poissons Ratio (z) = 0.16265 0.19513
#
# Static dielectric constant tensor:
#      x y z
#    x 1.699480 0.000000 0.000000 
#    y 0.000000 1.609320 0.000000 
#    z 0.000000 0.000000 1.797950 
# 
# From -- ./inp_files/5815.got.cif
#   From: 2010.05.17/outbox.cif.g08.bks.cpg/sg24_3_cif.got.tgz:5815.got - 2010.06.04 00:33:39.
