data_PCOD9333355
_publ_section_title
;
Structure prediction by ZEFSAII (Michael W. Deem and Ramdas Pophale) SiO2 
 PCOD9333355
Probable space group: I 21 21 21
;
_chemical_formula_sum "Si O2"
_cell_formula_units_Z 44
_cell_length_a 17.580520
_cell_length_b 12.790656
_cell_length_c 8.063546
_cell_angle_alpha 90.000000
_cell_angle_beta 90.000000
_cell_angle_gamma 90.000000
_cell_volume 1813.220428
_symmetry_space_group_name_H-M "I 21 21 21"
_symmetry_group_IT_number 24
_symmetry_cell_setting 'orthorhombic'
loop_
_space_group_symop_operation_xyz
x,y,z
-x,1/2-y,z
x,-y,1/2-z
1/2-x,y,-z
1/2+x,1/2+y,1/2+z
1/2-x,-y,1/2+z
1/2+x,1/2-y,-z
-x,1/2+y,1/2-z
loop_
_atom_site_type_symbol
_atom_site_label
_atom_site_fract_x
_atom_site_fract_y
_atom_site_fract_z
Si Si1 0.391490 0.880136 0.025738
Si Si2 0.786528 0.500000 0.750000
Si Si3 0.865095 0.819762 0.804993
Si Si4 0.293324 0.215200 0.767534
Si Si5 0.076377 0.319058 0.034262
Si Si6 0.459721 0.368638 0.610047
O O1 0.402653 0.796951 0.174957
O O2 0.337632 0.967838 0.095405
O O3 0.345915 0.810992 0.891295
O O4 0.466926 0.930294 0.952788
O O5 0.741085 0.397749 0.799175
O O6 0.775219 0.794990 0.779629
O O7 0.901154 0.869143 0.640371
O O8 0.894093 0.876260 0.971934
O O9 0.348545 0.252653 0.912891
O O10 0.064908 0.386198 0.201926
O O11 0.000000 0.250000 0.017616
O O12 0.500000 0.250000 0.607627
#
# Coordination Sequence:
#
# PCOD9333355 Si02
#       6
#     8   4   8   8   8   8
#     4  10  19  36  50  70 113 155 193 235 287 343
#     4  10  22  30  54  76 112 166 190 220 278 366
#     4  10  19  30  51  75 100 139 186 241 290 338
#     4  11  21  36  50  77 119 152 194 240 288 350
#     4  11  19  31  52  74 100 147 192 240 286 333
#     4   9  17  33  51  70  98 141 187 246 280 324
#
# _framework density 24.266217999999999
#
# number of rings (size 3 to 8) (size 9 to 14) (size 15 to 20)
#    0.000    1.818    5.455    4.364    0.000    5.818 
#    0.000    0.000    0.000    0.000    0.000    0.000 
#    0.000    1.455   18.909    0.000    2.182    0.000 
#
# Total GULP energy -122869.699807 kJ/mol
# GULP energy per Si atom -5584.986355 kJ/mol
# Density = 2.421099 g / cm^3
# Si number density = 24.266218 Si / 1000 Ang^3
#
#
#
# Elastic Constant Matrix: (Units=GPa)
#
#
# Indices 1 2 3 4 5 6 
#
# 1 149.1934 13.5713 61.1324 0.0000 0.0000 0.0000
# 2 13.5713 33.3537 11.6215 0.0000 0.0000 0.0000
# 3 61.1324 11.6215 158.5632 0.0000 0.0000 0.0000
# 4 0.0000 0.0000 0.0000 19.2518 0.0000 0.0000
# 5 0.0000 0.0000 0.0000 0.0000 43.9358 0.0000
# 6 0.0000 0.0000 0.0000 0.0000 0.0000 -6.2342
#
#
#
# Elastic Compliance Matrix: (Units=1/GPa)
#
#
# Indices 1 2 3 4 5 6 
#
# 1 0.008125 -0.002272 -0.002966 0.000000 0.000000 0.000000
# 2 -0.002272 0.031403 -0.001425 0.000000 0.000000 0.000000
# 3 -0.002966 -0.001425 0.007555 0.000000 0.000000 0.000000
# 4 0.000000 0.000000 0.000000 0.051943 0.000000 0.000000
# 5 0.000000 0.000000 0.000000 0.000000 0.022760 0.000000
# 6 0.000000 0.000000 0.000000 0.000000 0.000000 -0.160406
#
#
# Mechanical properties :
#
#
# Convention : Reuss Voigt Hill
#
# Bulk Modulus (GPa) = 29.62550 57.08453 43.35501
# Shear Modulus (GPa) = -356.10664 28.37634 -163.86515
#
# Velocity S-wave (km/s) = -12.12718 3.42332 -8.22646
# Velocity P-wave (km/s) = 13.55936 6.26106 8.50457
#
# Compressibility (1/GPa) = 0.03375471
#
# Stress axis : x y z
#
# Youngs Moduli (GPa) = 123.08170 31.84406 132.37043
#
# Poissons Ratio (x) = 0.07236 0.39259
# Poissons Ratio (y) = 0.27970 0.18869
# Poissons Ratio (z) = 0.36504 0.04539
#
# Static dielectric constant tensor:
#      x y z
#    x 1.996800 0.000000 0.000000 
#    y 0.000000 1.974330 0.000000 
#    z 0.000000 0.000000 2.027180 
# 
# From -- ./inp_files/12655.got.cif
#   From: 2010.05.17/outbox.cif.g08.bks.cpg/sg24_7_cif.got.tgz:12655.got - 2010.06.04 00:33:39.
