data_PCOD9333873
_publ_section_title
;
Structure prediction by ZEFSAII (Michael W. Deem and Ramdas Pophale) SiO2 
 PCOD9333873
Probable space group: I 21 21 21
;
_chemical_formula_sum "Si O2"
_cell_formula_units_Z 64
_cell_length_a 17.179899
_cell_length_b 14.588142
_cell_length_c 14.499458
_cell_angle_alpha 90.000000
_cell_angle_beta 90.000000
_cell_angle_gamma 90.000000
_cell_volume 3633.894852
_symmetry_space_group_name_H-M "I 21 21 21"
_symmetry_group_IT_number 24
_symmetry_cell_setting 'orthorhombic'
loop_
_space_group_symop_operation_xyz
x,y,z
-x,1/2-y,z
x,-y,1/2-z
1/2-x,y,-z
1/2+x,1/2+y,1/2+z
1/2-x,-y,1/2+z
1/2+x,1/2-y,-z
-x,1/2+y,1/2-z
loop_
_atom_site_type_symbol
_atom_site_label
_atom_site_fract_x
_atom_site_fract_y
_atom_site_fract_z
Si Si1 0.911342 0.101425 0.994795
Si Si2 0.411342 0.398575 0.494795
Si Si3 0.449937 0.109050 0.143095
Si Si4 0.840716 0.297515 0.004236
Si Si5 0.534351 0.647183 0.853922
Si Si6 0.159284 0.202485 0.495764
Si Si7 0.949937 0.609050 0.856905
Si Si8 0.034351 0.147183 0.146078
O O1 0.855420 0.187847 0.008896
O O2 0.966912 0.122171 0.907064
O O3 0.875882 1.000000 0.984457
O O4 0.971841 0.098630 0.080410
O O5 0.471841 0.401370 0.580411
O O6 0.355419 0.312153 0.508896
O O7 0.466912 0.377829 0.407064
O O8 0.386481 0.164171 0.084653
O O9 0.452086 0.135212 0.250000
O O10 0.433239 1.000000 0.136702
O O11 0.750000 0.317942 0.000000
O O12 0.884618 0.344155 0.091173
O O13 0.500000 0.750000 0.848714
O O14 0.541515 0.611684 0.750000
O O15 0.615382 0.655845 0.908827
O O16 0.250000 0.182058 0.500000
O O17 0.113519 0.164171 0.584653
O O18 0.000000 0.250000 0.151286
#
# Coordination Sequence:
#
# PCOD9333873 Si02
#       8
#     8   8   8   8   8   8   8   8
#     4   9  18  32  50  73  98 127 166 202 233 280
#     4   9  18  32  50  73  98 127 166 202 233 280
#     4   9  18  34  55  74  92 121 164 209 246 281
#     4  10  20  31  47  74 105 132 156 191 242 297
#     4   8  15  30  49  66  88 122 164 204 235 268
#     4  10  20  31  47  74 105 132 156 191 242 297
#     4   9  18  34  55  74  92 121 164 209 246 281
#     4   8  15  30  49  66  88 122 164 204 235 268
#
# _framework density 17.611958000000001
#
# number of rings (size 3 to 8) (size 9 to 14) (size 15 to 20)
#    0.000    3.000    0.000    2.250    0.000    4.500 
#    0.000    0.000    0.000    0.000    0.000    7.000 
#    0.000    0.000    0.000    0.000    0.000    0.000 
#
# Total GULP energy -178298.281054 kJ/mol
# GULP energy per Si atom -5571.821283 kJ/mol
# Density = 1.757187 g / cm^3
# Si number density = 17.611958 Si / 1000 Ang^3
#
#
#
# Elastic Constant Matrix: (Units=GPa)
#
#
# Indices 1 2 3 4 5 6 
#
# 1 40.1884 -5.8815 15.0757 0.0000 0.0000 0.0000
# 2 -5.8815 42.2304 3.9697 0.0000 0.0000 0.0000
# 3 15.0757 3.9697 134.4586 0.0000 0.0000 0.0000
# 4 0.0000 0.0000 0.0000 137.7912 0.0000 0.0000
# 5 0.0000 0.0000 0.0000 0.0000 6.5871 0.0000
# 6 0.0000 0.0000 0.0000 0.0000 0.0000 11.4298
#
#
#
# Elastic Compliance Matrix: (Units=1/GPa)
#
#
# Indices 1 2 3 4 5 6 
#
# 1 0.026633 0.004001 -0.003104 0.000000 0.000000 0.000000
# 2 0.004001 0.024347 -0.001167 0.000000 0.000000 0.000000
# 3 -0.003104 -0.001167 0.007820 0.000000 0.000000 0.000000
# 4 0.000000 0.000000 0.000000 0.007257 0.000000 0.000000
# 5 0.000000 0.000000 0.000000 0.000000 0.151812 0.000000
# 6 0.000000 0.000000 0.000000 0.000000 0.000000 0.087491
#
#
# Mechanical properties :
#
#
# Convention : Reuss Voigt Hill
#
# Bulk Modulus (GPa) = 17.16508 27.02281 22.09394
# Shear Modulus (GPa) = 15.36950 44.74251 30.05600
#
# Velocity S-wave (km/s) = 2.95731 5.04577 4.13554
# Velocity P-wave (km/s) = 4.62908 7.02304 5.94775
#
# Compressibility (1/GPa) = 0.05825782
#
# Stress axis : x y z
#
# Youngs Moduli (GPa) = 37.54769 41.07353 127.88134
#
# Poissons Ratio (x) = -0.16433 0.39697
# Poissons Ratio (y) = -0.15023 0.14929
# Poissons Ratio (z) = 0.11656 0.04795
#
# Static dielectric constant tensor:
#      x y z
#    x 1.551540 0.000000 0.000000 
#    y 0.000000 1.637600 0.000000 
#    z 0.000000 0.000000 1.607390 
# 
# From -- ./inp_files/27270.got.cif
#   From: 2010.05.17/outbox.cif.g08.bks.cpg/sg24_14_cif.got.tgz:27270.got - 2010.06.04 00:33:39.
