data_PCOD9333787
_publ_section_title
;
Structure prediction by ZEFSAII (Michael W. Deem and Ramdas Pophale) SiO2 
 PCOD9333787
Probable space group: I 21 21 21
;
_chemical_formula_sum "Si O2"
_cell_formula_units_Z 64
_cell_length_a 9.224149
_cell_length_b 19.998895
_cell_length_c 18.129535
_cell_angle_alpha 90.000000
_cell_angle_beta 90.000000
_cell_angle_gamma 90.000000
_cell_volume 3344.405854
_symmetry_space_group_name_H-M "I 21 21 21"
_symmetry_group_IT_number 24
_symmetry_cell_setting 'orthorhombic'
loop_
_space_group_symop_operation_xyz
x,y,z
-x,1/2-y,z
x,-y,1/2-z
1/2-x,y,-z
1/2+x,1/2+y,1/2+z
1/2-x,-y,1/2+z
1/2+x,1/2-y,-z
-x,1/2+y,1/2-z
loop_
_atom_site_type_symbol
_atom_site_label
_atom_site_fract_x
_atom_site_fract_y
_atom_site_fract_z
Si Si1 0.170930 0.624330 0.577720
Si Si2 0.471094 0.111657 0.429563
Si Si3 0.339380 0.138474 0.590360
Si Si4 0.284344 0.709460 0.083253
Si Si5 0.163010 0.489569 0.666653
Si Si6 0.072658 0.679191 0.349480
Si Si7 0.101212 0.618073 0.192017
Si Si8 0.578454 0.677554 0.507269
O O1 0.250000 0.610640 0.500000
O O2 0.181876 0.561108 0.629912
O O3 0.266290 0.683571 0.614461
O O4 0.005320 0.640363 0.558321
O O5 0.432008 0.118424 0.517129
O O6 0.310143 0.099562 0.399430
O O7 0.550996 0.181626 0.408055
O O8 0.571833 0.055387 0.392116
O O9 0.278417 0.214817 0.583402
O O10 0.443659 0.124900 0.657500
O O11 0.195785 0.672697 0.147266
O O12 0.250000 0.684122 0.000000
O O13 0.101147 0.500000 0.750000
O O14 0.314831 0.450791 0.677917
O O15 0.090064 0.635822 0.277132
O O16 0.000000 0.750000 0.330098
O O17 0.971259 0.648073 0.413569
O O18 0.500000 0.750000 0.508088
O O19 0.750000 0.680546 0.500000
#
# Coordination Sequence:
#
# PCOD9333787 Si02
#       8
#     8   8   8   8   8   8   8   8
#     4  10  22  40  69  92 119 167 213 262 318 390
#     4  10  23  36  59  88 124 176 212 264 315 369
#     4  11  21  36  57  95 129 159 218 270 317 378
#     4  11  19  33  59  86 130 174 210 253 321 382
#     4  11  24  46  63  82 127 173 227 259 317 390
#     4  10  19  38  62  93 126 157 206 267 330 389
#     4  11  23  36  61  92 123 177 215 270 319 384
#     4  10  20  40  68 101 129 158 202 270 338 401
#
# _framework density 19.136434999999999
#
# number of rings (size 3 to 8) (size 9 to 14) (size 15 to 20)
#    0.000    1.500    3.750    3.375    1.750    0.000 
#    4.500    0.625    0.000    0.000    0.000    0.000 
#    0.000    0.000    0.000    0.000    0.000    0.000 
#
# Total GULP energy -178184.725412 kJ/mol
# GULP energy per Si atom -5568.272669 kJ/mol
# Density = 1.909288 g / cm^3
# Si number density = 19.136435 Si / 1000 Ang^3
#
#
#
# Elastic Constant Matrix: (Units=GPa)
#
#
# Indices 1 2 3 4 5 6 
#
# 1 148.9714 33.1683 58.7225 0.0000 0.0000 0.0000
# 2 33.1683 79.5606 34.6679 0.0000 0.0000 0.0000
# 3 58.7225 34.6679 110.8100 0.0000 0.0000 0.0000
# 4 0.0000 0.0000 0.0000 8.6684 0.0000 0.0000
# 5 0.0000 0.0000 0.0000 0.0000 24.1912 0.0000
# 6 0.0000 0.0000 0.0000 0.0000 0.0000 21.3586
#
#
#
# Elastic Compliance Matrix: (Units=1/GPa)
#
#
# Indices 1 2 3 4 5 6 
#
# 1 0.008721 -0.001878 -0.004034 0.000000 0.000000 0.000000
# 2 -0.001878 0.014957 -0.003684 0.000000 0.000000 0.000000
# 3 -0.004034 -0.003684 0.012315 0.000000 0.000000 0.000000
# 4 0.000000 0.000000 0.000000 0.115361 0.000000 0.000000
# 5 0.000000 0.000000 0.000000 0.000000 0.041337 0.000000
# 6 0.000000 0.000000 0.000000 0.000000 0.000000 0.046820
#
#
# Mechanical properties :
#
#
# Convention : Reuss Voigt Hill
#
# Bulk Modulus (GPa) = 59.52168 65.82884 62.67526
# Shear Modulus (GPa) = 18.91760 25.02919 21.97340
#
# Velocity S-wave (km/s) = 3.14756 3.62046 3.39226
# Velocity P-wave (km/s) = 6.66190 7.20773 6.94018
#
# Compressibility (1/GPa) = 0.01680060
#
# Stress axis : x y z
#
# Youngs Moduli (GPa) = 114.66591 66.85674 81.20206
#
# Poissons Ratio (x) = 0.12555 0.32757
# Poissons Ratio (y) = 0.21533 0.29918
# Poissons Ratio (z) = 0.46257 0.24632
#
# Static dielectric constant tensor:
#      x y z
#    x 2.215340 0.000000 0.000000 
#    y 0.000000 1.694900 0.000000 
#    z 0.000000 0.000000 1.677920 
# 
# From -- ./inp_files/29843.got.cif
#   From: 2010.05.17/outbox.cif.g08.bks.cpg/sg24_15_cif.got.tgz:29843.got - 2010.06.04 00:33:39.
