data_PCOD9333133
_publ_section_title
;
Structure prediction by ZEFSAII (Michael W. Deem and Ramdas Pophale) SiO2 
 PCOD9333133
Probable space group: I 21 21 21
;
_chemical_formula_sum "Si O2"
_cell_formula_units_Z 64
_cell_length_a 21.153783
_cell_length_b 18.778398
_cell_length_c 7.961589
_cell_angle_alpha 90.000000
_cell_angle_beta 90.000000
_cell_angle_gamma 90.000000
_cell_volume 3162.615090
_symmetry_space_group_name_H-M "I 21 21 21"
_symmetry_group_IT_number 24
_symmetry_cell_setting 'orthorhombic'
loop_
_space_group_symop_operation_xyz
x,y,z
-x,1/2-y,z
x,-y,1/2-z
1/2-x,y,-z
1/2+x,1/2+y,1/2+z
1/2-x,-y,1/2+z
1/2+x,1/2-y,-z
-x,1/2+y,1/2-z
loop_
_atom_site_type_symbol
_atom_site_label
_atom_site_fract_x
_atom_site_fract_y
_atom_site_fract_z
Si Si1 0.723208 0.830984 0.186267
Si Si2 0.404558 0.329511 0.917851
Si Si3 0.422378 0.692302 0.215960
Si Si4 0.229552 0.081620 0.694401
Si Si5 0.310462 0.210406 0.767013
Si Si6 0.197967 0.553473 0.382902
Si Si7 0.382827 0.165487 0.443824
Si Si8 0.994246 0.835773 0.106804
O O1 0.649096 0.833985 0.196235
O O2 0.748091 0.758701 0.271227
O O3 0.756021 0.893501 0.285154
O O4 0.750000 0.832348 0.000000
O O5 0.363707 0.257643 0.866425
O O6 0.355623 0.394107 0.951980
O O7 0.450464 0.353598 0.765881
O O8 0.441231 0.316168 0.091136
O O9 0.419191 0.775583 0.165830
O O10 0.459491 0.652224 0.069849
O O11 0.250000 0.082371 0.500000
O O12 0.281089 0.130986 0.794744
O O13 0.159704 0.117042 0.677526
O O14 0.228015 0.000000 0.750000
O O15 0.337091 0.206349 0.575814
O O16 0.168208 0.500000 0.250000
O O17 0.250000 0.514826 0.500000
O O18 0.435618 0.133237 0.571900
O O19 0.000000 0.750000 0.128114
#
# Coordination Sequence:
#
# PCOD9333133 Si02
#       8
#     8   8   8   8   8   8   8   8
#     4  11  17  33  59  83 118 153 184 246 309 357
#     4  11  22  37  63  88 125 156 201 255 303 363
#     4  11  19  33  59  90 118 151 201 247 295 360
#     4  10  21  36  61  86 125 162 202 251 313 381
#     4  10  18  34  58  87 119 158 190 245 321 370
#     4  11  23  37  54  87 120 154 196 240 299 368
#     4  10  19  38  57  85 123 159 203 250 309 360
#     4  10  21  37  58  89 120 156 201 255 305 351
#
# _framework density 20.236418
#
# number of rings (size 3 to 8) (size 9 to 14) (size 15 to 20)
#    0.000    1.500    6.250    1.500    0.000    2.500 
#    0.000    0.000    2.750    0.750    0.000    0.000 
#    0.000    0.000    0.000    0.000    0.000    0.000 
#
# Total GULP energy -178190.285186 kJ/mol
# GULP energy per Si atom -5568.446412 kJ/mol
# Density = 2.019036 g / cm^3
# Si number density = 20.236418 Si / 1000 Ang^3
#
#
#
# Elastic Constant Matrix: (Units=GPa)
#
#
# Indices 1 2 3 4 5 6 
#
# 1 80.9402 4.7466 23.7649 0.0000 0.0000 0.0000
# 2 4.7466 58.2589 11.6027 0.0000 0.0000 0.0000
# 3 23.7649 11.6027 90.6642 0.0000 0.0000 0.0000
# 4 0.0000 0.0000 0.0000 21.0600 0.0000 0.0000
# 5 0.0000 0.0000 0.0000 0.0000 23.6245 0.0000
# 6 0.0000 0.0000 0.0000 0.0000 0.0000 11.5401
#
#
#
# Elastic Compliance Matrix: (Units=1/GPa)
#
#
# Indices 1 2 3 4 5 6 
#
# 1 0.013394 -0.000402 -0.003459 0.000000 0.000000 0.000000
# 2 -0.000402 0.017626 -0.002150 0.000000 0.000000 0.000000
# 3 -0.003459 -0.002150 0.012212 0.000000 0.000000 0.000000
# 4 0.000000 0.000000 0.000000 0.047483 0.000000 0.000000
# 5 0.000000 0.000000 0.000000 0.000000 0.042329 0.000000
# 6 0.000000 0.000000 0.000000 0.000000 0.000000 0.086654
#
#
# Mechanical properties :
#
#
# Convention : Reuss Voigt Hill
#
# Bulk Modulus (GPa) = 32.04333 34.45464 33.24898
# Shear Modulus (GPa) = 20.65051 23.89484 22.27267
#
# Velocity S-wave (km/s) = 3.19793 3.43998 3.32116
# Velocity P-wave (km/s) = 5.43181 5.73071 5.58326
#
# Compressibility (1/GPa) = 0.03120775
#
# Stress axis : x y z
#
# Youngs Moduli (GPa) = 74.65968 56.73509 81.88897
#
# Poissons Ratio (x) = 0.02283 0.28328
# Poissons Ratio (y) = 0.03004 0.17608
# Poissons Ratio (z) = 0.25828 0.12199
#
# Static dielectric constant tensor:
#      x y z
#    x 2.096290 0.000000 0.000000 
#    y 0.000000 1.738010 0.000000 
#    z 0.000000 0.000000 1.868860 
# 
# From -- ./inp_files/16106.got.cif
#   From: 2010.05.17/outbox.cif.g08.bks.cpg/sg24_9_cif.got.tgz:16106.got - 2010.06.04 00:33:39.
