data_PCOD9333792
_publ_section_title
;
Structure prediction by ZEFSAII (Michael W. Deem and Ramdas Pophale) SiO2 
 PCOD9333792
Probable space group: I 21 21 21
;
_chemical_formula_sum "Si O2"
_cell_formula_units_Z 60
_cell_length_a 5.707861
_cell_length_b 17.054523
_cell_length_c 26.932255
_cell_angle_alpha 90.000000
_cell_angle_beta 90.000000
_cell_angle_gamma 90.000000
_cell_volume 2621.716234
_symmetry_space_group_name_H-M "I 21 21 21"
_symmetry_group_IT_number 24
_symmetry_cell_setting 'orthorhombic'
loop_
_space_group_symop_operation_xyz
x,y,z
-x,1/2-y,z
x,-y,1/2-z
1/2-x,y,-z
1/2+x,1/2+y,1/2+z
1/2-x,-y,1/2+z
1/2+x,1/2-y,-z
-x,1/2+y,1/2-z
loop_
_atom_site_type_symbol
_atom_site_label
_atom_site_fract_x
_atom_site_fract_y
_atom_site_fract_z
Si Si1 0.873111 0.469483 0.859175
Si Si2 0.250000 0.297699 0.000000
Si Si3 0.474938 0.341614 0.198969
Si Si4 0.171913 0.185016 0.553176
Si Si5 0.727076 0.936814 0.213205
Si Si6 0.617017 0.027392 0.450210
Si Si7 0.492625 0.399893 0.624326
Si Si8 0.255265 0.702672 0.607859
O O1 0.656669 0.526723 0.862783
O O2 0.824166 0.387516 0.831820
O O3 0.061465 0.513295 0.823712
O O4 0.972731 0.467016 0.915500
O O5 0.500000 0.250000 0.001847
O O6 0.266631 0.337513 0.946182
O O7 0.500000 0.250000 0.208670
O O8 0.425069 0.384671 0.249831
O O9 0.269012 0.348547 0.157371
O O10 0.250000 0.218707 0.500000
O O11 0.364703 0.165045 0.594290
O O12 0.000000 0.250000 0.575152
O O13 0.053063 0.101544 0.539329
O O14 0.878564 0.881718 0.177362
O O15 0.851702 0.000000 0.250000
O O16 0.750000 0.001101 0.500000
O O17 0.805782 0.066903 0.414213
O O18 0.500000 0.750000 0.611359
O O19 0.000000 0.750000 0.607682
#
# Coordination Sequence:
#
# PCOD9333792 Si02
#       8
#     8   4   8   8   8   8   8   8
#     4   9  21  40  64  93 126 166 225 278 332 403
#     4   8  14  28  56  80 116 162 202 246 312 388
#     4  10  21  43  67  94 130 167 222 283 349 413
#     4  11  22  35  62  98 139 179 216 272 342 417
#     4   9  20  42  67  91 121 172 229 276 334 403
#     4  10  19  38  63  92 126 173 223 265 324 408
#     4  10  21  40  66  93 129 173 224 275 332 399
#     4   9  18  36  59  90 127 168 210 263 330 408
#
# _framework density 22.885771999999999
#
# number of rings (size 3 to 8) (size 9 to 14) (size 15 to 20)
#    0.000    2.400    1.333    0.400    0.000    1.600 
#   20.400    7.333    0.000    3.200    0.000    0.000 
#    0.000    0.000    0.000    0.000    0.000    0.000 
#
# Total GULP energy -167180.366274 kJ/mol
# GULP energy per Si atom -5572.678876 kJ/mol
# Density = 2.283368 g / cm^3
# Si number density = 22.885772 Si / 1000 Ang^3
#
#
#
# Elastic Constant Matrix: (Units=GPa)
#
#
# Indices 1 2 3 4 5 6 
#
# 1 78.6484 7.3216 17.9789 0.0000 0.0000 0.0000
# 2 7.3216 71.7291 15.4153 0.0000 0.0000 0.0000
# 3 17.9789 15.4153 126.7498 0.0000 0.0000 0.0000
# 4 0.0000 0.0000 0.0000 -12.6401 0.0000 0.0000
# 5 0.0000 0.0000 0.0000 0.0000 22.5440 0.0000
# 6 0.0000 0.0000 0.0000 0.0000 0.0000 28.5069
#
#
#
# Elastic Compliance Matrix: (Units=1/GPa)
#
#
# Indices 1 2 3 4 5 6 
#
# 1 0.013206 -0.000971 -0.001755 0.000000 0.000000 0.000000
# 2 -0.000971 0.014387 -0.001612 0.000000 0.000000 0.000000
# 3 -0.001755 -0.001612 0.008335 0.000000 0.000000 0.000000
# 4 0.000000 0.000000 0.000000 -0.079113 0.000000 0.000000
# 5 0.000000 0.000000 0.000000 0.000000 0.044358 0.000000
# 6 0.000000 0.000000 0.000000 0.000000 0.000000 0.035079
#
#
# Mechanical properties :
#
#
# Convention : Reuss Voigt Hill
#
# Bulk Modulus (GPa) = 36.69481 39.83989 38.26735
# Shear Modulus (GPa) = 92.57311 23.44294 58.00803
#
# Velocity S-wave (km/s) = 6.36694 3.20401 5.04002
# Velocity P-wave (km/s) = 8.37372 5.57974 7.11522
#
# Compressibility (1/GPa) = 0.02725181
#
# Stress axis : x y z
#
# Youngs Moduli (GPa) = 75.72071 69.50778 119.98201
#
# Poissons Ratio (x) = 0.06748 0.21059
# Poissons Ratio (y) = 0.07351 0.19341
# Poissons Ratio (z) = 0.13291 0.11205
#
# Static dielectric constant tensor:
#      x y z
#    x 1.926650 0.000000 0.000000 
#    y 0.000000 1.946630 0.000000 
#    z 0.000000 0.000000 1.859230 
# 
# From -- ./inp_files/36577.got.cif
#   From: 2010.05.17/outbox.cif.g08.bks.cpg/sg24_19_cif.got.tgz:36577.got - 2010.06.04 00:33:39.
