data_PCOD9333760
_publ_section_title
;
Structure prediction by ZEFSAII (Michael W. Deem and Ramdas Pophale) SiO2 
 PCOD9333760
Probable space group: I 21 21 21
;
_chemical_formula_sum "Si O2"
_cell_formula_units_Z 40
_cell_length_a 14.821348
_cell_length_b 9.077474
_cell_length_c 13.338833
_cell_angle_alpha 90.000000
_cell_angle_beta 90.000000
_cell_angle_gamma 90.000000
_cell_volume 1794.611942
_symmetry_space_group_name_H-M "I 21 21 21"
_symmetry_group_IT_number 24
_symmetry_cell_setting 'orthorhombic'
loop_
_space_group_symop_operation_xyz
x,y,z
-x,1/2-y,z
x,-y,1/2-z
1/2-x,y,-z
1/2+x,1/2+y,1/2+z
1/2-x,-y,1/2+z
1/2+x,1/2-y,-z
-x,1/2+y,1/2-z
loop_
_atom_site_type_symbol
_atom_site_label
_atom_site_fract_x
_atom_site_fract_y
_atom_site_fract_z
Si Si1 0.905857 0.817507 0.854806
Si Si2 0.147460 0.892393 0.028908
Si Si3 0.211371 0.275187 0.291270
Si Si4 0.015879 0.413333 0.949748
Si Si5 0.820810 0.916206 0.408910
O O1 0.819993 0.762625 0.793979
O O2 0.000000 0.750000 0.821770
O O3 0.928308 0.988725 0.869805
O O4 0.882109 0.753802 0.966250
O O5 0.156953 0.846718 0.145314
O O6 0.250000 0.931645 0.000000
O O7 0.076145 0.009826 0.987396
O O8 0.196267 0.428640 0.352314
O O9 0.186058 0.292922 0.176466
O O10 0.000000 0.250000 0.912392
O O11 0.080655 0.408715 0.045246
O O12 0.750000 0.900297 0.500000
#
# Coordination Sequence:
#
# PCOD9333760 Si02
#       5
#     8   8   8   8   8
#     4   9  17  36  66  93 117 163 222 260 304 380
#     4   9  18  38  64  92 122 163 218 260 306 382
#     4  10  19  37  66  89 120 170 217 265 310 390
#     4  11  22  37  59  95 133 166 196 264 333 381
#     4  11  21  38  61  91 127 163 210 262 327 378
#
# _framework density 22.288938999999999
#
# number of rings (size 3 to 8) (size 9 to 14) (size 15 to 20)
#    0.000    2.000    4.000    0.600    0.000    0.800 
#    7.200    1.000    0.000    0.000    0.000    0.000 
#    0.000    0.000    0.000    1.200    0.000    0.000 
#
# Total GULP energy -111724.608252 kJ/mol
# GULP energy per Si atom -5586.230413 kJ/mol
# Density = 2.223821 g / cm^3
# Si number density = 22.288939 Si / 1000 Ang^3
#
#
#
# Elastic Constant Matrix: (Units=GPa)
#
#
# Indices 1 2 3 4 5 6 
#
# 1 105.0061 17.0915 21.3655 0.0000 0.0000 0.0000
# 2 17.0915 69.1688 11.4097 0.0000 0.0000 0.0000
# 3 21.3655 11.4097 112.0597 0.0000 0.0000 0.0000
# 4 0.0000 0.0000 0.0000 3.8017 0.0000 0.0000
# 5 0.0000 0.0000 0.0000 0.0000 -0.0731 0.0000
# 6 0.0000 0.0000 0.0000 0.0000 0.0000 14.9006
#
#
#
# Elastic Compliance Matrix: (Units=1/GPa)
#
#
# Indices 1 2 3 4 5 6 
#
# 1 0.010240 -0.002246 -0.001724 0.000000 0.000000 0.000000
# 2 -0.002246 0.015197 -0.001119 0.000000 0.000000 0.000000
# 3 -0.001724 -0.001119 0.009366 0.000000 0.000000 0.000000
# 4 0.000000 0.000000 0.000000 0.263038 0.000000 0.000000
# 5 0.000000 0.000000 0.000000 0.000000-13.672233 0.000000
# 6 0.000000 0.000000 0.000000 0.000000 0.000000 0.067111
#
#
# Mechanical properties :
#
#
# Convention : Reuss Voigt Hill
#
# Bulk Modulus (GPa) = 40.60806 42.88535 41.74671
# Shear Modulus (GPa) = -0.37625 19.48369 9.55372
#
# Velocity S-wave (km/s) = -0.41131 2.95980 2.07259
# Velocity P-wave (km/s) = 4.24652 5.56443 4.94954
#
# Compressibility (1/GPa) = 0.02462565
#
# Stress axis : x y z
#
# Youngs Moduli (GPa) = 97.66090 65.80269 106.76469
#
# Poissons Ratio (x) = 0.14778 0.18402
# Poissons Ratio (y) = 0.21933 0.11948
# Poissons Ratio (z) = 0.16833 0.07364
#
# Static dielectric constant tensor:
#      x y z
#    x 1.794390 0.000000 0.000000 
#    y 0.000000 1.898450 0.000000 
#    z 0.000000 0.000000 1.862970 
# 
# From -- ./inp_files/24529.got.cif
#   From: 2010.05.17/outbox.cif.g08.bks.cpg/sg24_13_cif.got.tgz:24529.got - 2010.06.04 00:33:39.
