data_PCOD9333850
_publ_section_title
;
Structure prediction by ZEFSAII (Michael W. Deem and Ramdas Pophale) SiO2 
 PCOD9333850
Probable space group: I 21 21 21
;
_chemical_formula_sum "Si O2"
_cell_formula_units_Z 48
_cell_length_a 14.537664
_cell_length_b 7.720459
_cell_length_c 18.932682
_cell_angle_alpha 90.000000
_cell_angle_beta 90.000000
_cell_angle_gamma 90.000000
_cell_volume 2124.955739
_symmetry_space_group_name_H-M "I 21 21 21"
_symmetry_group_IT_number 24
_symmetry_cell_setting 'orthorhombic'
loop_
_space_group_symop_operation_xyz
x,y,z
-x,1/2-y,z
x,-y,1/2-z
1/2-x,y,-z
1/2+x,1/2+y,1/2+z
1/2-x,-y,1/2+z
1/2+x,1/2-y,-z
-x,1/2+y,1/2-z
loop_
_atom_site_type_symbol
_atom_site_label
_atom_site_fract_x
_atom_site_fract_y
_atom_site_fract_z
Si Si1 0.647780 0.689012 0.334677
Si Si2 0.092853 0.180869 0.692390
Si Si3 0.979392 0.543575 0.332707
Si Si4 0.640829 0.019385 0.930831
Si Si5 0.312827 0.082689 0.932158
Si Si6 0.142728 0.537439 0.915948
O O1 0.668208 0.720905 0.252147
O O2 0.585144 0.517756 0.329671
O O3 0.737639 0.619256 0.372760
O O4 0.616192 0.858202 0.376604
O O5 0.110320 0.298523 0.626361
O O6 0.000000 0.250000 0.727235
O O7 0.962300 0.500000 0.250000
O O8 0.897630 0.495664 0.388879
O O9 0.000000 0.750000 0.334699
O O10 0.074288 0.472705 0.366563
O O11 0.647587 0.225730 0.949727
O O12 0.745857 0.965120 0.917340
O O13 0.607091 0.944790 0.004815
O O14 0.250000 0.018884 0.000000
#
# Coordination Sequence:
#
# PCOD9333850 Si02
#       6
#     8   8   8   8   8   8
#     4  10  23  41  65  89 137 175 217 276 331 413
#     4  11  26  40  58 105 130 172 231 268 340 402
#     4  10  23  40  67  99 135 174 230 286 338 417
#     4   9  19  42  66 101 126 169 233 270 345 403
#     4  10  19  42  66  96 127 179 225 266 348 414
#     4  10  20  42  71  90 134 180 217 281 341 410
#
# _framework density 22.588704
#
# number of rings (size 3 to 8) (size 9 to 14) (size 15 to 20)
#    0.000    2.000    3.333    0.500    7.000    5.333 
#    6.000    0.833    0.000    0.000    0.000    0.000 
#    0.000    0.000    0.000    0.000    0.000    0.000 
#
# Total GULP energy -133764.991421 kJ/mol
# GULP energy per Si atom -5573.541309 kJ/mol
# Density = 2.253729 g / cm^3
# Si number density = 22.588704 Si / 1000 Ang^3
#
#
#
# Elastic Constant Matrix: (Units=GPa)
#
#
# Indices 1 2 3 4 5 6 
#
# 1 57.1291 12.7473 59.4038 0.0000 0.0000 0.0000
# 2 12.7473 63.5160 29.8529 0.0000 0.0000 0.0000
# 3 59.4038 29.8529 158.3939 0.0000 0.0000 0.0000
# 4 0.0000 0.0000 0.0000 14.5602 0.0000 0.0000
# 5 0.0000 0.0000 0.0000 0.0000 30.5170 0.0000
# 6 0.0000 0.0000 0.0000 0.0000 0.0000 9.5627
#
#
#
# Elastic Compliance Matrix: (Units=1/GPa)
#
#
# Indices 1 2 3 4 5 6 
#
# 1 0.028728 -0.000770 -0.010629 0.000000 0.000000 0.000000
# 2 -0.000770 0.017295 -0.002971 0.000000 0.000000 0.000000
# 3 -0.010629 -0.002971 0.010860 0.000000 0.000000 0.000000
# 4 0.000000 0.000000 0.000000 0.068681 0.000000 0.000000
# 5 0.000000 0.000000 0.000000 0.000000 0.032769 0.000000
# 6 0.000000 0.000000 0.000000 0.000000 0.000000 0.104573
#
#
# Mechanical properties :
#
#
# Convention : Reuss Voigt Hill
#
# Bulk Modulus (GPa) = 35.53266 53.67191 44.60229
# Shear Modulus (GPa) = 16.60989 22.73032 19.67010
#
# Velocity S-wave (km/s) = 2.71462 3.17562 2.95412
# Velocity P-wave (km/s) = 5.05865 6.10394 5.60572
#
# Compressibility (1/GPa) = 0.02814312
#
# Stress axis : x y z
#
# Youngs Moduli (GPa) = 34.80885 57.82051 92.08407
#
# Poissons Ratio (x) = 0.04451 0.97877
# Poissons Ratio (y) = 0.02680 0.27357
# Poissons Ratio (z) = 0.36999 0.17178
#
# Static dielectric constant tensor:
#      x y z
#    x 1.920910 0.000000 0.000000 
#    y 0.000000 1.891310 0.000000 
#    z 0.000000 0.000000 1.928850 
# 
# From -- ./inp_files/30731.got.cif
#   From: 2010.05.17/outbox.cif.g08.bks.cpg/sg24_16_cif.got.tgz:30731.got - 2010.06.04 00:33:39.
