data_PCOD9333933
_publ_section_title
;
Structure prediction by ZEFSAII (Michael W. Deem and Ramdas Pophale) SiO2 
 PCOD9333933
Probable space group: I 21 21 21
;
_chemical_formula_sum "Si O2"
_cell_formula_units_Z 64
_cell_length_a 14.959105
_cell_length_b 8.517185
_cell_length_c 31.121287
_cell_angle_alpha 90.000000
_cell_angle_beta 90.000000
_cell_angle_gamma 90.000000
_cell_volume 3965.146518
_symmetry_space_group_name_H-M "I 21 21 21"
_symmetry_group_IT_number 24
_symmetry_cell_setting 'orthorhombic'
loop_
_space_group_symop_operation_xyz
x,y,z
-x,1/2-y,z
x,-y,1/2-z
1/2-x,y,-z
1/2+x,1/2+y,1/2+z
1/2-x,-y,1/2+z
1/2+x,1/2-y,-z
-x,1/2+y,1/2-z
loop_
_atom_site_type_symbol
_atom_site_label
_atom_site_fract_x
_atom_site_fract_y
_atom_site_fract_z
Si Si1 0.817785 0.561390 0.881568
Si Si2 0.396750 0.061802 0.202258
Si Si3 0.695086 0.061891 0.956801
Si Si4 0.000000 0.059580 0.574092
Si Si5 0.500000 0.438662 0.524870
Si Si6 0.103250 0.561802 0.702258
Si Si7 0.182215 0.561390 0.881569
Si Si8 0.195086 0.938109 0.456801
O O1 0.827555 0.502733 0.832861
O O2 0.814033 0.750000 0.881825
O O3 0.742538 0.497136 0.913413
O O4 0.910724 0.505482 0.902963
O O5 0.500000 0.010445 0.192188
O O6 0.395250 0.250000 0.201900
O O7 0.377344 0.000000 0.250000
O O8 0.695792 0.250000 0.957731
O O9 0.593398 0.001685 0.957082
O O10 0.742538 0.002864 0.913413
O O11 0.750000 0.007122 0.000000
O O12 0.910724 0.005482 0.597037
O O13 0.000000 0.250000 0.575325
O O14 0.000000 0.011166 0.524944
O O15 0.500000 0.250000 0.527360
O O16 0.593398 0.501685 0.542918
O O17 0.122656 0.500000 0.750000
O O18 0.172445 0.497267 0.667138
O O19 0.250000 0.992878 0.500000
#
# Coordination Sequence:
#
# PCOD9333933 Si02
#       8
#     8   8   8   8   8   8   8   8
#     4  11  20  34  53  76 104 141 181 218 262 315
#     4  10  20  33  50  75 106 140 175 216 264 316
#     4  11  23  36  51  76 107 140 177 220 266 314
#     4   9  18  29  48  74 103 136 175 218 257 302
#     4  11  21  37  55  74 101 140 183 224 263 307
#     4  10  20  33  50  75 106 140 175 216 264 316
#     4  11  20  34  53  76 104 141 181 218 262 315
#     4  11  23  36  51  76 107 140 177 220 266 314
#
# _framework density 16.140639
#
# number of rings (size 3 to 8) (size 9 to 14) (size 15 to 20)
#    0.000    1.500    3.750    2.625    0.000    2.000 
#    0.000    0.000    0.000    0.000    0.000    0.875 
#    0.000    0.000    0.000    0.000    0.000    0.000 
#
# Total GULP energy -178564.099873 kJ/mol
# GULP energy per Si atom -5580.128121 kJ/mol
# Density = 1.610390 g / cm^3
# Si number density = 16.140639 Si / 1000 Ang^3
#
#
#
# Elastic Constant Matrix: (Units=GPa)
#
#
# Indices 1 2 3 4 5 6 
#
# 1 117.6065 34.0259 70.6315 0.0000 0.0000 0.0000
# 2 34.0259 61.4301 38.2219 0.0000 0.0000 0.0000
# 3 70.6315 38.2219 135.3361 0.0000 0.0000 0.0000
# 4 0.0000 0.0000 0.0000 25.3199 0.0000 0.0000
# 5 0.0000 0.0000 0.0000 0.0000 17.5317 0.0000
# 6 0.0000 0.0000 0.0000 0.0000 0.0000 22.5627
#
#
#
# Elastic Compliance Matrix: (Units=1/GPa)
#
#
# Indices 1 2 3 4 5 6 
#
# 1 0.013016 -0.003619 -0.005771 0.000000 0.000000 0.000000
# 2 -0.003619 0.020755 -0.003973 0.000000 0.000000 0.000000
# 3 -0.005771 -0.003973 0.011523 0.000000 0.000000 0.000000
# 4 0.000000 0.000000 0.000000 0.039495 0.000000 0.000000
# 5 0.000000 0.000000 0.000000 0.000000 0.057040 0.000000
# 6 0.000000 0.000000 0.000000 0.000000 0.000000 0.044321
#
#
# Mechanical properties :
#
#
# Convention : Reuss Voigt Hill
#
# Bulk Modulus (GPa) = 53.85499 66.68124 60.26811
# Shear Modulus (GPa) = 22.82441 24.51576 23.67009
#
# Velocity S-wave (km/s) = 3.76453 3.90151 3.83363
# Velocity P-wave (km/s) = 7.23423 7.85481 7.55090
#
# Compressibility (1/GPa) = 0.01856838
#
# Stress axis : x y z
#
# Youngs Moduli (GPa) = 76.83012 48.18085 86.78368
#
# Poissons Ratio (x) = 0.17435 0.50082
# Poissons Ratio (y) = 0.27803 0.34480
# Poissons Ratio (z) = 0.44338 0.19143
#
# Static dielectric constant tensor:
#      x y z
#    x 1.540200 0.000000 0.000000 
#    y 0.000000 1.540100 0.000000 
#    z 0.000000 0.000000 1.548820 
# 
# From -- ./inp_files/17047.got.cif
#   From: 2010.05.17/outbox.cif.g08.bks.cpg/sg24_9_cif.got.tgz:17047.got - 2010.06.04 00:33:39.
