data_PCOD9333540
_publ_section_title
;
Structure prediction by ZEFSAII (Michael W. Deem and Ramdas Pophale) SiO2 
 PCOD9333540
Probable space group: I 21 21 21
;
_chemical_formula_sum "Si O2"
_cell_formula_units_Z 52
_cell_length_a 22.349039
_cell_length_b 14.644383
_cell_length_c 9.422229
_cell_angle_alpha 90.000000
_cell_angle_beta 90.000000
_cell_angle_gamma 90.000000
_cell_volume 3083.781418
_symmetry_space_group_name_H-M "I 21 21 21"
_symmetry_group_IT_number 24
_symmetry_cell_setting 'orthorhombic'
loop_
_space_group_symop_operation_xyz
x,y,z
-x,1/2-y,z
x,-y,1/2-z
1/2-x,y,-z
1/2+x,1/2+y,1/2+z
1/2-x,-y,1/2+z
1/2+x,1/2-y,-z
-x,1/2+y,1/2-z
loop_
_atom_site_type_symbol
_atom_site_label
_atom_site_fract_x
_atom_site_fract_y
_atom_site_fract_z
Si Si1 0.776772 0.780280 0.841621
Si Si2 0.496002 0.640561 0.366658
Si Si3 0.422364 0.534994 0.594133
Si Si4 0.611795 0.912564 0.161513
Si Si5 0.906215 0.500000 0.750000
Si Si6 0.710234 0.571373 0.139244
Si Si7 0.789102 0.915072 0.358067
O O1 0.838143 0.836390 0.842435
O O2 0.787921 0.674920 0.807285
O O3 0.733836 0.827339 0.726996
O O4 0.750000 0.787107 0.000000
O O5 0.500000 0.750000 0.380420
O O6 0.471035 0.595170 0.511503
O O7 0.445657 0.620610 0.247886
O O8 0.553301 0.581584 0.314009
O O9 0.439444 0.500000 0.750000
O O10 0.407117 0.449210 0.492169
O O11 0.359321 0.588917 0.605011
O O12 0.635647 0.000000 0.250000
O O13 0.859429 0.540089 0.866813
O O14 0.737354 0.500000 0.250000
O O15 0.750000 0.567194 0.000000
O O16 0.750000 0.929061 0.500000
O O17 0.782271 0.000000 0.250000
#
# Coordination Sequence:
#
# PCOD9333540 Si02
#       7
#     8   8   8   8   4   8   8
#     4  11  20  34  56  85 117 155 190 233 288 344
#     4  11  21  39  62  85 110 153 207 242 279 346
#     4  10  20  35  54  81 127 151 179 242 295 340
#     4  10  19  34  57  85 117 152 191 233 278 343
#     4  10  20  42  66  82 108 154 194 240 298 330
#     4   9  22  41  61  83 112 144 193 245 286 334
#     4  11  20  31  52  86 123 156 182 221 290 353
#
# _framework density 16.862414000000001
#
# number of rings (size 3 to 8) (size 9 to 14) (size 15 to 20)
#    0.462    1.231    2.308    6.462    0.000    0.615 
#    2.769    1.538    3.385    0.000    0.000    0.000 
#    0.000    0.000    0.000    0.000    0.000    0.000 
#
# Total GULP energy -144955.691222 kJ/mol
# GULP energy per Si atom -5575.218893 kJ/mol
# Density = 1.682403 g / cm^3
# Si number density = 16.862414 Si / 1000 Ang^3
#
#
#
# Elastic Constant Matrix: (Units=GPa)
#
#
# Indices 1 2 3 4 5 6 
#
# 1 105.0004 58.2284 38.1815 0.0000 0.0000 0.0000
# 2 58.2284 149.6803 53.1562 0.0000 0.0000 0.0000
# 3 38.1815 53.1562 104.0124 0.0000 0.0000 0.0000
# 4 0.0000 0.0000 0.0000 18.9441 0.0000 0.0000
# 5 0.0000 0.0000 0.0000 0.0000 -64.3466 0.0000
# 6 0.0000 0.0000 0.0000 0.0000 0.0000 42.1000
#
#
#
# Elastic Compliance Matrix: (Units=1/GPa)
#
#
# Indices 1 2 3 4 5 6 
#
# 1 0.012698 -0.004013 -0.002611 0.000000 0.000000 0.000000
# 2 -0.004013 0.009430 -0.003346 0.000000 0.000000 0.000000
# 3 -0.002611 -0.003346 0.012283 0.000000 0.000000 0.000000
# 4 0.000000 0.000000 0.000000 0.052787 0.000000 0.000000
# 5 0.000000 0.000000 0.000000 0.000000 -0.015541 0.000000
# 6 0.000000 0.000000 0.000000 0.000000 0.000000 0.023753
#
#
# Mechanical properties :
#
#
# Convention : Reuss Voigt Hill
#
# Bulk Modulus (GPa) = 69.09965 73.09170 71.09568
# Shear Modulus (GPa) = 41.60632 13.28131 27.44382
#
# Velocity S-wave (km/s) = 4.97268 2.80952 4.03862
# Velocity P-wave (km/s) = 8.60451 7.34606 8.00007
#
# Compressibility (1/GPa) = 0.01447185
#
# Stress axis : x y z
#
# Youngs Moduli (GPa) = 78.75013 106.04044 81.41488
#
# Poissons Ratio (x) = 0.42552 0.21255
# Poissons Ratio (y) = 0.31601 0.27245
# Poissons Ratio (z) = 0.20559 0.35485
#
# Static dielectric constant tensor:
#      x y z
#    x 1.576900 0.000000 0.000000 
#    y 0.000000 1.570010 0.000000 
#    z 0.000000 0.000000 1.562260 
# 
# From -- ./inp_files/15953.got.cif
#   From: 2010.05.17/outbox.cif.g08.bks.cpg/sg24_8_cif.got.tgz:15953.got - 2010.06.04 00:33:39.
