data_PCOD9333971
_publ_section_title
;
Structure prediction by ZEFSAII (Michael W. Deem and Ramdas Pophale) SiO2 
 PCOD9333971
Probable space group: I 21 21 21
;
_chemical_formula_sum "Si O2"
_cell_formula_units_Z 52
_cell_length_a 28.495192
_cell_length_b 5.106939
_cell_length_c 15.923468
_cell_angle_alpha 90.000000
_cell_angle_beta 90.000000
_cell_angle_gamma 90.000000
_cell_volume 2317.234135
_symmetry_space_group_name_H-M "I 21 21 21"
_symmetry_group_IT_number 24
_symmetry_cell_setting 'orthorhombic'
loop_
_space_group_symop_operation_xyz
x,y,z
-x,1/2-y,z
x,-y,1/2-z
1/2-x,y,-z
1/2+x,1/2+y,1/2+z
1/2-x,-y,1/2+z
1/2+x,1/2-y,-z
-x,1/2+y,1/2-z
loop_
_atom_site_type_symbol
_atom_site_label
_atom_site_fract_x
_atom_site_fract_y
_atom_site_fract_z
Si Si1 0.725057 0.271217 0.918860
Si Si2 0.868481 0.987829 0.600707
Si Si3 0.031423 0.997151 0.012451
Si Si4 0.793336 0.645322 0.823036
Si Si5 0.947795 0.318090 0.677197
Si Si6 0.717558 0.000000 0.750000
Si Si7 0.367028 0.983770 0.990707
O O1 0.768652 0.455571 0.889714
O O2 0.702549 0.091721 0.844382
O O3 0.750000 0.130330 0.000000
O O4 0.680795 0.450419 0.943999
O O5 0.822762 0.106296 0.645587
O O6 0.914144 0.073504 0.654107
O O7 0.869557 0.182840 0.520165
O O8 0.866664 0.690369 0.569792
O O9 0.082757 0.029149 0.053511
O O10 0.000000 0.250000 0.022797
O O11 0.042952 0.955730 0.913125
O O12 0.000000 0.750000 0.038901
O O13 0.822142 0.500000 0.750000
O O14 0.749481 0.758887 0.774039
O O15 0.927281 0.500000 0.750000
O O16 0.000000 0.250000 0.706780
#
# Coordination Sequence:
#
# PCOD9333971 Si02
#       7
#     8   8   8   8   8   4   8
#     4  11  22  40  65  94 136 181 229 287 340 416
#     4  11  23  39  58  88 120 171 225 274 326 396
#     4  10  20  38  58  82 121 156 208 274 319 396
#     4  10  22  39  56  87 126 173 223 277 338 396
#     4  10  20  34  52  80 117 165 215 266 330 382
#     4  10  24  40  62  94 134 174 228 282 344 400
#     4  11  23  38  64  93 121 170 222 270 340 398
#
# _framework density 22.440543999999999
#
# number of rings (size 3 to 8) (size 9 to 14) (size 15 to 20)
#    0.000    1.538    1.538    4.615    4.308    1.846 
#    1.385    0.000    0.000    0.000    0.000    0.000 
#    6.923    0.000    0.000    0.000    0.000    0.000 
#
# Total GULP energy -144964.139909 kJ/mol
# GULP energy per Si atom -5575.543843 kJ/mol
# Density = 2.238947 g / cm^3
# Si number density = 22.440544 Si / 1000 Ang^3
#
#
#
# Elastic Constant Matrix: (Units=GPa)
#
#
# Indices 1 2 3 4 5 6 
#
# 1 143.8685 25.7847 23.9887 0.0000 0.0000 0.0000
# 2 25.7847 69.7287 9.4651 0.0000 0.0000 0.0000
# 3 23.9887 9.4651 56.9903 0.0000 0.0000 0.0000
# 4 0.0000 0.0000 0.0000 26.1643 0.0000 0.0000
# 5 0.0000 0.0000 0.0000 0.0000 129.4434 0.0000
# 6 0.0000 0.0000 0.0000 0.0000 0.0000 25.3320
#
#
#
# Elastic Compliance Matrix: (Units=1/GPa)
#
#
# Indices 1 2 3 4 5 6 
#
# 1 0.007887 -0.002523 -0.002901 0.000000 0.000000 0.000000
# 2 -0.002523 0.015479 -0.001509 0.000000 0.000000 0.000000
# 3 -0.002901 -0.001509 0.019018 0.000000 0.000000 0.000000
# 4 0.000000 0.000000 0.000000 0.038220 0.000000 0.000000
# 5 0.000000 0.000000 0.000000 0.000000 0.007725 0.000000
# 6 0.000000 0.000000 0.000000 0.000000 0.000000 0.039476
#
#
# Mechanical properties :
#
#
# Convention : Reuss Voigt Hill
#
# Bulk Modulus (GPa) = 35.06382 43.22939 39.14661
# Shear Modulus (GPa) = 33.07401 50.27786 41.67594
#
# Velocity S-wave (km/s) = 3.84324 4.73852 4.31417
# Velocity P-wave (km/s) = 5.94585 7.01740 6.50373
#
# Compressibility (1/GPa) = 0.02851943
#
# Stress axis : x y z
#
# Youngs Moduli (GPa) = 126.79793 64.60390 52.58057
#
# Poissons Ratio (x) = 0.16297 0.15252
# Poissons Ratio (y) = 0.31986 0.07934
# Poissons Ratio (z) = 0.36780 0.09749
#
# Static dielectric constant tensor:
#      x y z
#    x 1.877030 0.000000 0.000000 
#    y 0.000000 1.879600 0.000000 
#    z 0.000000 0.000000 2.426930 
# 
# From -- ./inp_files/31712.got.cif
#   From: 2010.05.17/outbox.cif.g08.bks.cpg/sg24_16_cif.got.tgz:31712.got - 2010.06.04 00:33:39.
