data_PCOD9333567
_publ_section_title
;
Structure prediction by ZEFSAII (Michael W. Deem and Ramdas Pophale) SiO2 
 PCOD9333567
Probable space group: I 21 21 21
;
_chemical_formula_sum "Si O2"
_cell_formula_units_Z 48
_cell_length_a 14.298530
_cell_length_b 10.988994
_cell_length_c 12.443618
_cell_angle_alpha 90.000000
_cell_angle_beta 90.000000
_cell_angle_gamma 90.000000
_cell_volume 1955.221651
_symmetry_space_group_name_H-M "I 21 21 21"
_symmetry_group_IT_number 24
_symmetry_cell_setting 'orthorhombic'
loop_
_space_group_symop_operation_xyz
x,y,z
-x,1/2-y,z
x,-y,1/2-z
1/2-x,y,-z
1/2+x,1/2+y,1/2+z
1/2-x,-y,1/2+z
1/2+x,1/2-y,-z
-x,1/2+y,1/2-z
loop_
_atom_site_type_symbol
_atom_site_label
_atom_site_fract_x
_atom_site_fract_y
_atom_site_fract_z
Si Si1 0.871824 0.950405 0.399640
Si Si2 0.614171 0.321303 0.835526
Si Si3 0.666404 0.666072 0.315138
Si Si4 0.345002 0.915756 0.073990
Si Si5 0.650431 0.065932 0.142796
Si Si6 0.039307 0.087208 0.384098
O O1 0.909879 0.813760 0.376482
O O2 0.763988 0.948624 0.363808
O O3 0.881264 0.976549 0.526535
O O4 0.932024 0.061860 0.353721
O O5 0.725259 0.329258 0.848483
O O6 0.577967 0.447696 0.885822
O O7 0.587404 0.339032 0.710934
O O8 0.666820 0.655726 0.185862
O O9 0.629161 0.549269 0.378576
O O10 0.623360 0.793034 0.349109
O O11 0.250000 0.916847 0.000000
O O12 0.426254 0.863906 0.997832
O O13 0.616612 0.000000 0.250000
#
# Coordination Sequence:
#
# PCOD9333567 Si02
#       6
#     8   8   8   8   8   8
#     4  10  23  41  63  92 123 170 213 266 318 373
#     4  10  19  34  61  94 124 158 209 260 318 370
#     4  10  20  36  62  92 122 167 214 259 318 388
#     4  11  18  34  60  96 127 158 202 263 337 379
#     4  10  23  45  67  85 121 175 227 259 306 390
#     4  11  20  34  61  94 128 155 199 269 323 379
#
# _framework density 24.549645999999999
#
# number of rings (size 3 to 8) (size 9 to 14) (size 15 to 20)
#    0.000    1.667    3.333    2.500    4.667    0.000 
#    6.000    0.000    3.667    0.000    0.000    0.000 
#    0.000    0.000    0.000    0.000    0.000    0.000 
#
# Total GULP energy -134179.169311 kJ/mol
# GULP energy per Si atom -5590.798721 kJ/mol
# Density = 2.449377 g / cm^3
# Si number density = 24.549646 Si / 1000 Ang^3
#
#
#
# Elastic Constant Matrix: (Units=GPa)
#
#
# Indices 1 2 3 4 5 6 
#
# 1 31.9960 15.1738 -6.0280 0.0000 0.0000 0.0000
# 2 15.1738 46.5561 6.6657 0.0000 0.0000 0.0000
# 3 -6.0280 6.6657 136.5795 0.0000 0.0000 0.0000
# 4 0.0000 0.0000 0.0000 8.5542 0.0000 0.0000
# 5 0.0000 0.0000 0.0000 0.0000 9.3164 0.0000
# 6 0.0000 0.0000 0.0000 0.0000 0.0000 18.7141
#
#
#
# Elastic Compliance Matrix: (Units=1/GPa)
#
#
# Indices 1 2 3 4 5 6 
#
# 1 0.037658 -0.012600 0.002277 0.000000 0.000000 0.000000
# 2 -0.012600 0.025846 -0.001818 0.000000 0.000000 0.000000
# 3 0.002277 -0.001818 0.007511 0.000000 0.000000 0.000000
# 4 0.000000 0.000000 0.000000 0.116902 0.000000 0.000000
# 5 0.000000 0.000000 0.000000 0.000000 0.107338 0.000000
# 6 0.000000 0.000000 0.000000 0.000000 0.000000 0.053436
#
#
# Mechanical properties :
#
#
# Convention : Reuss Voigt Hill
#
# Bulk Modulus (GPa) = 21.39734 27.41719 24.40727
# Shear Modulus (GPa) = 12.86837 20.60494 16.73665
#
# Velocity S-wave (km/s) = 2.29198 2.90024 2.61386
# Velocity P-wave (km/s) = 3.96725 4.73366 4.36730
#
# Compressibility (1/GPa) = 0.04673479
#
# Stress axis : x y z
#
# Youngs Moduli (GPa) = 26.55467 38.69026 133.13912
#
# Poissons Ratio (x) = 0.48749 -0.30316
# Poissons Ratio (y) = 0.33458 0.24198
# Poissons Ratio (z) = -0.06046 0.07032
#
# Static dielectric constant tensor:
#      x y z
#    x 2.026030 0.000000 0.000000 
#    y 0.000000 1.941900 0.000000 
#    z 0.000000 0.000000 1.932110 
# 
# From -- ./inp_files/21522.got.cif
#   From: 2010.05.17/outbox.cif.g08.bks.cpg/sg24_11_cif.got.tgz:21522.got - 2010.06.04 00:33:39.
