data_PCOD9333855
_publ_section_title
;
Structure prediction by ZEFSAII (Michael W. Deem and Ramdas Pophale) SiO2 
 PCOD9333855
Probable space group: I 21 21 21
;
_chemical_formula_sum "Si O2"
_cell_formula_units_Z 32
_cell_length_a 10.935188
_cell_length_b 9.117116
_cell_length_c 13.737910
_cell_angle_alpha 90.000000
_cell_angle_beta 90.000000
_cell_angle_gamma 90.000000
_cell_volume 1369.633599
_symmetry_space_group_name_H-M "I 21 21 21"
_symmetry_group_IT_number 24
_symmetry_cell_setting 'orthorhombic'
loop_
_space_group_symop_operation_xyz
x,y,z
-x,1/2-y,z
x,-y,1/2-z
1/2-x,y,-z
1/2+x,1/2+y,1/2+z
1/2-x,-y,1/2+z
1/2+x,1/2-y,-z
-x,1/2+y,1/2-z
loop_
_atom_site_type_symbol
_atom_site_label
_atom_site_fract_x
_atom_site_fract_y
_atom_site_fract_z
Si Si1 0.567144 0.500000 0.250000
Si Si2 0.500000 0.250000 0.515173
Si Si3 0.108253 0.455383 0.358439
Si Si4 0.750000 0.176573 0.000000
Si Si5 0.000000 0.250000 0.891784
Si Si6 0.715364 0.693198 0.102307
O O1 0.492869 0.390982 0.179859
O O2 0.655907 0.593095 0.181467
O O3 0.507936 0.396958 0.580399
O O4 0.607912 0.206902 0.442670
O O5 0.076466 0.500000 0.250000
O O6 0.186439 0.576021 0.416147
O O7 0.186500 0.304959 0.356196
O O8 0.628622 0.255266 0.047313
O O9 0.750000 0.615061 0.000000
#
# Coordination Sequence:
#
# PCOD9333855 Si02
#       6
#     4   4   8   4   4   8
#     4  12  26  46  76 114 154 206 280 316 406 488
#     4  10  19  43  64  98 136 196 239 303 382 458
#     4  11  23  43  74 102 151 195 262 310 402 458
#     4  12  26  52  76 120 156 212 260 352 388 488
#     4  12  31  47  86 112 168 206 275 337 410 476
#     4  10  22  42  69 102 140 199 246 320 380 467
#
# _framework density 23.363914000000001
#
# number of rings (size 3 to 8) (size 9 to 14) (size 15 to 20)
#    0.000    1.000    3.750    3.750    7.000    1.000 
#    9.000    0.000    0.000    0.000    0.000    0.000 
#    0.000    0.000    0.000    0.000    0.000    0.000 
#
# Total GULP energy -89201.651705 kJ/mol
# GULP energy per Si atom -5575.103232 kJ/mol
# Density = 2.331074 g / cm^3
# Si number density = 23.363914 Si / 1000 Ang^3
#
#
#
# Elastic Constant Matrix: (Units=GPa)
#
#
# Indices 1 2 3 4 5 6 
#
# 1 109.2737 31.2266 33.5618 0.0000 0.0000 0.0000
# 2 31.2266 72.9102 52.0261 0.0000 0.0000 0.0000
# 3 33.5618 52.0261 129.2513 0.0000 0.0000 0.0000
# 4 0.0000 0.0000 0.0000 51.9162 0.0000 0.0000
# 5 0.0000 0.0000 0.0000 0.0000 -116.0768 0.0000
# 6 0.0000 0.0000 0.0000 0.0000 0.0000 35.6199
#
#
#
# Elastic Compliance Matrix: (Units=1/GPa)
#
#
# Indices 1 2 3 4 5 6 
#
# 1 0.010580 -0.003607 -0.001295 0.000000 0.000000 0.000000
# 2 -0.003607 0.020472 -0.007304 0.000000 0.000000 0.000000
# 3 -0.001295 -0.007304 0.011013 0.000000 0.000000 0.000000
# 4 0.000000 0.000000 0.000000 0.019262 0.000000 0.000000
# 5 0.000000 0.000000 0.000000 0.000000 -0.008615 0.000000
# 6 0.000000 0.000000 0.000000 0.000000 0.000000 0.028074
#
#
# Mechanical properties :
#
#
# Convention : Reuss Voigt Hill
#
# Bulk Modulus (GPa) = 56.64788 60.56270 58.60529
# Shear Modulus (GPa) = 45.01154 7.26658 26.13906
#
# Velocity S-wave (km/s) = 4.39400 1.76548 3.34844
# Velocity P-wave (km/s) = 7.07400 5.48941 6.33147
#
# Compressibility (1/GPa) = 0.01765291
#
# Stress axis : x y z
#
# Youngs Moduli (GPa) = 94.51868 48.84710 90.80060
#
# Poissons Ratio (x) = 0.17619 0.11762
# Poissons Ratio (y) = 0.34092 0.66319
# Poissons Ratio (z) = 0.12243 0.35677
#
# Static dielectric constant tensor:
#      x y z
#    x 2.122650 0.000000 0.000000 
#    y 0.000000 2.159680 0.000000 
#    z 0.000000 0.000000 1.949740 
# 
# From -- ./inp_files/10342.got.cif
#   From: 2010.05.17/outbox.cif.g08.bks.cpg/sg24_6_cif.got.tgz:10342.got - 2010.06.04 00:33:39.
