data_PCOD9333794
_publ_section_title
;
Structure prediction by ZEFSAII (Michael W. Deem and Ramdas Pophale) SiO2 
 PCOD9333794
Probable space group: I 21 21 21
;
_chemical_formula_sum "Si O2"
_cell_formula_units_Z 60
_cell_length_a 8.625025
_cell_length_b 25.874444
_cell_length_c 12.305691
_cell_angle_alpha 90.000000
_cell_angle_beta 90.000000
_cell_angle_gamma 90.000000
_cell_volume 2746.233082
_symmetry_space_group_name_H-M "I 21 21 21"
_symmetry_group_IT_number 24
_symmetry_cell_setting 'orthorhombic'
loop_
_space_group_symop_operation_xyz
x,y,z
-x,1/2-y,z
x,-y,1/2-z
1/2-x,y,-z
1/2+x,1/2+y,1/2+z
1/2-x,-y,1/2+z
1/2+x,1/2-y,-z
-x,1/2+y,1/2-z
loop_
_atom_site_type_symbol
_atom_site_label
_atom_site_fract_x
_atom_site_fract_y
_atom_site_fract_z
Si Si1 0.001291 0.514087 0.127165
Si Si2 0.984346 0.811275 0.820210
Si Si3 0.067012 0.696508 0.478826
Si Si4 0.742184 0.935585 0.372783
Si Si5 0.071695 0.116917 0.856137
Si Si6 0.929520 0.125546 0.465757
Si Si7 0.861711 0.162457 0.244414
Si Si8 0.250000 0.951592 0.500000
O O1 0.943102 0.500000 0.250000
O O2 0.899014 0.483792 0.037826
O O3 0.177339 0.491362 0.129848
O O4 0.001767 0.572264 0.081212
O O5 0.815501 0.819114 0.763079
O O6 0.000000 0.750000 0.835805
O O7 0.097527 0.841312 0.737552
O O8 0.995549 0.844313 0.930703
O O9 0.250000 0.694711 0.500000
O O10 0.050137 0.692165 0.349684
O O11 0.000000 0.750000 0.521241
O O12 0.984555 0.650292 0.540832
O O13 0.750000 0.921034 0.500000
O O14 0.568910 0.923502 0.331305
O O15 0.845820 0.896108 0.302144
O O16 0.213470 0.083675 0.896254
O O17 0.750000 0.115381 0.500000
O O18 0.935067 0.163143 0.362214
#
# Coordination Sequence:
#
# PCOD9333794 Si02
#       8
#     8   8   8   8   8   8   8   4
#     4  12  25  43  70 101 140 178 228 286 351 414
#     4  10  22  41  69  93 137 181 228 285 336 399
#     4  12  23  37  63  98 133 170 222 286 349 408
#     4  11  17  39  69  95 123 174 219 279 335 399
#     4  11  23  42  66  99 140 179 228 280 345 417
#     4  10  23  42  69 100 128 174 241 283 328 412
#     4  10  19  38  64  95 127 165 229 285 335 403
#     4  12  28  40  66 102 148 184 222 278 364 424
#
# _framework density 21.848109000000001
#
# number of rings (size 3 to 8) (size 9 to 14) (size 15 to 20)
#    0.000    1.067    6.667    0.800    0.933    1.600 
#    0.000    0.667   16.133    0.000    0.000    0.000 
#    0.000    0.000    0.000    0.000    0.000    0.000 
#
# Total GULP energy -167429.723257 kJ/mol
# GULP energy per Si atom -5580.990775 kJ/mol
# Density = 2.179838 g / cm^3
# Si number density = 21.848109 Si / 1000 Ang^3
#
#
#
# Elastic Constant Matrix: (Units=GPa)
#
#
# Indices 1 2 3 4 5 6 
#
# 1 20.0218 24.3206 4.3818 0.0001 0.0000 0.0000
# 2 24.3206 111.9202 36.1704 0.0002 0.0000 0.0000
# 3 4.3818 36.1704 150.1220 0.0004 -0.0003 0.0000
# 4 0.0001 0.0002 0.0004 25.0287 -0.0001 0.0000
# 5 0.0000 0.0000 -0.0003 -0.0001 10.7731 0.0000
# 6 0.0000 0.0000 0.0000 0.0000 0.0000 20.4214
#
#
#
# Elastic Compliance Matrix: (Units=1/GPa)
#
#
# Indices 1 2 3 4 5 6 
#
# 1 0.068262 -0.015388 0.001715 0.000000 0.000000 0.000000
# 2 -0.015388 0.013158 -0.002721 0.000000 0.000000 0.000000
# 3 0.001715 -0.002721 0.007267 0.000000 0.000000 0.000000
# 4 0.000000 0.000000 0.000000 0.039954 0.000000 0.000000
# 5 0.000000 0.000000 0.000000 0.000000 0.092824 0.000000
# 6 0.000000 0.000000 0.000000 0.000000 0.000000 0.048968
#
#
# Mechanical properties :
#
#
# Convention : Reuss Voigt Hill
#
# Bulk Modulus (GPa) = 17.88935 45.75662 31.82299
# Shear Modulus (GPa) = 15.53499 25.72406 20.62952
#
# Velocity S-wave (km/s) = 2.66944 3.43505 3.07616
# Velocity P-wave (km/s) = 4.20797 6.05981 5.21672
#
# Compressibility (1/GPa) = 0.05589917
#
# Stress axis : x y z
#
# Youngs Moduli (GPa) = 14.64945 75.99825 137.61150
#
# Poissons Ratio (x) = 1.16945 -0.23602
# Poissons Ratio (y) = 0.22542 0.37447
# Poissons Ratio (z) = -0.02513 0.20681
#
# Static dielectric constant tensor:
#      x y z
#    x 1.833770 0.000000 0.000000 
#    y 0.000000 1.803610 0.000000 
#    z 0.000000 0.000000 1.833760 
# 
# From -- ./inp_files/18821.got.cif
#   From: 2010.05.17/outbox.cif.g08.bks.cpg/sg24_10_cif.got.tgz:18821.got - 2010.06.04 00:33:39.
