data_PCOD9333574
_publ_section_title
;
Structure prediction by ZEFSAII (Michael W. Deem and Ramdas Pophale) SiO2 
 PCOD9333574
Probable space group: I 21 21 21
;
_chemical_formula_sum "Si O2"
_cell_formula_units_Z 48
_cell_length_a 24.564510
_cell_length_b 16.562138
_cell_length_c 5.447874
_cell_angle_alpha 90.000000
_cell_angle_beta 90.000000
_cell_angle_gamma 90.000000
_cell_volume 2216.417441
_symmetry_space_group_name_H-M "I 21 21 21"
_symmetry_group_IT_number 24
_symmetry_cell_setting 'orthorhombic'
loop_
_space_group_symop_operation_xyz
x,y,z
-x,1/2-y,z
x,-y,1/2-z
1/2-x,y,-z
1/2+x,1/2+y,1/2+z
1/2-x,-y,1/2+z
1/2+x,1/2-y,-z
-x,1/2+y,1/2-z
loop_
_atom_site_type_symbol
_atom_site_label
_atom_site_fract_x
_atom_site_fract_y
_atom_site_fract_z
Si Si1 0.444795 0.793568 0.066277
Si Si2 0.395264 0.272835 0.939880
Si Si3 0.686872 0.338070 0.762494
Si Si4 0.192881 0.093619 0.745142
Si Si5 0.063804 0.544937 0.500205
Si Si6 0.442196 0.019142 0.496163
O O1 0.500000 0.750000 0.140739
O O2 0.406507 0.771608 0.299470
O O3 0.428277 0.760205 0.797272
O O4 0.457166 0.887585 0.027046
O O5 0.334581 0.250545 0.838087
O O6 0.413249 0.364804 0.985004
O O7 0.751277 0.353297 0.750418
O O8 0.665145 0.374594 0.505168
O O9 0.666129 0.389169 0.993912
O O10 0.209624 0.000000 0.750000
O O11 0.080716 0.500000 0.250000
O O12 0.997436 0.535786 0.504105
O O13 0.081840 0.500000 0.750000
O O14 0.414617 0.000000 0.750000
O O15 0.409558 0.000000 0.250000
#
# Coordination Sequence:
#
# PCOD9333574 Si02
#       6
#     8   8   8   8   8   8
#     4  12  23  38  58  80 114 159 201 253 306 340
#     4  12  24  39  59  88 118 145 199 263 297 338
#     4  10  20  35  58  91 119 151 193 237 290 346
#     4  10  19  38  65  87 121 163 192 222 285 370
#     4  10  20  37  58  77 103 145 193 241 286 346
#     4  10  19  35  52  71  99 144 199 234 280 347
#
# _framework density 21.656571
#
# number of rings (size 3 to 8) (size 9 to 14) (size 15 to 20)
#    0.000    1.333    0.000   10.000    0.000    0.000 
#    0.000   10.833    0.000    0.000    0.000    9.333 
#    0.000    0.000    0.000    0.000    0.000    0.000 
#
# Total GULP energy -133968.760169 kJ/mol
# GULP energy per Si atom -5582.031674 kJ/mol
# Density = 2.160728 g / cm^3
# Si number density = 21.656571 Si / 1000 Ang^3
#
#
#
# Elastic Constant Matrix: (Units=GPa)
#
#
# Indices 1 2 3 4 5 6 
#
# 1 67.3521 51.0861 20.4361 0.0000 0.0000 0.0000
# 2 51.0861 137.6859 80.0223 0.0000 0.0000 0.0000
# 3 20.4361 80.0223 253.5342 0.0000 0.0000 0.0000
# 4 0.0000 0.0000 0.0000 44.3839 0.0000 0.0000
# 5 0.0000 0.0000 0.0000 0.0000 27.5182 0.0000
# 6 0.0000 0.0000 0.0000 0.0000 0.0000 28.9402
#
#
#
# Elastic Compliance Matrix: (Units=1/GPa)
#
#
# Indices 1 2 3 4 5 6 
#
# 1 0.020840 -0.008274 0.000932 0.000000 0.000000 0.000000
# 2 -0.008274 0.012179 -0.003177 0.000000 0.000000 0.000000
# 3 0.000932 -0.003177 0.004872 0.000000 0.000000 0.000000
# 4 0.000000 0.000000 0.000000 0.022531 0.000000 0.000000
# 5 0.000000 0.000000 0.000000 0.000000 0.036340 0.000000
# 6 0.000000 0.000000 0.000000 0.000000 0.000000 0.034554
#
#
# Mechanical properties :
#
#
# Convention : Reuss Voigt Hill
#
# Bulk Modulus (GPa) = 59.33768 84.62901 71.98335
# Shear Modulus (GPa) = 31.65104 40.63698 36.14401
#
# Velocity S-wave (km/s) = 3.82710 4.33647 4.08973
# Velocity P-wave (km/s) = 6.85477 8.01473 7.45734
#
# Compressibility (1/GPa) = 0.01685270
#
# Stress axis : x y z
#
# Youngs Moduli (GPa) = 47.98375 82.10584 205.25599
#
# Poissons Ratio (x) = 0.67934 -0.19123
# Poissons Ratio (y) = 0.39701 0.65215
# Poissons Ratio (z) = -0.04470 0.26087
#
# Static dielectric constant tensor:
#      x y z
#    x 1.880860 0.000000 0.000000 
#    y 0.000000 1.789620 0.000000 
#    z 0.000000 0.000000 1.909340 
# 
# From -- ./inp_files/7106.got.cif
#   From: 2010.05.17/outbox.cif.g08.bks.cpg/sg24_4_cif.got.tgz:7106.got - 2010.06.04 00:33:39.
