data_PCOD9333322
_publ_section_title
;
Structure prediction by ZEFSAII (Michael W. Deem and Ramdas Pophale) SiO2 
 PCOD9333322
Probable space group: I 21 21 21
;
_chemical_formula_sum "Si O2"
_cell_formula_units_Z 56
_cell_length_a 8.092446
_cell_length_b 18.451530
_cell_length_c 17.076700
_cell_angle_alpha 90.000000
_cell_angle_beta 90.000000
_cell_angle_gamma 90.000000
_cell_volume 2549.858864
_symmetry_space_group_name_H-M "I 21 21 21"
_symmetry_group_IT_number 24
_symmetry_cell_setting 'orthorhombic'
loop_
_space_group_symop_operation_xyz
x,y,z
-x,1/2-y,z
x,-y,1/2-z
1/2-x,y,-z
1/2+x,1/2+y,1/2+z
1/2-x,-y,1/2+z
1/2+x,1/2-y,-z
-x,1/2+y,1/2-z
loop_
_atom_site_type_symbol
_atom_site_label
_atom_site_fract_x
_atom_site_fract_y
_atom_site_fract_z
Si Si1 0.329465 0.726414 0.571316
Si Si2 0.750000 0.081420 0.500000
Si Si3 0.088874 0.322329 0.366002
Si Si4 0.192333 0.500000 0.750000
Si Si5 0.615224 0.645146 0.352447
Si Si6 0.251421 0.342775 0.784335
Si Si7 0.534725 0.490330 0.401980
Si Si8 0.804707 0.575997 0.204890
O O1 0.500000 0.750000 0.535389
O O2 0.250000 0.682777 0.500000
O O3 0.216568 0.792994 0.601951
O O4 0.372156 0.681503 0.647716
O O5 0.811634 0.132560 0.429905
O O6 0.588317 0.036330 0.470432
O O7 0.213445 0.300949 0.295335
O O8 0.000000 0.250000 0.396467
O O9 0.952214 0.375063 0.327585
O O10 0.283465 0.426498 0.767316
O O11 0.079153 0.486642 0.675299
O O12 0.431258 0.666068 0.321491
O O13 0.592076 0.573897 0.406841
O O14 0.708105 0.620192 0.272903
O O15 0.691168 0.443478 0.371590
O O16 0.845997 0.500000 0.250000
#
# Coordination Sequence:
#
# PCOD9333322 Si02
#       8
#     8   4   8   4   8   8   8   8
#     4  12  26  46  64 102 146 188 232 285 363 438
#     4  12  26  46  66  98 150 190 232 310 362 422
#     4  12  27  43  67 103 136 187 246 296 360 433
#     4  10  18  42  72 102 124 176 240 282 344 426
#     4  10  20  42  71 100 135 179 231 292 356 428
#     4  11  21  42  71  97 139 178 232 287 352 425
#     4  10  20  44  70 103 136 180 236 294 356 424
#     4  10  20  40  71  99 133 176 237 298 353 433
#
# _framework density 21.961998999999999
#
# number of rings (size 3 to 8) (size 9 to 14) (size 15 to 20)
#    0.000    1.143    5.000    3.429    1.000    1.714 
#   15.429    1.429    0.000    0.000    0.000    0.000 
#    0.000    0.000    0.000    0.000    0.000    0.000 
#
# Total GULP energy -156306.360917 kJ/mol
# GULP energy per Si atom -5582.370033 kJ/mol
# Density = 2.191201 g / cm^3
# Si number density = 21.961999 Si / 1000 Ang^3
#
#
#
# Elastic Constant Matrix: (Units=GPa)
#
#
# Indices 1 2 3 4 5 6 
#
# 1 70.3706 21.4603 -4.4762 0.0000 0.0000 0.0000
# 2 21.4603 92.8824 7.9238 0.0000 0.0000 0.0000
# 3 -4.4762 7.9238 55.2351 0.0000 0.0000 0.0000
# 4 0.0000 0.0000 0.0000 21.3660 0.0000 0.0000
# 5 0.0000 0.0000 0.0000 0.0000 28.8231 0.0000
# 6 0.0000 0.0000 0.0000 0.0000 0.0000 -27.6113
#
#
#
# Elastic Compliance Matrix: (Units=1/GPa)
#
#
# Indices 1 2 3 4 5 6 
#
# 1 0.015460 -0.003724 0.001787 0.000000 0.000000 0.000000
# 2 -0.003724 0.011797 -0.001994 0.000000 0.000000 0.000000
# 3 0.001787 -0.001994 0.018535 0.000000 0.000000 0.000000
# 4 0.000000 0.000000 0.000000 0.046803 0.000000 0.000000
# 5 0.000000 0.000000 0.000000 0.000000 0.034694 0.000000
# 6 0.000000 0.000000 0.000000 0.000000 0.000000 -0.036217
#
#
# Mechanical properties :
#
#
# Convention : Reuss Voigt Hill
#
# Bulk Modulus (GPa) = 26.36483 29.81155 28.08819
# Shear Modulus (GPa) = 44.81128 17.42089 31.11609
#
# Velocity S-wave (km/s) = 4.52198 2.81949 3.76814
# Velocity P-wave (km/s) = 6.26859 4.91965 5.63463
#
# Compressibility (1/GPa) = 0.03792932
#
# Stress axis : x y z
#
# Youngs Moduli (GPa) = 64.68320 84.76759 53.95097
#
# Poissons Ratio (x) = 0.31571 -0.09642
# Poissons Ratio (y) = 0.24091 0.10759
# Poissons Ratio (z) = -0.11560 0.16904
#
# Static dielectric constant tensor:
#      x y z
#    x 1.845980 0.000000 0.000000 
#    y 0.000000 1.962890 0.000000 
#    z 0.000000 0.000000 1.792160 
# 
# From -- ./inp_files/25101.got.cif
#   From: 2010.05.17/outbox.cif.g08.bks.cpg/sg24_13_cif.got.tgz:25101.got - 2010.06.04 00:33:39.
