data_PCOD9333637
_publ_section_title
;
Structure prediction by ZEFSAII (Michael W. Deem and Ramdas Pophale) SiO2 
 PCOD9333637
Probable space group: I 21 21 21
;
_chemical_formula_sum "Si O2"
_cell_formula_units_Z 44
_cell_length_a 28.372810
_cell_length_b 7.749186
_cell_length_c 9.013862
_cell_angle_alpha 90.000000
_cell_angle_beta 90.000000
_cell_angle_gamma 90.000000
_cell_volume 1981.843423
_symmetry_space_group_name_H-M "I 21 21 21"
_symmetry_group_IT_number 24
_symmetry_cell_setting 'orthorhombic'
loop_
_space_group_symop_operation_xyz
x,y,z
-x,1/2-y,z
x,-y,1/2-z
1/2-x,y,-z
1/2+x,1/2+y,1/2+z
1/2-x,-y,1/2+z
1/2+x,1/2-y,-z
-x,1/2+y,1/2-z
loop_
_atom_site_type_symbol
_atom_site_label
_atom_site_fract_x
_atom_site_fract_y
_atom_site_fract_z
Si Si1 0.652783 0.700863 0.202300
Si Si2 0.744786 0.311748 0.173658
Si Si3 0.377583 0.500000 0.750000
Si Si4 0.199920 0.364599 0.429349
Si Si5 0.947199 0.311212 0.313722
Si Si6 0.051558 0.817071 0.829409
O O1 0.648961 0.500000 0.250000
O O2 0.694053 0.778834 0.302259
O O3 0.600446 0.776647 0.214850
O O4 0.675857 0.724455 0.038922
O O5 0.743670 0.500000 0.250000
O O6 0.783515 0.213832 0.271642
O O7 0.750000 0.331616 0.000000
O O8 0.342983 0.491323 0.607902
O O9 0.410362 0.668512 0.757602
O O10 0.250000 0.424285 0.500000
O O11 0.937363 0.500000 0.250000
O O12 0.945764 0.324878 0.492211
O O13 0.000000 0.250000 0.271292
O O14 0.000000 0.750000 0.788705
O O15 0.053538 0.000000 0.750000
#
# Coordination Sequence:
#
# PCOD9333637 Si02
#       6
#     8   8   4   8   8   8
#     4   9  17  37  62  91 132 184 230 291 359 421
#     4  10  19  35  60  95 135 177 238 296 363 432
#     4  12  24  46  72 108 148 194 246 302 380 430
#     4  10  22  40  66  94 143 193 242 309 356 436
#     4  11  24  46  77 110 149 191 245 306 367 448
#     4  10  22  43  66  98 142 183 234 293 363 438
#
# _framework density 22.201550999999998
#
# number of rings (size 3 to 8) (size 9 to 14) (size 15 to 20)
#    0.000    1.818    2.727    2.727    0.000    2.182 
#    9.818    0.000    8.000    1.091    0.000    0.000 
#    0.000    0.000    0.000    0.000    0.000    0.000 
#
# Total GULP energy -122725.104149 kJ/mol
# GULP energy per Si atom -5578.413825 kJ/mol
# Density = 2.215102 g / cm^3
# Si number density = 22.201551 Si / 1000 Ang^3
#
#
#
# Elastic Constant Matrix: (Units=GPa)
#
#
# Indices 1 2 3 4 5 6 
#
# 1 218.3438 71.3785 69.4424 0.0000 0.0000 0.0000
# 2 71.3785 115.1002 43.0642 0.0000 0.0000 0.0000
# 3 69.4424 43.0642 130.3889 0.0000 0.0000 0.0000
# 4 0.0000 0.0000 0.0000 24.4843 0.0000 0.0000
# 5 0.0000 0.0000 0.0000 0.0000 7.9461 0.0000
# 6 0.0000 0.0000 0.0000 0.0000 0.0000 33.7796
#
#
#
# Elastic Compliance Matrix: (Units=1/GPa)
#
#
# Indices 1 2 3 4 5 6 
#
# 1 0.006325 -0.003038 -0.002365 0.000000 0.000000 0.000000
# 2 -0.003038 0.011372 -0.002138 0.000000 0.000000 0.000000
# 3 -0.002365 -0.002138 0.009635 0.000000 0.000000 0.000000
# 4 0.000000 0.000000 0.000000 0.040842 0.000000 0.000000
# 5 0.000000 0.000000 0.000000 0.000000 0.125847 0.000000
# 6 0.000000 0.000000 0.000000 0.000000 0.000000 0.029604
#
#
# Mechanical properties :
#
#
# Convention : Reuss Voigt Hill
#
# Bulk Modulus (GPa) = 81.63170 92.40035 87.01602
# Shear Modulus (GPa) = 20.59383 31.90521 26.24952
#
# Velocity S-wave (km/s) = 3.04893 3.79499 3.44223
# Velocity P-wave (km/s) = 7.01733 7.80460 7.42141
#
# Compressibility (1/GPa) = 0.01225014
#
# Stress axis : x y z
#
# Youngs Moduli (GPa) = 158.09671 87.93732 103.78486
#
# Poissons Ratio (x) = 0.26711 0.24550
# Poissons Ratio (y) = 0.48022 0.22190
# Poissons Ratio (z) = 0.37397 0.18802
#
# Static dielectric constant tensor:
#      x y z
#    x 1.894800 0.000000 0.000000 
#    y 0.000000 1.810180 0.000000 
#    z 0.000000 0.000000 1.823980 
# 
# From -- ./inp_files/16750.got.cif
#   From: 2010.05.17/outbox.cif.g08.bks.cpg/sg24_9_cif.got.tgz:16750.got - 2010.06.04 00:33:39.
