data_PCOD9333908
_publ_section_title
;
Structure prediction by ZEFSAII (Michael W. Deem and Ramdas Pophale) SiO2 
 PCOD9333908
Probable space group: I 21 21 21
;
_chemical_formula_sum "Si O2"
_cell_formula_units_Z 60
_cell_length_a 19.058585
_cell_length_b 14.761409
_cell_length_c 11.013747
_cell_angle_alpha 90.000000
_cell_angle_beta 90.000000
_cell_angle_gamma 90.000000
_cell_volume 3098.514715
_symmetry_space_group_name_H-M "I 21 21 21"
_symmetry_group_IT_number 24
_symmetry_cell_setting 'orthorhombic'
loop_
_space_group_symop_operation_xyz
x,y,z
-x,1/2-y,z
x,-y,1/2-z
1/2-x,y,-z
1/2+x,1/2+y,1/2+z
1/2-x,-y,1/2+z
1/2+x,1/2-y,-z
-x,1/2+y,1/2-z
loop_
_atom_site_type_symbol
_atom_site_label
_atom_site_fract_x
_atom_site_fract_y
_atom_site_fract_z
Si Si1 0.807494 0.987128 0.107095
Si Si2 0.649988 0.218352 0.644748
Si Si3 0.404395 0.929716 0.506202
Si Si4 0.825781 0.607147 0.002958
Si Si5 0.825871 0.400175 0.766614
Si Si6 0.000000 0.250000 0.284192
Si Si7 0.205075 0.782791 0.388698
Si Si8 0.457054 0.570825 0.639675
O O1 0.833495 0.881662 0.096413
O O2 0.783393 0.000000 0.250000
O O3 0.878070 0.048724 0.096080
O O4 0.750000 0.003143 0.000000
O O5 0.686595 0.302590 0.579356
O O6 0.569636 0.252480 0.635208
O O7 0.673662 0.219090 0.785378
O O8 0.387077 0.914146 0.364704
O O9 0.358154 0.850128 0.570082
O O10 0.486189 0.934315 0.533557
O O11 0.376097 0.027992 0.549185
O O12 0.848420 0.632126 0.866126
O O13 0.750000 0.559878 0.000000
O O14 0.794896 0.500000 0.750000
O O15 0.765541 0.340344 0.823587
O O16 0.021064 0.334138 0.200001
O O17 0.250000 0.740591 0.500000
O O18 0.469044 0.500000 0.750000
#
# Coordination Sequence:
#
# PCOD9333908 Si02
#       8
#     8   8   8   8   8   4   8   8
#     4  11  26  49  72  98 131 184 235 291 342 414
#     4  12  23  38  66  96 128 165 227 281 338 395
#     4  10  20  32  57  90 131 172 204 267 342 405
#     4  11  20  32  56  89 130 175 209 261 320 415
#     4   9  18  33  48  85 134 170 207 249 330 415
#     4  12  22  42  66 100 124 162 222 288 344 388
#     4  10  20  32  54  93 132 165 209 264 329 402
#     4  11  22  42  67  97 130 167 226 287 340 408
#
# _framework density 19.364117
#
# number of rings (size 3 to 8) (size 9 to 14) (size 15 to 20)
#    0.000    1.333    5.333    3.200    0.000    0.533 
#    0.000    2.000    0.000    0.000    0.000    0.000 
#    0.000    0.000    0.000    0.000    0.000    0.000 
#
# Total GULP energy -167057.028834 kJ/mol
# GULP energy per Si atom -5568.567628 kJ/mol
# Density = 1.932004 g / cm^3
# Si number density = 19.364117 Si / 1000 Ang^3
#
#
#
# Elastic Constant Matrix: (Units=GPa)
#
#
# Indices 1 2 3 4 5 6 
#
# 1 118.6368 20.1991 44.7815 0.0000 0.0000 0.0000
# 2 20.1991 89.6145 20.9501 0.0000 0.0000 0.0000
# 3 44.7815 20.9501 81.0563 0.0000 0.0000 0.0000
# 4 0.0000 0.0000 0.0000 11.2693 0.0000 0.0000
# 5 0.0000 0.0000 0.0000 0.0000 30.7330 0.0000
# 6 0.0000 0.0000 0.0000 0.0000 0.0000 17.0498
#
#
#
# Elastic Compliance Matrix: (Units=1/GPa)
#
#
# Indices 1 2 3 4 5 6 
#
# 1 0.010751 -0.001101 -0.005655 0.000000 0.000000 0.000000
# 2 -0.001101 0.011989 -0.002490 0.000000 0.000000 0.000000
# 3 -0.005655 -0.002490 0.016105 0.000000 0.000000 0.000000
# 4 0.000000 0.000000 0.000000 0.088736 0.000000 0.000000
# 5 0.000000 0.000000 0.000000 0.000000 0.032538 0.000000
# 6 0.000000 0.000000 0.000000 0.000000 0.000000 0.058652
#
#
# Mechanical properties :
#
#
# Convention : Reuss Voigt Hill
#
# Bulk Modulus (GPa) = 49.13503 51.24100 50.18802
# Shear Modulus (GPa) = 20.48763 25.36888 22.92825
#
# Velocity S-wave (km/s) = 3.25625 3.62345 3.44475
# Velocity P-wave (km/s) = 6.29022 6.63515 6.46499
#
# Compressibility (1/GPa) = 0.02035208
#
# Stress axis : x y z
#
# Youngs Moduli (GPa) = 93.01275 83.40745 62.09217
#
# Poissons Ratio (x) = 0.09185 0.35114
# Poissons Ratio (y) = 0.10243 0.15463
# Poissons Ratio (z) = 0.52600 0.20772
#
# Static dielectric constant tensor:
#      x y z
#    x 1.814070 0.000000 0.000000 
#    y 0.000000 1.736020 0.000000 
#    z 0.000000 0.000000 1.811400 
# 
# From -- ./inp_files/21703.got.cif
#   From: 2010.05.17/outbox.cif.g08.bks.cpg/sg24_11_cif.got.tgz:21703.got - 2010.06.04 00:33:39.
