data_PCOD9333120
_publ_section_title
;
Structure prediction by ZEFSAII (Michael W. Deem and Ramdas Pophale) SiO2 
 PCOD9333120
Probable space group: I 21 21 21
;
_chemical_formula_sum "Si O2"
_cell_formula_units_Z 44
_cell_length_a 12.682296
_cell_length_b 5.985050
_cell_length_c 28.247640
_cell_angle_alpha 90.000000
_cell_angle_beta 90.000000
_cell_angle_gamma 90.000000
_cell_volume 2144.113829
_symmetry_space_group_name_H-M "I 21 21 21"
_symmetry_group_IT_number 24
_symmetry_cell_setting 'orthorhombic'
loop_
_space_group_symop_operation_xyz
x,y,z
-x,1/2-y,z
x,-y,1/2-z
1/2-x,y,-z
1/2+x,1/2+y,1/2+z
1/2-x,-y,1/2+z
1/2+x,1/2-y,-z
-x,1/2+y,1/2-z
loop_
_atom_site_type_symbol
_atom_site_label
_atom_site_fract_x
_atom_site_fract_y
_atom_site_fract_z
Si Si1 0.500000 0.750000 0.076017
Si Si2 0.707939 0.490305 0.448306
Si Si3 0.128645 0.623069 0.621070
Si Si4 0.712072 0.624584 0.297140
Si Si5 0.306094 0.249216 0.633955
Si Si6 0.581981 0.925648 0.698969
O O1 0.606740 0.677752 0.049002
O O2 0.469426 0.531338 0.106718
O O3 0.750000 0.544399 0.500000
O O4 0.665454 0.706217 0.419843
O O5 0.801135 0.377277 0.416530
O O6 0.125588 0.752066 0.670900
O O7 0.221893 0.445427 0.627166
O O8 0.675616 0.500000 0.250000
O O9 0.761898 0.433642 0.330003
O O10 0.807742 0.799653 0.288695
O O11 0.398591 0.376891 0.661610
O O12 0.500000 0.750000 0.677717
O O13 0.538005 0.000000 0.750000
#
# Coordination Sequence:
#
# PCOD9333120 Si02
#       6
#     4   8   8   8   8   8
#     4  10  20  40  64  94 118 162 198 250 310 372
#     4  10  21  40  66  94 122 159 206 252 310 368
#     4   9  20  35  60  91 113 156 201 250 301 368
#     4  10  18  34  56  85 116 162 212 251 305 364
#     4   9  20  37  55  86 117 159 204 251 302 356
#     4  11  21  31  52  86 125 173 214 252 301 366
#
# _framework density 20.5213
#
# number of rings (size 3 to 8) (size 9 to 14) (size 15 to 20)
#    0.000    2.182    1.818    1.091    0.000    2.909 
#    0.000    5.455    0.000    0.000  170.182    0.000 
#    0.000    0.000    0.000    0.000    0.000    0.000 
#
# Total GULP energy -122641.252094 kJ/mol
# GULP energy per Si atom -5574.602368 kJ/mol
# Density = 2.047459 g / cm^3
# Si number density = 20.521300 Si / 1000 Ang^3
#
#
#
# Elastic Constant Matrix: (Units=GPa)
#
#
# Indices 1 2 3 4 5 6 
#
# 1 66.4533 27.2342 22.9894 0.0000 0.0000 0.0000
# 2 27.2342 107.4400 46.4794 0.0000 0.0000 0.0000
# 3 22.9894 46.4794 134.6579 0.0000 0.0000 0.0000
# 4 0.0000 0.0000 0.0000 21.6114 0.0000 0.0000
# 5 0.0000 0.0000 0.0000 0.0000 9.6202 0.0000
# 6 0.0000 0.0000 0.0000 0.0000 0.0000 48.8879
#
#
#
# Elastic Compliance Matrix: (Units=1/GPa)
#
#
# Indices 1 2 3 4 5 6 
#
# 1 0.017108 -0.003612 -0.001674 0.000000 0.000000 0.000000
# 2 -0.003612 0.011704 -0.003423 0.000000 0.000000 0.000000
# 3 -0.001674 -0.003423 0.008894 0.000000 0.000000 0.000000
# 4 0.000000 0.000000 0.000000 0.046272 0.000000 0.000000
# 5 0.000000 0.000000 0.000000 0.000000 0.103948 0.000000
# 6 0.000000 0.000000 0.000000 0.000000 0.000000 0.020455
#
#
# Mechanical properties :
#
#
# Convention : Reuss Voigt Hill
#
# Bulk Modulus (GPa) = 49.29364 55.77300 52.53332
# Shear Modulus (GPa) = 21.49971 30.14711 25.82341
#
# Velocity S-wave (km/s) = 3.24030 3.83700 3.55120
# Velocity P-wave (km/s) = 6.17027 6.84596 6.51688
#
# Compressibility (1/GPa) = 0.02028659
#
# Stress axis : x y z
#
# Youngs Moduli (GPa) = 58.45339 85.44036 112.44119
#
# Poissons Ratio (x) = 0.30864 0.18821
# Poissons Ratio (y) = 0.21116 0.38490
# Poissons Ratio (z) = 0.09784 0.29247
#
# Static dielectric constant tensor:
#      x y z
#    x 1.781090 0.000000 0.000000 
#    y 0.000000 1.774800 0.000000 
#    z 0.000000 0.000000 1.711800 
# 
# From -- ./inp_files/38675.got.cif
#   From: 2010.05.17/outbox.cif.g08.bks.cpg/sg24_20_cif.got.tgz:38675.got - 2010.06.04 00:33:39.
