data_PCOD9333602
_publ_section_title
;
Structure prediction by ZEFSAII (Michael W. Deem and Ramdas Pophale) SiO2 
 PCOD9333602
Probable space group: I 21 21 21
;
_chemical_formula_sum "Si O2"
_cell_formula_units_Z 40
_cell_length_a 13.007869
_cell_length_b 9.015625
_cell_length_c 14.491350
_cell_angle_alpha 90.000000
_cell_angle_beta 90.000000
_cell_angle_gamma 90.000000
_cell_volume 1699.459579
_symmetry_space_group_name_H-M "I 21 21 21"
_symmetry_group_IT_number 24
_symmetry_cell_setting 'orthorhombic'
loop_
_space_group_symop_operation_xyz
x,y,z
-x,1/2-y,z
x,-y,1/2-z
1/2-x,y,-z
1/2+x,1/2+y,1/2+z
1/2-x,-y,1/2+z
1/2+x,1/2-y,-z
-x,1/2+y,1/2-z
loop_
_atom_site_type_symbol
_atom_site_label
_atom_site_fract_x
_atom_site_fract_y
_atom_site_fract_z
Si Si1 0.427858 0.895955 0.835550
Si Si2 0.022096 0.594273 0.475198
Si Si3 0.722643 0.153919 0.892026
Si Si4 0.695467 0.659504 0.228037
Si Si5 0.328479 0.632011 0.078596
O O1 0.500000 0.750000 0.845600
O O2 0.309983 0.855681 0.815683
O O3 0.460975 0.000000 0.750000
O O4 0.433695 0.000986 0.925796
O O5 0.099844 0.652554 0.394411
O O6 0.084702 0.471096 0.532751
O O7 0.000000 0.750000 0.526234
O O8 0.781515 0.260292 0.824144
O O9 0.757728 0.987707 0.868417
O O10 0.750000 0.182149 0.000000
O O11 0.650490 0.500000 0.250000
O O12 0.633803 0.749668 0.151497
O O13 0.250000 0.691780 0.000000
#
# Coordination Sequence:
#
# PCOD9333602 Si02
#       5
#     8   8   8   8   8
#     4  11  20  30  52  88 131 165 196 252 317 370
#     4  10  19  35  57  87 122 158 204 257 314 363
#     4   9  19  36  58  85 118 158 201 248 304 366
#     4  11  21  33  54  87 127 164 201 248 302 368
#     4   9  20  36  56  83 122 169 202 239 302 373
#
# _framework density 23.536892000000002
#
# number of rings (size 3 to 8) (size 9 to 14) (size 15 to 20)
#    0.000    2.400    0.000    7.200    0.000    0.800 
#    0.000    4.000    0.000    0.000    0.000  100.800 
#    0.000    8.000    0.000    0.000    0.000    0.000 
#
# Total GULP energy -111661.879671 kJ/mol
# GULP energy per Si atom -5583.093984 kJ/mol
# Density = 2.348332 g / cm^3
# Si number density = 23.536892 Si / 1000 Ang^3
#
#
#
# Elastic Constant Matrix: (Units=GPa)
#
#
# Indices 1 2 3 4 5 6 
#
# 1 33.4319 2.4485 9.0309 0.0000 0.0000 0.0000
# 2 2.4485 144.8098 72.9944 0.0000 0.0000 0.0000
# 3 9.0309 72.9944 108.6356 0.0000 0.0000 0.0000
# 4 0.0000 0.0000 0.0000 32.1209 0.0000 0.0000
# 5 0.0000 0.0000 0.0000 0.0000 8.0804 0.0000
# 6 0.0000 0.0000 0.0000 0.0000 0.0000 20.1157
#
#
#
# Elastic Compliance Matrix: (Units=1/GPa)
#
#
# Indices 1 2 3 4 5 6 
#
# 1 0.030727 0.001161 -0.003335 0.000000 0.000000 0.000000
# 2 0.001161 0.010486 -0.007142 0.000000 0.000000 0.000000
# 3 -0.003335 -0.007142 0.014281 0.000000 0.000000 0.000000
# 4 0.000000 0.000000 0.000000 0.031132 0.000000 0.000000
# 5 0.000000 0.000000 0.000000 0.000000 0.123756 0.000000
# 6 0.000000 0.000000 0.000000 0.000000 0.000000 0.049712
#
#
# Mechanical properties :
#
#
# Convention : Reuss Voigt Hill
#
# Bulk Modulus (GPa) = 27.12714 50.64722 38.88718
# Shear Modulus (GPa) = 17.18122 25.55698 21.36910
#
# Velocity S-wave (km/s) = 2.70473 3.29876 3.01640
# Velocity P-wave (km/s) = 4.61567 6.00617 5.35623
#
# Compressibility (1/GPa) = 0.03686345
#
# Stress axis : x y z
#
# Youngs Moduli (GPa) = 32.54432 95.36255 70.02073
#
# Poissons Ratio (x) = -0.11075 0.23350
# Poissons Ratio (y) = -0.03780 0.50012
# Poissons Ratio (z) = 0.10853 0.68113
#
# Static dielectric constant tensor:
#      x y z
#    x 1.973020 0.000000 0.000000 
#    y 0.000000 1.948750 0.000000 
#    z 0.000000 0.000000 1.927760 
# 
# From -- ./inp_files/12570.got.cif
#   From: 2010.05.17/outbox.cif.g08.bks.cpg/sg24_7_cif.got.tgz:12570.got - 2010.06.04 00:33:39.
