data_PCOD9333603
_publ_section_title
;
Structure prediction by ZEFSAII (Michael W. Deem and Ramdas Pophale) SiO2 
 PCOD9333603
Probable space group: I 21 21 21
;
_chemical_formula_sum "Si O2"
_cell_formula_units_Z 56
_cell_length_a 20.263788
_cell_length_b 14.877568
_cell_length_c 8.690079
_cell_angle_alpha 90.000000
_cell_angle_beta 90.000000
_cell_angle_gamma 90.000000
_cell_volume 2619.849248
_symmetry_space_group_name_H-M "I 21 21 21"
_symmetry_group_IT_number 24
_symmetry_cell_setting 'orthorhombic'
loop_
_space_group_symop_operation_xyz
x,y,z
-x,1/2-y,z
x,-y,1/2-z
1/2-x,y,-z
1/2+x,1/2+y,1/2+z
1/2-x,-y,1/2+z
1/2+x,1/2-y,-z
-x,1/2+y,1/2-z
loop_
_atom_site_type_symbol
_atom_site_label
_atom_site_fract_x
_atom_site_fract_y
_atom_site_fract_z
Si Si1 0.720944 0.585368 0.164064
Si Si2 0.550911 0.049473 0.509723
Si Si3 0.057673 0.628235 0.348991
Si Si4 0.597787 0.331275 0.844637
Si Si5 0.405311 0.888749 0.997023
Si Si6 0.188345 0.776105 0.588720
Si Si7 0.570694 0.215470 0.295169
O O1 0.749874 0.500000 0.250000
O O2 0.722743 0.669030 0.275442
O O3 0.750000 0.607812 0.000000
O O4 0.645593 0.567116 0.113373
O O5 0.567961 0.091559 0.676136
O O6 0.471482 0.053344 0.505569
O O7 0.570264 0.117436 0.373557
O O8 0.575771 0.947312 0.524729
O O9 0.095141 0.722445 0.348229
O O10 0.978734 0.642660 0.369016
O O11 0.616531 0.372433 0.679245
O O12 0.650477 0.348266 0.978502
O O13 0.419482 0.789594 0.068570
O O14 0.250000 0.730883 0.500000
O O15 0.129686 0.722920 0.673713
O O16 0.500000 0.250000 0.226638
#
# Coordination Sequence:
#
# PCOD9333603 Si02
#       7
#     8   8   8   8   8   8   8
#     4  11  24  41  58  81 117 165 211 260 307 368
#     4   9  16  33  56  92 118 157 205 247 316 378
#     4   9  18  30  59  92 123 156 196 257 312 372
#     4  10  19  35  57  89 127 157 201 255 311 373
#     4   9  18  34  58  82 121 161 203 251 310 370
#     4  11  24  39  59  87 121 168 220 256 316 380
#     4   9  18  35  58  85 124 165 209 265 310 370
#
# _framework density 21.375274999999998
#
# number of rings (size 3 to 8) (size 9 to 14) (size 15 to 20)
#    0.000    2.286    1.429    1.286    4.000    0.000 
#    2.571    0.714    0.000    0.000    7.429    1.000 
#    0.000    0.000    0.000    0.000    0.000    0.000 
#
# Total GULP energy -156191.345616 kJ/mol
# GULP energy per Si atom -5578.262343 kJ/mol
# Density = 2.132662 g / cm^3
# Si number density = 21.375275 Si / 1000 Ang^3
#
#
#
# Elastic Constant Matrix: (Units=GPa)
#
#
# Indices 1 2 3 4 5 6 
#
# 1 61.5873 22.4118 39.4979 0.0000 0.0000 0.0000
# 2 22.4118 87.6678 34.1386 0.0000 0.0000 0.0000
# 3 39.4979 34.1386 109.0690 0.0000 0.0000 0.0000
# 4 0.0000 0.0000 0.0000 22.1132 0.0000 0.0000
# 5 0.0000 0.0000 0.0000 0.0000 37.0706 0.0000
# 6 0.0000 0.0000 0.0000 0.0000 0.0000 11.8663
#
#
#
# Elastic Compliance Matrix: (Units=1/GPa)
#
#
# Indices 1 2 3 4 5 6 
#
# 1 0.021752 -0.002839 -0.006989 0.000000 0.000000 0.000000
# 2 -0.002839 0.013361 -0.003154 0.000000 0.000000 0.000000
# 3 -0.006989 -0.003154 0.012686 0.000000 0.000000 0.000000
# 4 0.000000 0.000000 0.000000 0.045222 0.000000 0.000000
# 5 0.000000 0.000000 0.000000 0.000000 0.026976 0.000000
# 6 0.000000 0.000000 0.000000 0.000000 0.000000 0.084272
#
#
# Mechanical properties :
#
#
# Convention : Reuss Voigt Hill
#
# Bulk Modulus (GPa) = 45.79565 50.04673 47.92119
# Shear Modulus (GPa) = 21.05166 25.02842 23.04004
#
# Velocity S-wave (km/s) = 3.14165 3.42556 3.28667
# Velocity P-wave (km/s) = 5.88482 6.25381 6.07212
#
# Compressibility (1/GPa) = 0.02183614
#
# Stress axis : x y z
#
# Youngs Moduli (GPa) = 45.97191 74.84676 78.82450
#
# Poissons Ratio (x) = 0.21252 0.55087
# Poissons Ratio (y) = 0.13054 0.24858
# Poissons Ratio (z) = 0.32128 0.23604
#
# Static dielectric constant tensor:
#      x y z
#    x 1.832710 0.000000 0.000000 
#    y 0.000000 1.815960 0.000000 
#    z 0.000000 0.000000 1.804830 
# 
# From -- ./inp_files/15258.got.cif
#   From: 2010.05.17/outbox.cif.g08.bks.cpg/sg24_8_cif.got.tgz:15258.got - 2010.06.04 00:33:39.
