data_PCOD9333238
_publ_section_title
;
Structure prediction by ZEFSAII (Michael W. Deem and Ramdas Pophale) SiO2 
 PCOD9333238
Probable space group: I 21 21 21
;
_chemical_formula_sum "Si O2"
_cell_formula_units_Z 48
_cell_length_a 8.792150
_cell_length_b 18.080130
_cell_length_c 13.250921
_cell_angle_alpha 90.000000
_cell_angle_beta 90.000000
_cell_angle_gamma 90.000000
_cell_volume 2106.409004
_symmetry_space_group_name_H-M "I 21 21 21"
_symmetry_group_IT_number 24
_symmetry_cell_setting 'orthorhombic'
loop_
_space_group_symop_operation_xyz
x,y,z
-x,1/2-y,z
x,-y,1/2-z
1/2-x,y,-z
1/2+x,1/2+y,1/2+z
1/2-x,-y,1/2+z
1/2+x,1/2-y,-z
-x,1/2+y,1/2-z
loop_
_atom_site_type_symbol
_atom_site_label
_atom_site_fract_x
_atom_site_fract_y
_atom_site_fract_z
Si Si1 0.997950 0.586015 0.076424
Si Si2 0.750000 0.350300 0.000000
Si Si3 0.018425 0.603317 0.853753
Si Si4 0.689692 0.850891 0.752551
Si Si5 0.751859 0.484788 0.860494
Si Si6 0.751101 0.714092 0.891308
Si Si7 0.500000 0.750000 0.597749
O O1 0.884637 0.516214 0.069797
O O2 0.876862 0.652071 0.093614
O O3 0.098720 0.591795 0.176181
O O4 0.080523 0.596191 0.968933
O O5 0.718515 0.403261 0.097216
O O6 0.885968 0.296969 0.030234
O O7 0.139027 0.614387 0.763344
O O8 0.903815 0.534022 0.850338
O O9 0.905741 0.673856 0.859767
O O10 0.706987 0.774818 0.813186
O O11 0.593603 0.815957 0.659127
O O12 0.683703 0.500000 0.750000
O O13 0.750000 0.751715 0.000000
#
# Coordination Sequence:
#
# PCOD9333238 Si02
#       7
#     8   4   8   8   8   8   4
#     4  10  18  37  62 105 148 190 238 297 385 429
#     4  12  28  58  78 104 152 196 262 320 384 460
#     4  10  21  35  64 110 147 195 244 299 374 442
#     4  12  21  38  66 110 148 185 248 305 370 447
#     4  11  23  45  78 103 139 201 251 308 369 458
#     4   9  17  31  55  97 156 194 224 284 364 440
#     4  12  30  50  78 108 142 212 248 330 380 466
#
# _framework density 22.787597000000002
#
# number of rings (size 3 to 8) (size 9 to 14) (size 15 to 20)
#    0.000    1.333    3.333    4.000    2.333    4.000 
#    0.000    4.167    0.000    0.000    0.000    0.000 
#    0.000    0.000    0.000    0.000    0.000    0.000 
#
# Total GULP energy -133725.521559 kJ/mol
# GULP energy per Si atom -5571.896732 kJ/mol
# Density = 2.273573 g / cm^3
# Si number density = 22.787597 Si / 1000 Ang^3
#
#
#
# Elastic Constant Matrix: (Units=GPa)
#
#
# Indices 1 2 3 4 5 6 
#
# 1 118.6529 51.8658 39.2211 0.0000 0.0000 0.0000
# 2 51.8658 93.2815 31.8465 0.0000 0.0000 0.0000
# 3 39.2211 31.8465 70.9396 0.0000 0.0000 0.0000
# 4 0.0000 0.0000 0.0000 65.8746 0.0000 0.0000
# 5 0.0000 0.0000 0.0000 0.0000 34.0983 0.0000
# 6 0.0000 0.0000 0.0000 0.0000 0.0000 68.5841
#
#
#
# Elastic Compliance Matrix: (Units=1/GPa)
#
#
# Indices 1 2 3 4 5 6 
#
# 1 0.012179 -0.005282 -0.004362 0.000000 0.000000 0.000000
# 2 -0.005282 0.014952 -0.003792 0.000000 0.000000 0.000000
# 3 -0.004362 -0.003792 0.018210 0.000000 0.000000 0.000000
# 4 0.000000 0.000000 0.000000 0.015180 0.000000 0.000000
# 5 0.000000 0.000000 0.000000 0.000000 0.029327 0.000000
# 6 0.000000 0.000000 0.000000 0.000000 0.000000 0.014581
#
#
# Mechanical properties :
#
#
# Convention : Reuss Voigt Hill
#
# Bulk Modulus (GPa) = 54.14550 58.74897 56.44723
# Shear Modulus (GPa) = 36.37483 44.37409 40.37446
#
# Velocity S-wave (km/s) = 3.99965 4.41760 4.21381
# Velocity P-wave (km/s) = 6.71879 7.20120 6.96418
#
# Compressibility (1/GPa) = 0.01846876
#
# Stress axis : x y z
#
# Youngs Moduli (GPa) = 82.10924 66.88140 54.91377
#
# Poissons Ratio (x) = 0.35330 0.23954
# Poissons Ratio (y) = 0.43374 0.20822
# Poissons Ratio (z) = 0.35817 0.25359
#
# Static dielectric constant tensor:
#      x y z
#    x 1.831960 0.000000 0.000000 
#    y 0.000000 1.840780 0.000000 
#    z 0.000000 0.000000 2.014740 
# 
# From -- ./inp_files/24975.got.cif
#   From: 2010.05.17/outbox.cif.g08.bks.cpg/sg24_13_cif.got.tgz:24975.got - 2010.06.04 00:33:39.
