data_PCOD9333002
_publ_section_title
;
Structure prediction by ZEFSAII (Michael W. Deem and Ramdas Pophale) SiO2 
 PCOD9333002
Probable space group: I 21 21 21
;
_chemical_formula_sum "Si O2"
_cell_formula_units_Z 64
_cell_length_a 17.024190
_cell_length_b 23.270272
_cell_length_c 9.036069
_cell_angle_alpha 90.000000
_cell_angle_beta 90.000000
_cell_angle_gamma 90.000000
_cell_volume 3579.706793
_symmetry_space_group_name_H-M "I 21 21 21"
_symmetry_group_IT_number 24
_symmetry_cell_setting 'orthorhombic'
loop_
_space_group_symop_operation_xyz
x,y,z
-x,1/2-y,z
x,-y,1/2-z
1/2-x,y,-z
1/2+x,1/2+y,1/2+z
1/2-x,-y,1/2+z
1/2+x,1/2-y,-z
-x,1/2+y,1/2-z
loop_
_atom_site_type_symbol
_atom_site_label
_atom_site_fract_x
_atom_site_fract_y
_atom_site_fract_z
Si Si1 0.964454 0.883597 0.426779
Si Si2 0.459007 0.383701 0.574421
Si Si3 0.826044 0.531772 0.907071
Si Si4 0.382847 0.842762 0.077017
Si Si5 0.404252 0.736074 0.881771
Si Si6 0.994877 0.003752 0.572800
Si Si7 0.164670 0.289142 0.058040
Si Si8 0.433177 0.798952 0.395645
O O1 0.963348 0.891062 0.250630
O O2 0.890785 0.843998 0.468981
O O3 0.037489 0.846327 0.487734
O O4 0.966234 0.944631 0.504015
O O5 0.544334 0.366368 0.516600
O O6 0.405472 0.327585 0.545945
O O7 0.444187 0.443220 0.490621
O O8 0.820099 0.500000 0.750000
O O9 0.827277 0.601825 0.901259
O O10 0.912439 0.513189 0.966990
O O11 0.750000 0.514255 0.000000
O O12 0.414319 0.825967 0.238328
O O13 0.364613 0.784232 0.986259
O O14 0.500000 0.750000 0.857037
O O15 0.358107 0.729853 0.726378
O O16 0.991010 0.000000 0.750000
O O17 0.250000 0.304829 0.000000
O O18 0.140179 0.234860 0.959520
O O19 0.500000 0.750000 0.379766
#
# Coordination Sequence:
#
# PCOD9333002 Si02
#       8
#     8   8   8   8   8   8   8   8
#     4  10  19  34  56  79 106 139 183 225 267 328
#     4   9  17  30  52  80 104 133 173 223 271 310
#     4  10  22  37  50  72 109 146 177 216 264 317
#     4  10  19  32  53  80 107 138 182 227 269 311
#     4   9  17  34  56  80 109 140 180 223 265 324
#     4  10  20  35  56  81 104 135 184 229 270 321
#     4  10  21  35  52  77 110 144 176 221 278 330
#     4  10  18  31  53  79 105 139 180 224 270 317
#
# _framework density 17.87856
#
# number of rings (size 3 to 8) (size 9 to 14) (size 15 to 20)
#    0.000    2.250    0.000    6.375    0.000    4.000 
#    0.000    3.750    0.000    3.000    0.000    0.000 
#    0.000    0.000    0.000    0.000    0.000    0.000 
#
# Total GULP energy -178182.720432 kJ/mol
# GULP energy per Si atom -5568.210014 kJ/mol
# Density = 1.783787 g / cm^3
# Si number density = 17.878560 Si / 1000 Ang^3
#
#
#
# Elastic Constant Matrix: (Units=GPa)
#
#
# Indices 1 2 3 4 5 6 
#
# 1 36.6053 31.1308 32.9104 0.0000 0.0000 0.0000
# 2 31.1308 144.9774 51.1392 0.0000 0.0000 0.0000
# 3 32.9104 51.1392 61.6930 0.0000 0.0000 0.0000
# 4 0.0000 0.0000 0.0000 56.1363 0.0000 0.0000
# 5 0.0000 0.0000 0.0000 0.0000 7.9996 0.0000
# 6 0.0000 0.0000 0.0000 0.0000 0.0000 3.0187
#
#
#
# Elastic Compliance Matrix: (Units=1/GPa)
#
#
# Indices 1 2 3 4 5 6 
#
# 1 0.052897 -0.001985 -0.026572 0.000000 0.000000 0.000000
# 2 -0.001985 0.009822 -0.007083 0.000000 0.000000 0.000000
# 3 -0.026572 -0.007083 0.036256 0.000000 0.000000 0.000000
# 4 0.000000 0.000000 0.000000 0.017814 0.000000 0.000000
# 5 0.000000 0.000000 0.000000 0.000000 0.125006 0.000000
# 6 0.000000 0.000000 0.000000 0.000000 0.000000 0.331268
#
#
# Mechanical properties :
#
#
# Convention : Reuss Voigt Hill
#
# Bulk Modulus (GPa) = 36.10934 52.62627 44.36780
# Shear Modulus (GPa) = 7.65022 21.97062 14.81042
#
# Velocity S-wave (km/s) = 2.07082 3.50934 2.88130
# Velocity P-wave (km/s) = 5.09495 6.77643 5.99494
#
# Compressibility (1/GPa) = 0.02769367
#
# Stress axis : x y z
#
# Youngs Moduli (GPa) = 18.90463 101.80832 27.58182
#
# Poissons Ratio (x) = 0.20213 0.73292
# Poissons Ratio (y) = 0.03753 0.19536
# Poissons Ratio (z) = 0.50234 0.72110
#
# Static dielectric constant tensor:
#      x y z
#    x 1.567110 0.000000 0.000000 
#    y 0.000000 1.666740 0.000000 
#    z 0.000000 0.000000 1.603910 
# 
# From -- ./inp_files/13380.got.cif
#   From: 2010.05.17/outbox.cif.g08.bks.cpg/sg24_7_cif.got.tgz:13380.got - 2010.06.04 00:33:39.
