data_PCOD9333333
_publ_section_title
;
Structure prediction by ZEFSAII (Michael W. Deem and Ramdas Pophale) SiO2 
 PCOD9333333
Probable space group: I 21 21 21
;
_chemical_formula_sum "Si O2"
_cell_formula_units_Z 64
_cell_length_a 9.057696
_cell_length_b 30.600143
_cell_length_c 9.293328
_cell_angle_alpha 90.000000
_cell_angle_beta 90.000000
_cell_angle_gamma 90.000000
_cell_volume 2575.801917
_symmetry_space_group_name_H-M "I 21 21 21"
_symmetry_group_IT_number 24
_symmetry_cell_setting 'orthorhombic'
loop_
_space_group_symop_operation_xyz
x,y,z
-x,1/2-y,z
x,-y,1/2-z
1/2-x,y,-z
1/2+x,1/2+y,1/2+z
1/2-x,-y,1/2+z
1/2+x,1/2-y,-z
-x,1/2+y,1/2-z
loop_
_atom_site_type_symbol
_atom_site_label
_atom_site_fract_x
_atom_site_fract_y
_atom_site_fract_z
Si Si1 0.420752 0.027093 0.465452
Si Si2 0.571160 0.652095 0.989204
Si Si3 0.813890 0.264984 0.844262
Si Si4 0.028935 0.071394 0.269573
Si Si5 0.092268 0.321346 0.774017
Si Si6 0.031292 0.200738 0.230326
Si Si7 0.628115 0.566055 0.323875
Si Si8 0.562042 0.876203 0.520682
O O1 0.250000 0.037232 0.500000
O O2 0.503801 0.032533 0.617212
O O3 0.451540 0.059484 0.331496
O O4 0.417886 0.978074 0.406912
O O5 0.535929 0.611106 0.885379
O O6 0.503606 0.691799 0.896396
O O7 0.750000 0.653201 0.000000
O O8 0.483504 0.656056 0.138567
O O9 0.966582 0.291505 0.851590
O O10 0.802914 0.220694 0.747791
O O11 0.750000 0.253398 0.000000
O O12 0.792179 0.301831 0.218991
O O13 0.195391 0.066372 0.204658
O O14 0.922369 0.084351 0.137264
O O15 0.157157 0.356524 0.886656
O O16 0.972011 0.164482 0.123269
O O17 0.000000 0.250000 0.187532
O O18 0.574370 0.606211 0.420306
#
# Coordination Sequence:
#
# PCOD9333333 Si02
#       8
#     8   8   8   8   8   8   8   8
#     4   9  17  31  42  67  99 137 181 226 273 331
#     4  11  21  34  54  79 107 144 190 242 279 343
#     4  11  22  38  56  77 106 141 193 247 297 356
#     4  10  20  30  47  71 104 141 185 232 277 326
#     4  11  23  36  56  78 104 143 190 240 301 339
#     4  11  24  37  54  75 108 143 189 244 299 345
#     4  10  19  28  48  68 100 140 185 226 273 335
#     4  11  21  32  48  73  98 138 188 236 281 335
#
# _framework density 24.846632
#
# number of rings (size 3 to 8) (size 9 to 14) (size 15 to 20)
#    0.000    1.500    2.500    4.500    5.250    1.500 
#    0.000    0.000    0.000    0.000    0.000    0.000 
#    0.000    0.000    0.000   92.250    0.000    7.250 
#
# Total GULP energy -178412.962754 kJ/mol
# GULP energy per Si atom -5575.405086 kJ/mol
# Density = 2.479008 g / cm^3
# Si number density = 24.846632 Si / 1000 Ang^3
#
#
#
# Elastic Constant Matrix: (Units=GPa)
#
#
# Indices 1 2 3 4 5 6 
#
# 1 37.8246 13.6314 17.7539 0.0004 0.0003 0.0000
# 2 13.6314 100.2621 53.3312 0.0005 0.0001 -0.0001
# 3 17.7539 53.3312 178.8981 0.0044 0.0009 0.0003
# 4 0.0004 0.0005 0.0044 54.2577 0.0001 -0.0001
# 5 0.0003 0.0001 0.0009 0.0001 20.2732 0.0005
# 6 0.0000 -0.0001 0.0003 -0.0001 0.0005 25.2269
#
#
#
# Elastic Compliance Matrix: (Units=1/GPa)
#
#
# Indices 1 2 3 4 5 6 
#
# 1 0.028378 -0.002805 -0.001980 0.000000 0.000000 0.000000
# 2 -0.002805 0.012131 -0.003338 0.000000 0.000000 0.000000
# 3 -0.001980 -0.003338 0.006781 -0.000001 0.000000 0.000000
# 4 0.000000 0.000000 -0.000001 0.018431 0.000000 0.000000
# 5 0.000000 0.000000 0.000000 0.000000 0.049326 -0.000001
# 6 0.000000 0.000000 0.000000 0.000000 -0.000001 0.039640
#
#
# Mechanical properties :
#
#
# Convention : Reuss Voigt Hill
#
# Bulk Modulus (GPa) = 32.21210 54.04643 43.12926
# Shear Modulus (GPa) = 27.58148 35.43613 31.50881
#
# Velocity S-wave (km/s) = 3.33538 3.78060 3.56495
# Velocity P-wave (km/s) = 5.27500 6.39190 5.86012
#
# Compressibility (1/GPa) = 0.03104424
#
# Stress axis : x y z
#
# Youngs Moduli (GPa) = 35.23844 82.43540 147.46347
#
# Poissons Ratio (x) = 0.23123 0.29199
# Poissons Ratio (y) = 0.09884 0.49222
# Poissons Ratio (z) = 0.06977 0.27516
#
# Static dielectric constant tensor:
#      x y z
#    x 2.403150 0.000000 0.000000 
#    y 0.000000 2.095210 0.000000 
#    z 0.000000 0.000000 2.032580 
# 
# From -- ./inp_files/13455.got.cif
#   From: 2010.05.17/outbox.cif.g08.bks.cpg/sg24_7_cif.got.tgz:13455.got - 2010.06.04 00:33:39.
