data_PCOD9333347
_publ_section_title
;
Structure prediction by ZEFSAII (Michael W. Deem and Ramdas Pophale) SiO2 
 PCOD9333347
Probable space group: I 21 21 21
;
_chemical_formula_sum "Si O2"
_cell_formula_units_Z 64
_cell_length_a 5.673242
_cell_length_b 20.141545
_cell_length_c 22.981774
_cell_angle_alpha 90.000000
_cell_angle_beta 90.000000
_cell_angle_gamma 90.000000
_cell_volume 2626.078112
_symmetry_space_group_name_H-M "I 21 21 21"
_symmetry_group_IT_number 24
_symmetry_cell_setting 'orthorhombic'
loop_
_space_group_symop_operation_xyz
x,y,z
-x,1/2-y,z
x,-y,1/2-z
1/2-x,y,-z
1/2+x,1/2+y,1/2+z
1/2-x,-y,1/2+z
1/2+x,1/2-y,-z
-x,1/2+y,1/2-z
loop_
_atom_site_type_symbol
_atom_site_label
_atom_site_fract_x
_atom_site_fract_y
_atom_site_fract_z
Si Si1 0.206117 0.525042 0.598584
Si Si2 0.218860 0.929098 0.414772
Si Si3 0.255445 0.423758 0.226183
Si Si4 0.992976 0.328673 0.374406
Si Si5 0.254552 0.773919 0.567163
Si Si6 0.000567 0.401533 0.498191
Si Si7 0.017990 0.622229 0.873355
Si Si8 0.755482 0.574941 0.274674
O O1 0.474670 0.530369 0.574415
O O2 0.233777 0.570544 0.656288
O O3 0.103084 0.454628 0.622336
O O4 0.978834 0.549420 0.562728
O O5 0.209376 0.852750 0.432827
O O6 0.242802 0.931963 0.344452
O O7 0.249639 0.500000 0.250000
O O8 0.506729 0.394395 0.244104
O O9 0.004265 0.392809 0.241514
O O10 0.005160 0.359473 0.439550
O O11 0.745482 0.360566 0.351740
O O12 0.000000 0.250000 0.376544
O O13 0.247903 0.345808 0.347107
O O14 0.500000 0.750000 0.595708
O O15 0.250000 0.748732 0.500000
O O16 0.000000 0.750000 0.592215
O O17 0.750000 0.437222 0.500000
O O18 0.250000 0.439047 0.500000
O O19 0.001361 0.358378 0.557491
O O20 0.756216 0.500000 0.250000
#
# Coordination Sequence:
#
# PCOD9333347 Si02
#       8
#     8   8   8   8   8   8   8   8
#     4  10  19  31  48  72 106 129 155 200 256 329
#     4  10  19  33  53  76 103 138 173 209 264 325
#     4   8  14  25  42  65  95 124 151 183 226 291
#     4  10  19  31  46  61  82 118 167 212 246 280
#     4  10  21  38  57  76 103 142 193 242 277 317
#     4   8  16  27  40  56  77 107 148 191 240 278
#     4  10  19  30  43  64  92 121 152 199 252 292
#     4   8  14  25  44  72 104 127 153 194 242 304
#
# _framework density 24.370940999999998
#
# number of rings (size 3 to 8) (size 9 to 14) (size 15 to 20)
#    0.000    2.750    0.000    1.875    0.000    4.500 
#    0.000    5.625    0.000    0.000    0.000    0.000 
#    0.000  160.000    0.000    0.000    0.000    0.000 
#
# Total GULP energy -178212.609717 kJ/mol
# GULP energy per Si atom -5569.144054 kJ/mol
# Density = 2.431547 g / cm^3
# Si number density = 24.370941 Si / 1000 Ang^3
#
#
#
# Elastic Constant Matrix: (Units=GPa)
#
#
# Indices 1 2 3 4 5 6 
#
# 1 379.4172 67.6191 31.4120 0.0000 0.0000 0.0000
# 2 67.6191 80.3578 -3.6342 0.0000 0.0000 0.0000
# 3 31.4120 -3.6342 68.6824 0.0000 0.0000 0.0000
# 4 0.0000 0.0000 0.0000 -39.2000 0.0000 0.0000
# 5 0.0000 0.0000 0.0000 0.0000 30.7167 0.0000
# 6 0.0000 0.0000 0.0000 0.0000 0.0000 31.1111
#
#
#
# Elastic Compliance Matrix: (Units=1/GPa)
#
#
# Indices 1 2 3 4 5 6 
#
# 1 0.003277 -0.002832 -0.001648 0.000000 0.000000 0.000000
# 2 -0.002832 0.014922 0.002085 0.000000 0.000000 0.000000
# 3 -0.001648 0.002085 0.015424 0.000000 0.000000 0.000000
# 4 0.000000 0.000000 0.000000 -0.025510 0.000000 0.000000
# 5 0.000000 0.000000 0.000000 0.000000 0.032556 0.000000
# 6 0.000000 0.000000 0.000000 0.000000 0.000000 0.032143
#
#
# Mechanical properties :
#
#
# Convention : Reuss Voigt Hill
#
# Bulk Modulus (GPa) = 34.68478 79.91680 57.30079
# Shear Modulus (GPa) = 57.33135 33.39627 45.36381
#
# Velocity S-wave (km/s) = 4.85547 3.70582 4.31906
# Velocity P-wave (km/s) = 6.75995 7.15359 6.95955
#
# Compressibility (1/GPa) = 0.02883109
#
# Stress axis : x y z
#
# Youngs Moduli (GPa) = 305.17625 67.01702 64.83389
#
# Poissons Ratio (x) = 0.18979 0.10688
# Poissons Ratio (y) = 0.86423 -0.13516
# Poissons Ratio (z) = 0.50308 -0.13971
#
# Static dielectric constant tensor:
#      x y z
#    x 2.080460 0.000000 0.000000 
#    y 0.000000 1.897330 0.000000 
#    z 0.000000 0.000000 1.956410 
# 
# From -- ./inp_files/38023.got.cif
#   From: 2010.05.17/outbox.cif.g08.bks.cpg/sg24_20_cif.got.tgz:38023.got - 2010.06.04 00:33:39.
