data_PCOD9333473
_publ_section_title
;
Structure prediction by ZEFSAII (Michael W. Deem and Ramdas Pophale) SiO2 
 PCOD9333473
Probable space group: I 21 21 21
;
_chemical_formula_sum "Si O2"
_cell_formula_units_Z 40
_cell_length_a 4.984894
_cell_length_b 23.874801
_cell_length_c 16.731770
_cell_angle_alpha 90.000000
_cell_angle_beta 90.000000
_cell_angle_gamma 90.000000
_cell_volume 1991.304037
_symmetry_space_group_name_H-M "I 21 21 21"
_symmetry_group_IT_number 24
_symmetry_cell_setting 'orthorhombic'
loop_
_space_group_symop_operation_xyz
x,y,z
-x,1/2-y,z
x,-y,1/2-z
1/2-x,y,-z
1/2+x,1/2+y,1/2+z
1/2-x,-y,1/2+z
1/2+x,1/2-y,-z
-x,1/2+y,1/2-z
loop_
_atom_site_type_symbol
_atom_site_label
_atom_site_fract_x
_atom_site_fract_y
_atom_site_fract_z
Si Si1 0.613146 0.880289 0.710023
Si Si2 0.483867 0.449595 0.945689
Si Si3 0.387744 0.189933 0.247232
Si Si4 0.400422 0.427376 0.617452
Si Si5 0.604884 0.646072 0.078280
O O1 0.501061 0.911968 0.633214
O O2 0.414071 0.828182 0.727048
O O3 0.616381 0.921331 0.786936
O O4 0.913219 0.855882 0.708112
O O5 0.381487 0.510446 0.915822
O O6 0.750000 0.454301 0.000000
O O7 0.250000 0.424467 0.000000
O O8 0.500000 0.250000 0.222720
O O9 0.400844 0.185188 0.343950
O O10 0.692824 0.404861 0.595733
O O11 0.184052 0.384205 0.580277
O O12 0.750000 0.672615 0.000000
#
# Coordination Sequence:
#
# PCOD9333473 Si02
#       5
#     8   8   8   8   8
#     4  10  22  39  59  83 113 147 191 236 275 341
#     4  12  23  36  58  86 117 147 183 233 287 337
#     4  10  21  39  61  81 106 151 197 236 284 331
#     4  10  20  35  56  82 116 156 183 209 269 344
#     4  10  19  33  54  84 119 147 181 224 267 327
#
# _framework density 20.087342
#
# number of rings (size 3 to 8) (size 9 to 14) (size 15 to 20)
#    0.000    1.600    0.000    6.000    0.000    0.000 
#    0.000   14.000    0.000   12.000    0.000    0.000 
#    0.000    0.000    0.000    0.000    0.000    0.000 
#
# Total GULP energy -111553.554286 kJ/mol
# GULP energy per Si atom -5577.677714 kJ/mol
# Density = 2.004162 g / cm^3
# Si number density = 20.087342 Si / 1000 Ang^3
#
#
#
# Elastic Constant Matrix: (Units=GPa)
#
#
# Indices 1 2 3 4 5 6 
#
# 1 71.2445 -3.8433 35.1983 0.0000 0.0000 0.0000
# 2 -3.8433 33.8396 17.4771 0.0000 0.0000 0.0000
# 3 35.1983 17.4771 101.8948 0.0000 0.0000 0.0000
# 4 0.0000 0.0000 0.0000 -6.8635 0.0000 0.0000
# 5 0.0000 0.0000 0.0000 0.0000 32.0863 0.0000
# 6 0.0000 0.0000 0.0000 0.0000 0.0000 1.3378
#
#
#
# Elastic Compliance Matrix: (Units=1/GPa)
#
#
# Indices 1 2 3 4 5 6 
#
# 1 0.017883 0.005729 -0.007160 0.000000 0.000000 0.000000
# 2 0.005729 0.034259 -0.007855 0.000000 0.000000 0.000000
# 3 -0.007160 -0.007855 0.013635 0.000000 0.000000 0.000000
# 4 0.000000 0.000000 0.000000 -0.145699 0.000000 0.000000
# 5 0.000000 0.000000 0.000000 0.000000 0.031166 0.000000
# 6 0.000000 0.000000 0.000000 0.000000 0.000000 0.747482
#
#
# Mechanical properties :
#
#
# Convention : Reuss Voigt Hill
#
# Bulk Modulus (GPa) = 21.18475 33.84923 27.51699
# Shear Modulus (GPa) = 6.82099 15.85526 11.33812
#
# Velocity S-wave (km/s) = 1.84473 2.81252 2.37837
# Velocity P-wave (km/s) = 3.88672 5.23781 4.61201
#
# Compressibility (1/GPa) = 0.04720376
#
# Stress axis : x y z
#
# Youngs Moduli (GPa) = 55.92033 29.18963 73.34242
#
# Poissons Ratio (x) = -0.16722 0.52513
# Poissons Ratio (y) = -0.32036 0.57611
# Poissons Ratio (z) = 0.40039 0.22929
#
# Static dielectric constant tensor:
#      x y z
#    x 1.815800 0.000000 0.000000 
#    y 0.000000 1.671430 0.000000 
#    z 0.000000 0.000000 1.781680 
# 
# From -- ./inp_files/23731.got.cif
#   From: 2010.05.17/outbox.cif.g08.bks.cpg/sg24_12_cif.got.tgz:23731.got - 2010.06.04 00:33:39.
