data_PCOD9333894
_publ_section_title
;
Structure prediction by ZEFSAII (Michael W. Deem and Ramdas Pophale) SiO2 
 PCOD9333894
Probable space group: I 21 21 21
;
_chemical_formula_sum "Si O2"
_cell_formula_units_Z 28
_cell_length_a 26.098419
_cell_length_b 12.198408
_cell_length_c 4.993473
_cell_angle_alpha 90.000000
_cell_angle_beta 90.000000
_cell_angle_gamma 90.000000
_cell_volume 1589.717885
_symmetry_space_group_name_H-M "I 21 21 21"
_symmetry_group_IT_number 24
_symmetry_cell_setting 'orthorhombic'
loop_
_space_group_symop_operation_xyz
x,y,z
-x,1/2-y,z
x,-y,1/2-z
1/2-x,y,-z
1/2+x,1/2+y,1/2+z
1/2-x,-y,1/2+z
1/2+x,1/2-y,-z
-x,1/2+y,1/2-z
loop_
_atom_site_type_symbol
_atom_site_label
_atom_site_fract_x
_atom_site_fract_y
_atom_site_fract_z
Si Si1 0.250000 0.579381 0.000000
Si Si2 0.418029 0.290933 0.097964
Si Si3 0.637988 0.875161 0.870472
Si Si4 0.518808 0.577250 0.498585
O O1 0.242180 0.500000 0.750000
O O2 0.303547 0.640450 0.962473
O O3 0.399408 0.342384 0.381277
O O4 0.464764 0.360420 0.966605
O O5 0.439930 0.168029 0.094314
O O6 0.373073 0.300013 0.884004
O O7 0.632369 0.000000 0.750000
O O8 0.510335 0.500000 0.250000
O O9 0.531941 0.500000 0.750000
#
# Coordination Sequence:
#
# PCOD9333894 Si02
#       4
#     4   8   8   8
#     4  10  20  32  50  78 108 136 166 206 262 316
#     4  11  22  34  54  79 104 142 179 207 264 317
#     4  11  20  34  53  79 110 138 169 213 262 318
#     4  11  22  36  52  76 108 139 176 220 255 306
#
# _framework density 17.613187
#
# number of rings (size 3 to 8) (size 9 to 14) (size 15 to 20)
#    0.000    1.143    0.000   10.286    0.000    4.571 
#    0.000    0.000    0.000    0.000    0.000   20.000 
#    0.000    0.000    0.000    0.000    0.000    0.000 
#
# Total GULP energy -78059.290663 kJ/mol
# GULP energy per Si atom -5575.663619 kJ/mol
# Density = 1.757310 g / cm^3
# Si number density = 17.613187 Si / 1000 Ang^3
#
#
#
# Elastic Constant Matrix: (Units=GPa)
#
#
# Indices 1 2 3 4 5 6 
#
# 1 74.9979 28.5177 20.2936 0.0000 0.0000 0.0000
# 2 28.5177 61.9175 11.0726 0.0000 0.0000 0.0000
# 3 20.2936 11.0726 104.9939 0.0000 0.0000 0.0000
# 4 0.0000 0.0000 0.0000 15.4638 0.0000 0.0000
# 5 0.0000 0.0000 0.0000 0.0000 39.0115 0.0000
# 6 0.0000 0.0000 0.0000 0.0000 0.0000 28.2807
#
#
#
# Elastic Compliance Matrix: (Units=1/GPa)
#
#
# Indices 1 2 3 4 5 6 
#
# 1 0.016772 -0.007282 -0.002474 0.000000 0.000000 0.000000
# 2 -0.007282 0.019623 -0.000662 0.000000 0.000000 0.000000
# 3 -0.002474 -0.000662 0.010072 0.000000 0.000000 0.000000
# 4 0.000000 0.000000 0.000000 0.064667 0.000000 0.000000
# 5 0.000000 0.000000 0.000000 0.000000 0.025633 0.000000
# 6 0.000000 0.000000 0.000000 0.000000 0.000000 0.035360
#
#
# Mechanical properties :
#
#
# Convention : Reuss Voigt Hill
#
# Bulk Modulus (GPa) = 39.01482 40.18635 39.60058
# Shear Modulus (GPa) = 24.81291 28.68623 26.74957
#
# Velocity S-wave (km/s) = 3.75743 4.04007 3.90131
# Velocity P-wave (km/s) = 6.40495 6.68045 6.54415
#
# Compressibility (1/GPa) = 0.02563129
#
# Stress axis : x y z
#
# Youngs Moduli (GPa) = 59.62240 50.96056 99.28219
#
# Poissons Ratio (x) = 0.37112 0.24560
# Poissons Ratio (y) = 0.43420 0.06571
# Poissons Ratio (z) = 0.14749 0.03373
#
# Static dielectric constant tensor:
#      x y z
#    x 1.642260 0.000000 0.000000 
#    y 0.000000 1.608360 0.000000 
#    z 0.000000 0.000000 1.600510 
# 
# From -- ./inp_files/2108.got.cif
#   From: 2010.05.17/outbox.cif.g08.bks.cpg/sg24_2_cif.got.tgz:2108.got - 2010.06.04 00:33:39.
