data_PCOD9333809
_publ_section_title
;
Structure prediction by ZEFSAII (Michael W. Deem and Ramdas Pophale) SiO2 
 PCOD9333809
Probable space group: I 21 21 21
;
_chemical_formula_sum "Si O2"
_cell_formula_units_Z 64
_cell_length_a 12.267243
_cell_length_b 30.262377
_cell_length_c 8.941793
_cell_angle_alpha 90.000000
_cell_angle_beta 90.000000
_cell_angle_gamma 90.000000
_cell_volume 3319.514862
_symmetry_space_group_name_H-M "I 21 21 21"
_symmetry_group_IT_number 24
_symmetry_cell_setting 'orthorhombic'
loop_
_space_group_symop_operation_xyz
x,y,z
-x,1/2-y,z
x,-y,1/2-z
1/2-x,y,-z
1/2+x,1/2+y,1/2+z
1/2-x,-y,1/2+z
1/2+x,1/2-y,-z
-x,1/2+y,1/2-z
loop_
_atom_site_type_symbol
_atom_site_label
_atom_site_fract_x
_atom_site_fract_y
_atom_site_fract_z
Si Si1 0.585157 0.787210 0.574615
Si Si2 0.692080 0.681388 0.160701
Si Si3 0.045792 0.377796 0.238699
Si Si4 0.807995 0.608046 0.340127
Si Si5 0.508369 0.387664 0.412115
Si Si6 0.312838 0.279671 0.232023
Si Si7 0.721444 0.877574 0.167676
Si Si8 0.321112 0.961500 0.137803
O O1 0.500000 0.750000 0.607263
O O2 0.548945 0.831503 0.654157
O O3 0.699076 0.773313 0.646425
O O4 0.600868 0.791632 0.396892
O O5 0.773664 0.656799 0.277172
O O6 0.584164 0.651164 0.153306
O O7 0.664183 0.732544 0.192955
O O8 0.750000 0.678662 0.000000
O O9 0.174551 0.392016 0.232339
O O10 0.938398 0.400081 0.166457
O O11 0.022085 0.374655 0.416929
O O12 0.750000 0.603124 0.500000
O O13 0.754300 0.573334 0.226542
O O14 0.401312 0.394357 0.310123
O O15 0.577952 0.432380 0.418194
O O16 0.293057 0.324029 0.327531
O O17 0.750000 0.891448 0.000000
O O18 0.353890 0.000000 0.250000
O O19 0.250000 0.979309 0.000000
#
# Coordination Sequence:
#
# PCOD9333809 Si02
#       8
#     8   8   8   8   8   8   8   8
#     4  10  22  33  49  71 112 161 207 258 318 353
#     4  11  21  34  56  78 118 159 211 273 325 367
#     4  10  19  39  57  80 120 165 209 254 306 377
#     4  11  22  36  61  94 121 162 206 254 323 386
#     4  10  20  38  60  89 116 157 208 256 312 389
#     4  10  22  35  46  78 112 155 215 266 304 364
#     4   9  20  36  57  81 112 164 213 253 305 360
#     4  11  22  42  68  99 130 152 188 252 324 399
#
# _framework density 19.279924999999999
#
# number of rings (size 3 to 8) (size 9 to 14) (size 15 to 20)
#    0.000    1.750    2.500    2.250    5.250    1.000 
#    0.000    0.000    0.000    0.750    3.250    0.000 
#    0.000    0.000    0.000    0.000    0.000    0.000 
#
# Total GULP energy -178351.940180 kJ/mol
# GULP energy per Si atom -5573.498131 kJ/mol
# Density = 1.923604 g / cm^3
# Si number density = 19.279925 Si / 1000 Ang^3
#
#
#
# Elastic Constant Matrix: (Units=GPa)
#
#
# Indices 1 2 3 4 5 6 
#
# 1 119.7293 12.3165 20.9267 0.0000 0.0000 0.0001
# 2 12.3165 30.6685 3.7856 -0.0002 0.0006 0.0000
# 3 20.9267 3.7856 60.4075 -0.0004 0.0006 -0.0001
# 4 0.0000 -0.0002 -0.0004 20.8656 0.0004 -0.0002
# 5 0.0000 0.0006 0.0006 0.0004 36.4232 -0.0002
# 6 0.0001 0.0000 -0.0001 -0.0002 -0.0002 10.0836
#
#
#
# Elastic Compliance Matrix: (Units=1/GPa)
#
#
# Indices 1 2 3 4 5 6 
#
# 1 0.009217 -0.003333 -0.002984 0.000000 0.000000 0.000000
# 2 -0.003333 0.034066 -0.000980 0.000000 -0.000001 0.000000
# 3 -0.002984 -0.000980 0.017649 0.000000 0.000000 0.000000
# 4 0.000000 0.000000 0.000000 0.047926 0.000000 0.000001
# 5 0.000000 -0.000001 0.000000 0.000000 0.027455 0.000000
# 6 0.000000 0.000000 0.000000 0.000001 0.000000 0.099171
#
#
# Mechanical properties :
#
#
# Convention : Reuss Voigt Hill
#
# Bulk Modulus (GPa) = 21.58068 31.65144 26.61606
# Shear Modulus (GPa) = 18.83067 25.05959 21.94513
#
# Velocity S-wave (km/s) = 3.12861 3.60915 3.37744
# Velocity P-wave (km/s) = 4.92631 5.81553 5.38929
#
# Compressibility (1/GPa) = 0.04633774
#
# Stress axis : x y z
#
# Youngs Moduli (GPa) = 108.49991 29.35455 56.65914
#
# Poissons Ratio (x) = 0.09784 0.16907
# Poissons Ratio (y) = 0.36164 0.05554
# Poissons Ratio (z) = 0.32376 0.02877
#
# Static dielectric constant tensor:
#      x y z
#    x 1.742810 0.000000 0.000000 
#    y 0.000000 1.642810 0.000000 
#    z 0.000000 0.000000 1.692370 
# 
# From -- ./inp_files/11654.got.cif
#   From: 2010.05.17/outbox.cif.g08.bks.cpg/sg24_6_cif.got.tgz:11654.got - 2010.06.04 00:33:39.
