data_PCOD9333154
_publ_section_title
;
Structure prediction by ZEFSAII (Michael W. Deem and Ramdas Pophale) SiO2 
 PCOD9333154
Probable space group: I 21 21 21
;
_chemical_formula_sum "Si O2"
_cell_formula_units_Z 36
_cell_length_a 13.582550
_cell_length_b 9.014898
_cell_length_c 12.993136
_cell_angle_alpha 90.000000
_cell_angle_beta 90.000000
_cell_angle_gamma 90.000000
_cell_volume 1590.948472
_symmetry_space_group_name_H-M "I 21 21 21"
_symmetry_group_IT_number 24
_symmetry_cell_setting 'orthorhombic'
loop_
_space_group_symop_operation_xyz
x,y,z
-x,1/2-y,z
x,-y,1/2-z
1/2-x,y,-z
1/2+x,1/2+y,1/2+z
1/2-x,-y,1/2+z
1/2+x,1/2-y,-z
-x,1/2+y,1/2-z
loop_
_atom_site_type_symbol
_atom_site_label
_atom_site_fract_x
_atom_site_fract_y
_atom_site_fract_z
Si Si1 0.750000 0.589772 0.500000
Si Si2 0.000000 0.250000 0.609203
Si Si3 0.099688 0.602241 0.076684
Si Si4 0.974623 0.000000 0.750000
Si Si5 0.605082 0.827305 0.442565
Si Si6 0.624515 0.401416 0.651553
O O1 0.684704 0.699469 0.431079
O O2 0.676750 0.485416 0.559918
O O3 0.081821 0.311768 0.531757
O O4 0.965237 0.381883 0.682925
O O5 0.152776 0.725891 0.147461
O O6 0.992752 0.586179 0.129715
O O7 0.132745 0.441384 0.035800
O O8 0.911368 0.087068 0.835329
O O9 0.500000 0.750000 0.468157
O O10 0.647966 0.500000 0.750000
#
# Coordination Sequence:
#
# PCOD9333154 Si02
#       6
#     4   4   8   4   8   8
#     4  12  26  44  64 100 142 174 230 286 328 408
#     4   8  16  30  58  96 116 164 214 264 318 394
#     4   9  21  42  70  89 132 175 221 279 344 391
#     4  10  18  34  62  98 126 174 228 258 334 398
#     4  11  22  43  68  96 140 181 225 281 338 402
#     4  10  22  44  67 102 125 176 229 283 341 405
#
# _framework density 22.628011000000001
#
# number of rings (size 3 to 8) (size 9 to 14) (size 15 to 20)
#    0.000    2.222    3.333    0.000    0.000    4.444 
#   18.000    0.000    0.000    0.000    0.000    0.000 
#    0.000    0.000    0.000    0.000    0.000    0.000 
#
# Total GULP energy -100378.218011 kJ/mol
# GULP energy per Si atom -5576.567667 kJ/mol
# Density = 2.257651 g / cm^3
# Si number density = 22.628011 Si / 1000 Ang^3
#
#
#
# Elastic Constant Matrix: (Units=GPa)
#
#
# Indices 1 2 3 4 5 6 
#
# 1 21.6312 23.4101 -14.8992 0.0000 0.0000 0.0000
# 2 23.4101 126.6476 29.7068 0.0000 0.0000 0.0000
# 3 -14.8992 29.7068 63.9714 0.0000 0.0000 0.0000
# 4 0.0000 0.0000 0.0000 6.2820 0.0000 0.0000
# 5 0.0000 0.0000 0.0000 0.0000 -7.1298 0.0000
# 6 0.0000 0.0000 0.0000 0.0000 0.0000 13.9885
#
#
#
# Elastic Compliance Matrix: (Units=1/GPa)
#
#
# Indices 1 2 3 4 5 6 
#
# 1 0.099897 -0.026847 0.035734 0.000000 0.000000 0.000000
# 2 -0.026847 0.016076 -0.013718 0.000000 0.000000 0.000000
# 3 0.035734 -0.013718 0.030325 0.000000 0.000000 0.000000
# 4 0.000000 0.000000 0.000000 0.159185 0.000000 0.000000
# 5 0.000000 0.000000 0.000000 0.000000 -0.140256 0.000000
# 6 0.000000 0.000000 0.000000 0.000000 0.000000 0.071487
#
#
# Mechanical properties :
#
#
# Convention : Reuss Voigt Hill
#
# Bulk Modulus (GPa) = 7.31878 32.07617 19.69748
# Shear Modulus (GPa) = 17.12778 14.23029 15.67904
#
# Velocity S-wave (km/s) = 2.75422 2.51047 2.63516
# Velocity P-wave (km/s) = 3.65455 4.75494 4.24059
#
# Compressibility (1/GPa) = 0.13663473
#
# Stress axis : x y z
#
# Youngs Moduli (GPa) = 10.01029 62.20350 32.97619
#
# Poissons Ratio (x) = 1.66999 -1.17836
# Poissons Ratio (y) = 0.26875 0.45238
# Poissons Ratio (z) = -0.35770 0.85332
#
# Static dielectric constant tensor:
#      x y z
#    x 1.851790 0.000000 0.000000 
#    y 0.000000 1.921930 0.000000 
#    z 0.000000 0.000000 1.862900 
# 
# From -- ./inp_files/26889.got.cif
#   From: 2010.05.17/outbox.cif.g08.bks.cpg/sg24_14_cif.got.tgz:26889.got - 2010.06.04 00:33:39.
