data_PCOD9333329
_publ_section_title
;
Structure prediction by ZEFSAII (Michael W. Deem and Ramdas Pophale) SiO2 
 PCOD9333329
Probable space group: I 21 21 21
;
_chemical_formula_sum "Si O2"
_cell_formula_units_Z 48
_cell_length_a 5.660753
_cell_length_b 33.566053
_cell_length_c 10.066819
_cell_angle_alpha 90.000000
_cell_angle_beta 90.000000
_cell_angle_gamma 90.000000
_cell_volume 1912.787573
_symmetry_space_group_name_H-M "I 21 21 21"
_symmetry_group_IT_number 24
_symmetry_cell_setting 'orthorhombic'
loop_
_space_group_symop_operation_xyz
x,y,z
-x,1/2-y,z
x,-y,1/2-z
1/2-x,y,-z
1/2+x,1/2+y,1/2+z
1/2-x,-y,1/2+z
1/2+x,1/2-y,-z
-x,1/2+y,1/2-z
loop_
_atom_site_type_symbol
_atom_site_label
_atom_site_fract_x
_atom_site_fract_y
_atom_site_fract_z
Si Si1 0.000000 0.458491 0.503923
Si Si2 0.000000 0.172762 0.794715
Si Si3 0.500000 0.077876 0.201670
Si Si4 0.500000 0.452851 0.784000
Si Si5 0.000000 0.702916 0.276150
Si Si6 0.500000 0.653442 0.997474
O O1 0.750000 0.481113 0.500000
O O2 1.000000 0.434285 0.365825
O O3 0.250000 0.481113 0.500000
O O4 0.000000 0.435980 0.643563
O O5 0.250572 0.190213 0.842413
O O6 1.000000 0.178976 0.633550
O O7 0.000000 0.125220 0.813373
O O8 0.749428 0.190213 0.842413
O O9 0.247035 0.060985 0.153088
O O10 0.752965 0.060985 0.153088
O O11 0.500000 0.500000 0.750000
O O12 0.000000 0.750000 0.257527
O O13 1.000000 0.679867 0.134749
O O14 0.750000 0.631370 0.000000
O O15 0.250000 0.631370 0.000000
#
# Coordination Sequence:
#
# PCOD9333329 Si02
#       6
#     8   8   8   8   8   8
#     4   8  16  27  42  58  77  99 125 160 200 242
#     4  10  19  28  40  54  70  96 128 162 200 241
#     4  10  19  31  45  61  80 103 135 170 208 248
#     4  10  19  30  44  61  81 102 126 163 214 254
#     4  10  19  28  37  51  72  96 124 160 203 242
#     4   8  16  24  34  47  64  88 117 151 190 235
#
# _framework density 25.094266000000001
#
# number of rings (size 3 to 8) (size 9 to 14) (size 15 to 20)
#    0.000    2.667    0.000    2.000    0.000   18.000 
#    0.000    0.000    0.000    0.000    0.000    0.000 
#    0.000    0.000    0.000    0.000    0.000    0.000 
#
# Total GULP energy -133820.173666 kJ/mol
# GULP energy per Si atom -5575.840569 kJ/mol
# Density = 2.503715 g / cm^3
# Si number density = 25.094266 Si / 1000 Ang^3
#
#
#
# Elastic Constant Matrix: (Units=GPa)
#
#
# Indices 1 2 3 4 5 6 
#
# 1 384.4055 92.4147 16.1262 0.0000 0.0000 0.0000
# 2 92.4147 161.6277 10.7804 0.0001 0.0000 0.0000
# 3 16.1262 10.7804 90.5090 0.0000 0.0000 0.0000
# 4 0.0000 0.0001 0.0000 9.7798 0.0000 0.0000
# 5 0.0000 0.0000 0.0000 0.0000 -39.4210 0.0000
# 6 0.0000 0.0000 0.0000 0.0000 0.0000 52.3344
#
#
#
# Elastic Compliance Matrix: (Units=1/GPa)
#
#
# Indices 1 2 3 4 5 6 
#
# 1 0.003026 -0.001708 -0.000336 0.000000 0.000000 0.000000
# 2 -0.001708 0.007200 -0.000553 0.000000 0.000000 0.000000
# 3 -0.000336 -0.000553 0.011174 0.000000 0.000000 0.000000
# 4 0.000000 0.000000 0.000000 0.102252 0.000000 0.000000
# 5 0.000000 0.000000 0.000000 0.000000 -0.025367 0.000000
# 6 0.000000 0.000000 0.000000 0.000000 0.000000 0.019108
#
#
# Mechanical properties :
#
#
# Convention : Reuss Voigt Hill
#
# Bulk Modulus (GPa) = 61.70164 97.24276 79.47220
# Shear Modulus (GPa) = 39.06575 39.02004 39.04290
#
# Velocity S-wave (km/s) = 3.94986 3.94755 3.94870
# Velocity P-wave (km/s) = 6.74116 7.72092 7.24761
#
# Compressibility (1/GPa) = 0.01620703
#
# Stress axis : x y z
#
# Youngs Moduli (GPa) = 330.45977 138.87985 89.49067
#
# Poissons Ratio (x) = 0.23719 0.03005
# Poissons Ratio (y) = 0.56437 0.04952
# Poissons Ratio (z) = 0.11095 0.07685
#
# Static dielectric constant tensor:
#      x y z
#    x 2.083530 0.000000 0.000000 
#    y 0.000000 1.881210 0.000000 
#    z 0.000000 0.000000 2.040990 
# 
# From -- ./inp_files/28926.got.cif
#   From: 2010.05.17/outbox.cif.g08.bks.cpg/sg24_15_cif.got.tgz:28926.got - 2010.06.04 00:33:39.
