data_PCOD9333854
_publ_section_title
;
Structure prediction by ZEFSAII (Michael W. Deem and Ramdas Pophale) SiO2 
 PCOD9333854
Probable space group: I 21 21 21
;
_chemical_formula_sum "Si O2"
_cell_formula_units_Z 44
_cell_length_a 8.339117
_cell_length_b 16.733252
_cell_length_c 12.133731
_cell_angle_alpha 90.000000
_cell_angle_beta 90.000000
_cell_angle_gamma 90.000000
_cell_volume 1693.147451
_symmetry_space_group_name_H-M "I 21 21 21"
_symmetry_group_IT_number 24
_symmetry_cell_setting 'orthorhombic'
loop_
_space_group_symop_operation_xyz
x,y,z
-x,1/2-y,z
x,-y,1/2-z
1/2-x,y,-z
1/2+x,1/2+y,1/2+z
1/2-x,-y,1/2+z
1/2+x,1/2-y,-z
-x,1/2+y,1/2-z
loop_
_atom_site_type_symbol
_atom_site_label
_atom_site_fract_x
_atom_site_fract_y
_atom_site_fract_z
Si Si1 0.636020 0.919293 0.893770
Si Si2 0.500000 0.750000 0.660245
Si Si3 0.329415 0.406165 0.859117
Si Si4 0.857484 0.307355 0.791034
Si Si5 0.023080 0.036632 0.872134
Si Si6 0.911795 0.638238 0.952656
O O1 0.696732 0.894416 0.773690
O O2 0.576809 0.010055 0.872467
O O3 0.750000 0.926459 0.000000
O O4 0.525919 0.850753 0.942971
O O5 0.430470 0.669920 0.601927
O O6 0.672195 0.721504 0.713484
O O7 0.150393 0.425381 0.902561
O O8 0.857476 0.389658 0.860199
O O9 0.926173 0.328254 0.669286
O O10 0.000000 0.250000 0.837377
O O11 0.997395 0.000000 0.750000
O O12 0.082477 0.958699 0.937254
O O13 0.750000 0.670151 0.000000
#
# Coordination Sequence:
#
# PCOD9333854 Si02
#       6
#     8   4   8   8   8   8
#     4  11  21  40  72 100 129 178 241 289 341 411
#     4  12  26  42  70 104 148 190 234 282 362 442
#     4  11  22  41  68 106 136 184 233 289 352 419
#     4  11  24  45  69 101 146 188 224 284 366 432
#     4  10  19  42  70  94 134 183 233 286 345 403
#     4  11  24  42  65 107 133 179 237 294 345 412
#
# _framework density 25.987106000000001
#
# number of rings (size 3 to 8) (size 9 to 14) (size 15 to 20)
#    0.000    1.091    5.455    2.182    2.545    0.000 
#    6.545    0.000    6.000    0.000    0.000    0.000 
#    0.000    0.000    0.000    0.000    0.000    0.000 
#
# Total GULP energy -122574.296198 kJ/mol
# GULP energy per Si atom -5571.558918 kJ/mol
# Density = 2.592796 g / cm^3
# Si number density = 25.987106 Si / 1000 Ang^3
#
#
#
# Elastic Constant Matrix: (Units=GPa)
#
#
# Indices 1 2 3 4 5 6 
#
# 1 109.0885 42.0338 11.7828 0.0000 0.0000 0.0000
# 2 42.0338 148.1248 6.0032 0.0000 0.0000 0.0000
# 3 11.7828 6.0032 80.5100 -0.0001 0.0000 0.0001
# 4 0.0000 0.0000 -0.0001 15.5317 0.0000 0.0001
# 5 0.0000 0.0000 0.0000 0.0000 31.0039 0.0000
# 6 0.0000 0.0000 0.0001 0.0001 0.0000 172.8361
#
#
#
# Elastic Compliance Matrix: (Units=1/GPa)
#
#
# Indices 1 2 3 4 5 6 
#
# 1 0.010428 -0.002906 -0.001309 0.000000 0.000000 0.000000
# 2 -0.002906 0.007581 -0.000140 0.000000 0.000000 0.000000
# 3 -0.001309 -0.000140 0.012623 0.000000 0.000000 0.000000
# 4 0.000000 0.000000 0.000000 0.064384 0.000000 0.000000
# 5 0.000000 0.000000 0.000000 0.000000 0.032254 0.000000
# 6 0.000000 0.000000 0.000000 0.000000 0.000000 0.005786
#
#
# Mechanical properties :
#
#
# Convention : Reuss Voigt Hill
#
# Bulk Modulus (GPa) = 45.61790 50.81809 48.21800
# Shear Modulus (GPa) = 33.54017 62.40125 47.97071
#
# Velocity S-wave (km/s) = 3.59645 4.90556 4.30110
# Velocity P-wave (km/s) = 5.90238 7.18913 6.57730
#
# Compressibility (1/GPa) = 0.02192122
#
# Stress axis : x y z
#
# Youngs Moduli (GPa) = 95.89476 131.90140 79.22109
#
# Poissons Ratio (x) = 0.38332 0.10374
# Poissons Ratio (y) = 0.27868 0.01109
# Poissons Ratio (z) = 0.12557 0.01846
#
# Static dielectric constant tensor:
#      x y z
#    x 1.877050 0.000000 0.000000 
#    y 0.000000 2.051540 0.000000 
#    z 0.000000 0.000000 1.654040 
# 
# From -- ./inp_files/24703.got.cif
#   From: 2010.05.17/outbox.cif.g08.bks.cpg/sg24_13_cif.got.tgz:24703.got - 2010.06.04 00:33:39.
