data_PCOD9333311
_publ_section_title
;
Structure prediction by ZEFSAII (Michael W. Deem and Ramdas Pophale) SiO2 
 PCOD9333311
Probable space group: I 21 21 21
;
_chemical_formula_sum "Si O2"
_cell_formula_units_Z 48
_cell_length_a 15.176949
_cell_length_b 28.895748
_cell_length_c 5.241433
_cell_angle_alpha 90.000000
_cell_angle_beta 90.000000
_cell_angle_gamma 90.000000
_cell_volume 2298.626740
_symmetry_space_group_name_H-M "I 21 21 21"
_symmetry_group_IT_number 24
_symmetry_cell_setting 'orthorhombic'
loop_
_space_group_symop_operation_xyz
x,y,z
-x,1/2-y,z
x,-y,1/2-z
1/2-x,y,-z
1/2+x,1/2+y,1/2+z
1/2-x,-y,1/2+z
1/2+x,1/2-y,-z
-x,1/2+y,1/2-z
loop_
_atom_site_type_symbol
_atom_site_label
_atom_site_fract_x
_atom_site_fract_y
_atom_site_fract_z
Si Si1 0.170612 0.500000 0.250000
Si Si2 0.250000 0.079090 0.000000
Si Si3 0.515045 0.803881 0.922173
Si Si4 0.552656 0.000000 0.250000
Si Si5 0.662483 0.352097 0.591152
Si Si6 0.426295 0.355433 0.053943
Si Si7 0.250000 0.583788 0.500000
Si Si8 0.424499 0.920824 0.316266
O O1 0.110860 0.504324 0.499259
O O2 0.226171 0.547473 0.273270
O O3 0.202210 0.113228 0.200752
O O4 0.337326 0.052329 0.085552
O O5 0.500000 0.750000 0.975105
O O6 0.417135 0.819825 0.836025
O O7 0.574299 0.819240 0.680521
O O8 0.550827 0.830142 0.176748
O O9 0.490167 0.956766 0.192791
O O10 0.750000 0.325454 0.500000
O O11 0.619843 0.384027 0.372175
O O12 0.335403 0.384565 0.059770
O O13 0.508140 0.391467 0.006021
#
# Coordination Sequence:
#
# PCOD9333311 Si02
#       8
#     4   4   8   4   8   8   4   8
#     4  12  29  46  71 104 142 198 243 300 327 446
#     4  10  18  40  65  92 126 176 226 269 340 410
#     4  11  24  46  71 101 136 177 228 293 364 431
#     4  12  27  44  69 100 142 184 241 288 349 398
#     4   9  20  38  66  92 126 175 220 273 343 420
#     4  11  25  44  73  96 140 182 228 292 351 431
#     4  12  28  48  73 110 144 196 252 291 370 412
#     4  10  22  41  64  96 131 181 226 280 343 412
#
# _framework density 20.882031000000001
#
# number of rings (size 3 to 8) (size 9 to 14) (size 15 to 20)
#    0.000    1.333    3.333    1.000    7.000    2.000 
#    7.500    0.000    0.000    0.000    0.000    0.000 
#    0.000    0.000    0.000    0.000    0.000    0.000 
#
# Total GULP energy -133663.927186 kJ/mol
# GULP energy per Si atom -5569.330299 kJ/mol
# Density = 2.083450 g / cm^3
# Si number density = 20.882031 Si / 1000 Ang^3
#
#
#
# Elastic Constant Matrix: (Units=GPa)
#
#
# Indices 1 2 3 4 5 6 
#
# 1 180.0037 62.2517 52.7331 -0.0111 0.0033 0.0083
# 2 62.2517 88.3827 15.6710 0.0033 0.0324 0.0302
# 3 52.7331 15.6710 87.3488 -0.0038 0.1378 0.0860
# 4 -0.0111 0.0033 -0.0038 17.0496 0.0133 0.0292
# 5 0.0033 0.0324 0.1378 0.0133 25.3911 -0.0289
# 6 0.0083 0.0302 0.0860 0.0292 -0.0289 31.7016
#
#
#
# Elastic Compliance Matrix: (Units=1/GPa)
#
#
# Indices 1 2 3 4 5 6 
#
# 1 0.008651 -0.005337 -0.004265 0.000006 0.000029 0.000014
# 2 -0.005337 0.014979 0.000535 -0.000006 -0.000021 -0.000014
# 3 -0.004265 0.000535 0.013927 0.000000 -0.000076 -0.000037
# 4 0.000006 -0.000006 0.000000 0.058653 -0.000031 -0.000054
# 5 0.000029 -0.000021 -0.000076 -0.000031 0.039384 0.000036
# 6 0.000014 -0.000014 -0.000037 -0.000054 0.000036 0.031544
#
#
# Mechanical properties :
#
#
# Convention : Reuss Voigt Hill
#
# Bulk Modulus (GPa) = 51.48736 68.56075 60.02406
# Shear Modulus (GPa) = 26.07617 29.83376 27.95496
#
# Velocity S-wave (km/s) = 3.53758 3.78389 3.66281
# Velocity P-wave (km/s) = 6.43396 7.21070 6.83337
#
# Compressibility (1/GPa) = 0.01942224
#
# Stress axis : x y z
#
# Youngs Moduli (GPa) = 115.59988 66.76215 71.80088
#
# Poissons Ratio (x) = 0.35629 0.30623
# Poissons Ratio (y) = 0.61693 -0.03839
# Poissons Ratio (z) = 0.49303 -0.03569
#
# Static dielectric constant tensor:
#      x y z
#    x 1.826470 0.000010 0.000070 
#    y 0.000010 1.774900 -0.000050 
#    z 0.000070 -0.000050 1.845400 
# 
# From -- ./inp_files/3828.got.cif
#   From: 2010.05.17/outbox.cif.g08.bks.cpg/sg24_2_cif.got.tgz:3828.got - 2010.06.04 00:33:39.
