data_PCOD9333621
_publ_section_title
;
Structure prediction by ZEFSAII (Michael W. Deem and Ramdas Pophale) SiO2 
 PCOD9333621
Probable space group: I 21 21 21
;
_chemical_formula_sum "Si O2"
_cell_formula_units_Z 56
_cell_length_a 14.524386
_cell_length_b 11.618413
_cell_length_c 14.162306
_cell_angle_alpha 90.000000
_cell_angle_beta 90.000000
_cell_angle_gamma 90.000000
_cell_volume 2389.893600
_symmetry_space_group_name_H-M "I 21 21 21"
_symmetry_group_IT_number 24
_symmetry_cell_setting 'orthorhombic'
loop_
_space_group_symop_operation_xyz
x,y,z
-x,1/2-y,z
x,-y,1/2-z
1/2-x,y,-z
1/2+x,1/2+y,1/2+z
1/2-x,-y,1/2+z
1/2+x,1/2-y,-z
-x,1/2+y,1/2-z
loop_
_atom_site_type_symbol
_atom_site_label
_atom_site_fract_x
_atom_site_fract_y
_atom_site_fract_z
Si Si1 0.754080 0.942848 0.836358
Si Si2 0.423450 0.969125 0.852873
Si Si3 0.599326 0.624028 0.461204
Si Si4 0.901285 0.227741 0.656746
Si Si5 0.091137 0.384134 0.448231
Si Si6 0.108927 0.606278 0.550439
Si Si7 0.225345 0.069454 0.606755
O O1 0.835406 0.863337 0.794008
O O2 0.686080 0.859498 0.894501
O O3 0.701291 0.000000 0.750000
O O4 0.809347 0.040583 0.894572
O O5 0.492735 0.876815 0.898547
O O6 0.320175 0.924317 0.838065
O O7 0.460550 0.000000 0.750000
O O8 0.408700 0.068234 0.933222
O O9 0.498298 0.600936 0.414692
O O10 0.622566 0.758735 0.465710
O O11 0.678047 0.554863 0.405970
O O12 0.912636 0.173646 0.550909
O O13 0.850388 0.347482 0.648245
O O14 0.000000 0.250000 0.700183
O O15 0.103541 0.523558 0.459017
O O16 0.250000 0.107196 0.500000
#
# Coordination Sequence:
#
# PCOD9333621 Si02
#       7
#     8   8   8   8   8   8   8
#     4  11  23  39  58  93 126 158 204 259 312 358
#     4  10  21  38  58  91 130 157 200 260 314 356
#     4   9  19  37  65  87 116 162 210 246 294 381
#     4  11  21  40  66  90 117 162 211 251 304 377
#     4  10  21  37  65  85 121 165 206 251 299 374
#     4   9  18  38  63  89 112 164 211 245 301 366
#     4  10  19  35  59  88 118 161 203 241 300 373
#
# _framework density 23.432005
#
# number of rings (size 3 to 8) (size 9 to 14) (size 15 to 20)
#    0.000    2.000    0.000    6.429    0.000    3.429 
#    7.714    1.429   31.429    0.000    0.000    0.000 
#    0.000    0.000    0.000    0.000    0.000    0.000 
#
# Total GULP energy -156269.229338 kJ/mol
# GULP energy per Si atom -5581.043905 kJ/mol
# Density = 2.337867 g / cm^3
# Si number density = 23.432005 Si / 1000 Ang^3
#
#
#
# Elastic Constant Matrix: (Units=GPa)
#
#
# Indices 1 2 3 4 5 6 
#
# 1 129.8667 27.5666 4.1906 0.0000 0.0000 0.0000
# 2 27.5666 118.5311 -5.4297 0.0000 0.0000 0.0000
# 3 4.1906 -5.4297 41.6875 0.0000 0.0000 0.0000
# 4 0.0000 0.0000 0.0000 4.2421 0.0000 0.0000
# 5 0.0000 0.0000 0.0000 0.0000 8.6671 0.0000
# 6 0.0000 0.0000 0.0000 0.0000 0.0000 29.2266
#
#
#
# Elastic Compliance Matrix: (Units=1/GPa)
#
#
# Indices 1 2 3 4 5 6 
#
# 1 0.008147 -0.001944 -0.001072 0.000000 0.000000 0.000000
# 2 -0.001944 0.008951 0.001361 0.000000 0.000000 0.000000
# 3 -0.001072 0.001361 0.024273 0.000000 0.000000 0.000000
# 4 0.000000 0.000000 0.000000 0.235735 0.000000 0.000000
# 5 0.000000 0.000000 0.000000 0.000000 0.115379 0.000000
# 6 0.000000 0.000000 0.000000 0.000000 0.000000 0.034215
#
#
# Mechanical properties :
#
#
# Convention : Reuss Voigt Hill
#
# Bulk Modulus (GPa) = 26.27304 38.08224 32.17764
# Shear Modulus (GPa) = 11.29440 26.01101 18.65270
#
# Velocity S-wave (km/s) = 2.19785 3.33538 2.82447
# Velocity P-wave (km/s) = 4.20446 5.57857 4.93953
#
# Compressibility (1/GPa) = 0.03806183
#
# Stress axis : x y z
#
# Youngs Moduli (GPa) = 122.73788 111.71859 41.19785
#
# Poissons Ratio (x) = 0.21718 0.04417
# Poissons Ratio (y) = 0.23860 -0.05608
# Poissons Ratio (z) = 0.13160 -0.15208
#
# Static dielectric constant tensor:
#      x y z
#    x 1.972690 0.000000 0.000000 
#    y 0.000000 1.886520 0.000000 
#    z 0.000000 0.000000 1.890290 
# 
# From -- ./inp_files/26504.got.cif
#   From: 2010.05.17/outbox.cif.g08.bks.cpg/sg24_14_cif.got.tgz:26504.got - 2010.06.04 00:33:39.
