data_PCOD9333102
_publ_section_title
;
Structure prediction by ZEFSAII (Michael W. Deem and Ramdas Pophale) SiO2 
 PCOD9333102
Probable space group: I 21 21 21
;
_chemical_formula_sum "Si O2"
_cell_formula_units_Z 44
_cell_length_a 13.542901
_cell_length_b 20.992525
_cell_length_c 7.200201
_cell_angle_alpha 90.000000
_cell_angle_beta 90.000000
_cell_angle_gamma 90.000000
_cell_volume 2047.014897
_symmetry_space_group_name_H-M "I 21 21 21"
_symmetry_group_IT_number 24
_symmetry_cell_setting 'orthorhombic'
loop_
_space_group_symop_operation_xyz
x,y,z
-x,1/2-y,z
x,-y,1/2-z
1/2-x,y,-z
1/2+x,1/2+y,1/2+z
1/2-x,-y,1/2+z
1/2+x,1/2-y,-z
-x,1/2+y,1/2-z
loop_
_atom_site_type_symbol
_atom_site_label
_atom_site_fract_x
_atom_site_fract_y
_atom_site_fract_z
Si Si1 0.535819 0.678233 0.608464
Si Si2 0.326924 0.573607 0.268080
Si Si3 0.250000 0.205379 0.000000
Si Si4 0.115584 0.575532 0.298264
Si Si5 0.658046 0.735614 0.127996
Si Si6 0.009290 0.655187 0.828894
O O1 0.500000 0.750000 0.661878
O O2 0.655864 0.671712 0.601917
O O3 0.476892 0.623743 0.722616
O O4 0.505048 0.669493 0.391669
O O5 0.308380 0.500000 0.250000
O O6 0.219633 0.601241 0.212075
O O7 0.355926 0.581473 0.483309
O O8 0.424285 0.592877 0.153683
O O9 0.195680 0.243818 0.838772
O O10 0.096743 0.500000 0.250000
O O11 0.600104 0.668814 0.099330
O O12 0.580912 0.790891 0.093131
O O13 0.750000 0.739415 0.000000
#
# Coordination Sequence:
#
# PCOD9333102 Si02
#       6
#     8   8   4   8   8   8
#     4  10  18  33  60  84 115 158 195 248 296 357
#     4   9  18  34  57  77 112 159 182 233 309 353
#     4  10  20  36  58  82 116 154 202 230 302 354
#     4   9  19  34  53  85 119 142 199 246 287 363
#     4  10  20  37  54  84 120 151 191 245 291 349
#     4   9  18  37  54  80 121 149 193 244 292 357
#
# _framework density 21.494714999999999
#
# number of rings (size 3 to 8) (size 9 to 14) (size 15 to 20)
#    0.000    2.545    3.636    0.000    2.545    0.000 
#   13.091    0.000    0.000    9.818    2.364    0.000 
#    0.000    0.000    0.000    0.000    0.000    0.000 
#
# Total GULP energy -122528.236324 kJ/mol
# GULP energy per Si atom -5569.465287 kJ/mol
# Density = 2.144579 g / cm^3
# Si number density = 21.494715 Si / 1000 Ang^3
#
#
#
# Elastic Constant Matrix: (Units=GPa)
#
#
# Indices 1 2 3 4 5 6 
#
# 1 152.7286 50.3313 17.9805 0.0000 0.0000 0.0000
# 2 50.3313 70.8713 -4.5295 0.0000 0.0000 0.0000
# 3 17.9805 -4.5295 45.7420 -0.0002 0.0000 0.0000
# 4 0.0000 0.0000 -0.0002 18.9968 0.0000 0.0000
# 5 0.0000 0.0000 0.0000 0.0000 36.3763 0.0000
# 6 0.0000 0.0000 0.0000 0.0000 0.0000 26.9764
#
#
#
# Elastic Compliance Matrix: (Units=1/GPa)
#
#
# Indices 1 2 3 4 5 6 
#
# 1 0.009337 -0.006909 -0.004354 0.000000 0.000000 0.000000
# 2 -0.006909 0.019313 0.004628 0.000000 0.000000 0.000000
# 3 -0.004354 0.004628 0.024032 0.000000 0.000000 0.000000
# 4 0.000000 0.000000 0.000000 0.052640 0.000000 0.000000
# 5 0.000000 0.000000 0.000000 0.000000 0.027490 0.000000
# 6 0.000000 0.000000 0.000000 0.000000 0.000000 0.037069
#
#
# Mechanical properties :
#
#
# Convention : Reuss Voigt Hill
#
# Bulk Modulus (GPa) = 25.37381 44.10072 34.73727
# Shear Modulus (GPa) = 25.47253 30.17387 27.82320
#
# Velocity S-wave (km/s) = 3.44620 3.75077 3.60171
# Velocity P-wave (km/s) = 5.25979 6.27051 5.78726
#
# Compressibility (1/GPa) = 0.03941072
#
# Stress axis : x y z
#
# Youngs Moduli (GPa) = 107.09890 51.77928 41.61160
#
# Poissons Ratio (x) = 0.35776 0.18120
# Poissons Ratio (y) = 0.73998 -0.19259
# Poissons Ratio (z) = 0.46636 -0.23965
#
# Static dielectric constant tensor:
#      x y z
#    x 1.866890 0.000000 0.000000 
#    y 0.000000 1.804610 0.000000 
#    z 0.000000 0.000000 1.945460 
# 
# From -- ./inp_files/11201.got.cif
#   From: 2010.05.17/outbox.cif.g08.bks.cpg/sg24_6_cif.got.tgz:11201.got - 2010.06.04 00:33:39.
