data_PCOD9333773
_publ_section_title
;
Structure prediction by ZEFSAII (Michael W. Deem and Ramdas Pophale) SiO2 
 PCOD9333773
Probable space group: I 21 21 21
;
_chemical_formula_sum "Si O2"
_cell_formula_units_Z 40
_cell_length_a 18.049386
_cell_length_b 10.486821
_cell_length_c 10.953108
_cell_angle_alpha 90.000000
_cell_angle_beta 90.000000
_cell_angle_gamma 90.000000
_cell_volume 2073.211732
_symmetry_space_group_name_H-M "I 21 21 21"
_symmetry_group_IT_number 24
_symmetry_cell_setting 'orthorhombic'
loop_
_space_group_symop_operation_xyz
x,y,z
-x,1/2-y,z
x,-y,1/2-z
1/2-x,y,-z
1/2+x,1/2+y,1/2+z
1/2-x,-y,1/2+z
1/2+x,1/2-y,-z
-x,1/2+y,1/2-z
loop_
_atom_site_type_symbol
_atom_site_label
_atom_site_fract_x
_atom_site_fract_y
_atom_site_fract_z
Si Si1 0.104637 0.150235 0.013558
Si Si2 0.073571 0.319469 0.637084
Si Si3 0.439143 0.138737 0.719693
Si Si4 0.664101 0.612688 0.020569
Si Si5 0.437694 0.598545 0.417656
O O1 0.116044 0.294131 0.970624
O O2 0.019066 0.115422 0.977298
O O3 0.110976 0.153991 0.159430
O O4 0.151379 0.037297 0.953084
O O5 0.135418 0.212288 0.621286
O O6 0.086985 0.452603 0.568144
O O7 0.057566 0.363081 0.775262
O O8 0.000000 0.250000 0.589935
O O9 0.500000 0.250000 0.714120
O O10 0.387699 0.135209 0.599698
O O11 0.475151 0.000000 0.750000
O O12 0.750000 0.635410 0.000000
#
# Coordination Sequence:
#
# PCOD9333773 Si02
#       5
#     8   8   8   8   8
#     4  10  19  38  60  90 121 150 201 261 303 353
#     4  11  20  36  63  93 119 157 208 256 303 353
#     4  10  21  37  63  89 114 152 204 253 295 350
#     4  11  25  41  58  88 130 167 198 240 307 378
#     4  10  20  35  62  94 115 148 206 265 304 339
#
# _framework density 19.293734000000001
#
# number of rings (size 3 to 8) (size 9 to 14) (size 15 to 20)
#    0.000    1.600    6.000    0.600    2.800    0.800 
#   10.800    1.000    8.800    0.000    0.000    0.000 
#    0.000    0.000    0.000    0.000    0.000    0.000 
#
# Total GULP energy -111465.205138 kJ/mol
# GULP energy per Si atom -5573.260257 kJ/mol
# Density = 1.924982 g / cm^3
# Si number density = 19.293734 Si / 1000 Ang^3
#
#
#
# Elastic Constant Matrix: (Units=GPa)
#
#
# Indices 1 2 3 4 5 6 
#
# 1 66.7932 25.8653 -7.2376 0.0000 0.0000 0.0000
# 2 25.8653 158.2817 14.1091 0.0000 0.0000 0.0000
# 3 -7.2376 14.1091 54.7494 0.0000 0.0000 0.0000
# 4 0.0000 0.0000 0.0000 26.1593 0.0000 0.0000
# 5 0.0000 0.0000 0.0000 0.0000 -1.1575 0.0000
# 6 0.0000 0.0000 0.0000 0.0000 0.0000 17.1553
#
#
#
# Elastic Compliance Matrix: (Units=1/GPa)
#
#
# Indices 1 2 3 4 5 6 
#
# 1 0.016430 -0.002946 0.002931 0.000000 0.000000 0.000000
# 2 -0.002946 0.006995 -0.002192 0.000000 0.000000 0.000000
# 3 0.002931 -0.002192 0.019217 0.000000 0.000000 0.000000
# 4 0.000000 0.000000 0.000000 0.038227 0.000000 0.000000
# 5 0.000000 0.000000 0.000000 0.000000 -0.863946 0.000000
# 6 0.000000 0.000000 0.000000 0.000000 0.000000 0.058291
#
#
# Mechanical properties :
#
#
# Convention : Reuss Voigt Hill
#
# Bulk Modulus (GPa) = 26.15866 38.36644 32.26255
# Shear Modulus (GPa) = -7.06586 24.90392 8.91903
#
# Velocity S-wave (km/s) = -1.91578 3.59664 2.15239
# Velocity P-wave (km/s) = 2.94855 6.09724 4.78906
#
# Compressibility (1/GPa) = 0.03822826
#
# Stress axis : x y z
#
# Youngs Moduli (GPa) = 60.86386 142.96555 52.03607
#
# Poissons Ratio (x) = 0.42120 -0.15253
# Poissons Ratio (y) = 0.17932 0.11406
# Poissons Ratio (z) = -0.17841 0.31339
#
# Static dielectric constant tensor:
#      x y z
#    x 1.618320 0.000000 0.000000 
#    y 0.000000 1.747690 0.000000 
#    z 0.000000 0.000000 1.731020 
# 
# From -- ./inp_files/21341.got.cif
#   From: 2010.05.17/outbox.cif.g08.bks.cpg/sg24_11_cif.got.tgz:21341.got - 2010.06.04 00:33:39.
