data_PCOD9333521
_publ_section_title
;
Structure prediction by ZEFSAII (Michael W. Deem and Ramdas Pophale) SiO2 
 PCOD9333521
Probable space group: I 21 21 21
;
_chemical_formula_sum "Si O2"
_cell_formula_units_Z 52
_cell_length_a 12.125411
_cell_length_b 26.289765
_cell_length_c 9.024818
_cell_angle_alpha 90.000000
_cell_angle_beta 90.000000
_cell_angle_gamma 90.000000
_cell_volume 2876.879190
_symmetry_space_group_name_H-M "I 21 21 21"
_symmetry_group_IT_number 24
_symmetry_cell_setting 'orthorhombic'
loop_
_space_group_symop_operation_xyz
x,y,z
-x,1/2-y,z
x,-y,1/2-z
1/2-x,y,-z
1/2+x,1/2+y,1/2+z
1/2-x,-y,1/2+z
1/2+x,1/2-y,-z
-x,1/2+y,1/2-z
loop_
_atom_site_type_symbol
_atom_site_label
_atom_site_fract_x
_atom_site_fract_y
_atom_site_fract_z
Si Si1 0.952631 0.839827 0.321364
Si Si2 0.122904 0.447326 0.181387
Si Si3 0.767159 0.220260 0.841306
Si Si4 0.507453 0.840811 0.338748
Si Si5 0.620665 0.052468 0.174798
Si Si6 0.325626 0.202029 0.381584
Si Si7 0.500000 0.750000 0.905945
O O1 0.947642 0.898308 0.272490
O O2 0.823938 0.824067 0.345400
O O3 0.011534 0.837193 0.482543
O O4 0.991287 0.799251 0.200564
O O5 0.083867 0.500000 0.250000
O O6 0.251847 0.440095 0.224299
O O7 0.120585 0.451879 0.003439
O O8 0.748739 0.262035 0.718013
O O9 0.888653 0.197368 0.818812
O O10 0.750000 0.245953 0.000000
O O11 0.550391 0.896951 0.295827
O O12 0.405974 0.826274 0.233600
O O13 0.581731 0.000000 0.250000
O O14 0.250000 0.172003 0.500000
O O15 0.400639 0.239001 0.481359
#
# Coordination Sequence:
#
# PCOD9333521 Si02
#       7
#     8   8   8   8   8   8   4
#     4  10  21  35  54  80 113 156 197 225 277 353
#     4   9  17  32  51  78 113 145 183 229 282 342
#     4  10  19  34  56  76 109 152 191 226 275 342
#     4  10  20  35  56  77 111 156 193 229 279 352
#     4   9  17  31  52  81 107 144 187 230 282 346
#     4  12  24  37  51  82 117 146 192 240 288 334
#     4  12  24  34  52  82 118 148 190 240 288 336
#
# _framework density 18.075142
#
# number of rings (size 3 to 8) (size 9 to 14) (size 15 to 20)
#    0.000    1.846    4.615    0.000    4.308    1.231 
#    0.000    1.538    0.000    0.000    0.000    6.462 
#    0.000    0.000    0.000    0.000    0.000    0.000 
#
# Total GULP energy -144877.007193 kJ/mol
# GULP energy per Si atom -5572.192584 kJ/mol
# Density = 1.803400 g / cm^3
# Si number density = 18.075142 Si / 1000 Ang^3
#
#
#
# Elastic Constant Matrix: (Units=GPa)
#
#
# Indices 1 2 3 4 5 6 
#
# 1 51.4735 21.7899 37.3771 0.0000 0.0000 0.0000
# 2 21.7899 119.1426 64.1516 -0.0001 0.0001 0.0000
# 3 37.3771 64.1516 88.1020 -0.0004 -0.0001 0.0002
# 4 0.0000 -0.0001 -0.0004 30.7915 0.0000 0.0001
# 5 0.0000 0.0001 -0.0001 0.0000 33.2547 0.0000
# 6 0.0000 0.0000 0.0002 0.0001 0.0000 18.8413
#
#
#
# Elastic Compliance Matrix: (Units=1/GPa)
#
#
# Indices 1 2 3 4 5 6 
#
# 1 0.028401 0.002128 -0.013598 0.000000 0.000000 0.000000
# 2 0.002128 0.013966 -0.011072 0.000000 0.000000 0.000000
# 3 -0.013598 -0.011072 0.025182 0.000000 0.000000 0.000000
# 4 0.000000 0.000000 0.000000 0.032477 0.000000 0.000000
# 5 0.000000 0.000000 0.000000 0.000000 0.030071 0.000000
# 6 0.000000 0.000000 0.000000 0.000000 0.000000 0.053075
#
#
# Mechanical properties :
#
#
# Convention : Reuss Voigt Hill
#
# Bulk Modulus (GPa) = 44.51697 56.15059 50.33378
# Shear Modulus (GPa) = 21.20948 25.60413 23.40680
#
# Velocity S-wave (km/s) = 3.42922 3.76778 3.60248
# Velocity P-wave (km/s) = 6.35308 7.07536 6.72393
#
# Compressibility (1/GPa) = 0.02246334
#
# Stress axis : x y z
#
# Youngs Moduli (GPa) = 35.20979 71.60390 39.71161
#
# Poissons Ratio (x) = -0.15235 0.54002
# Poissons Ratio (y) = -0.07492 0.43968
# Poissons Ratio (z) = 0.47880 0.79279
#
# Static dielectric constant tensor:
#      x y z
#    x 1.670330 0.000000 0.000000 
#    y 0.000000 1.613550 0.000000 
#    z 0.000000 0.000000 1.645950 
# 
# From -- ./inp_files/11479.got.cif
#   From: 2010.05.17/outbox.cif.g08.bks.cpg/sg24_6_cif.got.tgz:11479.got - 2010.06.04 00:33:39.
