data_PCOD9333863
_publ_section_title
;
Structure prediction by ZEFSAII (Michael W. Deem and Ramdas Pophale) SiO2 
 PCOD9333863
Probable space group: I 21 21 21
;
_chemical_formula_sum "Si O2"
_cell_formula_units_Z 60
_cell_length_a 21.396546
_cell_length_b 14.459990
_cell_length_c 11.662125
_cell_angle_alpha 90.000000
_cell_angle_beta 90.000000
_cell_angle_gamma 90.000000
_cell_volume 3608.189650
_symmetry_space_group_name_H-M "I 21 21 21"
_symmetry_group_IT_number 24
_symmetry_cell_setting 'orthorhombic'
loop_
_space_group_symop_operation_xyz
x,y,z
-x,1/2-y,z
x,-y,1/2-z
1/2-x,y,-z
1/2+x,1/2+y,1/2+z
1/2-x,-y,1/2+z
1/2+x,1/2-y,-z
-x,1/2+y,1/2-z
loop_
_atom_site_type_symbol
_atom_site_label
_atom_site_fract_x
_atom_site_fract_y
_atom_site_fract_z
Si Si1 0.956891 0.616343 0.054142
Si Si2 0.927052 0.267301 0.798850
Si Si3 0.043656 0.073371 0.952868
Si Si4 0.676725 0.945935 0.979248
Si Si5 0.499156 0.638540 0.698270
Si Si6 0.402332 0.566924 0.359953
Si Si7 0.611288 0.000000 0.750000
Si Si8 0.915313 0.210711 0.538820
O O1 0.932619 0.528811 0.984091
O O2 0.969547 0.596643 0.186950
O O3 0.912772 0.704962 0.048743
O O4 0.023206 0.650330 0.996753
O O5 0.891362 0.175417 0.838702
O O6 0.922322 0.260523 0.661667
O O7 0.000000 0.250000 0.826771
O O8 0.916020 0.362767 0.866735
O O9 0.032171 0.121129 0.076434
O O10 0.974619 0.058359 0.898700
O O11 0.654016 0.956430 0.848817
O O12 0.750000 0.944123 0.000000
O O13 0.643290 0.855617 0.031548
O O14 0.644697 0.030489 0.045574
O O15 0.500000 0.750000 0.715336
O O16 0.433243 0.582134 0.699127
O O17 0.394997 0.500000 0.250000
#
# Coordination Sequence:
#
# PCOD9333863 Si02
#       8
#     8   8   8   8   8   8   4   8
#     4  11  18  32  54  75 111 144 170 228 291 339
#     4  10  20  29  50  78 111 145 173 210 280 347
#     4  11  21  30  49  86 111 143 174 216 285 351
#     4  12  25  38  56  76 109 154 200 235 273 329
#     4  12  18  33  54  76 113 148 175 226 282 341
#     4  11  19  34  51  71 111 146 176 225 268 322
#     4  12  22  38  52  84 110 146 194 234 274 338
#     4  11  19  36  50  76 106 148 187 225 278 336
#
# _framework density 16.628837999999998
#
# number of rings (size 3 to 8) (size 9 to 14) (size 15 to 20)
#    0.000    0.800    9.333    1.200    2.800    0.000 
#    0.000    0.000    0.000    0.000    0.000    0.933 
#    8.000    0.000    0.000    0.000    0.000    0.000 
#
# Total GULP energy -167148.076996 kJ/mol
# GULP energy per Si atom -5571.602567 kJ/mol
# Density = 1.659099 g / cm^3
# Si number density = 16.628838 Si / 1000 Ang^3
#
#
#
# Elastic Constant Matrix: (Units=GPa)
#
#
# Indices 1 2 3 4 5 6 
#
# 1 48.5255 23.4220 10.3953 0.0000 0.0000 0.0000
# 2 23.4220 103.0571 28.5517 0.0000 0.0000 0.0000
# 3 10.3953 28.5517 93.6202 0.0000 0.0000 0.0000
# 4 0.0000 0.0000 0.0000 38.0832 0.0000 0.0000
# 5 0.0000 0.0000 0.0000 0.0000 6.1544 0.0000
# 6 0.0000 0.0000 0.0000 0.0000 0.0000 5.2756
#
#
#
# Elastic Compliance Matrix: (Units=1/GPa)
#
#
# Indices 1 2 3 4 5 6 
#
# 1 0.023243 -0.004989 -0.001059 0.000000 0.000000 0.000000
# 2 -0.004989 0.011670 -0.003005 0.000000 0.000000 0.000000
# 3 -0.001059 -0.003005 0.011716 0.000000 0.000000 0.000000
# 4 0.000000 0.000000 0.000000 0.026258 0.000000 0.000000
# 5 0.000000 0.000000 0.000000 0.000000 0.162486 0.000000
# 6 0.000000 0.000000 0.000000 0.000000 0.000000 0.189552
#
#
# Mechanical properties :
#
#
# Convention : Reuss Voigt Hill
#
# Bulk Modulus (GPa) = 35.06131 41.10451 38.08291
# Shear Modulus (GPa) = 11.04881 22.09155 16.57018
#
# Velocity S-wave (km/s) = 2.58046 3.64883 3.16012
# Velocity P-wave (km/s) = 5.47803 6.52107 6.02217
#
# Compressibility (1/GPa) = 0.02852147
#
# Stress axis : x y z
#
# Youngs Moduli (GPa) = 43.02431 85.69176 85.35683
#
# Poissons Ratio (x) = 0.42751 0.09042
# Poissons Ratio (y) = 0.21465 0.25650
# Poissons Ratio (z) = 0.04558 0.25750
#
# Static dielectric constant tensor:
#      x y z
#    x 1.527670 0.000000 0.000000 
#    y 0.000000 1.616660 0.000000 
#    z 0.000000 0.000000 1.629830 
# 
# From -- ./inp_files/22338.got.cif
#   From: 2010.05.17/outbox.cif.g08.bks.cpg/sg24_12_cif.got.tgz:22338.got - 2010.06.04 00:33:39.
