data_PCOD9333955
_publ_section_title
;
Structure prediction by ZEFSAII (Michael W. Deem and Ramdas Pophale) SiO2 
 PCOD9333955
Probable space group: I 21 21 21
;
_chemical_formula_sum "Si O2"
_cell_formula_units_Z 64
_cell_length_a 9.673994
_cell_length_b 14.631181
_cell_length_c 21.347298
_cell_angle_alpha 90.000000
_cell_angle_beta 90.000000
_cell_angle_gamma 90.000000
_cell_volume 3021.538340
_symmetry_space_group_name_H-M "I 21 21 21"
_symmetry_group_IT_number 24
_symmetry_cell_setting 'orthorhombic'
loop_
_space_group_symop_operation_xyz
x,y,z
-x,1/2-y,z
x,-y,1/2-z
1/2-x,y,-z
1/2+x,1/2+y,1/2+z
1/2-x,-y,1/2+z
1/2+x,1/2-y,-z
-x,1/2+y,1/2-z
loop_
_atom_site_type_symbol
_atom_site_label
_atom_site_fract_x
_atom_site_fract_y
_atom_site_fract_z
Si Si1 0.709104 0.172271 0.324697
Si Si2 0.761810 0.504798 0.906415
Si Si3 0.478051 0.515940 0.023208
Si Si4 0.793207 0.000955 0.098656
Si Si5 0.385166 0.601299 0.718180
Si Si6 0.107816 0.823580 0.030293
Si Si7 0.313007 0.093505 0.790940
Si Si8 0.385550 0.139879 0.311583
O O1 0.784106 0.100535 0.370316
O O2 0.786293 0.163260 0.259050
O O3 0.549074 0.148632 0.312537
O O4 0.696364 0.276950 0.345464
O O5 0.661793 0.586942 0.930579
O O6 0.690816 0.426955 0.865119
O O7 0.852631 0.551076 0.851559
O O8 0.873320 0.474013 0.958344
O O9 0.360668 0.487545 0.071791
O O10 0.404730 0.497320 0.956932
O O11 0.515083 0.624736 0.022998
O O12 0.832024 0.077075 0.149220
O O13 0.382575 0.500000 0.750000
O O14 0.539792 0.639666 0.720810
O O15 0.000000 0.750000 0.058328
O O16 0.250000 0.784784 0.000000
O O17 0.179135 0.136731 0.758079
O O18 0.326207 0.000000 0.750000
#
# Coordination Sequence:
#
# PCOD9333955 Si02
#       8
#     8   8   8   8   8   8   8   8
#     4  10  21  35  56  82 111 144 191 237 291 342
#     4  10  20  37  55  76 114 154 194 227 277 342
#     4  10  21  33  50  80 108 149 193 221 270 328
#     4  10  20  33  56  78 114 146 189 234 273 331
#     4   9  19  35  54  80 105 141 184 235 286 332
#     4  10  23  36  49  73 109 152 191 228 265 322
#     4   9  19  35  54  76 107 142 186 234 281 336
#     4  10  21  35  55  80 110 149 189 236 290 337
#
# _framework density 21.181265
#
# number of rings (size 3 to 8) (size 9 to 14) (size 15 to 20)
#    0.000    2.250    1.250    0.750    5.250    4.000 
#    0.000    0.000    0.000    0.000    0.000    0.000 
#   30.000    0.000    0.000    0.000    0.000    0.000 
#
# Total GULP energy -178268.181280 kJ/mol
# GULP energy per Si atom -5570.880665 kJ/mol
# Density = 2.113306 g / cm^3
# Si number density = 21.181265 Si / 1000 Ang^3
#
#
#
# Elastic Constant Matrix: (Units=GPa)
#
#
# Indices 1 2 3 4 5 6 
#
# 1 84.7569 -2.3868 35.3656 0.0000 0.0000 0.0000
# 2 -2.3868 10.0375 2.9814 0.0000 0.0000 0.0000
# 3 35.3656 2.9814 88.6807 0.0000 0.0000 0.0000
# 4 0.0000 0.0000 0.0000 23.6669 0.0000 0.0000
# 5 0.0000 0.0000 0.0000 0.0000 32.4478 0.0000
# 6 0.0000 0.0000 0.0000 0.0000 0.0000 24.5741
#
#
#
# Elastic Compliance Matrix: (Units=1/GPa)
#
#
# Indices 1 2 3 4 5 6 
#
# 1 0.014416 0.005187 -0.005924 0.000000 0.000000 0.000000
# 2 0.005187 0.102497 -0.005515 0.000000 0.000000 0.000000
# 3 -0.005924 -0.005515 0.013824 0.000000 0.000000 0.000000
# 4 0.000000 0.000000 0.000000 0.042253 0.000000 0.000000
# 5 0.000000 0.000000 0.000000 0.000000 0.030819 0.000000
# 6 0.000000 0.000000 0.000000 0.000000 0.000000 0.040693
#
#
# Mechanical properties :
#
#
# Convention : Reuss Voigt Hill
#
# Bulk Modulus (GPa) = 8.45764 28.37729 18.41747
# Shear Modulus (GPa) = 16.86815 25.97207 21.42011
#
# Velocity S-wave (km/s) = 2.82507 3.50549 3.18351
# Velocity P-wave (km/s) = 3.82662 5.45995 4.71455
#
# Compressibility (1/GPa) = 0.11823623
#
# Stress axis : x y z
#
# Youngs Moduli (GPa) = 69.36652 9.75634 72.33745
#
# Poissons Ratio (x) = -0.05061 0.42849
# Poissons Ratio (y) = -0.35984 0.39892
# Poissons Ratio (z) = 0.41089 0.05380
#
# Static dielectric constant tensor:
#      x y z
#    x 1.786010 0.000000 0.000000 
#    y 0.000000 1.797570 0.000000 
#    z 0.000000 0.000000 1.877120 
# 
# From -- ./inp_files/29891.got.cif
#   From: 2010.05.17/outbox.cif.g08.bks.cpg/sg24_15_cif.got.tgz:29891.got - 2010.06.04 00:33:39.
