data_PCOD9333052
_publ_section_title
;
Structure prediction by ZEFSAII (Michael W. Deem and Ramdas Pophale) SiO2 
 PCOD9333052
Probable space group: I 21 21 21
;
_chemical_formula_sum "Si O2"
_cell_formula_units_Z 64
_cell_length_a 18.434680
_cell_length_b 12.062143
_cell_length_c 15.847855
_cell_angle_alpha 90.000000
_cell_angle_beta 90.000000
_cell_angle_gamma 90.000000
_cell_volume 3523.956713
_symmetry_space_group_name_H-M "I 21 21 21"
_symmetry_group_IT_number 24
_symmetry_cell_setting 'orthorhombic'
loop_
_space_group_symop_operation_xyz
x,y,z
-x,1/2-y,z
x,-y,1/2-z
1/2-x,y,-z
1/2+x,1/2+y,1/2+z
1/2-x,-y,1/2+z
1/2+x,1/2-y,-z
-x,1/2+y,1/2-z
loop_
_atom_site_type_symbol
_atom_site_label
_atom_site_fract_x
_atom_site_fract_y
_atom_site_fract_z
Si Si1 0.822904 0.054625 0.168462
Si Si2 0.291942 0.397242 0.412508
Si Si3 0.307451 0.860550 0.134976
Si Si4 0.202723 0.942076 0.429290
Si Si5 0.424511 0.939616 0.015955
Si Si6 0.588361 0.025301 0.522194
Si Si7 0.418406 0.248004 0.626862
Si Si8 0.296320 0.202495 0.768367
O O1 0.792604 0.174353 0.193705
O O2 0.862583 0.000000 0.250000
O O3 0.756961 0.969458 0.149922
O O4 0.874236 0.062807 0.085578
O O5 0.250000 0.403151 0.500000
O O6 0.299855 0.267410 0.393782
O O7 0.367168 0.454301 0.436572
O O8 0.278469 0.847183 0.230176
O O9 0.250202 0.947105 0.093007
O O10 0.386584 0.902584 0.104241
O O11 0.250000 0.878379 0.500000
O O12 0.184731 0.879043 0.344044
O O13 0.129171 0.972738 0.475095
O O14 0.505760 0.983804 0.007443
O O15 0.420130 0.835476 0.952091
O O16 0.595902 0.134187 0.582657
O O17 0.500000 0.250000 0.664694
O O18 0.357087 0.212480 0.694024
#
# Coordination Sequence:
#
# PCOD9333052 Si02
#       8
#     8   8   8   8   8   8   8   8
#     4  11  21  34  53  82 117 151 187 239 290 353
#     4  10  18  32  56  81 108 145 189 236 294 344
#     4  11  19  33  58  84 110 145 197 248 283 338
#     4  10  23  37  55  80 113 153 196 237 287 347
#     4  10  20  35  55  85 118 143 185 240 294 349
#     4  10  20  35  55  86 116 149 183 233 303 358
#     4  10  19  30  52  85 118 139 172 230 291 350
#     4  12  22  36  55  83 118 154 196 232 294 350
#
# _framework density 18.161403
#
# number of rings (size 3 to 8) (size 9 to 14) (size 15 to 20)
#    0.000    1.500    5.000    2.250    0.000    2.500 
#    0.000    0.000    0.000    3.000    0.000    0.000 
#    0.000    0.000    0.000    0.000    0.000    0.000 
#
# Total GULP energy -178161.785764 kJ/mol
# GULP energy per Si atom -5567.555805 kJ/mol
# Density = 1.812007 g / cm^3
# Si number density = 18.161403 Si / 1000 Ang^3
#
#
#
# Elastic Constant Matrix: (Units=GPa)
#
#
# Indices 1 2 3 4 5 6 
#
# 1 118.8659 13.5913 30.8335 0.0000 0.0000 0.0000
# 2 13.5913 34.0895 14.9627 0.0000 0.0000 0.0000
# 3 30.8335 14.9627 41.8592 0.0000 0.0000 0.0000
# 4 0.0000 0.0000 0.0000 31.5064 0.0000 0.0000
# 5 0.0000 0.0000 0.0000 0.0000 20.7596 0.0000
# 6 0.0000 0.0000 0.0000 0.0000 0.0000 8.6966
#
#
#
# Elastic Compliance Matrix: (Units=1/GPa)
#
#
# Indices 1 2 3 4 5 6 
#
# 1 0.010425 -0.000932 -0.007346 0.000000 0.000000 0.000000
# 2 -0.000932 0.034877 -0.011780 0.000000 0.000000 0.000000
# 3 -0.007346 -0.011780 0.033511 0.000000 0.000000 0.000000
# 4 0.000000 0.000000 0.000000 0.031740 0.000000 0.000000
# 5 0.000000 0.000000 0.000000 0.000000 0.048171 0.000000
# 6 0.000000 0.000000 0.000000 0.000000 0.000000 0.114988
#
#
# Mechanical properties :
#
#
# Convention : Reuss Voigt Hill
#
# Bulk Modulus (GPa) = 25.84190 34.84329 30.34259
# Shear Modulus (GPa) = 15.30331 21.22098 18.26215
#
# Velocity S-wave (km/s) = 2.90596 3.42199 3.17448
# Velocity P-wave (km/s) = 5.05167 5.90257 5.49362
#
# Compressibility (1/GPa) = 0.03869684
#
# Stress axis : x y z
#
# Youngs Moduli (GPa) = 95.92407 28.67236 29.84052
#
# Poissons Ratio (x) = 0.02673 0.21920
# Poissons Ratio (y) = 0.08941 0.35153
# Poissons Ratio (z) = 0.70464 0.33777
#
# Static dielectric constant tensor:
#      x y z
#    x 1.697650 0.000000 0.000000 
#    y 0.000000 1.654970 0.000000 
#    z 0.000000 0.000000 1.664990 
# 
# From -- ./inp_files/21048.got.cif
#   From: 2010.05.17/outbox.cif.g08.bks.cpg/sg24_11_cif.got.tgz:21048.got - 2010.06.04 00:33:39.
