data_PCOD9333937
_publ_section_title
;
Structure prediction by ZEFSAII (Michael W. Deem and Ramdas Pophale) SiO2 
 PCOD9333937
Probable space group: I 21 21 21
;
_chemical_formula_sum "Si O2"
_cell_formula_units_Z 48
_cell_length_a 9.439471
_cell_length_b 31.729628
_cell_length_c 7.846390
_cell_angle_alpha 90.000000
_cell_angle_beta 90.000000
_cell_angle_gamma 90.000000
_cell_volume 2350.079357
_symmetry_space_group_name_H-M "I 21 21 21"
_symmetry_group_IT_number 24
_symmetry_cell_setting 'orthorhombic'
loop_
_space_group_symop_operation_xyz
x,y,z
-x,1/2-y,z
x,-y,1/2-z
1/2-x,y,-z
1/2+x,1/2+y,1/2+z
1/2-x,-y,1/2+z
1/2+x,1/2-y,-z
-x,1/2+y,1/2-z
loop_
_atom_site_type_symbol
_atom_site_label
_atom_site_fract_x
_atom_site_fract_y
_atom_site_fract_z
Si Si1 0.911283 0.952709 0.296895
Si Si2 0.413095 0.708595 0.208662
Si Si3 0.413095 0.708596 0.791334
Si Si4 0.911283 0.952709 0.703104
Si Si5 0.410091 0.871885 0.796502
Si Si6 0.910091 0.628115 0.796502
O O1 0.905960 0.949933 0.499999
O O2 0.750000 0.946875 0.229683
O O3 0.013977 0.916271 0.233921
O O4 0.957104 0.000000 0.250000
O O5 0.500000 0.750000 0.260387
O O6 0.250000 0.709758 0.264531
O O7 0.493344 0.666529 0.268234
O O8 0.411390 0.708233 0.999998
O O9 0.500000 0.750000 0.739610
O O10 0.493343 0.666528 0.731764
O O11 0.013978 0.916271 0.766078
O O12 0.957105 0.000000 0.750000
O O13 0.250000 0.870955 0.727693
O O14 0.400770 0.866039 1.000000
#
# Coordination Sequence:
#
# PCOD9333937 Si02
#       6
#     8   8   8   8   8   8
#     4  10  21  37  57  79 103 134 173 216 263 315
#     4   9  16  27  46  73 105 139 175 216 259 303
#     4   9  16  27  46  73 105 139 175 216 259 303
#     4  10  21  37  57  79 103 134 173 216 263 315
#     4  10  20  33  51  77 108 141 177 216 259 308
#     4  10  20  33  51  77 108 141 177 216 259 308
#
# _framework density 20.424842000000002
#
# number of rings (size 3 to 8) (size 9 to 14) (size 15 to 20)
#    0.000    2.333    0.000    3.000    0.000    8.667 
#    0.000    0.000    0.000    1.000    0.000    0.000 
#    0.000    0.000    0.000    0.000    0.000    0.000 
#
# Total GULP energy -134049.914222 kJ/mol
# GULP energy per Si atom -5585.413093 kJ/mol
# Density = 2.037835 g / cm^3
# Si number density = 20.424842 Si / 1000 Ang^3
#
#
#
# Elastic Constant Matrix: (Units=GPa)
#
#
# Indices 1 2 3 4 5 6 
#
# 1 208.9065 148.1983 7.4089 -0.0002 -0.0002 0.0000
# 2 148.1983 193.0949 -4.6666 -0.0005 0.0000 0.0001
# 3 7.4089 -4.6666 22.3253 -0.0024 0.0008 0.0004
# 4 -0.0002 -0.0005 -0.0024 15.8501 0.0001 0.0002
# 5 -0.0002 0.0000 0.0008 0.0001 9.7449 0.0000
# 6 0.0000 0.0001 0.0004 0.0002 0.0000 41.3914
#
#
#
# Elastic Compliance Matrix: (Units=1/GPa)
#
#
# Indices 1 2 3 4 5 6 
#
# 1 0.011145 -0.008687 -0.005514 -0.000001 0.000001 0.000000
# 2 -0.008687 0.011976 0.005386 0.000001 -0.000001 0.000000
# 3 -0.005514 0.005386 0.047748 0.000007 -0.000004 0.000000
# 4 -0.000001 0.000001 0.000007 0.063091 -0.000001 0.000000
# 5 0.000001 -0.000001 -0.000004 -0.000001 0.102618 0.000000
# 6 0.000000 0.000000 0.000000 0.000000 0.000000 0.024160
#
#
# Mechanical properties :
#
#
# Convention : Reuss Voigt Hill
#
# Bulk Modulus (GPa) = 18.78325 80.68979 49.73652
# Shear Modulus (GPa) = 16.88539 31.62301 24.25420
#
# Velocity S-wave (km/s) = 2.87837 3.93907 3.44973
# Velocity P-wave (km/s) = 4.50144 7.76401 6.34597
#
# Compressibility (1/GPa) = 0.05323891
#
# Stress axis : x y z
#
# Youngs Moduli (GPa) = 89.72783 83.50037 20.94326
#
# Poissons Ratio (x) = 0.72535 0.11549
# Poissons Ratio (y) = 0.77945 -0.11280
# Poissons Ratio (z) = 0.49479 -0.44975
#
# Static dielectric constant tensor:
#      x y z
#    x 1.719910 0.000000 0.000000 
#    y 0.000000 1.689450 0.000000 
#    z 0.000000 0.000000 1.759590 
# 
# From -- ./inp_files/9757.got.cif
#   From: 2010.05.17/outbox.cif.g08.bks.cpg/sg24_5_cif.got.tgz:9757.got - 2010.06.04 00:33:39.
