data_PCOD9333961
_publ_section_title
;
Structure prediction by ZEFSAII (Michael W. Deem and Ramdas Pophale) SiO2 
 PCOD9333961
Probable space group: I 21 21 21
;
_chemical_formula_sum "Si O2"
_cell_formula_units_Z 28
_cell_length_a 5.227713
_cell_length_b 26.915280
_cell_length_c 9.105001
_cell_angle_alpha 90.000000
_cell_angle_beta 90.000000
_cell_angle_gamma 90.000000
_cell_volume 1281.122436
_symmetry_space_group_name_H-M "I 21 21 21"
_symmetry_group_IT_number 24
_symmetry_cell_setting 'orthorhombic'
loop_
_space_group_symop_operation_xyz
x,y,z
-x,1/2-y,z
x,-y,1/2-z
1/2-x,y,-z
1/2+x,1/2+y,1/2+z
1/2-x,-y,1/2+z
1/2+x,1/2-y,-z
-x,1/2+y,1/2-z
loop_
_atom_site_type_symbol
_atom_site_label
_atom_site_fract_x
_atom_site_fract_y
_atom_site_fract_z
Si Si1 0.973447 0.807607 0.733646
Si Si2 0.750000 0.650541 0.000000
Si Si3 0.002352 0.476805 0.089784
Si Si4 0.957763 0.632596 0.299462
O O1 0.698109 0.830349 0.698426
O O2 0.000000 0.750000 0.697693
O O3 0.051308 0.816409 0.905433
O O4 0.196334 0.839629 0.657180
O O5 0.600079 0.620581 0.874082
O O6 0.998903 0.500000 0.250000
O O7 0.008382 0.417321 0.113700
O O8 0.750000 0.489886 0.000000
O O9 0.250000 0.492822 0.000000
#
# Coordination Sequence:
#
# PCOD9333961 Si02
#       4
#     8   4   8   8
#     4  10  20  33  59  98 138 181 232 284 332 393
#     4   8  22  28  62  92 138 178 226 288 322 404
#     4  12  28  50  78 104 140 182 234 295 357 431
#     4  10  22  37  61  96 135 175 224 287 343 397
#
# _framework density 21.855834000000002
#
# number of rings (size 3 to 8) (size 9 to 14) (size 15 to 20)
#    1.714    0.000    0.000    4.286    6.000    2.286 
#    0.000    0.000    0.000   17.143    0.000    0.000 
#    0.000    0.000    0.000    0.000    0.000    0.000 
#
# Total GULP energy -78184.803410 kJ/mol
# GULP energy per Si atom -5584.628815 kJ/mol
# Density = 2.180609 g / cm^3
# Si number density = 21.855834 Si / 1000 Ang^3
#
#
#
# Elastic Constant Matrix: (Units=GPa)
#
#
# Indices 1 2 3 4 5 6 
#
# 1 168.6328 30.9162 46.4503 0.0000 0.0000 0.0000
# 2 30.9162 46.3877 24.6114 0.0001 0.0000 0.0000
# 3 46.4503 24.6114 121.3151 0.0001 0.0000 0.0000
# 4 0.0000 0.0001 0.0001 23.0355 0.0000 0.0000
# 5 0.0000 0.0000 0.0000 0.0000 21.2184 0.0000
# 6 0.0000 0.0000 0.0000 0.0000 0.0000 60.2538
#
#
#
# Elastic Compliance Matrix: (Units=1/GPa)
#
#
# Indices 1 2 3 4 5 6 
#
# 1 0.007159 -0.003717 -0.001987 0.000000 0.000000 0.000000
# 2 -0.003717 0.026088 -0.003869 0.000000 0.000000 0.000000
# 3 -0.001987 -0.003869 0.009789 0.000000 0.000000 0.000000
# 4 0.000000 0.000000 0.000000 0.043411 0.000000 0.000000
# 5 0.000000 0.000000 0.000000 0.000000 0.047129 0.000000
# 6 0.000000 0.000000 0.000000 0.000000 0.000000 0.016596
#
#
# Mechanical properties :
#
#
# Convention : Reuss Voigt Hill
#
# Bulk Modulus (GPa) = 41.86067 60.03237 50.94652
# Shear Modulus (GPa) = 28.20381 36.52538 32.36460
#
# Velocity S-wave (km/s) = 3.59618 4.09246 3.85232
# Velocity P-wave (km/s) = 6.03639 7.06102 6.56872
#
# Compressibility (1/GPa) = 0.02388877
#
# Stress axis : x y z
#
# Youngs Moduli (GPa) = 139.68817 38.33248 102.15816
#
# Poissons Ratio (x) = 0.14248 0.20298
# Poissons Ratio (y) = 0.51921 0.39527
# Poissons Ratio (z) = 0.27756 0.14832
#
# Static dielectric constant tensor:
#      x y z
#    x 1.744640 0.000000 0.000000 
#    y 0.000000 1.758690 0.000000 
#    z 0.000000 0.000000 1.853090 
# 
# From -- ./inp_files/8213.got.cif
#   From: 2010.05.17/outbox.cif.g08.bks.cpg/sg24_5_cif.got.tgz:8213.got - 2010.06.04 00:33:39.
