data_PCOD9333704
_publ_section_title
;
Structure prediction by ZEFSAII (Michael W. Deem and Ramdas Pophale) SiO2 
 PCOD9333704
Probable space group: I 21 21 21
;
_chemical_formula_sum "Si O2"
_cell_formula_units_Z 60
_cell_length_a 12.392788
_cell_length_b 27.710493
_cell_length_c 8.790748
_cell_angle_alpha 90.000000
_cell_angle_beta 90.000000
_cell_angle_gamma 90.000000
_cell_volume 3018.833101
_symmetry_space_group_name_H-M "I 21 21 21"
_symmetry_group_IT_number 24
_symmetry_cell_setting 'orthorhombic'
loop_
_space_group_symop_operation_xyz
x,y,z
-x,1/2-y,z
x,-y,1/2-z
1/2-x,y,-z
1/2+x,1/2+y,1/2+z
1/2-x,-y,1/2+z
1/2+x,1/2-y,-z
-x,1/2+y,1/2-z
loop_
_atom_site_type_symbol
_atom_site_label
_atom_site_fract_x
_atom_site_fract_y
_atom_site_fract_z
Si Si1 0.632129 0.489308 0.076160
Si Si2 0.630318 0.602216 0.574024
Si Si3 0.878824 0.704284 0.503953
Si Si4 0.385057 0.269859 0.736113
Si Si5 0.981345 0.450355 0.337730
Si Si6 0.127871 0.635414 0.054211
Si Si7 0.535387 0.694424 0.152786
Si Si8 0.250000 0.209648 0.500000
O O1 0.643575 0.500000 0.250000
O O2 0.750000 0.488742 0.000000
O O3 0.578765 0.436983 0.041343
O O4 0.567191 0.531076 0.994401
O O5 0.750000 0.606773 0.500000
O O6 0.584874 0.656240 0.587549
O O7 0.610738 0.575957 0.734938
O O8 0.750000 0.701221 0.500000
O O9 0.890168 0.754637 0.412932
O O10 0.931235 0.695916 0.668836
O O11 0.500000 0.250000 0.679999
O O12 0.372374 0.324550 0.687779
O O13 0.292137 0.241635 0.642355
O O14 0.013218 0.500000 0.250000
O O15 0.073425 0.412277 0.377440
O O16 0.250000 0.627718 0.000000
O O17 0.056785 0.659522 0.916202
O O18 0.500000 0.750000 0.127011
O O19 0.645445 0.682143 0.061245
#
# Coordination Sequence:
#
# PCOD9333704 Si02
#       8
#     8   8   8   8   8   8   8   4
#     4  10  19  36  63  97 137 173 209 273 349 422
#     4   9  19  36  59  95 138 172 212 261 338 420
#     4  11  24  37  62  98 145 176 215 273 329 399
#     4  12  21  40  64  94 135 180 215 269 335 398
#     4  10  23  43  67  94 127 176 229 289 349 400
#     4  12  25  45  73  95 131 185 246 284 333 410
#     4  12  24  40  64  99 139 180 230 277 334 407
#     4  12  20  40  64  94 132 180 220 272 332 400
#
# _framework density 19.875229000000001
#
# number of rings (size 3 to 8) (size 9 to 14) (size 15 to 20)
#    0.000    1.067    4.667    3.200    1.867    0.000 
#    1.200    0.667    0.000    0.000    0.000    0.000 
#    0.000    0.000    0.000    0.000    0.000    0.000 
#
# Total GULP energy -167101.924461 kJ/mol
# GULP energy per Si atom -5570.064149 kJ/mol
# Density = 1.982999 g / cm^3
# Si number density = 19.875229 Si / 1000 Ang^3
#
#
#
# Elastic Constant Matrix: (Units=GPa)
#
#
# Indices 1 2 3 4 5 6 
#
# 1 112.7816 38.9141 36.7998 -0.0003 0.0001 0.0000
# 2 38.9141 115.0987 49.5335 -0.0006 0.0002 0.0004
# 3 36.7998 49.5335 146.4195 -0.0048 0.0014 0.0026
# 4 -0.0003 -0.0006 -0.0048 3.1285 0.0004 0.0009
# 5 0.0001 0.0002 0.0014 0.0004 20.4713 -0.0001
# 6 0.0000 0.0004 0.0026 0.0009 -0.0001 30.2585
#
#
#
# Elastic Compliance Matrix: (Units=1/GPa)
#
#
# Indices 1 2 3 4 5 6 
#
# 1 0.010372 -0.002791 -0.001663 -0.000002 0.000000 0.000000
# 2 -0.002791 0.010920 -0.002993 -0.000003 0.000000 0.000000
# 3 -0.001663 -0.002993 0.008260 0.000012 -0.000001 -0.000001
# 4 -0.000002 -0.000003 0.000012 0.319641 -0.000006 -0.000010
# 5 0.000000 0.000000 -0.000001 -0.000006 0.048849 0.000000
# 6 0.000000 0.000000 -0.000001 -0.000010 0.000000 0.033049
#
#
# Mechanical properties :
#
#
# Convention : Reuss Voigt Hill
#
# Bulk Modulus (GPa) = 68.21726 69.42162 68.81944
# Shear Modulus (GPa) = 11.08966 27.37515 19.23241
#
# Velocity S-wave (km/s) = 2.36469 3.71529 3.11409
# Velocity P-wave (km/s) = 6.46938 7.30815 6.90152
#
# Compressibility (1/GPa) = 0.01465905
#
# Stress axis : x y z
#
# Youngs Moduli (GPa) = 96.41067 91.57669 121.06608
#
# Poissons Ratio (x) = 0.25562 0.20128
# Poissons Ratio (y) = 0.26911 0.36230
# Poissons Ratio (z) = 0.16029 0.27405
#
# Static dielectric constant tensor:
#      x y z
#    x 1.618950 0.000000 0.000000 
#    y 0.000000 1.786300 0.000000 
#    z 0.000000 0.000000 1.737610 
# 
# From -- ./inp_files/11531.got.cif
#   From: 2010.05.17/outbox.cif.g08.bks.cpg/sg24_6_cif.got.tgz:11531.got - 2010.06.04 00:33:39.
