data_PCOD9333460
_publ_section_title
;
Structure prediction by ZEFSAII (Michael W. Deem and Ramdas Pophale) SiO2 
 PCOD9333460
Probable space group: I 21 21 21
;
_chemical_formula_sum "Si O2"
_cell_formula_units_Z 56
_cell_length_a 5.627080
_cell_length_b 13.886655
_cell_length_c 26.162589
_cell_angle_alpha 90.000000
_cell_angle_beta 90.000000
_cell_angle_gamma 90.000000
_cell_volume 2044.379203
_symmetry_space_group_name_H-M "I 21 21 21"
_symmetry_group_IT_number 24
_symmetry_cell_setting 'orthorhombic'
loop_
_space_group_symop_operation_xyz
x,y,z
-x,1/2-y,z
x,-y,1/2-z
1/2-x,y,-z
1/2+x,1/2+y,1/2+z
1/2-x,-y,1/2+z
1/2+x,1/2-y,-z
-x,1/2+y,1/2-z
loop_
_atom_site_type_symbol
_atom_site_label
_atom_site_fract_x
_atom_site_fract_y
_atom_site_fract_z
Si Si1 0.825156 0.481314 0.156630
Si Si2 0.748412 0.728136 0.610023
Si Si3 0.251389 0.698896 0.274950
Si Si4 0.502413 0.428874 0.010825
Si Si5 0.098617 0.389197 0.577906
Si Si6 0.396368 0.887728 0.938236
Si Si7 0.669865 0.042755 0.309939
O O1 0.773457 0.382453 0.127096
O O2 0.848719 0.572274 0.119002
O O3 0.591785 0.493587 0.191634
O O4 0.089766 0.480896 0.179775
O O5 0.500000 0.750000 0.583674
O O6 0.754603 0.791460 0.662770
O O7 0.000000 0.750000 0.584007
O O8 0.500000 0.750000 0.260939
O O9 0.272713 0.605801 0.239247
O O10 0.000000 0.750000 0.261124
O O11 0.441366 0.496793 0.060874
O O12 0.750000 0.373578 0.000000
O O13 0.550594 0.514532 0.969634
O O14 0.250000 0.380835 0.000000
O O15 0.344698 0.342888 0.559096
O O16 0.133592 0.391614 0.638880
O O17 0.863571 0.345217 0.552254
#
# Coordination Sequence:
#
# PCOD9333460 Si02
#       7
#     8   8   8   8   8   8   8
#     4  10  19  33  53  76  99 128 172 220 259 303
#     4  10  21  38  53  71 101 136 171 212 269 324
#     4  10  21  38  53  71 101 136 171 212 269 324
#     4   8  12  20  34  58  94 124 142 178 242 292
#     4   8  14  23  39  64  95 121 149 191 244 286
#     4   8  14  23  39  64  95 121 149 191 244 286
#     4  10  19  33  53  76  99 128 172 220 259 303
#
# _framework density 27.392177
#
# number of rings (size 3 to 8) (size 9 to 14) (size 15 to 20)
#    0.000    2.857    0.000    1.714    0.000    0.000 
#    0.000   17.143    0.000    0.000    0.000    0.000 
#    0.000  114.286    0.000    2.857    0.000    0.286 
#
# Total GULP energy -156156.291307 kJ/mol
# GULP energy per Si atom -5577.010404 kJ/mol
# Density = 2.732983 g / cm^3
# Si number density = 27.392177 Si / 1000 Ang^3
#
#
#
# Elastic Constant Matrix: (Units=GPa)
#
#
# Indices 1 2 3 4 5 6 
#
# 1 366.6487 66.9387 44.6638 0.0000 0.0000 0.0000
# 2 66.9387 65.8841 7.0724 0.0000 0.0000 0.0000
# 3 44.6638 7.0724 72.7850 0.0000 0.0000 0.0000
# 4 0.0000 0.0000 0.0000 -46.7321 0.0000 0.0000
# 5 0.0000 0.0000 0.0000 0.0000 69.5254 0.0000
# 6 0.0000 0.0000 0.0000 0.0000 0.0000 49.3567
#
#
#
# Elastic Compliance Matrix: (Units=1/GPa)
#
#
# Indices 1 2 3 4 5 6 
#
# 1 0.003582 -0.003440 -0.001864 0.000000 0.000000 0.000000
# 2 -0.003440 0.018641 0.000299 0.000000 0.000000 0.000000
# 3 -0.001864 0.000299 0.014854 0.000000 0.000000 0.000000
# 4 0.000000 0.000000 0.000000 -0.021399 0.000000 0.000000
# 5 0.000000 0.000000 0.000000 0.000000 0.014383 0.000000
# 6 0.000000 0.000000 0.000000 0.000000 0.000000 0.020261
#
#
# Mechanical properties :
#
#
# Convention : Reuss Voigt Hill
#
# Bulk Modulus (GPa) = 36.94342 82.51862 59.73102
# Shear Modulus (GPa) = 72.09379 40.20618 56.14998
#
# Velocity S-wave (km/s) = 5.13578 3.83534 4.53244
# Velocity P-wave (km/s) = 6.97743 7.05715 7.01740
#
# Compressibility (1/GPa) = 0.02706842
#
# Stress axis : x y z
#
# Youngs Moduli (GPa) = 279.13693 53.64573 67.32242
#
# Poissons Ratio (x) = 0.18453 0.12550
# Poissons Ratio (y) = 0.96015 -0.02016
# Poissons Ratio (z) = 0.52034 -0.01606
#
# Static dielectric constant tensor:
#      x y z
#    x 2.414700 0.000000 0.000000 
#    y 0.000000 -1.898320 0.000000 
#    z 0.000000 0.000000 2.189450 
# 
# From -- ./inp_files/37920.got.cif
#   From: 2010.05.17/outbox.cif.g08.bks.cpg/sg24_19_cif.got.tgz:37920.got - 2010.06.04 00:33:39.
