data_PCOD9333215
_publ_section_title
;
Structure prediction by ZEFSAII (Michael W. Deem and Ramdas Pophale) SiO2 
 PCOD9333215
Probable space group: I 21 21 21
;
_chemical_formula_sum "Si O2"
_cell_formula_units_Z 32
_cell_length_a 7.222743
_cell_length_b 15.869634
_cell_length_c 11.334721
_cell_angle_alpha 90.000000
_cell_angle_beta 90.000000
_cell_angle_gamma 90.000000
_cell_volume 1299.211654
_symmetry_space_group_name_H-M "I 21 21 21"
_symmetry_group_IT_number 24
_symmetry_cell_setting 'orthorhombic'
loop_
_space_group_symop_operation_xyz
x,y,z
-x,1/2-y,z
x,-y,1/2-z
1/2-x,y,-z
1/2+x,1/2+y,1/2+z
1/2-x,-y,1/2+z
1/2+x,1/2-y,-z
-x,1/2+y,1/2-z
loop_
_atom_site_type_symbol
_atom_site_label
_atom_site_fract_x
_atom_site_fract_y
_atom_site_fract_z
Si Si1 0.420302 0.076631 0.832606
Si Si2 0.496292 0.554740 0.411419
Si Si3 0.682460 0.285612 0.646032
Si Si4 0.942570 0.873825 0.837157
O O1 0.401531 0.162904 0.758566
O O2 0.215034 0.048057 0.875911
O O3 0.490636 0.000000 0.750000
O O4 0.526794 0.086713 0.955862
O O5 0.405455 0.463375 0.396064
O O6 0.434654 0.613178 0.304315
O O7 0.500000 0.250000 0.581382
O O8 0.799480 0.200303 0.649015
O O9 0.850794 0.349864 0.616924
#
# Coordination Sequence:
#
# PCOD9333215 Si02
#       4
#     8   8   8   8
#     4  10  18  36  63  87 125 168 210 267 329 387
#     4   9  17  36  62  90 122 171 210 261 330 400
#     4  10  20  37  62  93 126 159 208 273 321 389
#     4   9  18  39  63  89 126 163 206 261 329 390
#
# _framework density 24.630322
#
# number of rings (size 3 to 8) (size 9 to 14) (size 15 to 20)
#    0.000    2.500    5.000    0.000    0.000    0.000 
#   22.500    0.000   11.000    0.000    0.000    0.000 
#    0.000    0.000    0.000    0.000    0.000    0.000 
#
# Total GULP energy -89229.864002 kJ/mol
# GULP energy per Si atom -5576.866500 kJ/mol
# Density = 2.457426 g / cm^3
# Si number density = 24.630322 Si / 1000 Ang^3
#
#
#
# Elastic Constant Matrix: (Units=GPa)
#
#
# Indices 1 2 3 4 5 6 
#
# 1 99.2888 54.2062 48.1261 0.0000 0.0000 0.0000
# 2 54.2062 118.0122 50.9055 0.0002 0.0000 0.0000
# 3 48.1261 50.9055 179.9364 0.0002 0.0000 0.0000
# 4 0.0000 0.0002 0.0002 1.0201 0.0000 0.0000
# 5 0.0000 0.0000 0.0000 0.0000 11.3588 0.0000
# 6 0.0000 0.0000 0.0000 0.0000 0.0000 11.6103
#
#
#
# Elastic Compliance Matrix: (Units=1/GPa)
#
#
# Indices 1 2 3 4 5 6 
#
# 1 0.014181 -0.005556 -0.002221 0.000001 0.000000 0.000000
# 2 -0.005556 0.011828 -0.001860 -0.000002 0.000000 0.000000
# 3 -0.002221 -0.001860 0.006678 -0.000001 0.000000 0.000000
# 4 0.000001 -0.000002 -0.000001 0.980281 0.000003 -0.000001
# 5 0.000000 0.000000 0.000000 0.000003 0.088037 0.000000
# 6 0.000000 0.000000 0.000000 -0.000001 0.000000 0.086130
#
#
# Mechanical properties :
#
#
# Convention : Reuss Voigt Hill
#
# Bulk Modulus (GPa) = 74.55555 78.19034 76.37294
# Shear Modulus (GPa) = 4.12922 21.06449 12.59685
#
# Velocity S-wave (km/s) = 1.29619 2.92760 2.26395
# Velocity P-wave (km/s) = 5.70751 6.57588 6.15703
#
# Compressibility (1/GPa) = 0.01341282
#
# Stress axis : x y z
#
# Youngs Moduli (GPa) = 70.51488 84.54462 149.74750
#
# Poissons Ratio (x) = 0.46971 0.33262
# Poissons Ratio (y) = 0.39176 0.27858
# Poissons Ratio (z) = 0.15663 0.15728
#
# Static dielectric constant tensor:
#      x y z
#    x 2.013090 0.000000 0.000000 
#    y 0.000000 1.869780 0.000000 
#    z 0.000000 0.000000 2.035200 
# 
# From -- ./inp_files/24586.got.cif
#   From: 2010.05.17/outbox.cif.g08.bks.cpg/sg24_13_cif.got.tgz:24586.got - 2010.06.04 00:33:39.
