data_PCOD9333208
_publ_section_title
;
Structure prediction by ZEFSAII (Michael W. Deem and Ramdas Pophale) SiO2 
 PCOD9333208
Probable space group: I 21 21 21
;
_chemical_formula_sum "Si O2"
_cell_formula_units_Z 36
_cell_length_a 18.095608
_cell_length_b 10.829282
_cell_length_c 7.459956
_cell_angle_alpha 90.000000
_cell_angle_beta 90.000000
_cell_angle_gamma 90.000000
_cell_volume 1461.871195
_symmetry_space_group_name_H-M "I 21 21 21"
_symmetry_group_IT_number 24
_symmetry_cell_setting 'orthorhombic'
loop_
_space_group_symop_operation_xyz
x,y,z
-x,1/2-y,z
x,-y,1/2-z
1/2-x,y,-z
1/2+x,1/2+y,1/2+z
1/2-x,-y,1/2+z
1/2+x,1/2-y,-z
-x,1/2+y,1/2-z
loop_
_atom_site_type_symbol
_atom_site_label
_atom_site_fract_x
_atom_site_fract_y
_atom_site_fract_z
Si Si1 0.849950 0.262859 0.764863
Si Si2 0.421093 0.206801 0.592679
Si Si3 0.289437 0.360271 0.691739
Si Si4 0.956241 0.620737 0.469485
Si Si5 0.940312 0.000000 0.750000
O O1 0.870344 0.328557 0.575702
O O2 0.764671 0.231267 0.796758
O O3 0.883474 0.349378 0.916437
O O4 0.890092 0.125252 0.748369
O O5 0.500000 0.250000 0.520132
O O6 0.373229 0.316268 0.682724
O O7 0.438137 0.118766 0.758960
O O8 0.286899 0.500000 0.750000
O O9 0.250000 0.357052 0.500000
O O10 0.006618 0.520731 0.575590
O O11 0.000000 0.750000 0.488746
#
# Coordination Sequence:
#
# PCOD9333208 Si02
#       5
#     8   8   8   8   4
#     4  10  20  38  57  86 127 155 200 257 307 359
#     4  10  21  35  52  83 120 159 194 238 302 362
#     4  10  22  34  57  90 121 158 193 246 313 366
#     4   9  20  34  56  84 119 165 199 242 303 362
#     4  10  18  36  62  88 118 164 212 246 304 370
#
# _framework density 24.625972000000001
#
# number of rings (size 3 to 8) (size 9 to 14) (size 15 to 20)
#    0.000    2.222    1.111    2.000    3.111    5.333 
#    0.000    7.778    0.000    0.000   31.778    0.000 
#    0.000    0.000    0.000    0.000    0.000    0.000 
#
# Total GULP energy -100542.878232 kJ/mol
# GULP energy per Si atom -5585.715457 kJ/mol
# Density = 2.456992 g / cm^3
# Si number density = 24.625972 Si / 1000 Ang^3
#
#
#
# Elastic Constant Matrix: (Units=GPa)
#
#
# Indices 1 2 3 4 5 6 
#
# 1 119.0400 17.5367 -19.0955 0.0000 0.0000 0.0000
# 2 17.5367 80.6743 -9.5289 0.0000 0.0000 0.0000
# 3 -19.0955 -9.5289 85.7147 0.0000 0.0000 0.0000
# 4 0.0000 0.0000 0.0000 5.8571 0.0000 0.0000
# 5 0.0000 0.0000 0.0000 0.0000 26.9296 0.0000
# 6 0.0000 0.0000 0.0000 0.0000 0.0000 0.8409
#
#
#
# Elastic Compliance Matrix: (Units=1/GPa)
#
#
# Indices 1 2 3 4 5 6 
#
# 1 0.008944 -0.001732 0.001800 0.000000 0.000000 0.000000
# 2 -0.001732 0.012896 0.001048 0.000000 0.000000 0.000000
# 3 0.001800 0.001048 0.012184 0.000000 0.000000 0.000000
# 4 0.000000 0.000000 0.000000 0.170734 0.000000 0.000000
# 5 0.000000 0.000000 0.000000 0.000000 0.037134 0.000000
# 6 0.000000 0.000000 0.000000 0.000000 0.000000 1.189225
#
#
# Mechanical properties :
#
#
# Convention : Reuss Voigt Hill
#
# Bulk Modulus (GPa) = 27.58103 29.25039 28.41571
# Shear Modulus (GPa) = 3.46988 26.49329 14.98159
#
# Velocity S-wave (km/s) = 1.18832 3.28354 2.46918
# Velocity P-wave (km/s) = 3.62037 5.12632 4.43769
#
# Compressibility (1/GPa) = 0.03625681
#
# Stress axis : x y z
#
# Youngs Moduli (GPa) = 111.80167 77.54511 82.07395
#
# Poissons Ratio (x) = 0.13428 -0.14774
# Poissons Ratio (y) = 0.19360 -0.08600
# Poissons Ratio (z) = -0.20126 -0.08125
#
# Static dielectric constant tensor:
#      x y z
#    x 1.952530 0.000000 0.000000 
#    y 0.000000 2.002990 0.000000 
#    z 0.000000 0.000000 2.054440 
# 
# From -- ./inp_files/14937.got.cif
#   From: 2010.05.17/outbox.cif.g08.bks.cpg/sg24_8_cif.got.tgz:14937.got - 2010.06.04 00:33:39.
