data_PCOD9333949
_publ_section_title
;
Structure prediction by ZEFSAII (Michael W. Deem and Ramdas Pophale) SiO2 
 PCOD9333949
Probable space group: I 21 21 21
;
_chemical_formula_sum "Si O2"
_cell_formula_units_Z 64
_cell_length_a 24.471727
_cell_length_b 16.595635
_cell_length_c 8.524770
_cell_angle_alpha 90.000000
_cell_angle_beta 90.000000
_cell_angle_gamma 90.000000
_cell_volume 3462.112405
_symmetry_space_group_name_H-M "I 21 21 21"
_symmetry_group_IT_number 24
_symmetry_cell_setting 'orthorhombic'
loop_
_space_group_symop_operation_xyz
x,y,z
-x,1/2-y,z
x,-y,1/2-z
1/2-x,y,-z
1/2+x,1/2+y,1/2+z
1/2-x,-y,1/2+z
1/2+x,1/2-y,-z
-x,1/2+y,1/2-z
loop_
_atom_site_type_symbol
_atom_site_label
_atom_site_fract_x
_atom_site_fract_y
_atom_site_fract_z
Si Si1 0.806229 0.502292 0.936432
Si Si2 0.475546 0.836239 0.407520
Si Si3 0.267244 0.246636 0.180841
Si Si4 0.383550 0.236437 0.311132
Si Si5 0.827226 0.330704 0.391349
Si Si6 0.898816 0.575505 0.357070
Si Si7 0.794001 0.073046 0.870404
Si Si8 0.088844 0.409886 0.817008
O O1 0.806616 0.500000 0.750000
O O2 0.750000 0.464572 0.000000
O O3 0.808647 0.592242 0.006671
O O4 0.857455 0.458790 0.012860
O O5 0.500000 0.750000 0.453023
O O6 0.433530 0.816097 0.262537
O O7 0.444158 0.876627 0.549965
O O8 0.527945 0.891114 0.372778
O O9 0.328825 0.216054 0.211055
O O10 0.224079 0.211619 0.305857
O O11 0.272425 0.343209 0.202420
O O12 0.250000 0.232710 0.000000
O O13 0.364305 0.220370 0.488560
O O14 0.398160 0.331166 0.290959
O O15 0.865035 0.365495 0.254436
O O16 0.917648 0.500000 0.250000
O O17 0.856562 0.089633 0.927054
O O18 0.796730 0.000000 0.750000
O O19 0.750000 0.051135 0.000000
O O20 0.087387 0.500000 0.750000
#
# Coordination Sequence:
#
# PCOD9333949 Si02
#       8
#     8   8   8   8   8   8   8   8
#     4  11  22  36  55  83 117 153 190 232 282 338
#     4  10  21  40  61  79 108 151 194 236 286 343
#     4  10  20  33  54  85 119 153 189 231 283 340
#     4  10  20  35  58  84 112 151 193 233 284 339
#     4  11  22  36  56  86 119 149 191 239 284 339
#     4  10  23  39  56  81 113 149 189 235 287 339
#     4   9  19  36  58  84 114 146 182 227 283 342
#     4   9  20  37  58  84 112 144 186 233 280 338
#
# _framework density 18.485824000000001
#
# number of rings (size 3 to 8) (size 9 to 14) (size 15 to 20)
#    0.000    2.000    0.000    3.750    0.000    9.000 
#    0.000    3.750    0.000    0.000    0.000    0.000 
#    0.000    0.000    0.000    0.000    0.000    0.000 
#
# Total GULP energy -178400.744075 kJ/mol
# GULP energy per Si atom -5575.023252 kJ/mol
# Density = 1.844375 g / cm^3
# Si number density = 18.485824 Si / 1000 Ang^3
#
#
#
# Elastic Constant Matrix: (Units=GPa)
#
#
# Indices 1 2 3 4 5 6 
#
# 1 154.7698 70.4074 79.9813 0.0000 0.0000 0.0000
# 2 70.4074 85.7063 49.7186 0.0000 0.0000 0.0000
# 3 79.9813 49.7186 125.3225 0.0000 0.0000 0.0000
# 4 0.0000 0.0000 0.0000 12.7109 0.0000 0.0000
# 5 0.0000 0.0000 0.0000 0.0000 28.1521 0.0000
# 6 0.0000 0.0000 0.0000 0.0000 0.0000 1.4779
#
#
#
# Elastic Compliance Matrix: (Units=1/GPa)
#
#
# Indices 1 2 3 4 5 6 
#
# 1 0.012337 -0.007232 -0.005005 0.000000 0.000000 0.000000
# 2 -0.007232 0.019395 -0.003079 0.000000 0.000000 0.000000
# 3 -0.005005 -0.003079 0.012395 0.000000 0.000000 0.000000
# 4 0.000000 0.000000 0.000000 0.078673 0.000000 0.000000
# 5 0.000000 0.000000 0.000000 0.000000 0.035521 0.000000
# 6 0.000000 0.000000 0.000000 0.000000 0.000000 0.676626
#
#
# Mechanical properties :
#
#
# Convention : Reuss Voigt Hill
#
# Bulk Modulus (GPa) = 74.09593 85.11257 79.60425
# Shear Modulus (GPa) = 5.74662 19.51427 12.63044
#
# Velocity S-wave (km/s) = 1.76505 3.25258 2.61674
# Velocity P-wave (km/s) = 6.65759 7.76194 7.23088
#
# Compressibility (1/GPa) = 0.01349602
#
# Stress axis : x y z
#
# Youngs Moduli (GPa) = 81.05403 51.55999 80.67794
#
# Poissons Ratio (x) = 0.37288 0.40377
# Poissons Ratio (y) = 0.58618 0.24841
# Poissons Ratio (z) = 0.40565 0.15875
#
# Static dielectric constant tensor:
#      x y z
#    x 1.674510 0.000000 0.000000 
#    y 0.000000 1.670990 0.000000 
#    z 0.000000 0.000000 1.629430 
# 
# From -- ./inp_files/16072.got.cif
#   From: 2010.05.17/outbox.cif.g08.bks.cpg/sg24_9_cif.got.tgz:16072.got - 2010.06.04 00:33:39.
