data_PCOD9333950
_publ_section_title
;
Structure prediction by ZEFSAII (Michael W. Deem and Ramdas Pophale) SiO2 
 PCOD9333950
Probable space group: I 21 21 21
;
_chemical_formula_sum "Si O2"
_cell_formula_units_Z 44
_cell_length_a 19.421606
_cell_length_b 12.663654
_cell_length_c 9.372960
_cell_angle_alpha 90.000000
_cell_angle_beta 90.000000
_cell_angle_gamma 90.000000
_cell_volume 2305.265439
_symmetry_space_group_name_H-M "I 21 21 21"
_symmetry_group_IT_number 24
_symmetry_cell_setting 'orthorhombic'
loop_
_space_group_symop_operation_xyz
x,y,z
-x,1/2-y,z
x,-y,1/2-z
1/2-x,y,-z
1/2+x,1/2+y,1/2+z
1/2-x,-y,1/2+z
1/2+x,1/2-y,-z
-x,1/2+y,1/2-z
loop_
_atom_site_type_symbol
_atom_site_label
_atom_site_fract_x
_atom_site_fract_y
_atom_site_fract_z
Si Si1 0.823407 0.723827 0.580335
Si Si2 0.384972 0.104681 0.833963
Si Si3 0.678321 0.038061 0.088390
Si Si4 0.119271 0.597924 0.140819
Si Si5 0.500000 0.750000 0.775787
Si Si6 0.268261 0.777010 0.835985
O O1 0.750000 0.729547 0.500000
O O2 0.861106 0.628111 0.497531
O O3 0.852237 0.843436 0.568839
O O4 0.801463 0.714665 0.744709
O O5 0.449121 0.181419 0.818196
O O6 0.320707 0.140841 0.735213
O O7 0.407027 0.000000 0.750000
O O8 0.689330 0.000000 0.250000
O O9 0.750000 0.036364 0.000000
O O10 0.630434 0.952929 0.012600
O O11 0.113128 0.500000 0.250000
O O12 0.052611 0.672949 0.141884
O O13 0.187508 0.668081 0.177890
O O14 0.250000 0.793836 0.000000
#
# Coordination Sequence:
#
# PCOD9333950 Si02
#       6
#     8   8   8   8   4   8
#     4   9  18  32  51  82 116 141 180 230 276 343
#     4  10  21  37  57  78 107 152 196 237 286 340
#     4  11  19  30  55  90 121 148 179 226 295 360
#     4  11  20  34  57  81 110 150 191 236 290 346
#     4  10  22  38  56  76 104 144 202 252 284 336
#     4  10  20  33  54  87 119 143 173 227 293 355
#
# _framework density 19.086739000000001
#
# number of rings (size 3 to 8) (size 9 to 14) (size 15 to 20)
#    0.000    1.818    0.000    8.182    0.000    2.182 
#    0.000    0.000    0.000   24.000    0.000    0.000 
#    0.000    0.000    0.000    0.000    0.000    0.000 
#
# Total GULP energy -122483.696841 kJ/mol
# GULP energy per Si atom -5567.440765 kJ/mol
# Density = 1.904330 g / cm^3
# Si number density = 19.086739 Si / 1000 Ang^3
#
#
#
# Elastic Constant Matrix: (Units=GPa)
#
#
# Indices 1 2 3 4 5 6 
#
# 1 61.6532 8.8545 34.1750 0.0000 0.0000 0.0000
# 2 8.8545 32.4696 30.3779 0.0000 0.0000 0.0000
# 3 34.1750 30.3779 154.1447 0.0000 0.0000 0.0000
# 4 0.0000 0.0000 0.0000 14.7120 0.0000 0.0000
# 5 0.0000 0.0000 0.0000 0.0000 -0.6510 0.0000
# 6 0.0000 0.0000 0.0000 0.0000 0.0000 16.2489
#
#
#
# Elastic Compliance Matrix: (Units=1/GPa)
#
#
# Indices 1 2 3 4 5 6 
#
# 1 0.018551 -0.001485 -0.003820 0.000000 0.000000 0.000000
# 2 -0.001485 0.037879 -0.007136 0.000000 0.000000 0.000000
# 3 -0.003820 -0.007136 0.008741 0.000000 0.000000 0.000000
# 4 0.000000 0.000000 0.000000 0.067972 0.000000 0.000000
# 5 0.000000 0.000000 0.000000 0.000000 -1.536177 0.000000
# 6 0.000000 0.000000 0.000000 0.000000 0.000000 0.061543
#
#
# Mechanical properties :
#
#
# Convention : Reuss Voigt Hill
#
# Bulk Modulus (GPa) = 24.82074 43.89803 34.35939
# Shear Modulus (GPa) = -3.83676 17.71932 6.94128
#
# Velocity S-wave (km/s) = -1.41934 3.05020 1.90908
# Velocity P-wave (km/s) = 3.21658 5.95434 4.78542
#
# Compressibility (1/GPa) = 0.04028888
#
# Stress axis : x y z
#
# Youngs Moduli (GPa) = 53.90675 26.39982 114.40793
#
# Poissons Ratio (x) = 0.03920 0.43706
# Poissons Ratio (y) = 0.08003 0.81639
# Poissons Ratio (z) = 0.20593 0.18838
#
# Static dielectric constant tensor:
#      x y z
#    x 1.667690 0.000000 0.000000 
#    y 0.000000 1.769640 0.000000 
#    z 0.000000 0.000000 1.713920 
# 
# From -- ./inp_files/15780.got.cif
#   From: 2010.05.17/outbox.cif.g08.bks.cpg/sg24_8_cif.got.tgz:15780.got - 2010.06.04 00:33:39.
