data_PCOD9333005
_publ_section_title
;
Structure prediction by ZEFSAII (Michael W. Deem and Ramdas Pophale) SiO2 
 PCOD9333005
Probable space group: I 21 21 21
;
_chemical_formula_sum "Si O2"
_cell_formula_units_Z 60
_cell_length_a 13.402455
_cell_length_b 14.032804
_cell_length_c 16.800267
_cell_angle_alpha 90.000000
_cell_angle_beta 90.000000
_cell_angle_gamma 90.000000
_cell_volume 3159.693821
_symmetry_space_group_name_H-M "I 21 21 21"
_symmetry_group_IT_number 24
_symmetry_cell_setting 'orthorhombic'
loop_
_space_group_symop_operation_xyz
x,y,z
-x,1/2-y,z
x,-y,1/2-z
1/2-x,y,-z
1/2+x,1/2+y,1/2+z
1/2-x,-y,1/2+z
1/2+x,1/2-y,-z
-x,1/2+y,1/2-z
loop_
_atom_site_type_symbol
_atom_site_label
_atom_site_fract_x
_atom_site_fract_y
_atom_site_fract_z
Si Si1 0.311417 0.819169 0.081752
Si Si2 0.101592 0.361783 0.211862
Si Si3 0.500000 0.750000 0.995749
Si Si4 0.663323 0.057687 0.949273
Si Si5 0.388865 0.149612 0.846684
Si Si6 0.833219 0.148873 0.388088
Si Si7 0.289875 0.031657 0.092340
Si Si8 0.967290 0.352779 0.976166
O O1 0.425432 0.806427 0.054133
O O2 0.257947 0.725228 0.118745
O O3 0.300194 0.922558 0.121664
O O4 0.250000 0.826906 0.000000
O O5 0.164260 0.402838 0.139625
O O6 0.115603 0.248151 0.200768
O O7 0.132622 0.383130 0.300751
O O8 0.988720 0.395358 0.191357
O O9 0.425235 0.695735 0.936137
O O10 0.685469 0.946585 0.937229
O O11 0.750000 0.105084 0.000000
O O12 0.560276 0.082447 0.994450
O O13 0.290360 0.086323 0.852954
O O14 0.413364 0.172002 0.939481
O O15 0.393219 0.089148 0.081160
O O16 0.250000 0.028822 0.000000
O O17 0.000000 0.250000 0.942581
#
# Coordination Sequence:
#
# PCOD9333005 Si02
#       8
#     8   8   4   8   8   8   8   8
#     4   9  19  35  53  85 112 155 206 243 293 350
#     4  10  20  35  54  82 117 156 192 235 309 363
#     4  10  18  34  62  78 120 154 196 244 298 350
#     4  11  22  35  56  83 117 154 199 248 298 359
#     4   9  17  34  52  79 114 150 186 230 301 367
#     4  11  22  36  55  85 120 155 200 244 298 364
#     4   9  18  30  54  79 116 151 193 247 293 349
#     4  10  18  31  53  85 113 145 193 245 303 352
#
# _framework density 18.989182
#
# number of rings (size 3 to 8) (size 9 to 14) (size 15 to 20)
#    0.000    2.133    2.667    3.200    1.867    3.200 
#    0.000    4.667    0.000    1.600    0.000    1.867 
#    0.000    0.000    0.000    0.000    0.000    0.000 
#
# Total GULP energy -167027.432911 kJ/mol
# GULP energy per Si atom -5567.581097 kJ/mol
# Density = 1.894596 g / cm^3
# Si number density = 18.989182 Si / 1000 Ang^3
#
#
#
# Elastic Constant Matrix: (Units=GPa)
#
#
# Indices 1 2 3 4 5 6 
#
# 1 96.8655 45.9884 46.0024 0.0000 0.0000 0.0000
# 2 45.9884 86.6298 27.1149 0.0000 0.0000 0.0000
# 3 46.0024 27.1149 63.8639 0.0000 0.0000 0.0000
# 4 0.0000 0.0000 0.0000 11.4512 0.0000 0.0000
# 5 0.0000 0.0000 0.0000 0.0000 16.0012 0.0000
# 6 0.0000 0.0000 0.0000 0.0000 0.0000 15.0570
#
#
#
# Elastic Compliance Matrix: (Units=1/GPa)
#
#
# Indices 1 2 3 4 5 6 
#
# 1 0.018379 -0.006473 -0.010490 0.000000 0.000000 0.000000
# 2 -0.006473 0.015592 -0.001957 0.000000 0.000000 0.000000
# 3 -0.010490 -0.001957 0.024046 0.000000 0.000000 0.000000
# 4 0.000000 0.000000 0.000000 0.087327 0.000000 0.000000
# 5 0.000000 0.000000 0.000000 0.000000 0.062495 0.000000
# 6 0.000000 0.000000 0.000000 0.000000 0.000000 0.066414
#
#
# Mechanical properties :
#
#
# Convention : Reuss Voigt Hill
#
# Bulk Modulus (GPa) = 49.56563 53.95229 51.75896
# Shear Modulus (GPa) = 15.68284 17.05212 16.36748
#
# Velocity S-wave (km/s) = 2.87694 2.99990 2.93906
# Velocity P-wave (km/s) = 6.09872 6.36184 6.23167
#
# Compressibility (1/GPa) = 0.02017527
#
# Stress axis : x y z
#
# Youngs Moduli (GPa) = 54.41061 64.13400 41.58752
#
# Poissons Ratio (x) = 0.41515 0.43626
# Poissons Ratio (y) = 0.35221 0.08140
# Poissons Ratio (z) = 0.57078 0.12553
#
# Static dielectric constant tensor:
#      x y z
#    x 1.714700 0.000000 0.000000 
#    y 0.000000 1.707690 0.000000 
#    z 0.000000 0.000000 1.616410 
# 
# From -- ./inp_files/30350.got.cif
#   From: 2010.05.17/outbox.cif.g08.bks.cpg/sg24_16_cif.got.tgz:30350.got - 2010.06.04 00:33:39.
