data_PCOD9333825
_publ_section_title
;
Structure prediction by ZEFSAII (Michael W. Deem and Ramdas Pophale) SiO2 
 PCOD9333825
Probable space group: I 21 21 21
;
_chemical_formula_sum "Si O2"
_cell_formula_units_Z 32
_cell_length_a 7.457242
_cell_length_b 11.332088
_cell_length_c 17.534364
_cell_angle_alpha 90.000000
_cell_angle_beta 90.000000
_cell_angle_gamma 90.000000
_cell_volume 1481.761114
_symmetry_space_group_name_H-M "I 21 21 21"
_symmetry_group_IT_number 24
_symmetry_cell_setting 'orthorhombic'
loop_
_space_group_symop_operation_xyz
x,y,z
-x,1/2-y,z
x,-y,1/2-z
1/2-x,y,-z
1/2+x,1/2+y,1/2+z
1/2-x,-y,1/2+z
1/2+x,1/2-y,-z
-x,1/2+y,1/2-z
loop_
_atom_site_type_symbol
_atom_site_label
_atom_site_fract_x
_atom_site_fract_y
_atom_site_fract_z
Si Si1 0.255528 0.515104 0.337119
Si Si2 0.865898 0.485121 0.397756
Si Si3 0.287572 0.758058 0.589221
Si Si4 0.527742 0.383023 0.442922
O O1 0.308915 0.500000 0.250000
O O2 0.292106 0.649423 0.364441
O O3 0.364836 0.429669 0.392869
O O4 0.042355 0.487134 0.346248
O O5 0.753863 0.606705 0.388774
O O6 0.711797 0.386884 0.393582
O O7 0.943472 0.467937 0.483871
O O8 0.500000 0.750000 0.599785
O O9 0.250000 0.741508 0.500000
O O10 0.500000 0.250000 0.470504
#
# Coordination Sequence:
#
# PCOD9333825 Si02
#       4
#     8   8   8   8
#     4  11  25  43  63  99 138 175 211 268 346 411
#     4  10  23  43  70  97 125 169 232 278 331 383
#     4  10  19  39  68  96 118 162 220 277 319 380
#     4  11  24  43  67 102 127 175 229 280 334 392
#
# _framework density 21.595925000000001
#
# number of rings (size 3 to 8) (size 9 to 14) (size 15 to 20)
#    0.000    1.500    2.500    3.750    7.000    1.000 
#   18.000    0.000    0.000    0.000    0.000    0.000 
#    0.000    0.000    0.000    0.000    0.000    0.000 
#
# Total GULP energy -89329.870960 kJ/mol
# GULP energy per Si atom -5583.116935 kJ/mol
# Density = 2.154677 g / cm^3
# Si number density = 21.595925 Si / 1000 Ang^3
#
#
#
# Elastic Constant Matrix: (Units=GPa)
#
#
# Indices 1 2 3 4 5 6 
#
# 1 65.5668 14.1224 3.1631 0.0000 0.0000 0.0000
# 2 14.1224 82.5582 17.5431 0.0000 0.0000 0.0000
# 3 3.1631 17.5431 60.4477 0.0000 0.0000 0.0000
# 4 0.0000 0.0000 0.0000 -41.1092 0.0000 0.0000
# 5 0.0000 0.0000 0.0000 0.0000 15.8779 0.0000
# 6 0.0000 0.0000 0.0000 0.0000 0.0000 27.2026
#
#
#
# Elastic Compliance Matrix: (Units=1/GPa)
#
#
# Indices 1 2 3 4 5 6 
#
# 1 0.015835 -0.002699 -0.000045 0.000000 0.000000 0.000000
# 2 -0.002699 0.013369 -0.003739 0.000000 0.000000 0.000000
# 3 -0.000045 -0.003739 0.017631 0.000000 0.000000 0.000000
# 4 0.000000 0.000000 0.000000 -0.024325 0.000000 0.000000
# 5 0.000000 0.000000 0.000000 0.000000 0.062981 0.000000
# 6 0.000000 0.000000 0.000000 0.000000 0.000000 0.036761
#
#
# Mechanical properties :
#
#
# Convention : Reuss Voigt Hill
#
# Bulk Modulus (GPa) = 29.52598 30.91443 30.22021
# Shear Modulus (GPa) = 34.12814 11.97720 23.05267
#
# Velocity S-wave (km/s) = 3.97962 2.35756 3.27074
# Velocity P-wave (km/s) = 5.90069 4.66442 5.31860
#
# Compressibility (1/GPa) = 0.03386848
#
# Stress axis : x y z
#
# Youngs Moduli (GPa) = 63.15061 74.80095 56.71945
#
# Poissons Ratio (x) = 0.20190 0.00257
# Poissons Ratio (y) = 0.17045 0.21205
# Poissons Ratio (z) = 0.00286 0.27965
#
# Static dielectric constant tensor:
#      x y z
#    x 1.825030 0.000000 0.000000 
#    y 0.000000 1.858960 0.000000 
#    z 0.000000 0.000000 1.734480 
# 
# From -- ./inp_files/11963.got.cif
#   From: 2010.05.17/outbox.cif.g08.bks.cpg/sg24_6_cif.got.tgz:11963.got - 2010.06.04 00:33:39.
