data_PCOD9333560
_publ_section_title
;
Structure prediction by ZEFSAII (Michael W. Deem and Ramdas Pophale) SiO2 
 PCOD9333560
Probable space group: I 21 21 21
;
_chemical_formula_sum "Si O2"
_cell_formula_units_Z 52
_cell_length_a 15.921412
_cell_length_b 10.747170
_cell_length_c 15.631341
_cell_angle_alpha 90.000000
_cell_angle_beta 90.000000
_cell_angle_gamma 90.000000
_cell_volume 2674.680656
_symmetry_space_group_name_H-M "I 21 21 21"
_symmetry_group_IT_number 24
_symmetry_cell_setting 'orthorhombic'
loop_
_space_group_symop_operation_xyz
x,y,z
-x,1/2-y,z
x,-y,1/2-z
1/2-x,y,-z
1/2+x,1/2+y,1/2+z
1/2-x,-y,1/2+z
1/2+x,1/2-y,-z
-x,1/2+y,1/2-z
loop_
_atom_site_type_symbol
_atom_site_label
_atom_site_fract_x
_atom_site_fract_y
_atom_site_fract_z
Si Si1 0.902628 0.995036 0.041112
Si Si2 0.250000 0.659691 0.000000
Si Si3 0.576699 0.435846 0.023221
Si Si4 0.327896 0.884824 0.913974
Si Si5 0.815657 0.242461 0.079878
Si Si6 0.296225 0.922543 0.336811
Si Si7 0.508993 0.384741 0.690820
O O1 0.856582 0.107653 0.090758
O O2 0.831413 0.925660 0.986287
O O3 0.949095 0.902041 0.107761
O O4 0.977221 0.053180 0.984444
O O5 0.218264 0.754671 0.072822
O O6 0.616266 0.400040 0.114203
O O7 0.616038 0.569242 0.994359
O O8 0.612114 0.338083 0.952669
O O9 0.394364 0.890348 0.837996
O O10 0.257530 0.987054 0.898027
O O11 0.762260 0.299173 0.158900
O O12 0.750000 0.236460 0.000000
O O13 0.305383 0.000000 0.250000
O O14 0.500000 0.250000 0.732194
O O15 0.489941 0.500000 0.750000
#
# Coordination Sequence:
#
# PCOD9333560 Si02
#       7
#     8   4   8   8   8   8   8
#     4  11  22  36  61  87 116 154 196 250 297 343
#     4  12  20  36  62  82 114 144 206 242 286 344
#     4   9  19  34  58  84 114 146 196 245 283 343
#     4  10  19  37  56  83 112 148 196 240 285 339
#     4   9  18  36  58  87 115 151 195 239 292 350
#     4  10  19  34  60  88 114 150 190 235 290 351
#     4  11  24  38  56  88 125 158 193 241 308 365
#
# _framework density 19.441573999999999
#
# number of rings (size 3 to 8) (size 9 to 14) (size 15 to 20)
#    0.000    1.846    3.846    1.846    0.000    4.923 
#    0.000    0.000    0.000    8.308    0.000    0.000 
#    0.000    0.000    0.000    0.000    0.000    0.000 
#
# Total GULP energy -144885.573409 kJ/mol
# GULP energy per Si atom -5572.522054 kJ/mol
# Density = 1.939732 g / cm^3
# Si number density = 19.441574 Si / 1000 Ang^3
#
#
#
# Elastic Constant Matrix: (Units=GPa)
#
#
# Indices 1 2 3 4 5 6 
#
# 1 103.3533 28.6528 7.3013 0.0000 0.0000 0.0000
# 2 28.6528 95.6696 4.3619 0.0000 0.0000 0.0000
# 3 7.3013 4.3619 38.8423 0.0000 0.0000 0.0000
# 4 0.0000 0.0000 0.0000 20.2709 0.0000 0.0000
# 5 0.0000 0.0000 0.0000 0.0000 13.3618 0.0000
# 6 0.0000 0.0000 0.0000 0.0000 0.0000 32.7210
#
#
#
# Elastic Compliance Matrix: (Units=1/GPa)
#
#
# Indices 1 2 3 4 5 6 
#
# 1 0.010656 -0.003116 -0.001653 0.000000 0.000000 0.000000
# 2 -0.003116 0.011418 -0.000696 0.000000 0.000000 0.000000
# 3 -0.001653 -0.000696 0.026134 0.000000 0.000000 0.000000
# 4 0.000000 0.000000 0.000000 0.049332 0.000000 0.000000
# 5 0.000000 0.000000 0.000000 0.000000 0.074840 0.000000
# 6 0.000000 0.000000 0.000000 0.000000 0.000000 0.030561
#
#
# Mechanical properties :
#
#
# Convention : Reuss Voigt Hill
#
# Bulk Modulus (GPa) = 26.82651 35.38858 31.10755
# Shear Modulus (GPa) = 22.09473 26.44070 24.26772
#
# Velocity S-wave (km/s) = 3.37481 3.69183 3.53687
# Velocity P-wave (km/s) = 5.38649 6.03447 5.71967
#
# Compressibility (1/GPa) = 0.03727656
#
# Stress axis : x y z
#
# Youngs Moduli (GPa) = 93.84188 87.58359 38.26420
#
# Poissons Ratio (x) = 0.27292 0.06326
# Poissons Ratio (y) = 0.29242 0.02665
# Poissons Ratio (z) = 0.15514 0.06099
#
# Static dielectric constant tensor:
#      x y z
#    x 1.700430 0.000000 0.000000 
#    y 0.000000 1.749400 0.000000 
#    z 0.000000 0.000000 1.696770 
# 
# From -- ./inp_files/30314.got.cif
#   From: 2010.05.17/outbox.cif.g08.bks.cpg/sg24_16_cif.got.tgz:30314.got - 2010.06.04 00:33:39.
