data_PCOD9333771
_publ_section_title
;
Structure prediction by ZEFSAII (Michael W. Deem and Ramdas Pophale) SiO2 
 PCOD9333771
Probable space group: I 21 21 21
;
_chemical_formula_sum "Si O2"
_cell_formula_units_Z 60
_cell_length_a 18.450269
_cell_length_b 13.846483
_cell_length_c 11.705702
_cell_angle_alpha 90.000000
_cell_angle_beta 90.000000
_cell_angle_gamma 90.000000
_cell_volume 2990.471329
_symmetry_space_group_name_H-M "I 21 21 21"
_symmetry_group_IT_number 24
_symmetry_cell_setting 'orthorhombic'
loop_
_space_group_symop_operation_xyz
x,y,z
-x,1/2-y,z
x,-y,1/2-z
1/2-x,y,-z
1/2+x,1/2+y,1/2+z
1/2-x,-y,1/2+z
1/2+x,1/2-y,-z
-x,1/2+y,1/2-z
loop_
_atom_site_type_symbol
_atom_site_label
_atom_site_fract_x
_atom_site_fract_y
_atom_site_fract_z
Si Si1 0.051989 0.539218 0.864170
Si Si2 0.974338 0.894376 0.294397
Si Si3 0.442239 0.838042 0.018606
Si Si4 0.149393 0.555054 0.464103
Si Si5 0.750000 0.118425 0.500000
Si Si6 0.393321 0.784386 0.775490
Si Si7 0.739671 0.759493 0.622472
Si Si8 0.150805 0.722187 0.818514
O O1 0.016239 0.500000 0.750000
O O2 0.091686 0.637584 0.826422
O O3 0.991544 0.568678 0.956693
O O4 0.116013 0.468972 0.910657
O O5 0.923379 0.914307 0.400523
O O6 0.924684 0.825223 0.213349
O O7 0.048615 0.836909 0.306583
O O8 0.991249 0.000000 0.250000
O O9 0.500000 0.750000 0.010721
O O10 0.388188 0.813951 0.123175
O O11 0.399527 0.834349 0.898766
O O12 0.191675 0.454376 0.441649
O O13 0.203491 0.638032 0.417222
O O14 0.713100 0.184151 0.404789
O O15 0.317390 0.784637 0.711707
O O16 0.750000 0.707930 0.500000
O O17 0.813841 0.767879 0.693848
#
# Coordination Sequence:
#
# PCOD9333771 Si02
#       8
#     8   8   8   8   4   8   8   8
#     4  10  21  37  58  87 122 161 205 256 311 375
#     4  10  20  33  58  90 116 154 200 256 317 360
#     4  10  19  38  58  83 121 160 209 256 299 367
#     4  10  21  32  54  87 123 158 193 250 309 384
#     4  10  20  32  52  88 122 160 204 244 310 382
#     4  10  21  37  60  88 123 155 209 261 310 373
#     4  11  22  38  54  83 127 165 200 250 316 390
#     4  10  22  33  57  84 121 165 197 245 316 379
#
# _framework density 20.063728000000001
#
# number of rings (size 3 to 8) (size 9 to 14) (size 15 to 20)
#    0.000    1.867    2.000    2.400    9.333    0.000 
#    2.400    0.000    0.000    0.800    0.000    0.000 
#    0.000    0.000    0.000    0.000    0.000    0.000 
#
# Total GULP energy -167015.973143 kJ/mol
# GULP energy per Si atom -5567.199105 kJ/mol
# Density = 2.001806 g / cm^3
# Si number density = 20.063728 Si / 1000 Ang^3
#
#
#
# Elastic Constant Matrix: (Units=GPa)
#
#
# Indices 1 2 3 4 5 6 
#
# 1 78.3322 17.7449 51.1203 0.0000 0.0000 0.0000
# 2 17.7449 25.4291 16.2245 0.0000 0.0000 0.0000
# 3 51.1203 16.2245 95.6691 0.0000 0.0000 0.0000
# 4 0.0000 0.0000 0.0000 16.5948 0.0000 0.0000
# 5 0.0000 0.0000 0.0000 0.0000 36.6156 0.0000
# 6 0.0000 0.0000 0.0000 0.0000 0.0000 32.3678
#
#
#
# Elastic Compliance Matrix: (Units=1/GPa)
#
#
# Indices 1 2 3 4 5 6 
#
# 1 0.021104 -0.008446 -0.009844 0.000000 0.000000 0.000000
# 2 -0.008446 0.047476 -0.003539 0.000000 0.000000 0.000000
# 3 -0.009844 -0.003539 0.016313 0.000000 0.000000 0.000000
# 4 0.000000 0.000000 0.000000 0.060260 0.000000 0.000000
# 5 0.000000 0.000000 0.000000 0.000000 0.027311 0.000000
# 6 0.000000 0.000000 0.000000 0.000000 0.000000 0.030895
#
#
# Mechanical properties :
#
#
# Convention : Reuss Voigt Hill
#
# Bulk Modulus (GPa) = 24.25072 41.06775 32.65923
# Shear Modulus (GPa) = 19.17460 24.73836 21.95648
#
# Velocity S-wave (km/s) = 3.09477 3.51520 3.31167
# Velocity P-wave (km/s) = 4.98831 6.08183 5.56201
#
# Compressibility (1/GPa) = 0.04123590
#
# Stress axis : x y z
#
# Youngs Moduli (GPa) = 47.38445 21.06315 61.30018
#
# Poissons Ratio (x) = 0.17789 0.60347
# Poissons Ratio (y) = 0.40019 0.21692
# Poissons Ratio (z) = 0.46648 0.07453
#
# Static dielectric constant tensor:
#      x y z
#    x 1.745530 0.000000 0.000000 
#    y 0.000000 1.714560 0.000000 
#    z 0.000000 0.000000 1.754850 
# 
# From -- ./inp_files/21672.got.cif
#   From: 2010.05.17/outbox.cif.g08.bks.cpg/sg24_11_cif.got.tgz:21672.got - 2010.06.04 00:33:39.
