data_PCOD9333733
_publ_section_title
;
Structure prediction by ZEFSAII (Michael W. Deem and Ramdas Pophale) SiO2 
 PCOD9333733
Probable space group: I 21 21 21
;
_chemical_formula_sum "Si O2"
_cell_formula_units_Z 60
_cell_length_a 7.026672
_cell_length_b 16.851751
_cell_length_c 26.011042
_cell_angle_alpha 90.000000
_cell_angle_beta 90.000000
_cell_angle_gamma 90.000000
_cell_volume 3080.012402
_symmetry_space_group_name_H-M "I 21 21 21"
_symmetry_group_IT_number 24
_symmetry_cell_setting 'orthorhombic'
loop_
_space_group_symop_operation_xyz
x,y,z
-x,1/2-y,z
x,-y,1/2-z
1/2-x,y,-z
1/2+x,1/2+y,1/2+z
1/2-x,-y,1/2+z
1/2+x,1/2-y,-z
-x,1/2+y,1/2-z
loop_
_atom_site_type_symbol
_atom_site_label
_atom_site_fract_x
_atom_site_fract_y
_atom_site_fract_z
Si Si1 0.258126 0.090102 0.748809
Si Si2 0.750000 0.505148 0.500000
Si Si3 0.023982 0.661158 0.671926
Si Si4 0.851914 0.363673 0.634253
Si Si5 0.219225 0.303202 0.368227
Si Si6 0.489722 0.474564 0.087437
Si Si7 0.621490 0.826728 0.748315
Si Si8 0.868662 0.073561 0.452412
O O1 0.206117 0.124547 0.693338
O O2 0.482968 0.098255 0.756048
O O3 0.156691 0.138625 0.793395
O O4 0.191646 0.000000 0.750000
O O5 0.627266 0.553971 0.458595
O O6 0.575957 0.455161 0.527275
O O7 0.196906 0.662770 0.712660
O O8 0.000000 0.750000 0.650417
O O9 0.043657 0.592804 0.629548
O O10 0.721736 0.289484 0.615832
O O11 0.885045 0.450330 0.609017
O O12 0.063220 0.330273 0.630284
O O13 0.164282 0.313338 0.308562
O O14 0.117265 0.364548 0.406171
O O15 0.283769 0.506116 0.066930
O O16 0.500000 0.750000 0.731715
O O17 0.750000 0.110984 0.500000
#
# Coordination Sequence:
#
# PCOD9333733 Si02
#       8
#     8   4   8   8   8   8   8   8
#     4  12  24  38  60  93 134 179 223 259 327 398
#     4  10  22  44  70  92 126 170 224 280 338 396
#     4  12  24  43  66  97 137 175 219 281 338 403
#     4  10  19  37  59  93 128 179 214 263 313 385
#     4  10  20  35  64  89 136 173 219 263 320 382
#     4  10  23  41  68  93 128 169 220 277 338 392
#     4  12  24  37  59  94 133 178 216 265 322 398
#     4   9  21  42  65  97 129 170 220 276 333 387
#
# _framework density 19.480442
#
# number of rings (size 3 to 8) (size 9 to 14) (size 15 to 20)
#    0.000    1.333    5.333    0.000    1.867    3.733 
#    1.200    0.000    7.333    0.000    0.000    0.000 
#    0.000    0.000    0.000    0.000    0.000    0.000 
#
# Total GULP energy -167229.082071 kJ/mol
# GULP energy per Si atom -5574.302736 kJ/mol
# Density = 1.943610 g / cm^3
# Si number density = 19.480442 Si / 1000 Ang^3
#
#
#
# Elastic Constant Matrix: (Units=GPa)
#
#
# Indices 1 2 3 4 5 6 
#
# 1 108.4631 25.5797 54.9341 0.0000 0.0000 0.0000
# 2 25.5797 81.3451 33.8080 0.0000 0.0000 0.0000
# 3 54.9341 33.8080 82.3810 0.0000 0.0000 0.0000
# 4 0.0000 0.0000 0.0000 24.8536 0.0000 0.0000
# 5 0.0000 0.0000 0.0000 0.0000 25.7160 0.0000
# 6 0.0000 0.0000 0.0000 0.0000 0.0000 13.3850
#
#
#
# Elastic Compliance Matrix: (Units=1/GPa)
#
#
# Indices 1 2 3 4 5 6 
#
# 1 0.013948 -0.000628 -0.009043 0.000000 0.000000 0.000000
# 2 -0.000628 0.014849 -0.005676 0.000000 0.000000 0.000000
# 3 -0.009043 -0.005676 0.020498 0.000000 0.000000 0.000000
# 4 0.000000 0.000000 0.000000 0.040236 0.000000 0.000000
# 5 0.000000 0.000000 0.000000 0.000000 0.038886 0.000000
# 6 0.000000 0.000000 0.000000 0.000000 0.000000 0.074710
#
#
# Mechanical properties :
#
#
# Convention : Reuss Voigt Hill
#
# Bulk Modulus (GPa) = 53.75540 55.64809 54.70174
# Shear Modulus (GPa) = 20.83144 23.31542 22.07343
#
# Velocity S-wave (km/s) = 3.27364 3.46332 3.36982
# Velocity P-wave (km/s) = 6.47637 6.67989 6.57892
#
# Compressibility (1/GPa) = 0.01860278
#
# Stress axis : x y z
#
# Youngs Moduli (GPa) = 71.69491 67.34250 48.78459
#
# Poissons Ratio (x) = 0.04226 0.44118
# Poissons Ratio (y) = 0.04499 0.27688
# Poissons Ratio (z) = 0.64837 0.38221
#
# Static dielectric constant tensor:
#      x y z
#    x 1.718730 0.000000 0.000000 
#    y 0.000000 1.700630 0.000000 
#    z 0.000000 0.000000 1.688090 
# 
# From -- ./inp_files/5007.got.cif
#   From: 2010.05.17/outbox.cif.g08.bks.cpg/sg24_3_cif.got.tgz:5007.got - 2010.06.04 00:33:39.
