data_PCOD9333689
_publ_section_title
;
Structure prediction by ZEFSAII (Michael W. Deem and Ramdas Pophale) SiO2 
 PCOD9333689
Probable space group: I 21 21 21
;
_chemical_formula_sum "Si O2"
_cell_formula_units_Z 36
_cell_length_a 20.917808
_cell_length_b 5.265146
_cell_length_c 14.391136
_cell_angle_alpha 90.000000
_cell_angle_beta 90.000000
_cell_angle_gamma 90.000000
_cell_volume 1584.972270
_symmetry_space_group_name_H-M "I 21 21 21"
_symmetry_group_IT_number 24
_symmetry_cell_setting 'orthorhombic'
loop_
_space_group_symop_operation_xyz
x,y,z
-x,1/2-y,z
x,-y,1/2-z
1/2-x,y,-z
1/2+x,1/2+y,1/2+z
1/2-x,-y,1/2+z
1/2+x,1/2-y,-z
-x,1/2+y,1/2-z
loop_
_atom_site_type_symbol
_atom_site_label
_atom_site_fract_x
_atom_site_fract_y
_atom_site_fract_z
Si Si1 0.753486 0.516754 0.137420
Si Si2 0.626065 0.747731 0.188303
Si Si3 0.500000 0.750000 0.072605
Si Si4 0.173675 0.491219 0.136326
Si Si5 0.473874 0.495408 0.896597
O O1 0.756016 0.500000 0.250000
O O2 0.683122 0.637564 0.123674
O O3 0.800388 0.736910 0.104999
O O4 0.779411 0.240965 0.107359
O O5 0.610644 0.500000 0.250000
O O6 0.562172 0.805554 0.132361
O O7 0.644778 0.000000 0.250000
O O8 0.506690 0.522085 0.998587
O O9 0.171036 0.500000 0.250000
O O10 0.101990 0.470393 0.099097
O O11 0.500000 0.250000 0.848775
O O12 0.500000 0.750000 0.850678
#
# Coordination Sequence:
#
# PCOD9333689 Si02
#       5
#     8   8   4   8   8
#     4   9  18  34  58  88 117 143 191 254 298 351
#     4  11  22  38  65  93 116 156 205 250 315 370
#     4  10  26  40  62  82 134 154 204 256 308 358
#     4  10  19  36  62  86 116 154 197 247 298 352
#     4  10  23  39  58  81 125 160 201 244 304 353
#
# _framework density 22.713331
#
# number of rings (size 3 to 8) (size 9 to 14) (size 15 to 20)
#    0.667    1.333    0.000    5.333    3.111    0.889 
#    0.000    1.111    0.000    0.000    0.000    0.000 
#    0.000    0.000    0.000    0.000    0.000    0.000 
#
# Total GULP energy -100302.350554 kJ/mol
# GULP energy per Si atom -5572.352809 kJ/mol
# Density = 2.266163 g / cm^3
# Si number density = 22.713331 Si / 1000 Ang^3
#
#
#
# Elastic Constant Matrix: (Units=GPa)
#
#
# Indices 1 2 3 4 5 6 
#
# 1 125.1161 28.0909 7.9201 0.0000 0.0000 0.0000
# 2 28.0909 171.7209 13.3146 0.0000 0.0000 0.0000
# 3 7.9201 13.3146 52.8888 0.0000 0.0000 0.0000
# 4 0.0000 0.0000 0.0000 25.9540 0.0000 0.0000
# 5 0.0000 0.0000 0.0000 0.0000 16.1774 0.0000
# 6 0.0000 0.0000 0.0000 0.0000 0.0000 23.8578
#
#
#
# Elastic Compliance Matrix: (Units=1/GPa)
#
#
# Indices 1 2 3 4 5 6 
#
# 1 0.008341 -0.001293 -0.000924 0.000000 0.000000 0.000000
# 2 -0.001293 0.006140 -0.001352 0.000000 0.000000 0.000000
# 3 -0.000924 -0.001352 0.019386 0.000000 0.000000 0.000000
# 4 0.000000 0.000000 0.000000 0.038530 0.000000 0.000000
# 5 0.000000 0.000000 0.000000 0.000000 0.061815 0.000000
# 6 0.000000 0.000000 0.000000 0.000000 0.000000 0.041915
#
#
# Mechanical properties :
#
#
# Convention : Reuss Voigt Hill
#
# Bulk Modulus (GPa) = 37.41089 49.81967 43.61528
# Shear Modulus (GPa) = 26.01811 33.22452 29.62132
#
# Velocity S-wave (km/s) = 3.38819 3.82878 3.61520
# Velocity P-wave (km/s) = 5.64031 6.44420 6.05561
#
# Compressibility (1/GPa) = 0.02673018
#
# Stress axis : x y z
#
# Youngs Moduli (GPa) = 119.88502 162.87352 51.58288
#
# Poissons Ratio (x) = 0.21058 0.04764
# Poissons Ratio (y) = 0.15500 0.06974
# Poissons Ratio (z) = 0.11073 0.22021
#
# Static dielectric constant tensor:
#      x y z
#    x 1.817170 0.000000 0.000000 
#    y 0.000000 1.930530 0.000000 
#    z 0.000000 0.000000 1.887900 
# 
# From -- ./inp_files/33892.got.cif
#   From: 2010.05.17/outbox.cif.g08.bks.cpg/sg24_17_cif.got.tgz:33892.got - 2010.06.04 00:33:39.
