data_PCOD9333143
_publ_section_title
;
Structure prediction by ZEFSAII (Michael W. Deem and Ramdas Pophale) SiO2 
 PCOD9333143
Probable space group: I 21 21 21
;
_chemical_formula_sum "Si O2"
_cell_formula_units_Z 44
_cell_length_a 10.550280
_cell_length_b 7.934250
_cell_length_c 25.081539
_cell_angle_alpha 90.000000
_cell_angle_beta 90.000000
_cell_angle_gamma 90.000000
_cell_volume 2099.539489
_symmetry_space_group_name_H-M "I 21 21 21"
_symmetry_group_IT_number 24
_symmetry_cell_setting 'orthorhombic'
loop_
_space_group_symop_operation_xyz
x,y,z
-x,1/2-y,z
x,-y,1/2-z
1/2-x,y,-z
1/2+x,1/2+y,1/2+z
1/2-x,-y,1/2+z
1/2+x,1/2-y,-z
-x,1/2+y,1/2-z
loop_
_atom_site_type_symbol
_atom_site_label
_atom_site_fract_x
_atom_site_fract_y
_atom_site_fract_z
Si Si1 0.983243 0.049966 0.437061
Si Si2 0.135225 0.665768 0.350073
Si Si3 0.472711 0.548880 0.053519
Si Si4 0.142432 0.311730 0.652634
Si Si5 0.261394 0.971758 0.399642
Si Si6 0.769956 0.000000 0.250000
O O1 0.929976 0.994654 0.494904
O O2 0.000000 0.250000 0.433657
O O3 0.128954 0.984782 0.431810
O O4 0.888741 0.989137 0.390680
O O5 0.149712 0.615545 0.289050
O O6 0.000000 0.750000 0.356197
O O7 0.241275 0.802644 0.365475
O O8 0.500000 0.750000 0.047436
O O9 0.379098 0.553464 0.104154
O O10 0.607105 0.463721 0.067851
O O11 0.221280 0.147249 0.633453
O O12 0.192653 0.394029 0.706368
O O13 0.000000 0.250000 0.663368
#
# Coordination Sequence:
#
# PCOD9333143 Si02
#       6
#     8   8   8   8   8   4
#     4  10  18  34  60  88 119 151 189 235 283 349
#     4  10  24  39  56  87 115 150 199 238 288 344
#     4   8  17  35  60  87 114 148 188 230 287 353
#     4   9  21  39  60  87 113 149 197 238 287 350
#     4   9  18  37  58  84 117 150 186 235 298 347
#     4  12  24  40  58  80 112 154 200 240 286 340
#
# _framework density 20.956976000000001
#
# number of rings (size 3 to 8) (size 9 to 14) (size 15 to 20)
#    0.000    2.909    0.000    1.636    0.000    7.273 
#    0.000   11.818    0.000    0.000    0.000    0.000 
#    0.000    0.000    0.000    0.000    0.000    0.000 
#
# Total GULP energy -122543.249722 kJ/mol
# GULP energy per Si atom -5570.147715 kJ/mol
# Density = 2.090928 g / cm^3
# Si number density = 20.956976 Si / 1000 Ang^3
#
#
#
# Elastic Constant Matrix: (Units=GPa)
#
#
# Indices 1 2 3 4 5 6 
#
# 1 77.6801 20.6319 23.8725 0.0000 0.0000 0.0000
# 2 20.6319 57.2743 34.4668 0.0000 0.0000 0.0000
# 3 23.8725 34.4668 154.5392 0.0000 0.0000 0.0000
# 4 0.0000 0.0000 0.0000 8.3198 0.0000 0.0000
# 5 0.0000 0.0000 0.0000 0.0000 39.4186 0.0000
# 6 0.0000 0.0000 0.0000 0.0000 0.0000 30.8157
#
#
#
# Elastic Compliance Matrix: (Units=1/GPa)
#
#
# Indices 1 2 3 4 5 6 
#
# 1 0.014437 -0.004457 -0.001236 0.000000 0.000000 0.000000
# 2 -0.004457 0.021542 -0.004116 0.000000 0.000000 0.000000
# 3 -0.001236 -0.004116 0.007580 0.000000 0.000000 0.000000
# 4 0.000000 0.000000 0.000000 0.120195 0.000000 0.000000
# 5 0.000000 0.000000 0.000000 0.000000 0.025369 0.000000
# 6 0.000000 0.000000 0.000000 0.000000 0.000000 0.032451
#
#
# Mechanical properties :
#
#
# Convention : Reuss Voigt Hill
#
# Bulk Modulus (GPa) = 41.76924 49.71511 45.74217
# Shear Modulus (GPa) = 20.06642 29.74564 24.90603
#
# Velocity S-wave (km/s) = 3.09772 3.77154 3.45111
# Velocity P-wave (km/s) = 5.72439 6.53758 6.14445
#
# Compressibility (1/GPa) = 0.02394106
#
# Stress axis : x y z
#
# Youngs Moduli (GPa) = 69.26697 46.42031 131.92920
#
# Poissons Ratio (x) = 0.20688 0.16309
# Poissons Ratio (y) = 0.30870 0.54304
# Poissons Ratio (z) = 0.08563 0.19107
#
# Static dielectric constant tensor:
#      x y z
#    x 1.764240 0.000000 0.000000 
#    y 0.000000 1.855490 0.000000 
#    z 0.000000 0.000000 1.762300 
# 
# From -- ./inp_files/35491.got.cif
#   From: 2010.05.17/outbox.cif.g08.bks.cpg/sg24_18_cif.got.tgz:35491.got - 2010.06.04 00:33:39.
