data_PCOD9333036
_publ_section_title
;
Structure prediction by ZEFSAII (Michael W. Deem and Ramdas Pophale) SiO2 
 PCOD9333036
Probable space group: I 21 21 21
;
_chemical_formula_sum "Si O2"
_cell_formula_units_Z 64
_cell_length_a 18.179096
_cell_length_b 16.425726
_cell_length_c 13.932806
_cell_angle_alpha 90.000000
_cell_angle_beta 90.000000
_cell_angle_gamma 90.000000
_cell_volume 4160.403443
_symmetry_space_group_name_H-M "I 21 21 21"
_symmetry_group_IT_number 24
_symmetry_cell_setting 'orthorhombic'
loop_
_space_group_symop_operation_xyz
x,y,z
-x,1/2-y,z
x,-y,1/2-z
1/2-x,y,-z
1/2+x,1/2+y,1/2+z
1/2-x,-y,1/2+z
1/2+x,1/2-y,-z
-x,1/2+y,1/2-z
loop_
_atom_site_type_symbol
_atom_site_label
_atom_site_fract_x
_atom_site_fract_y
_atom_site_fract_z
Si Si1 0.562206 0.616135 0.628913
Si Si2 0.689345 0.189962 0.927790
Si Si3 0.902223 0.913768 0.292008
Si Si4 0.216653 0.029555 0.105571
Si Si5 0.711901 0.680569 0.306245
Si Si6 0.581911 0.255832 0.695668
Si Si7 0.275472 0.165534 0.607418
Si Si8 0.423550 0.212493 0.059923
O O1 0.485051 0.580767 0.665493
O O2 0.632790 0.557227 0.626757
O O3 0.576119 0.691641 0.703966
O O4 0.555368 0.643863 0.518323
O O5 0.655037 0.116802 0.869996
O O6 0.730854 0.259799 0.863910
O O7 0.750000 0.158830 0.000000
O O8 0.624446 0.229127 0.990777
O O9 0.899722 0.837464 0.219301
O O10 0.882240 0.000000 0.250000
O O11 0.263347 0.087786 0.174608
O O12 0.222105 0.932837 0.114028
O O13 0.250000 0.051330 0.000000
O O14 0.722235 0.696157 0.193331
O O15 0.632116 0.690680 0.354420
O O16 0.500000 0.250000 0.653271
O O17 0.644252 0.298633 0.632986
O O18 0.250000 0.186953 0.500000
O O19 0.500000 0.250000 0.094514
#
# Coordination Sequence:
#
# PCOD9333036 Si02
#       8
#     8   8   8   8   8   8   8   8
#     4  11  18  30  51  81 118 133 160 209 273 334
#     4  10  18  32  53  76 106 134 168 219 270 313
#     4  11  21  31  51  80 107 137 174 216 268 318
#     4  11  19  30  50  84 111 137 163 207 270 321
#     4  11  19  32  52  77 107 139 174 218 263 311
#     4  10  20  35  50  74 107 142 169 213 268 317
#     4  11  23  35  52  74 108 147 185 215 254 317
#     4  11  17  30  53  79 109 141 164 206 267 329
#
# _framework density 15.383122999999999
#
# number of rings (size 3 to 8) (size 9 to 14) (size 15 to 20)
#    0.000    1.250    7.500    1.125    3.500    0.000 
#    0.000    1.250    0.000    0.000    0.000    7.000 
#    0.000    0.000    0.000    0.000    0.000    0.000 
#
# Total GULP energy -178231.973521 kJ/mol
# GULP energy per Si atom -5569.749173 kJ/mol
# Density = 1.534811 g / cm^3
# Si number density = 15.383123 Si / 1000 Ang^3
#
#
#
# Elastic Constant Matrix: (Units=GPa)
#
#
# Indices 1 2 3 4 5 6 
#
# 1 99.3053 28.1595 49.9625 0.0000 0.0000 0.0000
# 2 28.1595 67.1350 34.7415 0.0000 0.0000 0.0000
# 3 49.9625 34.7415 99.2350 0.0000 0.0000 0.0000
# 4 0.0000 0.0000 0.0000 22.5552 0.0000 0.0000
# 5 0.0000 0.0000 0.0000 0.0000 23.0865 0.0000
# 6 0.0000 0.0000 0.0000 0.0000 0.0000 8.3204
#
#
#
# Elastic Compliance Matrix: (Units=1/GPa)
#
#
# Indices 1 2 3 4 5 6 
#
# 1 0.013873 -0.002692 -0.006042 0.000000 0.000000 0.000000
# 2 -0.002692 0.018713 -0.005196 0.000000 0.000000 0.000000
# 3 -0.006042 -0.005196 0.014938 0.000000 0.000000 0.000000
# 4 0.000000 0.000000 0.000000 0.044336 0.000000 0.000000
# 5 0.000000 0.000000 0.000000 0.000000 0.043315 0.000000
# 6 0.000000 0.000000 0.000000 0.000000 0.000000 0.120186
#
#
# Mechanical properties :
#
#
# Convention : Reuss Voigt Hill
#
# Bulk Modulus (GPa) = 50.85436 54.60024 52.72730
# Shear Modulus (GPa) = 17.25459 20.97991 19.11725
#
# Velocity S-wave (km/s) = 3.35275 3.69701 3.52908
# Velocity P-wave (km/s) = 6.93673 7.33447 7.13837
#
# Compressibility (1/GPa) = 0.01966400
#
# Stress axis : x y z
#
# Youngs Moduli (GPa) = 72.08017 53.43744 66.94176
#
# Poissons Ratio (x) = 0.14387 0.40449
# Poissons Ratio (y) = 0.19406 0.34783
# Poissons Ratio (z) = 0.43554 0.27766
#
# Static dielectric constant tensor:
#      x y z
#    x 1.520080 0.000000 0.000000 
#    y 0.000000 1.507570 0.000000 
#    z 0.000000 0.000000 1.542180 
# 
# From -- ./inp_files/27278.got.cif
#   From: 2010.05.17/outbox.cif.g08.bks.cpg/sg24_14_cif.got.tgz:27278.got - 2010.06.04 00:33:39.
