data_PCOD9333206
_publ_section_title
;
Structure prediction by ZEFSAII (Michael W. Deem and Ramdas Pophale) SiO2 
 PCOD9333206
Probable space group: I 21 21 21
;
_chemical_formula_sum "Si O2"
_cell_formula_units_Z 48
_cell_length_a 8.784336
_cell_length_b 15.423529
_cell_length_c 19.183401
_cell_angle_alpha 90.000000
_cell_angle_beta 90.000000
_cell_angle_gamma 90.000000
_cell_volume 2599.071929
_symmetry_space_group_name_H-M "I 21 21 21"
_symmetry_group_IT_number 24
_symmetry_cell_setting 'orthorhombic'
loop_
_space_group_symop_operation_xyz
x,y,z
-x,1/2-y,z
x,-y,1/2-z
1/2-x,y,-z
1/2+x,1/2+y,1/2+z
1/2-x,-y,1/2+z
1/2+x,1/2-y,-z
-x,1/2+y,1/2-z
loop_
_atom_site_type_symbol
_atom_site_label
_atom_site_fract_x
_atom_site_fract_y
_atom_site_fract_z
Si Si1 0.111458 0.333446 0.552960
Si Si2 0.875656 0.481439 0.559477
Si Si3 0.896808 0.836745 0.785941
Si Si4 0.322939 0.762192 0.704447
Si Si5 0.794853 0.581869 0.790198
Si Si6 0.139009 0.182438 0.933033
O O1 0.250000 0.323339 0.500000
O O2 0.158987 0.341563 0.634370
O O3 0.000000 0.250000 0.548037
O O4 0.016217 0.420768 0.538282
O O5 0.750000 0.480675 0.500000
O O6 0.802613 0.437400 0.628129
O O7 0.915553 0.582266 0.572816
O O8 0.760446 0.824424 0.732314
O O9 0.000000 0.750000 0.781009
O O10 0.026353 0.906711 0.770087
O O11 0.500000 0.750000 0.691006
O O12 0.294952 0.833354 0.765362
O O13 0.235097 0.795432 0.636214
O O14 0.729415 0.500000 0.750000
O O15 0.000000 0.250000 0.938597
O O16 0.250000 0.189531 0.000000
#
# Coordination Sequence:
#
# PCOD9333206 Si02
#       6
#     8   8   8   8   8   8
#     4  10  20  35  58  89 121 158 191 234 296 359
#     4  10  22  38  60  88 118 155 199 241 294 359
#     4   8  18  34  54  81 109 148 195 230 278 354
#     4  11  22  37  59  89 118 151 197 250 296 352
#     4  10  18  36  61  79 110 156 193 237 297 347
#     4  11  23  41  64  85 116 161 204 252 299 348
#
# _framework density 18.468131
#
# number of rings (size 3 to 8) (size 9 to 14) (size 15 to 20)
#    0.000    2.000    1.667    3.500    0.000    2.667 
#    0.000    0.833    0.000    0.000    0.000    0.000 
#    0.000    0.000    0.000    0.000    0.000    0.000 
#
# Total GULP energy -133842.679063 kJ/mol
# GULP energy per Si atom -5576.778294 kJ/mol
# Density = 1.842610 g / cm^3
# Si number density = 18.468131 Si / 1000 Ang^3
#
#
#
# Elastic Constant Matrix: (Units=GPa)
#
#
# Indices 1 2 3 4 5 6 
#
# 1 87.9493 49.0814 39.0191 0.0000 0.0000 0.0000
# 2 49.0814 109.1885 36.4599 0.0000 0.0000 0.0000
# 3 39.0191 36.4599 61.0319 0.0000 0.0000 0.0000
# 4 0.0000 0.0000 0.0000 3.1927 0.0000 0.0000
# 5 0.0000 0.0000 0.0000 0.0000 27.5722 0.0000
# 6 0.0000 0.0000 0.0000 0.0000 0.0000 22.4300
#
#
#
# Elastic Compliance Matrix: (Units=1/GPa)
#
#
# Indices 1 2 3 4 5 6 
#
# 1 0.018049 -0.005322 -0.008360 0.000000 0.000000 0.000000
# 2 -0.005322 0.013010 -0.004370 0.000000 0.000000 0.000000
# 3 -0.008360 -0.004370 0.024340 0.000000 0.000000 0.000000
# 4 0.000000 0.000000 0.000000 0.313217 0.000000 0.000000
# 5 0.000000 0.000000 0.000000 0.000000 0.036268 0.000000
# 6 0.000000 0.000000 0.000000 0.000000 0.000000 0.044583
#
#
# Mechanical properties :
#
#
# Convention : Reuss Voigt Hill
#
# Bulk Modulus (GPa) = 51.82397 56.36560 54.09478
# Shear Modulus (GPa) = 10.16256 19.54627 14.85442
#
# Velocity S-wave (km/s) = 2.34834 3.25680 2.83914
# Velocity P-wave (km/s) = 5.95610 6.68798 6.33262
#
# Compressibility (1/GPa) = 0.01929609
#
# Stress axis : x y z
#
# Youngs Moduli (GPa) = 55.40493 76.86574 41.08467
#
# Poissons Ratio (x) = 0.40905 0.34347
# Poissons Ratio (y) = 0.29485 0.17952
# Poissons Ratio (z) = 0.46318 0.33588
#
# Static dielectric constant tensor:
#      x y z
#    x 1.632410 0.000000 0.000000 
#    y 0.000000 1.682350 0.000000 
#    z 0.000000 0.000000 1.642510 
# 
# From -- ./inp_files/29459.got.cif
#   From: 2010.05.17/outbox.cif.g08.bks.cpg/sg24_15_cif.got.tgz:29459.got - 2010.06.04 00:33:39.
