data_PCOD9333253
_publ_section_title
;
Structure prediction by ZEFSAII (Michael W. Deem and Ramdas Pophale) SiO2 
 PCOD9333253
Probable space group: I 21 21 21
;
_chemical_formula_sum "Si O2"
_cell_formula_units_Z 40
_cell_length_a 17.992448
_cell_length_b 13.114021
_cell_length_c 6.473164
_cell_angle_alpha 90.000000
_cell_angle_beta 90.000000
_cell_angle_gamma 90.000000
_cell_volume 1527.364672
_symmetry_space_group_name_H-M "I 21 21 21"
_symmetry_group_IT_number 24
_symmetry_cell_setting 'orthorhombic'
loop_
_space_group_symop_operation_xyz
x,y,z
-x,1/2-y,z
x,-y,1/2-z
1/2-x,y,-z
1/2+x,1/2+y,1/2+z
1/2-x,-y,1/2+z
1/2+x,1/2-y,-z
-x,1/2+y,1/2-z
loop_
_atom_site_type_symbol
_atom_site_label
_atom_site_fract_x
_atom_site_fract_y
_atom_site_fract_z
Si Si1 0.817670 0.846918 0.662817
Si Si2 0.828427 0.313160 0.499170
Si Si3 0.652066 0.902247 0.885442
Si Si4 0.481349 0.917547 0.969522
Si Si5 0.517688 0.136282 0.055213
O O1 0.750000 0.851039 0.500000
O O2 0.835907 0.736100 0.770177
O O3 0.893769 0.877380 0.548695
O O4 0.819264 0.086355 0.623670
O O5 0.750000 0.371326 0.500000
O O6 0.818055 0.213147 0.352514
O O7 0.901857 0.368776 0.424397
O O8 0.671954 0.000000 0.750000
O O9 0.562381 0.888600 0.880301
O O10 0.494869 0.879994 0.206233
O O11 0.477731 0.040112 0.952287
O O12 0.500000 0.250000 0.984607
#
# Coordination Sequence:
#
# PCOD9333253 Si02
#       5
#     8   8   8   8   8
#     4   9  20  39  69 110 155 195 267 350 425 483
#     4  10  21  40  70 106 159 206 265 343 420 489
#     4   9  20  40  69 105 147 204 282 334 417 490
#     4  10  19  38  72 102 144 216 277 330 405 495
#     4  10  18  37  71 102 143 209 275 334 400 492
#
# _framework density 26.188898999999999
#
# number of rings (size 3 to 8) (size 9 to 14) (size 15 to 20)
#    1.200    1.200    2.000    0.600    0.000    1.600 
#    0.000    8.000    4.400    0.000    0.000    0.000 
#    0.000    0.000    0.000    0.000    0.000    0.800 
#
# Total GULP energy -111720.987253 kJ/mol
# GULP energy per Si atom -5586.049363 kJ/mol
# Density = 2.612929 g / cm^3
# Si number density = 26.188899 Si / 1000 Ang^3
#
#
#
# Elastic Constant Matrix: (Units=GPa)
#
#
# Indices 1 2 3 4 5 6 
#
# 1 223.3945 88.8803 75.3420 0.0000 0.0000 0.0000
# 2 88.8803 153.3306 50.2881 0.0000 0.0000 0.0000
# 3 75.3420 50.2881 127.2214 0.0000 0.0000 0.0000
# 4 0.0000 0.0000 0.0000 30.6956 0.0000 0.0000
# 5 0.0000 0.0000 0.0000 0.0000 45.2811 0.0000
# 6 0.0000 0.0000 0.0000 0.0000 0.0000 47.3956
#
#
#
# Elastic Compliance Matrix: (Units=1/GPa)
#
#
# Indices 1 2 3 4 5 6 
#
# 1 0.006553 -0.002902 -0.002734 0.000000 0.000000 0.000000
# 2 -0.002902 0.008778 -0.001751 0.000000 0.000000 0.000000
# 3 -0.002734 -0.001751 0.010171 0.000000 0.000000 0.000000
# 4 0.000000 0.000000 0.000000 0.032578 0.000000 0.000000
# 5 0.000000 0.000000 0.000000 0.000000 0.022084 0.000000
# 6 0.000000 0.000000 0.000000 0.000000 0.000000 0.021099
#
#
# Mechanical properties :
#
#
# Convention : Reuss Voigt Hill
#
# Bulk Modulus (GPa) = 93.20600 103.66305 98.43453
# Shear Modulus (GPa) = 41.80109 43.97022 42.88566
#
# Velocity S-wave (km/s) = 3.99950 4.10196 4.05106
# Velocity P-wave (km/s) = 7.54952 7.88058 7.71682
#
# Compressibility (1/GPa) = 0.01072892
#
# Stress axis : x y z
#
# Youngs Moduli (GPa) = 152.60420 113.91593 98.31410
#
# Poissons Ratio (x) = 0.33058 0.26875
# Poissons Ratio (y) = 0.44285 0.17218
# Poissons Ratio (z) = 0.41716 0.19951
#
# Static dielectric constant tensor:
#      x y z
#    x 2.054080 0.000000 0.000000 
#    y 0.000000 2.030130 0.000000 
#    z 0.000000 0.000000 2.276570 
# 
# From -- ./inp_files/13999.got.cif
#   From: 2010.05.17/outbox.cif.g08.bks.cpg/sg24_7_cif.got.tgz:13999.got - 2010.06.04 00:33:39.
