data_PCOD9333167
_publ_section_title
;
Structure prediction by ZEFSAII (Michael W. Deem and Ramdas Pophale) SiO2 
 PCOD9333167
Probable space group: I 21 21 21
;
_chemical_formula_sum "Si O2"
_cell_formula_units_Z 40
_cell_length_a 5.295268
_cell_length_b 20.052686
_cell_length_c 16.306810
_cell_angle_alpha 90.000000
_cell_angle_beta 90.000000
_cell_angle_gamma 90.000000
_cell_volume 1731.527963
_symmetry_space_group_name_H-M "I 21 21 21"
_symmetry_group_IT_number 24
_symmetry_cell_setting 'orthorhombic'
loop_
_space_group_symop_operation_xyz
x,y,z
-x,1/2-y,z
x,-y,1/2-z
1/2-x,y,-z
1/2+x,1/2+y,1/2+z
1/2-x,-y,1/2+z
1/2+x,1/2-y,-z
-x,1/2+y,1/2-z
loop_
_atom_site_type_symbol
_atom_site_label
_atom_site_fract_x
_atom_site_fract_y
_atom_site_fract_z
Si Si1 0.152930 0.027914 0.409543
Si Si2 0.748868 0.796151 0.089089
Si Si3 0.857517 0.971126 0.839511
Si Si4 0.689705 0.904287 0.588830
Si Si5 0.748798 0.794569 0.272632
O O1 0.250000 0.045052 0.500000
O O2 0.361302 0.056075 0.346231
O O3 0.885948 0.060020 0.382865
O O4 0.064590 0.949542 0.405907
O O5 0.500000 0.750000 0.084338
O O6 0.723957 0.824955 0.181331
O O7 0.000000 0.750000 0.091816
O O8 0.750000 0.832053 0.000000
O O9 0.894168 0.037303 0.896570
O O10 0.793463 0.000000 0.750000
O O11 0.750000 0.874979 0.500000
O O12 0.716016 0.851439 0.660098
O O13 0.500000 0.750000 0.288472
O O14 0.000000 0.750000 0.275213
#
# Coordination Sequence:
#
# PCOD9333167 Si02
#       5
#     8   8   8   8   8
#     4  10  18  35  55  81 108 146 191 229 283 357
#     4   8  14  28  48  68  91 126 172 224 277 324
#     4  10  20  34  57  84 104 139 194 244 289 344
#     4  10  22  36  56  79 116 156 197 228 286 344
#     4  10  22  34  51  81 113 150 197 240 277 327
#
# _framework density 23.100981999999998
#
# number of rings (size 3 to 8) (size 9 to 14) (size 15 to 20)
#    1.200    1.200    2.000    1.200    2.800    0.800 
#    0.000    0.000    0.000    3.600    0.000    5.600 
#    0.000    0.000    0.000    0.000    0.000    0.000 
#
# Total GULP energy -111366.322955 kJ/mol
# GULP energy per Si atom -5568.316148 kJ/mol
# Density = 2.304840 g / cm^3
# Si number density = 23.100982 Si / 1000 Ang^3
#
#
#
# Elastic Constant Matrix: (Units=GPa)
#
#
# Indices 1 2 3 4 5 6 
#
# 1 197.8095 36.1503 33.0862 0.0000 0.0000 0.0000
# 2 36.1503 43.2497 18.2626 0.0000 0.0000 0.0000
# 3 33.0862 18.2626 155.0855 0.0000 0.0000 0.0000
# 4 0.0000 0.0000 0.0000 38.9796 0.0000 0.0000
# 5 0.0000 0.0000 0.0000 0.0000 24.5737 0.0000
# 6 0.0000 0.0000 0.0000 0.0000 0.0000 14.6700
#
#
#
# Elastic Compliance Matrix: (Units=1/GPa)
#
#
# Indices 1 2 3 4 5 6 
#
# 1 0.006045 -0.004744 -0.000731 0.000000 0.000000 0.000000
# 2 -0.004744 0.028054 -0.002292 0.000000 0.000000 0.000000
# 3 -0.000731 -0.002292 0.006874 0.000000 0.000000 0.000000
# 4 0.000000 0.000000 0.000000 0.025654 0.000000 0.000000
# 5 0.000000 0.000000 0.000000 0.000000 0.040694 0.000000
# 6 0.000000 0.000000 0.000000 0.000000 0.000000 0.068166
#
#
# Mechanical properties :
#
#
# Convention : Reuss Voigt Hill
#
# Bulk Modulus (GPa) = 39.30794 63.46033 51.38413
# Shear Modulus (GPa) = 25.06271 36.22105 30.64188
#
# Velocity S-wave (km/s) = 3.29739 3.96402 3.64597
# Velocity P-wave (km/s) = 5.61691 6.96289 6.32580
#
# Compressibility (1/GPa) = 0.02544015
#
# Stress axis : x y z
#
# Youngs Moduli (GPa) = 165.43808 35.64525 145.47888
#
# Poissons Ratio (x) = 0.16909 0.10634
# Poissons Ratio (y) = 0.78479 0.33338
# Poissons Ratio (z) = 0.12093 0.08168
#
# Static dielectric constant tensor:
#      x y z
#    x 2.039580 0.000000 0.000000 
#    y 0.000000 1.984650 0.000000 
#    z 0.000000 0.000000 1.891380 
# 
# From -- ./inp_files/23802.got.cif
#   From: 2010.05.17/outbox.cif.g08.bks.cpg/sg24_12_cif.got.tgz:23802.got - 2010.06.04 00:33:39.
