data_PCOD9333342
_publ_section_title
;
Structure prediction by ZEFSAII (Michael W. Deem and Ramdas Pophale) SiO2 
 PCOD9333342
Probable space group: I 21 21 21
;
_chemical_formula_sum "Si O2"
_cell_formula_units_Z 40
_cell_length_a 9.656909
_cell_length_b 17.677559
_cell_length_c 9.616714
_cell_angle_alpha 90.000000
_cell_angle_beta 90.000000
_cell_angle_gamma 90.000000
_cell_volume 1641.674811
_symmetry_space_group_name_H-M "I 21 21 21"
_symmetry_group_IT_number 24
_symmetry_cell_setting 'orthorhombic'
loop_
_space_group_symop_operation_xyz
x,y,z
-x,1/2-y,z
x,-y,1/2-z
1/2-x,y,-z
1/2+x,1/2+y,1/2+z
1/2-x,-y,1/2+z
1/2+x,1/2-y,-z
-x,1/2+y,1/2-z
loop_
_atom_site_type_symbol
_atom_site_label
_atom_site_fract_x
_atom_site_fract_y
_atom_site_fract_z
Si Si1 0.613998 0.602158 0.337495
Si Si2 0.370959 0.581748 0.795428
Si Si3 0.911308 0.558896 0.956094
Si Si4 0.601588 0.348561 0.877590
Si Si5 0.339412 0.259947 0.626116
O O1 0.569374 0.612255 0.179607
O O2 0.554111 0.524824 0.398544
O O3 0.595286 0.664870 0.457519
O O4 0.780327 0.589684 0.343121
O O5 0.312618 0.500000 0.750000
O O6 0.456748 0.617460 0.668410
O O7 0.285651 0.654433 0.846992
O O8 0.486249 0.572076 0.916379
O O9 0.750000 0.562283 0.000000
O O10 0.652787 0.282503 0.774889
O O11 0.500000 0.250000 0.581001
O O12 0.250000 0.227717 0.500000
#
# Coordination Sequence:
#
# PCOD9333342 Si02
#       5
#     8   8   8   8   8
#     4  10  19  29  56  90 137 164 206 286 334 386
#     4  11  20  37  66  90 127 178 223 272 332 418
#     4  11  18  29  55  98 134 162 214 273 343 385
#     4  10  19  34  57  94 130 165 219 275 345 386
#     4  10  25  43  71  96 131 183 231 279 342 413
#
# _framework density 24.365361
#
# number of rings (size 3 to 8) (size 9 to 14) (size 15 to 20)
#    0.000    1.600    6.000    0.000    5.600    0.000 
#    0.000    0.000   35.200    0.000    0.000    0.000 
#    0.000    0.000    0.000    0.000    0.000    0.000 
#
# Total GULP energy -111527.882697 kJ/mol
# GULP energy per Si atom -5576.394135 kJ/mol
# Density = 2.430990 g / cm^3
# Si number density = 24.365361 Si / 1000 Ang^3
#
#
#
# Elastic Constant Matrix: (Units=GPa)
#
#
# Indices 1 2 3 4 5 6 
#
# 1 25.5868 -4.0171 28.8065 0.0000 0.0000 0.0000
# 2 -4.0171 140.6876 45.0802 0.0002 0.0001 0.0000
# 3 28.8065 45.0802 183.2754 0.0005 0.0000 0.0000
# 4 0.0000 0.0002 0.0005 31.9122 0.0000 0.0000
# 5 0.0000 0.0001 0.0000 0.0000 14.3078 0.0000
# 6 0.0000 0.0000 0.0000 0.0000 0.0000 9.2796
#
#
#
# Elastic Compliance Matrix: (Units=1/GPa)
#
#
# Indices 1 2 3 4 5 6 
#
# 1 0.049731 0.004260 -0.008865 0.000000 0.000000 0.000000
# 2 0.004260 0.008081 -0.002657 0.000000 0.000000 0.000000
# 3 -0.008865 -0.002657 0.007503 0.000000 0.000000 0.000000
# 4 0.000000 0.000000 0.000000 0.031336 0.000000 0.000000
# 5 0.000000 0.000000 0.000000 0.000000 0.069892 0.000000
# 6 0.000000 0.000000 0.000000 0.000000 0.000000 0.107763
#
#
# Mechanical properties :
#
#
# Convention : Reuss Voigt Hill
#
# Bulk Modulus (GPa) = 19.68782 54.36545 37.02664
# Shear Modulus (GPa) = 16.35265 29.74527 23.04896
#
# Velocity S-wave (km/s) = 2.59345 3.49779 3.07900
# Velocity P-wave (km/s) = 4.13108 6.21882 5.27918
#
# Compressibility (1/GPa) = 0.05079282
#
# Stress axis : x y z
#
# Youngs Moduli (GPa) = 20.10801 123.74588 133.27679
#
# Poissons Ratio (x) = -0.52721 1.18143
# Poissons Ratio (y) = -0.08567 0.35416
# Poissons Ratio (z) = 0.17825 0.32883
#
# Static dielectric constant tensor:
#      x y z
#    x 1.952710 0.000000 0.000000 
#    y 0.000000 2.076060 0.000000 
#    z 0.000000 0.000000 1.997060 
# 
# From -- ./inp_files/10712.got.cif
#   From: 2010.05.17/outbox.cif.g08.bks.cpg/sg24_6_cif.got.tgz:10712.got - 2010.06.04 00:33:39.
