data_PCOD9333994
_publ_section_title
;
Structure prediction by ZEFSAII (Michael W. Deem and Ramdas Pophale) SiO2 
 PCOD9333994
Probable space group: I 21 21 21
;
_chemical_formula_sum "Si O2"
_cell_formula_units_Z 48
_cell_length_a 12.214625
_cell_length_b 8.831497
_cell_length_c 22.210523
_cell_angle_alpha 90.000000
_cell_angle_beta 90.000000
_cell_angle_gamma 90.000000
_cell_volume 2395.925166
_symmetry_space_group_name_H-M "I 21 21 21"
_symmetry_group_IT_number 24
_symmetry_cell_setting 'orthorhombic'
loop_
_space_group_symop_operation_xyz
x,y,z
-x,1/2-y,z
x,-y,1/2-z
1/2-x,y,-z
1/2+x,1/2+y,1/2+z
1/2-x,-y,1/2+z
1/2+x,1/2-y,-z
-x,1/2+y,1/2-z
loop_
_atom_site_type_symbol
_atom_site_label
_atom_site_fract_x
_atom_site_fract_y
_atom_site_fract_z
Si Si1 0.664384 0.496140 0.812172
Si Si2 0.500000 0.250000 0.833988
Si Si3 0.792805 0.945735 0.373094
Si Si4 0.500000 0.750000 0.300555
Si Si5 0.161729 0.500000 0.750000
Si Si6 0.873814 0.735461 0.092295
Si Si7 0.250000 0.979963 0.000000
Si Si8 0.165212 0.164347 0.897511
O O1 0.729336 0.500000 0.750000
O O2 0.564545 0.381218 0.798853
O O3 0.632518 0.654435 0.841991
O O4 0.735284 0.413249 0.862111
O O5 0.405609 0.347566 0.868056
O O6 0.741450 0.990979 0.308019
O O7 0.701137 0.839081 0.403359
O O8 0.818889 0.101132 0.405891
O O9 0.418557 0.645676 0.260726
O O10 0.567769 0.649928 0.349378
O O11 0.000000 0.750000 0.076278
O O12 0.814529 0.626982 0.045454
O O13 0.165201 0.083602 0.961885
#
# Coordination Sequence:
#
# PCOD9333994 Si02
#       8
#     8   4   8   4   4   8   4   8
#     4  10  22  33  61  92 129 166 201 259 321 397
#     4  10  20  34  55  88 138 169 196 246 328 392
#     4  10  22  39  62  99 130 167 209 265 322 404
#     4  10  22  42  65  94 126 175 210 260 314 384
#     4  10  24  40  66  98 138 164 216 256 324 400
#     4  11  23  42  64  96 127 166 214 270 325 380
#     4  10  24  48  64  88 130 162 222 278 314 376
#     4   9  22  44  62  89 125 171 218 257 323 381
#
# _framework density 20.034013999999999
#
# number of rings (size 3 to 8) (size 9 to 14) (size 15 to 20)
#    0.000    2.000    1.667    0.000   10.500    2.000 
#    9.000    0.000    0.000    0.000    0.000    0.000 
#    0.000    0.000    0.000    0.000    0.000    0.000 
#
# Total GULP energy -133653.507296 kJ/mol
# GULP energy per Si atom -5568.896137 kJ/mol
# Density = 1.998842 g / cm^3
# Si number density = 20.034014 Si / 1000 Ang^3
#
#
#
# Elastic Constant Matrix: (Units=GPa)
#
#
# Indices 1 2 3 4 5 6 
#
# 1 64.4462 24.7872 19.6105 0.0000 0.0000 0.0000
# 2 24.7872 115.0401 50.5372 0.0000 0.0000 0.0000
# 3 19.6105 50.5372 86.5094 0.0000 0.0000 0.0000
# 4 0.0000 0.0000 0.0000 18.7622 0.0000 0.0000
# 5 0.0000 0.0000 0.0000 0.0000 0.0553 0.0000
# 6 0.0000 0.0000 0.0000 0.0000 0.0000 16.9931
#
#
#
# Elastic Compliance Matrix: (Units=1/GPa)
#
#
# Indices 1 2 3 4 5 6 
#
# 1 0.017264 -0.002691 -0.002341 0.000000 0.000000 0.000000
# 2 -0.002691 0.012113 -0.006466 0.000000 0.000000 0.000000
# 3 -0.002341 -0.006466 0.015868 0.000000 0.000000 0.000000
# 4 0.000000 0.000000 0.000000 0.053299 0.000000 0.000000
# 5 0.000000 0.000000 0.000000 0.000000 18.094977 0.000000
# 6 0.000000 0.000000 0.000000 0.000000 0.000000 0.058847
#
#
# Mechanical properties :
#
#
# Convention : Reuss Voigt Hill
#
# Bulk Modulus (GPa) = 44.94912 50.65175 47.80043
# Shear Modulus (GPa) = 0.27348 18.56617 9.41982
#
# Velocity S-wave (km/s) = 0.36987 3.04753 2.17074
# Velocity P-wave (km/s) = 4.76104 6.14174 5.49493
#
# Compressibility (1/GPa) = 0.02224738
#
# Stress axis : x y z
#
# Youngs Moduli (GPa) = 57.92260 82.55527 63.02147
#
# Poissons Ratio (x) = 0.22218 0.14756
# Poissons Ratio (y) = 0.15589 0.40751
# Poissons Ratio (z) = 0.13562 0.53382
#
# Static dielectric constant tensor:
#      x y z
#    x 1.766490 0.000000 0.000000 
#    y 0.000000 1.743950 0.000000 
#    z 0.000000 0.000000 1.748980 
# 
# From -- ./inp_files/37148.got.cif
#   From: 2010.05.17/outbox.cif.g08.bks.cpg/sg24_19_cif.got.tgz:37148.got - 2010.06.04 00:33:39.
