data_PCOD9333881
_publ_section_title
;
Structure prediction by ZEFSAII (Michael W. Deem and Ramdas Pophale) SiO2 
 PCOD9333881
Probable space group: I 21 21 21
;
_chemical_formula_sum "Si O2"
_cell_formula_units_Z 48
_cell_length_a 14.565689
_cell_length_b 17.233892
_cell_length_c 7.295772
_cell_angle_alpha 90.000000
_cell_angle_beta 90.000000
_cell_angle_gamma 90.000000
_cell_volume 1831.410304
_symmetry_space_group_name_H-M "I 21 21 21"
_symmetry_group_IT_number 24
_symmetry_cell_setting 'orthorhombic'
loop_
_space_group_symop_operation_xyz
x,y,z
-x,1/2-y,z
x,-y,1/2-z
1/2-x,y,-z
1/2+x,1/2+y,1/2+z
1/2-x,-y,1/2+z
1/2+x,1/2-y,-z
-x,1/2+y,1/2-z
loop_
_atom_site_type_symbol
_atom_site_label
_atom_site_fract_x
_atom_site_fract_y
_atom_site_fract_z
Si Si1 0.404266 0.839734 0.872271
Si Si2 0.647061 0.414683 0.285965
Si Si3 0.393908 0.783964 0.476302
Si Si4 0.670621 0.120192 0.870742
Si Si5 0.883362 0.168238 0.492219
Si Si6 0.433426 0.421048 0.173237
O O1 0.399558 0.839324 0.654810
O O2 0.366478 0.758002 0.951731
O O3 0.511440 0.843147 0.926435
O O4 0.353551 0.902220 0.995752
O O5 0.688308 0.500000 0.250000
O O6 0.539998 0.418813 0.221316
O O7 0.664420 0.333210 0.174658
O O8 0.500000 0.750000 0.430123
O O9 0.344989 0.708659 0.561832
O O10 0.675581 0.119305 0.653556
O O11 0.750000 0.087745 0.000000
O O12 0.581474 0.079907 0.957221
O O13 0.883527 0.145162 0.704292
O O14 0.394195 0.500000 0.250000
#
# Coordination Sequence:
#
# PCOD9333881 Si02
#       6
#     8   8   8   8   8   8
#     4   9  16  30  54  80 104 134 170 211 263 313
#     4  10  20  31  54  86 109 132 171 223 274 324
#     4  11  18  34  58  76 103 140 175 222 271 310
#     4  11  22  36  52  78 103 137 187 225 258 317
#     4   9  17  32  53  75 101 136 176 215 254 306
#     4  10  20  34  50  74 110 145 175 214 264 315
#
# _framework density 26.209309000000001
#
# number of rings (size 3 to 8) (size 9 to 14) (size 15 to 20)
#    0.000    2.000    5.000    1.000    2.333    2.000 
#    3.000    5.000    0.000    0.000    8.667    0.000 
#    0.000    0.000    0.000    0.000    0.000    0.000 
#
# Total GULP energy -133892.291717 kJ/mol
# GULP energy per Si atom -5578.845488 kJ/mol
# Density = 2.614966 g / cm^3
# Si number density = 26.209309 Si / 1000 Ang^3
#
#
#
# Elastic Constant Matrix: (Units=GPa)
#
#
# Indices 1 2 3 4 5 6 
#
# 1 68.1080 -11.1701 -2.9902 0.0000 0.0000 0.0000
# 2 -11.1701 59.3086 10.1402 0.0000 0.0000 0.0000
# 3 -2.9902 10.1402 146.2370 0.0000 0.0000 0.0000
# 4 0.0000 0.0000 0.0000 30.5853 0.0000 0.0000
# 5 0.0000 0.0000 0.0000 0.0000 12.0427 0.0000
# 6 0.0000 0.0000 0.0000 0.0000 0.0000 7.8116
#
#
#
# Elastic Compliance Matrix: (Units=1/GPa)
#
#
# Indices 1 2 3 4 5 6 
#
# 1 0.015152 0.002834 0.000113 0.000000 0.000000 0.000000
# 2 0.002834 0.017593 -0.001162 0.000000 0.000000 0.000000
# 3 0.000113 -0.001162 0.006921 0.000000 0.000000 0.000000
# 4 0.000000 0.000000 0.000000 0.032695 0.000000 0.000000
# 5 0.000000 0.000000 0.000000 0.000000 0.083038 0.000000
# 6 0.000000 0.000000 0.000000 0.000000 0.000000 0.128015
#
#
# Mechanical properties :
#
#
# Convention : Reuss Voigt Hill
#
# Bulk Modulus (GPa) = 23.12761 29.51261 26.32011
# Shear Modulus (GPa) = 16.99194 28.59948 22.79571
#
# Velocity S-wave (km/s) = 2.54897 3.30691 2.95236
# Velocity P-wave (km/s) = 4.18406 5.08583 4.65682
#
# Compressibility (1/GPa) = 0.04323836
#
# Stress axis : x y z
#
# Youngs Moduli (GPa) = 65.99618 56.83931 144.48565
#
# Poissons Ratio (x) = -0.16111 -0.01637
# Poissons Ratio (y) = -0.18706 0.16789
# Poissons Ratio (z) = -0.00748 0.06605
#
# Static dielectric constant tensor:
#      x y z
#    x 2.208050 0.000000 0.000000 
#    y 0.000000 2.189710 0.000000 
#    z 0.000000 0.000000 2.031320 
# 
# From -- ./inp_files/15117.got.cif
#   From: 2010.05.17/outbox.cif.g08.bks.cpg/sg24_8_cif.got.tgz:15117.got - 2010.06.04 00:33:39.
