data_PCOD9333461
_publ_section_title
;
Structure prediction by ZEFSAII (Michael W. Deem and Ramdas Pophale) SiO2 
 PCOD9333461
Probable space group: I 21 21 21
;
_chemical_formula_sum "Si O2"
_cell_formula_units_Z 64
_cell_length_a 29.716338
_cell_length_b 12.223020
_cell_length_c 7.330332
_cell_angle_alpha 90.000000
_cell_angle_beta 90.000000
_cell_angle_gamma 90.000000
_cell_volume 2662.548066
_symmetry_space_group_name_H-M "I 21 21 21"
_symmetry_group_IT_number 24
_symmetry_cell_setting 'orthorhombic'
loop_
_space_group_symop_operation_xyz
x,y,z
-x,1/2-y,z
x,-y,1/2-z
1/2-x,y,-z
1/2+x,1/2+y,1/2+z
1/2-x,-y,1/2+z
1/2+x,1/2-y,-z
-x,1/2+y,1/2-z
loop_
_atom_site_type_symbol
_atom_site_label
_atom_site_fract_x
_atom_site_fract_y
_atom_site_fract_z
Si Si1 0.026424 0.149706 0.482561
Si Si2 0.556019 0.995499 0.970756
Si Si3 0.199615 0.730020 0.459176
Si Si4 0.917921 0.464336 0.957729
Si Si5 0.393298 0.289947 0.509653
Si Si6 0.299057 0.781006 0.939759
Si Si7 0.188333 0.981508 0.538479
Si Si8 0.596770 0.221378 0.953212
O O1 0.065731 0.221686 0.580511
O O2 0.000000 0.250000 0.382428
O O3 0.985573 0.072671 0.553998
O O4 0.057604 0.051803 0.413956
O O5 0.598748 0.918544 0.014567
O O6 0.548486 0.000000 0.750000
O O7 0.566717 0.119715 0.018279
O O8 0.250000 0.683311 0.500000
O O9 0.193996 0.716768 0.244991
O O10 0.203491 0.860323 0.491802
O O11 0.148454 0.703883 0.527238
O O12 0.929284 0.500000 0.750000
O O13 0.865080 0.480768 0.982046
O O14 0.924935 0.336844 0.992241
O O15 0.344633 0.245321 0.449895
O O16 0.400097 0.273730 0.730178
O O17 0.250000 0.745676 0.000000
O O18 0.296500 0.912793 0.925051
O O19 0.199990 0.000000 0.750000
#
# Coordination Sequence:
#
# PCOD9333461 Si02
#       8
#     8   8   8   8   8   8   8   8
#     4  10  20  36  57  81 114 148 183 236 300 347
#     4   9  19  36  59  88 112 143 190 247 299 348
#     4  10  20  34  51  80 112 149 190 235 289 344
#     4  10  21  36  54  80 112 154 189 233 281 343
#     4   9  19  36  57  84 117 145 184 242 298 345
#     4  11  20  32  54  81 111 153 189 234 284 353
#     4  10  19  33  53  77 109 149 186 232 285 340
#     4   9  20  36  58  83 113 149 191 239 295 343
#
# _framework density 24.037126000000001
#
# number of rings (size 3 to 8) (size 9 to 14) (size 15 to 20)
#    0.000    2.250    1.250    1.500    1.750    0.500 
#    2.250    0.625    0.000    0.000    0.000    0.000 
#    0.000    0.000    0.000    0.000    0.000    0.000 
#
# Total GULP energy -178158.152569 kJ/mol
# GULP energy per Si atom -5567.442268 kJ/mol
# Density = 2.398242 g / cm^3
# Si number density = 24.037126 Si / 1000 Ang^3
#
#
#
# Elastic Constant Matrix: (Units=GPa)
#
#
# Indices 1 2 3 4 5 6 
#
# 1 157.6662 64.5558 -1.7242 0.0000 0.0000 0.0000
# 2 64.5558 171.6802 15.6232 0.0000 0.0000 0.0000
# 3 -1.7242 15.6232 45.1567 0.0000 0.0000 0.0000
# 4 0.0000 0.0000 0.0000 13.2686 0.0000 0.0000
# 5 0.0000 0.0000 0.0000 0.0000 4.4784 0.0000
# 6 0.0000 0.0000 0.0000 0.0000 0.0000 6.3195
#
#
#
# Elastic Compliance Matrix: (Units=1/GPa)
#
#
# Indices 1 2 3 4 5 6 
#
# 1 0.007572 -0.002967 0.001316 0.000000 0.000000 0.000000
# 2 -0.002967 0.007177 -0.002596 0.000000 0.000000 0.000000
# 3 0.001316 -0.002596 0.023094 0.000000 0.000000 0.000000
# 4 0.000000 0.000000 0.000000 0.075366 0.000000 0.000000
# 5 0.000000 0.000000 0.000000 0.000000 0.223297 0.000000
# 6 0.000000 0.000000 0.000000 0.000000 0.000000 0.158240
#
#
# Mechanical properties :
#
#
# Convention : Reuss Voigt Hill
#
# Bulk Modulus (GPa) = 34.07520 59.04586 46.56053
# Shear Modulus (GPa) = 9.74618 24.54984 17.14801
#
# Velocity S-wave (km/s) = 2.01580 3.19929 2.67385
# Velocity P-wave (km/s) = 4.42998 6.18588 5.38005
#
# Compressibility (1/GPa) = 0.02934686
#
# Stress axis : x y z
#
# Youngs Moduli (GPa) = 132.07135 139.34079 43.30207
#
# Poissons Ratio (x) = 0.41340 -0.05697
# Poissons Ratio (y) = 0.39184 0.11242
# Poissons Ratio (z) = -0.17375 0.36176
#
# Static dielectric constant tensor:
#      x y z
#    x 2.037070 0.000000 0.000000 
#    y 0.000000 1.872890 0.000000 
#    z 0.000000 0.000000 2.072750 
# 
# From -- ./inp_files/17012.got.cif
#   From: 2010.05.17/outbox.cif.g08.bks.cpg/sg24_9_cif.got.tgz:17012.got - 2010.06.04 00:33:39.
