data_PCOD9333593
_publ_section_title
;
Structure prediction by ZEFSAII (Michael W. Deem and Ramdas Pophale) SiO2 
 PCOD9333593
Probable space group: I 21 21 21
;
_chemical_formula_sum "Si O2"
_cell_formula_units_Z 32
_cell_length_a 16.016391
_cell_length_b 8.949605
_cell_length_c 11.947308
_cell_angle_alpha 90.000000
_cell_angle_beta 90.000000
_cell_angle_gamma 90.000000
_cell_volume 1712.531585
_symmetry_space_group_name_H-M "I 21 21 21"
_symmetry_group_IT_number 24
_symmetry_cell_setting 'orthorhombic'
loop_
_space_group_symop_operation_xyz
x,y,z
-x,1/2-y,z
x,-y,1/2-z
1/2-x,y,-z
1/2+x,1/2+y,1/2+z
1/2-x,-y,1/2+z
1/2+x,1/2-y,-z
-x,1/2+y,1/2-z
loop_
_atom_site_type_symbol
_atom_site_label
_atom_site_fract_x
_atom_site_fract_y
_atom_site_fract_z
Si Si1 0.133825 0.515469 0.125945
Si Si2 0.322416 0.016266 0.126804
Si Si3 0.526705 0.500000 0.750000
Si Si4 0.250000 0.741860 0.000000
Si Si5 0.645746 0.673566 0.592527
O O1 0.174000 0.500000 0.250000
O O2 0.139531 0.350047 0.074721
O O3 0.037990 0.555776 0.155186
O O4 0.180670 0.638050 0.055405
O O5 0.359904 0.000000 0.250000
O O6 0.238380 0.119329 0.128801
O O7 0.291157 0.853463 0.089167
O O8 0.373549 0.086214 0.023204
O O9 0.584141 0.623221 0.691563
#
# Coordination Sequence:
#
# PCOD9333593 Si02
#       5
#     8   8   4   4   8
#     4  10  22  32  57  86 113 148 180 254 288 331
#     4  10  21  34  57  78 115 163 188 235 276 348
#     4  10  22  34  62  86 116 146 192 240 294 338
#     4  10  20  36  52  86 116 144 202 228 296 340
#     4  10  19  35  56  82 118 145 198 231 291 344
#
# _framework density 18.685787999999999
#
# number of rings (size 3 to 8) (size 9 to 14) (size 15 to 20)
#    0.750    1.500    1.250    3.750    3.500    0.000 
#    0.000    0.000    0.000    7.500    0.000    0.000 
#    0.000    0.000    0.000    0.000    0.000    0.000 
#
# Total GULP energy -89178.231131 kJ/mol
# GULP energy per Si atom -5573.639446 kJ/mol
# Density = 1.864326 g / cm^3
# Si number density = 18.685788 Si / 1000 Ang^3
#
#
#
# Elastic Constant Matrix: (Units=GPa)
#
#
# Indices 1 2 3 4 5 6 
#
# 1 57.0041 32.7550 8.5188 0.0000 0.0000 0.0000
# 2 32.7550 137.9746 41.0164 0.0000 0.0000 0.0000
# 3 8.5188 41.0164 68.2500 0.0000 0.0000 0.0000
# 4 0.0000 0.0000 0.0000 19.3837 0.0000 0.0000
# 5 0.0000 0.0000 0.0000 0.0000 1.8566 0.0000
# 6 0.0000 0.0000 0.0000 0.0000 0.0000 7.6309
#
#
#
# Elastic Compliance Matrix: (Units=1/GPa)
#
#
# Indices 1 2 3 4 5 6 
#
# 1 0.020325 -0.004956 0.000442 0.000000 0.000000 0.000000
# 2 -0.004956 0.010033 -0.005411 0.000000 0.000000 0.000000
# 3 0.000442 -0.005411 0.017849 0.000000 0.000000 0.000000
# 4 0.000000 0.000000 0.000000 0.051590 0.000000 0.000000
# 5 0.000000 0.000000 0.000000 0.000000 0.538605 0.000000
# 6 0.000000 0.000000 0.000000 0.000000 0.000000 0.131045
#
#
# Mechanical properties :
#
#
# Convention : Reuss Voigt Hill
#
# Bulk Modulus (GPa) = 35.26687 47.53431 41.40059
# Shear Modulus (GPa) = 6.25979 17.83683 12.04831
#
# Velocity S-wave (km/s) = 1.83229 3.09296 2.54202
# Velocity P-wave (km/s) = 4.83643 6.18459 5.55158
#
# Compressibility (1/GPa) = 0.02835522
#
# Stress axis : x y z
#
# Youngs Moduli (GPa) = 49.20161 99.67264 56.02669
#
# Poissons Ratio (x) = 0.49401 -0.02475
# Poissons Ratio (y) = 0.24386 0.30315
# Poissons Ratio (z) = -0.02174 0.53931
#
# Static dielectric constant tensor:
#      x y z
#    x 1.659700 0.000000 0.000000 
#    y 0.000000 1.661260 0.000000 
#    z 0.000000 0.000000 1.694420 
# 
# From -- ./inp_files/26218.got.cif
#   From: 2010.05.17/outbox.cif.g08.bks.cpg/sg24_14_cif.got.tgz:26218.got - 2010.06.04 00:33:39.
