data_PCOD9333987
_publ_section_title
;
Structure prediction by ZEFSAII (Michael W. Deem and Ramdas Pophale) SiO2 
 PCOD9333987
Probable space group: I 21 21 21
;
_chemical_formula_sum "Si O2"
_cell_formula_units_Z 52
_cell_length_a 24.885297
_cell_length_b 8.052441
_cell_length_c 13.918897
_cell_angle_alpha 90.000000
_cell_angle_beta 90.000000
_cell_angle_gamma 90.000000
_cell_volume 2789.171384
_symmetry_space_group_name_H-M "I 21 21 21"
_symmetry_group_IT_number 24
_symmetry_cell_setting 'orthorhombic'
loop_
_space_group_symop_operation_xyz
x,y,z
-x,1/2-y,z
x,-y,1/2-z
1/2-x,y,-z
1/2+x,1/2+y,1/2+z
1/2-x,-y,1/2+z
1/2+x,1/2-y,-z
-x,1/2+y,1/2-z
loop_
_atom_site_type_symbol
_atom_site_label
_atom_site_fract_x
_atom_site_fract_y
_atom_site_fract_z
Si Si1 0.000000 0.750000 0.619761
Si Si2 0.033977 0.401868 0.528917
Si Si3 0.238865 0.380832 0.103524
Si Si4 0.142820 0.375216 0.428039
Si Si5 0.590142 0.807769 0.225971
Si Si6 0.305127 0.279405 0.378140
Si Si7 0.203376 0.176572 0.285427
O O1 0.947564 0.734289 0.690118
O O2 0.007412 0.578481 0.559619
O O3 0.084225 0.431511 0.459015
O O4 0.056647 0.319524 0.627543
O O5 0.000000 0.250000 0.485553
O O6 0.182165 0.470626 0.086587
O O7 0.281897 0.529545 0.124208
O O8 0.231254 0.270732 0.196530
O O9 0.250000 0.298521 0.000000
O O10 0.166694 0.271035 0.518340
O O11 0.153364 0.271022 0.332308
O O12 0.648824 0.737925 0.199917
O O13 0.600181 0.000000 0.250000
O O14 0.252101 0.171153 0.362473
O O15 0.186035 0.000000 0.250000
#
# Coordination Sequence:
#
# PCOD9333987 Si02
#       7
#     4   8   8   8   8   8   8
#     4  10  20  34  54  84 120 158 208 236 296 358
#     4  10  20  36  55  80 114 156 195 253 294 346
#     4   9  18  34  59  81 107 148 196 236 285 358
#     4   9  19  37  58  78 109 157 196 232 290 353
#     4   9  16  29  52  78 115 156 197 234 286 357
#     4   9  17  33  56  79 112 159 194 224 284 359
#     4  11  21  34  53  85 119 145 188 246 300 352
#
# _framework density 18.643529000000001
#
# number of rings (size 3 to 8) (size 9 to 14) (size 15 to 20)
#    0.000    2.462    0.769    4.154    0.000    2.462 
#    8.308    0.000    0.000    1.846    0.000    0.000 
#    0.000    0.000    0.000    0.000    0.000    0.000 
#
# Total GULP energy -144738.807759 kJ/mol
# GULP energy per Si atom -5566.877221 kJ/mol
# Density = 1.860110 g / cm^3
# Si number density = 18.643529 Si / 1000 Ang^3
#
#
#
# Elastic Constant Matrix: (Units=GPa)
#
#
# Indices 1 2 3 4 5 6 
#
# 1 92.5245 28.8668 19.4128 0.0000 0.0000 0.0000
# 2 28.8668 55.4386 28.3170 0.0000 0.0000 0.0000
# 3 19.4128 28.3170 62.3892 0.0000 0.0000 0.0000
# 4 0.0000 0.0000 0.0000 11.1907 0.0000 0.0000
# 5 0.0000 0.0000 0.0000 0.0000 29.8319 0.0000
# 6 0.0000 0.0000 0.0000 0.0000 0.0000 7.2801
#
#
#
# Elastic Compliance Matrix: (Units=1/GPa)
#
#
# Indices 1 2 3 4 5 6 
#
# 1 0.012980 -0.006113 -0.001264 0.000000 0.000000 0.000000
# 2 -0.006113 0.026361 -0.010062 0.000000 0.000000 0.000000
# 3 -0.001264 -0.010062 0.020989 0.000000 0.000000 0.000000
# 4 0.000000 0.000000 0.000000 0.089360 0.000000 0.000000
# 5 0.000000 0.000000 0.000000 0.000000 0.033521 0.000000
# 6 0.000000 0.000000 0.000000 0.000000 0.000000 0.137360
#
#
# Mechanical properties :
#
#
# Convention : Reuss Voigt Hill
#
# Bulk Modulus (GPa) = 39.29210 40.39395 39.84303
# Shear Modulus (GPa) = 13.73873 18.57758 16.15815
#
# Velocity S-wave (km/s) = 2.71757 3.16010 2.94715
# Velocity P-wave (km/s) = 5.56490 5.91849 5.74442
#
# Compressibility (1/GPa) = 0.02545041
#
# Stress axis : x y z
#
# Youngs Moduli (GPa) = 77.03880 37.93522 47.64425
#
# Poissons Ratio (x) = 0.23190 0.06024
# Poissons Ratio (y) = 0.47095 0.47941
# Poissons Ratio (z) = 0.09741 0.38172
#
# Static dielectric constant tensor:
#      x y z
#    x 1.676850 0.000000 0.000000 
#    y 0.000000 1.673060 0.000000 
#    z 0.000000 0.000000 1.718380 
# 
# From -- ./inp_files/27814.got.cif
#   From: 2010.05.17/outbox.cif.g08.bks.cpg/sg24_14_cif.got.tgz:27814.got - 2010.06.04 00:33:39.
