data_PCOD9333980
_publ_section_title
;
Structure prediction by ZEFSAII (Michael W. Deem and Ramdas Pophale) SiO2 
 PCOD9333980
Probable space group: I 21 21 21
;
_chemical_formula_sum "Si O2"
_cell_formula_units_Z 40
_cell_length_a 8.045333
_cell_length_b 9.918100
_cell_length_c 27.024280
_cell_angle_alpha 90.000000
_cell_angle_beta 90.000000
_cell_angle_gamma 90.000000
_cell_volume 2156.386674
_symmetry_space_group_name_H-M "I 21 21 21"
_symmetry_group_IT_number 24
_symmetry_cell_setting 'orthorhombic'
loop_
_space_group_symop_operation_xyz
x,y,z
-x,1/2-y,z
x,-y,1/2-z
1/2-x,y,-z
1/2+x,1/2+y,1/2+z
1/2-x,-y,1/2+z
1/2+x,1/2-y,-z
-x,1/2+y,1/2-z
loop_
_atom_site_type_symbol
_atom_site_label
_atom_site_fract_x
_atom_site_fract_y
_atom_site_fract_z
Si Si1 0.557569 0.401137 0.204013
Si Si2 0.172980 0.817505 0.371607
Si Si3 0.811579 0.191920 0.444451
Si Si4 0.359569 0.451444 0.106240
Si Si5 0.199998 0.978287 0.942915
O O1 0.500000 0.250000 0.218164
O O2 0.568426 0.500000 0.250000
O O3 0.730486 0.378057 0.175198
O O4 0.432731 0.460133 0.162014
O O5 0.282136 0.697131 0.395353
O O6 0.167910 0.935975 0.411655
O O7 0.000000 0.750000 0.358449
O O8 0.750000 0.156467 0.500000
O O9 0.771341 0.066026 0.409365
O O10 0.704652 0.321711 0.428090
O O11 0.000000 0.250000 0.446013
O O12 0.518146 0.466191 0.070161
O O13 0.250000 0.985590 0.000000
#
# Coordination Sequence:
#
# PCOD9333980 Si02
#       5
#     8   8   8   8   8
#     4   9  20  39  62  83 106 141 184 229 279 333
#     4  10  21  37  56  83 115 143 181 230 276 327
#     4  11  21  34  53  82 117 152 188 227 270 320
#     4  10  21  38  57  81 112 146 186 229 274 329
#     4  10  20  34  53  81 113 150 190 225 267 323
#
# _framework density 18.549548999999999
#
# number of rings (size 3 to 8) (size 9 to 14) (size 15 to 20)
#    0.000    2.000    0.000    6.000    0.000    5.600 
#    0.000    4.000    0.000    6.000    0.000    0.000 
#    0.000    0.000    0.000    0.000    0.000    0.000 
#
# Total GULP energy -111599.020694 kJ/mol
# GULP energy per Si atom -5579.951035 kJ/mol
# Density = 1.850733 g / cm^3
# Si number density = 18.549549 Si / 1000 Ang^3
#
#
#
# Elastic Constant Matrix: (Units=GPa)
#
#
# Indices 1 2 3 4 5 6 
#
# 1 84.9905 31.0908 28.9041 0.0000 0.0000 0.0000
# 2 31.0908 113.7428 82.2207 0.0000 0.0000 0.0000
# 3 28.9041 82.2207 87.7460 0.0000 0.0000 0.0000
# 4 0.0000 0.0000 0.0000 40.3322 0.0000 0.0000
# 5 0.0000 0.0000 0.0000 0.0000 7.7867 0.0000
# 6 0.0000 0.0000 0.0000 0.0000 0.0000 27.6685
#
#
#
# Elastic Compliance Matrix: (Units=1/GPa)
#
#
# Indices 1 2 3 4 5 6 
#
# 1 0.013328 -0.001455 -0.003027 0.000000 0.000000 0.000000
# 2 -0.001455 0.027407 -0.025202 0.000000 0.000000 0.000000
# 3 -0.003027 -0.025202 0.036009 0.000000 0.000000 0.000000
# 4 0.000000 0.000000 0.000000 0.024794 0.000000 0.000000
# 5 0.000000 0.000000 0.000000 0.000000 0.128425 0.000000
# 6 0.000000 0.000000 0.000000 0.000000 0.000000 0.036142
#
#
# Mechanical properties :
#
#
# Convention : Reuss Voigt Hill
#
# Bulk Modulus (GPa) = 57.55158 63.43450 60.49304
# Shear Modulus (GPa) = 15.09367 24.77505 19.93436
#
# Velocity S-wave (km/s) = 2.85563 3.65857 3.28175
# Velocity P-wave (km/s) = 6.47812 7.21931 6.85873
#
# Compressibility (1/GPa) = 0.01737572
#
# Stress axis : x y z
#
# Youngs Moduli (GPa) = 75.03185 36.48667 27.77102
#
# Poissons Ratio (x) = 0.05309 0.08406
# Poissons Ratio (y) = 0.10918 0.69989
# Poissons Ratio (z) = 0.22710 0.91954
#
# Static dielectric constant tensor:
#      x y z
#    x 1.699580 0.000000 0.000000 
#    y 0.000000 1.636550 0.000000 
#    z 0.000000 0.000000 1.608350 
# 
# From -- ./inp_files/9279.got.cif
#   From: 2010.05.17/outbox.cif.g08.bks.cpg/sg24_5_cif.got.tgz:9279.got - 2010.06.04 00:33:39.
