data_PCOD9333173
_publ_section_title
;
Structure prediction by ZEFSAII (Michael W. Deem and Ramdas Pophale) SiO2 
 PCOD9333173
Probable space group: I 21 21 21
;
_chemical_formula_sum "Si O2"
_cell_formula_units_Z 52
_cell_length_a 20.622451
_cell_length_b 16.359084
_cell_length_c 9.535161
_cell_angle_alpha 90.000000
_cell_angle_beta 90.000000
_cell_angle_gamma 90.000000
_cell_volume 3216.823948
_symmetry_space_group_name_H-M "I 21 21 21"
_symmetry_group_IT_number 24
_symmetry_cell_setting 'orthorhombic'
loop_
_space_group_symop_operation_xyz
x,y,z
-x,1/2-y,z
x,-y,1/2-z
1/2-x,y,-z
1/2+x,1/2+y,1/2+z
1/2-x,-y,1/2+z
1/2+x,1/2-y,-z
-x,1/2+y,1/2-z
loop_
_atom_site_type_symbol
_atom_site_label
_atom_site_fract_x
_atom_site_fract_y
_atom_site_fract_z
Si Si1 0.131042 0.751910 0.750295
Si Si2 0.246496 0.845598 0.833785
Si Si3 0.571389 0.385486 0.058682
Si Si4 0.658343 0.500000 0.250000
Si Si5 0.460038 0.829885 0.013514
Si Si6 0.113974 0.096198 0.253182
Si Si7 0.549995 0.906189 0.251026
O O1 0.206437 0.771735 0.764750
O O2 0.101931 0.802456 0.620560
O O3 0.107591 0.659242 0.744592
O O4 0.096268 0.794759 0.884873
O O5 0.203757 0.927433 0.806531
O O6 0.317431 0.858080 0.769923
O O7 0.250000 0.833505 0.000000
O O8 0.612902 0.459431 0.130624
O O9 0.499043 0.392571 0.118877
O O10 0.578868 0.385530 0.893109
O O11 0.500000 0.750000 0.965329
O O12 0.429960 0.879272 0.885603
O O13 0.506343 0.883685 0.114146
O O14 0.128303 0.000000 0.250000
O O15 0.570413 0.000000 0.250000
#
# Coordination Sequence:
#
# PCOD9333173 Si02
#       7
#     8   8   8   4   8   8   8
#     4   9  20  34  52  73 102 142 180 206 263 314
#     4  11  20  32  50  74 111 142 172 206 251 314
#     4  10  20  32  50  75 110 137 172 210 258 305
#     4  10  20  30  46  72 112 146 168 198 250 314
#     4   9  19  35  51  74 107 139 173 214 261 318
#     4  12  22  31  51  84 109 141 177 207 259 318
#     4  10  18  35  57  76  99 135 180 225 260 307
#
# _framework density 16.165011
#
# number of rings (size 3 to 8) (size 9 to 14) (size 15 to 20)
#    0.000    1.846    3.077    3.231    2.154    3.077 
#    0.000    0.000    0.000    0.000    4.000    1.077 
#    0.000    0.000    0.000    0.000    0.000    0.000 
#
# Total GULP energy -145116.020846 kJ/mol
# GULP energy per Si atom -5581.385417 kJ/mol
# Density = 1.612822 g / cm^3
# Si number density = 16.165011 Si / 1000 Ang^3
#
#
#
# Elastic Constant Matrix: (Units=GPa)
#
#
# Indices 1 2 3 4 5 6 
#
# 1 73.9387 49.3522 28.3734 0.0000 0.0000 0.0000
# 2 49.3522 108.7722 40.0588 0.0000 0.0000 0.0000
# 3 28.3734 40.0588 85.8742 0.0000 0.0000 0.0000
# 4 0.0000 0.0000 0.0000 18.0509 0.0000 0.0000
# 5 0.0000 0.0000 0.0000 0.0000 6.6209 0.0000
# 6 0.0000 0.0000 0.0000 0.0000 0.0000 23.6870
#
#
#
# Elastic Compliance Matrix: (Units=1/GPa)
#
#
# Indices 1 2 3 4 5 6 
#
# 1 0.019966 -0.008005 -0.002863 0.000000 0.000000 0.000000
# 2 -0.008005 0.014310 -0.004030 0.000000 0.000000 0.000000
# 3 -0.002863 -0.004030 0.014471 0.000000 0.000000 0.000000
# 4 0.000000 0.000000 0.000000 0.055399 0.000000 0.000000
# 5 0.000000 0.000000 0.000000 0.000000 0.151038 0.000000
# 6 0.000000 0.000000 0.000000 0.000000 0.000000 0.042217
#
#
# Mechanical properties :
#
#
# Convention : Reuss Voigt Hill
#
# Bulk Modulus (GPa) = 52.76806 56.01709 54.39257
# Shear Modulus (GPa) = 14.99185 19.72512 17.35849
#
# Velocity S-wave (km/s) = 3.04867 3.49698 3.28049
# Velocity P-wave (km/s) = 6.71616 7.14378 6.93327
#
# Compressibility (1/GPa) = 0.01895086
#
# Stress axis : x y z
#
# Youngs Moduli (GPa) = 50.08435 69.88221 69.10382
#
# Poissons Ratio (x) = 0.55939 0.19784
# Poissons Ratio (y) = 0.40091 0.27852
# Poissons Ratio (z) = 0.14339 0.28166
#
# Static dielectric constant tensor:
#      x y z
#    x 1.544420 0.000000 0.000000 
#    y 0.000000 1.547790 0.000000 
#    z 0.000000 0.000000 1.535580 
# 
# From -- ./inp_files/13288.got.cif
#   From: 2010.05.17/outbox.cif.g08.bks.cpg/sg24_7_cif.got.tgz:13288.got - 2010.06.04 00:33:39.
