data_PCOD9333020
_publ_section_title
;
Structure prediction by ZEFSAII (Michael W. Deem and Ramdas Pophale) SiO2 
 PCOD9333020
Probable space group: I 21 21 21
;
_chemical_formula_sum "Si O2"
_cell_formula_units_Z 64
_cell_length_a 30.417648
_cell_length_b 13.374332
_cell_length_c 8.670545
_cell_angle_alpha 90.000000
_cell_angle_beta 90.000000
_cell_angle_gamma 90.000000
_cell_volume 3527.314033
_symmetry_space_group_name_H-M "I 21 21 21"
_symmetry_group_IT_number 24
_symmetry_cell_setting 'orthorhombic'
loop_
_space_group_symop_operation_xyz
x,y,z
-x,1/2-y,z
x,-y,1/2-z
1/2-x,y,-z
1/2+x,1/2+y,1/2+z
1/2-x,-y,1/2+z
1/2+x,1/2-y,-z
-x,1/2+y,1/2-z
loop_
_atom_site_type_symbol
_atom_site_label
_atom_site_fract_x
_atom_site_fract_y
_atom_site_fract_z
Si Si1 0.463120 0.337920 0.482949
Si Si2 0.380347 0.815789 0.391095
Si Si3 0.796561 0.385980 0.425021
Si Si4 0.419134 0.013482 0.905749
Si Si5 0.493268 0.629457 0.684728
Si Si6 0.612623 0.314242 0.467158
Si Si7 0.039254 0.332949 0.865791
Si Si8 0.202596 0.883176 0.441326
O O1 0.500000 0.250000 0.476456
O O2 0.473241 0.393871 0.645600
O O3 0.415551 0.284883 0.496350
O O4 0.462902 0.381397 0.306497
O O5 0.402044 0.913825 0.463784
O O6 0.375402 0.830203 0.210368
O O7 0.414964 0.724808 0.397100
O O8 0.335056 0.813175 0.486253
O O9 0.750000 0.353842 0.500000
O O10 0.840077 0.321440 0.455105
O O11 0.805075 0.499640 0.486898
O O12 0.793253 0.385265 0.241722
O O13 0.460339 0.075679 0.840321
O O14 0.389913 0.000000 0.750000
O O15 0.419704 0.903923 0.978025
O O16 0.500000 0.750000 0.687598
O O17 0.468470 0.606362 0.523593
O O18 0.000000 0.250000 0.861640
O O19 0.250000 0.851808 0.500000
#
# Coordination Sequence:
#
# PCOD9333020 Si02
#       8
#     8   8   8   8   8   8   8   8
#     4   9  19  32  47  65  86 118 151 195 232 281
#     4  11  20  32  46  64  88 116 151 202 236 274
#     4  10  20  32  45  60  85 117 149 195 241 279
#     4  12  21  30  44  67  87 114 154 191 237 272
#     4  10  18  32  46  59  88 115 143 193 231 275
#     4  11  22  32  48  69  90 117 160 202 237 281
#     4   9  17  31  47  62  83 113 151 187 231 281
#     4  10  20  31  43  60  85 115 150 190 240 279
#
# _framework density 18.144117000000001
#
# number of rings (size 3 to 8) (size 9 to 14) (size 15 to 20)
#    0.000    1.750    3.750    3.375    1.750    1.000 
#    2.250    0.000    0.000    0.000    0.000    0.000 
#    0.000    0.000    0.000    0.000    0.000    5.000 
#
# Total GULP energy -178156.263031 kJ/mol
# GULP energy per Si atom -5567.383220 kJ/mol
# Density = 1.810282 g / cm^3
# Si number density = 18.144117 Si / 1000 Ang^3
#
#
#
# Elastic Constant Matrix: (Units=GPa)
#
#
# Indices 1 2 3 4 5 6 
#
# 1 120.3656 22.1216 44.8514 0.0000 0.0000 0.0000
# 2 22.1216 21.4055 18.3090 0.0000 0.0000 0.0000
# 3 44.8514 18.3090 141.9674 0.0000 0.0000 0.0000
# 4 0.0000 0.0000 0.0000 11.8493 0.0000 0.0000
# 5 0.0000 0.0000 0.0000 0.0000 15.0403 0.0000
# 6 0.0000 0.0000 0.0000 0.0000 0.0000 20.4882
#
#
#
# Elastic Compliance Matrix: (Units=1/GPa)
#
#
# Indices 1 2 3 4 5 6 
#
# 1 0.010848 -0.009306 -0.002227 0.000000 0.000000 0.000000
# 2 -0.009306 0.060493 -0.004861 0.000000 0.000000 0.000000
# 3 -0.002227 -0.004861 0.008374 0.000000 0.000000 0.000000
# 4 0.000000 0.000000 0.000000 0.084393 0.000000 0.000000
# 5 0.000000 0.000000 0.000000 0.000000 0.066488 0.000000
# 6 0.000000 0.000000 0.000000 0.000000 0.000000 0.048809
#
#
# Mechanical properties :
#
#
# Convention : Reuss Voigt Hill
#
# Bulk Modulus (GPa) = 21.31020 50.47806 35.89413
# Shear Modulus (GPa) = 15.25149 22.70598 18.97874
#
# Velocity S-wave (km/s) = 2.90241 3.54138 3.23770
# Velocity P-wave (km/s) = 4.79609 6.67854 5.81401
#
# Compressibility (1/GPa) = 0.04692589
#
# Stress axis : x y z
#
# Youngs Moduli (GPa) = 92.18074 16.53092 119.41125
#
# Poissons Ratio (x) = 0.15384 0.26594
# Poissons Ratio (y) = 0.85786 0.58051
# Poissons Ratio (z) = 0.20529 0.08036
#
# Static dielectric constant tensor:
#      x y z
#    x 1.667420 0.000000 0.000000 
#    y 0.000000 1.648630 0.000000 
#    z 0.000000 0.000000 1.681040 
# 
# From -- ./inp_files/16512.got.cif
#   From: 2010.05.17/outbox.cif.g08.bks.cpg/sg24_9_cif.got.tgz:16512.got - 2010.06.04 00:33:39.
