data_PCOD9333339
_publ_section_title
;
Structure prediction by ZEFSAII (Michael W. Deem and Ramdas Pophale) SiO2 
 PCOD9333339
Probable space group: I 21 21 21
;
_chemical_formula_sum "Si O2"
_cell_formula_units_Z 60
_cell_length_a 30.798294
_cell_length_b 9.208313
_cell_length_c 10.699556
_cell_angle_alpha 90.000000
_cell_angle_beta 90.000000
_cell_angle_gamma 90.000000
_cell_volume 3034.397623
_symmetry_space_group_name_H-M "I 21 21 21"
_symmetry_group_IT_number 24
_symmetry_cell_setting 'orthorhombic'
loop_
_space_group_symop_operation_xyz
x,y,z
-x,1/2-y,z
x,-y,1/2-z
1/2-x,y,-z
1/2+x,1/2+y,1/2+z
1/2-x,-y,1/2+z
1/2+x,1/2-y,-z
-x,1/2+y,1/2-z
loop_
_atom_site_type_symbol
_atom_site_label
_atom_site_fract_x
_atom_site_fract_y
_atom_site_fract_z
Si Si1 0.084854 0.790686 0.157576
Si Si2 0.250445 0.825695 0.253979
Si Si3 0.063440 0.919143 0.429080
Si Si4 0.807433 0.910098 0.627671
Si Si5 0.750000 0.134266 0.500000
Si Si6 0.966837 0.031734 0.399719
Si Si7 0.335210 0.661073 0.721289
Si Si8 0.605726 0.841502 0.475375
O O1 0.067358 0.835007 0.295774
O O2 0.047248 0.698556 0.092932
O O3 0.128852 0.700876 0.174094
O O4 0.092911 0.939291 0.085706
O O5 0.282406 0.742654 0.351663
O O6 0.252998 0.743037 0.118793
O O7 0.201556 0.781403 0.290995
O O8 0.256845 0.000000 0.250000
O O9 0.081369 0.812509 0.533971
O O10 0.014236 0.975371 0.436682
O O11 0.859136 0.884791 0.626830
O O12 0.795367 0.000000 0.750000
O O13 0.789524 0.017007 0.518061
O O14 0.960885 0.000000 0.250000
O O15 0.932047 0.950835 0.485974
O O16 0.317959 0.500000 0.750000
O O17 0.362552 0.664608 0.595051
#
# Coordination Sequence:
#
# PCOD9333339 Si02
#       8
#     8   8   8   8   4   8   8   8
#     4  10  19  29  45  77 118 167 186 228 284 358
#     4  11  25  40  63  92 123 158 204 271 320 363
#     4  10  21  28  47  80 123 161 185 239 299 353
#     4  10  22  44  64  86 115 161 213 258 315 375
#     4  10  22  42  68  86 118 168 208 250 314 394
#     4  12  18  31  50  79 122 162 196 230 293 363
#     4  11  19  33  52  81 121 159 201 235 292 369
#     4  11  21  33  55  83 112 156 203 241 295 367
#
# _framework density 19.773281999999998
#
# number of rings (size 3 to 8) (size 9 to 14) (size 15 to 20)
#    0.000    1.333    5.333    3.600    3.733    1.600 
#    0.000    0.000    0.000    0.000    0.000    7.467 
#    0.000    0.000    0.000    0.000    0.000    0.000 
#
# Total GULP energy -167157.293160 kJ/mol
# GULP energy per Si atom -5571.909772 kJ/mol
# Density = 1.972828 g / cm^3
# Si number density = 19.773282 Si / 1000 Ang^3
#
#
#
# Elastic Constant Matrix: (Units=GPa)
#
#
# Indices 1 2 3 4 5 6 
#
# 1 82.7027 39.7044 10.1562 0.0000 0.0000 0.0000
# 2 39.7044 150.0150 20.7005 0.0000 0.0000 0.0000
# 3 10.1562 20.7005 30.2377 0.0000 0.0000 0.0000
# 4 0.0000 0.0000 0.0000 12.0818 0.0000 0.0000
# 5 0.0000 0.0000 0.0000 0.0000 19.8022 0.0000
# 6 0.0000 0.0000 0.0000 0.0000 0.0000 12.3347
#
#
#
# Elastic Compliance Matrix: (Units=1/GPa)
#
#
# Indices 1 2 3 4 5 6 
#
# 1 0.014007 -0.003377 -0.002393 0.000000 0.000000 0.000000
# 2 -0.003377 0.008176 -0.004463 0.000000 0.000000 0.000000
# 3 -0.002393 -0.004463 0.036930 0.000000 0.000000 0.000000
# 4 0.000000 0.000000 0.000000 0.082769 0.000000 0.000000
# 5 0.000000 0.000000 0.000000 0.000000 0.050499 0.000000
# 6 0.000000 0.000000 0.000000 0.000000 0.000000 0.081072
#
#
# Mechanical properties :
#
#
# Convention : Reuss Voigt Hill
#
# Bulk Modulus (GPa) = 25.87483 44.89753 35.38618
# Shear Modulus (GPa) = 16.29726 21.67003 18.98364
#
# Velocity S-wave (km/s) = 2.87401 3.31407 3.10185
# Velocity P-wave (km/s) = 4.91197 6.11551 5.54648
#
# Compressibility (1/GPa) = 0.03864759
#
# Stress axis : x y z
#
# Youngs Moduli (GPa) = 71.39516 122.31548 27.07814
#
# Poissons Ratio (x) = 0.41305 0.06479
# Poissons Ratio (y) = 0.24110 0.12084
# Poissons Ratio (z) = 0.17083 0.54586
#
# Static dielectric constant tensor:
#      x y z
#    x 1.739700 0.000000 0.000000 
#    y 0.000000 1.732710 0.000000 
#    z 0.000000 0.000000 1.756750 
# 
# From -- ./inp_files/11622.got.cif
#   From: 2010.05.17/outbox.cif.g08.bks.cpg/sg24_6_cif.got.tgz:11622.got - 2010.06.04 00:33:39.
