data_PCOD9333080
_publ_section_title
;
Structure prediction by ZEFSAII (Michael W. Deem and Ramdas Pophale) SiO2 
 PCOD9333080
Probable space group: I 21 21 21
;
_chemical_formula_sum "Si O2"
_cell_formula_units_Z 48
_cell_length_a 19.931529
_cell_length_b 26.149910
_cell_length_c 5.491883
_cell_angle_alpha 90.000000
_cell_angle_beta 90.000000
_cell_angle_gamma 90.000000
_cell_volume 2862.411650
_symmetry_space_group_name_H-M "I 21 21 21"
_symmetry_group_IT_number 24
_symmetry_cell_setting 'orthorhombic'
loop_
_space_group_symop_operation_xyz
x,y,z
-x,1/2-y,z
x,-y,1/2-z
1/2-x,y,-z
1/2+x,1/2+y,1/2+z
1/2-x,-y,1/2+z
1/2+x,1/2-y,-z
-x,1/2+y,1/2-z
loop_
_atom_site_type_symbol
_atom_site_label
_atom_site_fract_x
_atom_site_fract_y
_atom_site_fract_z
Si Si1 0.783876 0.742644 0.249581
Si Si2 0.371843 0.000000 0.250000
Si Si3 0.067829 0.284825 0.255157
Si Si4 0.898276 0.385854 0.750728
Si Si5 0.976426 0.809880 0.744597
Si Si6 0.315242 0.127826 0.753662
Si Si7 0.750000 0.541769 0.000000
O O1 0.750000 0.761781 0.500000
O O2 0.863476 0.753201 0.248475
O O3 0.777104 0.681368 0.248254
O O4 0.750000 0.762205 0.000000
O O5 0.411663 0.052938 0.233918
O O6 0.317297 0.009800 0.463563
O O7 0.064423 0.315849 0.506121
O O8 0.000000 0.250000 0.256118
O O9 0.063574 0.316435 0.006067
O O10 0.860988 0.375775 0.491871
O O11 0.961319 0.348137 0.753279
O O12 0.856982 0.374304 0.997612
O O13 0.000000 0.750000 0.743620
O O14 0.264211 0.080746 0.720742
#
# Coordination Sequence:
#
# PCOD9333080 Si02
#       7
#     8   4   8   8   8   8   4
#     4  12  23  35  53  82 110 140 179 237 272 312
#     4  10  22  34  50  70 102 142 186 234 264 302
#     4  10  20  35  53  73 103 137 177 217 274 330
#     4  11  22  35  54  72  99 137 188 233 268 307
#     4  10  18  33  53  74  93 129 174 224 263 325
#     4  11  21  34  49  71 100 141 186 231 268 299
#     4  10  20  34  48  66 100 148 188 228 264 312
#
# _framework density 16.769078
#
# number of rings (size 3 to 8) (size 9 to 14) (size 15 to 20)
#    0.000    1.333    0.833    8.000    2.333    2.000 
#    0.000    0.000    0.000    0.000    0.000    0.000 
#    0.000    0.000    0.000   15.000    0.000    0.000 
#
# Total GULP energy -133830.588701 kJ/mol
# GULP energy per Si atom -5576.274529 kJ/mol
# Density = 1.673091 g / cm^3
# Si number density = 16.769078 Si / 1000 Ang^3
#
#
#
# Elastic Constant Matrix: (Units=GPa)
#
#
# Indices 1 2 3 4 5 6 
#
# 1 77.1980 34.5794 37.3569 0.0000 0.0000 0.0000
# 2 34.5794 72.0923 21.0179 0.0000 0.0000 0.0000
# 3 37.3569 21.0179 170.0423 0.0000 0.0000 0.0000
# 4 0.0000 0.0000 0.0000 16.3740 0.0000 0.0000
# 5 0.0000 0.0000 0.0000 0.0000 30.9139 0.0000
# 6 0.0000 0.0000 0.0000 0.0000 0.0000 25.9146
#
#
#
# Elastic Compliance Matrix: (Units=1/GPa)
#
#
# Indices 1 2 3 4 5 6 
#
# 1 0.017834 -0.007689 -0.002968 0.000000 0.000000 0.000000
# 2 -0.007689 0.017705 -0.000499 0.000000 0.000000 0.000000
# 3 -0.002968 -0.000499 0.006595 0.000000 0.000000 0.000000
# 4 0.000000 0.000000 0.000000 0.061072 0.000000 0.000000
# 5 0.000000 0.000000 0.000000 0.000000 0.032348 0.000000
# 6 0.000000 0.000000 0.000000 0.000000 0.000000 0.038588
#
#
# Mechanical properties :
#
#
# Convention : Reuss Voigt Hill
#
# Bulk Modulus (GPa) = 50.44968 56.13787 53.29378
# Shear Modulus (GPa) = 24.62324 29.73239 27.17781
#
# Velocity S-wave (km/s) = 3.83609 4.21533 4.03017
# Velocity P-wave (km/s) = 7.05486 7.56582 7.31480
#
# Compressibility (1/GPa) = 0.01982173
#
# Stress axis : x y z
#
# Youngs Moduli (GPa) = 56.07311 56.48227 151.64060
#
# Poissons Ratio (x) = 0.43429 0.45000
# Poissons Ratio (y) = 0.43114 0.07569
# Poissons Ratio (z) = 0.16640 0.02819
#
# Static dielectric constant tensor:
#      x y z
#    x 1.581840 0.000000 0.000000 
#    y 0.000000 1.550620 0.000000 
#    z 0.000000 0.000000 1.707640 
# 
# From -- ./inp_files/3823.got.cif
#   From: 2010.05.17/outbox.cif.g08.bks.cpg/sg24_2_cif.got.tgz:3823.got - 2010.06.04 00:33:39.
