data_PCOD9333408
_publ_section_title
;
Structure prediction by ZEFSAII (Michael W. Deem and Ramdas Pophale) SiO2 
 PCOD9333408
Probable space group: I 21 21 21
;
_chemical_formula_sum "Si O2"
_cell_formula_units_Z 32
_cell_length_a 13.794705
_cell_length_b 6.867090
_cell_length_c 14.486812
_cell_angle_alpha 90.000000
_cell_angle_beta 90.000000
_cell_angle_gamma 90.000000
_cell_volume 1372.328179
_symmetry_space_group_name_H-M "I 21 21 21"
_symmetry_group_IT_number 24
_symmetry_cell_setting 'orthorhombic'
loop_
_space_group_symop_operation_xyz
x,y,z
-x,1/2-y,z
x,-y,1/2-z
1/2-x,y,-z
1/2+x,1/2+y,1/2+z
1/2-x,-y,1/2+z
1/2+x,1/2-y,-z
-x,1/2+y,1/2-z
loop_
_atom_site_type_symbol
_atom_site_label
_atom_site_fract_x
_atom_site_fract_y
_atom_site_fract_z
Si Si1 0.515106 0.523132 0.355714
Si Si2 0.606478 0.832560 0.676686
Si Si3 0.148903 0.484034 0.520317
Si Si4 0.276728 0.114167 0.102474
O O1 0.500000 0.750000 0.382678
O O2 0.485191 0.500000 0.250000
O O3 0.440339 0.407860 0.420267
O O4 0.631008 0.495265 0.362209
O O5 0.500000 0.750000 0.698371
O O6 0.683468 0.655015 0.665968
O O7 0.634386 0.000000 0.750000
O O8 0.605932 0.934819 0.575686
O O9 0.250000 0.373382 0.500000
O O10 0.188342 0.664071 0.582064
O O11 0.250000 0.044126 0.000000
#
# Coordination Sequence:
#
# PCOD9333408 Si02
#       4
#     8   8   8   8
#     4  10  19  32  53  78 103 133 172 216 261 310
#     4  10  19  32  52  75 101 133 171 213 259 312
#     4   8  16  31  52  73  96 131 173 209 247 306
#     4   8  16  31  51  72  96 133 178 216 247 298
#
# _framework density 23.318037
#
# number of rings (size 3 to 8) (size 9 to 14) (size 15 to 20)
#    0.000    3.500    0.000    3.750    0.000   10.000 
#    0.000    1.250    0.000    1.500    0.000    0.000 
#    0.000    0.000    0.000    0.000    0.000    0.000 
#
# Total GULP energy -89129.597812 kJ/mol
# GULP energy per Si atom -5570.599863 kJ/mol
# Density = 2.326496 g / cm^3
# Si number density = 23.318037 Si / 1000 Ang^3
#
#
#
# Elastic Constant Matrix: (Units=GPa)
#
#
# Indices 1 2 3 4 5 6 
#
# 1 179.0578 43.8511 67.6068 0.0000 0.0000 0.0000
# 2 43.8511 74.0126 6.0891 0.0000 0.0000 0.0000
# 3 67.6068 6.0891 118.6301 0.0000 0.0000 0.0000
# 4 0.0000 0.0000 0.0000 -0.0755 0.0000 0.0000
# 5 0.0000 0.0000 0.0000 0.0000 49.2974 0.0000
# 6 0.0000 0.0000 0.0000 0.0000 0.0000 21.2720
#
#
#
# Elastic Compliance Matrix: (Units=1/GPa)
#
#
# Indices 1 2 3 4 5 6 
#
# 1 0.008446 -0.004627 -0.004576 0.000000 0.000000 0.000000
# 2 -0.004627 0.016104 0.001811 0.000000 0.000000 0.000000
# 3 -0.004576 0.001811 0.010944 0.000000 0.000000 0.000000
# 4 0.000000 0.000000 0.000000-13.251640 0.000000 0.000000
# 5 0.000000 0.000000 0.000000 0.000000 0.020285 0.000000
# 6 0.000000 0.000000 0.000000 0.000000 0.000000 0.047010
#
#
# Mechanical properties :
#
#
# Convention : Reuss Voigt Hill
#
# Bulk Modulus (GPa) = 48.28851 67.42160 57.85505
# Shear Modulus (GPa) = -0.38089 31.04235 15.33073
#
# Velocity S-wave (km/s) = -0.40460 3.65260 2.56688
# Velocity P-wave (km/s) = 4.53159 6.83852 5.80089
#
# Compressibility (1/GPa) = 0.02070886
#
# Stress axis : x y z
#
# Youngs Moduli (GPa) = 118.40384 62.09658 91.37203
#
# Poissons Ratio (x) = 0.28735 0.41808
# Poissons Ratio (y) = 0.54791 -0.16544
# Poissons Ratio (z) = 0.54177 -0.11243
#
# Static dielectric constant tensor:
#      x y z
#    x 2.008970 0.000000 0.000000 
#    y 0.000000 1.845900 0.000000 
#    z 0.000000 0.000000 1.861350 
# 
# From -- ./inp_files/26214.got.cif
#   From: 2010.05.17/outbox.cif.g08.bks.cpg/sg24_14_cif.got.tgz:26214.got - 2010.06.04 00:33:39.
