data_PCOD9333309
_publ_section_title
;
Structure prediction by ZEFSAII (Michael W. Deem and Ramdas Pophale) SiO2 
 PCOD9333309
Probable space group: I 21 21 21
;
_chemical_formula_sum "Si O2"
_cell_formula_units_Z 44
_cell_length_a 16.428040
_cell_length_b 24.431589
_cell_length_c 5.079644
_cell_angle_alpha 90.000000
_cell_angle_beta 90.000000
_cell_angle_gamma 90.000000
_cell_volume 2038.781771
_symmetry_space_group_name_H-M "I 21 21 21"
_symmetry_group_IT_number 24
_symmetry_cell_setting 'orthorhombic'
loop_
_space_group_symop_operation_xyz
x,y,z
-x,1/2-y,z
x,-y,1/2-z
1/2-x,y,-z
1/2+x,1/2+y,1/2+z
1/2-x,-y,1/2+z
1/2+x,1/2-y,-z
-x,1/2+y,1/2-z
loop_
_atom_site_type_symbol
_atom_site_label
_atom_site_fract_x
_atom_site_fract_y
_atom_site_fract_z
Si Si1 0.887039 0.832857 0.225897
Si Si2 0.953719 0.058284 0.359211
Si Si3 0.482284 0.311445 0.232500
Si Si4 0.750000 0.246801 0.500000
Si Si5 0.071344 0.000000 0.750000
Si Si6 0.100459 0.104598 0.003489
Si Si7 0.750000 0.321623 0.000000
O O1 0.909467 0.829861 0.534258
O O2 0.883492 0.896466 0.135304
O O3 0.959979 0.811942 0.038414
O O4 0.815129 0.793529 0.136013
O O5 0.006678 0.039918 0.607455
O O6 0.025302 0.086445 0.187692
O O7 0.924402 0.000000 0.250000
O O8 0.500000 0.250000 0.148407
O O9 0.556912 0.352315 0.191023
O O10 0.776838 0.284748 0.748226
O O11 0.125880 0.955295 0.602332
O O12 0.177165 0.139148 0.102605
#
# Coordination Sequence:
#
# PCOD9333309 Si02
#       7
#     8   8   8   4   4   8   4
#     4  11  22  39  63  90 123 164 201 258 315 369
#     4   9  20  38  66  93 121 159 211 265 305 369
#     4  11  21  36  64  91 118 161 214 256 305 369
#     4  12  26  44  63  91 134 168 206 254 324 374
#     4  10  18  40  64  90 120 160 216 260 308 362
#     4  10  22  39  61  90 127 165 211 254 316 363
#     4  12  28  44  61  91 134 170 204 262 308 378
#
# _framework density 21.581515
#
# number of rings (size 3 to 8) (size 9 to 14) (size 15 to 20)
#    0.000    1.455    1.818    3.818    2.545    1.455 
#    4.909    0.000    2.000    0.000    0.000    0.000 
#    0.000    0.000    0.000    0.000    0.000    0.000 
#
# Total GULP energy -122473.750227 kJ/mol
# GULP energy per Si atom -5566.988647 kJ/mol
# Density = 2.153239 g / cm^3
# Si number density = 21.581515 Si / 1000 Ang^3
#
#
#
# Elastic Constant Matrix: (Units=GPa)
#
#
# Indices 1 2 3 4 5 6 
#
# 1 30.0133 32.6919 -3.9428 0.0000 0.0000 0.0000
# 2 32.6919 169.8468 30.7929 0.0000 0.0000 0.0000
# 3 -3.9428 30.7929 57.9978 0.0000 0.0000 0.0000
# 4 0.0000 0.0000 0.0000 40.8469 0.0000 0.0000
# 5 0.0000 0.0000 0.0000 0.0000 14.7548 0.0000
# 6 0.0000 0.0000 0.0000 0.0000 0.0000 30.6133
#
#
#
# Elastic Compliance Matrix: (Units=1/GPa)
#
#
# Indices 1 2 3 4 5 6 
#
# 1 0.045741 -0.010366 0.008613 0.000000 0.000000 0.000000
# 2 -0.010366 0.008864 -0.005411 0.000000 0.000000 0.000000
# 3 0.008613 -0.005411 0.020700 0.000000 0.000000 0.000000
# 4 0.000000 0.000000 0.000000 0.024482 0.000000 0.000000
# 5 0.000000 0.000000 0.000000 0.000000 0.067775 0.000000
# 6 0.000000 0.000000 0.000000 0.000000 0.000000 0.032665
#
#
# Mechanical properties :
#
#
# Convention : Reuss Voigt Hill
#
# Bulk Modulus (GPa) = 16.39932 41.88245 29.14089
# Shear Modulus (GPa) = 21.28750 30.46407 25.87578
#
# Velocity S-wave (km/s) = 3.14407 3.76118 3.46638
# Velocity P-wave (km/s) = 4.56021 6.18956 5.43628
#
# Compressibility (1/GPa) = 0.06097813
#
# Stress axis : x y z
#
# Youngs Moduli (GPa) = 21.86230 112.81850 48.30846
#
# Poissons Ratio (x) = 1.16944 -0.41608
# Poissons Ratio (y) = 0.22662 0.26139
# Poissons Ratio (z) = -0.18830 0.61043
#
# Static dielectric constant tensor:
#      x y z
#    x 1.817180 0.000000 0.000000 
#    y 0.000000 1.937730 0.000000 
#    z 0.000000 0.000000 1.884990 
# 
# From -- ./inp_files/4803.got.cif
#   From: 2010.05.17/outbox.cif.g08.bks.cpg/sg24_3_cif.got.tgz:4803.got - 2010.06.04 00:33:39.
