data_PCOD9333485
_publ_section_title
;
Structure prediction by ZEFSAII (Michael W. Deem and Ramdas Pophale) SiO2 
 PCOD9333485
Probable space group: I 21 21 21
;
_chemical_formula_sum "Si O2"
_cell_formula_units_Z 48
_cell_length_a 14.598086
_cell_length_b 5.931164
_cell_length_c 24.240546
_cell_angle_alpha 90.000000
_cell_angle_beta 90.000000
_cell_angle_gamma 90.000000
_cell_volume 2098.834760
_symmetry_space_group_name_H-M "I 21 21 21"
_symmetry_group_IT_number 24
_symmetry_cell_setting 'orthorhombic'
loop_
_space_group_symop_operation_xyz
x,y,z
-x,1/2-y,z
x,-y,1/2-z
1/2-x,y,-z
1/2+x,1/2+y,1/2+z
1/2-x,-y,1/2+z
1/2+x,1/2-y,-z
-x,1/2+y,1/2-z
loop_
_atom_site_type_symbol
_atom_site_label
_atom_site_fract_x
_atom_site_fract_y
_atom_site_fract_z
Si Si1 0.084198 0.089264 0.033100
Si Si2 0.975528 0.500498 0.811914
Si Si3 0.772689 0.518936 0.660298
Si Si4 0.222254 0.596723 0.410164
Si Si5 0.402144 0.790048 0.859094
Si Si6 0.672290 0.722735 0.046709
O O1 0.173675 0.244144 0.044783
O O2 0.000000 0.250000 0.021779
O O3 0.074108 0.965709 0.091951
O O4 0.091839 0.903709 0.984928
O O5 0.017554 0.500000 0.750000
O O6 0.865831 0.503600 0.807531
O O7 0.000000 0.250000 0.836601
O O8 0.000000 0.750000 0.837419
O O9 0.746637 0.772417 0.645591
O O10 0.680643 0.389484 0.677579
O O11 0.799972 0.418801 0.600093
O O12 0.145075 0.416607 0.391910
O O13 0.314889 0.477881 0.432207
O O14 0.500000 0.750000 0.830948
O O15 0.750000 0.711894 0.000000
#
# Coordination Sequence:
#
# PCOD9333485 Si02
#       6
#     8   8   8   8   8   8
#     4  11  21  33  51  77 108 164 223 266 317 375
#     4  10  24  48  77 105 134 168 220 288 357 422
#     4  10  23  37  63  93 121 166 213 272 333 404
#     4  10  20  34  56  76 120 158 213 270 314 385
#     4  10  19  33  56  87 118 162 212 261 313 389
#     4  11  21  33  51  78 115 169 210 262 321 369
#
# _framework density 22.869831999999999
#
# number of rings (size 3 to 8) (size 9 to 14) (size 15 to 20)
#    0.000    1.667    6.667    0.000    7.000    0.667 
#    0.000    2.500    0.000    0.000    4.333    0.000 
#    0.000    0.000    0.000    0.000    0.000    0.000 
#
# Total GULP energy -133725.079115 kJ/mol
# GULP energy per Si atom -5571.878296 kJ/mol
# Density = 2.281778 g / cm^3
# Si number density = 22.869832 Si / 1000 Ang^3
#
#
#
# Elastic Constant Matrix: (Units=GPa)
#
#
# Indices 1 2 3 4 5 6 
#
# 1 141.9460 57.2087 3.2188 0.0000 0.0000 0.0000
# 2 57.2087 131.1258 2.0391 0.0000 0.0000 0.0000
# 3 3.2188 2.0391 19.1538 0.0000 0.0000 0.0000
# 4 0.0000 0.0000 0.0000 2.0261 0.0000 0.0000
# 5 0.0000 0.0000 0.0000 0.0000 11.5696 0.0000
# 6 0.0000 0.0000 0.0000 0.0000 0.0000 38.3332
#
#
#
# Elastic Compliance Matrix: (Units=1/GPa)
#
#
# Indices 1 2 3 4 5 6 
#
# 1 0.008569 -0.003722 -0.001044 0.000000 0.000000 0.000000
# 2 -0.003722 0.009256 -0.000360 0.000000 0.000000 0.000000
# 3 -0.001044 -0.000360 0.052423 0.000000 0.000000 0.000000
# 4 0.000000 0.000000 0.000000 0.493547 0.000000 0.000000
# 5 0.000000 0.000000 0.000000 0.000000 0.086433 0.000000
# 6 0.000000 0.000000 0.000000 0.000000 0.000000 0.026087
#
#
# Mechanical properties :
#
#
# Convention : Reuss Voigt Hill
#
# Bulk Modulus (GPa) = 16.66790 46.35099 31.50945
# Shear Modulus (GPa) = 7.07650 25.70307 16.38978
#
# Velocity S-wave (km/s) = 1.76096 3.35608 2.67995
# Velocity P-wave (km/s) = 3.38210 5.94382 4.83568
#
# Compressibility (1/GPa) = 0.05999554
#
# Stress axis : x y z
#
# Youngs Moduli (GPa) = 116.70274 108.04006 19.07576
#
# Poissons Ratio (x) = 0.40215 0.01991
# Poissons Ratio (y) = 0.43439 0.00686
# Poissons Ratio (z) = 0.12180 0.03888
#
# Static dielectric constant tensor:
#      x y z
#    x 1.905220 0.000000 0.000000 
#    y 0.000000 1.997310 0.000000 
#    z 0.000000 0.000000 1.822300 
# 
# From -- ./inp_files/3916.got.cif
#   From: 2010.05.17/outbox.cif.g08.bks.cpg/sg24_2_cif.got.tgz:3916.got - 2010.06.04 00:33:39.
