data_PCOD9333719
_publ_section_title
;
Structure prediction by ZEFSAII (Michael W. Deem and Ramdas Pophale) SiO2 
 PCOD9333719
Probable space group: I 21 21 21
;
_chemical_formula_sum "Si O2"
_cell_formula_units_Z 48
_cell_length_a 18.919146
_cell_length_b 13.001980
_cell_length_c 7.889989
_cell_angle_alpha 90.000000
_cell_angle_beta 90.000000
_cell_angle_gamma 90.000000
_cell_volume 1940.829658
_symmetry_space_group_name_H-M "I 21 21 21"
_symmetry_group_IT_number 24
_symmetry_cell_setting 'orthorhombic'
loop_
_space_group_symop_operation_xyz
x,y,z
-x,1/2-y,z
x,-y,1/2-z
1/2-x,y,-z
1/2+x,1/2+y,1/2+z
1/2-x,-y,1/2+z
1/2+x,1/2-y,-z
-x,1/2+y,1/2-z
loop_
_atom_site_type_symbol
_atom_site_label
_atom_site_fract_x
_atom_site_fract_y
_atom_site_fract_z
Si Si1 0.397830 0.114175 0.698788
Si Si2 0.796769 0.235288 0.167238
Si Si3 0.965752 0.649349 0.650824
Si Si4 0.334271 0.793215 0.138719
Si Si5 0.981033 0.946321 0.996649
Si Si6 0.174966 0.576821 0.053231
O O1 0.368239 0.197882 0.830374
O O2 0.361577 0.140996 0.518626
O O3 0.481222 0.113234 0.650547
O O4 0.376679 0.000000 0.750000
O O5 0.744121 0.301213 0.289057
O O6 0.814368 0.128523 0.262514
O O7 0.750000 0.220895 0.000000
O O8 0.888144 0.677588 0.713717
O O9 0.000000 0.750000 0.573743
O O10 0.009569 0.620394 0.824705
O O11 0.973705 0.548828 0.537922
O O12 0.335683 0.675601 0.072228
O O13 0.900346 0.976871 0.032425
O O14 0.250000 0.528446 0.000000
#
# Coordination Sequence:
#
# PCOD9333719 Si02
#       6
#     8   8   8   8   8   8
#     4  10  22  38  58  90 138 179 226 286 357 440
#     4  10  22  37  63  97 133 182 236 292 363 430
#     4  10  19  36  67 103 137 172 237 296 345 452
#     4   9  19  38  63  94 131 174 227 283 357 425
#     4  10  21  37  67 102 134 192 233 289 376 429
#     4   9  18  39  70  97 135 184 235 287 359 440
#
# _framework density 24.731691999999999
#
# number of rings (size 3 to 8) (size 9 to 14) (size 15 to 20)
#    0.000    2.333    1.667    1.500    2.333    1.333 
#    3.000    1.667    7.333    1.000    0.000    0.000 
#    0.000    0.000    0.000    0.000    0.000    0.000 
#
# Total GULP energy -134183.904396 kJ/mol
# GULP energy per Si atom -5590.996016 kJ/mol
# Density = 2.467540 g / cm^3
# Si number density = 24.731692 Si / 1000 Ang^3
#
#
#
# Elastic Constant Matrix: (Units=GPa)
#
#
# Indices 1 2 3 4 5 6 
#
# 1 145.4969 14.4858 30.9886 0.0000 0.0000 0.0000
# 2 14.4858 63.1615 7.9753 0.0000 0.0000 0.0000
# 3 30.9886 7.9753 101.8585 0.0000 0.0000 0.0000
# 4 0.0000 0.0000 0.0000 29.1112 0.0000 0.0000
# 5 0.0000 0.0000 0.0000 0.0000 37.9495 0.0000
# 6 0.0000 0.0000 0.0000 0.0000 0.0000 30.7553
#
#
#
# Elastic Compliance Matrix: (Units=1/GPa)
#
#
# Indices 1 2 3 4 5 6 
#
# 1 0.007477 -0.001442 -0.002162 0.000000 0.000000 0.000000
# 2 -0.001442 0.016269 -0.000835 0.000000 0.000000 0.000000
# 3 -0.002162 -0.000835 0.010541 0.000000 0.000000 0.000000
# 4 0.000000 0.000000 0.000000 0.034351 0.000000 0.000000
# 5 0.000000 0.000000 0.000000 0.000000 0.026351 0.000000
# 6 0.000000 0.000000 0.000000 0.000000 0.000000 0.032515
#
#
# Mechanical properties :
#
#
# Convention : Reuss Voigt Hill
#
# Bulk Modulus (GPa) = 39.35684 46.37957 42.86820
# Shear Modulus (GPa) = 34.51850 36.70103 35.60977
#
# Velocity S-wave (km/s) = 3.73999 3.85641 3.79864
# Velocity P-wave (km/s) = 5.88201 6.21474 6.05066
#
# Compressibility (1/GPa) = 0.02540855
#
# Stress axis : x y z
#
# Youngs Moduli (GPa) = 133.74368 61.46823 94.87096
#
# Poissons Ratio (x) = 0.08863 0.20510
# Poissons Ratio (y) = 0.19284 0.07923
# Poissons Ratio (z) = 0.28913 0.05133
#
# Static dielectric constant tensor:
#      x y z
#    x 1.992450 0.000000 0.000000 
#    y 0.000000 1.937010 0.000000 
#    z 0.000000 0.000000 2.051840 
# 
# From -- ./inp_files/14164.got.cif
#   From: 2010.05.17/outbox.cif.g08.bks.cpg/sg24_8_cif.got.tgz:14164.got - 2010.06.04 00:33:39.
