data_PCOD9333902
_publ_section_title
;
Structure prediction by ZEFSAII (Michael W. Deem and Ramdas Pophale) SiO2 
 PCOD9333902
Probable space group: I 21 21 21
;
_chemical_formula_sum "Si O2"
_cell_formula_units_Z 56
_cell_length_a 21.817897
_cell_length_b 20.117451
_cell_length_c 6.919131
_cell_angle_alpha 90.000000
_cell_angle_beta 90.000000
_cell_angle_gamma 90.000000
_cell_volume 3036.948257
_symmetry_space_group_name_H-M "I 21 21 21"
_symmetry_group_IT_number 24
_symmetry_cell_setting 'orthorhombic'
loop_
_space_group_symop_operation_xyz
x,y,z
-x,1/2-y,z
x,-y,1/2-z
1/2-x,y,-z
1/2+x,1/2+y,1/2+z
1/2-x,-y,1/2+z
1/2+x,1/2-y,-z
-x,1/2+y,1/2-z
loop_
_atom_site_type_symbol
_atom_site_label
_atom_site_fract_x
_atom_site_fract_y
_atom_site_fract_z
Si Si1 0.629410 0.752781 0.125237
Si Si2 0.750000 0.166793 0.500000
Si Si3 0.793467 0.929674 0.674193
Si Si4 0.990406 0.439221 0.866393
Si Si5 0.905468 0.161011 0.954436
Si Si6 0.416683 0.111603 0.479786
Si Si7 0.966446 0.185150 0.343257
Si Si8 0.569522 0.500000 0.750000
O O1 0.691083 0.786486 0.041872
O O2 0.614807 0.770132 0.350186
O O3 0.623865 0.676124 0.064355
O O4 0.572922 0.789608 0.021977
O O5 0.753645 0.115972 0.680248
O O6 0.750000 0.947415 0.500000
O O7 0.850300 0.886835 0.602756
O O8 0.816446 0.000000 0.750000
O O9 0.022042 0.500000 0.750000
O O10 0.933937 0.420929 0.725748
O O11 0.032669 0.374413 0.878675
O O12 0.970348 0.465039 0.078352
O O13 0.918553 0.162440 0.181923
O O14 0.480822 0.136389 0.579485
O O15 0.393657 0.056510 0.631891
O O16 0.000000 0.250000 0.255700
#
# Coordination Sequence:
#
# PCOD9333902 Si02
#       8
#     8   4   8   8   8   8   8   4
#     4  10  22  36  57  82 110 149 191 243 282 338
#     4  10  22  42  58  80 112 148 200 242 286 328
#     4  11  22  39  55  76 108 155 199 239 277 323
#     4  10  20  33  49  78 115 143 185 222 277 349
#     4  11  21  33  53  77 110 150 187 236 282 330
#     4  10  20  35  55  84 114 148 186 232 294 351
#     4  10  20  32  53  81 113 146 184 230 288 342
#     4  10  20  36  54  82 120 152 178 228 288 366
#
# _framework density 18.439564000000001
#
# number of rings (size 3 to 8) (size 9 to 14) (size 15 to 20)
#    0.000    1.714    3.571    1.286    2.000    0.000 
#    1.286    0.000    0.000    0.000    5.571    0.000 
#    0.000    0.000    0.000    0.000    0.000    0.000 
#
# Total GULP energy -155908.036129 kJ/mol
# GULP energy per Si atom -5568.144147 kJ/mol
# Density = 1.839759 g / cm^3
# Si number density = 18.439564 Si / 1000 Ang^3
#
#
#
# Elastic Constant Matrix: (Units=GPa)
#
#
# Indices 1 2 3 4 5 6 
#
# 1 31.1493 15.0668 6.0751 0.0000 0.0000 0.0000
# 2 15.0668 93.0175 26.3320 0.0000 0.0000 0.0000
# 3 6.0751 26.3320 78.9964 0.0000 0.0000 0.0000
# 4 0.0000 0.0000 0.0000 34.3639 0.0000 0.0000
# 5 0.0000 0.0000 0.0000 0.0000 17.4927 0.0000
# 6 0.0000 0.0000 0.0000 0.0000 0.0000 18.0311
#
#
#
# Elastic Compliance Matrix: (Units=1/GPa)
#
#
# Indices 1 2 3 4 5 6 
#
# 1 0.034888 -0.005401 -0.000883 0.000000 0.000000 0.000000
# 2 -0.005401 0.012707 -0.003820 0.000000 0.000000 0.000000
# 3 -0.000883 -0.003820 0.014000 0.000000 0.000000 0.000000
# 4 0.000000 0.000000 0.000000 0.029100 0.000000 0.000000
# 5 0.000000 0.000000 0.000000 0.000000 0.057167 0.000000
# 6 0.000000 0.000000 0.000000 0.000000 0.000000 0.055460
#
#
# Mechanical properties :
#
#
# Convention : Reuss Voigt Hill
#
# Bulk Modulus (GPa) = 24.16219 33.12343 28.64281
# Shear Modulus (GPa) = 21.06808 24.35683 22.71245
#
# Velocity S-wave (km/s) = 3.38383 3.63836 3.51340
# Velocity P-wave (km/s) = 5.32906 5.97097 5.65913
#
# Compressibility (1/GPa) = 0.04138698
#
# Stress axis : x y z
#
# Youngs Moduli (GPa) = 28.66306 78.69666 71.42805
#
# Poissons Ratio (x) = 0.42506 0.06304
# Poissons Ratio (y) = 0.15482 0.27287
# Poissons Ratio (z) = 0.02530 0.30064
#
# Static dielectric constant tensor:
#      x y z
#    x 1.591250 0.000000 0.000000 
#    y 0.000000 1.695180 0.000000 
#    z 0.000000 0.000000 1.690430 
# 
# From -- ./inp_files/6533.got.cif
#   From: 2010.05.17/outbox.cif.g08.bks.cpg/sg24_4_cif.got.tgz:6533.got - 2010.06.04 00:33:39.
