data_PCOD9333837
_publ_section_title
;
Structure prediction by ZEFSAII (Michael W. Deem and Ramdas Pophale) SiO2 
 PCOD9333837
Probable space group: I 21 21 21
;
_chemical_formula_sum "Si O2"
_cell_formula_units_Z 36
_cell_length_a 7.562170
_cell_length_b 26.027466
_cell_length_c 7.505144
_cell_angle_alpha 90.000000
_cell_angle_beta 90.000000
_cell_angle_gamma 90.000000
_cell_volume 1477.193382
_symmetry_space_group_name_H-M "I 21 21 21"
_symmetry_group_IT_number 24
_symmetry_cell_setting 'orthorhombic'
loop_
_space_group_symop_operation_xyz
x,y,z
-x,1/2-y,z
x,-y,1/2-z
1/2-x,y,-z
1/2+x,1/2+y,1/2+z
1/2-x,-y,1/2+z
1/2+x,1/2-y,-z
-x,1/2+y,1/2-z
loop_
_atom_site_type_symbol
_atom_site_label
_atom_site_fract_x
_atom_site_fract_y
_atom_site_fract_z
Si Si1 0.091929 0.964714 0.596327
Si Si2 0.289364 0.244032 0.711103
Si Si3 0.715652 0.368448 0.712983
Si Si4 0.250000 0.431888 0.000000
Si Si5 0.208607 0.355910 0.291146
O O1 0.250000 0.994206 0.500000
O O2 0.188164 0.913939 0.679241
O O3 0.931203 0.959689 0.459787
O O4 0.016576 0.000000 0.750000
O O5 0.500000 0.250000 0.734410
O O6 0.250000 0.242946 0.500000
O O7 0.222631 0.188827 0.776441
O O8 0.223970 0.299697 0.772468
O O9 0.750000 0.373211 0.500000
O O10 0.502255 0.364675 0.734433
O O11 0.198771 0.397572 0.830980
O O12 0.250000 0.360817 0.500000
#
# Coordination Sequence:
#
# PCOD9333837 Si02
#       5
#     8   8   8   4   8
#     4  12  27  49  72  98 135 180 241 303 362 421
#     4   8  16  31  59  96 138 183 224 268 339 418
#     4  10  19  40  67  98 139 186 232 287 345 417
#     4  12  26  48  70 106 140 174 238 298 358 430
#     4  10  20  39  67 104 145 184 227 281 351 424
#
# _framework density 24.370538
#
# number of rings (size 3 to 8) (size 9 to 14) (size 15 to 20)
#    0.000    1.778    2.222    2.000    0.000    2.667 
#    8.000    0.000    0.000    0.000    0.000    0.000 
#    0.000    0.000    0.000    0.000    0.000    0.000 
#
# Total GULP energy -100466.494621 kJ/mol
# GULP energy per Si atom -5581.471923 kJ/mol
# Density = 2.431507 g / cm^3
# Si number density = 24.370538 Si / 1000 Ang^3
#
#
#
# Elastic Constant Matrix: (Units=GPa)
#
#
# Indices 1 2 3 4 5 6 
#
# 1 107.2854 16.7356 -9.4562 0.0002 -0.0006 -0.0001
# 2 16.7356 79.2587 11.2604 -0.0004 -0.0003 0.0002
# 3 -9.4562 11.2604 58.7532 0.0077 -0.0021 -0.0002
# 4 0.0002 -0.0004 0.0077 50.9136 -0.0004 0.0006
# 5 -0.0006 -0.0003 -0.0021 -0.0004 25.2735 0.0003
# 6 -0.0001 0.0002 -0.0002 0.0006 0.0003 2.6271
#
#
#
# Elastic Compliance Matrix: (Units=1/GPa)
#
#
# Indices 1 2 3 4 5 6 
#
# 1 0.009872 -0.002375 0.002044 0.000000 0.000000 0.000001
# 2 -0.002375 0.013541 -0.002978 0.000001 0.000000 -0.000001
# 3 0.002044 -0.002978 0.017920 -0.000003 0.000001 0.000001
# 4 0.000000 0.000001 -0.000003 0.019641 0.000000 -0.000004
# 5 0.000000 0.000000 0.000001 0.000000 0.039567 -0.000005
# 6 0.000001 -0.000001 0.000001 -0.000004 -0.000005 0.380651
#
#
# Mechanical properties :
#
#
# Convention : Reuss Voigt Hill
#
# Bulk Modulus (GPa) = 28.80498 31.37521 30.09010
# Shear Modulus (GPa) = 10.01240 30.88001 20.44621
#
# Velocity S-wave (km/s) = 2.02912 3.56350 2.89964
# Velocity P-wave (km/s) = 4.16353 5.46201 4.85637
#
# Compressibility (1/GPa) = 0.03471622
#
# Stress axis : x y z
#
# Youngs Moduli (GPa) = 101.30144 73.84775 55.80361
#
# Poissons Ratio (x) = 0.17537 -0.11406
# Poissons Ratio (y) = 0.24057 0.16616
# Poissons Ratio (z) = -0.20705 0.21988
#
# Static dielectric constant tensor:
#      x y z
#    x 1.873430 0.000000 0.000000 
#    y 0.000000 1.991440 0.000000 
#    z 0.000000 0.000000 1.905050 
# 
# From -- ./inp_files/9242.got.cif
#   From: 2010.05.17/outbox.cif.g08.bks.cpg/sg24_5_cif.got.tgz:9242.got - 2010.06.04 00:33:39.
