data_PCOD9333838
_publ_section_title
;
Structure prediction by ZEFSAII (Michael W. Deem and Ramdas Pophale) SiO2 
 PCOD9333838
Probable space group: I 21 21 21
;
_chemical_formula_sum "Si O2"
_cell_formula_units_Z 48
_cell_length_a 8.391881
_cell_length_b 18.331002
_cell_length_c 15.243218
_cell_angle_alpha 90.000000
_cell_angle_beta 90.000000
_cell_angle_gamma 90.000000
_cell_volume 2344.888422
_symmetry_space_group_name_H-M "I 21 21 21"
_symmetry_group_IT_number 24
_symmetry_cell_setting 'orthorhombic'
loop_
_space_group_symop_operation_xyz
x,y,z
-x,1/2-y,z
x,-y,1/2-z
1/2-x,y,-z
1/2+x,1/2+y,1/2+z
1/2-x,-y,1/2+z
1/2+x,1/2-y,-z
-x,1/2+y,1/2-z
loop_
_atom_site_type_symbol
_atom_site_label
_atom_site_fract_x
_atom_site_fract_y
_atom_site_fract_z
Si Si1 0.630503 0.311524 0.729286
Si Si2 0.373987 0.184717 0.925032
Si Si3 0.631927 0.311301 0.417592
Si Si4 0.091198 0.443435 0.328281
Si Si5 0.431518 0.452676 0.991597
Si Si6 0.033905 0.455617 0.662259
O O1 0.500000 0.250000 0.739993
O O2 0.694021 0.327848 0.827038
O O3 0.762325 0.282680 0.663010
O O4 0.532643 0.378625 0.687235
O O5 0.500000 0.250000 0.921456
O O6 0.459015 0.110862 0.955704
O O7 0.250000 0.204212 0.000000
O O8 0.500000 0.250000 0.441094
O O9 0.750000 0.324446 0.500000
O O10 0.559896 0.385896 0.376304
O O11 0.060218 0.500000 0.250000
O O12 0.065325 0.481488 0.421776
O O13 0.282071 0.428792 0.323886
O O14 0.250000 0.425513 0.000000
O O15 0.474883 0.484379 0.085676
O O16 0.982994 0.500000 0.750000
#
# Coordination Sequence:
#
# PCOD9333838 Si02
#       6
#     8   8   8   8   8   8
#     4  11  24  42  67  97 130 174 223 274 339 397
#     4  11  25  42  62  92 128 172 217 268 329 401
#     4  12  27  47  70 102 136 184 231 290 342 405
#     4  10  19  40  68  97 132 177 218 268 329 411
#     4  10  21  40  66  94 129 173 214 264 330 395
#     4  10  24  42  67 103 138 173 225 278 340 405
#
# _framework density 20.470057000000001
#
# number of rings (size 3 to 8) (size 9 to 14) (size 15 to 20)
#    0.000    1.333    1.667    3.000    2.333    5.333 
#    0.000    0.000    0.000    0.000    0.000    0.000 
#    0.000    0.000    0.000    0.000    0.000    0.000 
#
# Total GULP energy -134020.948918 kJ/mol
# GULP energy per Si atom -5584.206205 kJ/mol
# Density = 2.042347 g / cm^3
# Si number density = 20.470057 Si / 1000 Ang^3
#
#
#
# Elastic Constant Matrix: (Units=GPa)
#
#
# Indices 1 2 3 4 5 6 
#
# 1 57.6487 31.3944 46.5345 0.0000 0.0000 0.0000
# 2 31.3944 60.4145 24.9049 0.0000 0.0000 0.0000
# 3 46.5345 24.9049 166.2473 0.0000 0.0000 0.0000
# 4 0.0000 0.0000 0.0000 1.9647 0.0000 0.0000
# 5 0.0000 0.0000 0.0000 0.0000 48.8547 0.0000
# 6 0.0000 0.0000 0.0000 0.0000 0.0000 31.8540
#
#
#
# Elastic Compliance Matrix: (Units=1/GPa)
#
#
# Indices 1 2 3 4 5 6 
#
# 1 0.029326 -0.012636 -0.006316 0.000000 0.000000 0.000000
# 2 -0.012636 0.023086 0.000078 0.000000 0.000000 0.000000
# 3 -0.006316 0.000078 0.007771 0.000000 0.000000 0.000000
# 4 0.000000 0.000000 0.000000 0.508983 0.000000 0.000000
# 5 0.000000 0.000000 0.000000 0.000000 0.020469 0.000000
# 6 0.000000 0.000000 0.000000 0.000000 0.000000 0.031393
#
#
# Mechanical properties :
#
#
# Convention : Reuss Voigt Hill
#
# Bulk Modulus (GPa) = 44.56877 54.44203 49.50540
# Shear Modulus (GPa) = 7.50466 28.63312 18.06889
#
# Velocity S-wave (km/s) = 1.91680 3.74409 2.97425
# Velocity P-wave (km/s) = 5.16902 6.73384 6.00264
#
# Compressibility (1/GPa) = 0.02243723
#
# Stress axis : x y z
#
# Youngs Moduli (GPa) = 34.09989 43.31620 128.67990
#
# Poissons Ratio (x) = 0.54732 0.81270
# Poissons Ratio (y) = 0.43087 -0.01009
# Poissons Ratio (z) = 0.21536 -0.00340
#
# Static dielectric constant tensor:
#      x y z
#    x 1.751640 0.000000 0.000000 
#    y 0.000000 1.681210 0.000000 
#    z 0.000000 0.000000 1.738180 
# 
# From -- ./inp_files/24793.got.cif
#   From: 2010.05.17/outbox.cif.g08.bks.cpg/sg24_13_cif.got.tgz:24793.got - 2010.06.04 00:33:39.
