data_PCOD9333672
_publ_section_title
;
Structure prediction by ZEFSAII (Michael W. Deem and Ramdas Pophale) SiO2 
 PCOD9333672
Probable space group: I 21 21 21
;
_chemical_formula_sum "Si O2"
_cell_formula_units_Z 40
_cell_length_a 14.558632
_cell_length_b 8.314092
_cell_length_c 14.496118
_cell_angle_alpha 90.000000
_cell_angle_beta 90.000000
_cell_angle_gamma 90.000000
_cell_volume 1754.636300
_symmetry_space_group_name_H-M "I 21 21 21"
_symmetry_group_IT_number 24
_symmetry_cell_setting 'orthorhombic'
loop_
_space_group_symop_operation_xyz
x,y,z
-x,1/2-y,z
x,-y,1/2-z
1/2-x,y,-z
1/2+x,1/2+y,1/2+z
1/2-x,-y,1/2+z
1/2+x,1/2-y,-z
-x,1/2+y,1/2-z
loop_
_atom_site_type_symbol
_atom_site_label
_atom_site_fract_x
_atom_site_fract_y
_atom_site_fract_z
Si Si1 0.866662 0.926841 0.123150
Si Si2 0.275547 0.226440 0.895202
Si Si3 0.853766 0.671567 0.965801
Si Si4 0.806143 0.182869 0.726254
Si Si5 0.044150 0.923636 0.419043
O O1 0.802459 0.834629 0.195829
O O2 0.809934 0.089069 0.104719
O O3 0.874752 0.823366 0.030948
O O4 0.970233 0.981284 0.142139
O O5 0.195219 0.216791 0.820588
O O6 0.250000 0.195335 0.000000
O O7 0.360964 0.115310 0.868274
O O8 0.852577 0.731015 0.860505
O O9 0.924251 0.531745 0.994114
O O10 0.750000 0.630749 0.000000
O O11 0.837855 0.000000 0.750000
O O12 0.000000 0.750000 0.444625
#
# Coordination Sequence:
#
# PCOD9333672 Si02
#       5
#     8   8   8   8   8
#     4   9  18  35  59  86 117 151 194 249 307 358
#     4  10  19  36  59  85 119 156 195 244 301 360
#     4  10  19  36  60  87 118 159 204 247 298 364
#     4   9  18  35  62  93 117 151 203 256 305 357
#     4  10  21  36  56  85 124 163 195 244 309 361
#
# _framework density 22.796748000000001
#
# number of rings (size 3 to 8) (size 9 to 14) (size 15 to 20)
#    0.000    2.400    0.000    4.200    0.000    0.000 
#    0.000   39.000    0.000   16.800    0.000    0.000 
#    0.000    0.000    0.000    0.000    0.000    0.000 
#
# Total GULP energy -111593.886313 kJ/mol
# GULP energy per Si atom -5579.694316 kJ/mol
# Density = 2.274486 g / cm^3
# Si number density = 22.796748 Si / 1000 Ang^3
#
#
#
# Elastic Constant Matrix: (Units=GPa)
#
#
# Indices 1 2 3 4 5 6 
#
# 1 39.2006 14.6432 0.3388 0.0000 0.0000 0.0000
# 2 14.6432 71.4993 45.0085 0.0000 0.0000 0.0000
# 3 0.3388 45.0085 132.9203 0.0000 0.0000 0.0000
# 4 0.0000 0.0000 0.0000 15.8165 0.0000 0.0000
# 5 0.0000 0.0000 0.0000 0.0000 11.4273 0.0000
# 6 0.0000 0.0000 0.0000 0.0000 0.0000 26.3808
#
#
#
# Elastic Compliance Matrix: (Units=1/GPa)
#
#
# Indices 1 2 3 4 5 6 
#
# 1 0.028210 -0.007285 0.002395 0.000000 0.000000 0.000000
# 2 -0.007285 0.019656 -0.006637 0.000000 0.000000 0.000000
# 3 0.002395 -0.006637 0.009765 0.000000 0.000000 0.000000
# 4 0.000000 0.000000 0.000000 0.063225 0.000000 0.000000
# 5 0.000000 0.000000 0.000000 0.000000 0.087510 0.000000
# 6 0.000000 0.000000 0.000000 0.000000 0.000000 0.037906
#
#
# Mechanical properties :
#
#
# Convention : Reuss Voigt Hill
#
# Bulk Modulus (GPa) = 28.92148 40.40013 34.66081
# Shear Modulus (GPa) = 17.80290 22.96691 20.38491
#
# Velocity S-wave (km/s) = 2.79756 3.17750 2.99357
# Velocity P-wave (km/s) = 4.81138 5.58770 5.21401
#
# Compressibility (1/GPa) = 0.03457638
#
# Stress axis : x y z
#
# Youngs Moduli (GPa) = 35.44785 50.87420 102.40999
#
# Poissons Ratio (x) = 0.37063 -0.24527
# Poissons Ratio (y) = 0.25824 0.67973
# Poissons Ratio (z) = -0.08490 0.33767
#
# Static dielectric constant tensor:
#      x y z
#    x 1.887440 0.000000 0.000000 
#    y 0.000000 1.906010 0.000000 
#    z 0.000000 0.000000 1.879360 
# 
# From -- ./inp_files/10671.got.cif
#   From: 2010.05.17/outbox.cif.g08.bks.cpg/sg24_6_cif.got.tgz:10671.got - 2010.06.04 00:33:39.
