data_PCOD9333300
_publ_section_title
;
Structure prediction by ZEFSAII (Michael W. Deem and Ramdas Pophale) SiO2 
 PCOD9333300
Probable space group: I 21 21 21
;
_chemical_formula_sum "Si O2"
_cell_formula_units_Z 48
_cell_length_a 9.981748
_cell_length_b 26.270011
_cell_length_c 9.570810
_cell_angle_alpha 90.000000
_cell_angle_beta 90.000000
_cell_angle_gamma 90.000000
_cell_volume 2509.663826
_symmetry_space_group_name_H-M "I 21 21 21"
_symmetry_group_IT_number 24
_symmetry_cell_setting 'orthorhombic'
loop_
_space_group_symop_operation_xyz
x,y,z
-x,1/2-y,z
x,-y,1/2-z
1/2-x,y,-z
1/2+x,1/2+y,1/2+z
1/2-x,-y,1/2+z
1/2+x,1/2-y,-z
-x,1/2+y,1/2-z
loop_
_atom_site_type_symbol
_atom_site_label
_atom_site_fract_x
_atom_site_fract_y
_atom_site_fract_z
Si Si1 0.750000 0.510594 0.000000
Si Si2 0.652558 0.765652 0.626696
Si Si3 0.578898 0.500000 0.250000
Si Si4 0.254191 0.154218 0.163590
Si Si5 0.794050 0.145791 0.339894
Si Si6 0.062139 0.902418 0.119246
Si Si7 0.995925 0.111533 0.689167
O O1 0.670640 0.482009 0.120290
O O2 0.858015 0.546056 0.081692
O O3 0.500000 0.750000 0.583917
O O4 0.750000 0.783348 0.500000
O O5 0.721232 0.713710 0.679512
O O6 0.649467 0.807443 0.749557
O O7 0.502536 0.550219 0.201482
O O8 0.149721 0.124574 0.262335
O O9 0.401326 0.139267 0.211443
O O10 0.250000 0.142084 0.000000
O O11 0.750000 0.158641 0.500000
O O12 0.653390 0.128069 0.278558
O O13 0.906071 0.101069 0.337786
O O14 0.050338 0.875469 0.967075
#
# Coordination Sequence:
#
# PCOD9333300 Si02
#       7
#     4   8   4   8   8   8   8
#     4  10  20  36  64  92 122 156 202 264 298 364
#     4  11  25  41  59  89 127 162 202 253 306 366
#     4  10  20  36  60  92 118 154 202 250 312 360
#     4  11  22  36  60  88 118 161 203 246 299 361
#     4  10  23  40  63  89 122 166 204 250 304 365
#     4  10  18  40  60  87 118 158 195 251 304 350
#     4  10  22  38  62  88 123 156 199 254 308 361
#
# _framework density 19.126066000000002
#
# number of rings (size 3 to 8) (size 9 to 14) (size 15 to 20)
#    0.000    1.667    5.000    0.000    5.833    1.333 
#    0.000    0.833    0.000    7.000    0.000    0.000 
#    0.000    0.000    0.000    0.000    0.000    0.000 
#
# Total GULP energy -133712.585517 kJ/mol
# GULP energy per Si atom -5571.357730 kJ/mol
# Density = 1.908253 g / cm^3
# Si number density = 19.126066 Si / 1000 Ang^3
#
#
#
# Elastic Constant Matrix: (Units=GPa)
#
#
# Indices 1 2 3 4 5 6 
#
# 1 150.9402 28.6509 41.5000 0.0010 0.0002 -0.0072
# 2 28.6509 40.9424 16.2911 0.0003 0.0000 0.0018
# 3 41.5000 16.2911 61.3238 0.0022 0.0057 -0.0565
# 4 0.0010 0.0003 0.0022 26.9473 0.0015 -0.0143
# 5 0.0002 0.0000 0.0057 0.0015 16.3503 -0.0196
# 6 -0.0072 0.0018 -0.0565 -0.0143 -0.0196 142.8809
#
#
#
# Elastic Compliance Matrix: (Units=1/GPa)
#
#
# Indices 1 2 3 4 5 6 
#
# 1 0.008744 -0.004209 -0.004799 0.000000 0.000002 -0.000001
# 2 -0.004209 0.029338 -0.004945 0.000000 0.000002 -0.000003
# 3 -0.004799 -0.004945 0.020868 -0.000001 -0.000007 0.000008
# 4 0.000000 0.000000 -0.000001 0.037109 -0.000003 0.000004
# 5 0.000002 0.000002 -0.000007 -0.000003 0.061161 0.000008
# 6 -0.000001 -0.000003 0.000008 0.000004 0.000008 0.006999
#
#
# Mechanical properties :
#
#
# Convention : Reuss Voigt Hill
#
# Bulk Modulus (GPa) = 32.21346 47.34336 39.77841
# Shear Modulus (GPa) = 24.69466 48.35335 36.52400
#
# Velocity S-wave (km/s) = 3.59716 5.03351 4.37469
# Velocity P-wave (km/s) = 5.84226 7.65433 6.80885
#
# Compressibility (1/GPa) = 0.03104292
#
# Stress axis : x y z
#
# Youngs Moduli (GPa) = 114.37045 34.08572 47.91969
#
# Poissons Ratio (x) = 0.14347 0.22996
# Poissons Ratio (y) = 0.48140 0.23698
# Poissons Ratio (z) = 0.54885 0.16857
#
# Static dielectric constant tensor:
#      x y z
#    x 1.676940 0.000000 0.000000 
#    y 0.000000 1.653190 0.000000 
#    z 0.000000 0.000000 1.670480 
# 
# From -- ./inp_files/9783.got.cif
#   From: 2010.05.17/outbox.cif.g08.bks.cpg/sg24_5_cif.got.tgz:9783.got - 2010.06.04 00:33:39.
