data_PCOD9333957
_publ_section_title
;
Structure prediction by ZEFSAII (Michael W. Deem and Ramdas Pophale) SiO2 
 PCOD9333957
Probable space group: I 21 21 21
;
_chemical_formula_sum "Si O2"
_cell_formula_units_Z 48
_cell_length_a 13.540816
_cell_length_b 12.933884
_cell_length_c 12.468685
_cell_angle_alpha 90.000000
_cell_angle_beta 90.000000
_cell_angle_gamma 90.000000
_cell_volume 2183.707429
_symmetry_space_group_name_H-M "I 21 21 21"
_symmetry_group_IT_number 24
_symmetry_cell_setting 'orthorhombic'
loop_
_space_group_symop_operation_xyz
x,y,z
-x,1/2-y,z
x,-y,1/2-z
1/2-x,y,-z
1/2+x,1/2+y,1/2+z
1/2-x,-y,1/2+z
1/2+x,1/2-y,-z
-x,1/2+y,1/2-z
loop_
_atom_site_type_symbol
_atom_site_label
_atom_site_fract_x
_atom_site_fract_y
_atom_site_fract_z
Si Si1 0.678361 0.284307 0.840875
Si Si2 0.111066 0.456631 0.535770
Si Si3 0.584357 0.567660 0.150103
Si Si4 0.627940 0.805929 0.448932
Si Si5 0.500000 0.750000 0.262230
Si Si6 0.711249 0.101720 0.677498
Si Si7 0.725352 0.500000 0.750000
O O1 0.785546 0.261982 0.894861
O O2 0.680632 0.200610 0.746409
O O3 0.669501 0.399617 0.794488
O O4 0.607265 0.254189 0.940129
O O5 0.146650 0.575169 0.522238
O O6 0.175714 0.406957 0.632715
O O7 0.143542 0.401427 0.427481
O O8 0.993795 0.450847 0.556385
O O9 0.544914 0.500000 0.250000
O O10 0.572834 0.685173 0.188414
O O11 0.699153 0.535740 0.153705
O O12 0.553932 0.819941 0.350209
O O13 0.696316 0.000000 0.750000
#
# Coordination Sequence:
#
# PCOD9333957 Si02
#       7
#     8   8   8   8   4   8   4
#     4  11  21  36  59  86 123 160 201 247 296 367
#     4  11  20  32  56  93 120 152 197 258 327 351
#     4  10  20  33  57  88 121 149 195 257 306 349
#     4  11  19  34  60  90 115 155 211 247 296 371
#     4  12  20  34  62  92 114 158 196 258 308 348
#     4  11  19  33  55  87 121 151 197 256 308 359
#     4  10  22  38  56  88 124 162 196 244 300 356
#
# _framework density 21.980967
#
# number of rings (size 3 to 8) (size 9 to 14) (size 15 to 20)
#    0.500    0.667    6.667    2.500    0.000    0.000 
#    0.000    3.333    3.667    3.000    0.000    0.000 
#    0.000    0.000    0.000    0.000    0.000    0.000 
#
# Total GULP energy -133699.537682 kJ/mol
# GULP energy per Si atom -5570.814070 kJ/mol
# Density = 2.193094 g / cm^3
# Si number density = 21.980967 Si / 1000 Ang^3
#
#
#
# Elastic Constant Matrix: (Units=GPa)
#
#
# Indices 1 2 3 4 5 6 
#
# 1 26.7978 1.2963 5.7603 0.0000 0.0000 0.0000
# 2 1.2963 150.4391 48.5534 0.0000 0.0000 0.0000
# 3 5.7603 48.5534 90.8036 0.0000 0.0000 0.0000
# 4 0.0000 0.0000 0.0000 59.0150 0.0000 0.0000
# 5 0.0000 0.0000 0.0000 0.0000 -41.2446 0.0000
# 6 0.0000 0.0000 0.0000 0.0000 0.0000 15.4826
#
#
#
# Elastic Compliance Matrix: (Units=1/GPa)
#
#
# Indices 1 2 3 4 5 6 
#
# 1 0.037869 0.000543 -0.002692 0.000000 0.000000 0.000000
# 2 0.000543 0.008041 -0.004334 0.000000 0.000000 0.000000
# 3 -0.002692 -0.004334 0.013501 0.000000 0.000000 0.000000
# 4 0.000000 0.000000 0.000000 0.016945 0.000000 0.000000
# 5 0.000000 0.000000 0.000000 0.000000 -0.024246 0.000000
# 6 0.000000 0.000000 0.000000 0.000000 0.000000 0.064589
#
#
# Mechanical properties :
#
#
# Convention : Reuss Voigt Hill
#
# Bulk Modulus (GPa) = 21.53153 42.14004 31.83579
# Shear Modulus (GPa) = 34.44745 20.81264 27.63005
#
# Velocity S-wave (km/s) = 3.96302 3.08043 3.54926
# Velocity P-wave (km/s) = 5.54594 5.64489 5.59564
#
# Compressibility (1/GPa) = 0.04644351
#
# Stress axis : x y z
#
# Youngs Moduli (GPa) = 26.40680 124.35685 74.06799
#
# Poissons Ratio (x) = -0.06748 0.19943
# Poissons Ratio (y) = -0.01433 0.32103
# Poissons Ratio (z) = 0.07110 0.53899
#
# Static dielectric constant tensor:
#      x y z
#    x 1.911760 0.000000 0.000000 
#    y 0.000000 2.101210 0.000000 
#    z 0.000000 0.000000 1.803130 
# 
# From -- ./inp_files/21569.got.cif
#   From: 2010.05.17/outbox.cif.g08.bks.cpg/sg24_11_cif.got.tgz:21569.got - 2010.06.04 00:33:39.
