data_PCOD9333445
_publ_section_title
;
Structure prediction by ZEFSAII (Michael W. Deem and Ramdas Pophale) SiO2 
 PCOD9333445
Probable space group: I 21 21 21
;
_chemical_formula_sum "Si O2"
_cell_formula_units_Z 60
_cell_length_a 30.419506
_cell_length_b 6.472490
_cell_length_c 14.950934
_cell_angle_alpha 90.000000
_cell_angle_beta 90.000000
_cell_angle_gamma 90.000000
_cell_volume 2943.688624
_symmetry_space_group_name_H-M "I 21 21 21"
_symmetry_group_IT_number 24
_symmetry_cell_setting 'orthorhombic'
loop_
_space_group_symop_operation_xyz
x,y,z
-x,1/2-y,z
x,-y,1/2-z
1/2-x,y,-z
1/2+x,1/2+y,1/2+z
1/2-x,-y,1/2+z
1/2+x,1/2-y,-z
-x,1/2+y,1/2-z
loop_
_atom_site_type_symbol
_atom_site_label
_atom_site_fract_x
_atom_site_fract_y
_atom_site_fract_z
Si Si1 0.296887 0.281447 0.579653
Si Si2 0.750000 0.844523 0.500000
Si Si3 0.626202 0.153424 0.673897
Si Si4 0.135920 0.960206 0.949001
Si Si5 0.221854 0.993496 0.645140
Si Si6 0.053384 0.017121 0.346811
Si Si7 0.046225 0.275256 0.528700
Si Si8 0.588260 0.158308 0.962157
O O1 0.287915 0.500297 0.533439
O O2 0.322267 0.306286 0.673516
O O3 0.331125 0.138567 0.523908
O O4 0.250520 0.174104 0.598920
O O5 0.764715 0.704836 0.584395
O O6 0.598414 0.360755 0.675855
O O7 0.611525 0.000000 0.750000
O O8 0.616381 0.019262 0.585734
O O9 0.169571 0.977750 0.867364
O O10 0.091574 0.826171 0.935309
O O11 0.117930 0.180303 0.983836
O O12 0.232520 0.000000 0.750000
O O13 0.062802 0.793750 0.388071
O O14 0.029308 0.000000 0.250000
O O15 0.039009 0.154581 0.432674
O O16 0.054564 0.519052 0.517440
O O17 0.000000 0.250000 0.578813
#
# Coordination Sequence:
#
# PCOD9333445 Si02
#       8
#     8   4   8   8   8   8   8   8
#     4  12  23  40  61  94 129 178 227 264 327 401
#     4  12  24  44  68  86 142 180 218 282 330 390
#     4  11  21  30  53  85 118 164 223 260 313 378
#     4  11  21  43  65  86 125 167 217 272 330 405
#     4  12  28  43  64 101 135 177 228 280 339 408
#     4  10  19  33  50  80 121 164 209 265 317 388
#     4  10  23  39  60  91 114 160 221 274 335 417
#     4  10  19  35  62  79 117 165 205 264 333 381
#
# _framework density 20.382591000000001
#
# number of rings (size 3 to 8) (size 9 to 14) (size 15 to 20)
#    0.000    1.067    8.000    0.800    1.867    2.667 
#    2.400    0.000    0.000    0.000    3.467    0.000 
#    0.000    0.000    0.000    0.000    0.000    0.000 
#
# Total GULP energy -167143.006920 kJ/mol
# GULP energy per Si atom -5571.433564 kJ/mol
# Density = 2.033620 g / cm^3
# Si number density = 20.382591 Si / 1000 Ang^3
#
#
#
# Elastic Constant Matrix: (Units=GPa)
#
#
# Indices 1 2 3 4 5 6 
#
# 1 116.6856 42.3231 15.6702 0.0000 0.0000 0.0000
# 2 42.3231 127.2613 25.1158 0.0000 0.0000 0.0000
# 3 15.6702 25.1158 64.3777 0.0000 0.0000 0.0000
# 4 0.0000 0.0000 0.0000 14.4977 0.0000 0.0000
# 5 0.0000 0.0000 0.0000 0.0000 6.2412 0.0000
# 6 0.0000 0.0000 0.0000 0.0000 0.0000 27.0846
#
#
#
# Elastic Compliance Matrix: (Units=1/GPa)
#
#
# Indices 1 2 3 4 5 6 
#
# 1 0.009832 -0.003031 -0.001211 0.000000 0.000000 0.000000
# 2 -0.003031 0.009448 -0.002948 0.000000 0.000000 0.000000
# 3 -0.001211 -0.002948 0.016978 0.000000 0.000000 0.000000
# 4 0.000000 0.000000 0.000000 0.068977 0.000000 0.000000
# 5 0.000000 0.000000 0.000000 0.000000 0.160225 0.000000
# 6 0.000000 0.000000 0.000000 0.000000 0.000000 0.036921
#
#
# Mechanical properties :
#
#
# Convention : Reuss Voigt Hill
#
# Bulk Modulus (GPa) = 45.70725 52.72699 49.21712
# Shear Modulus (GPa) = 15.42958 24.57907 20.00433
#
# Velocity S-wave (km/s) = 2.75434 3.47635 3.13620
# Velocity P-wave (km/s) = 5.70864 6.48369 6.10847
#
# Compressibility (1/GPa) = 0.02187837
#
# Stress axis : x y z
#
# Youngs Moduli (GPa) = 101.70915 105.84662 58.89910
#
# Poissons Ratio (x) = 0.32080 0.07131
# Poissons Ratio (y) = 0.30826 0.17364
# Poissons Ratio (z) = 0.12315 0.31204
#
# Static dielectric constant tensor:
#      x y z
#    x 1.809400 0.000000 0.000000 
#    y 0.000000 1.723330 0.000000 
#    z 0.000000 0.000000 1.788960 
# 
# From -- ./inp_files/31727.got.cif
#   From: 2010.05.17/outbox.cif.g08.bks.cpg/sg24_16_cif.got.tgz:31727.got - 2010.06.04 00:33:39.
