data_PCOD9333862
_publ_section_title
;
Structure prediction by ZEFSAII (Michael W. Deem and Ramdas Pophale) SiO2 
 PCOD9333862
Probable space group: I 21 21 21
;
_chemical_formula_sum "Si O2"
_cell_formula_units_Z 60
_cell_length_a 25.503737
_cell_length_b 7.963635
_cell_length_c 13.218704
_cell_angle_alpha 90.000000
_cell_angle_beta 90.000000
_cell_angle_gamma 90.000000
_cell_volume 2684.751203
_symmetry_space_group_name_H-M "I 21 21 21"
_symmetry_group_IT_number 24
_symmetry_cell_setting 'orthorhombic'
loop_
_space_group_symop_operation_xyz
x,y,z
-x,1/2-y,z
x,-y,1/2-z
1/2-x,y,-z
1/2+x,1/2+y,1/2+z
1/2-x,-y,1/2+z
1/2+x,1/2-y,-z
-x,1/2+y,1/2-z
loop_
_atom_site_type_symbol
_atom_site_label
_atom_site_fract_x
_atom_site_fract_y
_atom_site_fract_z
Si Si1 0.932213 0.000000 0.750000
Si Si2 0.744442 0.691824 0.222785
Si Si3 0.426646 0.887223 0.960815
Si Si4 0.706310 0.887160 0.422489
Si Si5 0.121539 0.259979 0.059734
Si Si6 0.974492 0.065473 0.968089
Si Si7 0.858746 0.302643 0.282428
Si Si8 0.860564 0.790011 0.864992
O O1 0.964964 0.015718 0.851974
O O2 0.895365 0.163303 0.733249
O O3 0.753152 0.500000 0.250000
O O4 0.730787 0.805707 0.321299
O O5 0.800732 0.745512 0.176248
O O6 0.691844 0.687454 0.156864
O O7 0.405893 0.788737 0.862091
O O8 0.402919 0.075108 0.950848
O O9 0.398971 0.795300 0.054992
O O10 0.487619 0.930574 0.979104
O O11 0.750000 0.953005 0.500000
O O12 0.672756 0.758266 0.489591
O O13 0.665739 0.033462 0.395585
O O14 0.134019 0.292423 0.176835
O O15 0.080574 0.400040 0.022395
O O16 0.000000 0.250000 0.968777
O O17 0.859028 0.500000 0.250000
#
# Coordination Sequence:
#
# PCOD9333862 Si02
#       8
#     4   8   8   8   8   8   8   8
#     4  12  24  42  64  90 136 168 216 278 346 406
#     4  11  22  40  65  99 133 182 225 272 343 417
#     4  10  24  42  68  99 132 176 235 283 335 411
#     4  12  23  40  63 100 141 178 214 278 348 420
#     4  10  19  45  71  97 133 179 230 281 341 410
#     4  10  23  42  71  95 124 173 224 287 347 399
#     4   9  20  39  69  98 134 173 226 282 333 408
#     4  12  25  42  63  99 140 172 221 283 341 424
#
# _framework density 22.34844
#
# number of rings (size 3 to 8) (size 9 to 14) (size 15 to 20)
#    0.000    1.333    4.000    0.800    3.733    1.067 
#    0.000    0.667   23.467    0.000    0.000    0.000 
#    0.000    0.000    0.000    0.000    0.000    0.000 
#
# Total GULP energy -167496.134438 kJ/mol
# GULP energy per Si atom -5583.204481 kJ/mol
# Density = 2.229757 g / cm^3
# Si number density = 22.348440 Si / 1000 Ang^3
#
#
#
# Elastic Constant Matrix: (Units=GPa)
#
#
# Indices 1 2 3 4 5 6 
#
# 1 97.8215 16.6731 33.7136 0.0000 0.0000 0.0000
# 2 16.6731 58.3103 9.8967 0.0000 0.0000 0.0000
# 3 33.7136 9.8967 64.8345 0.0000 0.0000 0.0000
# 4 0.0000 0.0000 0.0000 26.7152 0.0000 0.0000
# 5 0.0000 0.0000 0.0000 0.0000 -4.8356 0.0000
# 6 0.0000 0.0000 0.0000 0.0000 0.0000 3.4803
#
#
#
# Elastic Compliance Matrix: (Units=1/GPa)
#
#
# Indices 1 2 3 4 5 6 
#
# 1 0.012829 -0.002603 -0.006273 0.000000 0.000000 0.000000
# 2 -0.002603 0.018134 -0.001414 0.000000 0.000000 0.000000
# 3 -0.006273 -0.001414 0.018902 0.000000 0.000000 0.000000
# 4 0.000000 0.000000 0.000000 0.037432 0.000000 0.000000
# 5 0.000000 0.000000 0.000000 0.000000 -0.206801 0.000000
# 6 0.000000 0.000000 0.000000 0.000000 0.000000 0.287330
#
#
# Mechanical properties :
#
#
# Convention : Reuss Voigt Hill
#
# Bulk Modulus (GPa) = 34.15033 37.94812 36.04923
# Shear Modulus (GPa) = 25.23107 15.78418 20.50762
#
# Velocity S-wave (km/s) = 3.36368 2.66047 3.03253
# Velocity P-wave (km/s) = 5.51361 5.14340 5.33172
#
# Compressibility (1/GPa) = 0.02928229
#
# Stress axis : x y z
#
# Youngs Moduli (GPa) = 77.95134 55.14475 52.90472
#
# Poissons Ratio (x) = 0.14356 0.33189
# Poissons Ratio (y) = 0.20294 0.07483
# Poissons Ratio (z) = 0.48902 0.07799
#
# Static dielectric constant tensor:
#      x y z
#    x 1.887920 0.000000 0.000000 
#    y 0.000000 1.872560 0.000000 
#    z 0.000000 0.000000 1.825570 
# 
# From -- ./inp_files/22977.got.cif
#   From: 2010.05.17/outbox.cif.g08.bks.cpg/sg24_12_cif.got.tgz:22977.got - 2010.06.04 00:33:39.
