data_PCOD9333044
_publ_section_title
;
Structure prediction by ZEFSAII (Michael W. Deem and Ramdas Pophale) SiO2 
 PCOD9333044
Probable space group: I 21 21 21
;
_chemical_formula_sum "Si O2"
_cell_formula_units_Z 60
_cell_length_a 16.732474
_cell_length_b 17.169847
_cell_length_c 12.200195
_cell_angle_alpha 90.000000
_cell_angle_beta 90.000000
_cell_angle_gamma 90.000000
_cell_volume 3505.043048
_symmetry_space_group_name_H-M "I 21 21 21"
_symmetry_group_IT_number 24
_symmetry_cell_setting 'orthorhombic'
loop_
_space_group_symop_operation_xyz
x,y,z
-x,1/2-y,z
x,-y,1/2-z
1/2-x,y,-z
1/2+x,1/2+y,1/2+z
1/2-x,-y,1/2+z
1/2+x,1/2-y,-z
-x,1/2+y,1/2-z
loop_
_atom_site_type_symbol
_atom_site_label
_atom_site_fract_x
_atom_site_fract_y
_atom_site_fract_z
Si Si1 0.637717 0.204098 0.218467
Si Si2 0.444402 0.679045 0.510050
Si Si3 0.498019 0.497511 0.953998
Si Si4 0.108444 0.500000 0.250000
Si Si5 0.210240 0.374926 0.113533
Si Si6 0.058506 0.429792 0.676598
Si Si7 0.334032 0.998465 0.059657
Si Si8 0.378892 0.886623 0.247822
O O1 0.576761 0.186945 0.118156
O O2 0.722776 0.173414 0.176640
O O3 0.610261 0.147655 0.315797
O O4 0.633836 0.294744 0.245654
O O5 0.500000 0.750000 0.542583
O O6 0.482791 0.595315 0.535611
O O7 0.360226 0.681079 0.572073
O O8 0.453267 0.527162 0.845222
O O9 0.454384 0.537644 0.056331
O O10 0.592265 0.511303 0.974531
O O11 0.166845 0.438227 0.190280
O O12 0.250000 0.407937 0.000000
O O13 0.093784 0.500000 0.750000
O O14 0.971213 0.409306 0.725836
O O15 0.353472 0.071952 0.138880
O O16 0.333734 0.926434 0.145388
O O17 0.250000 0.007014 0.000000
#
# Coordination Sequence:
#
# PCOD9333044 Si02
#       8
#     8   8   8   4   8   8   8   8
#     4  11  20  31  57  85 111 142 185 243 293 329
#     4  10  18  32  54  80 111 144 180 237 292 338
#     4  10  20  36  55  83 111 146 192 231 281 360
#     4  10  22  38  56  78 114 156 196 228 284 360
#     4   9  22  36  51  82 115 145 190 238 286 342
#     4  11  18  34  58  84 111 143 186 234 292 346
#     4  10  20  36  58  80 113 150 189 241 292 341
#     4  10  20  36  53  85 114 139 192 243 289 350
#
# _framework density 17.118192000000001
#
# number of rings (size 3 to 8) (size 9 to 14) (size 15 to 20)
#    0.000    1.867    4.000    2.000    0.933    3.733 
#    0.000    2.667    0.000    9.600    0.000    0.000 
#    0.000    0.000    0.000    0.000    0.000    0.000 
#
# Total GULP energy -167280.654835 kJ/mol
# GULP energy per Si atom -5576.021828 kJ/mol
# Density = 1.707923 g / cm^3
# Si number density = 17.118192 Si / 1000 Ang^3
#
#
#
# Elastic Constant Matrix: (Units=GPa)
#
#
# Indices 1 2 3 4 5 6 
#
# 1 75.5171 24.8078 48.9566 0.0000 0.0000 0.0000
# 2 24.8078 100.1306 43.5826 0.0000 0.0000 0.0000
# 3 48.9566 43.5826 89.6597 0.0000 0.0000 0.0000
# 4 0.0000 0.0000 0.0000 11.9623 0.0000 0.0000
# 5 0.0000 0.0000 0.0000 0.0000 21.9124 0.0000
# 6 0.0000 0.0000 0.0000 0.0000 0.0000 20.1511
#
#
#
# Elastic Compliance Matrix: (Units=1/GPa)
#
#
# Indices 1 2 3 4 5 6 
#
# 1 0.020503 -0.000262 -0.011068 0.000000 0.000000 0.000000
# 2 -0.000262 0.012670 -0.006016 0.000000 0.000000 0.000000
# 3 -0.011068 -0.006016 0.020121 0.000000 0.000000 0.000000
# 4 0.000000 0.000000 0.000000 0.083596 0.000000 0.000000
# 5 0.000000 0.000000 0.000000 0.000000 0.045636 0.000000
# 6 0.000000 0.000000 0.000000 0.000000 0.000000 0.049625
#
#
# Mechanical properties :
#
#
# Convention : Reuss Voigt Hill
#
# Bulk Modulus (GPa) = 53.75569 55.55570 54.65569
# Shear Modulus (GPa) = 18.31203 20.66919 19.49061
#
# Velocity S-wave (km/s) = 3.27424 3.47859 3.37796
# Velocity P-wave (km/s) = 6.76498 6.97559 6.87109
#
# Compressibility (1/GPa) = 0.01860268
#
# Stress axis : x y z
#
# Youngs Moduli (GPa) = 48.77248 78.92463 49.69994
#
# Poissons Ratio (x) = 0.02071 0.55007
# Poissons Ratio (y) = 0.01280 0.29898
# Poissons Ratio (z) = 0.53981 0.47478
#
# Static dielectric constant tensor:
#      x y z
#    x 1.594520 0.000000 0.000000 
#    y 0.000000 1.566640 0.000000 
#    z 0.000000 0.000000 1.595690 
# 
# From -- ./inp_files/21677.got.cif
#   From: 2010.05.17/outbox.cif.g08.bks.cpg/sg24_11_cif.got.tgz:21677.got - 2010.06.04 00:33:39.
