data_PCOD9333193
_publ_section_title
;
Structure prediction by ZEFSAII (Michael W. Deem and Ramdas Pophale) SiO2 
 PCOD9333193
Probable space group: I 21 21 21
;
_chemical_formula_sum "Si O2"
_cell_formula_units_Z 60
_cell_length_a 13.605925
_cell_length_b 16.247593
_cell_length_c 14.757362
_cell_angle_alpha 90.000000
_cell_angle_beta 90.000000
_cell_angle_gamma 90.000000
_cell_volume 3262.314564
_symmetry_space_group_name_H-M "I 21 21 21"
_symmetry_group_IT_number 24
_symmetry_cell_setting 'orthorhombic'
loop_
_space_group_symop_operation_xyz
x,y,z
-x,1/2-y,z
x,-y,1/2-z
1/2-x,y,-z
1/2+x,1/2+y,1/2+z
1/2-x,-y,1/2+z
1/2+x,1/2-y,-z
-x,1/2+y,1/2-z
loop_
_atom_site_type_symbol
_atom_site_label
_atom_site_fract_x
_atom_site_fract_y
_atom_site_fract_z
Si Si1 0.050005 0.586717 0.696766
Si Si2 0.271781 0.417670 0.810829
Si Si3 0.029399 0.519929 0.970342
Si Si4 0.720840 0.679307 0.894471
Si Si5 0.750000 0.001755 0.500000
Si Si6 0.557471 0.668892 0.147867
Si Si7 0.557739 0.548739 0.845642
Si Si8 0.414112 0.308143 0.706244
O O1 0.045814 0.500000 0.750000
O O2 0.162113 0.614988 0.705802
O O3 0.027288 0.559985 0.594621
O O4 0.980608 0.646306 0.752049
O O5 0.286556 0.500000 0.750000
O O6 0.276596 0.447228 0.913386
O O7 0.348194 0.349256 0.782482
O O8 0.145753 0.545564 0.977458
O O9 0.971589 0.594372 0.920520
O O10 0.978105 0.499558 0.065809
O O11 0.826472 0.680927 0.847369
O O12 0.658101 0.598037 0.867877
O O13 0.653447 0.755775 0.862361
O O14 0.750000 0.681593 0.000000
O O15 0.500000 0.750000 0.115817
O O16 0.562276 0.500000 0.750000
O O17 0.472490 0.617695 0.840323
O O18 0.500000 0.250000 0.743309
#
# Coordination Sequence:
#
# PCOD9333193 Si02
#       8
#     8   8   8   8   4   8   8   8
#     4   8  18  34  54  81 112 148 188 239 293 348
#     4  10  18  36  55  88 117 148 196 245 299 349
#     4  10  20  35  55  86 117 147 196 242 298 351
#     4  11  24  40  57  90 122 157 198 244 305 361
#     4  10  20  32  62  86 110 148 194 250 296 340
#     4  11  22  36  58  84 117 156 189 240 301 356
#     4  11  23  40  62  88 120 161 204 246 297 360
#     4  10  22  37  58  83 122 157 195 242 302 360
#
# _framework density 18.391849000000001
#
# number of rings (size 3 to 8) (size 9 to 14) (size 15 to 20)
#    0.000    1.867    1.333    3.600    1.867    2.667 
#    1.200    0.000    0.000   18.400    0.000    0.000 
#    0.000    0.000    0.000    0.000    0.000    0.000 
#
# Total GULP energy -167314.814166 kJ/mol
# GULP energy per Si atom -5577.160472 kJ/mol
# Density = 1.834999 g / cm^3
# Si number density = 18.391849 Si / 1000 Ang^3
#
#
#
# Elastic Constant Matrix: (Units=GPa)
#
#
# Indices 1 2 3 4 5 6 
#
# 1 144.3589 53.6623 53.3653 0.0000 0.0000 0.0000
# 2 53.6623 56.5865 46.7172 0.0000 0.0000 0.0000
# 3 53.3653 46.7172 130.3985 0.0000 0.0000 0.0000
# 4 0.0000 0.0000 0.0000 13.0764 0.0000 0.0000
# 5 0.0000 0.0000 0.0000 0.0000 24.5155 0.0000
# 6 0.0000 0.0000 0.0000 0.0000 0.0000 27.7215
#
#
#
# Elastic Compliance Matrix: (Units=1/GPa)
#
#
# Indices 1 2 3 4 5 6 
#
# 1 0.010802 -0.009364 -0.001066 0.000000 0.000000 0.000000
# 2 -0.009364 0.033211 -0.008066 0.000000 0.000000 0.000000
# 3 -0.001066 -0.008066 0.010995 0.000000 0.000000 0.000000
# 4 0.000000 0.000000 0.000000 0.076474 0.000000 0.000000
# 5 0.000000 0.000000 0.000000 0.000000 0.040791 0.000000
# 6 0.000000 0.000000 0.000000 0.000000 0.000000 0.036073
#
#
# Mechanical properties :
#
#
# Convention : Reuss Voigt Hill
#
# Bulk Modulus (GPa) = 55.50577 70.98151 63.24364
# Shear Modulus (GPa) = 19.89311 24.90263 22.39787
#
# Velocity S-wave (km/s) = 3.29238 3.68367 3.49351
# Velocity P-wave (km/s) = 6.68566 7.53461 7.12279
#
# Compressibility (1/GPa) = 0.01801615
#
# Stress axis : x y z
#
# Youngs Moduli (GPa) = 92.57546 30.11012 90.95063
#
# Poissons Ratio (x) = 0.28194 0.09695
# Poissons Ratio (y) = 0.86685 0.73365
# Poissons Ratio (z) = 0.09869 0.24288
#
# Static dielectric constant tensor:
#      x y z
#    x 1.660280 0.000000 0.000000 
#    y 0.000000 1.650420 0.000000 
#    z 0.000000 0.000000 1.661340 
# 
# From -- ./inp_files/25982.got.cif
#   From: 2010.05.17/outbox.cif.g08.bks.cpg/sg24_13_cif.got.tgz:25982.got - 2010.06.04 00:33:39.
