data_PCOD9333775
_publ_section_title
;
Structure prediction by ZEFSAII (Michael W. Deem and Ramdas Pophale) SiO2 
 PCOD9333775
Probable space group: I 21 21 21
;
_chemical_formula_sum "Si O2"
_cell_formula_units_Z 48
_cell_length_a 24.729557
_cell_length_b 7.930150
_cell_length_c 11.035747
_cell_angle_alpha 90.000000
_cell_angle_beta 90.000000
_cell_angle_gamma 90.000000
_cell_volume 2164.210373
_symmetry_space_group_name_H-M "I 21 21 21"
_symmetry_group_IT_number 24
_symmetry_cell_setting 'orthorhombic'
loop_
_space_group_symop_operation_xyz
x,y,z
-x,1/2-y,z
x,-y,1/2-z
1/2-x,y,-z
1/2+x,1/2+y,1/2+z
1/2-x,-y,1/2+z
1/2+x,1/2-y,-z
-x,1/2+y,1/2-z
loop_
_atom_site_type_symbol
_atom_site_label
_atom_site_fract_x
_atom_site_fract_y
_atom_site_fract_z
Si Si1 0.565176 0.223663 0.387325
Si Si2 0.638389 0.000000 0.750000
Si Si3 0.313788 0.890188 0.488013
Si Si4 0.626717 0.500000 0.250000
Si Si5 0.397580 0.612515 0.488369
Si Si6 0.869812 0.324279 0.369517
Si Si7 0.500000 0.750000 0.561790
Si Si8 0.963591 0.500000 0.250000
O O1 0.500000 0.250000 0.398842
O O2 0.588829 0.338759 0.279758
O O3 0.599681 0.282374 0.504909
O O4 0.582953 0.027724 0.393255
O O5 0.606748 0.954731 0.626968
O O6 0.664186 0.824115 0.802180
O O7 0.250000 0.882648 0.500000
O O8 0.334542 0.975390 0.364786
O O9 0.340671 0.705819 0.476854
O O10 0.337502 0.004812 0.598461
O O11 0.445149 0.749784 0.487509
O O12 0.922190 0.353932 0.286467
O O13 0.503443 0.580583 0.641577
#
# Coordination Sequence:
#
# PCOD9333775 Si02
#       8
#     8   4   8   4   8   8   4   4
#     4  10  23  41  66  95 140 182 223 287 348 418
#     4  10  19  38  60  99 147 168 226 281 342 424
#     4  11  25  48  71  93 132 183 235 293 348 410
#     4  10  26  47  66  97 129 175 240 284 350 418
#     4  11  23  38  64 104 137 182 233 280 346 427
#     4  10  20  38  59  96 137 179 227 277 344 419
#     4  12  22  32  58 100 150 184 222 282 354 422
#     4  12  21  31  58  96 144 183 216 279 342 426
#
# _framework density 22.178992000000001
#
# number of rings (size 3 to 8) (size 9 to 14) (size 15 to 20)
#    0.000    1.333    3.333    1.500    5.833    4.000 
#    0.000    9.167    0.000    0.000    0.000    0.000 
#    0.000    0.000    0.000    0.000    0.000    0.000 
#
# Total GULP energy -133691.655256 kJ/mol
# GULP energy per Si atom -5570.485636 kJ/mol
# Density = 2.212851 g / cm^3
# Si number density = 22.178992 Si / 1000 Ang^3
#
#
#
# Elastic Constant Matrix: (Units=GPa)
#
#
# Indices 1 2 3 4 5 6 
#
# 1 138.3957 57.6594 31.1954 0.0000 0.0000 0.0000
# 2 57.6594 122.3385 35.5106 0.0000 0.0000 0.0000
# 3 31.1954 35.5106 97.5099 0.0000 0.0000 0.0000
# 4 0.0000 0.0000 0.0000 45.1064 0.0000 0.0000
# 5 0.0000 0.0000 0.0000 0.0000 6.5298 0.0000
# 6 0.0000 0.0000 0.0000 0.0000 0.0000 16.7145
#
#
#
# Elastic Compliance Matrix: (Units=1/GPa)
#
#
# Indices 1 2 3 4 5 6 
#
# 1 0.009189 -0.003889 -0.001524 0.000000 0.000000 0.000000
# 2 -0.003889 0.010786 -0.002684 0.000000 0.000000 0.000000
# 3 -0.001524 -0.002684 0.011720 0.000000 0.000000 0.000000
# 4 0.000000 0.000000 0.000000 0.022170 0.000000 0.000000
# 5 0.000000 0.000000 0.000000 0.000000 0.153143 0.000000
# 6 0.000000 0.000000 0.000000 0.000000 0.000000 0.059828
#
#
# Mechanical properties :
#
#
# Convention : Reuss Voigt Hill
#
# Bulk Modulus (GPa) = 64.50422 67.44165 65.97293
# Shear Modulus (GPa) = 17.34924 29.26205 23.30565
#
# Velocity S-wave (km/s) = 2.79989 3.63624 3.24512
# Velocity P-wave (km/s) = 6.29278 6.93567 6.62203
#
# Compressibility (1/GPa) = 0.01550286
#
# Stress axis : x y z
#
# Youngs Moduli (GPa) = 108.82282 92.71393 85.32269
#
# Poissons Ratio (x) = 0.36054 0.13000
# Poissons Ratio (y) = 0.42318 0.22899
# Poissons Ratio (z) = 0.16581 0.24883
#
# Static dielectric constant tensor:
#      x y z
#    x 1.719660 0.000000 0.000000 
#    y 0.000000 2.000730 0.000000 
#    z 0.000000 0.000000 1.898510 
# 
# From -- ./inp_files/22632.got.cif
#   From: 2010.05.17/outbox.cif.g08.bks.cpg/sg24_12_cif.got.tgz:22632.got - 2010.06.04 00:33:39.
