data_PCOD9333334
_publ_section_title
;
Structure prediction by ZEFSAII (Michael W. Deem and Ramdas Pophale) SiO2 
 PCOD9333334
Probable space group: I 21 21 21
;
_chemical_formula_sum "Si O2"
_cell_formula_units_Z 40
_cell_length_a 27.039597
_cell_length_b 9.682966
_cell_length_c 6.312634
_cell_angle_alpha 90.000000
_cell_angle_beta 90.000000
_cell_angle_gamma 90.000000
_cell_volume 1652.795918
_symmetry_space_group_name_H-M "I 21 21 21"
_symmetry_group_IT_number 24
_symmetry_cell_setting 'orthorhombic'
loop_
_space_group_symop_operation_xyz
x,y,z
-x,1/2-y,z
x,-y,1/2-z
1/2-x,y,-z
1/2+x,1/2+y,1/2+z
1/2-x,-y,1/2+z
1/2+x,1/2-y,-z
-x,1/2+y,1/2-z
loop_
_atom_site_type_symbol
_atom_site_label
_atom_site_fract_x
_atom_site_fract_y
_atom_site_fract_z
Si Si1 0.702736 0.317935 0.602148
Si Si2 0.934680 0.000000 0.250000
Si Si3 0.250000 0.661091 0.500000
Si Si4 0.657134 0.860568 0.276825
Si Si5 0.016898 0.097767 0.937460
Si Si6 0.890865 0.710054 0.343143
O O1 0.750000 0.400326 0.500000
O O2 0.681843 0.215661 0.420978
O O3 0.650870 0.363912 0.703989
O O4 0.729178 0.247264 0.803184
O O5 0.903093 0.140534 0.262616
O O6 0.970837 0.975811 0.448901
O O7 0.297842 0.581695 0.423026
O O8 0.630153 0.748526 0.423374
O O9 0.625587 0.000000 0.250000
O O10 0.000000 0.250000 0.858876
O O11 0.035379 0.000000 0.750000
O O12 0.058765 0.130205 0.111928
#
# Coordination Sequence:
#
# PCOD9333334 Si02
#       6
#     8   4   4   8   8   8
#     4   9  18  33  51  82 128 173 217 274 335 397
#     4  10  22  40  60  88 132 184 224 284 344 424
#     4   8  18  28  42  74 122 164 222 260 322 400
#     4  10  19  28  49  80 125 173 213 267 336 401
#     4  10  24  43  67  97 135 182 232 288 352 425
#     4  10  21  37  58  91 131 173 227 278 343 416
#
# _framework density 24.201412999999999
#
# number of rings (size 3 to 8) (size 9 to 14) (size 15 to 20)
#    0.000    2.400    0.000    1.200    4.200   12.000 
#    1.800    0.000    0.000    0.000    0.000    0.000 
#  249.000    0.000    0.000    2.600    0.000    0.000 
#
# Total GULP energy -111519.873112 kJ/mol
# GULP energy per Si atom -5575.993656 kJ/mol
# Density = 2.414633 g / cm^3
# Si number density = 24.201413 Si / 1000 Ang^3
#
#
#
# Elastic Constant Matrix: (Units=GPa)
#
#
# Indices 1 2 3 4 5 6 
#
# 1 141.1760 42.8856 30.1934 -0.0001 0.0000 0.0000
# 2 42.8856 112.9007 47.0683 -0.0003 -0.0001 -0.0002
# 3 30.1934 47.0683 85.0009 -0.0008 -0.0001 -0.0004
# 4 -0.0001 -0.0003 -0.0008 16.1315 -0.0001 -0.0003
# 5 0.0000 -0.0001 -0.0001 -0.0001 37.6126 0.0000
# 6 0.0000 -0.0002 -0.0004 -0.0003 0.0000 -31.0408
#
#
#
# Elastic Compliance Matrix: (Units=1/GPa)
#
#
# Indices 1 2 3 4 5 6 
#
# 1 0.008159 -0.002458 -0.001537 0.000000 0.000000 0.000000
# 2 -0.002458 0.012257 -0.005914 0.000000 0.000000 0.000000
# 3 -0.001537 -0.005914 0.015585 0.000001 0.000000 0.000000
# 4 0.000000 0.000000 0.000001 0.061990 0.000000 0.000000
# 5 0.000000 0.000000 0.000000 0.000000 0.026587 0.000000
# 6 0.000000 0.000000 0.000000 0.000000 0.000000 -0.032216
#
#
# Mechanical properties :
#
#
# Convention : Reuss Voigt Hill
#
# Bulk Modulus (GPa) = 61.79438 64.37468 63.08453
# Shear Modulus (GPa) = 42.52632 19.13602 30.83117
#
# Velocity S-wave (km/s) = 4.19642 2.81499 3.57310
# Velocity P-wave (km/s) = 7.00491 6.10105 6.56855
#
# Compressibility (1/GPa) = 0.01618270
#
# Stress axis : x y z
#
# Youngs Moduli (GPa) = 122.56628 81.58854 64.16383
#
# Poissons Ratio (x) = 0.20058 0.09860
# Poissons Ratio (y) = 0.30133 0.37944
# Poissons Ratio (z) = 0.18836 0.48249
#
# Static dielectric constant tensor:
#      x y z
#    x 1.946110 0.000000 0.000000 
#    y 0.000000 1.939330 0.000000 
#    z 0.000000 0.000000 1.966910 
# 
# From -- ./inp_files/6926.got.cif
#   From: 2010.05.17/outbox.cif.g08.bks.cpg/sg24_4_cif.got.tgz:6926.got - 2010.06.04 00:33:39.
