data_PCOD9333585
_publ_section_title
;
Structure prediction by ZEFSAII (Michael W. Deem and Ramdas Pophale) SiO2 
 PCOD9333585
Probable space group: I 21 21 21
;
_chemical_formula_sum "Si O2"
_cell_formula_units_Z 52
_cell_length_a 19.094860
_cell_length_b 13.289843
_cell_length_c 9.212325
_cell_angle_alpha 90.000000
_cell_angle_beta 90.000000
_cell_angle_gamma 90.000000
_cell_volume 2337.790449
_symmetry_space_group_name_H-M "I 21 21 21"
_symmetry_group_IT_number 24
_symmetry_cell_setting 'orthorhombic'
loop_
_space_group_symop_operation_xyz
x,y,z
-x,1/2-y,z
x,-y,1/2-z
1/2-x,y,-z
1/2+x,1/2+y,1/2+z
1/2-x,-y,1/2+z
1/2+x,1/2-y,-z
-x,1/2+y,1/2-z
loop_
_atom_site_type_symbol
_atom_site_label
_atom_site_fract_x
_atom_site_fract_y
_atom_site_fract_z
Si Si1 0.397858 0.674568 0.307549
Si Si2 0.058599 0.104636 0.834378
Si Si3 0.890545 0.899551 0.989608
Si Si4 0.471431 0.013622 0.591604
Si Si5 0.920734 0.281210 0.310828
Si Si6 0.812186 0.193405 0.085820
Si Si7 0.303062 0.500000 0.750000
O O1 0.478757 0.640107 0.308204
O O2 0.396660 0.796610 0.293701
O O3 0.364547 0.651367 0.462819
O O4 0.363439 0.616338 0.172193
O O5 0.074740 0.000000 0.750000
O O6 0.063805 0.077748 0.006796
O O7 0.907512 0.789445 0.051598
O O8 0.965849 0.952863 0.988304
O O9 0.844462 0.952039 0.112324
O O10 0.420857 0.105477 0.630884
O O11 0.505911 0.000000 0.750000
O O12 0.861099 0.254973 0.195268
O O13 0.000000 0.250000 0.258168
O O14 0.775636 0.101398 0.172689
O O15 0.750000 0.248957 0.000000
#
# Coordination Sequence:
#
# PCOD9333585 Si02
#       7
#     8   8   8   8   8   8   4
#     4  11  24  36  59  91 131 170 206 267 330 378
#     4  11  22  35  59  96 132 157 207 264 333 383
#     4  10  19  35  55  88 123 164 206 256 312 379
#     4  11  19  31  55  87 122 158 203 259 311 375
#     4   9  21  37  62  88 126 164 212 258 320 378
#     4  11  25  43  62  89 128 172 218 263 318 392
#     4  10  22  38  60  84 120 172 218 246 310 396
#
# _framework density 22.243226
#
# number of rings (size 3 to 8) (size 9 to 14) (size 15 to 20)
#    0.000    1.538    2.308    2.769   10.769    1.231 
#    0.000    2.308    0.000    2.769    0.000    0.000 
#    0.000    0.000    0.000    0.000    0.000    0.000 
#
# Total GULP energy -145044.197941 kJ/mol
# GULP energy per Si atom -5578.622998 kJ/mol
# Density = 2.219260 g / cm^3
# Si number density = 22.243226 Si / 1000 Ang^3
#
#
#
# Elastic Constant Matrix: (Units=GPa)
#
#
# Indices 1 2 3 4 5 6 
#
# 1 36.6488 7.2617 11.3982 0.0000 0.0000 0.0000
# 2 7.2617 108.4158 45.0807 0.0000 0.0000 0.0000
# 3 11.3982 45.0807 102.6386 0.0000 0.0000 0.0000
# 4 0.0000 0.0000 0.0000 33.1445 0.0000 0.0000
# 5 0.0000 0.0000 0.0000 0.0000 28.4054 0.0000
# 6 0.0000 0.0000 0.0000 0.0000 0.0000 -0.0671
#
#
#
# Elastic Compliance Matrix: (Units=1/GPa)
#
#
# Indices 1 2 3 4 5 6 
#
# 1 0.028308 -0.000720 -0.002827 0.000000 0.000000 0.000000
# 2 -0.000720 0.011303 -0.004884 0.000000 0.000000 0.000000
# 3 -0.002827 -0.004884 0.012202 0.000000 0.000000 0.000000
# 4 0.000000 0.000000 0.000000 0.030171 0.000000 0.000000
# 5 0.000000 0.000000 0.000000 0.000000 0.035205 0.000000
# 6 0.000000 0.000000 0.000000 0.000000 0.000000-14.895527
#
#
# Mechanical properties :
#
#
# Convention : Reuss Voigt Hill
#
# Bulk Modulus (GPa) = 28.61314 41.68718 35.15016
# Shear Modulus (GPa) = -0.33899 24.56072 12.11087
#
# Velocity S-wave (km/s) = -0.39081 3.32654 2.33593
# Velocity P-wave (km/s) = 3.56203 5.79109 4.80753
#
# Compressibility (1/GPa) = 0.03494898
#
# Stress axis : x y z
#
# Youngs Moduli (GPa) = 35.32558 88.47179 81.95209
#
# Poissons Ratio (x) = 0.06374 0.23170
# Poissons Ratio (y) = 0.02545 0.40029
# Poissons Ratio (z) = 0.09987 0.43214
#
# Static dielectric constant tensor:
#      x y z
#    x 1.800300 0.000000 0.000000 
#    y 0.000000 1.897340 0.000000 
#    z 0.000000 0.000000 1.889220 
# 
# From -- ./inp_files/15190.got.cif
#   From: 2010.05.17/outbox.cif.g08.bks.cpg/sg24_8_cif.got.tgz:15190.got - 2010.06.04 00:33:39.
