data_PCOD9333395
_publ_section_title
;
Structure prediction by ZEFSAII (Michael W. Deem and Ramdas Pophale) SiO2 
 PCOD9333395
Probable space group: I 21 21 21
;
_chemical_formula_sum "Si O2"
_cell_formula_units_Z 40
_cell_length_a 27.603560
_cell_length_b 11.134631
_cell_length_c 4.882559
_cell_angle_alpha 90.000000
_cell_angle_beta 90.000000
_cell_angle_gamma 90.000000
_cell_volume 1500.681142
_symmetry_space_group_name_H-M "I 21 21 21"
_symmetry_group_IT_number 24
_symmetry_cell_setting 'orthorhombic'
loop_
_space_group_symop_operation_xyz
x,y,z
-x,1/2-y,z
x,-y,1/2-z
1/2-x,y,-z
1/2+x,1/2+y,1/2+z
1/2-x,-y,1/2+z
1/2+x,1/2-y,-z
-x,1/2+y,1/2-z
loop_
_atom_site_type_symbol
_atom_site_label
_atom_site_fract_x
_atom_site_fract_y
_atom_site_fract_z
Si Si1 0.060999 0.578310 0.511741
Si Si2 0.800439 0.112742 0.113211
Si Si3 0.406353 0.812431 0.773150
Si Si4 0.750000 0.694240 0.000000
Si Si5 0.500000 0.750000 0.087815
Si Si6 0.159474 0.175939 0.797841
O O1 0.086205 0.500000 0.750000
O O2 0.091067 0.681166 0.361718
O O3 0.023059 0.651834 0.704955
O O4 0.043521 0.500000 0.250000
O O5 0.825660 0.187709 0.876346
O O6 0.783826 0.219409 0.315913
O O7 0.826677 0.000000 0.250000
O O8 0.750000 0.060723 0.000000
O O9 0.374090 0.880595 0.540679
O O10 0.375633 0.821243 0.043378
O O11 0.788271 0.627155 0.803636
O O12 0.538631 0.680973 0.891481
#
# Coordination Sequence:
#
# PCOD9333395 Si02
#       6
#     8   8   8   4   4   8
#     4  12  25  44  67  94 125 169 222 282 350 404
#     4  10  19  32  48  68 102 151 201 263 316 358
#     4  12  24  43  60  89 116 167 215 284 337 396
#     4  10  20  38  46  72 110 148 212 268 314 384
#     4  12  26  46  68  90 136 160 230 298 346 410
#     4  11  23  37  56  78 112 157 218 268 337 375
#
# _framework density 26.654563
#
# number of rings (size 3 to 8) (size 9 to 14) (size 15 to 20)
#    0.000    0.800    7.000    0.600    0.000    0.800 
#   10.800    0.000    0.000    0.000    0.000    0.000 
#    0.000    0.000    0.000    0.000   26.600   43.200 
#
# Total GULP energy -111591.435739 kJ/mol
# GULP energy per Si atom -5579.571787 kJ/mol
# Density = 2.659390 g / cm^3
# Si number density = 26.654563 Si / 1000 Ang^3
#
#
#
# Elastic Constant Matrix: (Units=GPa)
#
#
# Indices 1 2 3 4 5 6 
#
# 1 140.3857 16.3345 63.0410 -0.0004 -0.0004 -0.0001
# 2 16.3345 100.2266 35.7800 -0.0003 -0.0008 0.0000
# 3 63.0410 35.7800 223.5298 -0.0023 -0.0029 -0.0004
# 4 -0.0004 -0.0003 -0.0023 18.3192 -0.0025 -0.0003
# 5 -0.0004 -0.0008 -0.0029 -0.0025 -3.0154 -0.0006
# 6 -0.0001 0.0000 -0.0004 -0.0003 -0.0006 7.3881
#
#
#
# Elastic Compliance Matrix: (Units=1/GPa)
#
#
# Indices 1 2 3 4 5 6 
#
# 1 0.008184 -0.000541 -0.002221 0.000000 0.000001 0.000000
# 2 -0.000541 0.010618 -0.001547 0.000000 -0.000001 0.000000
# 3 -0.002221 -0.001547 0.005348 0.000001 -0.000004 0.000000
# 4 0.000000 0.000000 0.000001 0.054588 -0.000045 0.000002
# 5 0.000001 -0.000001 -0.000004 -0.000045 -0.331633 -0.000025
# 6 0.000000 0.000000 0.000000 0.000002 -0.000025 0.135353
#
#
# Mechanical properties :
#
#
# Convention : Reuss Voigt Hill
#
# Bulk Modulus (GPa) = 64.38799 77.16144 70.77472
# Shear Modulus (GPa) = -48.19394 27.80415 -10.19489
#
# Velocity S-wave (km/s) = -4.25678 3.23325 -1.95784
# Velocity P-wave (km/s) = 0.22058 6.55363 4.63674
#
# Compressibility (1/GPa) = 0.01553085
#
# Stress axis : x y z
#
# Youngs Moduli (GPa) = 122.19400 94.18142 186.99203
#
# Poissons Ratio (x) = 0.05092 0.41540
# Poissons Ratio (y) = 0.06607 0.28929
# Poissons Ratio (z) = 0.27145 0.14571
#
# Static dielectric constant tensor:
#      x y z
#    x 2.294530 0.000000 0.000000 
#    y 0.000000 2.122290 0.000000 
#    z 0.000000 0.000000 2.139960 
# 
# From -- ./inp_files/7019.got.cif
#   From: 2010.05.17/outbox.cif.g08.bks.cpg/sg24_4_cif.got.tgz:7019.got - 2010.06.04 00:33:39.
