data_PCOD9333094
_publ_section_title
;
Structure prediction by ZEFSAII (Michael W. Deem and Ramdas Pophale) SiO2 
 PCOD9333094
Probable space group: I 21 21 21
;
_chemical_formula_sum "Si O2"
_cell_formula_units_Z 48
_cell_length_a 11.550865
_cell_length_b 15.332785
_cell_length_c 13.828210
_cell_angle_alpha 90.000000
_cell_angle_beta 90.000000
_cell_angle_gamma 90.000000
_cell_volume 2449.071815
_symmetry_space_group_name_H-M "I 21 21 21"
_symmetry_group_IT_number 24
_symmetry_cell_setting 'orthorhombic'
loop_
_space_group_symop_operation_xyz
x,y,z
-x,1/2-y,z
x,-y,1/2-z
1/2-x,y,-z
1/2+x,1/2+y,1/2+z
1/2-x,-y,1/2+z
1/2+x,1/2-y,-z
-x,1/2+y,1/2-z
loop_
_atom_site_type_symbol
_atom_site_label
_atom_site_fract_x
_atom_site_fract_y
_atom_site_fract_z
Si Si1 0.091145 0.171061 0.407969
Si Si2 0.619301 0.075396 0.028317
Si Si3 0.355634 0.197426 0.378542
Si Si4 0.185090 0.392414 0.625879
Si Si5 0.491499 0.599172 0.278887
Si Si6 0.425658 0.531004 0.855039
O O1 0.218091 0.188983 0.366049
O O2 0.106363 0.150329 0.522617
O O3 0.000000 0.250000 0.395847
O O4 0.040204 0.086801 0.356692
O O5 0.532968 0.118049 0.107626
O O6 0.636816 0.979334 0.076515
O O7 0.750000 0.109047 0.000000
O O8 0.564311 0.051212 0.925832
O O9 0.365088 0.299948 0.407249
O O10 0.426187 0.162981 0.285134
O O11 0.138560 0.394363 0.735146
O O12 0.321333 0.404074 0.613461
O O13 0.530464 0.500000 0.250000
O O14 0.392364 0.500000 0.750000
#
# Coordination Sequence:
#
# PCOD9333094 Si02
#       6
#     8   8   8   8   8   8
#     4  11  21  36  54  85 122 157 192 247 308 364
#     4   9  18  32  56  84 118 151 189 256 308 352
#     4  11  22  33  58  87 121 157 193 253 310 358
#     4  10  18  33  57  89 114 144 197 256 307 347
#     4  10  19  33  52  84 124 154 192 241 301 375
#     4  11  21  35  57  85 114 156 200 244 305 358
#
# _framework density 19.599263000000001
#
# number of rings (size 3 to 8) (size 9 to 14) (size 15 to 20)
#    0.000    1.667    1.667    7.000    4.667    0.667 
#    0.000    0.000    0.000    2.000    4.333    0.000 
#   20.000    0.000    0.000    0.000    0.000    0.000 
#
# Total GULP energy -133602.250516 kJ/mol
# GULP energy per Si atom -5566.760438 kJ/mol
# Density = 1.955465 g / cm^3
# Si number density = 19.599263 Si / 1000 Ang^3
#
#
#
# Elastic Constant Matrix: (Units=GPa)
#
#
# Indices 1 2 3 4 5 6 
#
# 1 108.1709 16.3329 22.7931 0.0000 0.0000 0.0000
# 2 16.3329 32.5520 2.8707 0.0000 0.0000 0.0000
# 3 22.7931 2.8707 98.3244 0.0000 0.0000 0.0000
# 4 0.0000 0.0000 0.0000 21.8540 0.0000 0.0000
# 5 0.0000 0.0000 0.0000 0.0000 29.9459 0.0000
# 6 0.0000 0.0000 0.0000 0.0000 0.0000 29.3390
#
#
#
# Elastic Compliance Matrix: (Units=1/GPa)
#
#
# Indices 1 2 3 4 5 6 
#
# 1 0.010490 -0.005062 -0.002284 0.000000 0.000000 0.000000
# 2 -0.005062 0.033242 0.000203 0.000000 0.000000 0.000000
# 3 -0.002284 0.000203 0.010694 0.000000 0.000000 0.000000
# 4 0.000000 0.000000 0.000000 0.045758 0.000000 0.000000
# 5 0.000000 0.000000 0.000000 0.000000 0.033394 0.000000
# 6 0.000000 0.000000 0.000000 0.000000 0.000000 0.034084
#
#
# Mechanical properties :
#
#
# Convention : Reuss Voigt Hill
#
# Bulk Modulus (GPa) = 24.91281 35.89341 30.40311
# Shear Modulus (GPa) = 25.59792 29.36451 27.48121
#
# Velocity S-wave (km/s) = 3.61787 3.87492 3.74860
# Velocity P-wave (km/s) = 5.49461 6.19463 5.85509
#
# Compressibility (1/GPa) = 0.04013999
#
# Stress axis : x y z
#
# Youngs Moduli (GPa) = 95.32687 30.08240 93.51075
#
# Poissons Ratio (x) = 0.15228 0.21358
# Poissons Ratio (y) = 0.48255 -0.01897
# Poissons Ratio (z) = 0.21773 -0.00610
#
# Static dielectric constant tensor:
#      x y z
#    x 1.713880 0.000000 0.000000 
#    y 0.000000 1.722070 0.000000 
#    z 0.000000 0.000000 1.749170 
# 
# From -- ./inp_files/19708.got.cif
#   From: 2010.05.17/outbox.cif.g08.bks.cpg/sg24_10_cif.got.tgz:19708.got - 2010.06.04 00:33:39.
