data_PCOD9333201
_publ_section_title
;
Structure prediction by ZEFSAII (Michael W. Deem and Ramdas Pophale) SiO2 
 PCOD9333201
Probable space group: I 21 21 21
;
_chemical_formula_sum "Si O2"
_cell_formula_units_Z 56
_cell_length_a 18.956896
_cell_length_b 14.548263
_cell_length_c 9.399288
_cell_angle_alpha 90.000000
_cell_angle_beta 90.000000
_cell_angle_gamma 90.000000
_cell_volume 2592.228779
_symmetry_space_group_name_H-M "I 21 21 21"
_symmetry_group_IT_number 24
_symmetry_cell_setting 'orthorhombic'
loop_
_space_group_symop_operation_xyz
x,y,z
-x,1/2-y,z
x,-y,1/2-z
1/2-x,y,-z
1/2+x,1/2+y,1/2+z
1/2-x,-y,1/2+z
1/2+x,1/2-y,-z
-x,1/2+y,1/2-z
loop_
_atom_site_type_symbol
_atom_site_label
_atom_site_fract_x
_atom_site_fract_y
_atom_site_fract_z
Si Si1 0.189280 0.710798 0.669215
Si Si2 0.092038 0.594926 0.490290
Si Si3 0.187768 0.394320 0.252071
Si Si4 0.558731 0.509204 0.580122
Si Si5 0.983152 0.356664 0.617713
Si Si6 0.642001 0.094438 0.432193
Si Si7 0.639137 0.590330 0.334279
O O1 0.119587 0.681777 0.579238
O O2 0.268038 0.672015 0.646826
O O3 0.181805 0.655721 0.818690
O O4 0.187615 0.820241 0.676993
O O5 0.112751 0.602803 0.326258
O O6 0.144573 0.515727 0.553675
O O7 0.011672 0.561870 0.478862
O O8 0.216046 0.500000 0.250000
O O9 0.168174 0.370617 0.414173
O O10 0.562090 0.500000 0.750000
O O11 0.554135 0.406306 0.515076
O O12 0.621147 0.560986 0.495579
O O13 0.933634 0.381073 0.751053
O O14 0.000000 0.250000 0.603690
O O15 0.061342 0.397045 0.618363
O O16 0.665279 0.500000 0.250000
#
# Coordination Sequence:
#
# PCOD9333201 Si02
#       7
#     8   8   8   8   8   8   8
#     4  12  21  34  58  86 119 159 209 244 295 362
#     4  10  20  34  56  87 122 154 190 246 313 378
#     4  10  21  37  56  88 130 162 194 248 313 380
#     4  10  21  39  58  85 124 160 195 250 320 371
#     4  10  18  36  59  87 122 158 200 251 304 371
#     4  10  19  33  57  86 121 156 193 242 308 368
#     4  10  23  40  59  85 120 161 209 257 301 358
#
# _framework density 21.603033
#
# number of rings (size 3 to 8) (size 9 to 14) (size 15 to 20)
#    0.000    1.714    1.429    5.143    0.000    4.571 
#    5.143    0.000    0.000    3.429    0.000    0.000 
#    0.000    0.000    0.000    0.000    0.000    0.000 
#
# Total GULP energy -155896.479250 kJ/mol
# GULP energy per Si atom -5567.731402 kJ/mol
# Density = 2.155386 g / cm^3
# Si number density = 21.603033 Si / 1000 Ang^3
#
#
#
# Elastic Constant Matrix: (Units=GPa)
#
#
# Indices 1 2 3 4 5 6 
#
# 1 26.0968 -3.4117 -8.0696 0.0000 0.0000 0.0000
# 2 -3.4117 105.0421 15.0910 0.0000 0.0000 0.0000
# 3 -8.0696 15.0910 103.6899 0.0000 0.0000 0.0000
# 4 0.0000 0.0000 0.0000 -2.1857 0.0000 0.0000
# 5 0.0000 0.0000 0.0000 0.0000 29.3376 0.0000
# 6 0.0000 0.0000 0.0000 0.0000 0.0000 11.5950
#
#
#
# Elastic Compliance Matrix: (Units=1/GPa)
#
#
# Indices 1 2 3 4 5 6 
#
# 1 0.039339 0.000856 0.002937 0.000000 0.000000 0.000000
# 2 0.000856 0.009742 -0.001351 0.000000 0.000000 0.000000
# 3 0.002937 -0.001351 0.010069 0.000000 0.000000 0.000000
# 4 0.000000 0.000000 0.000000 -0.457519 0.000000 0.000000
# 5 0.000000 0.000000 0.000000 0.000000 0.034086 0.000000
# 6 0.000000 0.000000 0.000000 0.000000 0.000000 0.086244
#
#
# Mechanical properties :
#
#
# Convention : Reuss Voigt Hill
#
# Bulk Modulus (GPa) = 15.61690 26.89425 21.25557
# Shear Modulus (GPa) = -19.11483 23.16399 2.02458
#
# Velocity S-wave (km/s) = -2.97782 3.27808 0.96913
# Velocity P-wave (km/s) = 2.13974 5.17727 3.33359
#
# Compressibility (1/GPa) = 0.06403321
#
# Stress axis : x y z
#
# Youngs Moduli (GPa) = 25.42011 102.64928 99.31109
#
# Poissons Ratio (x) = -0.08784 -0.29168
# Poissons Ratio (y) = -0.02175 0.13419
# Poissons Ratio (z) = -0.07466 0.13870
#
# Static dielectric constant tensor:
#      x y z
#    x 1.987660 0.000000 0.000000 
#    y 0.000000 1.731560 0.000000 
#    z 0.000000 0.000000 1.876930 
# 
# From -- ./inp_files/15261.got.cif
#   From: 2010.05.17/outbox.cif.g08.bks.cpg/sg24_8_cif.got.tgz:15261.got - 2010.06.04 00:33:39.
