data_PCOD9333953
_publ_section_title
;
Structure prediction by ZEFSAII (Michael W. Deem and Ramdas Pophale) SiO2 
 PCOD9333953
Probable space group: I 21 21 21
;
_chemical_formula_sum "Si O2"
_cell_formula_units_Z 64
_cell_length_a 8.605520
_cell_length_b 28.626237
_cell_length_c 15.829753
_cell_angle_alpha 90.000000
_cell_angle_beta 90.000000
_cell_angle_gamma 90.000000
_cell_volume 3899.559212
_symmetry_space_group_name_H-M "I 21 21 21"
_symmetry_group_IT_number 24
_symmetry_cell_setting 'orthorhombic'
loop_
_space_group_symop_operation_xyz
x,y,z
-x,1/2-y,z
x,-y,1/2-z
1/2-x,y,-z
1/2+x,1/2+y,1/2+z
1/2-x,-y,1/2+z
1/2+x,1/2-y,-z
-x,1/2+y,1/2-z
loop_
_atom_site_type_symbol
_atom_site_label
_atom_site_fract_x
_atom_site_fract_y
_atom_site_fract_z
Si Si1 0.077989 0.454340 0.022129
Si Si2 0.137800 0.866418 0.924549
Si Si3 0.930811 0.455574 0.848279
Si Si4 0.937693 0.940909 0.822948
Si Si5 0.444900 0.128651 0.658268
Si Si6 0.424280 0.699534 0.963272
Si Si7 0.070740 0.050821 0.203003
Si Si8 0.143872 0.440900 0.430869
O O1 0.094550 0.510752 0.027248
O O2 0.022473 0.443567 0.116022
O O3 0.250000 0.436457 0.000000
O O4 0.966720 0.441183 0.944331
O O5 0.269923 0.853127 0.855727
O O6 0.025970 0.903316 0.880025
O O7 0.250000 0.883840 0.000000
O O8 0.033813 0.826503 0.967509
O O9 0.752836 0.451064 0.821202
O O10 0.980137 0.509762 0.841296
O O11 0.035893 0.430982 0.776111
O O12 0.758908 0.946158 0.851084
O O13 0.558865 0.169489 0.624062
O O14 0.456547 0.098173 0.743237
O O15 0.494629 0.087272 0.594205
O O16 0.500000 0.750000 0.949332
O O17 0.250000 0.702304 0.000000
O O18 0.036944 0.000000 0.250000
O O19 0.250000 0.414944 0.500000
#
# Coordination Sequence:
#
# PCOD9333953 Si02
#       8
#     8   8   8   8   8   8   8   8
#     4  11  24  35  48  69 103 148 194 242 288 327
#     4  10  20  33  55  78 108 143 185 229 276 341
#     4  11  22  35  48  69 104 147 196 243 287 326
#     4  11  20  32  49  72 104 144 196 240 283 332
#     4  11  21  35  56  81 108 149 193 235 283 343
#     4  11  23  41  62  90 121 153 186 235 292 352
#     4  12  22  36  52  76 107 150 198 244 287 343
#     4  11  20  32  47  74 103 145 195 236 283 332
#
# _framework density 16.412112
#
# number of rings (size 3 to 8) (size 9 to 14) (size 15 to 20)
#    0.000    1.000    6.250    4.125    1.750    0.000 
#    0.000    0.000    0.000    0.000    0.000    0.000 
#    0.000    3.000    0.000    0.000    0.000    0.000 
#
# Total GULP energy -178224.663463 kJ/mol
# GULP energy per Si atom -5569.520733 kJ/mol
# Density = 1.637476 g / cm^3
# Si number density = 16.412112 Si / 1000 Ang^3
#
#
#
# Elastic Constant Matrix: (Units=GPa)
#
#
# Indices 1 2 3 4 5 6 
#
# 1 88.5777 22.1587 44.4658 0.0000 0.0000 0.0000
# 2 22.1587 65.2630 38.0021 0.0000 0.0000 0.0000
# 3 44.4658 38.0021 131.9866 0.0000 0.0000 0.0000
# 4 0.0000 0.0000 0.0000 18.9035 0.0000 0.0000
# 5 0.0000 0.0000 0.0000 0.0000 29.6250 0.0000
# 6 0.0000 0.0000 0.0000 0.0000 0.0000 21.1983
#
#
#
# Elastic Compliance Matrix: (Units=1/GPa)
#
#
# Indices 1 2 3 4 5 6 
#
# 1 0.013892 -0.002393 -0.003991 0.000000 0.000000 0.000000
# 2 -0.002393 0.018821 -0.004613 0.000000 0.000000 0.000000
# 3 -0.003991 -0.004613 0.010249 0.000000 0.000000 0.000000
# 4 0.000000 0.000000 0.000000 0.052900 0.000000 0.000000
# 5 0.000000 0.000000 0.000000 0.000000 0.033755 0.000000
# 6 0.000000 0.000000 0.000000 0.000000 0.000000 0.047174
#
#
# Mechanical properties :
#
#
# Convention : Reuss Voigt Hill
#
# Bulk Modulus (GPa) = 47.69045 55.00893 51.34969
# Shear Modulus (GPa) = 24.29848 26.02540 25.16194
#
# Velocity S-wave (km/s) = 3.85193 3.98646 3.91977
# Velocity P-wave (km/s) = 6.99316 7.40130 7.20012
#
# Compressibility (1/GPa) = 0.02096856
#
# Stress axis : x y z
#
# Youngs Moduli (GPa) = 71.98599 53.13193 97.56750
#
# Poissons Ratio (x) = 0.12712 0.38941
# Poissons Ratio (y) = 0.17223 0.45008
# Poissons Ratio (z) = 0.28731 0.24510
#
# Static dielectric constant tensor:
#      x y z
#    x 1.610560 0.000000 0.000000 
#    y 0.000000 1.552900 0.000000 
#    z 0.000000 0.000000 1.658830 
# 
# From -- ./inp_files/25291.got.cif
#   From: 2010.05.17/outbox.cif.g08.bks.cpg/sg24_13_cif.got.tgz:25291.got - 2010.06.04 00:33:39.
