data_PCOD9333780
_publ_section_title
;
Structure prediction by ZEFSAII (Michael W. Deem and Ramdas Pophale) SiO2 
 PCOD9333780
Probable space group: I 21 21 21
;
_chemical_formula_sum "Si O2"
_cell_formula_units_Z 60
_cell_length_a 28.344133
_cell_length_b 8.966680
_cell_length_c 12.206979
_cell_angle_alpha 90.000000
_cell_angle_beta 90.000000
_cell_angle_gamma 90.000000
_cell_volume 3102.437532
_symmetry_space_group_name_H-M "I 21 21 21"
_symmetry_group_IT_number 24
_symmetry_cell_setting 'orthorhombic'
loop_
_space_group_symop_operation_xyz
x,y,z
-x,1/2-y,z
x,-y,1/2-z
1/2-x,y,-z
1/2+x,1/2+y,1/2+z
1/2-x,-y,1/2+z
1/2+x,1/2-y,-z
-x,1/2+y,1/2-z
loop_
_atom_site_type_symbol
_atom_site_label
_atom_site_fract_x
_atom_site_fract_y
_atom_site_fract_z
Si Si1 0.013494 0.922576 0.425412
Si Si2 0.967523 0.372479 0.833999
Si Si3 0.612565 0.430612 0.636000
Si Si4 0.922304 0.090539 0.356890
Si Si5 0.868378 0.927798 0.917270
Si Si6 0.379870 0.286449 0.199172
Si Si7 0.318576 0.000000 0.250000
Si Si8 0.696694 0.652504 0.033158
O O1 0.008318 0.933261 0.557168
O O2 0.000000 0.750000 0.395097
O O3 0.067513 0.968345 0.399991
O O4 0.976662 0.038761 0.372336
O O5 0.953898 0.500000 0.750000
O O6 0.922682 0.276971 0.870815
O O7 0.000000 0.250000 0.776844
O O8 0.630228 0.500000 0.750000
O O9 0.589828 0.265695 0.654497
O O10 0.656305 0.414963 0.549761
O O11 0.896505 0.048749 0.470933
O O12 0.904851 0.000000 0.250000
O O13 0.897478 0.852810 0.816139
O O14 0.826691 0.811040 0.935764
O O15 0.853554 0.085222 0.866590
O O16 0.348947 0.145407 0.225793
O O17 0.295214 0.957440 0.135983
O O18 0.750000 0.683498 0.000000
#
# Coordination Sequence:
#
# PCOD9333780 Si02
#       8
#     8   8   8   8   8   8   4   8
#     4  11  23  39  58  90 128 170 212 255 312 378
#     4  11  24  32  53  87 128 166 206 261 297 367
#     4  11  24  41  65  92 123 170 213 266 317 379
#     4  11  23  39  60  88 125 174 211 258 306 378
#     4   9  21  38  65  87 122 168 205 256 318 386
#     4  10  19  38  61  91 121 159 206 255 318 373
#     4  10  20  38  66  94 118 158 198 258 322 380
#     4  10  23  42  67  93 126 161 207 268 327 387
#
# _framework density 19.339632999999999
#
# number of rings (size 3 to 8) (size 9 to 14) (size 15 to 20)
#    0.000    1.600    0.667    4.000    8.400    1.067 
#    0.000    0.667   23.467    0.000    0.000    0.000 
#    0.000    0.000    0.000    0.000    0.000    0.000 
#
# Total GULP energy -167110.450936 kJ/mol
# GULP energy per Si atom -5570.348365 kJ/mol
# Density = 1.929561 g / cm^3
# Si number density = 19.339633 Si / 1000 Ang^3
#
#
#
# Elastic Constant Matrix: (Units=GPa)
#
#
# Indices 1 2 3 4 5 6 
#
# 1 90.0089 31.6091 38.8511 0.0000 0.0000 0.0000
# 2 31.6091 103.5650 51.2751 0.0000 0.0000 0.0000
# 3 38.8511 51.2751 115.2262 0.0000 0.0000 0.0000
# 4 0.0000 0.0000 0.0000 32.8300 0.0000 0.0000
# 5 0.0000 0.0000 0.0000 0.0000 11.5188 0.0000
# 6 0.0000 0.0000 0.0000 0.0000 0.0000 9.6975
#
#
#
# Elastic Compliance Matrix: (Units=1/GPa)
#
#
# Indices 1 2 3 4 5 6 
#
# 1 0.013446 -0.002385 -0.003473 0.000000 0.000000 0.000000
# 2 -0.002385 0.012807 -0.004895 0.000000 0.000000 0.000000
# 3 -0.003473 -0.004895 0.012028 0.000000 0.000000 0.000000
# 4 0.000000 0.000000 0.000000 0.030460 0.000000 0.000000
# 5 0.000000 0.000000 0.000000 0.000000 0.086815 0.000000
# 6 0.000000 0.000000 0.000000 0.000000 0.000000 0.103120
#
#
# Mechanical properties :
#
#
# Convention : Reuss Voigt Hill
#
# Bulk Modulus (GPa) = 59.60695 61.36343 60.48519
# Shear Modulus (GPa) = 17.49644 23.28023 20.38834
#
# Velocity S-wave (km/s) = 3.01108 3.47329 3.25041
# Velocity P-wave (km/s) = 6.55567 6.91977 6.74018
#
# Compressibility (1/GPa) = 0.01677657
#
# Stress axis : x y z
#
# Youngs Moduli (GPa) = 74.36959 78.08134 83.14133
#
# Poissons Ratio (x) = 0.18620 0.28871
# Poissons Ratio (y) = 0.17735 0.40698
# Poissons Ratio (z) = 0.25825 0.38221
#
# Static dielectric constant tensor:
#      x y z
#    x 1.676590 0.000000 0.000000 
#    y 0.000000 1.691370 0.000000 
#    z 0.000000 0.000000 1.842060 
# 
# From -- ./inp_files/23150.got.cif
#   From: 2010.05.17/outbox.cif.g08.bks.cpg/sg24_12_cif.got.tgz:23150.got - 2010.06.04 00:33:39.
