data_PCOD9333857
_publ_section_title
;
Structure prediction by ZEFSAII (Michael W. Deem and Ramdas Pophale) SiO2 
 PCOD9333857
Probable space group: I 21 21 21
;
_chemical_formula_sum "Si O2"
_cell_formula_units_Z 60
_cell_length_a 9.421321
_cell_length_b 12.432000
_cell_length_c 22.222057
_cell_angle_alpha 90.000000
_cell_angle_beta 90.000000
_cell_angle_gamma 90.000000
_cell_volume 2602.777596
_symmetry_space_group_name_H-M "I 21 21 21"
_symmetry_group_IT_number 24
_symmetry_cell_setting 'orthorhombic'
loop_
_space_group_symop_operation_xyz
x,y,z
-x,1/2-y,z
x,-y,1/2-z
1/2-x,y,-z
1/2+x,1/2+y,1/2+z
1/2-x,-y,1/2+z
1/2+x,1/2-y,-z
-x,1/2+y,1/2-z
loop_
_atom_site_type_symbol
_atom_site_label
_atom_site_fract_x
_atom_site_fract_y
_atom_site_fract_z
Si Si1 0.264248 0.717346 0.287602
Si Si2 0.110150 0.517811 0.469927
Si Si3 0.500000 0.250000 0.117839
Si Si4 0.322011 0.362895 0.340609
Si Si5 0.230652 0.966364 0.311635
Si Si6 0.051340 0.011322 0.912797
Si Si7 0.332460 0.273342 0.557786
Si Si8 0.577251 0.038914 0.836425
O O1 0.379108 0.699923 0.339703
O O2 0.341730 0.690253 0.224792
O O3 0.219408 0.839038 0.300608
O O4 0.132011 0.639452 0.298494
O O5 0.250000 0.572908 0.500000
O O6 0.167962 0.401804 0.450454
O O7 0.064696 0.571100 0.407280
O O8 0.987594 0.489036 0.517839
O O9 0.458048 0.142620 0.083573
O O10 0.442716 0.434222 0.374339
O O11 0.265144 0.265811 0.383204
O O12 0.197284 0.449138 0.329894
O O13 0.307514 0.998945 0.373046
O O14 0.071667 0.009166 0.316021
O O15 0.308580 0.000000 0.250000
O O16 0.500000 0.250000 0.563816
O O17 0.250000 0.225159 0.500000
#
# Coordination Sequence:
#
# PCOD9333857 Si02
#       8
#     8   8   4   8   8   8   8   8
#     4  11  23  40  66  97 130 174 231 270 340 409
#     4  10  19  43  68  94 128 178 230 275 335 415
#     4  10  22  38  64 102 122 164 224 280 310 416
#     4  11  22  41  74  92 130 184 227 272 353 412
#     4  11  27  43  60 100 145 170 222 291 339 406
#     4  11  22  43  67  96 134 170 224 280 339 399
#     4  10  21  42  61  96 132 175 230 283 337 412
#     4  11  22  41  71  93 134 180 216 280 347 410
#
# _framework density 23.052295000000001
#
# number of rings (size 3 to 8) (size 9 to 14) (size 15 to 20)
#    0.000    1.333    5.333    1.600    3.733    3.733 
#   10.800    0.000    0.000    0.000    0.000    0.000 
#    0.000    0.000    0.000    0.000    0.000    0.000 
#
# Total GULP energy -167143.816023 kJ/mol
# GULP energy per Si atom -5571.460534 kJ/mol
# Density = 2.299983 g / cm^3
# Si number density = 23.052295 Si / 1000 Ang^3
#
#
#
# Elastic Constant Matrix: (Units=GPa)
#
#
# Indices 1 2 3 4 5 6 
#
# 1 76.6026 11.8773 5.8433 0.0000 0.0000 0.0000
# 2 11.8773 35.2989 2.9911 0.0000 0.0000 0.0000
# 3 5.8433 2.9911 115.6170 0.0000 0.0000 0.0000
# 4 0.0000 0.0000 0.0000 -21.6878 0.0000 0.0000
# 5 0.0000 0.0000 0.0000 0.0000 5.7366 0.0000
# 6 0.0000 0.0000 0.0000 0.0000 0.0000 53.0464
#
#
#
# Elastic Compliance Matrix: (Units=1/GPa)
#
#
# Indices 1 2 3 4 5 6 
#
# 1 0.013812 -0.004598 -0.000579 0.000000 0.000000 0.000000
# 2 -0.004598 0.029923 -0.000542 0.000000 0.000000 0.000000
# 3 -0.000579 -0.000542 0.008693 0.000000 0.000000 0.000000
# 4 0.000000 0.000000 0.000000 -0.046109 0.000000 0.000000
# 5 0.000000 0.000000 0.000000 0.000000 0.174319 0.000000
# 6 0.000000 0.000000 0.000000 0.000000 0.000000 0.018851
#
#
# Mechanical properties :
#
#
# Convention : Reuss Voigt Hill
#
# Bulk Modulus (GPa) = 24.39703 29.88245 27.13974
# Shear Modulus (GPa) = 22.26289 21.20618 21.73453
#
# Velocity S-wave (km/s) = 3.11103 3.03630 3.07389
# Velocity P-wave (km/s) = 4.84882 5.02824 4.93934
#
# Compressibility (1/GPa) = 0.04098859
#
# Stress axis : x y z
#
# Youngs Moduli (GPa) = 72.40337 33.41958 115.04136
#
# Poissons Ratio (x) = 0.15367 0.06662
# Poissons Ratio (y) = 0.33293 0.06232
# Poissons Ratio (z) = 0.04193 0.01810
#
# Static dielectric constant tensor:
#      x y z
#    x 2.047820 0.000000 0.000000 
#    y 0.000000 1.951820 0.000000 
#    z 0.000000 0.000000 1.717280 
# 
# From -- ./inp_files/35254.got.cif
#   From: 2010.05.17/outbox.cif.g08.bks.cpg/sg24_18_cif.got.tgz:35254.got - 2010.06.04 00:33:39.
