data_PCOD9333107
_publ_section_title
;
Structure prediction by ZEFSAII (Michael W. Deem and Ramdas Pophale) SiO2 
 PCOD9333107
Probable space group: I 21 21 21
;
_chemical_formula_sum "Si O2"
_cell_formula_units_Z 56
_cell_length_a 12.241295
_cell_length_b 20.998785
_cell_length_c 12.192458
_cell_angle_alpha 90.000000
_cell_angle_beta 90.000000
_cell_angle_gamma 90.000000
_cell_volume 3134.099638
_symmetry_space_group_name_H-M "I 21 21 21"
_symmetry_group_IT_number 24
_symmetry_cell_setting 'orthorhombic'
loop_
_space_group_symop_operation_xyz
x,y,z
-x,1/2-y,z
x,-y,1/2-z
1/2-x,y,-z
1/2+x,1/2+y,1/2+z
1/2-x,-y,1/2+z
1/2+x,1/2-y,-z
-x,1/2+y,1/2-z
loop_
_atom_site_type_symbol
_atom_site_label
_atom_site_fract_x
_atom_site_fract_y
_atom_site_fract_z
Si Si1 0.115579 0.151132 0.213954
Si Si2 0.753042 0.770639 0.818289
Si Si3 0.821967 0.573467 0.727643
Si Si4 0.541674 0.177602 0.604434
Si Si5 0.078631 0.841920 0.544740
Si Si6 0.840110 0.799936 0.592734
Si Si7 0.863013 0.340629 0.568241
O O1 0.180951 0.213078 0.261851
O O2 0.193874 0.091194 0.232411
O O3 0.004782 0.147667 0.283100
O O4 0.096635 0.157371 0.085204
O O5 0.671434 0.814449 0.888661
O O6 0.800911 0.809469 0.716774
O O7 0.842649 0.731902 0.888788
O O8 0.841895 0.500000 0.750000
O O9 0.866687 0.601060 0.612688
O O10 0.871988 0.615625 0.825436
O O11 0.500000 0.250000 0.603909
O O12 0.469756 0.149327 0.505893
O O13 0.130732 0.775421 0.585599
O O14 0.950386 0.837754 0.568565
O O15 0.750000 0.813080 0.500000
O O16 0.750000 0.354542 0.500000
#
# Coordination Sequence:
#
# PCOD9333107 Si02
#       7
#     8   8   8   8   8   8   8
#     4  10  18  34  51  79 115 140 183 218 272 332
#     4  10  19  32  49  81 116 149 179 215 273 337
#     4  11  23  38  55  77 110 153 188 239 274 318
#     4  10  19  31  53  76 113 155 171 222 268 335
#     4  11  21  33  55  86 114 145 179 226 277 339
#     4  11  19  32  55  87 120 143 173 221 285 348
#     4  11  19  34  49  77 112 146 192 214 268 327
#
# _framework density 17.86797
#
# number of rings (size 3 to 8) (size 9 to 14) (size 15 to 20)
#    0.000    1.429    8.571    1.286    4.000    2.286 
#    0.000    0.000    0.000    0.000    3.714    0.000 
#    0.000    0.000    0.000    0.000    0.000    0.000 
#
# Total GULP energy -156156.587108 kJ/mol
# GULP energy per Si atom -5577.020968 kJ/mol
# Density = 1.782730 g / cm^3
# Si number density = 17.867970 Si / 1000 Ang^3
#
#
#
# Elastic Constant Matrix: (Units=GPa)
#
#
# Indices 1 2 3 4 5 6 
#
# 1 68.5555 17.0721 31.5256 0.0000 0.0000 0.0000
# 2 17.0721 39.9088 11.9445 0.0002 0.0000 0.0000
# 3 31.5256 11.9445 106.8987 0.0003 0.0001 -0.0001
# 4 0.0000 0.0002 0.0003 9.3734 0.0000 0.0000
# 5 0.0000 0.0000 0.0001 0.0000 27.8807 0.0000
# 6 0.0000 0.0000 -0.0001 0.0000 0.0000 9.5830
#
#
#
# Elastic Compliance Matrix: (Units=1/GPa)
#
#
# Indices 1 2 3 4 5 6 
#
# 1 0.018349 -0.006445 -0.004691 0.000000 0.000000 0.000000
# 2 -0.006445 0.028188 -0.001249 0.000000 0.000000 0.000000
# 3 -0.004691 -0.001249 0.010878 0.000000 0.000000 0.000000
# 4 0.000000 0.000000 0.000000 0.106685 0.000000 0.000000
# 5 0.000000 0.000000 0.000000 0.000000 0.035867 0.000000
# 6 0.000000 0.000000 0.000000 0.000000 0.000000 0.104352
#
#
# Mechanical properties :
#
#
# Convention : Reuss Voigt Hill
#
# Bulk Modulus (GPa) = 30.63334 37.38305 34.00819
# Shear Modulus (GPa) = 14.70715 19.68879 17.19797
#
# Velocity S-wave (km/s) = 2.87209 3.32310 3.10579
# Velocity P-wave (km/s) = 5.30848 5.97421 5.65116
#
# Compressibility (1/GPa) = 0.03264417
#
# Stress axis : x y z
#
# Youngs Moduli (GPa) = 54.49887 35.47605 91.93150
#
# Poissons Ratio (x) = 0.22865 0.43127
# Poissons Ratio (y) = 0.35126 0.11481
# Poissons Ratio (z) = 0.25566 0.04430
#
# Static dielectric constant tensor:
#      x y z
#    x 1.687730 0.000000 0.000000 
#    y 0.000000 1.580370 0.000000 
#    z 0.000000 0.000000 1.665960 
# 
# From -- ./inp_files/20083.got.cif
#   From: 2010.05.17/outbox.cif.g08.bks.cpg/sg24_11_cif.got.tgz:20083.got - 2010.06.04 00:33:39.
