data_PCOD9333381
_publ_section_title
;
Structure prediction by ZEFSAII (Michael W. Deem and Ramdas Pophale) SiO2 
 PCOD9333381
Probable space group: I 21 21 21
;
_chemical_formula_sum "Si O2"
_cell_formula_units_Z 64
_cell_length_a 28.593557
_cell_length_b 8.716514
_cell_length_c 14.959491
_cell_angle_alpha 90.000000
_cell_angle_beta 90.000000
_cell_angle_gamma 90.000000
_cell_volume 3728.445792
_symmetry_space_group_name_H-M "I 21 21 21"
_symmetry_group_IT_number 24
_symmetry_cell_setting 'orthorhombic'
loop_
_space_group_symop_operation_xyz
x,y,z
-x,1/2-y,z
x,-y,1/2-z
1/2-x,y,-z
1/2+x,1/2+y,1/2+z
1/2-x,-y,1/2+z
1/2+x,1/2-y,-z
-x,1/2+y,1/2-z
loop_
_atom_site_type_symbol
_atom_site_label
_atom_site_fract_x
_atom_site_fract_y
_atom_site_fract_z
Si Si1 0.861337 0.433028 0.470413
Si Si2 0.446523 0.564892 0.847750
Si Si3 0.770332 0.423894 0.100742
Si Si4 0.270332 0.423894 0.899258
Si Si5 0.638663 0.933028 0.970413
Si Si6 0.328974 0.434651 0.158010
Si Si7 0.328974 0.065349 0.158010
Si Si8 0.946523 0.564892 0.152250
O O1 0.817425 0.480020 0.407805
O O2 0.861596 0.250000 0.481303
O O3 0.853695 0.508245 0.567563
O O4 0.908777 0.483503 0.421373
O O5 0.434713 0.500000 0.750000
O O6 0.500000 0.518371 0.868671
O O7 0.445222 0.750000 0.843223
O O8 0.408777 0.516498 0.921373
O O9 0.780954 0.250000 0.130963
O O10 0.725459 0.488345 0.152222
O O11 0.750000 0.413547 0.000000
O O12 0.225459 0.488344 0.847778
O O13 0.250000 0.413546 0.000000
O O14 0.317425 0.519979 0.907805
O O15 0.646304 0.008245 0.067563
O O16 0.349375 0.500000 0.250000
O O17 0.328632 0.250000 0.158324
O O18 0.349375 0.000000 0.250000
O O19 0.934713 0.500000 0.250000
#
# Coordination Sequence:
#
# PCOD9333381 Si02
#       8
#     8   8   8   8   8   8   8   8
#     4  10  19  31  50  74  99 129 164 202 243 288
#     4   9  19  35  53  74  99 126 158 198 245 294
#     4   8  16  30  45  64  93 127 160 195 234 276
#     4   8  16  30  45  64  93 127 160 195 234 276
#     4  10  19  31  50  74  99 129 164 202 243 288
#     4  10  20  33  49  70  99 134 168 202 240 284
#     4  10  20  33  49  70  99 134 168 202 240 284
#     4   9  19  35  53  74  99 126 158 198 245 294
#
# _framework density 17.165329
#
# number of rings (size 3 to 8) (size 9 to 14) (size 15 to 20)
#    0.000    2.750    0.000    3.000    0.000    8.500 
#    0.000    5.000    0.000    0.750    0.000    0.000 
#    0.000    0.000    0.000    0.000    0.000    0.000 
#
# Total GULP energy -178277.167808 kJ/mol
# GULP energy per Si atom -5571.161494 kJ/mol
# Density = 1.712626 g / cm^3
# Si number density = 17.165329 Si / 1000 Ang^3
#
#
#
# Elastic Constant Matrix: (Units=GPa)
#
#
# Indices 1 2 3 4 5 6 
#
# 1 104.7433 34.3852 76.8729 0.0000 0.0000 0.0000
# 2 34.3852 33.9937 28.8733 0.0000 0.0000 0.0000
# 3 76.8729 28.8733 116.6595 0.0000 0.0000 0.0000
# 4 0.0000 0.0000 0.0000 19.8221 0.0000 0.0000
# 5 0.0000 0.0000 0.0000 0.0000 24.7916 0.0000
# 6 0.0000 0.0000 0.0000 0.0000 0.0000 18.6905
#
#
#
# Elastic Compliance Matrix: (Units=1/GPa)
#
#
# Indices 1 2 3 4 5 6 
#
# 1 0.022075 -0.012629 -0.011420 0.000000 0.000000 0.000000
# 2 -0.012629 0.044472 -0.002685 0.000000 0.000000 0.000000
# 3 -0.011420 -0.002685 0.016762 0.000000 0.000000 0.000000
# 4 0.000000 0.000000 0.000000 0.050449 0.000000 0.000000
# 5 0.000000 0.000000 0.000000 0.000000 0.040336 0.000000
# 6 0.000000 0.000000 0.000000 0.000000 0.000000 0.053503
#
#
# Mechanical properties :
#
#
# Convention : Reuss Voigt Hill
#
# Bulk Modulus (GPa) = 33.51196 59.51769 46.51483
# Shear Modulus (GPa) = 17.18143 20.34519 18.76331
#
# Velocity S-wave (km/s) = 3.16719 3.44648 3.30978
# Velocity P-wave (km/s) = 5.73936 7.11239 6.46244
#
# Compressibility (1/GPa) = 0.02984009
#
# Stress axis : x y z
#
# Youngs Moduli (GPa) = 45.30099 22.48606 59.65841
#
# Poissons Ratio (x) = 0.28397 0.68133
# Poissons Ratio (y) = 0.57209 0.16020
# Poissons Ratio (z) = 0.51736 0.06038
#
# Static dielectric constant tensor:
#      x y z
#    x 1.590750 0.000000 0.000000 
#    y 0.000000 1.588180 0.000000 
#    z 0.000000 0.000000 1.589310 
# 
# From -- ./inp_files/27892.got.cif
#   From: 2010.05.17/outbox.cif.g08.bks.cpg/sg24_14_cif.got.tgz:27892.got - 2010.06.04 00:33:39.
