data_PCOD9333683
_publ_section_title
;
Structure prediction by ZEFSAII (Michael W. Deem and Ramdas Pophale) SiO2 
 PCOD9333683
Probable space group: I 21 21 21
;
_chemical_formula_sum "Si O2"
_cell_formula_units_Z 64
_cell_length_a 15.617190
_cell_length_b 20.975561
_cell_length_c 8.843954
_cell_angle_alpha 90.000000
_cell_angle_beta 90.000000
_cell_angle_gamma 90.000000
_cell_volume 2897.096451
_symmetry_space_group_name_H-M "I 21 21 21"
_symmetry_group_IT_number 24
_symmetry_cell_setting 'orthorhombic'
loop_
_space_group_symop_operation_xyz
x,y,z
-x,1/2-y,z
x,-y,1/2-z
1/2-x,y,-z
1/2+x,1/2+y,1/2+z
1/2-x,-y,1/2+z
1/2+x,1/2-y,-z
-x,1/2+y,1/2-z
loop_
_atom_site_type_symbol
_atom_site_label
_atom_site_fract_x
_atom_site_fract_y
_atom_site_fract_z
Si Si1 0.018299 0.443023 0.627922
Si Si2 0.392098 0.827483 0.588959
Si Si3 0.826066 0.551344 0.886402
Si Si4 0.074399 0.682588 0.358065
Si Si5 0.619533 0.882494 0.362536
Si Si6 0.761942 0.822322 0.177558
Si Si7 0.288638 0.821985 0.280098
Si Si8 0.657852 0.994473 0.930838
O O1 0.031765 0.500000 0.750000
O O2 0.924404 0.451727 0.560737
O O3 0.041194 0.385839 0.743493
O O4 0.087097 0.446482 0.496035
O O5 0.418653 0.759017 0.657058
O O6 0.485510 0.857535 0.622927
O O7 0.358597 0.824084 0.416043
O O8 0.305062 0.848763 0.669152
O O9 0.820494 0.500000 0.750000
O O10 0.817435 0.625502 0.839584
O O11 0.750000 0.535489 0.000000
O O12 0.112885 0.676360 0.526108
O O13 0.141942 0.662304 0.231876
O O14 0.703253 0.873587 0.262398
O O15 0.632130 0.940073 0.481163
O O16 0.730629 0.750770 0.229119
O O17 0.750000 0.824898 0.000000
O O18 0.658726 0.000000 0.750000
O O19 0.750000 0.977797 0.000000
#
# Coordination Sequence:
#
# PCOD9333683 Si02
#       8
#     8   8   8   8   8   8   8   8
#     4   9  22  43  64  90 128 169 218 271 324 384
#     4   9  19  35  67  91 122 166 211 264 324 392
#     4  11  25  45  67  92 127 170 222 277 328 389
#     4  10  19  36  60  97 125 161 221 260 318 402
#     4  11  21  39  64  93 127 171 215 260 322 399
#     4  11  23  38  62  96 138 176 212 271 337 404
#     4  10  20  41  66  92 127 170 215 272 338 380
#     4  11  23  40  64  94 132 172 213 266 325 391
#
# _framework density 22.091085
#
# number of rings (size 3 to 8) (size 9 to 14) (size 15 to 20)
#    0.000    1.750    1.250    3.375    1.750    3.000 
#    4.500    0.000   11.000    0.000    0.000    0.000 
#    0.000    0.000    0.000    0.000    0.000    0.000 
#
# Total GULP energy -178234.029407 kJ/mol
# GULP energy per Si atom -5569.813419 kJ/mol
# Density = 2.204080 g / cm^3
# Si number density = 22.091085 Si / 1000 Ang^3
#
#
#
# Elastic Constant Matrix: (Units=GPa)
#
#
# Indices 1 2 3 4 5 6 
#
# 1 175.8286 -6.9764 76.8170 0.0000 0.0000 0.0000
# 2 -6.9764 31.7262 -2.3490 0.0000 0.0000 0.0000
# 3 76.8170 -2.3490 118.6934 0.0000 0.0000 0.0000
# 4 0.0000 0.0000 0.0000 15.2676 0.0000 0.0000
# 5 0.0000 0.0000 0.0000 0.0000 35.3390 0.0000
# 6 0.0000 0.0000 0.0000 0.0000 0.0000 13.2830
#
#
#
# Elastic Compliance Matrix: (Units=1/GPa)
#
#
# Indices 1 2 3 4 5 6 
#
# 1 0.007989 0.001376 -0.005143 0.000000 0.000000 0.000000
# 2 0.001376 0.031803 -0.000261 0.000000 0.000000 0.000000
# 3 -0.005143 -0.000261 0.011748 0.000000 0.000000 0.000000
# 4 0.000000 0.000000 0.000000 0.065498 0.000000 0.000000
# 5 0.000000 0.000000 0.000000 0.000000 0.028297 0.000000
# 6 0.000000 0.000000 0.000000 0.000000 0.000000 0.075284
#
#
# Mechanical properties :
#
#
# Convention : Reuss Voigt Hill
#
# Bulk Modulus (GPa) = 22.99711 51.24794 37.12252
# Shear Modulus (GPa) = 20.56168 30.02837 25.29503
#
# Velocity S-wave (km/s) = 3.05416 3.69087 3.38750
# Velocity P-wave (km/s) = 4.78225 6.43523 5.66931
#
# Compressibility (1/GPa) = 0.04348373
#
# Stress axis : x y z
#
# Youngs Moduli (GPa) = 125.17385 31.44369 85.11764
#
# Poissons Ratio (x) = -0.04326 0.43777
# Poissons Ratio (y) = -0.17223 0.02222
# Poissons Ratio (z) = 0.64378 0.00821
#
# Static dielectric constant tensor:
#      x y z
#    x 2.015260 0.000000 0.000000 
#    y 0.000000 1.950990 0.000000 
#    z 0.000000 0.000000 1.815380 
# 
# From -- ./inp_files/13367.got.cif
#   From: 2010.05.17/outbox.cif.g08.bks.cpg/sg24_7_cif.got.tgz:13367.got - 2010.06.04 00:33:39.
