data_PCOD9333099
_publ_section_title
;
Structure prediction by ZEFSAII (Michael W. Deem and Ramdas Pophale) SiO2 
 PCOD9333099
Probable space group: I 21 21 21
;
_chemical_formula_sum "Si O2"
_cell_formula_units_Z 56
_cell_length_a 5.283414
_cell_length_b 32.278242
_cell_length_c 15.003450
_cell_angle_alpha 90.000000
_cell_angle_beta 90.000000
_cell_angle_gamma 90.000000
_cell_volume 2558.678096
_symmetry_space_group_name_H-M "I 21 21 21"
_symmetry_group_IT_number 24
_symmetry_cell_setting 'orthorhombic'
loop_
_space_group_symop_operation_xyz
x,y,z
-x,1/2-y,z
x,-y,1/2-z
1/2-x,y,-z
1/2+x,1/2+y,1/2+z
1/2-x,-y,1/2+z
1/2+x,1/2-y,-z
-x,1/2+y,1/2-z
loop_
_atom_site_type_symbol
_atom_site_label
_atom_site_fract_x
_atom_site_fract_y
_atom_site_fract_z
Si Si1 0.931418 0.141166 0.798908
Si Si2 0.246852 0.276113 0.791285
Si Si3 0.510694 0.075705 0.053948
Si Si4 0.242179 0.965326 0.831247
Si Si5 0.891068 0.796549 0.091313
Si Si6 0.581108 0.370867 0.694055
Si Si7 0.745758 0.995098 0.857135
O O1 0.798367 0.181088 0.842778
O O2 0.697167 0.124852 0.739085
O O3 0.030456 0.107109 0.866460
O O4 0.191252 0.151799 0.747682
O O5 0.500000 0.250000 0.807922
O O6 0.249261 0.289740 0.686374
O O7 0.000000 0.250000 0.808013
O O8 0.628983 0.034601 0.097753
O O9 0.250000 0.069776 0.000000
O O10 0.750000 0.093173 0.000000
O O11 0.330749 0.918663 0.812454
O O12 0.213774 0.000000 0.750000
O O13 0.466240 0.984758 0.890893
O O14 0.961918 0.961194 0.870190
O O15 0.000000 0.750000 0.077430
O O16 0.049812 0.838507 0.112212
O O17 0.750000 0.805460 0.000000
O O18 0.710315 0.000000 0.750000
#
# Coordination Sequence:
#
# PCOD9333099 Si02
#       7
#     8   8   8   8   8   8   8
#     4  11  21  39  62  89 127 163 207 269 321 383
#     4  10  20  36  60  90 118 158 212 258 311 389
#     4  12  25  41  64  97 129 161 212 272 334 399
#     4  10  18  33  58  86 116 155 208 260 310 371
#     4  10  21  37  59  89 130 171 216 274 337 386
#     4  11  22  37  63  95 123 171 231 269 318 404
#     4  10  20  37  61  86 120 165 207 248 312 390
#
# _framework density 21.886301
#
# number of rings (size 3 to 8) (size 9 to 14) (size 15 to 20)
#    0.000    1.429    0.000    9.000    0.000    1.143 
#    0.000    2.143    0.000    3.429    0.000    0.000 
#    0.000    0.000    0.000    0.000    0.000    0.000 
#
# Total GULP energy -155891.577305 kJ/mol
# GULP energy per Si atom -5567.556332 kJ/mol
# Density = 2.183649 g / cm^3
# Si number density = 21.886301 Si / 1000 Ang^3
#
#
#
# Elastic Constant Matrix: (Units=GPa)
#
#
# Indices 1 2 3 4 5 6 
#
# 1 126.3148 -1.7344 16.9967 0.0000 0.0000 0.0000
# 2 -1.7344 113.6083 9.4678 0.0000 0.0000 0.0000
# 3 16.9967 9.4678 40.7217 0.0000 0.0000 0.0000
# 4 0.0000 0.0000 0.0000 7.9474 0.0000 0.0000
# 5 0.0000 0.0000 0.0000 0.0000 28.8218 0.0000
# 6 0.0000 0.0000 0.0000 0.0000 0.0000 44.4743
#
#
#
# Elastic Compliance Matrix: (Units=1/GPa)
#
#
# Indices 1 2 3 4 5 6 
#
# 1 0.008408 0.000429 -0.003609 0.000000 0.000000 0.000000
# 2 0.000429 0.008998 -0.002271 0.000000 0.000000 0.000000
# 3 -0.003609 -0.002271 0.026591 0.000000 0.000000 0.000000
# 4 0.000000 0.000000 0.000000 0.125827 0.000000 0.000000
# 5 0.000000 0.000000 0.000000 0.000000 0.034696 0.000000
# 6 0.000000 0.000000 0.000000 0.000000 0.000000 0.022485
#
#
# Mechanical properties :
#
#
# Convention : Reuss Voigt Hill
#
# Bulk Modulus (GPa) = 30.21590 36.67832 33.44711
# Shear Modulus (GPa) = 20.08516 33.30969 26.69742
#
# Velocity S-wave (km/s) = 3.03265 3.90544 3.49639
# Velocity P-wave (km/s) = 5.10866 6.09357 5.62272
#
# Compressibility (1/GPa) = 0.03309516
#
# Stress axis : x y z
#
# Youngs Moduli (GPa) = 118.93046 111.13589 37.60608
#
# Poissons Ratio (x) = -0.04769 0.13573
# Poissons Ratio (y) = -0.05104 0.08541
# Poissons Ratio (z) = 0.42925 0.25241
#
# Static dielectric constant tensor:
#      x y z
#    x 1.894830 0.000000 0.000000 
#    y 0.000000 1.915300 0.000000 
#    z 0.000000 0.000000 1.573840 
# 
# From -- ./inp_files/24086.got.cif
#   From: 2010.05.17/outbox.cif.g08.bks.cpg/sg24_13_cif.got.tgz:24086.got - 2010.06.04 00:33:39.
