data_PCOD9333819
_publ_section_title
;
Structure prediction by ZEFSAII (Michael W. Deem and Ramdas Pophale) SiO2 
 PCOD9333819
Probable space group: I 21 21 21
;
_chemical_formula_sum "Si O2"
_cell_formula_units_Z 48
_cell_length_a 17.394467
_cell_length_b 8.974679
_cell_length_c 11.774648
_cell_angle_alpha 90.000000
_cell_angle_beta 90.000000
_cell_angle_gamma 90.000000
_cell_volume 1838.137446
_symmetry_space_group_name_H-M "I 21 21 21"
_symmetry_group_IT_number 24
_symmetry_cell_setting 'orthorhombic'
loop_
_space_group_symop_operation_xyz
x,y,z
-x,1/2-y,z
x,-y,1/2-z
1/2-x,y,-z
1/2+x,1/2+y,1/2+z
1/2-x,-y,1/2+z
1/2+x,1/2-y,-z
-x,1/2+y,1/2-z
loop_
_atom_site_type_symbol
_atom_site_label
_atom_site_fract_x
_atom_site_fract_y
_atom_site_fract_z
Si Si1 0.508156 0.474875 0.881472
Si Si2 0.847321 0.085265 0.856266
Si Si3 0.870752 0.745007 0.432300
Si Si4 0.105263 0.305148 0.485821
Si Si5 0.895472 0.665672 0.789187
Si Si6 0.210464 0.830816 0.212368
O O1 0.526208 0.500000 0.750000
O O2 0.441918 0.353676 0.905196
O O3 0.585710 0.413789 0.939966
O O4 0.463507 0.621472 0.917214
O O5 0.912295 0.186880 0.788816
O O6 0.806600 0.000000 0.750000
O O7 0.862561 0.944954 0.939668
O O8 0.828810 0.209683 0.951912
O O9 0.817397 0.759124 0.322637
O O10 0.078821 0.192485 0.583233
O O11 0.166256 0.231895 0.398165
O O12 0.917716 0.500000 0.750000
O O13 0.802185 0.673108 0.797686
O O14 0.193273 0.000000 0.250000
#
# Coordination Sequence:
#
# PCOD9333819 Si02
#       6
#     8   8   8   8   8   8
#     4  10  19  39  65  99 133 170 222 296 355 412
#     4   9  21  43  64  98 136 183 235 286 346 426
#     4  10  21  37  66  99 139 172 226 286 359 417
#     4  10  21  43  66  98 136 181 232 291 350 424
#     4  10  23  43  66  95 142 189 233 284 355 439
#     4  11  23  39  63 104 142 182 225 289 370 435
#
# _framework density 26.113389999999999
#
# number of rings (size 3 to 8) (size 9 to 14) (size 15 to 20)
#    0.000    2.000    1.667    1.000    2.333    0.667 
#   27.000    0.000    0.000   24.000    8.667    0.000 
#    0.000    0.000    0.000    0.000    0.000    0.000 
#
# Total GULP energy -133938.250524 kJ/mol
# GULP energy per Si atom -5580.760438 kJ/mol
# Density = 2.605395 g / cm^3
# Si number density = 26.113390 Si / 1000 Ang^3
#
#
#
# Elastic Constant Matrix: (Units=GPa)
#
#
# Indices 1 2 3 4 5 6 
#
# 1 112.6182 41.2836 43.9036 0.0000 0.0000 0.0000
# 2 41.2836 143.2973 47.5691 0.0000 0.0000 0.0000
# 3 43.9036 47.5691 177.4262 0.0000 0.0000 0.0000
# 4 0.0000 0.0000 0.0000 53.7231 0.0000 0.0000
# 5 0.0000 0.0000 0.0000 0.0000 22.0222 0.0000
# 6 0.0000 0.0000 0.0000 0.0000 0.0000 19.4049
#
#
#
# Elastic Compliance Matrix: (Units=1/GPa)
#
#
# Indices 1 2 3 4 5 6 
#
# 1 0.010517 -0.002378 -0.001965 0.000000 0.000000 0.000000
# 2 -0.002378 0.008198 -0.001610 0.000000 0.000000 0.000000
# 3 -0.001965 -0.001610 0.006554 0.000000 0.000000 0.000000
# 4 0.000000 0.000000 0.000000 0.018614 0.000000 0.000000
# 5 0.000000 0.000000 0.000000 0.000000 0.045409 0.000000
# 6 0.000000 0.000000 0.000000 0.000000 0.000000 0.051533
#
#
# Mechanical properties :
#
#
# Convention : Reuss Voigt Hill
#
# Bulk Modulus (GPa) = 74.82500 77.65047 76.23774
# Shear Modulus (GPa) = 31.80979 39.06906 35.43943
#
# Velocity S-wave (km/s) = 3.49397 3.87218 3.68793
# Velocity P-wave (km/s) = 6.70770 7.05636 6.88424
#
# Compressibility (1/GPa) = 0.01336452
#
# Stress axis : x y z
#
# Youngs Moduli (GPa) = 95.08226 121.98384 152.58086
#
# Poissons Ratio (x) = 0.29004 0.29982
# Poissons Ratio (y) = 0.22608 0.24558
# Poissons Ratio (z) = 0.18683 0.19634
#
# Static dielectric constant tensor:
#      x y z
#    x 2.048930 0.000000 0.000000 
#    y 0.000000 2.197550 0.000000 
#    z 0.000000 0.000000 2.030070 
# 
# From -- ./inp_files/22581.got.cif
#   From: 2010.05.17/outbox.cif.g08.bks.cpg/sg24_12_cif.got.tgz:22581.got - 2010.06.04 00:33:39.
