data_PCOD9333653
_publ_section_title
;
Structure prediction by ZEFSAII (Michael W. Deem and Ramdas Pophale) SiO2 
 PCOD9333653
Probable space group: I 21 21 21
;
_chemical_formula_sum "Si O2"
_cell_formula_units_Z 40
_cell_length_a 9.274151
_cell_length_b 10.514409
_cell_length_c 19.075571
_cell_angle_alpha 90.000000
_cell_angle_beta 90.000000
_cell_angle_gamma 90.000000
_cell_volume 1860.101214
_symmetry_space_group_name_H-M "I 21 21 21"
_symmetry_group_IT_number 24
_symmetry_cell_setting 'orthorhombic'
loop_
_space_group_symop_operation_xyz
x,y,z
-x,1/2-y,z
x,-y,1/2-z
1/2-x,y,-z
1/2+x,1/2+y,1/2+z
1/2-x,-y,1/2+z
1/2+x,1/2-y,-z
-x,1/2+y,1/2-z
loop_
_atom_site_type_symbol
_atom_site_label
_atom_site_fract_x
_atom_site_fract_y
_atom_site_fract_z
Si Si1 0.651834 0.222482 0.642897
Si Si2 0.933347 0.880945 0.843664
Si Si3 0.592981 0.062550 0.504273
Si Si4 0.279132 0.994548 0.170100
Si Si5 0.374202 0.851204 0.554106
O O1 0.500000 0.250000 0.679903
O O2 0.765680 0.124713 0.677646
O O3 0.613172 0.161695 0.567592
O O4 0.731284 0.358389 0.637552
O O5 0.000000 0.750000 0.814450
O O6 0.045992 0.992943 0.828797
O O7 0.929168 0.876213 0.928409
O O8 0.750000 0.994547 0.500000
O O9 0.460462 0.971234 0.521331
O O10 0.228968 0.000000 0.250000
O O11 0.207393 0.102745 0.123745
O O12 0.500000 0.750000 0.567237
O O13 0.250000 0.810157 0.500000
#
# Coordination Sequence:
#
# PCOD9333653 Si02
#       5
#     8   8   8   8   8
#     4  10  19  35  67 103 128 159 217 290 351 391
#     4   9  19  34  63  99 128 164 213 280 346 390
#     4  10  19  35  67 100 131 159 220 300 353 394
#     4  11  24  43  65  95 143 187 218 273 347 427
#     4  12  25  43  66  95 134 185 235 285 347 418
#
# _framework density 21.504208999999999
#
# number of rings (size 3 to 8) (size 9 to 14) (size 15 to 20)
#    0.000    1.600    4.000    1.200    0.000    3.200 
#    0.000    4.000    0.000    0.000    0.000    0.000 
#    0.000    0.000    0.000    0.000    0.000    0.000 
#
# Total GULP energy -111495.219896 kJ/mol
# GULP energy per Si atom -5574.760995 kJ/mol
# Density = 2.145526 g / cm^3
# Si number density = 21.504209 Si / 1000 Ang^3
#
#
#
# Elastic Constant Matrix: (Units=GPa)
#
#
# Indices 1 2 3 4 5 6 
#
# 1 185.1904 40.3128 39.5509 0.0000 0.0000 0.0000
# 2 40.3128 68.6485 33.8048 0.0000 0.0000 0.0000
# 3 39.5509 33.8048 55.2356 0.0000 0.0000 0.0000
# 4 0.0000 0.0000 0.0000 3.3809 0.0000 0.0000
# 5 0.0000 0.0000 0.0000 0.0000 10.1372 0.0000
# 6 0.0000 0.0000 0.0000 0.0000 0.0000 49.1876
#
#
#
# Elastic Compliance Matrix: (Units=1/GPa)
#
#
# Indices 1 2 3 4 5 6 
#
# 1 0.006602 -0.002217 -0.003370 0.000000 0.000000 0.000000
# 2 -0.002217 0.021596 -0.011629 0.000000 0.000000 0.000000
# 3 -0.003370 -0.011629 0.027635 0.000000 0.000000 0.000000
# 4 0.000000 0.000000 0.000000 0.295783 0.000000 0.000000
# 5 0.000000 0.000000 0.000000 0.000000 0.098646 0.000000
# 6 0.000000 0.000000 0.000000 0.000000 0.000000 0.020330
#
#
# Mechanical properties :
#
#
# Convention : Reuss Voigt Hill
#
# Bulk Modulus (GPa) = 46.73128 59.60128 53.16628
# Shear Modulus (GPa) = 9.76258 25.56820 17.66539
#
# Velocity S-wave (km/s) = 2.13300 3.45191 2.86927
# Velocity P-wave (km/s) = 5.27681 6.60786 5.97949
#
# Compressibility (1/GPa) = 0.02139894
#
# Stress axis : x y z
#
# Youngs Moduli (GPa) = 151.46073 46.30565 36.18625
#
# Poissons Ratio (x) = 0.10268 0.12197
# Poissons Ratio (y) = 0.33585 0.42081
# Poissons Ratio (z) = 0.51050 0.53849
#
# Static dielectric constant tensor:
#      x y z
#    x 1.890220 0.000000 0.000000 
#    y 0.000000 1.799390 0.000000 
#    z 0.000000 0.000000 1.739440 
# 
# From -- ./inp_files/29262.got.cif
#   From: 2010.05.17/outbox.cif.g08.bks.cpg/sg24_15_cif.got.tgz:29262.got - 2010.06.04 00:33:39.
