data_PCOD9333979
_publ_section_title
;
Structure prediction by ZEFSAII (Michael W. Deem and Ramdas Pophale) SiO2 
 PCOD9333979
Probable space group: I 21 21 21
;
_chemical_formula_sum "Si O2"
_cell_formula_units_Z 56
_cell_length_a 16.980418
_cell_length_b 8.998568
_cell_length_c 19.604824
_cell_angle_alpha 90.000000
_cell_angle_beta 90.000000
_cell_angle_gamma 90.000000
_cell_volume 2995.606247
_symmetry_space_group_name_H-M "I 21 21 21"
_symmetry_group_IT_number 24
_symmetry_cell_setting 'orthorhombic'
loop_
_space_group_symop_operation_xyz
x,y,z
-x,1/2-y,z
x,-y,1/2-z
1/2-x,y,-z
1/2+x,1/2+y,1/2+z
1/2-x,-y,1/2+z
1/2+x,1/2-y,-z
-x,1/2+y,1/2-z
loop_
_atom_site_type_symbol
_atom_site_label
_atom_site_fract_x
_atom_site_fract_y
_atom_site_fract_z
Si Si1 0.802548 0.210580 0.068675
Si Si2 0.926505 0.354160 0.988285
Si Si3 0.304958 0.000000 0.250000
Si Si4 0.830930 0.117109 0.455410
Si Si5 0.080449 0.807846 0.938202
Si Si6 0.335635 0.500000 0.250000
Si Si7 0.766244 0.744278 0.843882
Si Si8 0.648979 0.249936 0.152556
O O1 0.741199 0.228786 0.130500
O O2 0.845160 0.050593 0.069211
O O3 0.750000 0.209466 0.000000
O O4 0.864948 0.337623 0.050730
O O5 0.933195 0.526899 0.967693
O O6 0.894496 0.277546 0.918288
O O7 0.000000 0.250000 0.006473
O O8 0.252569 0.104431 0.296653
O O9 0.355793 0.108564 0.202072
O O10 0.750000 0.110431 0.500000
O O11 0.896958 0.193213 0.501178
O O12 0.805484 0.218150 0.392521
O O13 0.155354 0.797073 0.887817
O O14 0.000000 0.750000 0.904680
O O15 0.286603 0.385572 0.296680
O O16 0.378842 0.393675 0.195259
#
# Coordination Sequence:
#
# PCOD9333979 Si02
#       8
#     8   8   4   8   8   4   8   8
#     4   9  18  33  56  79 103 135 175 224 271 311
#     4  11  23  36  54  78 109 143 177 223 271 316
#     4  10  20  34  53  80 111 142 182 220 250 314
#     4   9  18  33  56  79 103 135 175 224 271 311
#     4  11  23  36  54  78 109 143 177 223 271 316
#     4  10  20  34  57  80 105 148 178 212 256 320
#     4  10  20  36  56  80 111 138 181 219 263 309
#     4  10  20  36  56  80 111 138 181 219 263 309
#
# _framework density 18.694046
#
# number of rings (size 3 to 8) (size 9 to 14) (size 15 to 20)
#    0.000    2.000    2.857    0.857    6.000    1.714 
#    0.000    4.286    0.000    0.000    0.000    6.000 
#    0.000    0.000    0.000    0.000    0.000    0.000 
#
# Total GULP energy -156003.291519 kJ/mol
# GULP energy per Si atom -5571.546126 kJ/mol
# Density = 1.865150 g / cm^3
# Si number density = 18.694046 Si / 1000 Ang^3
#
#
#
# Elastic Constant Matrix: (Units=GPa)
#
#
# Indices 1 2 3 4 5 6 
#
# 1 40.2917 19.1118 15.4657 0.0000 0.0000 0.0000
# 2 19.1118 102.7626 11.8935 0.0000 0.0000 0.0000
# 3 15.4657 11.8935 31.7658 0.0000 0.0000 0.0000
# 4 0.0000 0.0000 0.0000 34.3778 0.0000 0.0000
# 5 0.0000 0.0000 0.0000 0.0000 13.5938 0.0000
# 6 0.0000 0.0000 0.0000 0.0000 0.0000 16.4342
#
#
#
# Elastic Compliance Matrix: (Units=1/GPa)
#
#
# Indices 1 2 3 4 5 6 
#
# 1 0.032303 -0.004377 -0.014088 0.000000 0.000000 0.000000
# 2 -0.004377 0.010765 -0.001899 0.000000 0.000000 0.000000
# 3 -0.014088 -0.001899 0.039051 0.000000 0.000000 0.000000
# 4 0.000000 0.000000 0.000000 0.029089 0.000000 0.000000
# 5 0.000000 0.000000 0.000000 0.000000 0.073563 0.000000
# 6 0.000000 0.000000 0.000000 0.000000 0.000000 0.060849
#
#
# Mechanical properties :
#
#
# Convention : Reuss Voigt Hill
#
# Bulk Modulus (GPa) = 24.16117 29.75136 26.95627
# Shear Modulus (GPa) = 16.65859 21.43777 19.04818
#
# Velocity S-wave (km/s) = 2.98840 3.39007 3.19555
# Velocity P-wave (km/s) = 4.98597 5.59222 5.29777
#
# Compressibility (1/GPa) = 0.04138872
#
# Stress axis : x y z
#
# Youngs Moduli (GPa) = 30.95686 92.89302 25.60771
#
# Poissons Ratio (x) = 0.40661 0.36077
# Poissons Ratio (y) = 0.13550 0.04864
# Poissons Ratio (z) = 0.43613 0.17645
#
# Static dielectric constant tensor:
#      x y z
#    x 1.656930 0.000000 0.000000 
#    y 0.000000 1.685590 0.000000 
#    z 0.000000 0.000000 1.650670 
# 
# From -- ./inp_files/29783.got.cif
#   From: 2010.05.17/outbox.cif.g08.bks.cpg/sg24_15_cif.got.tgz:29783.got - 2010.06.04 00:33:39.
