data_PCOD9333063
_publ_section_title
;
Structure prediction by ZEFSAII (Michael W. Deem and Ramdas Pophale) SiO2 
 PCOD9333063
Probable space group: I 21 21 21
;
_chemical_formula_sum "Si O2"
_cell_formula_units_Z 60
_cell_length_a 12.264964
_cell_length_b 32.306892
_cell_length_c 8.453180
_cell_angle_alpha 90.000000
_cell_angle_beta 90.000000
_cell_angle_gamma 90.000000
_cell_volume 3349.512281
_symmetry_space_group_name_H-M "I 21 21 21"
_symmetry_group_IT_number 24
_symmetry_cell_setting 'orthorhombic'
loop_
_space_group_symop_operation_xyz
x,y,z
-x,1/2-y,z
x,-y,1/2-z
1/2-x,y,-z
1/2+x,1/2+y,1/2+z
1/2-x,-y,1/2+z
1/2+x,1/2-y,-z
-x,1/2+y,1/2-z
loop_
_atom_site_type_symbol
_atom_site_label
_atom_site_fract_x
_atom_site_fract_y
_atom_site_fract_z
Si Si1 0.396672 0.121646 0.181517
Si Si2 0.588642 0.280222 0.674148
Si Si3 0.767923 0.046627 0.188568
Si Si4 0.146902 0.132723 0.189090
Si Si5 0.959116 0.911627 0.126713
Si Si6 0.546990 0.830255 0.083570
Si Si7 0.250000 0.721631 0.000000
Si Si8 0.970445 0.046282 0.687532
O O1 0.272218 0.126193 0.239342
O O2 0.479560 0.154498 0.263105
O O3 0.445708 0.077540 0.231379
O O4 0.381760 0.125367 0.993970
O O5 0.500000 0.250000 0.752175
O O6 0.620888 0.319479 0.776057
O O7 0.531412 0.300192 0.518623
O O8 0.687301 0.251447 0.620816
O O9 0.864928 0.075532 0.251340
O O10 0.652745 0.059116 0.265874
O O11 0.790319 0.000000 0.250000
O O12 0.750000 0.046723 0.000000
O O13 0.068744 0.102401 0.286737
O O14 0.929962 0.871455 0.020488
O O15 0.978188 0.948393 0.001147
O O16 0.661271 0.806192 0.092949
O O17 0.985744 0.000000 0.750000
#
# Coordination Sequence:
#
# PCOD9333063 Si02
#       8
#     8   8   8   8   8   8   4   8
#     4  10  21  38  58  81 114 154 194 237 285 349
#     4   9  18  35  55  79 111 145 186 235 289 342
#     4  11  21  35  56  84 117 152 189 235 286 335
#     4  10  21  39  57  81 114 154 192 234 291 347
#     4  10  21  36  58  82 114 149 190 235 284 339
#     4   9  20  33  57  84 110 148 190 238 284 347
#     4  10  18  32  58  86 110 140 192 242 288 340
#     4  10  21  37  57  83 115 148 190 237 285 338
#
# _framework density 17.913056999999998
#
# number of rings (size 3 to 8) (size 9 to 14) (size 15 to 20)
#    0.000    2.133    0.000    3.600    3.733    4.267 
#    0.000    8.000    0.000    0.000    0.000    0.000 
#    0.000    0.000    0.000    0.000    0.000    0.000 
#
# Total GULP energy -167299.601261 kJ/mol
# GULP energy per Si atom -5576.653375 kJ/mol
# Density = 1.787229 g / cm^3
# Si number density = 17.913057 Si / 1000 Ang^3
#
#
#
# Elastic Constant Matrix: (Units=GPa)
#
#
# Indices 1 2 3 4 5 6 
#
# 1 140.7467 70.3639 53.1615 0.0002 0.0000 0.0000
# 2 70.3639 90.8864 41.5512 0.0007 0.0000 -0.0004
# 3 53.1615 41.5512 81.9889 0.0015 -0.0011 -0.0015
# 4 0.0002 0.0007 0.0015 19.1704 -0.0003 -0.0007
# 5 0.0000 0.0000 -0.0011 -0.0003 25.4736 0.0001
# 6 0.0000 -0.0004 -0.0015 -0.0007 0.0001 30.9419
#
#
#
# Elastic Compliance Matrix: (Units=1/GPa)
#
#
# Indices 1 2 3 4 5 6 
#
# 1 0.012614 -0.007844 -0.004204 0.000000 0.000000 0.000000
# 2 -0.007844 0.019199 -0.004644 0.000000 0.000000 0.000000
# 3 -0.004204 -0.004644 0.017276 -0.000001 0.000001 0.000001
# 4 0.000000 0.000000 -0.000001 0.052164 0.000001 0.000001
# 5 0.000000 0.000000 0.000001 0.000001 0.039256 0.000000
# 6 0.000000 0.000000 0.000001 0.000001 0.000000 0.032319
#
#
# Mechanical properties :
#
#
# Convention : Reuss Voigt Hill
#
# Bulk Modulus (GPa) = 63.67067 71.53057 67.60062
# Shear Modulus (GPa) = 23.64676 25.02020 24.33348
#
# Velocity S-wave (km/s) = 3.63724 3.74138 3.68968
# Velocity P-wave (km/s) = 7.29800 7.66046 7.48142
#
# Compressibility (1/GPa) = 0.01570582
#
# Stress axis : x y z
#
# Youngs Moduli (GPa) = 79.27522 52.08734 57.88440
#
# Poissons Ratio (x) = 0.40858 0.24333
# Poissons Ratio (y) = 0.62184 0.26879
# Poissons Ratio (z) = 0.33326 0.24187
#
# Static dielectric constant tensor:
#      x y z
#    x 1.622120 0.000000 0.000000 
#    y 0.000000 1.614810 0.000000 
#    z 0.000000 0.000000 1.617510 
# 
# From -- ./inp_files/11608.got.cif
#   From: 2010.05.17/outbox.cif.g08.bks.cpg/sg24_6_cif.got.tgz:11608.got - 2010.06.04 00:33:39.
