data_PCOD9333884
_publ_section_title
;
Structure prediction by ZEFSAII (Michael W. Deem and Ramdas Pophale) SiO2 
 PCOD9333884
Probable space group: I 21 21 21
;
_chemical_formula_sum "Si O2"
_cell_formula_units_Z 56
_cell_length_a 26.586254
_cell_length_b 16.834714
_cell_length_c 7.763593
_cell_angle_alpha 90.000000
_cell_angle_beta 90.000000
_cell_angle_gamma 90.000000
_cell_volume 3474.766710
_symmetry_space_group_name_H-M "I 21 21 21"
_symmetry_group_IT_number 24
_symmetry_cell_setting 'orthorhombic'
loop_
_space_group_symop_operation_xyz
x,y,z
-x,1/2-y,z
x,-y,1/2-z
1/2-x,y,-z
1/2+x,1/2+y,1/2+z
1/2-x,-y,1/2+z
1/2+x,1/2-y,-z
-x,1/2+y,1/2-z
loop_
_atom_site_type_symbol
_atom_site_label
_atom_site_fract_x
_atom_site_fract_y
_atom_site_fract_z
Si Si1 0.597467 0.588170 0.329116
Si Si2 0.441176 0.758936 0.134003
Si Si3 0.185997 0.907474 0.189898
Si Si4 0.593201 0.292856 0.720856
Si Si5 0.476569 0.918200 0.650092
Si Si6 0.450398 0.692554 0.484422
Si Si7 0.703766 0.593021 0.220496
O O1 0.598427 0.500000 0.250000
O O2 0.569536 0.653225 0.211748
O O3 0.567049 0.579970 0.505307
O O4 0.655649 0.616788 0.333962
O O5 0.500000 0.750000 0.092229
O O6 0.429991 0.698294 0.290967
O O7 0.408315 0.749912 0.963131
O O8 0.140444 0.850783 0.239908
O O9 0.240251 0.875548 0.255134
O O10 0.178096 0.000000 0.250000
O O11 0.189481 0.901683 0.981377
O O12 0.543599 0.349532 0.722986
O O13 0.586573 0.232749 0.878663
O O14 0.527170 0.889279 0.555501
O O15 0.481166 0.000000 0.750000
O O16 0.500000 0.750000 0.478784
O O17 0.710982 0.500000 0.250000
#
# Coordination Sequence:
#
# PCOD9333884 Si02
#       7
#     8   8   8   8   8   8   8
#     4  11  20  31  49  71  92 132 177 208 247 297
#     4  11  18  33  49  65  95 127 165 206 253 302
#     4  10  20  32  45  64  94 129 168 217 249 284
#     4  11  20  30  51  70  90 132 169 204 250 301
#     4  11  21  34  48  72 101 126 172 218 251 302
#     4   9  19  35  47  67  96 126 160 208 255 297
#     4   9  20  33  43  64  92 126 172 209 252 286
#
# _framework density 16.11619
#
# number of rings (size 3 to 8) (size 9 to 14) (size 15 to 20)
#    0.000    1.714    5.714    2.571    6.000    0.000 
#    0.000    0.000    0.000    0.000    0.000    0.000 
#    0.000    0.000    0.000    6.429    0.286    0.571 
#
# Total GULP energy -156052.951927 kJ/mol
# GULP energy per Si atom -5573.319712 kJ/mol
# Density = 1.607951 g / cm^3
# Si number density = 16.116190 Si / 1000 Ang^3
#
#
#
# Elastic Constant Matrix: (Units=GPa)
#
#
# Indices 1 2 3 4 5 6 
#
# 1 96.5282 36.9538 42.6650 0.0000 0.0000 0.0000
# 2 36.9538 32.3985 26.6580 0.0000 0.0000 0.0000
# 3 42.6650 26.6580 96.3256 0.0000 0.0000 0.0000
# 4 0.0000 0.0000 0.0000 24.0712 0.0000 0.0000
# 5 0.0000 0.0000 0.0000 0.0000 2.6788 0.0000
# 6 0.0000 0.0000 0.0000 0.0000 0.0000 30.8459
#
#
#
# Elastic Compliance Matrix: (Units=1/GPa)
#
#
# Indices 1 2 3 4 5 6 
#
# 1 0.019099 -0.019195 -0.003147 0.000000 0.000000 0.000000
# 2 -0.019195 0.059258 -0.007898 0.000000 0.000000 0.000000
# 3 -0.003147 -0.007898 0.013961 0.000000 0.000000 0.000000
# 4 0.000000 0.000000 0.000000 0.041543 0.000000 0.000000
# 5 0.000000 0.000000 0.000000 0.000000 0.373300 0.000000
# 6 0.000000 0.000000 0.000000 0.000000 0.000000 0.032419
#
#
# Mechanical properties :
#
#
# Convention : Reuss Voigt Hill
#
# Bulk Modulus (GPa) = 31.40871 48.64512 40.02691
# Shear Modulus (GPa) = 8.18769 19.45087 13.81928
#
# Velocity S-wave (km/s) = 2.25642 3.47784 2.93145
# Velocity P-wave (km/s) = 5.13028 6.81004 6.02895
#
# Compressibility (1/GPa) = 0.03183830
#
# Stress axis : x y z
#
# Youngs Moduli (GPa) = 52.35850 16.87548 71.62741
#
# Poissons Ratio (x) = 0.32392 0.22543
# Poissons Ratio (y) = 1.00501 0.56569
# Poissons Ratio (z) = 0.16479 0.13328
#
# Static dielectric constant tensor:
#      x y z
#    x 1.582680 0.000000 0.000000 
#    y 0.000000 1.523750 0.000000 
#    z 0.000000 0.000000 1.603130 
# 
# From -- ./inp_files/16087.got.cif
#   From: 2010.05.17/outbox.cif.g08.bks.cpg/sg24_9_cif.got.tgz:16087.got - 2010.06.04 00:33:39.
