data_PCOD9333829
_publ_section_title
;
Structure prediction by ZEFSAII (Michael W. Deem and Ramdas Pophale) SiO2 
 PCOD9333829
Probable space group: I 21 21 21
;
_chemical_formula_sum "Si O2"
_cell_formula_units_Z 48
_cell_length_a 8.673799
_cell_length_b 18.462294
_cell_length_c 13.510439
_cell_angle_alpha 90.000000
_cell_angle_beta 90.000000
_cell_angle_gamma 90.000000
_cell_volume 2163.537751
_symmetry_space_group_name_H-M "I 21 21 21"
_symmetry_group_IT_number 24
_symmetry_cell_setting 'orthorhombic'
loop_
_space_group_symop_operation_xyz
x,y,z
-x,1/2-y,z
x,-y,1/2-z
1/2-x,y,-z
1/2+x,1/2+y,1/2+z
1/2-x,-y,1/2+z
1/2+x,1/2-y,-z
-x,1/2+y,1/2-z
loop_
_atom_site_type_symbol
_atom_site_label
_atom_site_fract_x
_atom_site_fract_y
_atom_site_fract_z
Si Si1 0.000000 0.750000 0.605360
Si Si2 0.669766 0.417727 0.792258
Si Si3 0.750000 0.107338 0.500000
Si Si4 0.750000 0.646364 0.500000
Si Si5 0.750000 0.610197 0.000000
Si Si6 0.014394 0.331510 0.358250
Si Si7 0.490884 0.383164 0.214206
Si Si8 0.494392 0.526795 0.099878
O O1 0.881500 0.700658 0.543349
O O2 0.919280 0.809098 0.677173
O O3 0.687207 0.500000 0.750000
O O4 0.526026 0.384362 0.732961
O O5 0.826453 0.373701 0.763756
O O6 0.673615 0.402255 0.911231
O O7 0.678150 0.156407 0.587024
O O8 0.889030 0.050770 0.511367
O O9 0.879095 0.655394 0.058982
O O10 0.660955 0.556853 0.073841
O O11 0.000000 0.250000 0.322050
O O12 0.488480 0.444018 0.128903
O O13 0.429502 0.424676 0.309590
#
# Coordination Sequence:
#
# PCOD9333829 Si02
#       8
#     4   8   4   4   4   8   8   8
#     4  10  24  42  64  98 130 182 214 300 348 430
#     4  11  22  44  73 100 126 182 243 294 331 421
#     4  10  25  39  59 103 136 168 218 290 369 405
#     4  10  26  44  67 104 141 172 244 280 373 423
#     4  10  19  39  70  91 125 174 230 288 336 416
#     4  11  23  40  65  98 136 175 223 288 356 423
#     4  10  20  41  67  89 124 174 234 268 347 418
#     4  10  20  40  65  93 128 170 227 285 338 427
#
# _framework density 22.185884999999999
#
# number of rings (size 3 to 8) (size 9 to 14) (size 15 to 20)
#    0.000    1.667    3.333    0.500    1.167   12.000 
#    9.000    0.000    0.000    0.000    0.000    0.000 
#    0.000    0.000    0.000    0.000    0.000    0.000 
#
# Total GULP energy -133680.709615 kJ/mol
# GULP energy per Si atom -5570.029567 kJ/mol
# Density = 2.213539 g / cm^3
# Si number density = 22.185885 Si / 1000 Ang^3
#
#
#
# Elastic Constant Matrix: (Units=GPa)
#
#
# Indices 1 2 3 4 5 6 
#
# 1 53.7984 18.9646 7.2717 0.0000 0.0000 0.0000
# 2 18.9646 133.9937 50.4113 0.0000 0.0000 0.0000
# 3 7.2717 50.4113 92.4509 -0.0001 0.0000 0.0000
# 4 0.0000 0.0000 -0.0001 41.2380 0.0000 0.0000
# 5 0.0000 0.0000 0.0000 0.0000 28.0361 0.0000
# 6 0.0000 0.0000 0.0000 0.0000 0.0000 24.3362
#
#
#
# Elastic Compliance Matrix: (Units=1/GPa)
#
#
# Indices 1 2 3 4 5 6 
#
# 1 0.019564 -0.002755 -0.000036 0.000000 0.000000 0.000000
# 2 -0.002755 0.009777 -0.005115 0.000000 0.000000 0.000000
# 3 -0.000036 -0.005115 0.013608 0.000000 0.000000 0.000000
# 4 0.000000 0.000000 0.000000 0.024249 0.000000 0.000000
# 5 0.000000 0.000000 0.000000 0.000000 0.035668 0.000000
# 6 0.000000 0.000000 0.000000 0.000000 0.000000 0.041091
#
#
# Mechanical properties :
#
#
# Convention : Reuss Voigt Hill
#
# Bulk Modulus (GPa) = 36.85000 48.17092 42.51046
# Shear Modulus (GPa) = 29.61795 32.29509 30.95652
#
# Velocity S-wave (km/s) = 3.65772 3.81945 3.73946
# Velocity P-wave (km/s) = 5.87233 6.41954 6.15202
#
# Compressibility (1/GPa) = 0.02713704
#
# Stress axis : x y z
#
# Youngs Moduli (GPa) = 51.11408 102.27870 73.48475
#
# Poissons Ratio (x) = 0.28180 0.00268
# Poissons Ratio (y) = 0.14083 0.37584
# Poissons Ratio (z) = 0.00186 0.52311
#
# Static dielectric constant tensor:
#      x y z
#    x 1.882130 0.000000 0.000000 
#    y 0.000000 1.816090 0.000000 
#    z 0.000000 0.000000 1.986220 
# 
# From -- ./inp_files/24875.got.cif
#   From: 2010.05.17/outbox.cif.g08.bks.cpg/sg24_13_cif.got.tgz:24875.got - 2010.06.04 00:33:39.
