data_PCOD9333472
_publ_section_title
;
Structure prediction by ZEFSAII (Michael W. Deem and Ramdas Pophale) SiO2 
 PCOD9333472
Probable space group: I 21 21 21
;
_chemical_formula_sum "Si O2"
_cell_formula_units_Z 32
_cell_length_a 23.527386
_cell_length_b 5.582935
_cell_length_c 9.242895
_cell_angle_alpha 90.000000
_cell_angle_beta 90.000000
_cell_angle_gamma 90.000000
_cell_volume 1214.071512
_symmetry_space_group_name_H-M "I 21 21 21"
_symmetry_group_IT_number 24
_symmetry_cell_setting 'orthorhombic'
loop_
_space_group_symop_operation_xyz
x,y,z
-x,1/2-y,z
x,-y,1/2-z
1/2-x,y,-z
1/2+x,1/2+y,1/2+z
1/2-x,-y,1/2+z
1/2+x,1/2-y,-z
-x,1/2+y,1/2-z
loop_
_atom_site_type_symbol
_atom_site_label
_atom_site_fract_x
_atom_site_fract_y
_atom_site_fract_z
Si Si1 0.186047 0.854375 0.536303
Si Si2 0.649615 0.860511 0.054633
Si Si3 0.980017 0.997165 0.915881
Si Si4 0.107172 0.250833 0.243542
O O1 0.250000 0.925982 0.500000
O O2 0.188800 0.583704 0.599685
O O3 0.146512 0.794885 0.396540
O O4 0.160509 0.092536 0.611720
O O5 0.648081 0.798520 0.882106
O O6 0.587278 0.962601 0.091000
O O7 0.000000 0.750000 0.986135
O O8 0.003487 0.000000 0.750000
O O9 0.000000 0.250000 0.979599
O O10 0.073260 0.500000 0.250000
O O11 0.074801 0.000000 0.250000
#
# Coordination Sequence:
#
# PCOD9333472 Si02
#       4
#     8   8   8   8
#     4  10  19  33  54  81 114 153 188 223 274 333
#     4  10  19  35  56  79 109 147 188 234 282 333
#     4  10  21  38  59  82 109 143 187 240 296 346
#     4   8  16  30  50  72 102 141 178 219 270 318
#
# _framework density 26.357593000000001
#
# number of rings (size 3 to 8) (size 9 to 14) (size 15 to 20)
#    0.000    2.500    0.000    2.250    0.000    0.000 
#    0.000   11.250    0.000   27.000    0.000    0.000 
#    0.000    0.000    0.000    0.000    0.000    0.000 
#
# Total GULP energy -89169.423301 kJ/mol
# GULP energy per Si atom -5573.088956 kJ/mol
# Density = 2.629760 g / cm^3
# Si number density = 26.357593 Si / 1000 Ang^3
#
#
#
# Elastic Constant Matrix: (Units=GPa)
#
#
# Indices 1 2 3 4 5 6 
#
# 1 93.5612 55.3950 -0.0536 0.0000 0.0000 0.0000
# 2 55.3950 377.6672 47.2241 0.0000 0.0000 0.0000
# 3 -0.0536 47.2241 81.2422 0.0000 0.0000 0.0000
# 4 0.0000 0.0000 0.0000 17.4772 0.0000 0.0000
# 5 0.0000 0.0000 0.0000 0.0000 217.8047 0.0000
# 6 0.0000 0.0000 0.0000 0.0000 0.0000 52.2322
#
#
#
# Elastic Compliance Matrix: (Units=1/GPa)
#
#
# Indices 1 2 3 4 5 6 
#
# 1 0.011794 -0.001867 0.001093 0.000000 0.000000 0.000000
# 2 -0.001867 0.003151 -0.001833 0.000000 0.000000 0.000000
# 3 0.001093 -0.001833 0.013375 0.000000 0.000000 0.000000
# 4 0.000000 0.000000 0.000000 0.057217 0.000000 0.000000
# 5 0.000000 0.000000 0.000000 0.000000 0.004591 0.000000
# 6 0.000000 0.000000 0.000000 0.000000 0.000000 0.019145
#
#
# Mechanical properties :
#
#
# Convention : Reuss Voigt Hill
#
# Bulk Modulus (GPa) = 43.27759 84.17796 63.72778
# Shear Modulus (GPa) = 40.92033 87.49649 64.20841
#
# Velocity S-wave (km/s) = 3.94446 5.76784 4.94099
# Velocity P-wave (km/s) = 6.09919 8.73862 7.53537
#
# Compressibility (1/GPa) = 0.02310665
#
# Stress axis : x y z
#
# Youngs Moduli (GPa) = 84.78931 317.38219 74.76688
#
# Poissons Ratio (x) = 0.59241 -0.08170
# Poissons Ratio (y) = 0.15826 0.13703
# Poissons Ratio (z) = -0.09265 0.58167
#
# Static dielectric constant tensor:
#      x y z
#    x 2.004920 0.000000 0.000000 
#    y 0.000000 2.073540 0.000000 
#    z 0.000000 0.000000 1.924000 
# 
# From -- ./inp_files/1956.got.cif
#   From: 2010.05.17/outbox.cif.g08.bks.cpg/sg24_1_cif.got.tgz:1956.got - 2010.06.04 00:33:39.
