data_PCOD9333360
_publ_section_title
;
Structure prediction by ZEFSAII (Michael W. Deem and Ramdas Pophale) SiO2 
 PCOD9333360
Probable space group: I 21 21 21
;
_chemical_formula_sum "Si O2"
_cell_formula_units_Z 36
_cell_length_a 5.336194
_cell_length_b 19.569044
_cell_length_c 17.802898
_cell_angle_alpha 90.000000
_cell_angle_beta 90.000000
_cell_angle_gamma 90.000000
_cell_volume 1859.053652
_symmetry_space_group_name_H-M "I 21 21 21"
_symmetry_group_IT_number 24
_symmetry_cell_setting 'orthorhombic'
loop_
_space_group_symop_operation_xyz
x,y,z
-x,1/2-y,z
x,-y,1/2-z
1/2-x,y,-z
1/2+x,1/2+y,1/2+z
1/2-x,-y,1/2+z
1/2+x,1/2-y,-z
-x,1/2+y,1/2-z
loop_
_atom_site_type_symbol
_atom_site_label
_atom_site_fract_x
_atom_site_fract_y
_atom_site_fract_z
Si Si1 0.975529 0.422622 0.786009
Si Si2 0.005438 0.469502 0.950148
Si Si3 0.178760 0.889629 0.913307
Si Si4 0.521653 0.079376 0.721681
Si Si5 0.500000 0.750000 0.051733
O O1 0.952970 0.500000 0.750000
O O2 0.011405 0.424907 0.874910
O O3 0.210802 0.390738 0.743046
O O4 0.708654 0.389858 0.768560
O O5 0.006264 0.546107 0.915113
O O6 0.250000 0.459034 0.000000
O O7 0.750000 0.462520 0.000000
O O8 0.415645 0.911315 0.862361
O O9 0.061112 0.816146 0.897980
O O10 0.250000 0.882672 0.000000
O O11 0.543221 0.000000 0.750000
O O12 0.250000 0.735887 0.000000
#
# Coordination Sequence:
#
# PCOD9333360 Si02
#       5
#     8   8   8   8   4
#     4  10  19  31  45  67  97 123 169 210 265 316
#     4  11  21  31  48  70  96 134 175 214 258 317
#     4  10  21  34  52  72 101 141 185 223 259 305
#     4  10  19  32  47  69  95 130 171 218 269 315
#     4  10  22  38  50  72 102 140 192 234 254 292
#
# _framework density 19.364691000000001
#
# number of rings (size 3 to 8) (size 9 to 14) (size 15 to 20)
#    0.000    1.778    4.444    2.000    9.333    3.556 
#    0.000    0.000    0.000    0.000    0.000    0.000 
#    0.000    0.000    0.000    8.000    2.667   11.111 
#
# Total GULP energy -100229.849156 kJ/mol
# GULP energy per Si atom -5568.324953 kJ/mol
# Density = 1.932062 g / cm^3
# Si number density = 19.364691 Si / 1000 Ang^3
#
#
#
# Elastic Constant Matrix: (Units=GPa)
#
#
# Indices 1 2 3 4 5 6 
#
# 1 120.6227 1.9525 22.9752 0.0000 0.0000 0.0000
# 2 1.9525 26.9297 18.0433 0.0000 0.0000 0.0000
# 3 22.9752 18.0433 119.8808 0.0000 0.0000 0.0000
# 4 0.0000 0.0000 0.0000 11.2722 0.0000 0.0000
# 5 0.0000 0.0000 0.0000 0.0000 20.1569 0.0000
# 6 0.0000 0.0000 0.0000 0.0000 0.0000 8.2371
#
#
#
# Elastic Compliance Matrix: (Units=1/GPa)
#
#
# Indices 1 2 3 4 5 6 
#
# 1 0.008611 0.000535 -0.001731 0.000000 0.000000 0.000000
# 2 0.000535 0.041332 -0.006323 0.000000 0.000000 0.000000
# 3 -0.001731 -0.006323 0.009625 0.000000 0.000000 0.000000
# 4 0.000000 0.000000 0.000000 0.088714 0.000000 0.000000
# 5 0.000000 0.000000 0.000000 0.000000 0.049611 0.000000
# 6 0.000000 0.000000 0.000000 0.000000 0.000000 0.121402
#
#
# Mechanical properties :
#
#
# Convention : Reuss Voigt Hill
#
# Bulk Modulus (GPa) = 22.45668 39.26391 30.86029
# Shear Modulus (GPa) = 14.31940 22.89738 18.60839
#
# Velocity S-wave (km/s) = 2.72225 3.44238 3.10327
# Velocity P-wave (km/s) = 4.63711 6.00999 5.36762
#
# Compressibility (1/GPa) = 0.04453019
#
# Stress axis : x y z
#
# Youngs Moduli (GPa) = 116.12588 24.19448 103.89501
#
# Poissons Ratio (x) = -0.01295 0.17984
# Poissons Ratio (y) = -0.06218 0.65698
# Poissons Ratio (z) = 0.20101 0.15299
#
# Static dielectric constant tensor:
#      x y z
#    x 1.787930 0.000000 0.000000 
#    y 0.000000 1.732140 0.000000 
#    z 0.000000 0.000000 1.714550 
# 
# From -- ./inp_files/3467.got.cif
#   From: 2010.05.17/outbox.cif.g08.bks.cpg/sg24_2_cif.got.tgz:3467.got - 2010.06.04 00:33:39.
