data_PCOD9333055
_publ_section_title
;
Structure prediction by ZEFSAII (Michael W. Deem and Ramdas Pophale) SiO2 
 PCOD9333055
Probable space group: I 21 21 21
;
_chemical_formula_sum "Si O2"
_cell_formula_units_Z 40
_cell_length_a 9.086183
_cell_length_b 19.130413
_cell_length_c 10.466140
_cell_angle_alpha 90.000000
_cell_angle_beta 90.000000
_cell_angle_gamma 90.000000
_cell_volume 1819.249923
_symmetry_space_group_name_H-M "I 21 21 21"
_symmetry_group_IT_number 24
_symmetry_cell_setting 'orthorhombic'
loop_
_space_group_symop_operation_xyz
x,y,z
-x,1/2-y,z
x,-y,1/2-z
1/2-x,y,-z
1/2+x,1/2+y,1/2+z
1/2-x,-y,1/2+z
1/2+x,1/2-y,-z
-x,1/2+y,1/2-z
loop_
_atom_site_type_symbol
_atom_site_label
_atom_site_fract_x
_atom_site_fract_y
_atom_site_fract_z
Si Si1 0.080323 0.002667 0.985333
Si Si2 0.500000 0.250000 0.648171
Si Si3 0.048480 0.844171 0.918184
Si Si4 0.837852 0.096104 0.870521
Si Si5 0.607758 0.000000 0.750000
Si Si6 0.692132 0.778700 0.225250
O O1 0.250000 0.025362 0.000000
O O2 0.081238 0.924892 0.925528
O O3 0.994983 0.997563 0.123014
O O4 0.986898 0.052946 0.892188
O O5 0.571705 0.308101 0.555064
O O6 0.366453 0.279183 0.728340
O O7 0.133635 0.798243 0.811383
O O8 0.878615 0.826006 0.887794
O O9 0.724623 0.063829 0.766030
O O10 0.864158 0.177824 0.845725
O O11 0.750000 0.086731 0.000000
#
# Coordination Sequence:
#
# PCOD9333055 Si02
#       6
#     8   4   8   8   4   8
#     4  11  23  40  64  98 134 174 230 284 337 412
#     4  10  18  32  56  90 118 156 212 262 314 386
#     4  10  20  35  59  90 125 163 209 270 334 391
#     4  10  22  40  61  89 128 177 224 269 339 414
#     4  10  22  38  62  90 128 178 218 272 344 402
#     4  10  20  36  58  87 126 167 210 269 330 386
#
# _framework density 21.987082999999998
#
# number of rings (size 3 to 8) (size 9 to 14) (size 15 to 20)
#    0.000    2.000    0.000    6.000    0.000    5.600 
#    0.000    8.000    0.000    0.000    0.000    0.000 
#    0.000    0.000    0.000    0.000    0.000    0.000 
#
# Total GULP energy -111510.230453 kJ/mol
# GULP energy per Si atom -5575.511523 kJ/mol
# Density = 2.193704 g / cm^3
# Si number density = 21.987083 Si / 1000 Ang^3
#
#
#
# Elastic Constant Matrix: (Units=GPa)
#
#
# Indices 1 2 3 4 5 6 
#
# 1 174.2497 61.7431 41.2268 0.0000 0.0000 0.0000
# 2 61.7431 117.3515 20.6512 0.0000 0.0000 0.0000
# 3 41.2268 20.6512 39.0767 0.0001 -0.0001 0.0000
# 4 0.0000 0.0000 0.0001 32.7592 0.0000 0.0000
# 5 0.0000 0.0000 -0.0001 0.0000 21.9368 0.0000
# 6 0.0000 0.0000 0.0000 0.0000 0.0000 23.5073
#
#
#
# Elastic Compliance Matrix: (Units=1/GPa)
#
#
# Indices 1 2 3 4 5 6 
#
# 1 0.008639 -0.003243 -0.007400 0.000000 0.000000 0.000000
# 2 -0.003243 0.010613 -0.002187 0.000000 0.000000 0.000000
# 3 -0.007400 -0.002187 0.034554 0.000000 0.000000 0.000000
# 4 0.000000 0.000000 0.000000 0.030526 0.000000 0.000000
# 5 0.000000 0.000000 0.000000 0.000000 0.045586 0.000000
# 6 0.000000 0.000000 0.000000 0.000000 0.000000 0.042540
#
#
# Mechanical properties :
#
#
# Convention : Reuss Voigt Hill
#
# Bulk Modulus (GPa) = 35.53077 64.21335 49.87206
# Shear Modulus (GPa) = 24.09646 29.44443 26.77044
#
# Velocity S-wave (km/s) = 3.31409 3.66344 3.49313
# Velocity P-wave (km/s) = 5.55330 6.86752 6.24508
#
# Compressibility (1/GPa) = 0.02814462
#
# Stress axis : x y z
#
# Youngs Moduli (GPa) = 115.75546 94.22829 28.94013
#
# Poissons Ratio (x) = 0.30558 0.21417
# Poissons Ratio (y) = 0.37539 0.06329
# Poissons Ratio (z) = 0.85664 0.20609
#
# Static dielectric constant tensor:
#      x y z
#    x 1.874690 0.000000 0.000000 
#    y 0.000000 1.840650 0.000000 
#    z 0.000000 0.000000 1.879520 
# 
# From -- ./inp_files/18267.got.cif
#   From: 2010.05.17/outbox.cif.g08.bks.cpg/sg24_10_cif.got.tgz:18267.got - 2010.06.04 00:33:39.
