data_PCOD9333126
_publ_section_title
;
Structure prediction by ZEFSAII (Michael W. Deem and Ramdas Pophale) SiO2 
 PCOD9333126
Probable space group: I 21 21 21
;
_chemical_formula_sum "Si O2"
_cell_formula_units_Z 60
_cell_length_a 16.180537
_cell_length_b 9.373362
_cell_length_c 24.178898
_cell_angle_alpha 90.000000
_cell_angle_beta 90.000000
_cell_angle_gamma 90.000000
_cell_volume 3667.117485
_symmetry_space_group_name_H-M "I 21 21 21"
_symmetry_group_IT_number 24
_symmetry_cell_setting 'orthorhombic'
loop_
_space_group_symop_operation_xyz
x,y,z
-x,1/2-y,z
x,-y,1/2-z
1/2-x,y,-z
1/2+x,1/2+y,1/2+z
1/2-x,-y,1/2+z
1/2+x,1/2-y,-z
-x,1/2+y,1/2-z
loop_
_atom_site_type_symbol
_atom_site_label
_atom_site_fract_x
_atom_site_fract_y
_atom_site_fract_z
Si Si1 0.757394 0.706806 0.112318
Si Si2 0.094189 0.203028 0.462678
Si Si3 0.134391 0.593658 0.938843
Si Si4 0.094155 0.296062 0.910681
Si Si5 0.078600 0.355965 0.784160
Si Si6 0.000000 0.750000 0.864910
Si Si7 0.326769 0.029131 0.035214
Si Si8 0.350352 0.138805 0.288887
O O1 0.851841 0.703479 0.093171
O O2 0.712767 0.856837 0.097836
O O3 0.711158 0.597688 0.071283
O O4 0.729225 0.651429 0.172032
O O5 0.134052 0.320274 0.503960
O O6 0.000000 0.250000 0.455187
O O7 0.107444 0.051128 0.494857
O O8 0.125383 0.426188 0.947852
O O9 0.053863 0.647714 0.904139
O O10 0.100529 0.359995 0.848563
O O11 0.141339 0.150835 0.924228
O O12 0.000000 0.250000 0.919847
O O13 0.061948 0.500000 0.750000
O O14 0.149383 0.274380 0.751166
O O15 0.000000 0.250000 0.781714
O O16 0.932246 0.662886 0.828295
O O17 0.250000 0.087306 0.000000
O O18 0.355784 0.000000 0.250000
#
# Coordination Sequence:
#
# PCOD9333126 Si02
#       8
#     8   8   8   8   8   4   8   8
#     4   9  20  34  51  73  97 136 174 213 262 308
#     4  10  18  34  57  74  96 130 172 220 264 313
#     4  10  19  31  48  72 105 135 172 209 255 305
#     4  11  23  30  46  74 101 137 174 206 246 309
#     4  11  22  32  43  65  98 136 173 206 241 288
#     4  10  20  28  48  70 104 138 180 204 248 298
#     4   9  19  35  49  69 103 132 162 208 265 312
#     4  11  21  31  50  70 105 140 173 211 247 302
#
# _framework density 16.361625
#
# number of rings (size 3 to 8) (size 9 to 14) (size 15 to 20)
#    0.000    1.867    1.333    4.800    7.467    1.067 
#    0.000    0.000    0.000    0.000    0.000    2.800 
#    0.000    2.133    0.000    0.000    0.000    0.000 
#
# Total GULP energy -167198.451148 kJ/mol
# GULP energy per Si atom -5573.281705 kJ/mol
# Density = 1.632439 g / cm^3
# Si number density = 16.361625 Si / 1000 Ang^3
#
#
#
# Elastic Constant Matrix: (Units=GPa)
#
#
# Indices 1 2 3 4 5 6 
#
# 1 63.8671 28.8235 25.0665 0.0000 0.0000 0.0000
# 2 28.8235 82.9343 18.3737 0.0000 0.0000 0.0000
# 3 25.0665 18.3737 60.9682 0.0000 0.0000 0.0000
# 4 0.0000 0.0000 0.0000 -21.8477 0.0000 0.0000
# 5 0.0000 0.0000 0.0000 0.0000 23.6321 0.0000
# 6 0.0000 0.0000 0.0000 0.0000 0.0000 9.9525
#
#
#
# Elastic Compliance Matrix: (Units=1/GPa)
#
#
# Indices 1 2 3 4 5 6 
#
# 1 0.020957 -0.005759 -0.006881 0.000000 0.000000 0.000000
# 2 -0.005759 0.014503 -0.002003 0.000000 0.000000 0.000000
# 3 -0.006881 -0.002003 0.019835 0.000000 0.000000 0.000000
# 4 0.000000 0.000000 0.000000 -0.045771 0.000000 0.000000
# 5 0.000000 0.000000 0.000000 0.000000 0.042315 0.000000
# 6 0.000000 0.000000 0.000000 0.000000 0.000000 0.100477
#
#
# Mechanical properties :
#
#
# Convention : Reuss Voigt Hill
#
# Bulk Modulus (GPa) = 38.44795 39.14409 38.79602
# Shear Modulus (GPa) = 26.27825 11.38109 18.82967
#
# Velocity S-wave (km/s) = 4.01195 2.64028 3.39609
# Velocity P-wave (km/s) = 6.70902 5.76810 6.25627
#
# Compressibility (1/GPa) = 0.02600919
#
# Stress axis : x y z
#
# Youngs Moduli (GPa) = 47.71622 68.95096 50.41705
#
# Poissons Ratio (x) = 0.39710 0.34691
# Poissons Ratio (y) = 0.27481 0.10098
# Poissons Ratio (z) = 0.32832 0.13810
#
# Static dielectric constant tensor:
#      x y z
#    x 1.580190 0.000000 0.000000 
#    y 0.000000 1.602030 0.000000 
#    z 0.000000 0.000000 1.607560 
# 
# From -- ./inp_files/28136.got.cif
#   From: 2010.05.17/outbox.cif.g08.bks.cpg/sg24_15_cif.got.tgz:28136.got - 2010.06.04 00:33:39.
