data_PCOD9333793
_publ_section_title
;
Structure prediction by ZEFSAII (Michael W. Deem and Ramdas Pophale) SiO2 
 PCOD9333793
Probable space group: I 21 21 21
;
_chemical_formula_sum "Si O2"
_cell_formula_units_Z 36
_cell_length_a 8.436135
_cell_length_b 24.831925
_cell_length_c 8.182789
_cell_angle_alpha 90.000000
_cell_angle_beta 90.000000
_cell_angle_gamma 90.000000
_cell_volume 1714.175413
_symmetry_space_group_name_H-M "I 21 21 21"
_symmetry_group_IT_number 24
_symmetry_cell_setting 'orthorhombic'
loop_
_space_group_symop_operation_xyz
x,y,z
-x,1/2-y,z
x,-y,1/2-z
1/2-x,y,-z
1/2+x,1/2+y,1/2+z
1/2-x,-y,1/2+z
1/2+x,1/2-y,-z
-x,1/2+y,1/2-z
loop_
_atom_site_type_symbol
_atom_site_label
_atom_site_fract_x
_atom_site_fract_y
_atom_site_fract_z
Si Si1 0.250000 0.138222 0.000000
Si Si2 0.971961 0.694308 0.261428
Si Si3 0.781832 0.000000 0.250000
Si Si4 0.750000 0.826531 0.500000
Si Si5 0.426500 0.404556 0.544539
Si Si6 0.957720 0.088179 0.822624
O O1 0.313215 0.177801 0.858077
O O2 0.108374 0.099985 0.935775
O O3 0.000000 0.750000 0.165128
O O4 0.109741 0.700893 0.399510
O O5 0.997362 0.642033 0.150217
O O6 0.890847 0.041402 0.351122
O O7 0.655336 0.036696 0.150066
O O8 0.840336 0.862908 0.633599
O O9 0.250000 0.385390 0.500000
O O10 0.505979 0.413874 0.368246
#
# Coordination Sequence:
#
# PCOD9333793 Si02
#       6
#     4   8   4   4   8   8
#     4  10  25  42  58  96 140 162 208 273 338 378
#     4  11  22  41  64  93 130 173 217 270 323 383
#     4  10  20  38  72  94 124 166 230 264 308 382
#     4  10  19  38  64  90 124 168 222 253 302 396
#     4  10  21  40  66 101 118 170 231 263 303 387
#     4  10  22  39  65  95 129 166 211 267 316 387
#
# _framework density 21.001351
#
# number of rings (size 3 to 8) (size 9 to 14) (size 15 to 20)
#    0.000    1.778    4.444    0.667    4.667    0.889 
#    4.000    6.667    0.000    0.000    0.000    0.000 
#    0.000    0.000    0.000    0.000    0.000    0.000 
#
# Total GULP energy -100269.019313 kJ/mol
# GULP energy per Si atom -5570.501073 kJ/mol
# Density = 2.095355 g / cm^3
# Si number density = 21.001351 Si / 1000 Ang^3
#
#
#
# Elastic Constant Matrix: (Units=GPa)
#
#
# Indices 1 2 3 4 5 6 
#
# 1 32.8508 11.8146 16.1288 0.0007 -0.0027 0.0000
# 2 11.8146 123.7598 51.8832 0.0002 -0.0027 0.0003
# 3 16.1288 51.8832 88.4009 -0.0081 -0.0237 0.0030
# 4 0.0007 0.0002 -0.0081 19.2336 -0.0003 0.0000
# 5 -0.0027 -0.0027 -0.0237 -0.0003 32.0211 -0.0006
# 6 0.0000 0.0003 0.0030 0.0000 -0.0006 19.9664
#
#
#
# Elastic Compliance Matrix: (Units=1/GPa)
#
#
# Indices 1 2 3 4 5 6 
#
# 1 0.033502 -0.000843 -0.005618 -0.000004 -0.000001 0.000001
# 2 -0.000843 0.010738 -0.006149 -0.000003 -0.000004 0.000001
# 3 -0.005618 -0.006149 0.015946 0.000007 0.000011 -0.000002
# 4 -0.000004 -0.000003 0.000007 0.051992 0.000000 0.000000
# 5 -0.000001 -0.000004 0.000011 0.000000 0.031229 0.000001
# 6 0.000001 0.000001 -0.000002 0.000000 0.000001 0.050084
#
#
# Mechanical properties :
#
#
# Convention : Reuss Voigt Hill
#
# Bulk Modulus (GPa) = 28.59815 44.96275 36.78045
# Shear Modulus (GPa) = 21.70456 25.25654 23.48055
#
# Velocity S-wave (km/s) = 3.21827 3.47164 3.34735
# Velocity P-wave (km/s) = 5.23990 6.12582 5.70010
#
# Compressibility (1/GPa) = 0.03496730
#
# Stress axis : x y z
#
# Youngs Moduli (GPa) = 29.84895 93.12474 62.71294
#
# Poissons Ratio (x) = 0.07852 0.35230
# Poissons Ratio (y) = 0.02517 0.38559
# Poissons Ratio (z) = 0.16768 0.57258
#
# Static dielectric constant tensor:
#      x y z
#    x 1.762470 0.000000 -0.000010 
#    y 0.000000 1.822060 0.000000 
#    z -0.000010 0.000000 1.868360 
# 
# From -- ./inp_files/9448.got.cif
#   From: 2010.05.17/outbox.cif.g08.bks.cpg/sg24_5_cif.got.tgz:9448.got - 2010.06.04 00:33:39.
