data_PCOD9333368
_publ_section_title
;
Structure prediction by ZEFSAII (Michael W. Deem and Ramdas Pophale) SiO2 
 PCOD9333368
Probable space group: I 21 21 21
;
_chemical_formula_sum "Si O2"
_cell_formula_units_Z 56
_cell_length_a 16.602831
_cell_length_b 4.800736
_cell_length_c 26.808450
_cell_angle_alpha 90.000000
_cell_angle_beta 90.000000
_cell_angle_gamma 90.000000
_cell_volume 2136.789181
_symmetry_space_group_name_H-M "I 21 21 21"
_symmetry_group_IT_number 24
_symmetry_cell_setting 'orthorhombic'
loop_
_space_group_symop_operation_xyz
x,y,z
-x,1/2-y,z
x,-y,1/2-z
1/2-x,y,-z
1/2+x,1/2+y,1/2+z
1/2-x,-y,1/2+z
1/2+x,1/2-y,-z
-x,1/2+y,1/2-z
loop_
_atom_site_type_symbol
_atom_site_label
_atom_site_fract_x
_atom_site_fract_y
_atom_site_fract_z
Si Si1 0.600848 0.226828 0.006830
Si Si2 0.883907 0.696762 0.059255
Si Si3 0.382442 0.760316 0.286410
Si Si4 0.289956 0.971136 0.417952
Si Si5 0.382489 0.501995 0.110702
Si Si6 0.053566 0.482943 0.342086
Si Si7 0.200794 0.757824 0.284448
O O1 0.672097 0.422683 0.027662
O O2 0.570984 0.087436 0.059621
O O3 0.562556 0.461499 0.970226
O O4 0.629187 0.965148 0.975445
O O5 0.921592 0.813905 0.109336
O O6 0.799824 0.569622 0.077998
O O7 0.381387 0.500000 0.250000
O O8 0.416352 0.627522 0.338314
O O9 0.290365 0.861929 0.300050
O O10 0.418599 0.000000 0.250000
O O11 0.354673 0.178322 0.391180
O O12 0.297910 0.661134 0.396574
O O13 0.134412 0.623801 0.320095
O O14 0.000000 0.250000 0.311925
O O15 0.000000 0.750000 0.353209
O O16 0.221208 0.500000 0.250000
O O17 0.164544 0.000000 0.250000
#
# Coordination Sequence:
#
# PCOD9333368 Si02
#       7
#     8   8   8   8   8   8   8
#     4  10  21  32  52  80 108 137 168 208 271 337
#     4  12  22  36  54  77 108 140 170 221 282 339
#     4  10  20  33  53  78 108 143 182 224 274 326
#     4  10  20  30  51  75 107 129 167 214 261 330
#     4  10  19  31  47  76 110 135 175 209 249 324
#     4  12  27  44  59  80 103 140 193 248 304 342
#     4  10  22  41  61  77  95 130 182 240 301 342
#
# _framework density 26.207545
#
# number of rings (size 3 to 8) (size 9 to 14) (size 15 to 20)
#    0.857    0.571    1.429    4.714    2.000    4.571 
#    0.000    0.000    0.000    0.000    0.000    0.000 
#    0.000    0.000    0.000    0.000    0.000   40.000 
#
# Total GULP energy -156133.424621 kJ/mol
# GULP energy per Si atom -5576.193736 kJ/mol
# Density = 2.614790 g / cm^3
# Si number density = 26.207545 Si / 1000 Ang^3
#
#
#
# Elastic Constant Matrix: (Units=GPa)
#
#
# Indices 1 2 3 4 5 6 
#
# 1 79.8189 3.5310 -0.7868 0.0000 0.0000 0.0000
# 2 3.5310 158.8661 13.0939 0.0000 0.0000 0.0000
# 3 -0.7868 13.0939 76.9307 0.0000 0.0000 0.0000
# 4 0.0000 0.0000 0.0000 41.4069 0.0000 0.0000
# 5 0.0000 0.0000 0.0000 0.0000 -0.9338 0.0000
# 6 0.0000 0.0000 0.0000 0.0000 0.0000 19.9862
#
#
#
# Elastic Compliance Matrix: (Units=1/GPa)
#
#
# Indices 1 2 3 4 5 6 
#
# 1 0.012543 -0.000293 0.000178 0.000000 0.000000 0.000000
# 2 -0.000293 0.006391 -0.001091 0.000000 0.000000 0.000000
# 3 0.000178 -0.001091 0.013186 0.000000 0.000000 0.000000
# 4 0.000000 0.000000 0.000000 0.024151 0.000000 0.000000
# 5 0.000000 0.000000 0.000000 0.000000 -1.070936 0.000000
# 6 0.000000 0.000000 0.000000 0.000000 0.000000 0.050034
#
#
# Mechanical properties :
#
#
# Convention : Reuss Voigt Hill
#
# Bulk Modulus (GPa) = 33.66063 38.58797 36.12430
# Shear Modulus (GPa) = -5.25036 32.07705 13.41335
#
# Velocity S-wave (km/s) = -1.41694 3.50231 2.26478
# Velocity P-wave (km/s) = 3.19293 5.57771 4.54454
#
# Compressibility (1/GPa) = 0.02970830
#
# Stress axis : x y z
#
# Youngs Moduli (GPa) = 79.72510 156.46919 75.83691
#
# Poissons Ratio (x) = 0.04592 -0.01352
# Poissons Ratio (y) = 0.02340 0.08272
# Poissons Ratio (z) = -0.01421 0.17067
#
# Static dielectric constant tensor:
#      x y z
#    x 2.159000 0.000000 0.000000 
#    y 0.000000 2.000030 0.000000 
#    z 0.000000 0.000000 2.184180 
# 
# From -- ./inp_files/34336.got.cif
#   From: 2010.05.17/outbox.cif.g08.bks.cpg/sg24_18_cif.got.tgz:34336.got - 2010.06.04 00:33:39.
