data_PCOD9333534
_publ_section_title
;
Structure prediction by ZEFSAII (Michael W. Deem and Ramdas Pophale) SiO2 
 PCOD9333534
Probable space group: I 21 21 21
;
_chemical_formula_sum "Si O2"
_cell_formula_units_Z 52
_cell_length_a 29.361618
_cell_length_b 13.214098
_cell_length_c 5.301801
_cell_angle_alpha 90.000000
_cell_angle_beta 90.000000
_cell_angle_gamma 90.000000
_cell_volume 2057.031443
_symmetry_space_group_name_H-M "I 21 21 21"
_symmetry_group_IT_number 24
_symmetry_cell_setting 'orthorhombic'
loop_
_space_group_symop_operation_xyz
x,y,z
-x,1/2-y,z
x,-y,1/2-z
1/2-x,y,-z
1/2+x,1/2+y,1/2+z
1/2-x,-y,1/2+z
1/2+x,1/2-y,-z
-x,1/2+y,1/2-z
loop_
_atom_site_type_symbol
_atom_site_label
_atom_site_fract_x
_atom_site_fract_y
_atom_site_fract_z
Si Si1 0.510472 0.368507 0.862820
Si Si2 0.627411 0.196495 0.461263
Si Si3 0.026264 0.640877 0.872343
Si Si4 0.180424 0.180320 0.137396
Si Si5 0.224754 0.000000 0.250000
Si Si6 0.896995 0.394625 0.867921
Si Si7 0.279273 0.659847 0.265215
O O1 0.500000 0.250000 0.820006
O O2 0.477522 0.400463 0.090691
O O3 0.562272 0.370678 0.945681
O O4 0.503174 0.413535 0.587140
O O5 0.578155 0.143887 0.469352
O O6 0.649088 0.236168 0.723341
O O7 0.613287 0.299472 0.311408
O O8 0.668858 0.133449 0.328511
O O9 0.000000 0.750000 0.837420
O O10 0.204849 0.109901 0.339501
O O11 0.149570 0.093291 0.015817
O O12 0.207172 0.237890 0.917517
O O13 0.250000 0.964758 0.500000
O O14 0.909389 0.500000 0.750000
O O15 0.250000 0.606181 0.500000
O O16 0.250000 0.665938 0.000000
#
# Coordination Sequence:
#
# PCOD9333534 Si02
#       7
#     8   8   8   8   4   8   8
#     4  10  19  36  56  76 103 132 169 226 273 330
#     4  11  22  36  59  78  99 143 183 243 281 329
#     4  10  19  34  57  78  99 125 178 225 273 324
#     4  11  24  38  53  68  98 134 186 233 278 322
#     4  12  30  38  50  64  92 138 184 228 280 318
#     4  11  23  37  54  82 109 139 181 240 293 326
#     4  11  23  37  54  74 100 135 179 233 283 330
#
# _framework density 25.279147999999999
#
# number of rings (size 3 to 8) (size 9 to 14) (size 15 to 20)
#    0.000    1.231    4.615    3.231    9.692    0.000 
#    0.000    0.000    0.000    0.000    0.000    0.000 
#    0.000    0.000    0.000    0.000    0.000    4.615 
#
# Total GULP energy -144879.287408 kJ/mol
# GULP energy per Si atom -5572.280285 kJ/mol
# Density = 2.522161 g / cm^3
# Si number density = 25.279148 Si / 1000 Ang^3
#
#
#
# Elastic Constant Matrix: (Units=GPa)
#
#
# Indices 1 2 3 4 5 6 
#
# 1 133.1020 -0.9873 19.7863 0.0000 0.0000 0.0000
# 2 -0.9873 29.4373 13.1181 0.0000 0.0000 0.0000
# 3 19.7863 13.1181 142.1302 0.0000 -0.0001 0.0001
# 4 0.0000 0.0000 0.0000 19.2131 0.0000 -0.0001
# 5 0.0000 0.0000 -0.0001 0.0000 60.3038 -0.0004
# 6 0.0000 0.0000 0.0001 -0.0001 -0.0004 -39.5146
#
#
#
# Elastic Compliance Matrix: (Units=1/GPa)
#
#
# Indices 1 2 3 4 5 6 
#
# 1 0.007688 0.000766 -0.001141 0.000000 0.000000 0.000000
# 2 0.000766 0.035504 -0.003384 0.000000 0.000000 0.000000
# 3 -0.001141 -0.003384 0.007507 0.000000 0.000000 0.000000
# 4 0.000000 0.000000 0.000000 0.052048 0.000000 0.000000
# 5 0.000000 0.000000 0.000000 0.000000 0.016583 0.000000
# 6 0.000000 0.000000 0.000000 0.000000 0.000000 -0.025307
#
#
# Mechanical properties :
#
#
# Convention : Reuss Voigt Hill
#
# Bulk Modulus (GPa) = 23.15739 40.94486 32.05112
# Shear Modulus (GPa) = 43.12816 26.18397 34.65606
#
# Velocity S-wave (km/s) = 4.13495 3.22187 3.70663
# Velocity P-wave (km/s) = 5.65488 5.48387 5.57003
#
# Compressibility (1/GPa) = 0.04318277
#
# Stress axis : x y z
#
# Youngs Moduli (GPa) = 130.06704 28.16581 133.21003
#
# Poissons Ratio (x) = -0.02159 0.15200
# Poissons Ratio (y) = -0.09968 0.45073
# Poissons Ratio (z) = 0.14841 0.09530
#
# Static dielectric constant tensor:
#      x y z
#    x 2.161230 0.000000 0.000000 
#    y 0.000000 1.845420 0.000000 
#    z 0.000000 0.000000 2.332370 
# 
# From -- ./inp_files/7809.got.cif
#   From: 2010.05.17/outbox.cif.g08.bks.cpg/sg24_4_cif.got.tgz:7809.got - 2010.06.04 00:33:39.
