data_PCOD9333242
_publ_section_title
;
Structure prediction by ZEFSAII (Michael W. Deem and Ramdas Pophale) SiO2 
 PCOD9333242
Probable space group: I 21 21 21
;
_chemical_formula_sum "Si O2"
_cell_formula_units_Z 60
_cell_length_a 17.407292
_cell_length_b 10.873290
_cell_length_c 15.229276
_cell_angle_alpha 90.000000
_cell_angle_beta 90.000000
_cell_angle_gamma 90.000000
_cell_volume 2882.514119
_symmetry_space_group_name_H-M "I 21 21 21"
_symmetry_group_IT_number 24
_symmetry_cell_setting 'orthorhombic'
loop_
_space_group_symop_operation_xyz
x,y,z
-x,1/2-y,z
x,-y,1/2-z
1/2-x,y,-z
1/2+x,1/2+y,1/2+z
1/2-x,-y,1/2+z
1/2+x,1/2-y,-z
-x,1/2+y,1/2-z
loop_
_atom_site_type_symbol
_atom_site_label
_atom_site_fract_x
_atom_site_fract_y
_atom_site_fract_z
Si Si1 0.541107 0.531075 0.465045
Si Si2 0.407330 0.134561 0.205846
Si Si3 0.180350 0.004090 0.070738
Si Si4 0.760811 0.281368 0.167221
Si Si5 0.250000 0.619040 0.500000
Si Si6 0.611429 0.277609 0.389203
Si Si7 0.115559 0.444197 0.489009
Si Si8 0.704920 0.240717 0.636198
O O1 0.534979 0.608754 0.374587
O O2 0.609250 0.575142 0.527518
O O3 0.579823 0.401049 0.433963
O O4 0.463537 0.518448 0.520822
O O5 0.330086 0.192694 0.167316
O O6 0.420127 0.219313 0.290510
O O7 0.391133 0.000000 0.250000
O O8 0.205178 0.083656 0.153533
O O9 0.164518 0.865756 0.102887
O O10 0.250000 0.003132 0.000000
O O11 0.777121 0.198772 0.082566
O O12 0.790447 0.227283 0.258934
O O13 0.179708 0.532861 0.529176
O O14 0.587745 0.159162 0.442835
O O15 0.704973 0.265188 0.389351
O O16 0.160504 0.371416 0.411271
#
# Coordination Sequence:
#
# PCOD9333242 Si02
#       8
#     8   8   8   8   4   8   8   8
#     4  11  21  35  66  97 132 164 211 285 344 397
#     4   9  18  36  63 102 128 153 207 288 356 388
#     4  12  18  36  71 101 121 160 219 285 357 389
#     4  11  22  40  68  96 126 169 229 286 338 409
#     4  12  26  46  62  86 128 190 228 260 342 436
#     4  10  18  37  62  93 129 163 219 273 328 403
#     4  12  24  42  62  93 134 188 225 255 344 427
#     4  11  21  38  69  99 124 166 227 284 324 416
#
# _framework density 20.815163999999999
#
# number of rings (size 3 to 8) (size 9 to 14) (size 15 to 20)
#    0.000    1.067    6.000    2.400    0.000    0.533 
#    0.000   14.667    8.800    0.000    0.000    0.000 
#    0.000    0.000    0.000    0.000    0.000    0.000 
#
# Total GULP energy -167307.447075 kJ/mol
# GULP energy per Si atom -5576.914902 kJ/mol
# Density = 2.076779 g / cm^3
# Si number density = 20.815164 Si / 1000 Ang^3
#
#
#
# Elastic Constant Matrix: (Units=GPa)
#
#
# Indices 1 2 3 4 5 6 
#
# 1 103.3599 8.6153 34.9564 0.0000 0.0000 0.0000
# 2 8.6153 41.8644 27.5810 0.0000 0.0000 0.0000
# 3 34.9564 27.5810 99.6326 0.0000 0.0000 0.0000
# 4 0.0000 0.0000 0.0000 15.5379 0.0000 0.0000
# 5 0.0000 0.0000 0.0000 0.0000 11.4277 0.0000
# 6 0.0000 0.0000 0.0000 0.0000 0.0000 8.0867
#
#
#
# Elastic Compliance Matrix: (Units=1/GPa)
#
#
# Indices 1 2 3 4 5 6 
#
# 1 0.010981 0.000341 -0.003947 0.000000 0.000000 0.000000
# 2 0.000341 0.029225 -0.008210 0.000000 0.000000 0.000000
# 3 -0.003947 -0.008210 0.013694 0.000000 0.000000 0.000000
# 4 0.000000 0.000000 0.000000 0.064359 0.000000 0.000000
# 5 0.000000 0.000000 0.000000 0.000000 0.087507 0.000000
# 6 0.000000 0.000000 0.000000 0.000000 0.000000 0.123660
#
#
# Mechanical properties :
#
#
# Convention : Reuss Voigt Hill
#
# Bulk Modulus (GPa) = 33.03779 43.01807 38.02793
# Shear Modulus (GPa) = 13.76847 18.59074 16.17961
#
# Velocity S-wave (km/s) = 2.57468 2.99178 2.79103
# Velocity P-wave (km/s) = 4.97444 5.71366 5.35682
#
# Compressibility (1/GPa) = 0.03026836
#
# Stress axis : x y z
#
# Youngs Moduli (GPa) = 91.06243 34.21687 73.02219
#
# Poissons Ratio (x) = -0.01165 0.28823
# Poissons Ratio (y) = -0.03101 0.59950
# Poissons Ratio (z) = 0.35944 0.28092
#
# Static dielectric constant tensor:
#      x y z
#    x 1.801680 0.000000 0.000000 
#    y 0.000000 1.775810 0.000000 
#    z 0.000000 0.000000 1.785640 
# 
# From -- ./inp_files/27201.got.cif
#   From: 2010.05.17/outbox.cif.g08.bks.cpg/sg24_14_cif.got.tgz:27201.got - 2010.06.04 00:33:39.
