data_PCOD9333320
_publ_section_title
;
Structure prediction by ZEFSAII (Michael W. Deem and Ramdas Pophale) SiO2 
 PCOD9333320
Probable space group: I 21 21 21
;
_chemical_formula_sum "Si O2"
_cell_formula_units_Z 36
_cell_length_a 12.856900
_cell_length_b 22.693776
_cell_length_c 5.116011
_cell_angle_alpha 90.000000
_cell_angle_beta 90.000000
_cell_angle_gamma 90.000000
_cell_volume 1492.706759
_symmetry_space_group_name_H-M "I 21 21 21"
_symmetry_group_IT_number 24
_symmetry_cell_setting 'orthorhombic'
loop_
_space_group_symop_operation_xyz
x,y,z
-x,1/2-y,z
x,-y,1/2-z
1/2-x,y,-z
1/2+x,1/2+y,1/2+z
1/2-x,-y,1/2+z
1/2+x,1/2-y,-z
-x,1/2+y,1/2-z
loop_
_atom_site_type_symbol
_atom_site_label
_atom_site_fract_x
_atom_site_fract_y
_atom_site_fract_z
Si Si1 0.677313 0.825069 0.250396
Si Si2 0.457494 0.559107 0.160686
Si Si3 0.365170 0.200016 0.126739
Si Si4 0.577247 0.589567 0.647521
Si Si5 0.250000 0.882446 0.000000
O O1 0.750000 0.834820 0.500000
O O2 0.609829 0.882846 0.207575
O O3 0.608705 0.766516 0.298565
O O4 0.750000 0.813603 0.000000
O O5 0.398120 0.500000 0.250000
O O6 0.551380 0.559316 0.373381
O O7 0.498772 0.565697 0.866569
O O8 0.339477 0.159367 0.377181
O O9 0.250000 0.205850 0.000000
O O10 0.430327 0.159473 0.927857
O O11 0.691156 0.582383 0.773619
#
# Coordination Sequence:
#
# PCOD9333320 Si02
#       5
#     8   8   8   8   4
#     4  11  24  44  70 102 134 179 229 282 356 415
#     4  12  27  46  66  96 142 184 235 289 324 399
#     4   9  19  38  68  99 136 166 211 279 341 414
#     4  11  23  43  69  97 136 179 224 281 349 402
#     4  10  18  42  70  96 132 174 210 274 350 418
#
# _framework density 24.117265
#
# number of rings (size 3 to 8) (size 9 to 14) (size 15 to 20)
#    0.000    1.333    3.333    2.000    0.000    1.778 
#    4.000    2.222    2.444    0.000    0.000    0.000 
#    0.000    0.000    0.000    0.000    0.000    0.000 
#
# Total GULP energy -100587.436705 kJ/mol
# GULP energy per Si atom -5588.190928 kJ/mol
# Density = 2.406237 g / cm^3
# Si number density = 24.117265 Si / 1000 Ang^3
#
#
#
# Elastic Constant Matrix: (Units=GPa)
#
#
# Indices 1 2 3 4 5 6 
#
# 1 46.4626 34.1294 30.0345 -0.0010 -0.0023 -0.0004
# 2 34.1294 162.5998 49.8756 0.0045 0.0020 0.0004
# 3 30.0345 49.8756 163.9438 0.0171 0.0106 0.0096
# 4 -0.0010 0.0045 0.0171 28.8148 0.0011 0.0039
# 5 -0.0023 0.0020 0.0106 0.0011 19.6877 0.0061
# 6 -0.0004 0.0004 0.0096 0.0039 0.0061 5.8950
#
#
#
# Elastic Compliance Matrix: (Units=1/GPa)
#
#
# Indices 1 2 3 4 5 6 
#
# 1 0.027231 -0.004616 -0.003584 0.000004 0.000006 0.000008
# 2 -0.004616 0.007566 -0.001456 0.000000 -0.000001 0.000002
# 3 -0.003584 -0.001456 0.007199 -0.000004 -0.000004 -0.000012
# 4 0.000004 0.000000 -0.000004 0.034704 -0.000002 -0.000023
# 5 0.000006 -0.000001 -0.000004 -0.000002 0.050793 -0.000052
# 6 0.000008 0.000002 -0.000012 -0.000023 -0.000052 0.169634
#
#
# Mechanical properties :
#
#
# Convention : Reuss Voigt Hill
#
# Bulk Modulus (GPa) = 44.08685 66.78723 55.43704
# Shear Modulus (GPa) = 15.43206 28.14396 21.78801
#
# Velocity S-wave (km/s) = 2.53232 3.41979 3.00895
# Velocity P-wave (km/s) = 5.18364 6.58378 5.92521
#
# Compressibility (1/GPa) = 0.02268250
#
# Stress axis : x y z
#
# Youngs Moduli (GPa) = 36.72348 132.17722 138.90393
#
# Poissons Ratio (x) = 0.61016 0.49787
# Poissons Ratio (y) = 0.16952 0.20224
# Poissons Ratio (z) = 0.13163 0.19244
#
# Static dielectric constant tensor:
#      x y z
#    x 1.935390 0.000000 0.000000 
#    y 0.000000 2.031270 0.000000 
#    z 0.000000 0.000000 1.928730 
# 
# From -- ./inp_files/3355.got.cif
#   From: 2010.05.17/outbox.cif.g08.bks.cpg/sg24_2_cif.got.tgz:3355.got - 2010.06.04 00:33:39.
