data_PCOD9333286
_publ_section_title
;
Structure prediction by ZEFSAII (Michael W. Deem and Ramdas Pophale) SiO2 
 PCOD9333286
Probable space group: I 21 21 21
;
_chemical_formula_sum "Si O2"
_cell_formula_units_Z 64
_cell_length_a 14.345417
_cell_length_b 15.738986
_cell_length_c 12.492231
_cell_angle_alpha 90.000000
_cell_angle_beta 90.000000
_cell_angle_gamma 90.000000
_cell_volume 2820.524864
_symmetry_space_group_name_H-M "I 21 21 21"
_symmetry_group_IT_number 24
_symmetry_cell_setting 'orthorhombic'
loop_
_space_group_symop_operation_xyz
x,y,z
-x,1/2-y,z
x,-y,1/2-z
1/2-x,y,-z
1/2+x,1/2+y,1/2+z
1/2-x,-y,1/2+z
1/2+x,1/2-y,-z
-x,1/2+y,1/2-z
loop_
_atom_site_type_symbol
_atom_site_label
_atom_site_fract_x
_atom_site_fract_y
_atom_site_fract_z
Si Si1 0.910932 0.101346 0.063279
Si Si2 0.344005 0.932928 0.945642
Si Si3 0.358296 0.594131 0.215355
Si Si4 0.633643 0.373464 0.945179
Si Si5 0.605767 0.293248 0.727329
Si Si6 0.346705 0.383765 0.693893
Si Si7 0.887648 0.763908 0.602991
Si Si8 0.546426 0.929814 0.013733
O O1 0.878624 0.093438 0.185476
O O2 0.021697 0.114396 0.063252
O O3 0.900582 0.020267 0.987164
O O4 0.868256 0.180086 0.002560
O O5 0.377739 0.875579 0.846016
O O6 0.435333 0.934447 0.021285
O O7 0.326693 0.032816 0.922883
O O8 0.250000 0.898788 0.000000
O O9 0.396301 0.500000 0.250000
O O10 0.253281 0.576169 0.176401
O O11 0.358262 0.671204 0.301886
O O12 0.415467 0.623714 0.111519
O O13 0.647206 0.314551 0.842650
O O14 0.651828 0.327774 0.060313
O O15 0.500000 0.250000 0.734415
O O16 0.666177 0.216657 0.682366
O O17 0.423914 0.403156 0.605520
O O18 0.000000 0.750000 0.616038
#
# Coordination Sequence:
#
# PCOD9333286 Si02
#       8
#     8   8   8   8   8   8   8   8
#     4  10  18  38  71 100 134 175 231 297 351 420
#     4  11  26  45  72 103 145 192 243 304 370 449
#     4  12  26  44  65 101 148 194 232 285 362 444
#     4  10  20  41  76 104 136 185 245 303 364 418
#     4  12  21  44  72 107 142 183 240 311 374 422
#     4  12  24  39  69 108 138 182 239 297 363 430
#     4  10  21  43  70  98 138 190 237 290 353 431
#     4  11  23  44  68  98 143 189 232 288 364 442
#
# _framework density 22.690812999999999
#
# number of rings (size 3 to 8) (size 9 to 14) (size 15 to 20)
#    0.000    1.000    5.000    2.250    0.000    4.500 
#    4.500    1.250    0.000    0.000    0.000    0.000 
#    0.000    0.000    0.000    0.000    0.000    0.000 
#
# Total GULP energy -178313.290482 kJ/mol
# GULP energy per Si atom -5572.290328 kJ/mol
# Density = 2.263917 g / cm^3
# Si number density = 22.690813 Si / 1000 Ang^3
#
#
#
# Elastic Constant Matrix: (Units=GPa)
#
#
# Indices 1 2 3 4 5 6 
#
# 1 92.5916 15.3824 43.1097 0.0000 0.0000 0.0000
# 2 15.3824 106.2931 29.8939 0.0000 0.0000 0.0000
# 3 43.1097 29.8939 101.9250 0.0000 0.0000 0.0000
# 4 0.0000 0.0000 0.0000 26.9299 0.0000 0.0000
# 5 0.0000 0.0000 0.0000 0.0000 20.7791 0.0000
# 6 0.0000 0.0000 0.0000 0.0000 0.0000 18.3882
#
#
#
# Elastic Compliance Matrix: (Units=1/GPa)
#
#
# Indices 1 2 3 4 5 6 
#
# 1 0.013462 -0.000378 -0.005583 0.000000 0.000000 0.000000
# 2 -0.000378 0.010264 -0.002851 0.000000 0.000000 0.000000
# 3 -0.005583 -0.002851 0.013009 0.000000 0.000000 0.000000
# 4 0.000000 0.000000 0.000000 0.037133 0.000000 0.000000
# 5 0.000000 0.000000 0.000000 0.000000 0.048125 0.000000
# 6 0.000000 0.000000 0.000000 0.000000 0.000000 0.054383
#
#
# Mechanical properties :
#
#
# Convention : Reuss Voigt Hill
#
# Bulk Modulus (GPa) = 52.32347 53.06464 52.69406
# Shear Modulus (GPa) = 24.95377 27.38103 26.16740
#
# Velocity S-wave (km/s) = 3.31982 3.47753 3.39959
# Velocity P-wave (km/s) = 6.14852 6.28975 6.21954
#
# Compressibility (1/GPa) = 0.01911188
#
# Stress axis : x y z
#
# Youngs Moduli (GPa) = 74.28123 97.42454 76.87224
#
# Poissons Ratio (x) = 0.03683 0.42919
# Poissons Ratio (y) = 0.02808 0.21913
# Poissons Ratio (z) = 0.41472 0.27772
#
# Static dielectric constant tensor:
#      x y z
#    x 1.868910 0.000000 0.000000 
#    y 0.000000 2.009960 0.000000 
#    z 0.000000 0.000000 1.904090 
# 
# From -- ./inp_files/21056.got.cif
#   From: 2010.05.17/outbox.cif.g08.bks.cpg/sg24_11_cif.got.tgz:21056.got - 2010.06.04 00:33:39.
