data_PCOD9333807
_publ_section_title
;
Structure prediction by ZEFSAII (Michael W. Deem and Ramdas Pophale) SiO2 
 PCOD9333807
Probable space group: I 21 21 21
;
_chemical_formula_sum "Si O2"
_cell_formula_units_Z 40
_cell_length_a 5.328188
_cell_length_b 22.213209
_cell_length_c 15.220812
_cell_angle_alpha 90.000000
_cell_angle_beta 90.000000
_cell_angle_gamma 90.000000
_cell_volume 1801.476764
_symmetry_space_group_name_H-M "I 21 21 21"
_symmetry_group_IT_number 24
_symmetry_cell_setting 'orthorhombic'
loop_
_space_group_symop_operation_xyz
x,y,z
-x,1/2-y,z
x,-y,1/2-z
1/2-x,y,-z
1/2+x,1/2+y,1/2+z
1/2-x,-y,1/2+z
1/2+x,1/2-y,-z
-x,1/2+y,1/2-z
loop_
_atom_site_type_symbol
_atom_site_label
_atom_site_fract_x
_atom_site_fract_y
_atom_site_fract_z
Si Si1 0.250000 0.686783 0.500000
Si Si2 0.500000 0.250000 0.556630
Si Si3 0.000000 0.750000 0.347877
Si Si4 0.035760 0.413850 0.894085
Si Si5 0.750000 0.979747 0.000000
Si Si6 0.945147 0.383448 0.211906
Si Si7 0.921928 0.384419 0.410421
O O1 0.208721 0.728280 0.416471
O O2 0.043011 0.639441 0.533209
O O3 0.250000 0.246500 0.500000
O O4 0.482035 0.315548 0.600268
O O5 0.067151 0.810361 0.296382
O O6 0.072229 0.475877 0.945634
O O7 0.277377 0.402573 0.827151
O O8 0.769380 0.411315 0.848421
O O9 0.624617 0.934502 0.932291
O O10 0.853558 0.399768 0.310299
O O11 0.750000 0.385220 0.500000
#
# Coordination Sequence:
#
# PCOD9333807 Si02
#       7
#     4   4   4   8   4   8   8
#     4   9  18  36  68 100 138 183 210 276 340 427
#     4  10  21  42  68  97 132 170 232 293 338 414
#     4  10  19  38  72 105 144 176 230 269 366 408
#     4  10  25  44  68 101 143 176 232 284 346 412
#     4  11  26  48  72  98 136 195 238 282 360 437
#     4  11  25  44  68 107 139 179 226 299 340 417
#     4  11  26  46  72 101 136 188 237 290 363 422
#
# _framework density 22.204004000000001
#
# number of rings (size 3 to 8) (size 9 to 14) (size 15 to 20)
#    0.000    1.600    1.000    1.800    5.600    8.800 
#    0.000    2.000    0.000    0.000    0.000    0.000 
#    0.000    0.000    0.000    0.000    0.000    0.000 
#
# Total GULP energy -111419.898713 kJ/mol
# GULP energy per Si atom -5570.994936 kJ/mol
# Density = 2.215347 g / cm^3
# Si number density = 22.204004 Si / 1000 Ang^3
#
#
#
# Elastic Constant Matrix: (Units=GPa)
#
#
# Indices 1 2 3 4 5 6 
#
# 1 88.0346 19.7941 26.6599 0.0000 0.0000 0.0000
# 2 19.7941 104.6267 20.9733 0.0000 0.0000 0.0000
# 3 26.6599 20.9733 127.1817 0.0000 0.0000 0.0000
# 4 0.0000 0.0000 0.0000 93.3624 0.0000 0.0000
# 5 0.0000 0.0000 0.0000 0.0000 23.5303 0.0000
# 6 0.0000 0.0000 0.0000 0.0000 0.0000 6.9578
#
#
#
# Elastic Compliance Matrix: (Units=1/GPa)
#
#
# Indices 1 2 3 4 5 6 
#
# 1 0.012484 -0.001900 -0.002304 0.000000 0.000000 0.000000
# 2 -0.001900 0.010174 -0.001279 0.000000 0.000000 0.000000
# 3 -0.002304 -0.001279 0.008557 0.000000 0.000000 0.000000
# 4 0.000000 0.000000 0.000000 0.010711 0.000000 0.000000
# 5 0.000000 0.000000 0.000000 0.000000 0.042498 0.000000
# 6 0.000000 0.000000 0.000000 0.000000 0.000000 0.143724
#
#
# Mechanical properties :
#
#
# Convention : Reuss Voigt Hill
#
# Bulk Modulus (GPa) = 49.38701 50.52195 49.95448
# Shear Modulus (GPa) = 20.33652 41.59782 30.96717
#
# Velocity S-wave (km/s) = 3.02966 4.33302 3.73857
# Velocity P-wave (km/s) = 5.87615 6.91638 6.41738
#
# Compressibility (1/GPa) = 0.02024824
#
# Stress axis : x y z
#
# Youngs Moduli (GPa) = 80.10259 98.29241 116.86843
#
# Poissons Ratio (x) = 0.18676 0.26921
# Poissons Ratio (y) = 0.15220 0.14953
# Poissons Ratio (z) = 0.18452 0.12576
#
# Static dielectric constant tensor:
#      x y z
#    x 1.822520 0.000000 0.000000 
#    y 0.000000 1.812540 0.000000 
#    z 0.000000 0.000000 1.868310 
# 
# From -- ./inp_files/23758.got.cif
#   From: 2010.05.17/outbox.cif.g08.bks.cpg/sg24_12_cif.got.tgz:23758.got - 2010.06.04 00:33:39.
