data_PCOD9333222
_publ_section_title
;
Structure prediction by ZEFSAII (Michael W. Deem and Ramdas Pophale) SiO2 
 PCOD9333222
Probable space group: I 21 21 21
;
_chemical_formula_sum "Si O2"
_cell_formula_units_Z 60
_cell_length_a 18.998398
_cell_length_b 9.164879
_cell_length_c 17.366618
_cell_angle_alpha 90.000000
_cell_angle_beta 90.000000
_cell_angle_gamma 90.000000
_cell_volume 3023.841121
_symmetry_space_group_name_H-M "I 21 21 21"
_symmetry_group_IT_number 24
_symmetry_cell_setting 'orthorhombic'
loop_
_space_group_symop_operation_xyz
x,y,z
-x,1/2-y,z
x,-y,1/2-z
1/2-x,y,-z
1/2+x,1/2+y,1/2+z
1/2-x,-y,1/2+z
1/2+x,1/2-y,-z
-x,1/2+y,1/2-z
loop_
_atom_site_type_symbol
_atom_site_label
_atom_site_fract_x
_atom_site_fract_y
_atom_site_fract_z
Si Si1 0.957423 0.110586 0.680826
Si Si2 0.306950 0.580391 0.826034
Si Si3 0.092589 0.514365 0.051297
Si Si4 0.672935 0.832998 0.076733
Si Si5 0.125882 0.105426 0.320078
Si Si6 0.171141 0.981746 0.008226
Si Si7 0.000000 0.750000 0.120749
Si Si8 0.476016 0.095534 0.052731
O O1 0.885560 0.165984 0.642960
O O2 0.000000 0.250000 0.708988
O O3 0.944723 0.000000 0.750000
O O4 0.001385 0.030427 0.612657
O O5 0.281141 0.500000 0.750000
O O6 0.364720 0.482070 0.871273
O O7 0.246084 0.622590 0.885465
O O8 0.342719 0.734234 0.804945
O O9 0.056432 0.671098 0.067320
O O10 0.147535 0.543959 0.983346
O O11 0.028341 0.418556 0.021119
O O12 0.674717 0.675469 0.035419
O O13 0.154577 0.046491 0.401779
O O14 0.042185 0.131648 0.330419
O O15 0.142119 0.000000 0.250000
O O16 0.250000 0.047039 0.000000
O O17 0.105023 0.071666 0.972473
O O18 0.500000 0.250000 0.087572
#
# Coordination Sequence:
#
# PCOD9333222 Si02
#       8
#     8   8   8   8   8   8   4   8
#     4  11  23  40  67  98 138 177 231 288 355 406
#     4  11  23  39  62  98 140 175 224 283 353 401
#     4  10  19  36  65  91 122 173 231 273 323 401
#     4  11  19  39  71  98 122 182 238 280 321 427
#     4  11  24  40  63  99 135 177 229 278 346 415
#     4  12  21  43  74  96 126 186 236 272 339 421
#     4  10  18  36  64  92 126 168 226 270 330 406
#     4  11  24  42  65 100 134 171 233 289 334 408
#
# _framework density 19.842313000000001
#
# number of rings (size 3 to 8) (size 9 to 14) (size 15 to 20)
#    0.000    1.067    6.667    1.200    1.867    3.200 
#    1.200    9.333    0.000    0.000    0.000    0.000 
#    0.000    0.000    0.000    0.000    0.000    0.000 
#
# Total GULP energy -167445.876540 kJ/mol
# GULP energy per Si atom -5581.529218 kJ/mol
# Density = 1.979715 g / cm^3
# Si number density = 19.842313 Si / 1000 Ang^3
#
#
#
# Elastic Constant Matrix: (Units=GPa)
#
#
# Indices 1 2 3 4 5 6 
#
# 1 126.4764 25.0225 45.1137 0.0000 0.0000 0.0000
# 2 25.0225 50.1771 29.4695 0.0000 0.0000 0.0000
# 3 45.1137 29.4695 99.7034 0.0000 0.0000 0.0000
# 4 0.0000 0.0000 0.0000 37.6396 0.0000 0.0000
# 5 0.0000 0.0000 0.0000 0.0000 13.4885 0.0000
# 6 0.0000 0.0000 0.0000 0.0000 0.0000 20.6558
#
#
#
# Elastic Compliance Matrix: (Units=1/GPa)
#
#
# Indices 1 2 3 4 5 6 
#
# 1 0.009731 -0.002743 -0.003592 0.000000 0.000000 0.000000
# 2 -0.002743 0.024889 -0.006115 0.000000 0.000000 0.000000
# 3 -0.003592 -0.006115 0.013463 0.000000 0.000000 0.000000
# 4 0.000000 0.000000 0.000000 0.026568 0.000000 0.000000
# 5 0.000000 0.000000 0.000000 0.000000 0.074137 0.000000
# 6 0.000000 0.000000 0.000000 0.000000 0.000000 0.048412
#
#
# Mechanical properties :
#
#
# Convention : Reuss Voigt Hill
#
# Bulk Modulus (GPa) = 43.13808 52.84092 47.98950
# Shear Modulus (GPa) = 21.75546 26.14019 23.94783
#
# Velocity S-wave (km/s) = 3.31481 3.63353 3.47783
# Velocity P-wave (km/s) = 6.03641 6.65520 6.35334
#
# Compressibility (1/GPa) = 0.02318138
#
# Stress axis : x y z
#
# Youngs Moduli (GPa) = 102.76890 40.17873 74.27937
#
# Poissons Ratio (x) = 0.11020 0.26683
# Poissons Ratio (y) = 0.28187 0.45425
# Poissons Ratio (z) = 0.36917 0.24571
#
# Static dielectric constant tensor:
#      x y z
#    x 1.728630 0.000000 0.000000 
#    y 0.000000 1.726940 0.000000 
#    z 0.000000 0.000000 1.711850 
# 
# From -- ./inp_files/31195.got.cif
#   From: 2010.05.17/outbox.cif.g08.bks.cpg/sg24_16_cif.got.tgz:31195.got - 2010.06.04 00:33:39.
