data_PCOD9333194
_publ_section_title
;
Structure prediction by ZEFSAII (Michael W. Deem and Ramdas Pophale) SiO2 
 PCOD9333194
Probable space group: I 21 21 21
;
_chemical_formula_sum "Si O2"
_cell_formula_units_Z 32
_cell_length_a 36.754194
_cell_length_b 5.395342
_cell_length_c 8.187491
_cell_angle_alpha 90.000000
_cell_angle_beta 90.000000
_cell_angle_gamma 90.000000
_cell_volume 1623.591309
_symmetry_space_group_name_H-M "I 21 21 21"
_symmetry_group_IT_number 24
_symmetry_cell_setting 'orthorhombic'
loop_
_space_group_symop_operation_xyz
x,y,z
-x,1/2-y,z
x,-y,1/2-z
1/2-x,y,-z
1/2+x,1/2+y,1/2+z
1/2-x,-y,1/2+z
1/2+x,1/2-y,-z
-x,1/2+y,1/2-z
loop_
_atom_site_type_symbol
_atom_site_label
_atom_site_fract_x
_atom_site_fract_y
_atom_site_fract_z
Si Si1 0.100197 0.246940 0.640062
Si Si2 0.250000 0.868877 0.500000
Si Si3 0.678828 0.354140 0.424056
Si Si4 0.275883 0.500000 0.250000
Si Si5 0.456786 0.251224 0.646991
O O1 0.104307 0.500000 0.750000
O O2 0.137091 0.194963 0.534138
O O3 0.066687 0.265584 0.516976
O O4 0.095267 0.000000 0.750000
O O5 0.252991 0.711027 0.334407
O O6 0.288437 0.010185 0.516127
O O7 0.676662 0.500000 0.250000
O O8 0.697337 0.091469 0.390330
O O9 0.500000 0.250000 0.611290
O O10 0.449029 0.500000 0.750000
O O11 0.448654 0.000000 0.750000
#
# Coordination Sequence:
#
# PCOD9333194 Si02
#       5
#     8   4   8   4   8
#     4  11  22  39  67  94 123 162 211 257 302 364
#     4  10  20  34  58  80 110 152 202 242 308 364
#     4   9  19  35  56  80 113 155 195 250 309 348
#     4  10  18  36  56  76 110 152 194 250 300 360
#     4  10  22  42  65  92 132 169 196 245 314 370
#
# _framework density 19.709394
#
# number of rings (size 3 to 8) (size 9 to 14) (size 15 to 20)
#    0.000    2.000    1.250    2.250    0.000    1.000 
#    0.000    6.250    2.750    0.000    0.000    0.000 
#    0.000    0.000    0.000    0.000    0.000    0.000 
#
# Total GULP energy -89088.436131 kJ/mol
# GULP energy per Si atom -5568.027258 kJ/mol
# Density = 1.966453 g / cm^3
# Si number density = 19.709394 Si / 1000 Ang^3
#
#
#
# Elastic Constant Matrix: (Units=GPa)
#
#
# Indices 1 2 3 4 5 6 
#
# 1 116.1862 57.3828 62.7133 0.0000 0.0000 0.0000
# 2 57.3828 128.6051 35.7317 0.0000 0.0000 0.0000
# 3 62.7133 35.7317 51.1335 0.0000 0.0000 0.0000
# 4 0.0000 0.0000 0.0000 36.2865 0.0000 0.0000
# 5 0.0000 0.0000 0.0000 0.0000 38.7250 0.0000
# 6 0.0000 0.0000 0.0000 0.0000 0.0000 32.6547
#
#
#
# Elastic Compliance Matrix: (Units=1/GPa)
#
#
# Indices 1 2 3 4 5 6 
#
# 1 0.026669 -0.003489 -0.030270 0.000000 0.000000 0.000000
# 2 -0.003489 0.010106 -0.002782 0.000000 0.000000 0.000000
# 3 -0.030270 -0.002782 0.058626 0.000000 0.000000 0.000000
# 4 0.000000 0.000000 0.000000 0.027558 0.000000 0.000000
# 5 0.000000 0.000000 0.000000 0.000000 0.025823 0.000000
# 6 0.000000 0.000000 0.000000 0.000000 0.000000 0.030623
#
#
# Mechanical properties :
#
#
# Convention : Reuss Voigt Hill
#
# Bulk Modulus (GPa) = 44.80839 67.50893 56.15866
# Shear Modulus (GPa) = 19.23604 30.87305 25.05454
#
# Velocity S-wave (km/s) = 3.12746 3.96209 3.56925
# Velocity P-wave (km/s) = 5.98542 7.43353 6.74843
#
# Compressibility (1/GPa) = 0.02231725
#
# Stress axis : x y z
#
# Youngs Moduli (GPa) = 37.49669 98.95442 17.05719
#
# Poissons Ratio (x) = 0.34528 0.51633
# Poissons Ratio (y) = 0.13084 0.04746
# Poissons Ratio (z) = 1.13504 0.27532
#
# Static dielectric constant tensor:
#      x y z
#    x 1.709120 0.000000 0.000000 
#    y 0.000000 1.806030 0.000000 
#    z 0.000000 0.000000 1.660960 
# 
# From -- ./inp_files/1182.got.cif
#   From: 2010.05.17/outbox.cif.g08.bks.cpg/sg24_1_cif.got.tgz:1182.got - 2010.06.04 00:33:39.
