data_PCOD9333604
_publ_section_title
;
Structure prediction by ZEFSAII (Michael W. Deem and Ramdas Pophale) SiO2 
 PCOD9333604
Probable space group: I 21 21 21
;
_chemical_formula_sum "Si O2"
_cell_formula_units_Z 56
_cell_length_a 8.546573
_cell_length_b 19.438605
_cell_length_c 19.241424
_cell_angle_alpha 90.000000
_cell_angle_beta 90.000000
_cell_angle_gamma 90.000000
_cell_volume 3196.644280
_symmetry_space_group_name_H-M "I 21 21 21"
_symmetry_group_IT_number 24
_symmetry_cell_setting 'orthorhombic'
loop_
_space_group_symop_operation_xyz
x,y,z
-x,1/2-y,z
x,-y,1/2-z
1/2-x,y,-z
1/2+x,1/2+y,1/2+z
1/2-x,-y,1/2+z
1/2+x,1/2-y,-z
-x,1/2+y,1/2-z
loop_
_atom_site_type_symbol
_atom_site_label
_atom_site_fract_x
_atom_site_fract_y
_atom_site_fract_z
Si Si1 0.889682 0.686171 0.946395
Si Si2 0.976145 0.076221 0.216774
Si Si3 0.847536 0.964923 0.673458
Si Si4 0.159956 0.788819 0.786453
Si Si5 0.105862 0.690003 0.175566
Si Si6 0.181308 0.595459 0.923645
Si Si7 0.317492 0.070184 0.204605
O O1 0.827805 0.702849 0.869619
O O2 0.000000 0.750000 0.968743
O O3 0.005811 0.622687 0.934335
O O4 0.750000 0.675084 0.000000
O O5 0.808294 0.082365 0.178032
O O6 0.981362 0.131245 0.280006
O O7 0.140461 0.078894 0.174862
O O8 0.970886 0.000000 0.250000
O O9 0.021135 0.934063 0.660932
O O10 0.859383 0.000000 0.750000
O O11 0.816596 0.025240 0.618914
O O12 0.295407 0.734923 0.769043
O O13 0.161232 0.862933 0.752552
O O14 0.000000 0.750000 0.771029
O O15 0.218251 0.650768 0.121295
O O16 0.000000 0.750000 0.142068
O O17 0.250000 0.588363 0.000000
O O18 0.310775 0.000000 0.250000
#
# Coordination Sequence:
#
# PCOD9333604 Si02
#       7
#     8   8   8   8   8   8   8
#     4  11  23  35  48  68 106 161 204 233 275 328
#     4  10  19  35  58  81 105 153 196 239 302 337
#     4  10  19  39  61  72 109 151 197 249 298 328
#     4  11  21  34  53  79 113 152 207 240 283 344
#     4  12  22  36  57  82 123 157 193 243 287 350
#     4  12  25  39  55  83 117 163 207 241 289 350
#     4  10  20  33  55  80 102 145 199 244 298 341
#
# _framework density 17.518370000000001
#
# number of rings (size 3 to 8) (size 9 to 14) (size 15 to 20)
#    0.000    1.143    7.143    3.000    2.000    0.000 
#    2.571    0.000    0.000    0.000    0.000    0.000 
#    0.000    3.429    0.000    0.286    0.000    0.000 
#
# Total GULP energy -155981.390757 kJ/mol
# GULP energy per Si atom -5570.763956 kJ/mol
# Density = 1.747850 g / cm^3
# Si number density = 17.518370 Si / 1000 Ang^3
#
#
#
# Elastic Constant Matrix: (Units=GPa)
#
#
# Indices 1 2 3 4 5 6 
#
# 1 138.2436 30.0118 19.0921 0.0000 0.0000 0.0000
# 2 30.0118 103.8157 41.5551 0.0000 0.0000 0.0000
# 3 19.0921 41.5551 32.4875 0.0000 0.0000 0.0000
# 4 0.0000 0.0000 0.0000 4.1847 0.0000 0.0000
# 5 0.0000 0.0000 0.0000 0.0000 4.6110 0.0000
# 6 0.0000 0.0000 0.0000 0.0000 0.0000 32.2898
#
#
#
# Elastic Compliance Matrix: (Units=1/GPa)
#
#
# Indices 1 2 3 4 5 6 
#
# 1 0.007911 -0.000873 -0.003532 0.000000 0.000000 0.000000
# 2 -0.000873 0.019835 -0.024858 0.000000 0.000000 0.000000
# 3 -0.003532 -0.024858 0.064653 0.000000 0.000000 0.000000
# 4 0.000000 0.000000 0.000000 0.238966 0.000000 0.000000
# 5 0.000000 0.000000 0.000000 0.000000 0.216872 0.000000
# 6 0.000000 0.000000 0.000000 0.000000 0.000000 0.030970
#
#
# Mechanical properties :
#
#
# Convention : Reuss Voigt Hill
#
# Bulk Modulus (GPa) = 29.52276 50.65163 40.08720
# Shear Modulus (GPa) = 7.70387 20.47630 14.09009
#
# Velocity S-wave (km/s) = 2.09932 3.42255 2.83910
# Velocity P-wave (km/s) = 4.77129 6.67792 5.80344
#
# Compressibility (1/GPa) = 0.03387217
#
# Stress axis : x y z
#
# Youngs Moduli (GPa) = 126.40674 50.41615 15.46718
#
# Poissons Ratio (x) = 0.04401 0.05464
# Poissons Ratio (y) = 0.11036 0.38448
# Poissons Ratio (z) = 0.44651 1.25324
#
# Static dielectric constant tensor:
#      x y z
#    x 1.779680 0.000000 0.000000 
#    y 0.000000 1.599790 0.000000 
#    z 0.000000 0.000000 1.561480 
# 
# From -- ./inp_files/32914.got.cif
#   From: 2010.05.17/outbox.cif.g08.bks.cpg/sg24_17_cif.got.tgz:32914.got - 2010.06.04 00:33:39.
