data_PCOD9333450
_publ_section_title
;
Structure prediction by ZEFSAII (Michael W. Deem and Ramdas Pophale) SiO2 
 PCOD9333450
Probable space group: I 21 21 21
;
_chemical_formula_sum "Si O2"
_cell_formula_units_Z 52
_cell_length_a 14.916044
_cell_length_b 5.290864
_cell_length_c 28.527714
_cell_angle_alpha 90.000000
_cell_angle_beta 90.000000
_cell_angle_gamma 90.000000
_cell_volume 2251.371821
_symmetry_space_group_name_H-M "I 21 21 21"
_symmetry_group_IT_number 24
_symmetry_cell_setting 'orthorhombic'
loop_
_space_group_symop_operation_xyz
x,y,z
-x,1/2-y,z
x,-y,1/2-z
1/2-x,y,-z
1/2+x,1/2+y,1/2+z
1/2-x,-y,1/2+z
1/2+x,1/2-y,-z
-x,1/2+y,1/2-z
loop_
_atom_site_type_symbol
_atom_site_label
_atom_site_fract_x
_atom_site_fract_y
_atom_site_fract_z
Si Si1 0.560857 0.999929 0.901770
Si Si2 0.643215 0.088157 0.000914
Si Si3 0.937954 0.999935 0.199407
Si Si4 0.669279 0.587141 0.036740
Si Si5 0.326053 0.480761 0.304216
Si Si6 0.823359 0.497563 0.859928
Si Si7 0.000000 0.750000 0.837521
O O1 0.500000 0.250000 0.902697
O O2 0.617480 0.010403 0.948739
O O3 0.609757 0.003229 0.851098
O O4 0.500000 0.750000 0.903458
O O5 0.750000 0.130320 0.000000
O O6 0.607794 0.360326 0.017487
O O7 0.622397 0.860366 0.036475
O O8 0.000000 0.250000 0.199645
O O9 0.890103 0.000000 0.250000
O O10 0.000000 0.750000 0.198831
O O11 0.709383 0.509168 0.086879
O O12 0.750000 0.626002 0.000000
O O13 0.303110 0.500000 0.250000
O O14 0.309080 0.734888 0.333582
O O15 0.433025 0.423867 0.307799
O O16 0.286305 0.228763 0.328631
O O17 0.929642 0.569969 0.864273
#
# Coordination Sequence:
#
# PCOD9333450 Si02
#       7
#     8   8   8   8   8   8   4
#     4  10  19  33  51  83 115 143 182 230 279 327
#     4  10  21  38  57  77 104 150 197 232 280 338
#     4   8  14  25  44  70 106 140 165 205 267 334
#     4  10  21  39  58  74  99 141 197 234 274 321
#     4  10  20  31  51  77 112 148 174 210 272 339
#     4  10  20  33  49  77 106 137 185 221 269 318
#     4   8  22  28  50  74 114 144 168 216 266 332
#
# _framework density 23.09703
#
# number of rings (size 3 to 8) (size 9 to 14) (size 15 to 20)
#    0.923    1.538    0.000    2.769    2.154    0.000 
#    4.154    0.000    0.000    0.000    0.000   25.846 
#    0.000    0.000    0.000    0.000    0.000    0.308 
#
# Total GULP energy -144971.922197 kJ/mol
# GULP energy per Si atom -5575.843161 kJ/mol
# Density = 2.304446 g / cm^3
# Si number density = 23.097030 Si / 1000 Ang^3
#
#
#
# Elastic Constant Matrix: (Units=GPa)
#
#
# Indices 1 2 3 4 5 6 
#
# 1 55.6912 12.4048 1.6510 0.0000 0.0000 0.0000
# 2 12.4048 176.8767 16.7249 0.0000 0.0000 0.0000
# 3 1.6510 16.7249 158.7662 0.0000 0.0000 0.0000
# 4 0.0000 0.0000 0.0000 41.3777 0.0000 0.0000
# 5 0.0000 0.0000 0.0000 0.0000 -20.8088 0.0000
# 6 0.0000 0.0000 0.0000 0.0000 0.0000 7.1706
#
#
#
# Elastic Compliance Matrix: (Units=1/GPa)
#
#
# Indices 1 2 3 4 5 6 
#
# 1 0.018242 -0.001274 -0.000055 0.000000 0.000000 0.000000
# 2 -0.001274 0.005800 -0.000598 0.000000 0.000000 0.000000
# 3 -0.000055 -0.000598 0.006362 0.000000 0.000000 0.000000
# 4 0.000000 0.000000 0.000000 0.024168 0.000000 0.000000
# 5 0.000000 0.000000 0.000000 0.000000 -0.048056 0.000000
# 6 0.000000 0.000000 0.000000 0.000000 0.000000 0.139459
#
#
# Mechanical properties :
#
#
# Convention : Reuss Voigt Hill
#
# Bulk Modulus (GPa) = 37.66657 50.32171 43.99414
# Shear Modulus (GPa) = 31.51051 29.58479 30.54765
#
# Velocity S-wave (km/s) = 3.69761 3.58284 3.64067
# Velocity P-wave (km/s) = 5.87989 6.24099 6.06313
#
# Compressibility (1/GPa) = 0.02654874
#
# Stress axis : x y z
#
# Youngs Moduli (GPa) = 54.81977 172.42788 157.18057
#
# Poissons Ratio (x) = 0.21969 0.00872
# Poissons Ratio (y) = 0.06984 0.09395
# Poissons Ratio (z) = 0.00304 0.10306
#
# Static dielectric constant tensor:
#      x y z
#    x 1.685390 0.000000 0.000000 
#    y 0.000000 1.890600 0.000000 
#    z 0.000000 0.000000 1.886070 
# 
# From -- ./inp_files/37514.got.cif
#   From: 2010.05.17/outbox.cif.g08.bks.cpg/sg24_19_cif.got.tgz:37514.got - 2010.06.04 00:33:39.
