data_PCOD9333644
_publ_section_title
;
Structure prediction by ZEFSAII (Michael W. Deem and Ramdas Pophale) SiO2 
 PCOD9333644
Probable space group: I 21 21 21
;
_chemical_formula_sum "Si O2"
_cell_formula_units_Z 64
_cell_length_a 8.417455
_cell_length_b 25.247459
_cell_length_c 15.422852
_cell_angle_alpha 90.000000
_cell_angle_beta 90.000000
_cell_angle_gamma 90.000000
_cell_volume 3277.654482
_symmetry_space_group_name_H-M "I 21 21 21"
_symmetry_group_IT_number 24
_symmetry_cell_setting 'orthorhombic'
loop_
_space_group_symop_operation_xyz
x,y,z
-x,1/2-y,z
x,-y,1/2-z
1/2-x,y,-z
1/2+x,1/2+y,1/2+z
1/2-x,-y,1/2+z
1/2+x,1/2-y,-z
-x,1/2+y,1/2-z
loop_
_atom_site_type_symbol
_atom_site_label
_atom_site_fract_x
_atom_site_fract_y
_atom_site_fract_z
Si Si1 0.809367 0.384653 0.905555
Si Si2 0.302251 0.499997 0.400005
Si Si3 0.691547 0.884042 0.099049
Si Si4 0.308453 0.615952 0.400951
Si Si5 0.687398 0.312802 0.750003
Si Si6 0.309368 0.115353 0.405555
Si Si7 0.173812 0.999998 0.854150
Si Si8 0.307065 0.691309 0.749997
O O1 0.745895 0.345090 0.833267
O O2 0.751985 0.444991 0.886440
O O3 0.000359 0.384751 0.901829
O O4 0.750000 0.368963 0.000000
O O5 0.250000 0.499997 0.500000
O O6 0.249983 0.442169 0.367063
O O7 0.249983 0.557825 0.367063
O O8 0.492433 0.499997 0.388364
O O9 0.500359 0.884744 0.098172
O O10 0.747775 0.839321 0.164783
O O11 0.750000 0.876783 0.000000
O O12 0.250000 0.623210 0.500000
O O13 0.252227 0.660674 0.335218
O O14 0.745894 0.345084 0.666732
O O15 0.497338 0.310645 0.750004
O O16 0.746669 0.252330 0.750008
O O17 0.250000 0.131040 0.500000
O O18 0.251986 0.055014 0.386436
O O19 0.169888 0.000000 0.750000
#
# Coordination Sequence:
#
# PCOD9333644 Si02
#       8
#     8   8   8   8   8   8   8   8
#     4  11  22  39  65  91 125 160 198 249 301 365
#     4   8  18  33  57  90 125 156 194 238 290 359
#     4  10  21  39  62  92 122 159 201 243 303 360
#     4  10  21  39  62  92 122 159 201 243 303 360
#     4  11  25  44  59  88 118 157 212 253 308 353
#     4  11  22  39  65  91 125 160 198 249 301 365
#     4  10  19  35  61  93 127 160 198 244 302 365
#     4  11  25  42  63  82 120 161 204 263 298 361
#
# _framework density 19.526159
#
# number of rings (size 3 to 8) (size 9 to 14) (size 15 to 20)
#    0.000    1.750    1.250    2.625    5.250    3.000 
#    0.000    5.000    0.000    0.000    0.000    0.000 
#    0.000    0.000    0.000    0.000    0.000    0.000 
#
# Total GULP energy -178671.314279 kJ/mol
# GULP energy per Si atom -5583.478571 kJ/mol
# Density = 1.948172 g / cm^3
# Si number density = 19.526159 Si / 1000 Ang^3
#
#
#
# Elastic Constant Matrix: (Units=GPa)
#
#
# Indices 1 2 3 4 5 6 
#
# 1 46.0155 35.4876 34.8163 0.0001 0.0000 0.0000
# 2 35.4876 205.9962 99.8953 0.0003 0.0000 0.0000
# 3 34.8163 99.8953 159.2022 0.0012 0.0000 0.0000
# 4 0.0001 0.0003 0.0012 -124.9064 0.0000 0.0001
# 5 0.0000 0.0000 0.0000 0.0000 29.6575 0.0000
# 6 0.0000 0.0000 0.0000 0.0001 0.0000 23.2485
#
#
#
# Elastic Compliance Matrix: (Units=1/GPa)
#
#
# Indices 1 2 3 4 5 6 
#
# 1 0.026952 -0.002565 -0.004284 0.000000 0.000000 0.000000
# 2 -0.002565 0.007222 -0.003970 0.000000 0.000000 0.000000
# 3 -0.004284 -0.003970 0.009710 0.000000 0.000000 0.000000
# 4 0.000000 0.000000 0.000000 -0.008006 0.000000 0.000000
# 5 0.000000 0.000000 0.000000 0.000000 0.033718 0.000000
# 6 0.000000 0.000000 0.000000 0.000000 0.000000 0.043013
#
#
# Mechanical properties :
#
#
# Convention : Reuss Voigt Hill
#
# Bulk Modulus (GPa) = 44.95839 83.51249 64.23544
# Shear Modulus (GPa) = 35.29471 1.66756 18.48113
#
# Velocity S-wave (km/s) = 4.25615 0.92513 3.07983
# Velocity P-wave (km/s) = 6.87225 6.63352 6.75394
#
# Compressibility (1/GPa) = 0.02224279
#
# Stress axis : x y z
#
# Youngs Moduli (GPa) = 37.10299 138.46871 102.99000
#
# Poissons Ratio (x) = 0.35523 0.44126
# Poissons Ratio (y) = 0.09518 0.40892
# Poissons Ratio (z) = 0.15897 0.54979
#
# Static dielectric constant tensor:
#      x y z
#    x 1.666050 0.000000 0.000000 
#    y 0.000000 1.714550 0.000000 
#    z 0.000000 0.000000 1.638530 
# 
# From -- ./inp_files/25203.got.cif
#   From: 2010.05.17/outbox.cif.g08.bks.cpg/sg24_13_cif.got.tgz:25203.got - 2010.06.04 00:33:39.
