data_PCOD9333319
_publ_section_title
;
Structure prediction by ZEFSAII (Michael W. Deem and Ramdas Pophale) SiO2 
 PCOD9333319
Probable space group: I 21 21 21
;
_chemical_formula_sum "Si O2"
_cell_formula_units_Z 48
_cell_length_a 5.391677
_cell_length_b 30.568990
_cell_length_c 14.499664
_cell_angle_alpha 90.000000
_cell_angle_beta 90.000000
_cell_angle_gamma 90.000000
_cell_volume 2389.807365
_symmetry_space_group_name_H-M "I 21 21 21"
_symmetry_group_IT_number 24
_symmetry_cell_setting 'orthorhombic'
loop_
_space_group_symop_operation_xyz
x,y,z
-x,1/2-y,z
x,-y,1/2-z
1/2-x,y,-z
1/2+x,1/2+y,1/2+z
1/2-x,-y,1/2+z
1/2+x,1/2-y,-z
-x,1/2+y,1/2-z
loop_
_atom_site_type_symbol
_atom_site_label
_atom_site_fract_x
_atom_site_fract_y
_atom_site_fract_z
Si Si1 0.750000 0.175888 0.500000
Si Si2 0.183714 0.948425 0.261041
Si Si3 0.750000 0.152719 0.000000
Si Si4 0.750000 0.290609 0.000000
Si Si5 0.650586 0.386897 0.594304
Si Si6 0.066545 0.673856 0.813400
Si Si7 0.500000 0.750000 0.334518
Si Si8 0.796524 0.097636 0.815097
O O1 0.557329 0.143747 0.549710
O O2 0.650748 0.198799 0.407661
O O3 0.114464 0.926439 0.163389
O O4 0.443098 0.927317 0.296443
O O5 0.941600 0.934013 0.318723
O O6 0.210270 0.000000 0.250000
O O7 0.498369 0.180776 0.989161
O O8 0.700893 0.123702 0.089791
O O9 0.714913 0.262315 0.092829
O O10 0.750000 0.407801 0.500000
O O11 0.829222 0.353113 0.649444
O O12 0.032822 0.708620 0.732245
O O13 0.228855 0.634847 0.765940
#
# Coordination Sequence:
#
# PCOD9333319 Si02
#       8
#     4   8   4   4   8   8   4   8
#     4  10  18  42  67  92 125 182 233 268 351 422
#     4  11  23  43  69 101 138 174 224 289 354 418
#     4  12  25  48  73  98 140 194 240 278 357 430
#     4  12  27  46  68 102 139 190 243 298 348 430
#     4   9  20  39  65  91 127 175 224 267 346 415
#     4  10  22  41  66  96 133 181 225 291 344 419
#     4  12  26  46  66 106 140 180 248 298 356 408
#     4  11  23  44  69  97 136 183 226 282 347 421
#
# _framework density 20.085298999999999
#
# number of rings (size 3 to 8) (size 9 to 14) (size 15 to 20)
#    0.000    1.333    3.333    2.000    2.333    0.000 
#   10.500    0.000    0.000    0.000    0.000    0.000 
#    0.000    0.000    0.000    0.000    0.000    0.000 
#
# Total GULP energy -133660.524728 kJ/mol
# GULP energy per Si atom -5569.188530 kJ/mol
# Density = 2.003958 g / cm^3
# Si number density = 20.085299 Si / 1000 Ang^3
#
#
#
# Elastic Constant Matrix: (Units=GPa)
#
#
# Indices 1 2 3 4 5 6 
#
# 1 98.3476 50.2106 46.1991 0.0000 0.0000 0.0000
# 2 50.2106 117.2031 69.4938 0.0000 0.0000 0.0000
# 3 46.1991 69.4938 173.9674 -0.0001 0.0000 0.0000
# 4 0.0000 0.0000 -0.0001 22.1894 0.0000 0.0000
# 5 0.0000 0.0000 0.0000 0.0000 23.0456 0.0000
# 6 0.0000 0.0000 0.0000 0.0000 0.0000 22.9544
#
#
#
# Elastic Compliance Matrix: (Units=1/GPa)
#
#
# Indices 1 2 3 4 5 6 
#
# 1 0.013368 -0.004746 -0.001654 0.000000 0.000000 0.000000
# 2 -0.004746 0.012865 -0.003879 0.000000 0.000000 0.000000
# 3 -0.001654 -0.003879 0.007737 0.000000 0.000000 0.000000
# 4 0.000000 0.000000 0.000000 0.045067 0.000000 0.000000
# 5 0.000000 0.000000 0.000000 0.000000 0.043392 0.000000
# 6 0.000000 0.000000 0.000000 0.000000 0.000000 0.043565
#
#
# Mechanical properties :
#
#
# Convention : Reuss Voigt Hill
#
# Bulk Modulus (GPa) = 74.55945 80.14723 77.35334
# Shear Modulus (GPa) = 26.17485 28.54553 27.36019
#
# Velocity S-wave (km/s) = 3.61388 3.77399 3.69480
# Velocity P-wave (km/s) = 7.39023 7.67989 7.53645
#
# Compressibility (1/GPa) = 0.01341212
#
# Stress axis : x y z
#
# Youngs Moduli (GPa) = 74.80442 77.72769 129.24999
#
# Poissons Ratio (x) = 0.36891 0.21380
# Poissons Ratio (y) = 0.35504 0.50134
# Poissons Ratio (z) = 0.12374 0.30150
#
# Static dielectric constant tensor:
#      x y z
#    x 1.867650 0.000000 0.000000 
#    y 0.000000 1.701390 0.000000 
#    z 0.000000 0.000000 1.787330 
# 
# From -- ./inp_files/23993.got.cif
#   From: 2010.05.17/outbox.cif.g08.bks.cpg/sg24_12_cif.got.tgz:23993.got - 2010.06.04 00:33:39.
