data_PCOD9333797
_publ_section_title
;
Structure prediction by ZEFSAII (Michael W. Deem and Ramdas Pophale) SiO2 
 PCOD9333797
Probable space group: I 21 21 21
;
_chemical_formula_sum "Si O2"
_cell_formula_units_Z 48
_cell_length_a 8.748805
_cell_length_b 13.603912
_cell_length_c 18.762908
_cell_angle_alpha 90.000000
_cell_angle_beta 90.000000
_cell_angle_gamma 90.000000
_cell_volume 2233.123284
_symmetry_space_group_name_H-M "I 21 21 21"
_symmetry_group_IT_number 24
_symmetry_cell_setting 'orthorhombic'
loop_
_space_group_symop_operation_xyz
x,y,z
-x,1/2-y,z
x,-y,1/2-z
1/2-x,y,-z
1/2+x,1/2+y,1/2+z
1/2-x,-y,1/2+z
1/2+x,1/2-y,-z
-x,1/2+y,1/2-z
loop_
_atom_site_type_symbol
_atom_site_label
_atom_site_fract_x
_atom_site_fract_y
_atom_site_fract_z
Si Si1 0.908646 0.985995 0.539970
Si Si2 0.262578 0.422932 0.184882
Si Si3 0.165664 0.792564 0.312167
Si Si4 0.865201 0.328905 0.347426
Si Si5 0.614768 0.670463 0.054763
Si Si6 0.056833 0.045701 0.104881
O O1 0.750000 0.017859 0.500000
O O2 0.014730 0.074879 0.564526
O O3 0.863172 0.933845 0.613297
O O4 0.000524 0.933397 0.475628
O O5 0.296858 0.500000 0.250000
O O6 0.264242 0.305817 0.201413
O O7 0.090564 0.446828 0.157208
O O8 0.146203 0.844953 0.236549
O O9 0.188496 0.878514 0.369949
O O10 0.000000 0.750000 0.334502
O O11 0.702234 0.291094 0.375607
O O12 0.894995 0.432633 0.385644
O O13 0.000000 0.250000 0.358916
O O14 0.500000 0.750000 0.024684
O O15 0.750000 0.655150 0.000000
#
# Coordination Sequence:
#
# PCOD9333797 Si02
#       6
#     8   8   8   8   8   8
#     4  10  23  40  68  93 133 179 227 282 336 404
#     4  10  20  37  67 102 134 174 222 285 347 406
#     4   9  19  36  66 100 128 173 226 279 333 402
#     4  11  22  37  66 100 130 172 223 287 344 404
#     4  12  25  39  61  94 134 175 217 277 354 426
#     4  10  19  38  65  97 134 173 234 278 331 410
#
# _framework density 21.494558999999999
#
# number of rings (size 3 to 8) (size 9 to 14) (size 15 to 20)
#    0.000    1.667    1.667    4.500    7.000    0.000 
#    0.000    1.667   29.333    0.000    0.000    0.000 
#    0.000    0.000    0.000    0.000    0.000    0.000 
#
# Total GULP energy -133743.309100 kJ/mol
# GULP energy per Si atom -5572.637879 kJ/mol
# Density = 2.144564 g / cm^3
# Si number density = 21.494559 Si / 1000 Ang^3
#
#
#
# Elastic Constant Matrix: (Units=GPa)
#
#
# Indices 1 2 3 4 5 6 
#
# 1 48.3634 32.8484 31.5831 0.0000 0.0000 0.0000
# 2 32.8484 94.9278 64.7424 0.0000 0.0000 0.0000
# 3 31.5831 64.7424 137.8035 0.0000 0.0000 0.0000
# 4 0.0000 0.0000 0.0000 12.7096 0.0000 0.0000
# 5 0.0000 0.0000 0.0000 0.0000 25.1660 0.0000
# 6 0.0000 0.0000 0.0000 0.0000 0.0000 13.5066
#
#
#
# Elastic Compliance Matrix: (Units=1/GPa)
#
#
# Indices 1 2 3 4 5 6 
#
# 1 0.027703 -0.007734 -0.002716 0.000000 0.000000 0.000000
# 2 -0.007734 0.017661 -0.006525 0.000000 0.000000 0.000000
# 3 -0.002716 -0.006525 0.010944 0.000000 0.000000 0.000000
# 4 0.000000 0.000000 0.000000 0.078680 0.000000 0.000000
# 5 0.000000 0.000000 0.000000 0.000000 0.039736 0.000000
# 6 0.000000 0.000000 0.000000 0.000000 0.000000 0.074038
#
#
# Mechanical properties :
#
#
# Convention : Reuss Voigt Hill
#
# Bulk Modulus (GPa) = 44.72400 59.93806 52.33103
# Shear Modulus (GPa) = 17.23160 20.40451 18.81806
#
# Velocity S-wave (km/s) = 2.83445 3.08439 2.96206
# Velocity P-wave (km/s) = 5.61823 6.37420 6.00811
#
# Compressibility (1/GPa) = 0.02235936
#
# Stress axis : x y z
#
# Youngs Moduli (GPa) = 36.09682 56.62335 91.37027
#
# Poissons Ratio (x) = 0.43794 0.24813
# Poissons Ratio (y) = 0.27918 0.59616
# Poissons Ratio (z) = 0.09803 0.36945
#
# Static dielectric constant tensor:
#      x y z
#    x 1.798460 0.000000 0.000000 
#    y 0.000000 1.831800 0.000000 
#    z 0.000000 0.000000 1.854560 
# 
# From -- ./inp_files/29495.got.cif
#   From: 2010.05.17/outbox.cif.g08.bks.cpg/sg24_15_cif.got.tgz:29495.got - 2010.06.04 00:33:39.
