data_PCOD9333600
_publ_section_title
;
Structure prediction by ZEFSAII (Michael W. Deem and Ramdas Pophale) SiO2 
 PCOD9333600
Probable space group: I 21 21 21
;
_chemical_formula_sum "Si O2"
_cell_formula_units_Z 64
_cell_length_a 23.619470
_cell_length_b 9.081347
_cell_length_c 13.114731
_cell_angle_alpha 90.000000
_cell_angle_beta 90.000000
_cell_angle_gamma 90.000000
_cell_volume 2813.065249
_symmetry_space_group_name_H-M "I 21 21 21"
_symmetry_group_IT_number 24
_symmetry_cell_setting 'orthorhombic'
loop_
_space_group_symop_operation_xyz
x,y,z
-x,1/2-y,z
x,-y,1/2-z
1/2-x,y,-z
1/2+x,1/2+y,1/2+z
1/2-x,-y,1/2+z
1/2+x,1/2-y,-z
-x,1/2+y,1/2-z
loop_
_atom_site_type_symbol
_atom_site_label
_atom_site_fract_x
_atom_site_fract_y
_atom_site_fract_z
Si Si1 0.212203 0.830804 0.093469
Si Si2 0.106376 0.142643 0.519653
Si Si3 0.320979 0.159298 0.283331
Si Si4 0.537311 0.873231 0.890121
Si Si5 0.883608 0.117585 0.073843
Si Si6 0.775217 0.001045 0.369947
Si Si7 0.647215 0.923694 0.352301
Si Si8 0.457487 0.873138 0.522821
O O1 0.253945 0.844745 0.189520
O O2 0.205019 0.655177 0.083917
O O3 0.250000 0.890338 0.000000
O O4 0.149387 0.890110 0.075064
O O5 0.143868 0.199344 0.614363
O O6 0.062724 0.267014 0.479986
O O7 0.077707 0.986210 0.547004
O O8 0.334675 0.265954 0.190932
O O9 0.338857 0.000000 0.250000
O O10 0.500000 0.750000 0.828635
O O11 0.591129 0.978043 0.863948
O O12 0.494428 0.006354 0.916470
O O13 0.890298 0.082152 0.952755
O O14 0.915868 0.270604 0.090030
O O15 0.816342 0.125848 0.089856
O O16 0.707914 0.993056 0.382372
O O17 0.783758 0.000000 0.250000
O O18 0.623289 0.000000 0.250000
O O19 0.500000 0.750000 0.476835
#
# Coordination Sequence:
#
# PCOD9333600 Si02
#       8
#     8   8   8   8   8   8   8   8
#     4  10  19  35  57  84 116 156 194 221 271 353
#     4  10  19  36  62  83 108 161 198 221 286 356
#     4  11  22  35  53  85 129 153 184 236 275 336
#     4   9  18  34  60  82 103 144 197 239 283 339
#     4  11  20  35  60  82 114 149 185 240 291 339
#     4  11  21  35  57  88 117 148 193 232 279 344
#     4  11  21  34  55  85 118 155 190 224 275 343
#     4   9  20  36  57  89 110 140 197 251 296 331
#
# _framework density 22.750983999999999
#
# number of rings (size 3 to 8) (size 9 to 14) (size 15 to 20)
#    0.000    1.750    3.750    2.625    0.000    1.000 
#    0.000    2.500    0.000   54.750    0.000    0.000 
#    0.000    0.000    0.000    0.000    0.000    0.000 
#
# Total GULP energy -178155.498524 kJ/mol
# GULP energy per Si atom -5567.359329 kJ/mol
# Density = 2.269920 g / cm^3
# Si number density = 22.750984 Si / 1000 Ang^3
#
#
#
# Elastic Constant Matrix: (Units=GPa)
#
#
# Indices 1 2 3 4 5 6 
#
# 1 42.7097 24.6508 7.8445 0.0000 0.0000 0.0000
# 2 24.6508 128.3997 20.9064 0.0000 0.0000 0.0000
# 3 7.8445 20.9064 55.0728 0.0000 0.0000 0.0000
# 4 0.0000 0.0000 0.0000 14.3153 0.0000 0.0000
# 5 0.0000 0.0000 0.0000 0.0000 0.2761 0.0000
# 6 0.0000 0.0000 0.0000 0.0000 0.0000 36.6194
#
#
#
# Elastic Compliance Matrix: (Units=1/GPa)
#
#
# Indices 1 2 3 4 5 6 
#
# 1 0.026530 -0.004773 -0.001967 0.000000 0.000000 0.000000
# 2 -0.004773 0.009160 -0.002797 0.000000 0.000000 0.000000
# 3 -0.001967 -0.002797 0.019500 0.000000 0.000000 0.000000
# 4 0.000000 0.000000 0.000000 0.069856 0.000000 0.000000
# 5 0.000000 0.000000 0.000000 0.000000 3.621705 0.000000
# 6 0.000000 0.000000 0.000000 0.000000 0.000000 0.027308
#
#
# Mechanical properties :
#
#
# Convention : Reuss Voigt Hill
#
# Bulk Modulus (GPa) = 27.68929 36.99840 32.34385
# Shear Modulus (GPa) = 1.31400 21.76086 11.53743
#
# Velocity S-wave (km/s) = 0.76080 3.09606 2.25437
# Velocity P-wave (km/s) = 3.60122 5.39244 4.58515
#
# Compressibility (1/GPa) = 0.03611504
#
# Stress axis : x y z
#
# Youngs Moduli (GPa) = 37.69310 109.17004 51.28239
#
# Poissons Ratio (x) = 0.52108 0.10087
# Poissons Ratio (y) = 0.17991 0.14346
# Poissons Ratio (z) = 0.07414 0.30539
#
# Static dielectric constant tensor:
#      x y z
#    x 1.950430 0.000000 0.000000 
#    y 0.000000 1.859870 0.000000 
#    z 0.000000 0.000000 1.869530 
# 
# From -- ./inp_files/27863.got.cif
#   From: 2010.05.17/outbox.cif.g08.bks.cpg/sg24_14_cif.got.tgz:27863.got - 2010.06.04 00:33:39.
