data_PCOD9333778
_publ_section_title
;
Structure prediction by ZEFSAII (Michael W. Deem and Ramdas Pophale) SiO2 
 PCOD9333778
Probable space group: I 21 21 21
;
_chemical_formula_sum "Si O2"
_cell_formula_units_Z 48
_cell_length_a 14.261596
_cell_length_b 7.816531
_cell_length_c 20.050976
_cell_angle_alpha 90.000000
_cell_angle_beta 90.000000
_cell_angle_gamma 90.000000
_cell_volume 2235.206756
_symmetry_space_group_name_H-M "I 21 21 21"
_symmetry_group_IT_number 24
_symmetry_cell_setting 'orthorhombic'
loop_
_space_group_symop_operation_xyz
x,y,z
-x,1/2-y,z
x,-y,1/2-z
1/2-x,y,-z
1/2+x,1/2+y,1/2+z
1/2-x,-y,1/2+z
1/2+x,1/2-y,-z
-x,1/2+y,1/2-z
loop_
_atom_site_type_symbol
_atom_site_label
_atom_site_fract_x
_atom_site_fract_y
_atom_site_fract_z
Si Si1 0.400897 0.658590 0.616619
Si Si2 0.350457 0.500000 0.750000
Si Si3 0.200738 0.027062 0.071964
Si Si4 0.504723 0.950100 0.981808
Si Si5 0.041033 0.555576 0.873254
Si Si6 0.922537 0.500000 0.750000
Si Si7 0.211443 0.253932 0.673075
O O1 0.500000 0.750000 0.602633
O O2 0.406702 0.585394 0.690333
O O3 0.406786 0.507466 0.562482
O O4 0.314138 0.787725 0.606964
O O5 0.289993 0.351641 0.714798
O O6 0.249543 0.886566 0.120019
O O7 0.093976 0.980693 0.054154
O O8 0.250000 0.039708 0.000000
O O9 0.500000 0.750000 0.992150
O O10 0.515570 0.026573 0.055901
O O11 0.150333 0.596509 0.862325
O O12 0.000000 0.750000 0.871344
O O13 0.990635 0.461020 0.812270
O O14 0.855587 0.347841 0.724651
#
# Coordination Sequence:
#
# PCOD9333778 Si02
#       7
#     8   4   8   8   8   4   8
#     4  10  25  42  60  89 121 164 215 260 326 397
#     4  12  25  40  61  92 124 160 216 274 325 390
#     4  11  22  40  64  91 126 166 212 270 327 381
#     4  10  20  40  65  89 121 165 212 262 322 393
#     4   9  19  36  60  89 121 162 206 246 309 392
#     4  10  19  38  61  88 128 168 200 246 319 392
#     4  11  23  38  61  93 125 163 210 263 322 379
#
# _framework density 21.474522
#
# number of rings (size 3 to 8) (size 9 to 14) (size 15 to 20)
#    0.000    1.667    0.000    5.500    0.000    4.667 
#    0.000   16.667    0.000    0.000    0.000    0.000 
#    0.000    0.000    0.000    0.000    0.000    0.000 
#
# Total GULP energy -133845.040873 kJ/mol
# GULP energy per Si atom -5576.876703 kJ/mol
# Density = 2.142565 g / cm^3
# Si number density = 21.474522 Si / 1000 Ang^3
#
#
#
# Elastic Constant Matrix: (Units=GPa)
#
#
# Indices 1 2 3 4 5 6 
#
# 1 38.6824 10.3963 0.5250 0.0000 0.0000 0.0000
# 2 10.3963 65.4189 20.9835 0.0000 0.0000 0.0000
# 3 0.5250 20.9835 101.7558 0.0000 0.0000 0.0000
# 4 0.0000 0.0000 0.0000 31.1657 0.0000 0.0000
# 5 0.0000 0.0000 0.0000 0.0000 30.9820 0.0000
# 6 0.0000 0.0000 0.0000 0.0000 0.0000 -11.9672
#
#
#
# Elastic Compliance Matrix: (Units=1/GPa)
#
#
# Indices 1 2 3 4 5 6 
#
# 1 0.027066 -0.004558 0.000800 0.000000 0.000000 0.000000
# 2 -0.004558 0.017136 -0.003510 0.000000 0.000000 0.000000
# 3 0.000800 -0.003510 0.010547 0.000000 0.000000 0.000000
# 4 0.000000 0.000000 0.000000 0.032087 0.000000 0.000000
# 5 0.000000 0.000000 0.000000 0.000000 0.032277 0.000000
# 6 0.000000 0.000000 0.000000 0.000000 0.000000 -0.083562
#
#
# Mechanical properties :
#
#
# Convention : Reuss Voigt Hill
#
# Bulk Modulus (GPa) = 24.86732 29.96296 27.41514
# Shear Modulus (GPa) = 78.75095 21.63292 50.19193
#
# Velocity S-wave (km/s) = 6.06229 3.17736 4.83979
# Velocity P-wave (km/s) = 7.78505 5.23869 6.63517
#
# Compressibility (1/GPa) = 0.04021342
#
# Stress axis : x y z
#
# Youngs Moduli (GPa) = 36.94711 58.35535 94.81199
#
# Poissons Ratio (x) = 0.26598 -0.07588
# Poissons Ratio (y) = 0.16840 0.33281
# Poissons Ratio (z) = -0.02957 0.20484
#
# Static dielectric constant tensor:
#      x y z
#    x 1.806010 0.000000 0.000000 
#    y 0.000000 1.906200 0.000000 
#    z 0.000000 0.000000 1.804850 
# 
# From -- ./inp_files/29535.got.cif
#   From: 2010.05.17/outbox.cif.g08.bks.cpg/sg24_15_cif.got.tgz:29535.got - 2010.06.04 00:33:39.
