data_PCOD9333246
_publ_section_title
;
Structure prediction by ZEFSAII (Michael W. Deem and Ramdas Pophale) SiO2 
 PCOD9333246
Probable space group: I 21 21 21
;
_chemical_formula_sum "Si O2"
_cell_formula_units_Z 64
_cell_length_a 11.278272
_cell_length_b 9.786727
_cell_length_c 28.291900
_cell_angle_alpha 90.000000
_cell_angle_beta 90.000000
_cell_angle_gamma 90.000000
_cell_volume 3122.785489
_symmetry_space_group_name_H-M "I 21 21 21"
_symmetry_group_IT_number 24
_symmetry_cell_setting 'orthorhombic'
loop_
_space_group_symop_operation_xyz
x,y,z
-x,1/2-y,z
x,-y,1/2-z
1/2-x,y,-z
1/2+x,1/2+y,1/2+z
1/2-x,-y,1/2+z
1/2+x,1/2-y,-z
-x,1/2+y,1/2-z
loop_
_atom_site_type_symbol
_atom_site_label
_atom_site_fract_x
_atom_site_fract_y
_atom_site_fract_z
Si Si1 0.264008 0.288580 0.806724
Si Si2 0.947623 0.996625 0.698071
Si Si3 0.716769 0.579118 0.051103
Si Si4 0.585373 0.007076 0.637318
Si Si5 0.734224 0.213553 0.698440
Si Si6 0.804745 0.499811 0.349090
Si Si7 0.764544 0.902851 0.054699
Si Si8 0.485272 0.590648 0.101768
O O1 0.137241 0.364700 0.805500
O O2 0.349059 0.374514 0.841288
O O3 0.307538 0.291706 0.752551
O O4 0.260037 0.134575 0.823467
O O5 0.006697 0.000000 0.750000
O O6 0.856661 0.126874 0.696782
O O7 0.016951 0.008376 0.649102
O O8 0.767315 0.503231 0.096314
O O9 0.762978 0.736576 0.054658
O O10 0.575806 0.573179 0.058796
O O11 0.750000 0.525178 0.000000
O O12 0.642811 0.133143 0.665619
O O13 0.623914 0.035379 0.582973
O O14 0.447581 0.001206 0.648789
O O15 0.741606 0.364912 0.677820
O O16 0.647393 0.941397 0.084896
O O17 0.750000 0.944839 0.000000
O O18 0.500000 0.750000 0.113913
#
# Coordination Sequence:
#
# PCOD9333246 Si02
#       8
#     8   8   8   8   8   8   8   8
#     4  10  22  37  58  85 126 164 200 242 305 365
#     4   9  18  38  64  86 121 164 209 252 301 364
#     4  10  23  39  58  87 122 153 192 251 317 353
#     4  11  21  37  60  87 122 156 202 250 299 364
#     4  10  19  36  59  89 118 161 203 252 294 353
#     4  12  23  36  56  89 127 157 198 251 297 366
#     4  10  20  36  63  93 113 150 206 252 303 361
#     4  10  18  37  64  87 119 151 197 256 302 359
#
# _framework density 20.494523999999998
#
# number of rings (size 3 to 8) (size 9 to 14) (size 15 to 20)
#    0.000    1.750    3.750    3.000    1.750    3.000 
#    0.000    5.000    0.000    0.000    0.000    0.000 
#    0.000    0.000    0.000    0.000    0.000    0.000 
#
# Total GULP energy -178793.443285 kJ/mol
# GULP energy per Si atom -5587.295103 kJ/mol
# Density = 2.044788 g / cm^3
# Si number density = 20.494524 Si / 1000 Ang^3
#
#
#
# Elastic Constant Matrix: (Units=GPa)
#
#
# Indices 1 2 3 4 5 6 
#
# 1 38.3120 10.8126 8.9973 0.0000 0.0000 0.0000
# 2 10.8126 100.8774 30.2411 0.0000 0.0000 0.0000
# 3 8.9973 30.2411 149.1016 0.0000 0.0000 0.0000
# 4 0.0000 0.0000 0.0000 12.1877 0.0000 0.0000
# 5 0.0000 0.0000 0.0000 0.0000 21.2450 0.0000
# 6 0.0000 0.0000 0.0000 0.0000 0.0000 -3.8361
#
#
#
# Elastic Compliance Matrix: (Units=1/GPa)
#
#
# Indices 1 2 3 4 5 6 
#
# 1 0.027088 -0.002570 -0.001113 0.000000 0.000000 0.000000
# 2 -0.002570 0.010799 -0.002035 0.000000 0.000000 0.000000
# 3 -0.001113 -0.002035 0.007187 0.000000 0.000000 0.000000
# 4 0.000000 0.000000 0.000000 0.082050 0.000000 0.000000
# 5 0.000000 0.000000 0.000000 0.000000 0.047070 0.000000
# 6 0.000000 0.000000 0.000000 0.000000 0.000000 -0.260679
#
#
# Mechanical properties :
#
#
# Convention : Reuss Voigt Hill
#
# Bulk Modulus (GPa) = 29.72910 43.15479 36.44194
# Shear Modulus (GPa) = -78.32453 21.80197 -28.26128
#
# Velocity S-wave (km/s) = -6.18872 3.26513 -3.71747
# Velocity P-wave (km/s) = 6.04398 5.94283 0.77861
#
# Compressibility (1/GPa) = 0.03363708
#
# Stress axis : x y z
#
# Youngs Moduli (GPa) = 36.91649 92.60500 139.14420
#
# Poissons Ratio (x) = 0.23797 0.15492
# Poissons Ratio (y) = 0.09486 0.28318
# Poissons Ratio (z) = 0.04110 0.18846
#
# Static dielectric constant tensor:
#      x y z
#    x 1.756960 0.000000 0.000000 
#    y 0.000000 1.719800 0.000000 
#    z 0.000000 0.000000 1.728780 
# 
# From -- ./inp_files/38639.got.cif
#   From: 2010.05.17/outbox.cif.g08.bks.cpg/sg24_20_cif.got.tgz:38639.got - 2010.06.04 00:33:39.
