data_PCOD9333500
_publ_section_title
;
Structure prediction by ZEFSAII (Michael W. Deem and Ramdas Pophale) SiO2 
 PCOD9333500
Probable space group: I 21 21 21
;
_chemical_formula_sum "Si O2"
_cell_formula_units_Z 56
_cell_length_a 14.309568
_cell_length_b 5.693428
_cell_length_c 29.379242
_cell_angle_alpha 90.000000
_cell_angle_beta 90.000000
_cell_angle_gamma 90.000000
_cell_volume 2393.541392
_symmetry_space_group_name_H-M "I 21 21 21"
_symmetry_group_IT_number 24
_symmetry_cell_setting 'orthorhombic'
loop_
_space_group_symop_operation_xyz
x,y,z
-x,1/2-y,z
x,-y,1/2-z
1/2-x,y,-z
1/2+x,1/2+y,1/2+z
1/2-x,-y,1/2+z
1/2+x,1/2-y,-z
-x,1/2+y,1/2-z
loop_
_atom_site_type_symbol
_atom_site_label
_atom_site_fract_x
_atom_site_fract_y
_atom_site_fract_z
Si Si1 0.182813 0.164312 0.119157
Si Si2 0.000000 0.750000 0.619199
Si Si3 0.725664 0.000000 0.750000
Si Si4 0.907526 0.624554 0.202114
Si Si5 0.822684 0.964983 0.664365
Si Si6 0.359907 0.123077 0.982267
Si Si7 0.866051 0.640993 0.892227
Si Si8 0.858081 0.882807 0.983803
O O1 0.230007 0.409586 0.134211
O O2 0.128610 0.169191 0.071732
O O3 0.132497 0.047071 0.162954
O O4 0.272808 0.010619 0.105270
O O5 0.088604 0.679884 0.648877
O O6 0.955657 0.518189 0.596683
O O7 0.665641 0.180558 0.719981
O O8 0.792038 0.120572 0.786397
O O9 0.934184 0.500000 0.250000
O O10 0.000000 0.750000 0.183680
O O11 0.857499 0.230528 0.656437
O O12 0.398969 0.361277 0.005075
O O13 0.395841 0.861807 0.994681
O O14 0.250000 0.114694 0.000000
O O15 0.859377 0.841178 0.930101
O O16 0.750000 0.895151 0.000000
#
# Coordination Sequence:
#
# PCOD9333500 Si02
#       8
#     8   4   4   8   8   8   8   8
#     4  11  22  38  69 103 140 187 244 303 362 465
#     4  10  26  42  60 104 140 188 244 302 366 432
#     4  12  24  42  72 100 134 184 236 310 370 464
#     4  12  25  45  69 107 145 185 240 310 392 454
#     4  11  23  42  65  98 135 183 244 295 368 436
#     4  10  19  34  59 107 136 178 241 300 355 423
#     4  11  21  40  66  98 144 190 243 297 366 439
#     4  10  19  33  61 102 135 178 240 302 351 427
#
# _framework density 23.396296
#
# number of rings (size 3 to 8) (size 9 to 14) (size 15 to 20)
#    0.000    1.143    6.429    2.143    2.000    0.000 
#    2.571    0.000    0.000    1.714    5.571    0.000 
#    0.000    0.000    0.000    0.000    0.000    0.000 
#
# Total GULP energy -156284.926521 kJ/mol
# GULP energy per Si atom -5581.604519 kJ/mol
# Density = 2.334305 g / cm^3
# Si number density = 23.396296 Si / 1000 Ang^3
#
#
#
# Elastic Constant Matrix: (Units=GPa)
#
#
# Indices 1 2 3 4 5 6 
#
# 1 82.6567 31.0563 30.0692 0.0000 0.0000 0.0000
# 2 31.0563 135.7926 29.0079 0.0000 0.0000 0.0000
# 3 30.0692 29.0079 112.3819 0.0000 0.0000 0.0000
# 4 0.0000 0.0000 0.0000 30.3035 0.0000 0.0000
# 5 0.0000 0.0000 0.0000 0.0000 0.4921 0.0000
# 6 0.0000 0.0000 0.0000 0.0000 0.0000 38.3629
#
#
#
# Elastic Compliance Matrix: (Units=1/GPa)
#
#
# Indices 1 2 3 4 5 6 
#
# 1 0.014208 -0.002580 -0.003136 0.000000 0.000000 0.000000
# 2 -0.002580 0.008262 -0.001442 0.000000 0.000000 0.000000
# 3 -0.003136 -0.001442 0.010110 0.000000 0.000000 0.000000
# 4 0.000000 0.000000 0.000000 0.032999 0.000000 0.000000
# 5 0.000000 0.000000 0.000000 0.000000 2.031961 0.000000
# 6 0.000000 0.000000 0.000000 0.000000 0.000000 0.026067
#
#
# Mechanical properties :
#
#
# Convention : Reuss Voigt Hill
#
# Bulk Modulus (GPa) = 54.75118 56.78865 55.76992
# Shear Modulus (GPa) = 2.33208 29.87823 16.10515
#
# Velocity S-wave (km/s) = 0.99947 3.57746 2.62651
# Velocity P-wave (km/s) = 4.97839 6.43347 5.75212
#
# Compressibility (1/GPa) = 0.01826444
#
# Stress axis : x y z
#
# Youngs Moduli (GPa) = 70.38191 121.03213 98.91626
#
# Poissons Ratio (x) = 0.31222 0.31018
# Poissons Ratio (y) = 0.18156 0.14268
# Poissons Ratio (z) = 0.22070 0.17458
#
# Static dielectric constant tensor:
#      x y z
#    x 1.897430 0.000000 0.000000 
#    y 0.000000 2.008080 0.000000 
#    z 0.000000 0.000000 1.902080 
# 
# From -- ./inp_files/38733.got.cif
#   From: 2010.05.17/outbox.cif.g08.bks.cpg/sg24_20_cif.got.tgz:38733.got - 2010.06.04 00:33:39.
