data_PCOD9333557
_publ_section_title
;
Structure prediction by ZEFSAII (Michael W. Deem and Ramdas Pophale) SiO2 
 PCOD9333557
Probable space group: I 21 21 21
;
_chemical_formula_sum "Si O2"
_cell_formula_units_Z 44
_cell_length_a 5.301898
_cell_length_b 25.468688
_cell_length_c 14.805226
_cell_angle_alpha 90.000000
_cell_angle_beta 90.000000
_cell_angle_gamma 90.000000
_cell_volume 1999.184992
_symmetry_space_group_name_H-M "I 21 21 21"
_symmetry_group_IT_number 24
_symmetry_cell_setting 'orthorhombic'
loop_
_space_group_symop_operation_xyz
x,y,z
-x,1/2-y,z
x,-y,1/2-z
1/2-x,y,-z
1/2+x,1/2+y,1/2+z
1/2-x,-y,1/2+z
1/2+x,1/2-y,-z
-x,1/2+y,1/2-z
loop_
_atom_site_type_symbol
_atom_site_label
_atom_site_fract_x
_atom_site_fract_y
_atom_site_fract_z
Si Si1 0.121552 0.526838 0.902123
Si Si2 0.631730 0.523080 0.656727
Si Si3 0.999914 0.362687 0.563030
Si Si4 0.002828 0.688280 0.591704
Si Si5 0.500000 0.750000 0.062849
Si Si6 0.490485 0.856784 0.611715
O O1 0.363734 0.506711 0.848856
O O2 0.872844 0.490848 0.905968
O O3 0.029653 0.585390 0.877365
O O4 0.250000 0.529526 0.000000
O O5 0.741187 0.500000 0.750000
O O6 0.557713 0.583388 0.639024
O O7 0.750000 0.369076 0.500000
O O8 0.990408 0.306214 0.611488
O O9 0.250000 0.360713 0.500000
O O10 0.247612 0.667877 0.643332
O O11 0.997639 0.655299 0.497067
O O12 0.000000 0.750000 0.569159
O O13 0.749666 0.675541 0.644558
O O14 0.250000 0.750406 0.000000
#
# Coordination Sequence:
#
# PCOD9333557 Si02
#       6
#     8   8   8   8   4   8
#     4  11  23  38  62  86 119 152 208 263 304 355
#     4  12  26  41  57  87 126 173 205 248 315 389
#     4   9  16  30  48  83 109 139 174 237 296 339
#     4  10  19  34  59  95 121 147 203 268 319 364
#     4   8  14  24  46  72 110 132 172 220 298 358
#     4  10  20  33  54  83 122 157 193 244 309 366
#
# _framework density 22.008967999999999
#
# number of rings (size 3 to 8) (size 9 to 14) (size 15 to 20)
#    0.000    1.818    0.000    7.091    7.636    0.000 
#    0.000    0.000    0.000    0.000   18.909    0.000 
#    0.000    0.000    0.000    0.000    0.000    0.000 
#
# Total GULP energy -122487.263761 kJ/mol
# GULP energy per Si atom -5567.602898 kJ/mol
# Density = 2.195887 g / cm^3
# Si number density = 22.008968 Si / 1000 Ang^3
#
#
#
# Elastic Constant Matrix: (Units=GPa)
#
#
# Indices 1 2 3 4 5 6 
#
# 1 207.2382 55.7288 2.7770 0.0000 0.0000 0.0000
# 2 55.7288 174.6525 25.7849 0.0000 0.0000 0.0000
# 3 2.7770 25.7849 27.8054 0.0000 0.0000 0.0000
# 4 0.0000 0.0000 0.0000 -16.6944 0.0000 0.0000
# 5 0.0000 0.0000 0.0000 0.0000 13.5061 0.0000
# 6 0.0000 0.0000 0.0000 0.0000 0.0000 58.0187
#
#
#
# Elastic Compliance Matrix: (Units=1/GPa)
#
#
# Indices 1 2 3 4 5 6 
#
# 1 0.005313 -0.001873 0.001207 0.000000 0.000000 0.000000
# 2 -0.001873 0.007294 -0.006577 0.000000 0.000000 0.000000
# 3 0.001207 -0.006577 0.041943 0.000000 0.000000 0.000000
# 4 0.000000 0.000000 0.000000 -0.059900 0.000000 0.000000
# 5 0.000000 0.000000 0.000000 0.000000 0.074041 0.000000
# 6 0.000000 0.000000 0.000000 0.000000 0.000000 0.017236
#
#
# Mechanical properties :
#
#
# Convention : Reuss Voigt Hill
#
# Bulk Modulus (GPa) = 24.96108 64.25307 44.60708
# Shear Modulus (GPa) = 43.94861 32.65976 38.30418
#
# Velocity S-wave (km/s) = 4.47346 3.85636 4.17632
# Velocity P-wave (km/s) = 6.16834 7.00615 6.60055
#
# Compressibility (1/GPa) = 0.04006237
#
# Stress axis : x y z
#
# Youngs Moduli (GPa) = 188.21805 137.08992 23.84186
#
# Poissons Ratio (x) = 0.25683 -0.02877
# Poissons Ratio (y) = 0.35261 0.15682
# Poissons Ratio (z) = -0.22712 0.90168
#
# Static dielectric constant tensor:
#      x y z
#    x 1.924330 0.000000 0.000000 
#    y 0.000000 1.875930 0.000000 
#    z 0.000000 0.000000 1.571900 
# 
# From -- ./inp_files/28783.got.cif
#   From: 2010.05.17/outbox.cif.g08.bks.cpg/sg24_15_cif.got.tgz:28783.got - 2010.06.04 00:33:39.
