data_PCOD9333583
_publ_section_title
;
Structure prediction by ZEFSAII (Michael W. Deem and Ramdas Pophale) SiO2 
 PCOD9333583
Probable space group: I 21 21 21
;
_chemical_formula_sum "Si O2"
_cell_formula_units_Z 52
_cell_length_a 12.093810
_cell_length_b 9.891291
_cell_length_c 25.384998
_cell_angle_alpha 90.000000
_cell_angle_beta 90.000000
_cell_angle_gamma 90.000000
_cell_volume 3036.639618
_symmetry_space_group_name_H-M "I 21 21 21"
_symmetry_group_IT_number 24
_symmetry_cell_setting 'orthorhombic'
loop_
_space_group_symop_operation_xyz
x,y,z
-x,1/2-y,z
x,-y,1/2-z
1/2-x,y,-z
1/2+x,1/2+y,1/2+z
1/2-x,-y,1/2+z
1/2+x,1/2-y,-z
-x,1/2+y,1/2-z
loop_
_atom_site_type_symbol
_atom_site_label
_atom_site_fract_x
_atom_site_fract_y
_atom_site_fract_z
Si Si1 0.000000 0.250000 0.615440
Si Si2 0.356311 0.029050 0.624074
Si Si3 0.313228 0.753385 0.787534
Si Si4 0.385689 0.550572 0.867196
Si Si5 0.262623 0.748383 0.061825
Si Si6 0.133047 0.253991 0.165669
Si Si7 0.930370 0.866559 0.784296
O O1 0.889432 0.249346 0.581216
O O2 0.010330 0.373194 0.658276
O O3 0.330507 0.111834 0.678150
O O4 0.488045 0.038945 0.613662
O O5 0.290810 0.109338 0.579531
O O6 0.325699 0.872994 0.631929
O O7 0.390215 0.638131 0.813380
O O8 0.333170 0.767907 0.726029
O O9 0.190350 0.694001 0.794889
O O10 0.308392 0.635744 0.906403
O O11 0.336616 0.403045 0.854657
O O12 0.250000 0.726873 0.000000
O O13 0.000000 0.250000 0.164289
O O14 0.000000 0.750000 0.754967
O O15 0.925693 0.000000 0.750000
#
# Coordination Sequence:
#
# PCOD9333583 Si02
#       7
#     4   8   8   8   8   8   8
#     4  10  22  40  58  82 118 136 202 236 278 350
#     4  10  20  35  53  84 115 144 187 228 279 334
#     4  11  18  30  52  80 117 151 186 219 266 334
#     4  10  19  35  55  83 114 141 191 230 275 338
#     4  11  23  39  62  82 101 146 190 250 289 328
#     4  10  20  31  53  83 117 155 175 226 280 334
#     4  10  20  34  52  78 114 155 188 230 278 343
#
# _framework density 17.124192000000001
#
# number of rings (size 3 to 8) (size 9 to 14) (size 15 to 20)
#    0.462    1.231    3.077    4.615    2.154    4.923 
#    0.000    0.769    0.000    0.000    0.000    0.000 
#    0.000    0.000    0.000    0.000    0.000    0.000 
#
# Total GULP energy -144909.069900 kJ/mol
# GULP energy per Si atom -5573.425765 kJ/mol
# Density = 1.708522 g / cm^3
# Si number density = 17.124192 Si / 1000 Ang^3
#
#
#
# Elastic Constant Matrix: (Units=GPa)
#
#
# Indices 1 2 3 4 5 6 
#
# 1 70.1249 18.6080 29.2397 0.0000 0.0000 0.0000
# 2 18.6080 104.0628 29.4933 0.0000 0.0000 0.0000
# 3 29.2397 29.4933 88.1454 0.0000 0.0000 0.0000
# 4 0.0000 0.0000 0.0000 5.1160 0.0000 0.0000
# 5 0.0000 0.0000 0.0000 0.0000 18.5543 0.0000
# 6 0.0000 0.0000 0.0000 0.0000 0.0000 9.8986
#
#
#
# Elastic Compliance Matrix: (Units=1/GPa)
#
#
# Indices 1 2 3 4 5 6 
#
# 1 0.016779 -0.001572 -0.005040 0.000000 0.000000 0.000000
# 2 -0.001572 0.010764 -0.003080 0.000000 0.000000 0.000000
# 3 -0.005040 -0.003080 0.014047 0.000000 0.000000 0.000000
# 4 0.000000 0.000000 0.000000 0.195464 0.000000 0.000000
# 5 0.000000 0.000000 0.000000 0.000000 0.053896 0.000000
# 6 0.000000 0.000000 0.000000 0.000000 0.000000 0.101025
#
#
# Mechanical properties :
#
#
# Convention : Reuss Voigt Hill
#
# Bulk Modulus (GPa) = 45.03286 46.33500 45.68393
# Shear Modulus (GPa) = 11.94001 19.04659 15.49330
#
# Velocity S-wave (km/s) = 2.64343 3.33868 3.01119
# Velocity P-wave (km/s) = 5.97259 6.47914 6.23102
#
# Compressibility (1/GPa) = 0.02220601
#
# Stress axis : x y z
#
# Youngs Moduli (GPa) = 59.59879 92.90563 71.18794
#
# Poissons Ratio (x) = 0.14604 0.35878
# Poissons Ratio (y) = 0.09368 0.21926
# Poissons Ratio (z) = 0.30037 0.28615
#
# Static dielectric constant tensor:
#      x y z
#    x 1.624820 0.000000 0.000000 
#    y 0.000000 1.601370 0.000000 
#    z 0.000000 0.000000 1.566300 
# 
# From -- ./inp_files/37169.got.cif
#   From: 2010.05.17/outbox.cif.g08.bks.cpg/sg24_19_cif.got.tgz:37169.got - 2010.06.04 00:33:39.
