data_PCOD9333656
_publ_section_title
;
Structure prediction by ZEFSAII (Michael W. Deem and Ramdas Pophale) SiO2 
 PCOD9333656
Probable space group: I 21 21 21
;
_chemical_formula_sum "Si O2"
_cell_formula_units_Z 40
_cell_length_a 22.087671
_cell_length_b 10.242992
_cell_length_c 9.369008
_cell_angle_alpha 90.000000
_cell_angle_beta 90.000000
_cell_angle_gamma 90.000000
_cell_volume 2119.680322
_symmetry_space_group_name_H-M "I 21 21 21"
_symmetry_group_IT_number 24
_symmetry_cell_setting 'orthorhombic'
loop_
_space_group_symop_operation_xyz
x,y,z
-x,1/2-y,z
x,-y,1/2-z
1/2-x,y,-z
1/2+x,1/2+y,1/2+z
1/2-x,-y,1/2+z
1/2+x,1/2-y,-z
-x,1/2+y,1/2-z
loop_
_atom_site_type_symbol
_atom_site_label
_atom_site_fract_x
_atom_site_fract_y
_atom_site_fract_z
Si Si1 0.963835 0.370600 0.350092
Si Si2 0.220355 0.131268 0.839286
Si Si3 0.341642 0.155896 0.737000
Si Si4 0.010669 0.540081 0.588196
Si Si5 0.899188 0.263783 0.964938
O O1 0.963420 0.500000 0.250000
O O2 0.893962 0.330956 0.381129
O O3 0.000000 0.250000 0.282195
O O4 0.999390 0.415276 0.489531
O O5 0.272795 0.204197 0.747048
O O6 0.159321 0.211487 0.866423
O O7 0.205138 0.000000 0.750000
O O8 0.250000 0.105240 0.000000
O O9 0.332569 0.000000 0.750000
O O10 0.375542 0.209022 0.876169
O O11 0.016748 0.500000 0.750000
O O12 0.068849 0.624499 0.544569
O O13 0.951184 0.630751 0.569926
#
# Coordination Sequence:
#
# PCOD9333656 Si02
#       5
#     8   8   8   8   8
#     4  11  21  36  59  87 118 149 192 248 295 352
#     4   9  18  32  55  82 109 144 187 243 298 343
#     4   9  16  32  57  84 105 139 187 239 291 340
#     4  11  23  35  54  82 114 155 193 232 292 357
#     4  10  19  36  56  76 116 150 182 238 298 348
#
# _framework density 18.87077
#
# number of rings (size 3 to 8) (size 9 to 14) (size 15 to 20)
#    0.000    2.000    4.000    1.800    2.800    0.000 
#    0.000    0.000    0.000    8.400    0.000    0.000 
#    0.000    0.000    0.000    0.000    0.000    0.000 
#
# Total GULP energy -111363.945119 kJ/mol
# GULP energy per Si atom -5568.197256 kJ/mol
# Density = 1.882782 g / cm^3
# Si number density = 18.870770 Si / 1000 Ang^3
#
#
#
# Elastic Constant Matrix: (Units=GPa)
#
#
# Indices 1 2 3 4 5 6 
#
# 1 157.2034 44.4843 19.1908 0.0000 0.0000 0.0000
# 2 44.4843 47.6223 18.4752 0.0000 0.0000 0.0000
# 3 19.1908 18.4752 59.0360 0.0000 0.0000 0.0000
# 4 0.0000 0.0000 0.0000 8.1002 0.0000 0.0000
# 5 0.0000 0.0000 0.0000 0.0000 27.3129 0.0000
# 6 0.0000 0.0000 0.0000 0.0000 0.0000 -9.2777
#
#
#
# Elastic Compliance Matrix: (Units=1/GPa)
#
#
# Indices 1 2 3 4 5 6 
#
# 1 0.008652 -0.007957 -0.000322 0.000000 0.000000 0.000000
# 2 -0.007957 0.031218 -0.007183 0.000000 0.000000 0.000000
# 3 -0.000322 -0.007183 0.019292 0.000000 0.000000 0.000000
# 4 0.000000 0.000000 0.000000 0.123454 0.000000 0.000000
# 5 0.000000 0.000000 0.000000 0.000000 0.036613 0.000000
# 6 0.000000 0.000000 0.000000 0.000000 0.000000 -0.107785
#
#
# Mechanical properties :
#
#
# Convention : Reuss Voigt Hill
#
# Bulk Modulus (GPa) = 35.41479 47.57358 41.49418
# Shear Modulus (GPa) = 32.94245 17.34117 25.14181
#
# Velocity S-wave (km/s) = 4.18267 3.03470 3.65405
# Velocity P-wave (km/s) = 6.49108 6.12732 6.31182
#
# Compressibility (1/GPa) = 0.02823679
#
# Stress axis : x y z
#
# Youngs Moduli (GPa) = 115.57837 32.03301 51.83618
#
# Poissons Ratio (x) = 0.25488 0.01671
# Poissons Ratio (y) = 0.91965 0.37234
# Poissons Ratio (z) = 0.03727 0.23009
#
# Static dielectric constant tensor:
#      x y z
#    x 1.726360 0.000000 0.000000 
#    y 0.000000 1.660750 0.000000 
#    z 0.000000 0.000000 1.761280 
# 
# From -- ./inp_files/10999.got.cif
#   From: 2010.05.17/outbox.cif.g08.bks.cpg/sg24_6_cif.got.tgz:10999.got - 2010.06.04 00:33:39.
