data_PCOD9333879
_publ_section_title
;
Structure prediction by ZEFSAII (Michael W. Deem and Ramdas Pophale) SiO2 
 PCOD9333879
Probable space group: I 21 21 21
;
_chemical_formula_sum "Si O2"
_cell_formula_units_Z 48
_cell_length_a 18.792605
_cell_length_b 18.662533
_cell_length_c 5.762214
_cell_angle_alpha 90.000000
_cell_angle_beta 90.000000
_cell_angle_gamma 90.000000
_cell_volume 2020.909928
_symmetry_space_group_name_H-M "I 21 21 21"
_symmetry_group_IT_number 24
_symmetry_cell_setting 'orthorhombic'
loop_
_space_group_symop_operation_xyz
x,y,z
-x,1/2-y,z
x,-y,1/2-z
1/2-x,y,-z
1/2+x,1/2+y,1/2+z
1/2-x,-y,1/2+z
1/2+x,1/2-y,-z
-x,1/2+y,1/2-z
loop_
_atom_site_type_symbol
_atom_site_label
_atom_site_fract_x
_atom_site_fract_y
_atom_site_fract_z
Si Si1 0.500000 0.750000 0.449440
Si Si2 0.120244 0.789441 0.246086
Si Si3 0.665435 0.086573 0.998066
Si Si4 0.457928 0.884237 0.135908
Si Si5 0.250000 0.794906 0.000000
Si Si6 0.817805 0.601092 0.618423
Si Si7 0.611399 0.923152 0.009688
O O1 0.431848 0.740358 0.610834
O O2 0.486306 0.821585 0.305109
O O3 0.155544 0.845946 0.419619
O O4 0.074552 0.838089 0.073557
O O5 0.185332 0.752842 0.112996
O O6 0.637544 0.114934 0.250173
O O7 0.750000 0.098295 0.000000
O O8 0.632088 0.106525 0.745616
O O9 0.646705 0.001756 0.010054
O O10 0.391968 0.924488 0.263444
O O11 0.525631 0.928150 0.043741
O O12 0.214941 0.848088 0.814633
O O13 0.750000 0.558506 0.500000
#
# Coordination Sequence:
#
# PCOD9333879 Si02
#       7
#     4   8   8   8   4   8   8
#     4  10  20  32  48  72 108 158 186 238 292 348
#     4   9  17  30  49  71 101 136 187 232 284 335
#     4  10  20  39  63  92 117 159 195 243 308 377
#     4  10  20  31  50  83 109 147 195 245 292 349
#     4   8  14  28  48  74  86 126 180 240 268 326
#     4   8  15  28  48  72 102 131 178 229 277 330
#     4  10  20  33  60  89 117 143 195 248 289 351
#
# _framework density 23.751677999999998
#
# number of rings (size 3 to 8) (size 9 to 14) (size 15 to 20)
#    0.000    2.667    0.000    3.000    4.667    0.000 
#    0.000    0.000    0.000   12.000   45.500    0.000 
#   60.000    0.000    0.000    0.000    0.000    0.000 
#
# Total GULP energy -133757.162258 kJ/mol
# GULP energy per Si atom -5573.215094 kJ/mol
# Density = 2.369762 g / cm^3
# Si number density = 23.751678 Si / 1000 Ang^3
#
#
#
# Elastic Constant Matrix: (Units=GPa)
#
#
# Indices 1 2 3 4 5 6 
#
# 1 184.5678 11.4102 86.8527 0.0000 0.0000 0.0000
# 2 11.4102 54.2374 25.6704 0.0000 0.0000 0.0000
# 3 86.8527 25.6704 192.2711 0.0000 0.0000 0.0000
# 4 0.0000 0.0000 0.0000 5.7414 0.0000 0.0000
# 5 0.0000 0.0000 0.0000 0.0000 30.6369 0.0000
# 6 0.0000 0.0000 0.0000 0.0000 0.0000 -13.4736
#
#
#
# Elastic Compliance Matrix: (Units=1/GPa)
#
#
# Indices 1 2 3 4 5 6 
#
# 1 0.006881 0.000025 -0.003112 0.000000 0.000000 0.000000
# 2 0.000025 0.019681 -0.002639 0.000000 0.000000 0.000000
# 3 -0.003112 -0.002639 0.006959 0.000000 0.000000 0.000000
# 4 0.000000 0.000000 0.000000 0.174173 0.000000 0.000000
# 5 0.000000 0.000000 0.000000 0.000000 0.032640 0.000000
# 6 0.000000 0.000000 0.000000 0.000000 0.000000 -0.074219
#
#
# Mechanical properties :
#
#
# Convention : Reuss Voigt Hill
#
# Bulk Modulus (GPa) = 45.31041 75.43810 60.37425
# Shear Modulus (GPa) = 27.03840 25.05713 26.04777
#
# Velocity S-wave (km/s) = 3.37765 3.25154 3.31519
# Velocity P-wave (km/s) = 5.85914 6.77693 6.33468
#
# Compressibility (1/GPa) = 0.02206998
#
# Stress axis : x y z
#
# Youngs Moduli (GPa) = 145.33397 50.80991 143.70175
#
# Poissons Ratio (x) = -0.00128 0.44713
# Poissons Ratio (y) = -0.00365 0.37923
# Poissons Ratio (z) = 0.45221 0.13409
#
# Static dielectric constant tensor:
#      x y z
#    x 1.957210 0.000000 0.000000 
#    y 0.000000 1.911990 0.000000 
#    z 0.000000 0.000000 1.934520 
# 
# From -- ./inp_files/4860.got.cif
#   From: 2010.05.17/outbox.cif.g08.bks.cpg/sg24_3_cif.got.tgz:4860.got - 2010.06.04 00:33:39.
