data_PCOD9333402
_publ_section_title
;
Structure prediction by ZEFSAII (Michael W. Deem and Ramdas Pophale) SiO2 
 PCOD9333402
Probable space group: I 21 21 21
;
_chemical_formula_sum "Si O2"
_cell_formula_units_Z 64
_cell_length_a 31.075420
_cell_length_b 11.925046
_cell_length_c 7.901869
_cell_angle_alpha 90.000000
_cell_angle_beta 90.000000
_cell_angle_gamma 90.000000
_cell_volume 2928.241529
_symmetry_space_group_name_H-M "I 21 21 21"
_symmetry_group_IT_number 24
_symmetry_cell_setting 'orthorhombic'
loop_
_space_group_symop_operation_xyz
x,y,z
-x,1/2-y,z
x,-y,1/2-z
1/2-x,y,-z
1/2+x,1/2+y,1/2+z
1/2-x,-y,1/2+z
1/2+x,1/2-y,-z
-x,1/2+y,1/2-z
loop_
_atom_site_type_symbol
_atom_site_label
_atom_site_fract_x
_atom_site_fract_y
_atom_site_fract_z
Si Si1 0.034749 0.048509 0.437022
Si Si2 0.561785 0.963478 0.949056
Si Si3 0.206102 0.712991 0.462905
Si Si4 0.901151 0.409878 0.894613
Si Si5 0.392822 0.240165 0.604215
Si Si6 0.294252 0.814871 0.910263
Si Si7 0.189489 0.956484 0.557059
Si Si8 0.611113 0.180015 0.000054
O O1 0.070946 0.146239 0.439666
O O2 0.986510 0.074971 0.493994
O O3 0.032021 0.000000 0.250000
O O4 0.052866 0.942202 0.537122
O O5 0.593062 0.858910 0.971778
O O6 0.561887 0.000000 0.750000
O O7 0.580423 0.075549 0.032623
O O8 0.250000 0.648621 0.500000
O O9 0.206143 0.758993 0.272776
O O10 0.161709 0.650612 0.501755
O O11 0.207077 0.830385 0.566238
O O12 0.894728 0.500000 0.750000
O O13 0.859478 0.437230 0.008934
O O14 0.897547 0.278713 0.865967
O O15 0.344664 0.209168 0.539361
O O16 0.395181 0.264217 0.810231
O O17 0.250000 0.773588 0.000000
O O18 0.291714 0.949844 0.933163
O O19 0.192309 0.000000 0.750000
#
# Coordination Sequence:
#
# PCOD9333402 Si02
#       8
#     8   8   8   8   8   8   8   8
#     4  11  19  33  62  90 116 142 191 242 299 352
#     4   9  20  35  59  89 112 148 198 251 293 342
#     4  10  20  33  52  78 109 148 190 235 286 344
#     4  10  20  33  55  84 116 154 184 229 290 351
#     4  10  19  35  57  86 118 147 191 248 294 340
#     4  11  21  32  52  78 113 150 186 234 286 346
#     4  10  19  32  50  77 111 146 183 227 289 344
#     4   9  19  36  57  82 118 151 192 241 296 345
#
# _framework density 21.856120000000001
#
# number of rings (size 3 to 8) (size 9 to 14) (size 15 to 20)
#    0.000    2.000    2.500    1.875    0.000    0.500 
#    0.000    0.625    5.500    0.000    0.000    0.000 
#    0.000    0.000    0.000    0.000    0.000    0.000 
#
# Total GULP energy -178236.319815 kJ/mol
# GULP energy per Si atom -5569.884994 kJ/mol
# Density = 2.180637 g / cm^3
# Si number density = 21.856120 Si / 1000 Ang^3
#
#
#
# Elastic Constant Matrix: (Units=GPa)
#
#
# Indices 1 2 3 4 5 6 
#
# 1 165.7193 63.6936 12.1060 0.0000 0.0000 0.0000
# 2 63.6936 87.0881 12.0035 0.0000 0.0000 0.0000
# 3 12.1060 12.0035 25.2711 0.0000 0.0000 0.0000
# 4 0.0000 0.0000 0.0000 17.7448 0.0000 0.0000
# 5 0.0000 0.0000 0.0000 0.0000 37.7032 0.0000
# 6 0.0000 0.0000 0.0000 0.0000 0.0000 12.6031
#
#
#
# Elastic Compliance Matrix: (Units=1/GPa)
#
#
# Indices 1 2 3 4 5 6 
#
# 1 0.008427 -0.006000 -0.001187 0.000000 0.000000 0.000000
# 2 -0.006000 0.016558 -0.004991 0.000000 0.000000 0.000000
# 3 -0.001187 -0.004991 0.042510 0.000000 0.000000 0.000000
# 4 0.000000 0.000000 0.000000 0.056355 0.000000 0.000000
# 5 0.000000 0.000000 0.000000 0.000000 0.026523 0.000000
# 6 0.000000 0.000000 0.000000 0.000000 0.000000 0.079346
#
#
# Mechanical properties :
#
#
# Convention : Reuss Voigt Hill
#
# Bulk Modulus (GPa) = 23.18023 50.40940 36.79481
# Shear Modulus (GPa) = 18.62512 26.29524 22.46018
#
# Velocity S-wave (km/s) = 2.92236 3.47235 3.20916
# Velocity P-wave (km/s) = 4.69210 6.26023 5.53201
#
# Compressibility (1/GPa) = 0.04314021
#
# Stress axis : x y z
#
# Youngs Moduli (GPa) = 118.66705 60.39210 23.52372
#
# Poissons Ratio (x) = 0.36233 0.02793
# Poissons Ratio (y) = 0.71195 0.11741
# Poissons Ratio (z) = 0.14088 0.30142
#
# Static dielectric constant tensor:
#      x y z
#    x 1.893400 0.000000 0.000000 
#    y 0.000000 1.771260 0.000000 
#    z 0.000000 0.000000 1.867190 
# 
# From -- ./inp_files/17013.got.cif
#   From: 2010.05.17/outbox.cif.g08.bks.cpg/sg24_9_cif.got.tgz:17013.got - 2010.06.04 00:33:39.
