data_PCOD9333538
_publ_section_title
;
Structure prediction by ZEFSAII (Michael W. Deem and Ramdas Pophale) SiO2 
 PCOD9333538
Probable space group: I 21 21 21
;
_chemical_formula_sum "Si O2"
_cell_formula_units_Z 40
_cell_length_a 7.129048
_cell_length_b 12.633749
_cell_length_c 17.489854
_cell_angle_alpha 90.000000
_cell_angle_beta 90.000000
_cell_angle_gamma 90.000000
_cell_volume 1575.251737
_symmetry_space_group_name_H-M "I 21 21 21"
_symmetry_group_IT_number 24
_symmetry_cell_setting 'orthorhombic'
loop_
_space_group_symop_operation_xyz
x,y,z
-x,1/2-y,z
x,-y,1/2-z
1/2-x,y,-z
1/2+x,1/2+y,1/2+z
1/2-x,-y,1/2+z
1/2+x,1/2-y,-z
-x,1/2+y,1/2-z
loop_
_atom_site_type_symbol
_atom_site_label
_atom_site_fract_x
_atom_site_fract_y
_atom_site_fract_z
Si Si1 0.216014 0.832404 0.850870
Si Si2 0.683477 0.125531 0.417765
Si Si3 0.307632 0.961465 0.588348
Si Si4 0.203270 0.377639 0.085863
Si Si5 0.486372 0.395092 0.204234
O O1 0.270351 0.710852 0.859825
O O2 0.359243 0.923676 0.875401
O O3 0.119314 0.846187 0.769075
O O4 0.039672 0.858743 0.907524
O O5 0.750000 0.162675 0.500000
O O6 0.735984 0.002705 0.412926
O O7 0.250000 0.968829 0.500000
O O8 0.480900 0.881635 0.596040
O O9 0.131799 0.925682 0.637932
O O10 0.321951 0.335418 0.157911
O O11 0.250000 0.336698 0.000000
O O12 0.411098 0.500000 0.250000
#
# Coordination Sequence:
#
# PCOD9333538 Si02
#       5
#     8   8   8   8   8
#     4  10  21  36  52  80 128 153 188 244 296 350
#     4  10  19  34  57  83 115 159 187 223 293 361
#     4  11  19  33  57  80 111 154 196 245 292 348
#     4  11  20  34  60  85 114 150 200 243 291 359
#     4  10  20  37  51  81 120 149 197 244 298 342
#
# _framework density 25.392768
#
# number of rings (size 3 to 8) (size 9 to 14) (size 15 to 20)
#    0.000    1.600    6.000    1.800    0.000    6.400 
#    0.000    0.000    0.000    0.000    0.000    5.600 
#    0.000    0.000    0.000    0.000    0.000    0.000 
#
# Total GULP energy -111807.810827 kJ/mol
# GULP energy per Si atom -5590.390541 kJ/mol
# Density = 2.533497 g / cm^3
# Si number density = 25.392768 Si / 1000 Ang^3
#
#
#
# Elastic Constant Matrix: (Units=GPa)
#
#
# Indices 1 2 3 4 5 6 
#
# 1 114.6385 -10.9933 48.9416 0.0000 0.0000 0.0000
# 2 -10.9933 60.8009 15.0145 0.0000 0.0000 0.0000
# 3 48.9416 15.0145 208.2967 0.0000 0.0000 0.0000
# 4 0.0000 0.0000 0.0000 30.1806 0.0000 0.0000
# 5 0.0000 0.0000 0.0000 0.0000 33.9204 0.0000
# 6 0.0000 0.0000 0.0000 0.0000 0.0000 20.4119
#
#
#
# Elastic Compliance Matrix: (Units=1/GPa)
#
#
# Indices 1 2 3 4 5 6 
#
# 1 0.010039 0.002441 -0.002535 0.000000 0.000000 0.000000
# 2 0.002441 0.017339 -0.001823 0.000000 0.000000 0.000000
# 3 -0.002535 -0.001823 0.005528 0.000000 0.000000 0.000000
# 4 0.000000 0.000000 0.000000 0.033134 0.000000 0.000000
# 5 0.000000 0.000000 0.000000 0.000000 0.029481 0.000000
# 6 0.000000 0.000000 0.000000 0.000000 0.000000 0.048991
#
#
# Mechanical properties :
#
#
# Convention : Reuss Voigt Hill
#
# Bulk Modulus (GPa) = 34.39751 54.40686 44.40219
# Shear Modulus (GPa) = 31.63826 38.95412 35.29619
#
# Velocity S-wave (km/s) = 3.53364 3.92096 3.73233
# Velocity P-wave (km/s) = 5.49767 6.47852 6.00815
#
# Compressibility (1/GPa) = 0.02907187
#
# Stress axis : x y z
#
# Youngs Moduli (GPa) = 99.60815 57.67421 180.90180
#
# Poissons Ratio (x) = -0.14079 0.45855
# Poissons Ratio (y) = -0.24316 0.32986
# Poissons Ratio (z) = 0.25249 0.10516
#
# Static dielectric constant tensor:
#      x y z
#    x 2.036640 0.000000 0.000000 
#    y 0.000000 2.216790 0.000000 
#    z 0.000000 0.000000 1.979820 
# 
# From -- ./inp_files/24637.got.cif
#   From: 2010.05.17/outbox.cif.g08.bks.cpg/sg24_13_cif.got.tgz:24637.got - 2010.06.04 00:33:39.
