data_PCOD9333568
_publ_section_title
;
Structure prediction by ZEFSAII (Michael W. Deem and Ramdas Pophale) SiO2 
 PCOD9333568
Probable space group: I 21 21 21
;
_chemical_formula_sum "Si O2"
_cell_formula_units_Z 48
_cell_length_a 17.275602
_cell_length_b 14.446791
_cell_length_c 9.315161
_cell_angle_alpha 90.000000
_cell_angle_beta 90.000000
_cell_angle_gamma 90.000000
_cell_volume 2324.850044
_symmetry_space_group_name_H-M "I 21 21 21"
_symmetry_group_IT_number 24
_symmetry_cell_setting 'orthorhombic'
loop_
_space_group_symop_operation_xyz
x,y,z
-x,1/2-y,z
x,-y,1/2-z
1/2-x,y,-z
1/2+x,1/2+y,1/2+z
1/2-x,-y,1/2+z
1/2+x,1/2-y,-z
-x,1/2+y,1/2-z
loop_
_atom_site_type_symbol
_atom_site_label
_atom_site_fract_x
_atom_site_fract_y
_atom_site_fract_z
Si Si1 0.446887 0.619598 0.623880
Si Si2 0.750000 0.557415 0.500000
Si Si3 0.145371 0.000000 0.750000
Si Si4 0.539626 0.338943 0.317437
Si Si5 0.618464 0.315585 0.863036
Si Si6 0.082386 0.419384 0.457254
Si Si7 0.836355 0.260782 0.459271
O O1 0.538059 0.633638 0.598500
O O2 0.397454 0.710407 0.585146
O O3 0.411612 0.529738 0.547776
O O4 0.446901 0.606168 0.796966
O O5 0.798565 0.496790 0.612784
O O6 0.688923 0.625218 0.576874
O O7 0.088848 0.912578 0.729329
O O8 0.500000 0.250000 0.242582
O O9 0.476480 0.390875 0.416530
O O10 0.601859 0.296863 0.426989
O O11 0.636242 0.300928 0.693687
O O12 0.155510 0.351199 0.466974
O O13 0.750000 0.287393 0.500000
#
# Coordination Sequence:
#
# PCOD9333568 Si02
#       7
#     8   4   4   8   8   8   8
#     4   9  17  34  61  90 120 155 214 264 296 371
#     4  12  28  42  60  98 130 170 214 260 344 388
#     4  12  28  44  64  98 132 174 214 268 330 390
#     4  10  21  41  64  91 127 167 216 262 318 385
#     4  10  20  37  59  89 122 162 203 261 319 368
#     4   9  17  33  61  92 113 159 214 254 302 369
#     4  10  19  34  62  89 124 162 204 257 314 377
#
# _framework density 20.646491999999999
#
# number of rings (size 3 to 8) (size 9 to 14) (size 15 to 20)
#    0.000    2.000    1.667    2.000    3.500    1.333 
#    7.500    0.000    0.000    2.000    0.000    0.000 
#    0.000    0.000    0.000    0.000    0.000    0.000 
#
# Total GULP energy -133905.074249 kJ/mol
# GULP energy per Si atom -5579.378094 kJ/mol
# Density = 2.059950 g / cm^3
# Si number density = 20.646492 Si / 1000 Ang^3
#
#
#
# Elastic Constant Matrix: (Units=GPa)
#
#
# Indices 1 2 3 4 5 6 
#
# 1 78.5660 26.6563 21.6724 0.0000 0.0000 0.0000
# 2 26.6563 91.7885 23.8984 0.0000 0.0000 0.0000
# 3 21.6724 23.8984 40.5488 0.0000 0.0000 0.0000
# 4 0.0000 0.0000 0.0000 18.5530 0.0000 0.0000
# 5 0.0000 0.0000 0.0000 0.0000 30.6593 0.0000
# 6 0.0000 0.0000 0.0000 0.0000 0.0000 21.9384
#
#
#
# Elastic Compliance Matrix: (Units=1/GPa)
#
#
# Indices 1 2 3 4 5 6 
#
# 1 0.015503 -0.002770 -0.006654 0.000000 0.000000 0.000000
# 2 -0.002770 0.013364 -0.006396 0.000000 0.000000 0.000000
# 3 -0.006654 -0.006396 0.031988 0.000000 0.000000 0.000000
# 4 0.000000 0.000000 0.000000 0.053900 0.000000 0.000000
# 5 0.000000 0.000000 0.000000 0.000000 0.032617 0.000000
# 6 0.000000 0.000000 0.000000 0.000000 0.000000 0.045582
#
#
# Mechanical properties :
#
#
# Convention : Reuss Voigt Hill
#
# Bulk Modulus (GPa) = 34.22801 39.48416 36.85609
# Shear Modulus (GPa) = 21.33727 23.47521 22.40624
#
# Velocity S-wave (km/s) = 3.21823 3.37561 3.29786
# Velocity P-wave (km/s) = 5.51575 5.86161 5.69130
#
# Compressibility (1/GPa) = 0.02921584
#
# Stress axis : x y z
#
# Youngs Moduli (GPa) = 64.50210 74.82588 31.26216
#
# Poissons Ratio (x) = 0.20727 0.20801
# Poissons Ratio (y) = 0.17867 0.19996
# Poissons Ratio (z) = 0.42917 0.47859
#
# Static dielectric constant tensor:
#      x y z
#    x 1.687020 0.000000 0.000000 
#    y 0.000000 1.788510 0.000000 
#    z 0.000000 0.000000 1.744640 
# 
# From -- ./inp_files/14227.got.cif
#   From: 2010.05.17/outbox.cif.g08.bks.cpg/sg24_8_cif.got.tgz:14227.got - 2010.06.04 00:33:39.
