data_PCOD9333951
_publ_section_title
;
Structure prediction by ZEFSAII (Michael W. Deem and Ramdas Pophale) SiO2 
 PCOD9333951
Probable space group: I 21 21 21
;
_chemical_formula_sum "Si O2"
_cell_formula_units_Z 48
_cell_length_a 10.662308
_cell_length_b 13.072302
_cell_length_c 18.927477
_cell_angle_alpha 90.000000
_cell_angle_beta 90.000000
_cell_angle_gamma 90.000000
_cell_volume 2638.128972
_symmetry_space_group_name_H-M "I 21 21 21"
_symmetry_group_IT_number 24
_symmetry_cell_setting 'orthorhombic'
loop_
_space_group_symop_operation_xyz
x,y,z
-x,1/2-y,z
x,-y,1/2-z
1/2-x,y,-z
1/2+x,1/2+y,1/2+z
1/2-x,-y,1/2+z
1/2+x,1/2-y,-z
-x,1/2+y,1/2-z
loop_
_atom_site_type_symbol
_atom_site_label
_atom_site_fract_x
_atom_site_fract_y
_atom_site_fract_z
Si Si1 0.769503 0.290750 0.135355
Si Si2 0.149750 0.225164 0.438270
Si Si3 0.643447 0.213973 0.718946
Si Si4 0.906039 0.499879 0.394522
Si Si5 0.500000 0.250000 0.078932
Si Si6 0.452008 0.500000 0.750000
Si Si7 0.376561 0.390657 0.964981
O O1 0.794050 0.279807 0.218818
O O2 0.822834 0.397241 0.104687
O O3 0.622168 0.281565 0.121873
O O4 0.839127 0.198305 0.092007
O O5 0.250000 0.251311 0.500000
O O6 0.186498 0.275925 0.362256
O O7 0.000000 0.250000 0.452455
O O8 0.154809 0.102664 0.423951
O O9 0.500000 0.250000 0.716842
O O10 0.636661 0.098760 0.748045
O O11 0.954458 0.487043 0.315207
O O12 0.036628 0.523265 0.433294
O O13 0.455926 0.339083 0.026922
O O14 0.250000 0.430144 0.000000
#
# Coordination Sequence:
#
# PCOD9333951 Si02
#       7
#     8   8   8   8   4   4   8
#     4  11  20  35  62  88 127 159 202 262 322 371
#     4  11  26  44  64  92 127 172 215 264 319 388
#     4  11  20  40  63  91 117 156 212 265 320 366
#     4  12  20  35  64  90 115 161 209 251 313 374
#     4  10  22  34  50  92 132 156 190 248 320 392
#     4  12  20  36  66  94 108 150 218 270 298 376
#     4  10  20  33  54  90 126 157 191 249 309 369
#
# _framework density 18.194713
#
# number of rings (size 3 to 8) (size 9 to 14) (size 15 to 20)
#    0.000    1.000    8.333    0.000    2.333    0.667 
#    1.500    0.000    0.000    0.000    0.000    0.000 
#    0.000    0.000    0.000    0.000    0.000    0.000 
#
# Total GULP energy -133848.572200 kJ/mol
# GULP energy per Si atom -5577.023842 kJ/mol
# Density = 1.815330 g / cm^3
# Si number density = 18.194713 Si / 1000 Ang^3
#
#
#
# Elastic Constant Matrix: (Units=GPa)
#
#
# Indices 1 2 3 4 5 6 
#
# 1 70.9891 6.9155 56.9304 0.0000 0.0000 0.0000
# 2 6.9155 72.1926 8.1531 0.0000 0.0000 0.0000
# 3 56.9304 8.1531 123.2887 0.0000 0.0000 0.0000
# 4 0.0000 0.0000 0.0000 22.8487 0.0000 0.0000
# 5 0.0000 0.0000 0.0000 0.0000 23.5376 0.0000
# 6 0.0000 0.0000 0.0000 0.0000 0.0000 7.7844
#
#
#
# Elastic Compliance Matrix: (Units=1/GPa)
#
#
# Indices 1 2 3 4 5 6 
#
# 1 0.022441 -0.000987 -0.010297 0.000000 0.000000 0.000000
# 2 -0.000987 0.013999 -0.000470 0.000000 0.000000 0.000000
# 3 -0.010297 -0.000470 0.012897 0.000000 0.000000 0.000000
# 4 0.000000 0.000000 0.000000 0.043766 0.000000 0.000000
# 5 0.000000 0.000000 0.000000 0.000000 0.042485 0.000000
# 6 0.000000 0.000000 0.000000 0.000000 0.000000 0.128461
#
#
# Mechanical properties :
#
#
# Convention : Reuss Voigt Hill
#
# Bulk Modulus (GPa) = 38.71594 45.60761 42.16177
# Shear Modulus (GPa) = 16.88234 23.79890 20.34062
#
# Velocity S-wave (km/s) = 3.04940 3.62057 3.34719
# Velocity P-wave (km/s) = 5.80718 6.52678 6.17747
#
# Compressibility (1/GPa) = 0.02582915
#
# Stress axis : x y z
#
# Youngs Moduli (GPa) = 44.56211 71.43138 77.53775
#
# Poissons Ratio (x) = 0.07049 0.79841
# Poissons Ratio (y) = 0.04397 0.03645
# Poissons Ratio (z) = 0.45886 0.03358
#
# Static dielectric constant tensor:
#      x y z
#    x 1.606750 0.000000 0.000000 
#    y 0.000000 1.707830 0.000000 
#    z 0.000000 0.000000 1.877410 
# 
# From -- ./inp_files/30218.got.cif
#   From: 2010.05.17/outbox.cif.g08.bks.cpg/sg24_16_cif.got.tgz:30218.got - 2010.06.04 00:33:39.
