data_PCOD9333573
_publ_section_title
;
Structure prediction by ZEFSAII (Michael W. Deem and Ramdas Pophale) SiO2 
 PCOD9333573
Probable space group: I 21 21 21
;
_chemical_formula_sum "Si O2"
_cell_formula_units_Z 64
_cell_length_a 18.552904
_cell_length_b 11.583148
_cell_length_c 15.142851
_cell_angle_alpha 90.000000
_cell_angle_beta 90.000000
_cell_angle_gamma 90.000000
_cell_volume 3254.214320
_symmetry_space_group_name_H-M "I 21 21 21"
_symmetry_group_IT_number 24
_symmetry_cell_setting 'orthorhombic'
loop_
_space_group_symop_operation_xyz
x,y,z
-x,1/2-y,z
x,-y,1/2-z
1/2-x,y,-z
1/2+x,1/2+y,1/2+z
1/2-x,-y,1/2+z
1/2+x,1/2-y,-z
-x,1/2+y,1/2-z
loop_
_atom_site_type_symbol
_atom_site_label
_atom_site_fract_x
_atom_site_fract_y
_atom_site_fract_z
Si Si1 0.704197 0.304256 0.588454
Si Si2 0.568384 0.028874 0.998146
Si Si3 0.830609 0.939656 0.154949
Si Si4 0.091902 0.012447 0.485769
Si Si5 0.692864 0.499938 0.347509
Si Si6 0.178550 0.544879 0.652557
Si Si7 0.422984 0.760663 0.599316
Si Si8 0.760800 0.738123 0.393077
O O1 0.750000 0.268482 0.500000
O O2 0.677565 0.197968 0.647168
O O3 0.636698 0.385373 0.560629
O O4 0.759804 0.385541 0.640098
O O5 0.616288 0.016344 0.084530
O O6 0.491772 0.967048 0.004804
O O7 0.562803 0.166550 0.978118
O O8 0.608935 0.977845 0.913508
O O9 0.842431 0.000000 0.250000
O O10 0.752891 0.985200 0.122733
O O11 0.133753 0.991705 0.576670
O O12 0.089865 0.892228 0.431249
O O13 0.661594 0.500000 0.250000
O O14 0.745114 0.391711 0.135716
O O15 0.162036 0.500000 0.750000
O O16 0.201523 0.678905 0.650627
O O17 0.500000 0.750000 0.651343
O O18 0.342708 0.727891 0.632952
O O19 0.750000 0.747866 0.500000
#
# Coordination Sequence:
#
# PCOD9333573 Si02
#       8
#     8   8   8   8   8   8   8   8
#     4  10  21  41  63  90 124 165 209 260 325 391
#     4  11  21  39  66  88 125 174 206 257 324 379
#     4  11  24  40  63  88 121 158 216 269 318 379
#     4  10  21  40  63  89 125 170 210 252 322 394
#     4  11  23  35  62  99 128 160 209 269 317 378
#     4  11  23  36  61  97 126 161 215 267 312 377
#     4  10  19  34  65  94 116 159 217 256 312 385
#     4  12  18  39  66  88 121 167 214 260 313 380
#
# _framework density 19.666806000000001
#
# number of rings (size 3 to 8) (size 9 to 14) (size 15 to 20)
#    0.000    1.250    5.000    1.500    3.500    1.000 
#    0.000    0.625    5.500    0.750    0.000    0.000 
#    0.000    0.000    0.000    0.000    0.000    0.000 
#
# Total GULP energy -178566.568359 kJ/mol
# GULP energy per Si atom -5580.205261 kJ/mol
# Density = 1.962204 g / cm^3
# Si number density = 19.666806 Si / 1000 Ang^3
#
#
#
# Elastic Constant Matrix: (Units=GPa)
#
#
# Indices 1 2 3 4 5 6 
#
# 1 136.3301 24.5700 32.4016 0.0000 0.0000 0.0000
# 2 24.5700 105.1861 42.7087 0.0000 0.0000 0.0000
# 3 32.4016 42.7087 65.7686 0.0000 0.0000 0.0000
# 4 0.0000 0.0000 0.0000 22.9750 0.0000 0.0000
# 5 0.0000 0.0000 0.0000 0.0000 10.8425 0.0000
# 6 0.0000 0.0000 0.0000 0.0000 0.0000 19.5739
#
#
#
# Elastic Compliance Matrix: (Units=1/GPa)
#
#
# Indices 1 2 3 4 5 6 
#
# 1 0.008319 -0.000379 -0.003852 0.000000 0.000000 0.000000
# 2 -0.000379 0.012928 -0.008209 0.000000 0.000000 0.000000
# 3 -0.003852 -0.008209 0.022433 0.000000 0.000000 0.000000
# 4 0.000000 0.000000 0.000000 0.043526 0.000000 0.000000
# 5 0.000000 0.000000 0.000000 0.000000 0.092229 0.000000
# 6 0.000000 0.000000 0.000000 0.000000 0.000000 0.051088
#
#
# Mechanical properties :
#
#
# Convention : Reuss Voigt Hill
#
# Bulk Modulus (GPa) = 53.18979 56.29395 54.74187
# Shear Modulus (GPa) = 19.10794 24.51859 21.81326
#
# Velocity S-wave (km/s) = 3.12040 3.53469 3.33399
# Velocity P-wave (km/s) = 6.33141 6.73385 6.53573
#
# Compressibility (1/GPa) = 0.01880060
#
# Stress axis : x y z
#
# Youngs Moduli (GPa) = 120.20631 77.34857 44.57663
#
# Poissons Ratio (x) = 0.02932 0.17172
# Poissons Ratio (y) = 0.04557 0.36592
# Poissons Ratio (z) = 0.46307 0.63493
#
# Static dielectric constant tensor:
#      x y z
#    x 1.711740 0.000000 0.000000 
#    y 0.000000 1.741590 0.000000 
#    z 0.000000 0.000000 1.694050 
# 
# From -- ./inp_files/27205.got.cif
#   From: 2010.05.17/outbox.cif.g08.bks.cpg/sg24_14_cif.got.tgz:27205.got - 2010.06.04 00:33:39.
