data_PCOD9333796
_publ_section_title
;
Structure prediction by ZEFSAII (Michael W. Deem and Ramdas Pophale) SiO2 
 PCOD9333796
Probable space group: I 21 21 21
;
_chemical_formula_sum "Si O2"
_cell_formula_units_Z 32
_cell_length_a 9.186918
_cell_length_b 16.334583
_cell_length_c 9.996605
_cell_angle_alpha 90.000000
_cell_angle_beta 90.000000
_cell_angle_gamma 90.000000
_cell_volume 1500.135277
_symmetry_space_group_name_H-M "I 21 21 21"
_symmetry_group_IT_number 24
_symmetry_cell_setting 'orthorhombic'
loop_
_space_group_symop_operation_xyz
x,y,z
-x,1/2-y,z
x,-y,1/2-z
1/2-x,y,-z
1/2+x,1/2+y,1/2+z
1/2-x,-y,1/2+z
1/2+x,1/2-y,-z
-x,1/2+y,1/2-z
loop_
_atom_site_type_symbol
_atom_site_label
_atom_site_fract_x
_atom_site_fract_y
_atom_site_fract_z
Si Si1 0.935222 0.868636 0.763367
Si Si2 0.271204 0.222743 0.345849
Si Si3 0.652501 0.557203 0.865581
Si Si4 0.910254 0.982169 0.536022
O O1 0.802759 0.803608 0.759698
O O2 0.977539 0.908015 0.621609
O O3 0.077430 0.826547 0.826701
O O4 0.894989 0.941316 0.863499
O O5 0.250000 0.248973 0.500000
O O6 0.349505 0.152329 0.680121
O O7 0.717520 0.500000 0.750000
O O8 0.750000 0.555886 0.000000
O O9 0.503171 0.515070 0.911995
O O10 0.750000 0.954695 0.500000
#
# Coordination Sequence:
#
# PCOD9333796 Si02
#       4
#     8   8   8   8
#     4  10  21  39  64  91 130 165 219 282 342 389
#     4  10  19  38  65  94 119 166 223 280 324 396
#     4  11  22  40  68  99 127 172 232 279 334 410
#     4  11  23  40  63  91 134 176 214 272 350 412
#
# _framework density 21.331410999999999
#
# number of rings (size 3 to 8) (size 9 to 14) (size 15 to 20)
#    0.000    1.500    5.000    2.250    3.500    0.000 
#    0.000    6.250    0.000    0.000    0.000    0.000 
#    0.000    0.000    0.000    0.000    0.000    0.000 
#
# Total GULP energy -89218.301689 kJ/mol
# GULP energy per Si atom -5576.143856 kJ/mol
# Density = 2.128286 g / cm^3
# Si number density = 21.331411 Si / 1000 Ang^3
#
#
#
# Elastic Constant Matrix: (Units=GPa)
#
#
# Indices 1 2 3 4 5 6 
#
# 1 64.8337 7.2885 17.6704 0.0000 0.0000 0.0000
# 2 7.2885 116.0320 41.1339 0.0002 0.0000 0.0000
# 3 17.6704 41.1339 51.0233 0.0004 0.0001 0.0000
# 4 0.0000 0.0002 0.0004 21.1210 0.0000 0.0000
# 5 0.0000 0.0000 0.0001 0.0000 5.7689 0.0000
# 6 0.0000 0.0000 0.0000 0.0000 0.0000 26.2861
#
#
#
# Elastic Compliance Matrix: (Units=1/GPa)
#
#
# Indices 1 2 3 4 5 6 
#
# 1 0.017203 0.001444 -0.007122 0.000000 0.000000 0.000000
# 2 0.001444 0.012188 -0.010326 0.000000 0.000000 0.000000
# 3 -0.007122 -0.010326 0.030390 0.000000 0.000000 0.000000
# 4 0.000000 0.000000 0.000000 0.047346 0.000000 0.000000
# 5 0.000000 0.000000 0.000000 0.000000 0.173345 0.000000
# 6 0.000000 0.000000 0.000000 0.000000 0.000000 0.038043
#
#
# Mechanical properties :
#
#
# Convention : Reuss Voigt Hill
#
# Bulk Modulus (GPa) = 36.00563 40.45273 38.22918
# Shear Modulus (GPa) = 13.89737 21.68828 17.79282
#
# Velocity S-wave (km/s) = 2.55521 3.19208 2.89124
# Velocity P-wave (km/s) = 5.06175 5.70885 5.39501
#
# Compressibility (1/GPa) = 0.02777343
#
# Stress axis : x y z
#
# Youngs Moduli (GPa) = 58.13004 82.04631 32.90552
#
# Poissons Ratio (x) = -0.11849 0.23435
# Poissons Ratio (y) = -0.08395 0.33978
# Poissons Ratio (z) = 0.41400 0.84722
#
# Static dielectric constant tensor:
#      x y z
#    x 1.812960 0.000000 0.000000 
#    y 0.000000 1.831940 0.000000 
#    z 0.000000 0.000000 1.792370 
# 
# From -- ./inp_files/10398.got.cif
#   From: 2010.05.17/outbox.cif.g08.bks.cpg/sg24_6_cif.got.tgz:10398.got - 2010.06.04 00:33:39.
