data_PCOD9333510
_publ_section_title
;
Structure prediction by ZEFSAII (Michael W. Deem and Ramdas Pophale) SiO2 
 PCOD9333510
Probable space group: I 21 21 21
;
_chemical_formula_sum "Si O2"
_cell_formula_units_Z 40
_cell_length_a 15.047079
_cell_length_b 5.247089
_cell_length_c 24.419971
_cell_angle_alpha 90.000000
_cell_angle_beta 90.000000
_cell_angle_gamma 90.000000
_cell_volume 1928.038828
_symmetry_space_group_name_H-M "I 21 21 21"
_symmetry_group_IT_number 24
_symmetry_cell_setting 'orthorhombic'
loop_
_space_group_symop_operation_xyz
x,y,z
-x,1/2-y,z
x,-y,1/2-z
1/2-x,y,-z
1/2+x,1/2+y,1/2+z
1/2-x,-y,1/2+z
1/2+x,1/2-y,-z
-x,1/2+y,1/2-z
loop_
_atom_site_type_symbol
_atom_site_label
_atom_site_fract_x
_atom_site_fract_y
_atom_site_fract_z
Si Si1 0.393398 0.233591 0.478399
Si Si2 0.500000 0.250000 0.284541
Si Si3 0.732742 0.199715 0.874335
Si Si4 0.173225 0.788083 0.854674
Si Si5 0.560357 0.994027 0.580023
Si Si6 0.750000 0.676343 0.500000
O O1 0.500000 0.250000 0.471286
O O2 0.354605 0.238390 0.418143
O O3 0.383753 0.448103 0.524661
O O4 0.338548 0.002154 0.505584
O O5 0.474983 0.500000 0.250000
O O6 0.584414 0.334273 0.320664
O O7 0.756565 0.479885 0.852000
O O8 0.631889 0.096776 0.875455
O O9 0.786781 0.987026 0.841426
O O10 0.761886 0.207410 0.938933
O O11 0.500000 0.750000 0.569854
O O12 0.500000 0.250000 0.590711
#
# Coordination Sequence:
#
# PCOD9333510 Si02
#       6
#     8   4   8   8   8   4
#     4  10  19  34  52  78 116 161 216 240 297 346
#     4  12  26  48  66  90 118 150 204 276 342 374
#     4  11  21  36  55  83 119 156 207 238 299 350
#     4  11  23  39  60  83 111 156 202 258 306 376
#     4  11  21  34  53  84 126 171 202 246 282 342
#     4  10  20  34  52  80 120 164 204 270 280 340
#
# _framework density 20.746471
#
# number of rings (size 3 to 8) (size 9 to 14) (size 15 to 20)
#    0.000    1.200    1.000    8.400    0.000    4.000 
#    1.800    0.000    0.000    0.000    0.000    0.000 
#    0.000   44.800    0.000    0.200    0.000    0.000 
#
# Total GULP energy -111422.274649 kJ/mol
# GULP energy per Si atom -5571.113732 kJ/mol
# Density = 2.069925 g / cm^3
# Si number density = 20.746471 Si / 1000 Ang^3
#
#
#
# Elastic Constant Matrix: (Units=GPa)
#
#
# Indices 1 2 3 4 5 6 
#
# 1 75.2890 50.1566 13.4101 0.0000 0.0000 0.0000
# 2 50.1566 146.7332 20.7717 0.0000 0.0000 0.0000
# 3 13.4101 20.7717 25.9506 0.0000 0.0000 0.0000
# 4 0.0000 0.0000 0.0000 17.0721 0.0000 0.0000
# 5 0.0000 0.0000 0.0000 0.0000 12.4602 0.0000
# 6 0.0000 0.0000 0.0000 0.0000 0.0000 50.3261
#
#
#
# Elastic Compliance Matrix: (Units=1/GPa)
#
#
# Indices 1 2 3 4 5 6 
#
# 1 0.017726 -0.005371 -0.004861 0.000000 0.000000 0.000000
# 2 -0.005371 0.009313 -0.004679 0.000000 0.000000 0.000000
# 3 -0.004861 -0.004679 0.044792 0.000000 0.000000 0.000000
# 4 0.000000 0.000000 0.000000 0.058575 0.000000 0.000000
# 5 0.000000 0.000000 0.000000 0.000000 0.080256 0.000000
# 6 0.000000 0.000000 0.000000 0.000000 0.000000 0.019870
#
#
# Mechanical properties :
#
#
# Convention : Reuss Voigt Hill
#
# Bulk Modulus (GPa) = 23.80429 46.29438 35.04933
# Shear Modulus (GPa) = 18.22436 26.88064 22.55250
#
# Velocity S-wave (km/s) = 2.96705 3.60345 3.30062
# Velocity P-wave (km/s) = 4.82044 6.29888 5.60859
#
# Compressibility (1/GPa) = 0.04200924
#
# Stress axis : x y z
#
# Youngs Moduli (GPa) = 56.41411 107.37190 22.32538
#
# Poissons Ratio (x) = 0.57670 0.10852
# Poissons Ratio (y) = 0.30300 0.10447
# Poissons Ratio (z) = 0.27422 0.50242
#
# Static dielectric constant tensor:
#      x y z
#    x 1.806340 0.000000 0.000000 
#    y 0.000000 1.920840 0.000000 
#    z 0.000000 0.000000 1.700300 
# 
# From -- ./inp_files/35746.got.cif
#   From: 2010.05.17/outbox.cif.g08.bks.cpg/sg24_18_cif.got.tgz:35746.got - 2010.06.04 00:33:39.
