data_PCOD9333069
_publ_section_title
;
Structure prediction by ZEFSAII (Michael W. Deem and Ramdas Pophale) SiO2 
 PCOD9333069
Probable space group: I 21 21 21
;
_chemical_formula_sum "Si O2"
_cell_formula_units_Z 60
_cell_length_a 31.056266
_cell_length_b 13.282509
_cell_length_c 5.447320
_cell_angle_alpha 90.000000
_cell_angle_beta 90.000000
_cell_angle_gamma 90.000000
_cell_volume 2247.047459
_symmetry_space_group_name_H-M "I 21 21 21"
_symmetry_group_IT_number 24
_symmetry_cell_setting 'orthorhombic'
loop_
_space_group_symop_operation_xyz
x,y,z
-x,1/2-y,z
x,-y,1/2-z
1/2-x,y,-z
1/2+x,1/2+y,1/2+z
1/2-x,-y,1/2+z
1/2+x,1/2-y,-z
-x,1/2+y,1/2-z
loop_
_atom_site_type_symbol
_atom_site_label
_atom_site_fract_x
_atom_site_fract_y
_atom_site_fract_z
Si Si1 0.887911 0.398866 0.015563
Si Si2 0.340268 0.642738 0.647005
Si Si3 0.703802 0.903189 0.167569
Si Si4 0.940728 0.119364 0.227744
Si Si5 0.297913 0.137464 0.883829
Si Si6 0.923179 0.376971 0.529135
Si Si7 0.250000 0.783368 0.000000
Si Si8 0.480162 0.379716 0.277120
O O1 0.837788 0.429776 0.037935
O O2 0.906974 0.344464 0.258626
O O3 0.914883 0.502031 0.994006
O O4 0.894304 0.341226 0.758847
O O5 0.329524 0.590487 0.389770
O O6 0.390565 0.630568 0.680561
O O7 0.321696 0.754078 0.599021
O O8 0.317308 0.605023 0.898227
O O9 0.732256 0.000000 0.250000
O O10 0.730592 0.798692 0.188362
O O11 0.951000 0.160143 0.499223
O O12 0.951175 0.000000 0.250000
O O13 0.967673 0.159605 0.993669
O O14 0.286453 0.142892 0.596694
O O15 0.250000 0.123663 0.000000
O O16 0.971811 0.363618 0.621004
O O17 0.473972 0.500000 0.250000
#
# Coordination Sequence:
#
# PCOD9333069 Si02
#       8
#     8   8   8   8   8   8   4   8
#     4  10  22  36  68  92 127 157 213 257 321 381
#     4  11  23  40  59  88 134 164 215 260 311 376
#     4  11  22  37  61  84 122 164 210 278 308 356
#     4  10  20  31  56  93 120 164 196 253 306 364
#     4  11  24  44  65  88 123 181 220 257 315 390
#     4  10  20  40  61 101 121 154 200 271 321 383
#     4  10  24  40  60  90 124 166 234 256 322 378
#     4  10  18  32  60  90 125 153 197 245 317 386
#
# _framework density 26.701706999999999
#
# number of rings (size 3 to 8) (size 9 to 14) (size 15 to 20)
#    0.000    1.600    2.667    2.800    5.600    3.200 
#    0.000    2.667    0.000    4.800    0.000    0.000 
#    0.000    0.000    0.000    0.000    0.000    0.000 
#
# Total GULP energy -167557.173172 kJ/mol
# GULP energy per Si atom -5585.239106 kJ/mol
# Density = 2.664093 g / cm^3
# Si number density = 26.701707 Si / 1000 Ang^3
#
#
#
# Elastic Constant Matrix: (Units=GPa)
#
#
# Indices 1 2 3 4 5 6 
#
# 1 193.8037 3.0189 96.6977 0.0000 0.0000 0.0000
# 2 3.0189 49.5638 40.0379 0.0001 0.0000 0.0000
# 3 96.6977 40.0379 230.7548 0.0001 -0.0001 0.0007
# 4 0.0000 0.0001 0.0001 17.3036 0.0000 0.0000
# 5 0.0000 0.0000 -0.0001 0.0000 55.9521 -0.0001
# 6 0.0000 0.0000 0.0007 0.0000 -0.0001 -17.8752
#
#
#
# Elastic Compliance Matrix: (Units=1/GPa)
#
#
# Indices 1 2 3 4 5 6 
#
# 1 0.006719 0.002169 -0.003192 0.000000 0.000000 0.000000
# 2 0.002169 0.024165 -0.005102 0.000000 0.000000 0.000000
# 3 -0.003192 -0.005102 0.006556 0.000000 0.000000 0.000000
# 4 0.000000 0.000000 0.000000 0.057791 0.000000 0.000000
# 5 0.000000 0.000000 0.000000 0.000000 0.017872 0.000000
# 6 0.000000 0.000000 0.000000 0.000000 0.000000 -0.055943
#
#
# Mechanical properties :
#
#
# Convention : Reuss Voigt Hill
#
# Bulk Modulus (GPa) = 39.69658 83.73684 61.71671
# Shear Modulus (GPa) = 64.26207 33.36730 48.81468
#
# Velocity S-wave (km/s) = 4.91110 3.53885 4.28032
# Velocity P-wave (km/s) = 6.85985 6.93730 6.89868
#
# Compressibility (1/GPa) = 0.02519109
#
# Stress axis : x y z
#
# Youngs Moduli (GPa) = 148.84047 41.38191 152.52434
#
# Poissons Ratio (x) = -0.08976 0.48683
# Poissons Ratio (y) = -0.32285 0.77815
# Poissons Ratio (z) = 0.47507 0.21112
#
# Static dielectric constant tensor:
#      x y z
#    x 2.071410 0.000000 0.000000 
#    y 0.000000 2.313170 0.000000 
#    z 0.000000 0.000000 2.237560 
# 
# From -- ./inp_files/7272.got.cif
#   From: 2010.05.17/outbox.cif.g08.bks.cpg/sg24_4_cif.got.tgz:7272.got - 2010.06.04 00:33:39.
