data_PCOD9333530
_publ_section_title
;
Structure prediction by ZEFSAII (Michael W. Deem and Ramdas Pophale) SiO2 
 PCOD9333530
Probable space group: I 21 21 21
;
_chemical_formula_sum "Si O2"
_cell_formula_units_Z 40
_cell_length_a 13.562944
_cell_length_b 29.077025
_cell_length_c 5.013839
_cell_angle_alpha 90.000000
_cell_angle_beta 90.000000
_cell_angle_gamma 90.000000
_cell_volume 1977.307996
_symmetry_space_group_name_H-M "I 21 21 21"
_symmetry_group_IT_number 24
_symmetry_cell_setting 'orthorhombic'
loop_
_space_group_symop_operation_xyz
x,y,z
-x,1/2-y,z
x,-y,1/2-z
1/2-x,y,-z
1/2+x,1/2+y,1/2+z
1/2-x,-y,1/2+z
1/2+x,1/2-y,-z
-x,1/2+y,1/2-z
loop_
_atom_site_type_symbol
_atom_site_label
_atom_site_fract_x
_atom_site_fract_y
_atom_site_fract_z
Si Si1 0.250000 0.262761 0.500000
Si Si2 0.250000 0.803902 0.500000
Si Si3 0.981168 0.046809 0.142322
Si Si4 0.650249 0.064917 0.353833
Si Si5 0.545925 0.646474 0.599664
Si Si6 0.915538 0.164551 0.615509
O O1 0.260824 0.229769 0.249100
O O2 0.154586 0.295605 0.508395
O O3 0.345324 0.834709 0.559803
O O4 0.928682 0.060578 0.414224
O O5 0.042163 0.091145 0.047762
O O6 0.032258 0.000000 0.250000
O O7 0.894637 0.042152 0.915241
O O8 0.750000 0.048684 0.500000
O O9 0.652946 0.120083 0.311055
O O10 0.475537 0.672091 0.387105
O O11 0.497401 0.654725 0.888551
#
# Coordination Sequence:
#
# PCOD9333530 Si02
#       6
#     4   4   8   8   8   8
#     4  12  24  38  64  93 124 155 214 246 296 394
#     4  12  26  40  60  91 118 163 212 268 302 350
#     4  10  21  36  58  84 114 155 199 245 297 364
#     4  10  19  34  56  84 121 157 190 236 299 361
#     4  10  23  41  61  84 125 161 199 256 316 351
#     4  10  21  39  61  88 121 166 196 246 307 370
#
# _framework density 20.229524999999999
#
# number of rings (size 3 to 8) (size 9 to 14) (size 15 to 20)
#    0.000    1.600    1.000    3.600    0.000    6.400 
#    0.000    0.000    0.000    8.400    0.000    0.000 
#    0.000    0.000    0.000    0.000    0.000    0.000 
#
# Total GULP energy -111478.549471 kJ/mol
# GULP energy per Si atom -5573.927474 kJ/mol
# Density = 2.018348 g / cm^3
# Si number density = 20.229525 Si / 1000 Ang^3
#
#
#
# Elastic Constant Matrix: (Units=GPa)
#
#
# Indices 1 2 3 4 5 6 
#
# 1 74.9294 54.4020 9.5871 0.0122 -0.0093 -0.1000
# 2 54.4020 113.0798 19.7312 -0.0060 0.0196 0.0896
# 3 9.5871 19.7312 110.8800 -0.0807 0.0277 0.7028
# 4 0.0122 -0.0060 -0.0807 35.2364 0.0156 0.1036
# 5 -0.0093 0.0196 0.0277 0.0156 16.5092 0.1250
# 6 -0.1000 0.0896 0.7028 0.1036 0.1250 -65.7026
#
#
#
# Elastic Compliance Matrix: (Units=1/GPa)
#
#
# Indices 1 2 3 4 5 6 
#
# 1 0.020510 -0.009864 -0.000018 -0.000009 0.000024 -0.000045
# 2 -0.009864 0.013871 -0.001616 0.000002 -0.000019 0.000017
# 3 -0.000018 -0.001616 0.009307 0.000021 -0.000014 0.000097
# 4 -0.000009 0.000002 0.000021 0.028380 -0.000027 0.000045
# 5 0.000024 -0.000019 -0.000014 -0.000027 0.060571 0.000115
# 6 -0.000045 0.000017 0.000097 0.000045 0.000115 -0.015219
#
#
# Mechanical properties :
#
#
# Convention : Reuss Voigt Hill
#
# Bulk Modulus (GPa) = 48.32531 51.81441 50.06986
# Shear Modulus (GPa) = 33.94147 11.55321 22.74734
#
# Velocity S-wave (km/s) = 4.10056 2.39238 3.35694
# Velocity P-wave (km/s) = 6.80881 5.77063 6.31110
#
# Compressibility (1/GPa) = 0.02069309
#
# Stress axis : x y z
#
# Youngs Moduli (GPa) = 48.75713 72.09429 107.44386
#
# Poissons Ratio (x) = 0.71114 0.00191
# Poissons Ratio (y) = 0.48094 0.17358
# Poissons Ratio (z) = 0.00087 0.11647
#
# Static dielectric constant tensor:
#      x y z
#    x 1.686370 0.000060 0.000070 
#    y 0.000060 1.886080 -0.000120 
#    z 0.000070 -0.000120 1.686950 
# 
# From -- ./inp_files/2673.got.cif
#   From: 2010.05.17/outbox.cif.g08.bks.cpg/sg24_2_cif.got.tgz:2673.got - 2010.06.04 00:33:39.
