data_PCOD9333272
_publ_section_title
;
Structure prediction by ZEFSAII (Michael W. Deem and Ramdas Pophale) SiO2 
 PCOD9333272
Probable space group: I 21 21 21
;
_chemical_formula_sum "Si O2"
_cell_formula_units_Z 48
_cell_length_a 10.812633
_cell_length_b 23.235088
_cell_length_c 9.677194
_cell_angle_alpha 90.000000
_cell_angle_beta 90.000000
_cell_angle_gamma 90.000000
_cell_volume 2431.225441
_symmetry_space_group_name_H-M "I 21 21 21"
_symmetry_group_IT_number 24
_symmetry_cell_setting 'orthorhombic'
loop_
_space_group_symop_operation_xyz
x,y,z
-x,1/2-y,z
x,-y,1/2-z
1/2-x,y,-z
1/2+x,1/2+y,1/2+z
1/2-x,-y,1/2+z
1/2+x,1/2-y,-z
-x,1/2+y,1/2-z
loop_
_atom_site_type_symbol
_atom_site_label
_atom_site_fract_x
_atom_site_fract_y
_atom_site_fract_z
Si Si1 0.536529 0.063404 0.804860
Si Si2 0.313269 0.273096 0.644629
Si Si3 0.615979 0.549795 0.435011
Si Si4 0.219983 0.389076 0.665800
Si Si5 0.935952 0.417099 0.640363
Si Si6 0.573915 0.339993 0.623310
O O1 0.676619 0.077994 0.755916
O O2 0.448973 0.106834 0.722522
O O3 0.509260 0.000000 0.750000
O O4 0.496825 0.067843 0.964085
O O5 0.250000 0.261337 0.500000
O O6 0.229958 0.322235 0.714624
O O7 0.441756 0.306790 0.615714
O O8 0.340576 0.208668 0.693460
O O9 0.750000 0.556878 0.500000
O O10 0.595635 0.481239 0.411839
O O11 0.620147 0.584931 0.292523
O O12 0.250000 0.391106 0.500000
O O13 0.082693 0.412953 0.669159
O O14 0.899702 0.368463 0.527271
#
# Coordination Sequence:
#
# PCOD9333272 Si02
#       6
#     8   8   8   8   8   8
#     4  11  21  37  63  89 132 162 210 259 315 381
#     4   9  17  32  58  94 122 146 209 267 300 360
#     4  11  27  41  56  92 134 174 217 246 306 406
#     4  10  18  38  63  98 126 153 210 278 318 366
#     4  11  22  41  63  88 132 169 208 265 316 369
#     4  10  19  34  62  92 119 165 201 257 319 359
#
# _framework density 19.743131000000002
#
# number of rings (size 3 to 8) (size 9 to 14) (size 15 to 20)
#    0.000    1.667    6.667    0.000    4.667    2.667 
#    0.000    0.000    0.000    8.000    0.000    0.000 
#    0.000    0.000    0.000    0.000    0.000    0.000 
#
# Total GULP energy -133671.038964 kJ/mol
# GULP energy per Si atom -5569.626623 kJ/mol
# Density = 1.969819 g / cm^3
# Si number density = 19.743131 Si / 1000 Ang^3
#
#
#
# Elastic Constant Matrix: (Units=GPa)
#
#
# Indices 1 2 3 4 5 6 
#
# 1 64.6266 1.0963 20.8063 0.0000 0.0000 0.0000
# 2 1.0963 98.8975 20.4426 0.0000 0.0000 0.0000
# 3 20.8063 20.4426 85.3203 -0.0003 0.0003 -0.0001
# 4 0.0000 0.0000 -0.0003 45.0530 0.0000 0.0000
# 5 0.0000 0.0000 0.0003 0.0000 24.8875 0.0000
# 6 0.0000 0.0000 -0.0001 0.0000 0.0000 30.2922
#
#
#
# Elastic Compliance Matrix: (Units=1/GPa)
#
#
# Indices 1 2 3 4 5 6 
#
# 1 0.016837 0.000697 -0.004273 0.000000 0.000000 0.000000
# 2 0.000697 0.010667 -0.002726 0.000000 0.000000 0.000000
# 3 -0.004273 -0.002726 0.013416 0.000000 0.000000 0.000000
# 4 0.000000 0.000000 0.000000 0.022196 0.000000 0.000000
# 5 0.000000 0.000000 0.000000 0.000000 0.040181 0.000000
# 6 0.000000 0.000000 0.000000 0.000000 0.000000 0.033012
#
#
# Mechanical properties :
#
#
# Convention : Reuss Voigt Hill
#
# Bulk Modulus (GPa) = 35.31558 37.05943 36.18750
# Shear Modulus (GPa) = 31.57530 33.81313 32.69421
#
# Velocity S-wave (km/s) = 4.00347 4.14291 4.07379
# Velocity P-wave (km/s) = 6.26871 6.45728 6.36369
#
# Compressibility (1/GPa) = 0.02831611
#
# Stress axis : x y z
#
# Youngs Moduli (GPa) = 59.39182 93.74553 74.54011
#
# Poissons Ratio (x) = -0.06530 0.31850
# Poissons Ratio (y) = -0.04137 0.20317
# Poissons Ratio (z) = 0.25377 0.25552
#
# Static dielectric constant tensor:
#      x y z
#    x 1.742180 0.000000 0.000000 
#    y 0.000000 1.749080 0.000000 
#    z 0.000000 0.000000 1.705410 
# 
# From -- ./inp_files/11285.got.cif
#   From: 2010.05.17/outbox.cif.g08.bks.cpg/sg24_6_cif.got.tgz:11285.got - 2010.06.04 00:33:39.
