data_PCOD9333701
_publ_section_title
;
Structure prediction by ZEFSAII (Michael W. Deem and Ramdas Pophale) SiO2 
 PCOD9333701
Probable space group: I 21 21 21
;
_chemical_formula_sum "Si O2"
_cell_formula_units_Z 64
_cell_length_a 9.246971
_cell_length_b 16.994769
_cell_length_c 20.911709
_cell_angle_alpha 90.000000
_cell_angle_beta 90.000000
_cell_angle_gamma 90.000000
_cell_volume 3286.277915
_symmetry_space_group_name_H-M "I 21 21 21"
_symmetry_group_IT_number 24
_symmetry_cell_setting 'orthorhombic'
loop_
_space_group_symop_operation_xyz
x,y,z
-x,1/2-y,z
x,-y,1/2-z
1/2-x,y,-z
1/2+x,1/2+y,1/2+z
1/2-x,-y,1/2+z
1/2+x,1/2-y,-z
-x,1/2+y,1/2-z
loop_
_atom_site_type_symbol
_atom_site_label
_atom_site_fract_x
_atom_site_fract_y
_atom_site_fract_z
Si Si1 0.193001 0.839797 0.739908
Si Si2 0.980800 0.842915 0.856243
Si Si3 0.600661 0.445355 0.687926
Si Si4 0.209874 0.698102 0.571350
Si Si5 0.857766 0.198222 0.193846
Si Si6 0.716765 0.929930 0.794040
Si Si7 0.896749 0.369904 0.899311
Si Si8 0.185849 0.040501 0.568488
O O1 0.062380 0.848657 0.788276
O O2 0.332158 0.865098 0.782049
O O3 0.222536 0.751919 0.715750
O O4 0.155408 0.883744 0.673907
O O5 0.063951 0.898835 0.906359
O O6 0.000000 0.750000 0.874153
O O7 0.824870 0.881494 0.839588
O O8 0.628151 0.500000 0.750000
O O9 0.431634 0.454797 0.670929
O O10 0.693193 0.460771 0.624479
O O11 0.250000 0.675685 0.500000
O O12 0.334007 0.675080 0.620850
O O13 0.188932 0.793099 0.575126
O O14 0.063037 0.657069 0.595431
O O15 0.852581 0.126260 0.240589
O O16 0.000000 0.250000 0.198282
O O17 0.783986 0.000000 0.750000
O O18 0.873008 0.451252 0.935791
O O19 0.250000 0.064187 0.500000
#
# Coordination Sequence:
#
# PCOD9333701 Si02
#       8
#     8   8   8   8   8   8   8   8
#     4  10  19  36  63  92 121 167 214 254 315 394
#     4  11  24  41  68  93 130 170 221 276 343 404
#     4  10  20  40  64  96 127 161 212 266 329 390
#     4  10  23  37  55  90 132 180 217 256 322 406
#     4  11  21  36  62  90 132 171 212 269 329 391
#     4  11  24  38  62 101 134 158 210 286 345 385
#     4  10  21  39  64  87 128 174 223 265 316 400
#     4  11  25  45  69  94 126 175 229 273 335 409
#
# _framework density 19.474919
#
# number of rings (size 3 to 8) (size 9 to 14) (size 15 to 20)
#    0.000    1.500    3.750    1.125    7.000    0.000 
#    4.500    1.875    0.000    0.000    0.000    0.000 
#    0.000    0.000    0.000    0.000    0.000    0.000 
#
# Total GULP energy -178355.480098 kJ/mol
# GULP energy per Si atom -5573.608753 kJ/mol
# Density = 1.943059 g / cm^3
# Si number density = 19.474919 Si / 1000 Ang^3
#
#
#
# Elastic Constant Matrix: (Units=GPa)
#
#
# Indices 1 2 3 4 5 6 
#
# 1 87.0342 34.9404 44.3712 0.0000 0.0000 0.0000
# 2 34.9404 63.3919 26.4401 0.0000 0.0000 0.0000
# 3 44.3712 26.4401 106.8852 0.0000 0.0000 0.0000
# 4 0.0000 0.0000 0.0000 17.9065 0.0000 0.0000
# 5 0.0000 0.0000 0.0000 0.0000 19.8549 0.0000
# 6 0.0000 0.0000 0.0000 0.0000 0.0000 18.3165
#
#
#
# Elastic Compliance Matrix: (Units=1/GPa)
#
#
# Indices 1 2 3 4 5 6 
#
# 1 0.017090 -0.007204 -0.005313 0.000000 0.000000 0.000000
# 2 -0.007204 0.020626 -0.002112 0.000000 0.000000 0.000000
# 3 -0.005313 -0.002112 0.012084 0.000000 0.000000 0.000000
# 4 0.000000 0.000000 0.000000 0.055846 0.000000 0.000000
# 5 0.000000 0.000000 0.000000 0.000000 0.050365 0.000000
# 6 0.000000 0.000000 0.000000 0.000000 0.000000 0.054596
#
#
# Mechanical properties :
#
#
# Convention : Reuss Voigt Hill
#
# Bulk Modulus (GPa) = 48.67704 52.09053 50.38378
# Shear Modulus (GPa) = 20.26659 21.31955 20.79307
#
# Velocity S-wave (km/s) = 3.22941 3.31224 3.27109
# Velocity P-wave (km/s) = 6.24135 6.43689 6.33987
#
# Compressibility (1/GPa) = 0.02054357
#
# Stress axis : x y z
#
# Youngs Moduli (GPa) = 58.51284 48.48161 82.75646
#
# Poissons Ratio (x) = 0.34926 0.43965
# Poissons Ratio (y) = 0.42153 0.17476
# Poissons Ratio (z) = 0.31086 0.10238
#
# Static dielectric constant tensor:
#      x y z
#    x 1.737170 0.000000 0.000000 
#    y 0.000000 1.738860 0.000000 
#    z 0.000000 0.000000 1.664130 
# 
# From -- ./inp_files/32941.got.cif
#   From: 2010.05.17/outbox.cif.g08.bks.cpg/sg24_17_cif.got.tgz:32941.got - 2010.06.04 00:33:39.
