data_PCOD9333859
_publ_section_title
;
Structure prediction by ZEFSAII (Michael W. Deem and Ramdas Pophale) SiO2 
 PCOD9333859
Probable space group: I 21 21 21
;
_chemical_formula_sum "Si O2"
_cell_formula_units_Z 44
_cell_length_a 7.711769
_cell_length_b 15.474583
_cell_length_c 16.621130
_cell_angle_alpha 90.000000
_cell_angle_beta 90.000000
_cell_angle_gamma 90.000000
_cell_volume 1983.505975
_symmetry_space_group_name_H-M "I 21 21 21"
_symmetry_group_IT_number 24
_symmetry_cell_setting 'orthorhombic'
loop_
_space_group_symop_operation_xyz
x,y,z
-x,1/2-y,z
x,-y,1/2-z
1/2-x,y,-z
1/2+x,1/2+y,1/2+z
1/2-x,-y,1/2+z
1/2+x,1/2-y,-z
-x,1/2+y,1/2-z
loop_
_atom_site_type_symbol
_atom_site_label
_atom_site_fract_x
_atom_site_fract_y
_atom_site_fract_z
Si Si1 0.696718 0.724706 0.592185
Si Si2 0.859671 0.060308 0.670396
Si Si3 0.726212 0.579279 0.811384
Si Si4 0.889352 0.461562 0.065452
Si Si5 0.200101 0.264759 0.740477
Si Si6 0.750000 0.022777 0.000000
O O1 0.500000 0.750000 0.602664
O O2 0.750000 0.739680 0.500000
O O3 0.701489 0.621394 0.606671
O O4 0.794785 0.774770 0.662614
O O5 0.758172 0.147990 0.693814
O O6 0.802085 0.025690 0.583083
O O7 0.069107 0.074012 0.664755
O O8 0.833678 0.000000 0.750000
O O9 0.704085 0.500000 0.750000
O O10 0.597290 0.546373 0.880542
O O11 0.697836 0.677284 0.782106
O O12 0.071012 0.431379 0.027067
O O13 0.750000 0.487412 0.000000
O O14 0.000000 0.250000 0.719887
#
# Coordination Sequence:
#
# PCOD9333859 Si02
#       6
#     8   8   8   8   8   4
#     4  11  25  39  62  98 137 179 229 290 361 429
#     4  10  24  42  69 102 142 181 236 293 357 422
#     4  10  19  43  70  97 135 188 230 288 353 427
#     4  11  24  43  68 100 136 183 233 286 357 426
#     4  10  22  42  68  98 137 182 234 292 355 422
#     4  12  26  44  72 106 136 182 240 298 352 430
#
# _framework density 22.182943999999999
#
# number of rings (size 3 to 8) (size 9 to 14) (size 15 to 20)
#    0.000    1.455    3.636    0.545    3.818    2.182 
#    1.636    0.000    0.000    0.000    0.000    0.000 
#    0.000    0.000    0.000    0.000    0.000    0.000 
#
# Total GULP energy -122652.549835 kJ/mol
# GULP energy per Si atom -5575.115902 kJ/mol
# Density = 2.213245 g / cm^3
# Si number density = 22.182944 Si / 1000 Ang^3
#
#
#
# Elastic Constant Matrix: (Units=GPa)
#
#
# Indices 1 2 3 4 5 6 
#
# 1 49.0699 5.5582 4.4151 0.0000 0.0000 0.0000
# 2 5.5582 82.4610 44.5545 0.0000 0.0000 0.0000
# 3 4.4151 44.5545 104.0058 0.0000 0.0000 0.0000
# 4 0.0000 0.0000 0.0000 25.8100 0.0000 0.0000
# 5 0.0000 0.0000 0.0000 0.0000 35.6116 0.0000
# 6 0.0000 0.0000 0.0000 0.0000 0.0000 16.8064
#
#
#
# Elastic Compliance Matrix: (Units=1/GPa)
#
#
# Indices 1 2 3 4 5 6 
#
# 1 0.020546 -0.001189 -0.000363 0.000000 0.000000 0.000000
# 2 -0.001189 0.015848 -0.006739 0.000000 0.000000 0.000000
# 3 -0.000363 -0.006739 0.012517 0.000000 0.000000 0.000000
# 4 0.000000 0.000000 0.000000 0.038745 0.000000 0.000000
# 5 0.000000 0.000000 0.000000 0.000000 0.028081 0.000000
# 6 0.000000 0.000000 0.000000 0.000000 0.000000 0.059501
#
#
# Mechanical properties :
#
#
# Convention : Reuss Voigt Hill
#
# Bulk Modulus (GPa) = 30.93034 38.28803 34.60919
# Shear Modulus (GPa) = 24.67972 27.71286 26.19629
#
# Velocity S-wave (km/s) = 3.33912 3.53836 3.44018
# Velocity P-wave (km/s) = 5.37027 5.83017 5.60494
#
# Compressibility (1/GPa) = 0.03233071
#
# Stress axis : x y z
#
# Youngs Moduli (GPa) = 48.67032 63.09940 79.89161
#
# Poissons Ratio (x) = 0.07501 0.02899
# Poissons Ratio (y) = 0.05786 0.53836
# Poissons Ratio (z) = 0.01766 0.42520
#
# Static dielectric constant tensor:
#      x y z
#    x 1.804930 0.000000 0.000000 
#    y 0.000000 1.884460 0.000000 
#    z 0.000000 0.000000 1.876000 
# 
# From -- ./inp_files/24705.got.cif
#   From: 2010.05.17/outbox.cif.g08.bks.cpg/sg24_13_cif.got.tgz:24705.got - 2010.06.04 00:33:39.
