data_PCOD9333003
_publ_section_title
;
Structure prediction by ZEFSAII (Michael W. Deem and Ramdas Pophale) SiO2 
 PCOD9333003
Probable space group: I 21 21 21
;
_chemical_formula_sum "Si O2"
_cell_formula_units_Z 48
_cell_length_a 19.000577
_cell_length_b 16.532227
_cell_length_c 8.670499
_cell_angle_alpha 90.000000
_cell_angle_beta 90.000000
_cell_angle_gamma 90.000000
_cell_volume 2723.593204
_symmetry_space_group_name_H-M "I 21 21 21"
_symmetry_group_IT_number 24
_symmetry_cell_setting 'orthorhombic'
loop_
_space_group_symop_operation_xyz
x,y,z
-x,1/2-y,z
x,-y,1/2-z
1/2-x,y,-z
1/2+x,1/2+y,1/2+z
1/2-x,-y,1/2+z
1/2+x,1/2-y,-z
-x,1/2+y,1/2-z
loop_
_atom_site_type_symbol
_atom_site_label
_atom_site_fract_x
_atom_site_fract_y
_atom_site_fract_z
Si Si1 0.540934 0.167036 0.125549
Si Si2 0.451579 0.826444 0.888794
Si Si3 0.170655 0.737609 0.299490
Si Si4 0.575160 0.091083 0.803099
Si Si5 0.329720 0.762898 0.329679
Si Si6 0.413011 0.091327 0.300329
O O1 0.500000 0.250000 0.072103
O O2 0.609755 0.198621 0.215285
O O3 0.487444 0.118598 0.229848
O O4 0.561103 0.110225 0.982810
O O5 0.500000 0.750000 0.947464
O O6 0.385624 0.792976 0.790264
O O7 0.506177 0.875211 0.783238
O O8 0.421134 0.884232 0.021396
O O9 0.142069 0.647703 0.267874
O O10 0.252825 0.746055 0.262891
O O11 0.168030 0.756909 0.483365
O O12 0.586401 0.000000 0.750000
O O13 0.355194 0.850025 0.274653
O O14 0.399194 0.000000 0.250000
#
# Coordination Sequence:
#
# PCOD9333003 Si02
#       6
#     8   8   8   8   8   8
#     4   9  17  33  55  73  98 139 173 199 250 317
#     4  10  19  32  52  78 105 134 169 209 255 304
#     4   9  19  35  55  74  99 137 175 204 247 312
#     4  10  18  31  53  80 102 126 168 220 256 290
#     4   9  18  36  55  71  98 139 174 199 247 319
#     4  11  21  33  50  76 104 131 169 217 257 296
#
# _framework density 17.623777
#
# number of rings (size 3 to 8) (size 9 to 14) (size 15 to 20)
#    0.000    2.333    0.000    6.000    0.000    0.667 
#    0.000    5.000    0.000   14.000    0.000    0.000 
#    0.000    0.000    0.000    0.000    0.000    0.000 
#
# Total GULP energy -133750.748356 kJ/mol
# GULP energy per Si atom -5572.947848 kJ/mol
# Density = 1.758366 g / cm^3
# Si number density = 17.623777 Si / 1000 Ang^3
#
#
#
# Elastic Constant Matrix: (Units=GPa)
#
#
# Indices 1 2 3 4 5 6 
#
# 1 159.7780 80.7586 32.0945 0.0000 0.0000 0.0000
# 2 80.7586 128.4998 50.6149 0.0000 0.0000 0.0000
# 3 32.0945 50.6149 42.7274 0.0000 0.0000 0.0000
# 4 0.0000 0.0000 0.0000 19.5267 0.0000 0.0000
# 5 0.0000 0.0000 0.0000 0.0000 14.1372 0.0000
# 6 0.0000 0.0000 0.0000 0.0000 0.0000 8.8994
#
#
#
# Elastic Compliance Matrix: (Units=1/GPa)
#
#
# Indices 1 2 3 4 5 6 
#
# 1 0.009173 -0.005720 -0.000114 0.000000 0.000000 0.000000
# 2 -0.005720 0.018156 -0.017212 0.000000 0.000000 0.000000
# 3 -0.000114 -0.017212 0.043879 0.000000 0.000000 0.000000
# 4 0.000000 0.000000 0.000000 0.051212 0.000000 0.000000
# 5 0.000000 0.000000 0.000000 0.000000 0.070735 0.000000
# 6 0.000000 0.000000 0.000000 0.000000 0.000000 0.112367
#
#
# Mechanical properties :
#
#
# Convention : Reuss Voigt Hill
#
# Bulk Modulus (GPa) = 39.81452 73.10456 56.45954
# Shear Modulus (GPa) = 13.88944 19.68182 16.78563
#
# Velocity S-wave (km/s) = 2.81037 3.34545 3.08951
# Velocity P-wave (km/s) = 5.75946 7.51621 6.69570
#
# Compressibility (1/GPa) = 0.02511647
#
# Stress axis : x y z
#
# Youngs Moduli (GPa) = 109.01994 55.07748 22.78991
#
# Poissons Ratio (x) = 0.31502 0.00261
# Poissons Ratio (y) = 0.62356 0.39225
# Poissons Ratio (z) = 0.01248 0.94797
#
# Static dielectric constant tensor:
#      x y z
#    x 1.607500 0.000000 0.000000 
#    y 0.000000 1.595040 0.000000 
#    z 0.000000 0.000000 1.632370 
# 
# From -- ./inp_files/12770.got.cif
#   From: 2010.05.17/outbox.cif.g08.bks.cpg/sg24_7_cif.got.tgz:12770.got - 2010.06.04 00:33:39.
