data_PCOD9333376
_publ_section_title
;
Structure prediction by ZEFSAII (Michael W. Deem and Ramdas Pophale) SiO2 
 PCOD9333376
Probable space group: I 21 21 21
;
_chemical_formula_sum "Si O2"
_cell_formula_units_Z 40
_cell_length_a 5.075366
_cell_length_b 24.509419
_cell_length_c 12.888665
_cell_angle_alpha 90.000000
_cell_angle_beta 90.000000
_cell_angle_gamma 90.000000
_cell_volume 1603.276098
_symmetry_space_group_name_H-M "I 21 21 21"
_symmetry_group_IT_number 24
_symmetry_cell_setting 'orthorhombic'
loop_
_space_group_symop_operation_xyz
x,y,z
-x,1/2-y,z
x,-y,1/2-z
1/2-x,y,-z
1/2+x,1/2+y,1/2+z
1/2-x,-y,1/2+z
1/2+x,1/2-y,-z
-x,1/2+y,1/2-z
loop_
_atom_site_type_symbol
_atom_site_label
_atom_site_fract_x
_atom_site_fract_y
_atom_site_fract_z
Si Si1 0.686918 0.478734 0.865368
Si Si2 0.694315 0.087027 0.157483
Si Si3 0.434756 0.422909 0.397299
Si Si4 0.120962 0.308594 0.609394
Si Si5 0.262505 0.712171 0.667486
O O1 0.649186 0.500000 0.750000
O O2 0.407347 0.453028 0.895471
O O3 0.897255 0.429739 0.868749
O O4 0.853277 0.529902 0.907243
O O5 0.711063 0.075027 0.283942
O O6 0.738137 0.150253 0.126829
O O7 0.250000 0.426252 0.500000
O O8 0.561084 0.362253 0.383101
O O9 0.250000 0.317288 0.500000
O O10 0.303617 0.302615 0.710196
O O11 0.000000 0.250000 0.602949
O O12 0.500000 0.750000 0.628566
O O13 0.000000 0.750000 0.659302
#
# Coordination Sequence:
#
# PCOD9333376 Si02
#       5
#     8   8   8   8   8
#     4  10  19  35  53  74 105 148 191 234 289 339
#     4  10  20  35  54  76 109 149 186 231 290 342
#     4   9  19  35  54  79 111 150 202 248 283 336
#     4   9  17  30  46  71 106 147 189 233 278 320
#     4  10  19  31  49  74 102 136 181 228 270 327
#
# _framework density 24.948913000000001
#
# number of rings (size 3 to 8) (size 9 to 14) (size 15 to 20)
#    0.000    2.400    0.000    3.600    0.000    1.600 
#    0.000   13.000    0.000    0.000    0.000    0.000 
#    0.000    4.800    0.000   15.200    0.000   16.000 
#
# Total GULP energy -111506.393426 kJ/mol
# GULP energy per Si atom -5575.319671 kJ/mol
# Density = 2.489213 g / cm^3
# Si number density = 24.948913 Si / 1000 Ang^3
#
#
#
# Elastic Constant Matrix: (Units=GPa)
#
#
# Indices 1 2 3 4 5 6 
#
# 1 124.3262 62.7752 17.9587 0.0000 0.0000 0.0000
# 2 62.7752 225.0226 15.9960 0.0000 0.0000 0.0000
# 3 17.9587 15.9960 86.5274 0.0000 0.0000 0.0000
# 4 0.0000 0.0000 0.0000 29.8888 0.0000 0.0000
# 5 0.0000 0.0000 0.0000 0.0000 20.3115 0.0000
# 6 0.0000 0.0000 0.0000 0.0000 0.0000 -33.5993
#
#
#
# Elastic Compliance Matrix: (Units=1/GPa)
#
#
# Indices 1 2 3 4 5 6 
#
# 1 0.009553 -0.002558 -0.001510 0.000000 0.000000 0.000000
# 2 -0.002558 0.005188 -0.000428 0.000000 0.000000 0.000000
# 3 -0.001510 -0.000428 0.011950 0.000000 0.000000 0.000000
# 4 0.000000 0.000000 0.000000 0.033457 0.000000 0.000000
# 5 0.000000 0.000000 0.000000 0.000000 0.049233 0.000000
# 6 0.000000 0.000000 0.000000 0.000000 0.000000 -0.029763
#
#
# Mechanical properties :
#
#
# Convention : Reuss Voigt Hill
#
# Bulk Modulus (GPa) = 56.50079 69.92624 63.21352
# Shear Modulus (GPa) = 52.90474 25.92997 39.41735
#
# Velocity S-wave (km/s) = 4.60991 3.22735 3.97914
# Velocity P-wave (km/s) = 7.14358 6.47891 6.81935
#
# Compressibility (1/GPa) = 0.01769887
#
# Stress axis : x y z
#
# Youngs Moduli (GPa) = 104.68051 192.75407 83.68499
#
# Poissons Ratio (x) = 0.49300 0.12635
# Poissons Ratio (y) = 0.26774 0.03584
# Poissons Ratio (z) = 0.15805 0.08254
#
# Static dielectric constant tensor:
#      x y z
#    x 1.940290 0.000000 0.000000 
#    y 0.000000 2.124740 0.000000 
#    z 0.000000 0.000000 5.617040 
# 
# From -- ./inp_files/23727.got.cif
#   From: 2010.05.17/outbox.cif.g08.bks.cpg/sg24_12_cif.got.tgz:23727.got - 2010.06.04 00:33:39.
