data_PCOD9333596
_publ_section_title
;
Structure prediction by ZEFSAII (Michael W. Deem and Ramdas Pophale) SiO2 
 PCOD9333596
Probable space group: I 21 21 21
;
_chemical_formula_sum "Si O2"
_cell_formula_units_Z 36
_cell_length_a 25.593414
_cell_length_b 14.393333
_cell_length_c 4.949629
_cell_angle_alpha 90.000000
_cell_angle_beta 90.000000
_cell_angle_gamma 90.000000
_cell_volume 1823.317258
_symmetry_space_group_name_H-M "I 21 21 21"
_symmetry_group_IT_number 24
_symmetry_cell_setting 'orthorhombic'
loop_
_space_group_symop_operation_xyz
x,y,z
-x,1/2-y,z
x,-y,1/2-z
1/2-x,y,-z
1/2+x,1/2+y,1/2+z
1/2-x,-y,1/2+z
1/2+x,1/2-y,-z
-x,1/2+y,1/2-z
loop_
_atom_site_type_symbol
_atom_site_label
_atom_site_fract_x
_atom_site_fract_y
_atom_site_fract_z
Si Si1 0.911641 0.401673 0.114258
Si Si2 0.056440 0.789642 0.891640
Si Si3 0.163371 0.690751 0.854124
Si Si4 0.803487 0.307295 0.140657
Si Si5 0.285681 0.500000 0.250000
O O1 0.923694 0.500000 0.250000
O O2 0.940410 0.327381 0.304955
O O3 0.849307 0.383518 0.135158
O O4 0.927882 0.374028 0.810868
O O5 0.102008 0.712341 0.877636
O O6 0.000000 0.750000 0.825130
O O7 0.178785 0.725473 0.558782
O O8 0.180666 0.584639 0.870902
O O9 0.193366 0.758151 0.066729
O O10 0.750000 0.341649 0.000000
O O11 0.250000 0.533880 0.500000
#
# Coordination Sequence:
#
# PCOD9333596 Si02
#       5
#     8   8   8   8   4
#     4  10  21  38  59  89 116 147 193 241 287 349
#     4  10  21  40  63  80 116 155 194 244 299 346
#     4  10  21  35  54  82 111 147 197 230 280 353
#     4  10  19  35  57  79 112 153 183 224 284 346
#     4  12  22  34  54  80 118 150 186 242 288 340
#
# _framework density 19.744232
#
# number of rings (size 3 to 8) (size 9 to 14) (size 15 to 20)
#    0.000    1.778    0.000    5.333    0.000    0.000 
#    4.000    6.667    0.000    0.000    0.000    0.000 
#    0.000    0.000    0.000    0.000    0.000    0.000 
#
# Total GULP energy -100380.218198 kJ/mol
# GULP energy per Si atom -5576.678789 kJ/mol
# Density = 1.969929 g / cm^3
# Si number density = 19.744232 Si / 1000 Ang^3
#
#
#
# Elastic Constant Matrix: (Units=GPa)
#
#
# Indices 1 2 3 4 5 6 
#
# 1 131.2763 30.6575 15.3245 0.0000 0.0000 0.0000
# 2 30.6575 39.2148 -2.5948 0.0000 0.0000 0.0000
# 3 15.3245 -2.5948 72.7977 0.0000 0.0000 0.0000
# 4 0.0000 0.0000 0.0000 13.2292 0.0000 0.0000
# 5 0.0000 0.0000 0.0000 0.0000 25.5461 0.0000
# 6 0.0000 0.0000 0.0000 0.0000 0.0000 8.7749
#
#
#
# Elastic Compliance Matrix: (Units=1/GPa)
#
#
# Indices 1 2 3 4 5 6 
#
# 1 0.009693 -0.007731 -0.002316 0.000000 0.000000 0.000000
# 2 -0.007731 0.031727 0.002758 0.000000 0.000000 0.000000
# 3 -0.002316 0.002758 0.014323 0.000000 0.000000 0.000000
# 4 0.000000 0.000000 0.000000 0.075591 0.000000 0.000000
# 5 0.000000 0.000000 0.000000 0.000000 0.039145 0.000000
# 6 0.000000 0.000000 0.000000 0.000000 0.000000 0.113962
#
#
# Mechanical properties :
#
#
# Convention : Reuss Voigt Hill
#
# Bulk Modulus (GPa) = 24.29242 36.67372 30.48307
# Shear Modulus (GPa) = 15.98770 22.83680 19.41225
#
# Velocity S-wave (km/s) = 2.84868 3.40462 3.13898
# Velocity P-wave (km/s) = 4.81147 5.83695 5.34884
#
# Compressibility (1/GPa) = 0.04116511
#
# Stress axis : x y z
#
# Youngs Moduli (GPa) = 103.16242 31.51851 69.81981
#
# Poissons Ratio (x) = 0.24368 0.16171
# Poissons Ratio (y) = 0.79759 -0.19259
# Poissons Ratio (z) = 0.23894 -0.08694
#
# Static dielectric constant tensor:
#      x y z
#    x 1.719790 0.000000 0.000000 
#    y 0.000000 1.681280 0.000000 
#    z 0.000000 0.000000 1.680640 
# 
# From -- ./inp_files/6178.got.cif
#   From: 2010.05.17/outbox.cif.g08.bks.cpg/sg24_4_cif.got.tgz:6178.got - 2010.06.04 00:33:39.
