data_PCOD9333152
_publ_section_title
;
Structure prediction by ZEFSAII (Michael W. Deem and Ramdas Pophale) SiO2 
 PCOD9333152
Probable space group: I 21 21 21
;
_chemical_formula_sum "Si O2"
_cell_formula_units_Z 48
_cell_length_a 19.409000
_cell_length_b 5.692635
_cell_length_c 21.685601
_cell_angle_alpha 90.000000
_cell_angle_beta 90.000000
_cell_angle_gamma 90.000000
_cell_volume 2396.006332
_symmetry_space_group_name_H-M "I 21 21 21"
_symmetry_group_IT_number 24
_symmetry_cell_setting 'orthorhombic'
loop_
_space_group_symop_operation_xyz
x,y,z
-x,1/2-y,z
x,-y,1/2-z
1/2-x,y,-z
1/2+x,1/2+y,1/2+z
1/2-x,-y,1/2+z
1/2+x,1/2-y,-z
-x,1/2+y,1/2-z
loop_
_atom_site_type_symbol
_atom_site_label
_atom_site_fract_x
_atom_site_fract_y
_atom_site_fract_z
Si Si1 0.460693 0.999313 0.004280
Si Si2 0.375699 0.092913 0.373753
Si Si3 0.653365 0.582862 0.915363
Si Si4 0.500000 0.250000 0.287359
Si Si5 0.250000 0.192522 0.000000
Si Si6 0.749099 0.642239 0.312580
Si Si7 0.754085 0.039849 0.609243
O O1 0.500000 0.750000 0.013397
O O2 0.413171 0.008002 0.066006
O O3 0.500000 0.250000 0.002576
O O4 0.423511 0.962175 0.937479
O O5 0.432880 0.211704 0.330292
O O6 0.315429 0.275169 0.391822
O O7 0.329076 0.909665 0.335617
O O8 0.692327 0.473849 0.973699
O O9 0.689682 0.456663 0.857190
O O10 0.680687 0.847431 0.909056
O O11 0.493062 0.500000 0.250000
O O12 0.228277 0.352351 0.943121
O O13 0.756978 0.500000 0.250000
O O14 0.753642 0.920453 0.323952
#
# Coordination Sequence:
#
# PCOD9333152 Si02
#       7
#     8   8   8   4   4   8   8
#     4  12  28  43  68  99 139 181 230 274 342 420
#     4  11  25  41  63  95 131 184 233 274 341 398
#     4  10  22  39  60  96 125 171 216 289 348 397
#     4  12  30  44  62  86 138 194 234 276 322 402
#     4  10  18  34  62  90 126 158 214 272 356 392
#     4  10  23  40  69  96 128 170 229 288 348 409
#     4  10  21  37  67  91 133 168 229 287 351 403
#
# _framework density 20.033335999999998
#
# number of rings (size 3 to 8) (size 9 to 14) (size 15 to 20)
#    0.000    1.333    0.833    5.000   15.167    2.000 
#    0.000    0.000    0.000    1.000    0.000    0.000 
#    0.000    0.000    0.000    0.000    0.000    0.000 
#
# Total GULP energy -133666.791857 kJ/mol
# GULP energy per Si atom -5569.449661 kJ/mol
# Density = 1.998774 g / cm^3
# Si number density = 20.033336 Si / 1000 Ang^3
#
#
#
# Elastic Constant Matrix: (Units=GPa)
#
#
# Indices 1 2 3 4 5 6 
#
# 1 66.3312 42.5916 64.9255 0.0000 0.0000 0.0000
# 2 42.5916 111.6165 41.6765 0.0000 0.0000 0.0000
# 3 64.9255 41.6765 94.9539 0.0000 0.0000 0.0000
# 4 0.0000 0.0000 0.0000 62.1093 0.0000 0.0000
# 5 0.0000 0.0000 0.0000 0.0000 24.1093 0.0000
# 6 0.0000 0.0000 0.0000 0.0000 0.0000 271.4424
#
#
#
# Elastic Compliance Matrix: (Units=1/GPa)
#
#
# Indices 1 2 3 4 5 6 
#
# 1 0.050482 -0.007624 -0.031171 0.000000 0.000000 0.000000
# 2 -0.007624 0.011867 0.000005 0.000000 0.000000 0.000000
# 3 -0.031171 0.000005 0.031843 0.000000 0.000000 0.000000
# 4 0.000000 0.000000 0.000000 0.016101 0.000000 0.000000
# 5 0.000000 0.000000 0.000000 0.000000 0.041478 0.000000
# 6 0.000000 0.000000 0.000000 0.000000 0.000000 0.003684
#
#
# Mechanical properties :
#
#
# Convention : Reuss Voigt Hill
#
# Bulk Modulus (GPa) = 60.20381 63.47654 61.84018
# Shear Modulus (GPa) = 20.95796 79.77941 50.36869
#
# Velocity S-wave (km/s) = 3.23794 6.31742 5.01966
# Velocity P-wave (km/s) = 6.64049 9.21777 8.03316
#
# Compressibility (1/GPa) = 0.01661024
#
# Stress axis : x y z
#
# Youngs Moduli (GPa) = 19.80897 84.26816 31.40419
#
# Poissons Ratio (x) = 0.64250 0.97890
# Poissons Ratio (y) = 0.15103 -0.00015
# Poissons Ratio (z) = 0.61747 -0.00040
#
# Static dielectric constant tensor:
#      x y z
#    x 1.652960 0.000000 0.000000 
#    y 0.000000 1.809730 0.000000 
#    z 0.000000 0.000000 1.674000 
# 
# From -- ./inp_files/35976.got.cif
#   From: 2010.05.17/outbox.cif.g08.bks.cpg/sg24_18_cif.got.tgz:35976.got - 2010.06.04 00:33:39.
