data_PCOD9333630
_publ_section_title
;
Structure prediction by ZEFSAII (Michael W. Deem and Ramdas Pophale) SiO2 
 PCOD9333630
Probable space group: I 21 21 21
;
_chemical_formula_sum "Si O2"
_cell_formula_units_Z 40
_cell_length_a 5.514621
_cell_length_b 18.211462
_cell_length_c 15.769404
_cell_angle_alpha 90.000000
_cell_angle_beta 90.000000
_cell_angle_gamma 90.000000
_cell_volume 1583.710375
_symmetry_space_group_name_H-M "I 21 21 21"
_symmetry_group_IT_number 24
_symmetry_cell_setting 'orthorhombic'
loop_
_space_group_symop_operation_xyz
x,y,z
-x,1/2-y,z
x,-y,1/2-z
1/2-x,y,-z
1/2+x,1/2+y,1/2+z
1/2-x,-y,1/2+z
1/2+x,1/2-y,-z
-x,1/2+y,1/2-z
loop_
_atom_site_type_symbol
_atom_site_label
_atom_site_fract_x
_atom_site_fract_y
_atom_site_fract_z
Si Si1 0.843605 0.607513 0.232945
Si Si2 0.001533 0.901897 0.041835
Si Si3 0.844951 0.908463 0.710574
Si Si4 0.997964 0.069504 0.975659
Si Si5 0.750622 0.251466 0.852350
O O1 0.564842 0.577764 0.222900
O O2 0.787544 0.680580 0.287763
O O3 0.966997 0.614976 0.141001
O O4 0.063069 0.566526 0.283428
O O5 0.750000 0.874645 0.000000
O O6 0.250000 0.873464 0.000000
O O7 0.999655 0.990373 0.023243
O O8 0.968548 0.937291 0.624596
O O9 0.792724 0.821597 0.703634
O O10 0.750000 0.109029 0.000000
O O11 0.250000 0.106022 0.000000
O O12 0.500000 0.250000 0.900680
O O13 0.000000 0.250000 0.902617
#
# Coordination Sequence:
#
# PCOD9333630 Si02
#       5
#     8   8   8   8   8
#     4  10  19  35  60  85 111 151 202 249 294 354
#     4  10  21  38  55  81 122 159 194 243 307 370
#     4  10  19  35  60  85 111 151 202 249 294 354
#     4  10  21  38  55  81 122 159 194 243 307 370
#     4   8  16  30  54  82 106 132 184 242 284 328
#
# _framework density 25.257142999999999
#
# number of rings (size 3 to 8) (size 9 to 14) (size 15 to 20)
#    0.000    2.400    0.000    2.400    0.000    0.000 
#    0.000   24.000    0.000   43.200    0.000    0.000 
#    0.000    0.000    0.000    0.000    0.000    0.000 
#
# Total GULP energy -111422.032522 kJ/mol
# GULP energy per Si atom -5571.101626 kJ/mol
# Density = 2.519966 g / cm^3
# Si number density = 25.257143 Si / 1000 Ang^3
#
#
#
# Elastic Constant Matrix: (Units=GPa)
#
#
# Indices 1 2 3 4 5 6 
#
# 1 343.6169 14.3023 50.7718 0.0000 0.0000 0.0000
# 2 14.3023 108.6181 20.2783 0.0000 0.0000 0.0000
# 3 50.7718 20.2783 124.9318 0.0000 0.0000 0.0000
# 4 0.0000 0.0000 0.0000 20.3294 0.0000 0.0000
# 5 0.0000 0.0000 0.0000 0.0000 58.4559 0.0000
# 6 0.0000 0.0000 0.0000 0.0000 0.0000 124.5318
#
#
#
# Elastic Compliance Matrix: (Units=1/GPa)
#
#
# Indices 1 2 3 4 5 6 
#
# 1 0.003099 -0.000178 -0.001231 0.000000 0.000000 0.000000
# 2 -0.000178 0.009505 -0.001470 0.000000 0.000000 0.000000
# 3 -0.001231 -0.001470 0.008743 0.000000 0.000000 0.000000
# 4 0.000000 0.000000 0.000000 0.049190 0.000000 0.000000
# 5 0.000000 0.000000 0.000000 0.000000 0.017107 0.000000
# 6 0.000000 0.000000 0.000000 0.000000 0.000000 0.008030
#
#
# Mechanical properties :
#
#
# Convention : Reuss Voigt Hill
#
# Bulk Modulus (GPa) = 64.14933 83.09682 73.62308
# Shear Modulus (GPa) = 46.89170 73.45106 60.17138
#
# Velocity S-wave (km/s) = 4.31347 5.39856 4.88623
# Velocity P-wave (km/s) = 7.08955 8.47532 7.81321
#
# Compressibility (1/GPa) = 0.01558863
#
# Stress axis : x y z
#
# Youngs Moduli (GPa) = 322.63461 105.21284 114.37530
#
# Poissons Ratio (x) = 0.01877 0.14076
# Poissons Ratio (y) = 0.05755 0.16816
# Poissons Ratio (z) = 0.39706 0.15469
#
# Static dielectric constant tensor:
#      x y z
#    x 2.227680 0.000000 0.000000 
#    y 0.000000 2.059080 0.000000 
#    z 0.000000 0.000000 2.001030 
# 
# From -- ./inp_files/3515.got.cif
#   From: 2010.05.17/outbox.cif.g08.bks.cpg/sg24_2_cif.got.tgz:3515.got - 2010.06.04 00:33:39.
