data_PCOD9333092
_publ_section_title
;
Structure prediction by ZEFSAII (Michael W. Deem and Ramdas Pophale) SiO2 
 PCOD9333092
Probable space group: I 21 21 21
;
_chemical_formula_sum "Si O2"
_cell_formula_units_Z 48
_cell_length_a 16.508369
_cell_length_b 14.705479
_cell_length_c 9.545445
_cell_angle_alpha 90.000000
_cell_angle_beta 90.000000
_cell_angle_gamma 90.000000
_cell_volume 2317.285386
_symmetry_space_group_name_H-M "I 21 21 21"
_symmetry_group_IT_number 24
_symmetry_cell_setting 'orthorhombic'
loop_
_space_group_symop_operation_xyz
x,y,z
-x,1/2-y,z
x,-y,1/2-z
1/2-x,y,-z
1/2+x,1/2+y,1/2+z
1/2-x,-y,1/2+z
1/2+x,1/2-y,-z
-x,1/2+y,1/2-z
loop_
_atom_site_type_symbol
_atom_site_label
_atom_site_fract_x
_atom_site_fract_y
_atom_site_fract_z
Si Si1 0.977445 0.614935 0.923354
Si Si2 0.968087 0.581694 0.518739
Si Si3 0.862236 0.294886 0.781744
Si Si4 0.541201 0.343380 0.721956
Si Si5 0.782678 0.407861 0.339063
Si Si6 0.879811 0.092797 0.799156
O O1 0.919523 0.689894 0.854718
O O2 0.052476 0.604184 0.821075
O O3 0.934909 0.515555 0.927859
O O4 0.005872 0.632930 0.079933
O O5 0.916326 0.661106 0.593674
O O6 0.962801 0.590328 0.353548
O O7 0.062179 0.583894 0.565177
O O8 0.784211 0.353580 0.748890
O O9 0.838315 0.190560 0.807252
O O10 0.500000 0.250000 0.772237
O O11 0.634037 0.349703 0.667700
O O12 0.795969 0.500000 0.250000
O O13 0.750000 0.420182 0.500000
O O14 0.835515 0.000000 0.750000
#
# Coordination Sequence:
#
# PCOD9333092 Si02
#       6
#     8   8   8   8   8   8
#     4  10  18  33  57  86 123 161 206 260 308 374
#     4  10  20  35  57  91 126 167 208 261 322 378
#     4  11  20  36  60  88 122 164 210 259 325 386
#     4  12  24  38  58  87 127 169 208 253 313 386
#     4  12  27  43  64  98 134 172 210 267 335 390
#     4   9  19  35  59  88 118 161 217 265 305 375
#
# _framework density 20.713892999999999
#
# number of rings (size 3 to 8) (size 9 to 14) (size 15 to 20)
#    0.000    1.333    1.667    8.000    2.333    0.000 
#    0.000    0.000    0.000    3.000    4.333    0.000 
#    0.000    0.000    0.000    0.000    0.000    0.000 
#
# Total GULP energy -133851.892173 kJ/mol
# GULP energy per Si atom -5577.162174 kJ/mol
# Density = 2.066675 g / cm^3
# Si number density = 20.713893 Si / 1000 Ang^3
#
#
#
# Elastic Constant Matrix: (Units=GPa)
#
#
# Indices 1 2 3 4 5 6 
#
# 1 41.3143 11.3698 3.5389 0.0000 0.0000 0.0000
# 2 11.3698 125.5187 -7.7423 0.0000 0.0000 0.0000
# 3 3.5389 -7.7423 109.5643 0.0000 0.0000 0.0000
# 4 0.0000 0.0000 0.0000 26.6781 0.0000 0.0000
# 5 0.0000 0.0000 0.0000 0.0000 7.7498 0.0000
# 6 0.0000 0.0000 0.0000 0.0000 0.0000 27.1687
#
#
#
# Elastic Compliance Matrix: (Units=1/GPa)
#
#
# Indices 1 2 3 4 5 6 
#
# 1 0.024925 -0.002318 -0.000969 0.000000 0.000000 0.000000
# 2 -0.002318 0.008217 0.000656 0.000000 0.000000 0.000000
# 3 -0.000969 0.000656 0.009205 0.000000 0.000000 0.000000
# 4 0.000000 0.000000 0.000000 0.037484 0.000000 0.000000
# 5 0.000000 0.000000 0.000000 0.000000 0.129036 0.000000
# 6 0.000000 0.000000 0.000000 0.000000 0.000000 0.036807
#
#
# Mechanical properties :
#
#
# Convention : Reuss Voigt Hill
#
# Bulk Modulus (GPa) = 26.96460 32.30335 29.63397
# Shear Modulus (GPa) = 18.98986 30.26803 24.62895
#
# Velocity S-wave (km/s) = 3.03110 3.82677 3.45194
# Velocity P-wave (km/s) = 5.02952 5.92911 5.49775
#
# Compressibility (1/GPa) = 0.03708566
#
# Stress axis : x y z
#
# Youngs Moduli (GPa) = 40.11957 121.69439 108.64040
#
# Poissons Ratio (x) = 0.28204 0.10526
# Poissons Ratio (y) = 0.09298 -0.07122
# Poissons Ratio (z) = 0.03887 -0.07977
#
# Static dielectric constant tensor:
#      x y z
#    x 1.754500 0.000000 0.000000 
#    y 0.000000 1.874090 0.000000 
#    z 0.000000 0.000000 1.767400 
# 
# From -- ./inp_files/14155.got.cif
#   From: 2010.05.17/outbox.cif.g08.bks.cpg/sg24_8_cif.got.tgz:14155.got - 2010.06.04 00:33:39.
