data_PCOD9333032
_publ_section_title
;
Structure prediction by ZEFSAII (Michael W. Deem and Ramdas Pophale) SiO2 
 PCOD9333032
Probable space group: I 21 21 21
;
_chemical_formula_sum "Si O2"
_cell_formula_units_Z 52
_cell_length_a 13.824632
_cell_length_b 13.638850
_cell_length_c 15.849237
_cell_angle_alpha 90.000000
_cell_angle_beta 90.000000
_cell_angle_gamma 90.000000
_cell_volume 2988.406637
_symmetry_space_group_name_H-M "I 21 21 21"
_symmetry_group_IT_number 24
_symmetry_cell_setting 'orthorhombic'
loop_
_space_group_symop_operation_xyz
x,y,z
-x,1/2-y,z
x,-y,1/2-z
1/2-x,y,-z
1/2+x,1/2+y,1/2+z
1/2-x,-y,1/2+z
1/2+x,1/2-y,-z
-x,1/2+y,1/2-z
loop_
_atom_site_type_symbol
_atom_site_label
_atom_site_fract_x
_atom_site_fract_y
_atom_site_fract_z
Si Si1 0.406374 0.119938 0.106693
Si Si2 0.889966 0.842856 0.560469
Si Si3 0.852153 0.470559 0.463773
Si Si4 0.590191 0.000000 0.750000
Si Si5 0.201921 0.867254 0.323097
Si Si6 0.676497 0.855588 0.617149
Si Si7 0.944977 0.353396 0.331442
O O1 0.386155 0.224303 0.061230
O O2 0.521774 0.126269 0.121110
O O3 0.319509 0.116887 0.175772
O O4 0.395896 0.031448 0.041220
O O5 0.786263 0.879409 0.591029
O O6 0.895641 0.872200 0.462026
O O7 0.750000 0.436517 0.500000
O O8 0.836079 0.549933 0.387990
O O9 0.908036 0.379333 0.424485
O O10 0.648689 0.922771 0.694847
O O11 0.522188 0.936515 0.809793
O O12 0.178014 0.759541 0.359964
O O13 0.144399 0.867347 0.234660
O O14 0.000000 0.250000 0.322138
#
# Coordination Sequence:
#
# PCOD9333032 Si02
#       7
#     8   8   8   4   8   8   8
#     4   9  17  29  55  82 107 136 170 227 275 327
#     4   9  17  30  52  80 111 139 173 217 285 326
#     4  10  19  34  56  79 108 139 183 229 276 327
#     4  12  22  32  54  78 110 142 178 224 284 342
#     4  10  18  32  51  84 111 132 177 229 280 318
#     4  10  19  31  50  80 112 143 174 224 273 342
#     4  12  23  34  54  83 109 146 181 229 287 339
#
# _framework density 17.400576000000001
#
# number of rings (size 3 to 8) (size 9 to 14) (size 15 to 20)
#    0.000    1.846    4.615    0.923    0.000    0.000 
#    0.000    0.000   13.538    0.000    4.000    0.000 
#    0.000    0.000    0.000    0.000    0.000    0.000 
#
# Total GULP energy -144736.642932 kJ/mol
# GULP energy per Si atom -5566.793959 kJ/mol
# Density = 1.736097 g / cm^3
# Si number density = 17.400576 Si / 1000 Ang^3
#
#
#
# Elastic Constant Matrix: (Units=GPa)
#
#
# Indices 1 2 3 4 5 6 
#
# 1 90.6985 24.3788 32.1012 0.0000 0.0000 0.0000
# 2 24.3788 42.8787 17.1279 0.0000 0.0000 0.0000
# 3 32.1012 17.1279 49.1658 0.0000 0.0000 0.0000
# 4 0.0000 0.0000 0.0000 28.7813 0.0000 0.0000
# 5 0.0000 0.0000 0.0000 0.0000 23.6401 0.0000
# 6 0.0000 0.0000 0.0000 0.0000 0.0000 17.9031
#
#
#
# Elastic Compliance Matrix: (Units=1/GPa)
#
#
# Indices 1 2 3 4 5 6 
#
# 1 0.015379 -0.005498 -0.008126 0.000000 0.000000 0.000000
# 2 -0.005498 0.029057 -0.006533 0.000000 0.000000 0.000000
# 3 -0.008126 -0.006533 0.027921 0.000000 0.000000 0.000000
# 4 0.000000 0.000000 0.000000 0.034745 0.000000 0.000000
# 5 0.000000 0.000000 0.000000 0.000000 0.042301 0.000000
# 6 0.000000 0.000000 0.000000 0.000000 0.000000 0.055856
#
#
# Mechanical properties :
#
#
# Convention : Reuss Voigt Hill
#
# Bulk Modulus (GPa) = 31.20774 36.66208 33.93491
# Shear Modulus (GPa) = 19.51187 21.34060 20.42623
#
# Velocity S-wave (km/s) = 3.35227 3.50584 3.42991
# Velocity P-wave (km/s) = 5.74085 6.12398 5.93551
#
# Compressibility (1/GPa) = 0.03204333
#
# Stress axis : x y z
#
# Youngs Moduli (GPa) = 65.02176 34.41509 35.81553
#
# Poissons Ratio (x) = 0.18922 0.29104
# Poissons Ratio (y) = 0.35749 0.23398
# Poissons Ratio (z) = 0.52838 0.22483
#
# Static dielectric constant tensor:
#      x y z
#    x 1.648930 0.000000 0.000000 
#    y 0.000000 1.568810 0.000000 
#    z 0.000000 0.000000 1.609440 
# 
# From -- ./inp_files/27148.got.cif
#   From: 2010.05.17/outbox.cif.g08.bks.cpg/sg24_14_cif.got.tgz:27148.got - 2010.06.04 00:33:39.
