data_PCOD9333479
_publ_section_title
;
Structure prediction by ZEFSAII (Michael W. Deem and Ramdas Pophale) SiO2 
 PCOD9333479
Probable space group: I 21 21 21
;
_chemical_formula_sum "Si O2"
_cell_formula_units_Z 64
_cell_length_a 14.463045
_cell_length_b 21.183751
_cell_length_c 9.490522
_cell_angle_alpha 90.000000
_cell_angle_beta 90.000000
_cell_angle_gamma 90.000000
_cell_volume 2907.720784
_symmetry_space_group_name_H-M "I 21 21 21"
_symmetry_group_IT_number 24
_symmetry_cell_setting 'orthorhombic'
loop_
_space_group_symop_operation_xyz
x,y,z
-x,1/2-y,z
x,-y,1/2-z
1/2-x,y,-z
1/2+x,1/2+y,1/2+z
1/2-x,-y,1/2+z
1/2+x,1/2-y,-z
-x,1/2+y,1/2-z
loop_
_atom_site_type_symbol
_atom_site_label
_atom_site_fract_x
_atom_site_fract_y
_atom_site_fract_z
Si Si1 0.472943 0.632183 0.318392
Si Si2 0.614230 0.747773 0.174069
Si Si3 0.643822 0.357619 0.545220
Si Si4 0.110082 0.756388 0.275366
Si Si5 0.010403 0.436679 0.527684
Si Si6 0.665866 0.155539 0.563086
Si Si7 0.344898 0.820523 0.446552
Si Si8 0.339727 0.465851 0.097720
O O1 0.451247 0.700775 0.252259
O O2 0.495946 0.584075 0.191508
O O3 0.561923 0.639060 0.419145
O O4 0.377808 0.604937 0.379461
O O5 0.592493 0.689979 0.066104
O O6 0.670292 0.714223 0.297757
O O7 0.664139 0.793348 0.063229
O O8 0.750000 0.363142 0.500000
O O9 0.636933 0.319883 0.690559
O O10 0.589998 0.423946 0.537776
O O11 0.159266 0.695509 0.205829
O O12 0.131480 0.767848 0.437585
O O13 0.000000 0.750000 0.255241
O O14 0.075354 0.386558 0.447331
O O15 0.070513 0.499921 0.528084
O O16 0.750000 0.113791 0.500000
O O17 0.250000 0.852262 0.500000
O O18 0.321921 0.500000 0.250000
O O19 0.250000 0.467134 0.000000
#
# Coordination Sequence:
#
# PCOD9333479 Si02
#       8
#     8   8   8   8   8   8   8   8
#     4  10  22  39  64  87 121 174 217 251 317 396
#     4  10  20  36  58  82 123 171 206 240 307 390
#     4  11  21  37  60  92 128 163 209 259 312 384
#     4  11  21  33  49  86 127 158 196 256 307 373
#     4  10  20  38  68  87 115 164 214 263 313 373
#     4  10  19  33  55  86 117 155 202 251 306 372
#     4  12  23  36  54  86 128 169 201 246 316 390
#     4  10  23  47  71  95 122 162 224 278 319 371
#
# _framework density 22.010366000000001
#
# number of rings (size 3 to 8) (size 9 to 14) (size 15 to 20)
#    0.000    1.500    2.500    4.500    1.750    0.500 
#    2.250    6.250    0.000    0.000    0.000    0.000 
#    0.000    0.000    0.000    0.000    0.000    0.000 
#
# Total GULP energy -178411.361186 kJ/mol
# GULP energy per Si atom -5575.355037 kJ/mol
# Density = 2.196027 g / cm^3
# Si number density = 22.010366 Si / 1000 Ang^3
#
#
#
# Elastic Constant Matrix: (Units=GPa)
#
#
# Indices 1 2 3 4 5 6 
#
# 1 118.4763 23.5998 8.4138 0.0000 0.0000 0.0000
# 2 23.5998 57.7399 14.4249 0.0000 0.0000 0.0000
# 3 8.4138 14.4249 90.7733 0.0001 0.0000 0.0000
# 4 0.0000 0.0000 0.0001 6.3407 0.0000 0.0000
# 5 0.0000 0.0000 0.0000 0.0000 39.2908 0.0000
# 6 0.0000 0.0000 0.0000 0.0000 0.0000 20.1633
#
#
#
# Elastic Compliance Matrix: (Units=1/GPa)
#
#
# Indices 1 2 3 4 5 6 
#
# 1 0.009195 -0.003692 -0.000266 0.000000 0.000000 0.000000
# 2 -0.003692 0.019517 -0.002759 0.000000 0.000000 0.000000
# 3 -0.000266 -0.002759 0.011480 0.000000 0.000000 0.000000
# 4 0.000000 0.000000 0.000000 0.157713 0.000000 0.000000
# 5 0.000000 0.000000 0.000000 0.000000 0.025451 0.000000
# 6 0.000000 0.000000 0.000000 0.000000 0.000000 0.049595
#
#
# Mechanical properties :
#
#
# Convention : Reuss Voigt Hill
#
# Bulk Modulus (GPa) = 37.37171 39.98517 38.67844
# Shear Modulus (GPa) = 16.93175 27.86236 22.39706
#
# Velocity S-wave (km/s) = 2.77657 3.56177 3.19340
# Velocity P-wave (km/s) = 5.22447 5.92629 5.58641
#
# Compressibility (1/GPa) = 0.02675821
#
# Stress axis : x y z
#
# Youngs Moduli (GPa) = 108.75773 51.23656 87.11132
#
# Poissons Ratio (x) = 0.18915 0.02314
# Poissons Ratio (y) = 0.40151 0.24037
# Poissons Ratio (z) = 0.02889 0.14138
#
# Static dielectric constant tensor:
#      x y z
#    x 2.004450 0.000000 0.000000 
#    y 0.000000 1.827480 0.000000 
#    z 0.000000 0.000000 1.836330 
# 
# From -- ./inp_files/13374.got.cif
#   From: 2010.05.17/outbox.cif.g08.bks.cpg/sg24_7_cif.got.tgz:13374.got - 2010.06.04 00:33:39.
