data_PCOD9333591
_publ_section_title
;
Structure prediction by ZEFSAII (Michael W. Deem and Ramdas Pophale) SiO2 
 PCOD9333591
Probable space group: I 21 21 21
;
_chemical_formula_sum "Si O2"
_cell_formula_units_Z 60
_cell_length_a 13.080051
_cell_length_b 15.145382
_cell_length_c 17.238376
_cell_angle_alpha 90.000000
_cell_angle_beta 90.000000
_cell_angle_gamma 90.000000
_cell_volume 3414.963123
_symmetry_space_group_name_H-M "I 21 21 21"
_symmetry_group_IT_number 24
_symmetry_cell_setting 'orthorhombic'
loop_
_space_group_symop_operation_xyz
x,y,z
-x,1/2-y,z
x,-y,1/2-z
1/2-x,y,-z
1/2+x,1/2+y,1/2+z
1/2-x,-y,1/2+z
1/2+x,1/2-y,-z
-x,1/2+y,1/2-z
loop_
_atom_site_type_symbol
_atom_site_label
_atom_site_fract_x
_atom_site_fract_y
_atom_site_fract_z
Si Si1 0.918405 0.668728 0.530327
Si Si2 0.280452 0.819219 0.624770
Si Si3 0.861913 0.131986 0.135893
Si Si4 0.209105 0.488360 0.668807
Si Si5 0.437830 0.898155 0.727811
Si Si6 0.327665 0.360184 0.568298
Si Si7 0.091809 0.463218 0.986988
Si Si8 0.500000 0.250000 0.648438
O O1 0.836847 0.671346 0.600185
O O2 0.850109 0.674363 0.452777
O O3 0.000000 0.750000 0.534165
O O4 0.980343 0.576751 0.527190
O O5 0.305001 0.721440 0.654935
O O6 0.327538 0.884654 0.688346
O O7 0.978167 0.130984 0.163731
O O8 0.804632 0.053678 0.178785
O O9 0.857913 0.108918 0.044683
O O10 0.151172 0.500000 0.750000
O O11 0.257821 0.396608 0.639339
O O12 0.146253 0.524055 0.595109
O O13 0.459071 0.830608 0.798145
O O14 0.453472 0.000000 0.750000
O O15 0.250000 0.332224 0.500000
O O16 0.390374 0.445088 0.533571
O O17 0.407471 0.288510 0.597422
#
# Coordination Sequence:
#
# PCOD9333591 Si02
#       8
#     8   8   8   8   8   8   8   4
#     4  11  20  34  54  82 119 161 194 233 294 367
#     4  11  22  33  54  85 124 149 192 246 295 362
#     4  11  17  34  54  85 117 151 186 241 297 352
#     4  10  20  32  56  88 113 149 195 250 298 343
#     4  12  23  37  58  90 125 153 190 249 308 355
#     4   9  21  39  59  85 115 150 206 254 290 350
#     4  10  19  35  56  80 116 154 201 239 290 359
#     4  12  22  38  64  92 118 158 196 256 312 342
#
# _framework density 17.569735999999999
#
# number of rings (size 3 to 8) (size 9 to 14) (size 15 to 20)
#    0.000    1.333    4.000    4.800    1.867    0.000 
#    0.000    2.000    0.000    1.600    0.000    0.000 
#    0.000    0.000    0.000    0.000    0.000    0.000 
#
# Total GULP energy -167267.162216 kJ/mol
# GULP energy per Si atom -5575.572074 kJ/mol
# Density = 1.752975 g / cm^3
# Si number density = 17.569736 Si / 1000 Ang^3
#
#
#
# Elastic Constant Matrix: (Units=GPa)
#
#
# Indices 1 2 3 4 5 6 
#
# 1 92.9530 37.6679 33.8868 0.0000 0.0000 0.0000
# 2 37.6679 82.1153 41.3549 0.0000 0.0000 0.0000
# 3 33.8868 41.3549 96.7510 0.0000 0.0000 0.0000
# 4 0.0000 0.0000 0.0000 14.4326 0.0000 0.0000
# 5 0.0000 0.0000 0.0000 0.0000 26.5479 0.0000
# 6 0.0000 0.0000 0.0000 0.0000 0.0000 21.1867
#
#
#
# Elastic Compliance Matrix: (Units=1/GPa)
#
#
# Indices 1 2 3 4 5 6 
#
# 1 0.013747 -0.004946 -0.002701 0.000000 0.000000 0.000000
# 2 -0.004946 0.017298 -0.005662 0.000000 0.000000 0.000000
# 3 -0.002701 -0.005662 0.013702 0.000000 0.000000 0.000000
# 4 0.000000 0.000000 0.000000 0.069287 0.000000 0.000000
# 5 0.000000 0.000000 0.000000 0.000000 0.037668 0.000000
# 6 0.000000 0.000000 0.000000 0.000000 0.000000 0.047199
#
#
# Mechanical properties :
#
#
# Convention : Reuss Voigt Hill
#
# Bulk Modulus (GPa) = 55.15619 55.29318 55.22468
# Shear Modulus (GPa) = 21.59258 23.02743 22.31000
#
# Velocity S-wave (km/s) = 3.50946 3.62419 3.56729
# Velocity P-wave (km/s) = 6.91973 7.00371 6.96185
#
# Compressibility (1/GPa) = 0.01813033
#
# Stress axis : x y z
#
# Youngs Moduli (GPa) = 72.74346 57.81013 72.98358
#
# Poissons Ratio (x) = 0.28592 0.19712
# Poissons Ratio (y) = 0.35977 0.41320
# Poissons Ratio (z) = 0.19647 0.32729
#
# Static dielectric constant tensor:
#      x y z
#    x 1.612350 0.000000 0.000000 
#    y 0.000000 1.611990 0.000000 
#    z 0.000000 0.000000 1.649310 
# 
# From -- ./inp_files/30335.got.cif
#   From: 2010.05.17/outbox.cif.g08.bks.cpg/sg24_16_cif.got.tgz:30335.got - 2010.06.04 00:33:39.
