data_PCOD9333728
_publ_section_title
;
Structure prediction by ZEFSAII (Michael W. Deem and Ramdas Pophale) SiO2 
 PCOD9333728
Probable space group: I 21 21 21
;
_chemical_formula_sum "Si O2"
_cell_formula_units_Z 28
_cell_length_a 8.853949
_cell_length_b 8.243117
_cell_length_c 13.999779
_cell_angle_alpha 90.000000
_cell_angle_beta 90.000000
_cell_angle_gamma 90.000000
_cell_volume 1021.761796
_symmetry_space_group_name_H-M "I 21 21 21"
_symmetry_group_IT_number 24
_symmetry_cell_setting 'orthorhombic'
loop_
_space_group_symop_operation_xyz
x,y,z
-x,1/2-y,z
x,-y,1/2-z
1/2-x,y,-z
1/2+x,1/2+y,1/2+z
1/2-x,-y,1/2+z
1/2+x,1/2-y,-z
-x,1/2+y,1/2-z
loop_
_atom_site_type_symbol
_atom_site_label
_atom_site_fract_x
_atom_site_fract_y
_atom_site_fract_z
Si Si1 0.228201 0.020379 0.387156
Si Si2 0.000000 0.250000 0.060368
Si Si3 0.224942 0.665442 0.216326
Si Si4 0.425796 0.450254 0.117221
O O1 0.250000 0.058896 0.500000
O O2 0.163643 0.164981 0.321545
O O3 0.401618 0.989211 0.358652
O O4 0.119929 0.861245 0.385052
O O5 0.080843 0.370384 0.986176
O O6 0.136122 0.500000 0.250000
O O7 0.323675 0.608314 0.125117
O O8 0.348534 0.662851 0.302050
#
# Coordination Sequence:
#
# PCOD9333728 Si02
#       4
#     8   4   8   8
#     4  10  19  37  59 109 170 202 249 335 399 469
#     4  10  20  34  62 110 174 202 246 332 426 448
#     4   8  19  33  70 103 152 198 277 322 375 454
#     4   8  19  33  63 102 155 198 263 326 378 468
#
# _framework density 27.403645999999998
#
# number of rings (size 3 to 8) (size 9 to 14) (size 15 to 20)
#    1.714    1.143    0.000    0.857    8.000    0.000 
#    0.000    4.286    0.000    0.000    7.429    0.000 
#  154.286    0.000    0.000    0.000    0.000    0.000 
#
# Total GULP energy -78160.840767 kJ/mol
# GULP energy per Si atom -5582.917198 kJ/mol
# Density = 2.734127 g / cm^3
# Si number density = 27.403646 Si / 1000 Ang^3
#
#
#
# Elastic Constant Matrix: (Units=GPa)
#
#
# Indices 1 2 3 4 5 6 
#
# 1 130.1927 86.7326 60.8980 0.0000 0.0000 0.0000
# 2 86.7326 196.8831 61.1267 0.0000 0.0000 0.0000
# 3 60.8980 61.1267 160.6135 0.0000 0.0000 0.0000
# 4 0.0000 0.0000 0.0000 67.8101 0.0000 0.0000
# 5 0.0000 0.0000 0.0000 0.0000 46.2097 0.0000
# 6 0.0000 0.0000 0.0000 0.0000 0.0000 53.6921
#
#
#
# Elastic Compliance Matrix: (Units=1/GPa)
#
#
# Indices 1 2 3 4 5 6 
#
# 1 0.011928 -0.004366 -0.002861 0.000000 0.000000 0.000000
# 2 -0.004366 0.007358 -0.001145 0.000000 0.000000 0.000000
# 3 -0.002861 -0.001145 0.007747 0.000000 0.000000 0.000000
# 4 0.000000 0.000000 0.000000 0.014747 0.000000 0.000000
# 5 0.000000 0.000000 0.000000 0.000000 0.021640 0.000000
# 6 0.000000 0.000000 0.000000 0.000000 0.000000 0.018625
#
#
# Mechanical properties :
#
#
# Convention : Reuss Voigt Hill
#
# Bulk Modulus (GPa) = 97.19558 100.57821 98.88690
# Shear Modulus (GPa) = 48.91492 52.13783 50.52638
#
# Velocity S-wave (km/s) = 4.22948 4.36660 4.29859
# Velocity P-wave (km/s) = 7.70691 7.88702 7.79749
#
# Compressibility (1/GPa) = 0.01028853
#
# Stress axis : x y z
#
# Youngs Moduli (GPa) = 83.83712 135.90453 129.09032
#
# Poissons Ratio (x) = 0.59341 0.36930
# Poissons Ratio (y) = 0.36606 0.14778
# Poissons Ratio (z) = 0.23984 0.15559
#
# Static dielectric constant tensor:
#      x y z
#    x 2.130000 0.000000 0.000000 
#    y 0.000000 2.194350 0.000000 
#    z 0.000000 0.000000 2.150240 
# 
# From -- ./inp_files/29153.got.cif
#   From: 2010.05.17/outbox.cif.g08.bks.cpg/sg24_15_cif.got.tgz:29153.got - 2010.06.04 00:33:39.
