data_PCOD9333435
_publ_section_title
;
Structure prediction by ZEFSAII (Michael W. Deem and Ramdas Pophale) SiO2 
 PCOD9333435
Probable space group: I 21 21 21
;
_chemical_formula_sum "Si O2"
_cell_formula_units_Z 48
_cell_length_a 17.681609
_cell_length_b 13.359257
_cell_length_c 9.018606
_cell_angle_alpha 90.000000
_cell_angle_beta 90.000000
_cell_angle_gamma 90.000000
_cell_volume 2130.313411
_symmetry_space_group_name_H-M "I 21 21 21"
_symmetry_group_IT_number 24
_symmetry_cell_setting 'orthorhombic'
loop_
_space_group_symop_operation_xyz
x,y,z
-x,1/2-y,z
x,-y,1/2-z
1/2-x,y,-z
1/2+x,1/2+y,1/2+z
1/2-x,-y,1/2+z
1/2+x,1/2-y,-z
-x,1/2+y,1/2-z
loop_
_atom_site_type_symbol
_atom_site_label
_atom_site_fract_x
_atom_site_fract_y
_atom_site_fract_z
Si Si1 0.493516 0.631924 0.661375
Si Si2 0.915625 0.225579 0.654507
Si Si3 0.129305 0.000000 0.250000
Si Si4 0.268683 0.713404 0.332878
Si Si5 0.909353 0.044506 0.451537
Si Si6 0.728922 0.000000 0.750000
Si Si7 0.822960 0.316089 0.403987
O O1 0.500000 0.750000 0.639795
O O2 0.575221 0.420677 0.832620
O O3 0.456645 0.602767 0.821648
O O4 0.443868 0.567411 0.545029
O O5 0.848637 0.252174 0.768951
O O6 0.911980 0.110768 0.597775
O O7 0.894731 0.286465 0.502633
O O8 0.000000 0.250000 0.705273
O O9 0.175737 0.931952 0.138356
O O10 0.250000 0.738736 0.500000
O O11 0.273372 0.594683 0.308469
O O12 0.195499 0.752324 0.241608
O O13 0.825915 0.035411 0.383586
O O14 0.750000 0.290863 0.500000
#
# Coordination Sequence:
#
# PCOD9333435 Si02
#       7
#     8   8   4   8   8   4   8
#     4   9  17  29  52  96 143 167 217 279 333 397
#     4  11  21  42  72  97 140 187 234 287 357 424
#     4  10  19  32  60  91 128 172 216 276 332 391
#     4  11  26  42  67 102 142 181 234 297 355 424
#     4   9  18  31  60  97 134 180 229 282 341 417
#     4  10  21  38  64 103 138 180 232 290 352 417
#     4  10  22  40  65  99 129 183 239 288 338 415
#
# _framework density 22.531897000000001
#
# number of rings (size 3 to 8) (size 9 to 14) (size 15 to 20)
#    0.000    2.333    1.667    3.500    4.667    0.667 
#    0.000    0.833    0.000    4.000    0.000    0.000 
#    0.000    0.000    0.000    0.000    0.000    0.000 
#
# Total GULP energy -134114.879200 kJ/mol
# GULP energy per Si atom -5588.119967 kJ/mol
# Density = 2.248061 g / cm^3
# Si number density = 22.531897 Si / 1000 Ang^3
#
#
#
# Elastic Constant Matrix: (Units=GPa)
#
#
# Indices 1 2 3 4 5 6 
#
# 1 84.6457 6.4864 37.1346 0.0000 0.0000 0.0000
# 2 6.4864 128.8839 26.9609 0.0000 0.0000 0.0000
# 3 37.1346 26.9609 86.7216 0.0000 0.0000 0.0000
# 4 0.0000 0.0000 0.0000 14.5997 0.0000 0.0000
# 5 0.0000 0.0000 0.0000 0.0000 11.2514 0.0000
# 6 0.0000 0.0000 0.0000 0.0000 0.0000 28.1052
#
#
#
# Elastic Compliance Matrix: (Units=1/GPa)
#
#
# Indices 1 2 3 4 5 6 
#
# 1 0.014592 0.000613 -0.006439 0.000000 0.000000 0.000000
# 2 0.000613 0.008324 -0.002850 0.000000 0.000000 0.000000
# 3 -0.006439 -0.002850 0.015174 0.000000 0.000000 0.000000
# 4 0.000000 0.000000 0.000000 0.068494 0.000000 0.000000
# 5 0.000000 0.000000 0.000000 0.000000 0.088878 0.000000
# 6 0.000000 0.000000 0.000000 0.000000 0.000000 0.035581
#
#
# Mechanical properties :
#
#
# Convention : Reuss Voigt Hill
#
# Bulk Modulus (GPa) = 48.22159 49.04611 48.63385
# Shear Modulus (GPa) = 19.58413 26.10255 22.84334
#
# Velocity S-wave (km/s) = 2.95137 3.40732 3.18751
# Velocity P-wave (km/s) = 5.74996 6.10692 5.93113
#
# Compressibility (1/GPa) = 0.02073760
#
# Stress axis : x y z
#
# Youngs Moduli (GPa) = 68.53216 120.12983 65.90074
#
# Poissons Ratio (x) = -0.07358 0.42431
# Poissons Ratio (y) = -0.04198 0.18783
# Poissons Ratio (z) = 0.44126 0.34240
#
# Static dielectric constant tensor:
#      x y z
#    x 1.855390 0.000000 0.000000 
#    y 0.000000 1.861240 0.000000 
#    z 0.000000 0.000000 1.914230 
# 
# From -- ./inp_files/14236.got.cif
#   From: 2010.05.17/outbox.cif.g08.bks.cpg/sg24_8_cif.got.tgz:14236.got - 2010.06.04 00:33:39.
