data_PCOD9333983
_publ_section_title
;
Structure prediction by ZEFSAII (Michael W. Deem and Ramdas Pophale) SiO2 
 PCOD9333983
Probable space group: I 21 21 21
;
_chemical_formula_sum "Si O2"
_cell_formula_units_Z 48
_cell_length_a 9.368430
_cell_length_b 11.215455
_cell_length_c 22.798885
_cell_angle_alpha 90.000000
_cell_angle_beta 90.000000
_cell_angle_gamma 90.000000
_cell_volume 2395.506322
_symmetry_space_group_name_H-M "I 21 21 21"
_symmetry_group_IT_number 24
_symmetry_cell_setting 'orthorhombic'
loop_
_space_group_symop_operation_xyz
x,y,z
-x,1/2-y,z
x,-y,1/2-z
1/2-x,y,-z
1/2+x,1/2+y,1/2+z
1/2-x,-y,1/2+z
1/2+x,1/2-y,-z
-x,1/2+y,1/2-z
loop_
_atom_site_type_symbol
_atom_site_label
_atom_site_fract_x
_atom_site_fract_y
_atom_site_fract_z
Si Si1 0.669869 0.754306 0.371299
Si Si2 0.705024 0.995198 0.683833
Si Si3 0.989131 0.013158 0.027914
Si Si4 0.074921 0.879402 0.350520
Si Si5 0.650659 0.805205 0.904295
Si Si6 0.750000 0.622109 0.000000
Si Si7 0.750000 0.199897 0.000000
O O1 0.500000 0.750000 0.366046
O O2 0.721941 0.886598 0.351836
O O3 0.762463 0.655658 0.335396
O O4 0.721210 0.735342 0.438715
O O5 0.535988 0.959227 0.686312
O O6 0.759880 0.000000 0.750000
O O7 0.720733 0.119108 0.648228
O O8 0.065472 0.056964 0.086911
O O9 0.112061 0.959052 0.988345
O O10 0.888162 0.905325 0.047589
O O11 0.890498 0.118154 0.005561
O O12 0.000000 0.750000 0.354906
O O13 0.500000 0.750000 0.882965
O O14 0.726888 0.703010 0.942088
#
# Coordination Sequence:
#
# PCOD9333983 Si02
#       7
#     8   8   8   8   8   4   4
#     4  11  25  37  61  93 129 162 195 255 321 367
#     4  10  21  41  68  83 116 162 212 266 301 354
#     4  10  20  34  53  82 124 156 194 240 288 374
#     4   9  18  39  56  88 118 148 208 248 294 368
#     4   9  18  35  56  86 116 154 195 247 302 356
#     4  10  21  33  56  82 124 156 197 247 296 372
#     4  12  21  35  58  86 128 162 189 235 322 362
#
# _framework density 20.037517999999999
#
# number of rings (size 3 to 8) (size 9 to 14) (size 15 to 20)
#    0.000    2.000    5.000    0.500    4.667    2.000 
#    0.000    0.833    3.667    0.000    0.000    0.000 
#    0.000    0.000    0.000    0.000    0.000    0.000 
#
# Total GULP energy -133756.289835 kJ/mol
# GULP energy per Si atom -5573.178743 kJ/mol
# Density = 1.999191 g / cm^3
# Si number density = 20.037518 Si / 1000 Ang^3
#
#
#
# Elastic Constant Matrix: (Units=GPa)
#
#
# Indices 1 2 3 4 5 6 
#
# 1 104.4231 23.1423 27.1989 0.0000 0.0000 0.0000
# 2 23.1423 52.4391 19.3796 0.0000 0.0000 0.0000
# 3 27.1989 19.3796 66.0943 0.0000 0.0000 0.0000
# 4 0.0000 0.0000 0.0000 -7.9900 0.0000 0.0000
# 5 0.0000 0.0000 0.0000 0.0000 8.7939 0.0000
# 6 0.0000 0.0000 0.0000 0.0000 0.0000 30.0212
#
#
#
# Elastic Compliance Matrix: (Units=1/GPa)
#
#
# Indices 1 2 3 4 5 6 
#
# 1 0.011324 -0.003673 -0.003583 0.000000 0.000000 0.000000
# 2 -0.003673 0.022579 -0.005109 0.000000 0.000000 0.000000
# 3 -0.003583 -0.005109 0.018102 0.000000 0.000000 0.000000
# 4 0.000000 0.000000 0.000000 -0.125156 0.000000 0.000000
# 5 0.000000 0.000000 0.000000 0.000000 0.113716 0.000000
# 6 0.000000 0.000000 0.000000 0.000000 0.000000 0.033310
#
#
# Mechanical properties :
#
#
# Convention : Reuss Voigt Hill
#
# Bulk Modulus (GPa) = 36.66356 40.26645 38.46500
# Shear Modulus (GPa) = 46.42718 16.38071 31.40395
#
# Velocity S-wave (km/s) = 4.81876 2.86230 3.96315
# Velocity P-wave (km/s) = 7.02124 5.57341 6.33879
#
# Compressibility (1/GPa) = 0.02727504
#
# Stress axis : x y z
#
# Youngs Moduli (GPa) = 88.31025 44.28922 55.24172
#
# Poissons Ratio (x) = 0.16269 0.19792
# Poissons Ratio (y) = 0.32439 0.28222
# Poissons Ratio (z) = 0.31640 0.22626
#
# Static dielectric constant tensor:
#      x y z
#    x 1.775570 0.000000 0.000000 
#    y 0.000000 1.756660 0.000000 
#    z 0.000000 0.000000 1.716030 
# 
# From -- ./inp_files/18638.got.cif
#   From: 2010.05.17/outbox.cif.g08.bks.cpg/sg24_10_cif.got.tgz:18638.got - 2010.06.04 00:33:39.
