data_PCOD9333369
_publ_section_title
;
Structure prediction by ZEFSAII (Michael W. Deem and Ramdas Pophale) SiO2 
 PCOD9333369
Probable space group: I 21 21 21
;
_chemical_formula_sum "Si O2"
_cell_formula_units_Z 52
_cell_length_a 8.235824
_cell_length_b 27.074049
_cell_length_c 14.418315
_cell_angle_alpha 90.000000
_cell_angle_beta 90.000000
_cell_angle_gamma 90.000000
_cell_volume 3214.954102
_symmetry_space_group_name_H-M "I 21 21 21"
_symmetry_group_IT_number 24
_symmetry_cell_setting 'orthorhombic'
loop_
_space_group_symop_operation_xyz
x,y,z
-x,1/2-y,z
x,-y,1/2-z
1/2-x,y,-z
1/2+x,1/2+y,1/2+z
1/2-x,-y,1/2+z
1/2+x,1/2-y,-z
-x,1/2+y,1/2-z
loop_
_atom_site_type_symbol
_atom_site_label
_atom_site_fract_x
_atom_site_fract_y
_atom_site_fract_z
Si Si1 0.563643 0.953143 0.031609
Si Si2 0.944104 0.195217 0.608949
Si Si3 0.942500 0.396249 0.705817
Si Si4 0.555490 0.193359 0.607514
Si Si5 0.073723 0.912002 0.154219
Si Si6 0.625103 0.000000 0.750000
Si Si7 0.056074 0.468030 0.837461
O O1 0.554024 0.921601 0.126126
O O2 0.508151 0.007437 0.065951
O O3 0.750000 0.952543 0.000000
O O4 0.454376 0.929630 0.951893
O O5 0.750076 0.191062 0.615017
O O6 0.989862 0.184955 0.501222
O O7 0.000000 0.250000 0.627431
O O8 0.033009 0.160367 0.681602
O O9 0.759571 0.412141 0.685149
O O10 0.003026 0.414004 0.806336
O O11 0.500000 0.250000 0.631068
O O12 0.487134 0.145025 0.660377
O O13 0.976495 0.953930 0.211569
O O14 0.751149 0.977911 0.673957
O O15 0.984503 0.500000 0.750000
#
# Coordination Sequence:
#
# PCOD9333369 Si02
#       7
#     8   8   8   8   8   4   8
#     4  11  18  33  49  66  92 133 165 197 239 295
#     4  10  19  31  48  66  93 130 164 202 242 286
#     4  11  21  32  47  70 101 128 162 205 246 287
#     4  10  20  32  47  67  94 125 170 205 235 286
#     4  12  22  31  49  73  98 131 167 205 243 293
#     4  10  20  32  48  66  94 128 166 200 246 288
#     4   8  18  33  47  63  93 128 162 199 241 287
#
# _framework density 16.174415
#
# number of rings (size 3 to 8) (size 9 to 14) (size 15 to 20)
#    0.462    1.231    3.077    3.231    3.231    1.231 
#    0.000    0.000    0.000    0.000    0.000    0.000 
#    0.000    1.231    0.308    0.154    0.308    0.462 
#
# Total GULP energy -144750.230026 kJ/mol
# GULP energy per Si atom -5567.316539 kJ/mol
# Density = 1.613760 g / cm^3
# Si number density = 16.174415 Si / 1000 Ang^3
#
#
#
# Elastic Constant Matrix: (Units=GPa)
#
#
# Indices 1 2 3 4 5 6 
#
# 1 76.2864 47.4571 19.6702 0.0000 0.0000 0.0000
# 2 47.4571 122.9920 35.9045 0.0000 0.0000 0.0000
# 3 19.6702 35.9045 23.8053 0.0001 0.0000 0.0000
# 4 0.0000 0.0000 0.0001 31.2248 0.0000 0.0000
# 5 0.0000 0.0000 0.0000 0.0000 15.7078 0.0000
# 6 0.0000 0.0000 0.0000 0.0000 0.0000 27.8057
#
#
#
# Elastic Compliance Matrix: (Units=1/GPa)
#
#
# Indices 1 2 3 4 5 6 
#
# 1 0.018039 -0.004662 -0.007875 0.000000 0.000000 0.000000
# 2 -0.004662 0.015731 -0.019875 0.000000 0.000000 0.000000
# 3 -0.007875 -0.019875 0.078491 0.000000 0.000000 0.000000
# 4 0.000000 0.000000 0.000000 0.032026 0.000000 0.000000
# 5 0.000000 0.000000 0.000000 0.000000 0.063663 0.000000
# 6 0.000000 0.000000 0.000000 0.000000 0.000000 0.035964
#
#
# Mechanical properties :
#
#
# Convention : Reuss Voigt Hill
#
# Bulk Modulus (GPa) = 21.07988 47.68303 34.38146
# Shear Modulus (GPa) = 15.40602 22.95112 19.17857
#
# Velocity S-wave (km/s) = 3.08960 3.77102 3.44719
# Velocity P-wave (km/s) = 5.07825 6.96457 6.09483
#
# Compressibility (1/GPa) = 0.04743859
#
# Stress axis : x y z
#
# Youngs Moduli (GPa) = 55.43586 63.56746 12.74037
#
# Poissons Ratio (x) = 0.29633 0.10032
# Poissons Ratio (y) = 0.25842 0.25321
# Poissons Ratio (z) = 0.43653 1.26340
#
# Static dielectric constant tensor:
#      x y z
#    x 1.567920 0.000000 0.000000 
#    y 0.000000 1.641040 0.000000 
#    z 0.000000 0.000000 1.556780 
# 
# From -- ./inp_files/25152.got.cif
#   From: 2010.05.17/outbox.cif.g08.bks.cpg/sg24_13_cif.got.tgz:25152.got - 2010.06.04 00:33:39.
