data_PCOD9333051
_publ_section_title
;
Structure prediction by ZEFSAII (Michael W. Deem and Ramdas Pophale) SiO2 
 PCOD9333051
Probable space group: I 21 21 21
;
_chemical_formula_sum "Si O2"
_cell_formula_units_Z 48
_cell_length_a 7.856643
_cell_length_b 9.770282
_cell_length_c 26.696839
_cell_angle_alpha 90.000000
_cell_angle_beta 90.000000
_cell_angle_gamma 90.000000
_cell_volume 2049.292549
_symmetry_space_group_name_H-M "I 21 21 21"
_symmetry_group_IT_number 24
_symmetry_cell_setting 'orthorhombic'
loop_
_space_group_symop_operation_xyz
x,y,z
-x,1/2-y,z
x,-y,1/2-z
1/2-x,y,-z
1/2+x,1/2+y,1/2+z
1/2-x,-y,1/2+z
1/2+x,1/2-y,-z
-x,1/2+y,1/2-z
loop_
_atom_site_type_symbol
_atom_site_label
_atom_site_fract_x
_atom_site_fract_y
_atom_site_fract_z
Si Si1 0.115726 0.625109 0.956850
Si Si2 0.174582 0.809230 0.109104
Si Si3 0.822384 0.424303 0.945849
Si Si4 0.007866 0.023093 0.309419
Si Si5 0.790278 0.338677 0.844793
Si Si6 0.871995 0.047389 0.806392
O O1 0.189318 0.693531 0.905810
O O2 0.000000 0.750000 0.976028
O O3 0.009765 0.487823 0.949454
O O4 0.250000 0.599950 0.000000
O O5 0.220887 0.945671 0.078051
O O6 0.000000 0.750000 0.088764
O O7 0.123065 0.856326 0.165592
O O8 0.806505 0.308692 0.903732
O O9 0.750000 0.389145 0.000000
O O10 0.104243 0.894539 0.333387
O O11 0.806182 0.027305 0.321922
O O12 0.021658 0.000000 0.250000
O O13 0.821379 0.206693 0.811247
O O14 0.942928 0.449603 0.833732
O O15 0.905249 0.000000 0.750000
#
# Coordination Sequence:
#
# PCOD9333051 Si02
#       6
#     8   8   8   8   8   8
#     4  10  18  32  55  88 131 172 221 276 332 395
#     4  10  20  33  57  93 128 171 222 277 330 403
#     4  10  21  38  61  92 134 181 226 276 349 410
#     4  10  22  39  62  93 133 173 216 278 352 416
#     4  10  22  42  66  93 138 169 228 294 335 423
#     4  10  22  42  70  95 125 180 228 282 357 419
#
# _framework density 23.422718
#
# number of rings (size 3 to 8) (size 9 to 14) (size 15 to 20)
#    0.000    2.000    0.000    4.500    2.333    2.667 
#    0.000    3.333   14.667    0.000    0.000    0.000 
#    0.000    0.000    0.000    0.000    0.000    0.000 
#
# Total GULP energy -133790.151840 kJ/mol
# GULP energy per Si atom -5574.589660 kJ/mol
# Density = 2.336941 g / cm^3
# Si number density = 23.422718 Si / 1000 Ang^3
#
#
#
# Elastic Constant Matrix: (Units=GPa)
#
#
# Indices 1 2 3 4 5 6 
#
# 1 106.6391 8.3349 46.9202 0.0000 0.0000 0.0000
# 2 8.3349 47.4743 41.5493 0.0000 0.0000 0.0000
# 3 46.9202 41.5493 180.7949 0.0000 0.0000 0.0000
# 4 0.0000 0.0000 0.0000 22.0810 0.0000 0.0000
# 5 0.0000 0.0000 0.0000 0.0000 34.6407 0.0000
# 6 0.0000 0.0000 0.0000 0.0000 0.0000 16.5648
#
#
#
# Elastic Compliance Matrix: (Units=1/GPa)
#
#
# Indices 1 2 3 4 5 6 
#
# 1 0.010604 0.000684 -0.002909 0.000000 0.000000 0.000000
# 2 0.000684 0.026412 -0.006247 0.000000 0.000000 0.000000
# 3 -0.002909 -0.006247 0.007722 0.000000 0.000000 0.000000
# 4 0.000000 0.000000 0.000000 0.045288 0.000000 0.000000
# 5 0.000000 0.000000 0.000000 0.000000 0.028868 0.000000
# 6 0.000000 0.000000 0.000000 0.000000 0.000000 0.060369
#
#
# Mechanical properties :
#
#
# Convention : Reuss Voigt Hill
#
# Bulk Modulus (GPa) = 35.98024 58.72414 47.35219
# Shear Modulus (GPa) = 24.33437 30.53090 27.43263
#
# Velocity S-wave (km/s) = 3.22673 3.61428 3.42599
# Velocity P-wave (km/s) = 5.41082 6.52252 5.99250
#
# Compressibility (1/GPa) = 0.02779304
#
# Stress axis : x y z
#
# Youngs Moduli (GPa) = 94.30430 37.86221 129.50198
#
# Poissons Ratio (x) = -0.02592 0.37676
# Poissons Ratio (y) = -0.06455 0.80905
# Poissons Ratio (z) = 0.27436 0.23654
#
# Static dielectric constant tensor:
#      x y z
#    x 1.961710 0.000000 0.000000 
#    y 0.000000 1.910610 0.000000 
#    z 0.000000 0.000000 1.883540 
# 
# From -- ./inp_files/35140.got.cif
#   From: 2010.05.17/outbox.cif.g08.bks.cpg/sg24_18_cif.got.tgz:35140.got - 2010.06.04 00:33:39.
