data_PCOD9333965
_publ_section_title
;
Structure prediction by ZEFSAII (Michael W. Deem and Ramdas Pophale) SiO2 
 PCOD9333965
Probable space group: I 21 21 21
;
_chemical_formula_sum "Si O2"
_cell_formula_units_Z 56
_cell_length_a 5.374024
_cell_length_b 25.110310
_cell_length_c 21.961203
_cell_angle_alpha 90.000000
_cell_angle_beta 90.000000
_cell_angle_gamma 90.000000
_cell_volume 2963.519590
_symmetry_space_group_name_H-M "I 21 21 21"
_symmetry_group_IT_number 24
_symmetry_cell_setting 'orthorhombic'
loop_
_space_group_symop_operation_xyz
x,y,z
-x,1/2-y,z
x,-y,1/2-z
1/2-x,y,-z
1/2+x,1/2+y,1/2+z
1/2-x,-y,1/2+z
1/2+x,1/2-y,-z
-x,1/2+y,1/2-z
loop_
_atom_site_type_symbol
_atom_site_label
_atom_site_fract_x
_atom_site_fract_y
_atom_site_fract_z
Si Si1 0.500000 0.250000 0.795988
Si Si2 0.250000 0.715285 0.500000
Si Si3 0.139301 0.113549 0.646958
Si Si4 0.341359 0.671050 0.370001
Si Si5 0.752097 0.281489 0.573456
Si Si6 0.609171 0.067920 0.808324
Si Si7 0.774962 0.349403 0.773767
Si Si8 0.839798 0.947836 0.168296
O O1 0.694678 0.219485 0.838790
O O2 0.596276 0.299991 0.756929
O O3 0.500000 0.750000 0.513231
O O4 0.323514 0.680417 0.441319
O O5 0.212204 0.159768 0.600351
O O6 0.075557 0.141314 0.712135
O O7 0.394397 0.079890 0.655389
O O8 0.895148 0.077933 0.633176
O O9 0.232235 0.614592 0.347712
O O10 0.604085 0.670888 0.336155
O O11 0.500000 0.250000 0.592063
O O12 0.750000 0.284289 0.500000
O O13 0.000000 0.250000 0.592593
O O14 0.342934 0.093966 0.792172
O O15 0.718358 0.059889 0.740503
O O16 0.623294 0.011060 0.840336
#
# Coordination Sequence:
#
# PCOD9333965 Si02
#       8
#     4   4   8   8   8   8   8   8
#     4  10  20  34  50  84 120 152 188 250 304 364
#     4  12  26  42  62  86 118 170 214 254 304 374
#     4  11  22  37  60  92 120 159 196 248 299 367
#     4  11  21  39  58  84 117 161 209 253 306 360
#     4  10  22  40  63  89 122 164 199 236 292 368
#     4   9  21  36  59  85 121 158 203 254 303 372
#     4  10  21  34  57  88 121 157 200 249 319 355
#     4  10  21  38  60  90 123 158 201 244 315 361
#
# _framework density 18.896450000000002
#
# number of rings (size 3 to 8) (size 9 to 14) (size 15 to 20)
#    0.000    1.714    2.143    2.143    5.000    2.286 
#    0.000    0.000    3.143    0.000    0.000    0.000 
#    0.000    0.000    0.000    0.000    0.000    0.000 
#
# Total GULP energy -155900.520443 kJ/mol
# GULP energy per Si atom -5567.875730 kJ/mol
# Density = 1.885344 g / cm^3
# Si number density = 18.896450 Si / 1000 Ang^3
#
#
#
# Elastic Constant Matrix: (Units=GPa)
#
#
# Indices 1 2 3 4 5 6 
#
# 1 96.9966 55.7696 12.6615 0.0000 0.0000 0.0000
# 2 55.7696 140.5300 32.6525 0.0000 0.0000 0.0000
# 3 12.6615 32.6525 28.9119 0.0000 0.0000 0.0000
# 4 0.0000 0.0000 0.0000 26.0733 0.0000 0.0000
# 5 0.0000 0.0000 0.0000 0.0000 9.8667 0.0000
# 6 0.0000 0.0000 0.0000 0.0000 0.0000 15.1412
#
#
#
# Elastic Compliance Matrix: (Units=1/GPa)
#
#
# Indices 1 2 3 4 5 6 
#
# 1 0.013358 -0.005344 0.000186 0.000000 0.000000 0.000000
# 2 -0.005344 0.011786 -0.010970 0.000000 0.000000 0.000000
# 3 0.000186 -0.010970 0.046896 0.000000 0.000000 0.000000
# 4 0.000000 0.000000 0.000000 0.038353 0.000000 0.000000
# 5 0.000000 0.000000 0.000000 0.000000 0.101351 0.000000
# 6 0.000000 0.000000 0.000000 0.000000 0.000000 0.066045
#
#
# Mechanical properties :
#
#
# Convention : Reuss Voigt Hill
#
# Bulk Modulus (GPa) = 25.13667 52.06730 38.60198
# Shear Modulus (GPa) = 15.46516 21.23990 18.35253
#
# Velocity S-wave (km/s) = 2.86390 3.35627 3.11981
# Velocity P-wave (km/s) = 4.92617 6.52941 5.78361
#
# Compressibility (1/GPa) = 0.03978251
#
# Stress axis : x y z
#
# Youngs Moduli (GPa) = 74.86019 84.84775 21.32384
#
# Poissons Ratio (x) = 0.45346 -0.00396
# Poissons Ratio (y) = 0.40009 0.23393
# Poissons Ratio (z) = -0.01392 0.93079
#
# Static dielectric constant tensor:
#      x y z
#    x 1.787510 0.000000 0.000000 
#    y 0.000000 1.670130 0.000000 
#    z 0.000000 0.000000 1.667440 
# 
# From -- ./inp_files/6526.got.cif
#   From: 2010.05.17/outbox.cif.g08.bks.cpg/sg24_4_cif.got.tgz:6526.got - 2010.06.04 00:33:39.
