data_PCOD9333633
_publ_section_title
;
Structure prediction by ZEFSAII (Michael W. Deem and Ramdas Pophale) SiO2 
 PCOD9333633
Probable space group: I 21 21 21
;
_chemical_formula_sum "Si O2"
_cell_formula_units_Z 60
_cell_length_a 14.624797
_cell_length_b 7.826961
_cell_length_c 25.970749
_cell_angle_alpha 90.000000
_cell_angle_beta 90.000000
_cell_angle_gamma 90.000000
_cell_volume 2972.812314
_symmetry_space_group_name_H-M "I 21 21 21"
_symmetry_group_IT_number 24
_symmetry_cell_setting 'orthorhombic'
loop_
_space_group_symop_operation_xyz
x,y,z
-x,1/2-y,z
x,-y,1/2-z
1/2-x,y,-z
1/2+x,1/2+y,1/2+z
1/2-x,-y,1/2+z
1/2+x,1/2-y,-z
-x,1/2+y,1/2-z
loop_
_atom_site_type_symbol
_atom_site_label
_atom_site_fract_x
_atom_site_fract_y
_atom_site_fract_z
Si Si1 0.235450 0.667210 0.777707
Si Si2 0.399999 0.833414 0.716958
Si Si3 0.106567 0.202480 0.996441
Si Si4 0.106669 0.794765 0.394211
Si Si5 0.069347 0.901125 0.798492
Si Si6 0.250000 0.506091 0.000000
Si Si7 0.748355 0.002488 0.113769
Si Si8 0.395937 0.815272 0.383959
O O1 0.196855 0.500000 0.750000
O O2 0.325243 0.715787 0.745004
O O3 0.160248 0.813263 0.776393
O O4 0.252370 0.620715 0.837424
O O5 0.500000 0.750000 0.714331
O O6 0.370643 0.885475 0.659153
O O7 0.407898 0.000000 0.750000
O O8 0.129139 0.116517 0.051339
O O9 0.000000 0.250000 0.996132
O O10 0.163427 0.377988 0.998705
O O11 0.127932 0.117786 0.941673
O O12 0.160940 0.617493 0.389147
O O13 0.000000 0.750000 0.395375
O O14 0.000000 0.750000 0.816643
O O15 0.025305 0.000000 0.750000
O O16 0.101802 0.035182 0.841915
O O17 0.242889 0.586803 0.942799
O O18 0.669126 0.148019 0.123132
O O19 0.500000 0.750000 0.384614
#
# Coordination Sequence:
#
# PCOD9333633 Si02
#       8
#     8   8   8   8   8   4   8   8
#     4  12  23  38  59  86 116 156 193 238 287 347
#     4  11  24  39  60  85 118 151 192 234 289 340
#     4   8  15  30  55  87 107 140 190 236 270 334
#     4   9  18  33  59  87 114 146 191 235 274 339
#     4  12  25  40  58  83 118 155 196 240 297 352
#     4   8  16  30  54  84 110 150 188 234 278 344
#     4  10  19  35  60  85 117 150 196 236 289 341
#     4  10  20  37  61  87 114 148 194 244 288 345
#
# _framework density 20.182908999999999
#
# number of rings (size 3 to 8) (size 9 to 14) (size 15 to 20)
#    0.000    1.867    1.333    3.200    3.733    0.000 
#    0.000    0.000    2.933    0.800    0.000    0.000 
#    0.000    0.000    0.000    0.000    0.000    0.000 
#
# Total GULP energy -167126.280721 kJ/mol
# GULP energy per Si atom -5570.876024 kJ/mol
# Density = 2.013697 g / cm^3
# Si number density = 20.182909 Si / 1000 Ang^3
#
#
#
# Elastic Constant Matrix: (Units=GPa)
#
#
# Indices 1 2 3 4 5 6 
#
# 1 102.1876 5.4726 -5.3633 0.0000 0.0000 0.0000
# 2 5.4726 45.0515 35.8812 0.0000 0.0000 0.0000
# 3 -5.3633 35.8812 187.1542 0.0000 0.0000 0.0000
# 4 0.0000 0.0000 0.0000 45.5977 0.0000 0.0000
# 5 0.0000 0.0000 0.0000 0.0000 25.9800 0.0000
# 6 0.0000 0.0000 0.0000 0.0000 0.0000 13.3990
#
#
#
# Elastic Compliance Matrix: (Units=1/GPa)
#
#
# Indices 1 2 3 4 5 6 
#
# 1 0.009908 -0.001687 0.000607 0.000000 0.000000 0.000000
# 2 -0.001687 0.026484 -0.005126 0.000000 0.000000 0.000000
# 3 0.000607 -0.005126 0.006343 0.000000 0.000000 0.000000
# 4 0.000000 0.000000 0.000000 0.021931 0.000000 0.000000
# 5 0.000000 0.000000 0.000000 0.000000 0.038491 0.000000
# 6 0.000000 0.000000 0.000000 0.000000 0.000000 0.074632
#
#
# Mechanical properties :
#
#
# Convention : Reuss Voigt Hill
#
# Bulk Modulus (GPa) = 32.97704 45.15268 39.06486
# Shear Modulus (GPa) = 24.96129 36.88885 30.92507
#
# Velocity S-wave (km/s) = 3.52057 4.27983 3.91863
# Velocity P-wave (km/s) = 5.73589 6.84419 6.31440
#
# Compressibility (1/GPa) = 0.03032412
#
# Stress axis : x y z
#
# Youngs Moduli (GPa) = 100.92681 37.75813 157.64557
#
# Poissons Ratio (x) = 0.06371 -0.09576
# Poissons Ratio (y) = 0.17030 0.80808
# Poissons Ratio (z) = -0.06131 0.19355
#
# Static dielectric constant tensor:
#      x y z
#    x 1.723280 0.000000 0.000000 
#    y 0.000000 1.695400 0.000000 
#    z 0.000000 0.000000 1.828890 
# 
# From -- ./inp_files/35827.got.cif
#   From: 2010.05.17/outbox.cif.g08.bks.cpg/sg24_18_cif.got.tgz:35827.got - 2010.06.04 00:33:39.
