data_PCOD9333127
_publ_section_title
;
Structure prediction by ZEFSAII (Michael W. Deem and Ramdas Pophale) SiO2 
 PCOD9333127
Probable space group: I 21 21 21
;
_chemical_formula_sum "Si O2"
_cell_formula_units_Z 48
_cell_length_a 10.569542
_cell_length_b 12.684084
_cell_length_c 18.640525
_cell_angle_alpha 90.000000
_cell_angle_beta 90.000000
_cell_angle_gamma 90.000000
_cell_volume 2499.041212
_symmetry_space_group_name_H-M "I 21 21 21"
_symmetry_group_IT_number 24
_symmetry_cell_setting 'orthorhombic'
loop_
_space_group_symop_operation_xyz
x,y,z
-x,1/2-y,z
x,-y,1/2-z
1/2-x,y,-z
1/2+x,1/2+y,1/2+z
1/2-x,-y,1/2+z
1/2+x,1/2-y,-z
-x,1/2+y,1/2-z
loop_
_atom_site_type_symbol
_atom_site_label
_atom_site_fract_x
_atom_site_fract_y
_atom_site_fract_z
Si Si1 0.999314 0.004563 0.904281
Si Si2 0.046052 0.924721 0.063323
Si Si3 0.808350 0.794959 0.077740
Si Si4 0.138677 0.692938 0.640268
Si Si5 0.734906 0.607724 0.585715
Si Si6 0.109055 0.664050 0.800569
O O1 0.138600 0.049193 0.887215
O O2 0.892933 0.095628 0.912132
O O3 0.953747 0.936250 0.837749
O O4 0.018002 0.944177 0.979026
O O5 0.136365 0.822990 0.070160
O O6 0.915154 0.882048 0.095435
O O7 0.114545 0.029585 0.094496
O O8 0.709483 0.796153 0.141606
O O9 0.750000 0.821428 0.000000
O O10 0.247848 0.775195 0.618012
O O11 0.162371 0.651396 0.720640
O O12 0.000000 0.750000 0.640133
O O13 0.750000 0.618899 0.500000
O O14 0.000000 0.750000 0.794730
#
# Coordination Sequence:
#
# PCOD9333127 Si02
#       6
#     8   8   8   8   8   8
#     4  10  18  34  57  85 117 149 195 253 301 352
#     4  10  20  34  58  86 120 155 200 242 308 365
#     4  11  20  33  54  92 121 155 196 250 306 373
#     4   9  20  35  56  86 116 152 200 247 303 357
#     4   9  18  36  59  86 117 154 197 247 299 366
#     4  11  20  33  56  88 124 156 191 254 311 360
#
# _framework density 19.207367000000001
#
# number of rings (size 3 to 8) (size 9 to 14) (size 15 to 20)
#    0.000    2.000    1.667    4.000    0.000    0.000 
#    3.000    2.500    0.000    8.000    0.000    0.000 
#    0.000    0.000    0.000    0.000    0.000    0.000 
#
# Total GULP energy -133701.130613 kJ/mol
# GULP energy per Si atom -5570.880442 kJ/mol
# Density = 1.916365 g / cm^3
# Si number density = 19.207367 Si / 1000 Ang^3
#
#
#
# Elastic Constant Matrix: (Units=GPa)
#
#
# Indices 1 2 3 4 5 6 
#
# 1 68.9723 32.0653 30.5147 0.0000 0.0000 0.0000
# 2 32.0653 83.3015 36.4290 0.0000 0.0000 0.0000
# 3 30.5147 36.4290 70.0299 0.0000 0.0000 0.0000
# 4 0.0000 0.0000 0.0000 14.8592 0.0000 0.0000
# 5 0.0000 0.0000 0.0000 0.0000 11.2663 0.0000
# 6 0.0000 0.0000 0.0000 0.0000 0.0000 24.0746
#
#
#
# Elastic Compliance Matrix: (Units=1/GPa)
#
#
# Indices 1 2 3 4 5 6 
#
# 1 0.019379 -0.004876 -0.005908 0.000000 0.000000 0.000000
# 2 -0.004876 0.016767 -0.006597 0.000000 0.000000 0.000000
# 3 -0.005908 -0.006597 0.020286 0.000000 0.000000 0.000000
# 4 0.000000 0.000000 0.000000 0.067298 0.000000 0.000000
# 5 0.000000 0.000000 0.000000 0.000000 0.088760 0.000000
# 6 0.000000 0.000000 0.000000 0.000000 0.000000 0.041538
#
#
# Mechanical properties :
#
#
# Convention : Reuss Voigt Hill
#
# Bulk Modulus (GPa) = 46.14800 46.70244 46.42522
# Shear Modulus (GPa) = 16.89117 18.25967 17.57542
#
# Velocity S-wave (km/s) = 2.96870 3.08662 3.02824
# Velocity P-wave (km/s) = 5.98576 6.08857 6.03738
#
# Compressibility (1/GPa) = 0.02166941
#
# Stress axis : x y z
#
# Youngs Moduli (GPa) = 51.60178 59.64248 49.29598
#
# Poissons Ratio (x) = 0.29082 0.29123
# Poissons Ratio (y) = 0.25162 0.32521
# Poissons Ratio (z) = 0.30485 0.39347
#
# Static dielectric constant tensor:
#      x y z
#    x 1.721550 0.000000 0.000000 
#    y 0.000000 1.732460 0.000000 
#    z 0.000000 0.000000 1.631660 
# 
# From -- ./inp_files/19682.got.cif
#   From: 2010.05.17/outbox.cif.g08.bks.cpg/sg24_10_cif.got.tgz:19682.got - 2010.06.04 00:33:39.
