data_PCOD9333491
_publ_section_title
;
Structure prediction by ZEFSAII (Michael W. Deem and Ramdas Pophale) SiO2 
 PCOD9333491
Probable space group: I 21 21 21
;
_chemical_formula_sum "Si O2"
_cell_formula_units_Z 64
_cell_length_a 13.723470
_cell_length_b 13.977606
_cell_length_c 17.136773
_cell_angle_alpha 90.000000
_cell_angle_beta 90.000000
_cell_angle_gamma 90.000000
_cell_volume 3287.197331
_symmetry_space_group_name_H-M "I 21 21 21"
_symmetry_group_IT_number 24
_symmetry_cell_setting 'orthorhombic'
loop_
_space_group_symop_operation_xyz
x,y,z
-x,1/2-y,z
x,-y,1/2-z
1/2-x,y,-z
1/2+x,1/2+y,1/2+z
1/2-x,-y,1/2+z
1/2+x,1/2-y,-z
-x,1/2+y,1/2-z
loop_
_atom_site_type_symbol
_atom_site_label
_atom_site_fract_x
_atom_site_fract_y
_atom_site_fract_z
Si Si1 0.361444 0.999158 0.656810
Si Si2 0.361444 0.000842 0.156810
Si Si3 0.750000 0.085167 0.904709
Si Si4 0.469045 0.642245 0.594334
Si Si5 0.893075 0.290719 0.410654
Si Si6 0.393075 0.790719 0.089346
Si Si7 0.750000 0.867016 0.904467
Si Si8 0.530954 0.142245 0.094334
O O1 0.250000 0.970574 0.631916
O O2 0.378845 0.108522 0.630373
O O3 0.363535 0.000000 0.750000
O O4 0.449179 0.931905 0.625764
O O5 0.378844 0.891478 0.130374
O O6 0.363535 0.000000 0.250000
O O7 0.449179 0.068095 0.125764
O O8 0.644013 0.126203 0.880350
O O9 0.855988 0.126203 0.880350
O O10 0.750000 0.974958 0.878159
O O11 0.750000 0.090101 0.000000
O O12 0.500000 0.750000 0.615123
O O13 0.470446 0.632754 0.500000
O O14 0.860628 0.306370 0.500000
O O15 0.837321 0.199390 0.377236
O O16 0.000000 0.250000 0.412731
O O17 0.500000 0.750000 0.087270
O O18 0.337321 0.699390 0.122764
O O19 0.750000 0.872906 0.000000
O O20 0.500000 0.250000 0.115123
#
# Coordination Sequence:
#
# PCOD9333491 Si02
#       8
#     8   8   8   8   8   8   8   8
#     4  11  24  40  58  86 126 169 205 244 295 360
#     4  11  24  40  58  86 126 169 205 244 295 360
#     4   9  18  36  58  89 122 144 191 255 310 367
#     4  10  22  39  64  90 116 157 205 259 310 356
#     4  10  19  33  58  88 114 147 192 245 304 355
#     4  10  19  33  58  88 114 147 192 245 304 355
#     4   9  16  28  50  81 113 140 171 229 298 351
#     4  10  22  39  64  90 116 157 205 259 310 356
#
# _framework density 19.469473000000001
#
# number of rings (size 3 to 8) (size 9 to 14) (size 15 to 20)
#    0.000    2.000    1.250    2.250    1.750    6.500 
#    0.000    0.625    0.000    0.000    0.000    0.000 
#    0.000    0.000    0.000    0.000    0.000    0.000 
#
# Total GULP energy -178231.052461 kJ/mol
# GULP energy per Si atom -5569.720389 kJ/mol
# Density = 1.942516 g / cm^3
# Si number density = 19.469473 Si / 1000 Ang^3
#
#
#
# Elastic Constant Matrix: (Units=GPa)
#
#
# Indices 1 2 3 4 5 6 
#
# 1 216.1869 107.6740 24.9801 0.0000 0.0000 0.0000
# 2 107.6740 172.0017 33.8750 0.0000 0.0000 0.0000
# 3 24.9801 33.8750 27.0848 0.0000 0.0000 0.0000
# 4 0.0000 0.0000 0.0000 425.2198 0.0000 0.0000
# 5 0.0000 0.0000 0.0000 0.0000 12.7303 0.0000
# 6 0.0000 0.0000 0.0000 0.0000 0.0000 28.4186
#
#
#
# Elastic Compliance Matrix: (Units=1/GPa)
#
#
# Indices 1 2 3 4 5 6 
#
# 1 0.006753 -0.003981 -0.001249 0.000000 0.000000 0.000000
# 2 -0.003981 0.010061 -0.008912 0.000000 0.000000 0.000000
# 3 -0.001249 -0.008912 0.049219 0.000000 0.000000 0.000000
# 4 0.000000 0.000000 0.000000 0.002352 0.000000 0.000000
# 5 0.000000 0.000000 0.000000 0.000000 0.078552 0.000000
# 6 0.000000 0.000000 0.000000 0.000000 0.000000 0.035188
#
#
# Mechanical properties :
#
#
# Convention : Reuss Voigt Hill
#
# Bulk Modulus (GPa) = 26.49048 83.14795 54.81922
# Shear Modulus (GPa) = 22.42231 109.85670 66.13950
#
# Velocity S-wave (km/s) = 3.39730 7.51981 5.83478
# Velocity P-wave (km/s) = 5.38745 10.87181 8.57965
#
# Compressibility (1/GPa) = 0.03774940
#
# Stress axis : x y z
#
# Youngs Moduli (GPa) = 148.08463 99.38915 20.31750
#
# Poissons Ratio (x) = 0.39571 0.02537
# Poissons Ratio (y) = 0.58959 0.18107
# Poissons Ratio (z) = 0.18489 0.88574
#
# Static dielectric constant tensor:
#      x y z
#    x 1.686910 0.000000 0.000000 
#    y 0.000000 1.652630 0.000000 
#    z 0.000000 0.000000 1.448270 
# 
# From -- ./inp_files/30359.got.cif
#   From: 2010.05.17/outbox.cif.g08.bks.cpg/sg24_16_cif.got.tgz:30359.got - 2010.06.04 00:33:39.
