data_PCOD9333294
_publ_section_title
;
Structure prediction by ZEFSAII (Michael W. Deem and Ramdas Pophale) SiO2 
 PCOD9333294
Probable space group: I 21 21 21
;
_chemical_formula_sum "Si O2"
_cell_formula_units_Z 48
_cell_length_a 16.976871
_cell_length_b 13.523611
_cell_length_c 11.419182
_cell_angle_alpha 90.000000
_cell_angle_beta 90.000000
_cell_angle_gamma 90.000000
_cell_volume 2621.714002
_symmetry_space_group_name_H-M "I 21 21 21"
_symmetry_group_IT_number 24
_symmetry_cell_setting 'orthorhombic'
loop_
_space_group_symop_operation_xyz
x,y,z
-x,1/2-y,z
x,-y,1/2-z
1/2-x,y,-z
1/2+x,1/2+y,1/2+z
1/2-x,-y,1/2+z
1/2+x,1/2-y,-z
-x,1/2+y,1/2-z
loop_
_atom_site_type_symbol
_atom_site_label
_atom_site_fract_x
_atom_site_fract_y
_atom_site_fract_z
Si Si1 0.334187 0.862820 0.053026
Si Si2 0.591136 0.500000 0.250000
Si Si3 0.164038 0.563713 0.481605
Si Si4 0.961289 0.857831 0.652893
Si Si5 0.089142 0.500000 0.250000
Si Si6 0.010640 0.141692 0.413388
Si Si7 0.622406 0.860584 0.103701
O O1 0.336456 0.745349 0.084343
O O2 0.358765 0.927698 0.166036
O O3 0.250000 0.889084 0.000000
O O4 0.400959 0.878495 0.953563
O O5 0.532410 0.435044 0.169368
O O6 0.250000 0.609286 0.500000
O O7 0.091435 0.621698 0.539732
O O8 0.144670 0.552212 0.345114
O O9 0.164516 0.456117 0.547665
O O10 0.901641 0.872309 0.761908
O O11 0.000000 0.750000 0.656936
O O12 0.031885 0.432769 0.327433
O O13 0.000000 0.250000 0.359786
O O14 0.959909 0.144403 0.533041
#
# Coordination Sequence:
#
# PCOD9333294 Si02
#       7
#     8   4   8   8   4   8   8
#     4  11  22  36  59  95 121 157 210 258 306 355
#     4  12  20  38  64  88 120 166 210 252 300 372
#     4  11  24  38  61  95 125 154 200 266 321 356
#     4  12  21  39  68  92 121 162 212 255 302 377
#     4  10  22  38  56  82 118 162 196 238 304 378
#     4   9  18  37  59  81 111 157 206 238 290 368
#     4  10  18  39  67  90 114 157 213 259 297 365
#
# _framework density 18.308633
#
# number of rings (size 3 to 8) (size 9 to 14) (size 15 to 20)
#    0.000    1.333    5.000    2.000    2.333    1.333 
#    0.000    0.833    0.000    0.000    0.000    0.000 
#    0.000    0.000    0.000    0.000    0.000    0.000 
#
# Total GULP energy -133962.200899 kJ/mol
# GULP energy per Si atom -5581.758371 kJ/mol
# Density = 1.826696 g / cm^3
# Si number density = 18.308633 Si / 1000 Ang^3
#
#
#
# Elastic Constant Matrix: (Units=GPa)
#
#
# Indices 1 2 3 4 5 6 
#
# 1 111.5536 6.4900 26.4961 0.0000 0.0000 0.0000
# 2 6.4900 49.6747 -5.4289 0.0000 0.0000 0.0000
# 3 26.4961 -5.4289 91.5977 0.0000 0.0000 0.0000
# 4 0.0000 0.0000 0.0000 12.0414 0.0000 0.0000
# 5 0.0000 0.0000 0.0000 0.0000 13.8981 0.0000
# 6 0.0000 0.0000 0.0000 0.0000 0.0000 19.0984
#
#
#
# Elastic Compliance Matrix: (Units=1/GPa)
#
#
# Indices 1 2 3 4 5 6 
#
# 1 0.009749 -0.001592 -0.002914 0.000000 0.000000 0.000000
# 2 -0.001592 0.020522 0.001677 0.000000 0.000000 0.000000
# 3 -0.002914 0.001677 0.011860 0.000000 0.000000 0.000000
# 4 0.000000 0.000000 0.000000 0.083047 0.000000 0.000000
# 5 0.000000 0.000000 0.000000 0.000000 0.071952 0.000000
# 6 0.000000 0.000000 0.000000 0.000000 0.000000 0.052360
#
#
# Mechanical properties :
#
#
# Convention : Reuss Voigt Hill
#
# Bulk Modulus (GPa) = 27.41861 34.21559 30.81710
# Shear Modulus (GPa) = 18.70504 24.02551 21.36527
#
# Velocity S-wave (km/s) = 3.19980 3.62643 3.41977
# Velocity P-wave (km/s) = 5.35349 6.02191 5.69751
#
# Compressibility (1/GPa) = 0.03647158
#
# Stress axis : x y z
#
# Youngs Moduli (GPa) = 102.57276 48.72759 84.31878
#
# Poissons Ratio (x) = 0.07759 0.24575
# Poissons Ratio (y) = 0.16332 -0.14140
# Poissons Ratio (z) = 0.29895 -0.08171
#
# Static dielectric constant tensor:
#      x y z
#    x 1.626260 0.000000 0.000000 
#    y 0.000000 1.697590 0.000000 
#    z 0.000000 0.000000 1.639110 
# 
# From -- ./inp_files/20771.got.cif
#   From: 2010.05.17/outbox.cif.g08.bks.cpg/sg24_11_cif.got.tgz:20771.got - 2010.06.04 00:33:39.
