data_PCOD9333148
_publ_section_title
;
Structure prediction by ZEFSAII (Michael W. Deem and Ramdas Pophale) SiO2 
 PCOD9333148
Probable space group: I 21 21 21
;
_chemical_formula_sum "Si O2"
_cell_formula_units_Z 40
_cell_length_a 10.390231
_cell_length_b 15.356019
_cell_length_c 13.779441
_cell_angle_alpha 90.000000
_cell_angle_beta 90.000000
_cell_angle_gamma 90.000000
_cell_volume 2198.545427
_symmetry_space_group_name_H-M "I 21 21 21"
_symmetry_group_IT_number 24
_symmetry_cell_setting 'orthorhombic'
loop_
_space_group_symop_operation_xyz
x,y,z
-x,1/2-y,z
x,-y,1/2-z
1/2-x,y,-z
1/2+x,1/2+y,1/2+z
1/2-x,-y,1/2+z
1/2+x,1/2-y,-z
-x,1/2+y,1/2-z
loop_
_atom_site_type_symbol
_atom_site_label
_atom_site_fract_x
_atom_site_fract_y
_atom_site_fract_z
Si Si1 0.500000 0.250000 0.064189
Si Si2 0.399313 0.438931 0.840734
Si Si3 0.854321 0.216509 0.578602
Si Si4 0.750000 0.954846 0.000000
Si Si5 0.229764 0.728125 0.698616
Si Si6 0.652925 0.618749 0.576150
O O1 0.604761 0.204387 0.133734
O O2 0.571812 0.317077 0.994168
O O3 0.374540 0.500000 0.750000
O O4 0.340433 0.343656 0.819054
O O5 0.549401 0.436663 0.866596
O O6 0.328023 0.483339 0.929818
O O7 0.750000 0.253166 0.500000
O O8 0.842254 0.112530 0.558169
O O9 0.808025 0.233545 0.688598
O O10 0.000000 0.250000 0.564403
O O11 0.274879 0.819887 0.653622
O O12 0.750000 0.573720 0.500000
#
# Coordination Sequence:
#
# PCOD9333148 Si02
#       6
#     4   8   8   4   8   8
#     4  10  18  34  62  86 114 142 202 264 294 350
#     4  12  21  38  60  88 129 156 203 248 318 367
#     4  10  22  42  62  92 120 164 216 252 295 367
#     4  10  24  38  62  92 118 168 198 258 304 362
#     4  11  20  36  64  90 116 158 206 258 298 369
#     4  10  22  37  59  93 117 160 205 251 311 362
#
# _framework density 18.193847000000002
#
# number of rings (size 3 to 8) (size 9 to 14) (size 15 to 20)
#    0.600    0.800    5.000    1.200    1.400    3.200 
#    0.000    3.000    0.000    0.000    0.000    0.000 
#    0.000    0.000    0.000    0.000    0.000    0.000 
#
# Total GULP energy -111481.764406 kJ/mol
# GULP energy per Si atom -5574.088220 kJ/mol
# Density = 1.815244 g / cm^3
# Si number density = 18.193847 Si / 1000 Ang^3
#
#
#
# Elastic Constant Matrix: (Units=GPa)
#
#
# Indices 1 2 3 4 5 6 
#
# 1 89.9772 7.1636 33.8253 0.0000 0.0000 0.0000
# 2 7.1636 23.9580 7.5601 0.0000 0.0001 0.0000
# 3 33.8253 7.5601 124.2532 0.0000 0.0001 0.0000
# 4 0.0000 0.0000 0.0000 -6.5300 0.0001 0.0000
# 5 0.0000 0.0001 0.0001 0.0001 124.6804 0.0000
# 6 0.0000 0.0000 0.0000 0.0000 0.0000 26.3286
#
#
#
# Elastic Compliance Matrix: (Units=1/GPa)
#
#
# Indices 1 2 3 4 5 6 
#
# 1 0.012553 -0.002728 -0.003251 0.000000 0.000000 0.000000
# 2 -0.002728 0.043149 -0.001883 0.000000 0.000000 0.000000
# 3 -0.003251 -0.001883 0.009048 0.000000 0.000000 0.000000
# 4 0.000000 0.000000 0.000000 -0.153139 0.000000 0.000000
# 5 0.000000 0.000000 0.000000 0.000000 0.008021 0.000000
# 6 0.000000 0.000000 0.000000 0.000000 0.000000 0.037982
#
#
# Mechanical properties :
#
#
# Convention : Reuss Voigt Hill
#
# Bulk Modulus (GPa) = 20.39700 37.25404 28.82552
# Shear Modulus (GPa) = -484.49003 41.53843 -221.47580
#
# Velocity S-wave (km/s) = -16.33620 4.78337 -11.04515
# Velocity P-wave (km/s) = 18.56322 7.14339 12.11539
#
# Compressibility (1/GPa) = 0.04902683
#
# Stress axis : x y z
#
# Youngs Moduli (GPa) = 79.65969 23.17531 110.52432
#
# Poissons Ratio (x) = 0.06321 0.35936
# Poissons Ratio (y) = 0.21728 0.20810
# Poissons Ratio (z) = 0.25901 0.04364
#
# Static dielectric constant tensor:
#      x y z
#    x 1.660300 0.000000 0.000000 
#    y 0.000000 1.548660 0.000000 
#    z 0.000000 0.000000 1.625820 
# 
# From -- ./inp_files/19464.got.cif
#   From: 2010.05.17/outbox.cif.g08.bks.cpg/sg24_10_cif.got.tgz:19464.got - 2010.06.04 00:33:39.
