data_PCOD9333071
_publ_section_title
;
Structure prediction by ZEFSAII (Michael W. Deem and Ramdas Pophale) SiO2 
 PCOD9333071
Probable space group: I 21 21 21
;
_chemical_formula_sum "Si O2"
_cell_formula_units_Z 44
_cell_length_a 10.983010
_cell_length_b 23.000050
_cell_length_c 8.666165
_cell_angle_alpha 90.000000
_cell_angle_beta 90.000000
_cell_angle_gamma 90.000000
_cell_volume 2189.158027
_symmetry_space_group_name_H-M "I 21 21 21"
_symmetry_group_IT_number 24
_symmetry_cell_setting 'orthorhombic'
loop_
_space_group_symop_operation_xyz
x,y,z
-x,1/2-y,z
x,-y,1/2-z
1/2-x,y,-z
1/2+x,1/2+y,1/2+z
1/2-x,-y,1/2+z
1/2+x,1/2-y,-z
-x,1/2+y,1/2-z
loop_
_atom_site_type_symbol
_atom_site_label
_atom_site_fract_x
_atom_site_fract_y
_atom_site_fract_z
Si Si1 0.409714 0.903440 0.369488
Si Si2 0.459155 0.914814 0.010121
Si Si3 0.376323 0.218166 0.953228
Si Si4 0.250000 0.994410 0.500000
Si Si5 0.123856 0.512854 0.567800
Si Si6 0.616006 0.289922 0.585636
O O1 0.443254 0.897287 0.190508
O O2 0.381298 0.844490 0.460386
O O3 0.297885 0.949033 0.372563
O O4 0.520077 0.938343 0.450173
O O5 0.582810 0.951396 0.992728
O O6 0.359034 0.962380 0.963171
O O7 0.432586 0.855641 0.925625
O O8 0.500000 0.250000 0.999971
O O9 0.368858 0.218261 0.768320
O O10 0.250000 0.247956 0.000000
O O11 0.131796 0.500000 0.750000
O O12 0.250000 0.533012 0.500000
O O13 0.500000 0.250000 0.531165
O O14 0.750000 0.283384 0.500000
#
# Coordination Sequence:
#
# PCOD9333071 Si02
#       6
#     8   8   8   4   8   8
#     4  10  21  37  60  89 122 158 200 253 312 371
#     4  10  21  37  60  89 122 158 200 253 312 371
#     4  11  25  43  64  92 125 166 217 267 321 382
#     4  10  18  32  62  94 118 148 196 250 310 366
#     4   9  20  37  56  86 124 160 198 246 310 374
#     4  11  25  43  64  92 125 166 217 267 321 382
#
# _framework density 20.099050999999999
#
# number of rings (size 3 to 8) (size 9 to 14) (size 15 to 20)
#    0.000    1.818    1.818    2.727    0.000    7.273 
#    0.000   12.727    0.000    0.000    0.000    0.000 
#    0.000    0.000    0.000    0.000    0.000    0.000 
#
# Total GULP energy -122612.072848 kJ/mol
# GULP energy per Si atom -5573.276039 kJ/mol
# Density = 2.005330 g / cm^3
# Si number density = 20.099051 Si / 1000 Ang^3
#
#
#
# Elastic Constant Matrix: (Units=GPa)
#
#
# Indices 1 2 3 4 5 6 
#
# 1 124.5752 40.9553 28.1003 -0.0001 0.0001 -0.0001
# 2 40.9553 80.8695 11.6681 -0.0003 0.0001 0.0015
# 3 28.1003 11.6681 26.9450 -0.0005 0.0002 0.0001
# 4 -0.0001 -0.0003 -0.0005 16.0170 0.0001 0.0016
# 5 0.0001 0.0001 0.0002 0.0001 27.2851 0.0001
# 6 -0.0001 0.0015 0.0001 0.0016 0.0001 -52.0290
#
#
#
# Elastic Compliance Matrix: (Units=1/GPa)
#
#
# Indices 1 2 3 4 5 6 
#
# 1 0.011857 -0.004502 -0.010416 0.000000 0.000000 0.000000
# 2 -0.004502 0.014899 -0.001757 0.000000 0.000000 0.000000
# 3 -0.010416 -0.001757 0.048736 0.000001 0.000000 0.000000
# 4 0.000000 0.000000 0.000001 0.062434 0.000000 0.000002
# 5 0.000000 0.000000 0.000000 0.000000 0.036650 0.000000
# 6 0.000000 0.000000 0.000000 0.000002 0.000000 -0.019220
#
#
# Mechanical properties :
#
#
# Convention : Reuss Voigt Hill
#
# Bulk Modulus (GPa) = 23.72892 43.75967 33.74430
# Shear Modulus (GPa) = 24.66073 8.36570 16.51321
#
# Velocity S-wave (km/s) = 3.50660 2.04237 2.86945
# Velocity P-wave (km/s) = 5.31287 5.23268 5.27293
#
# Compressibility (1/GPa) = 0.04214266
#
# Stress axis : x y z
#
# Youngs Moduli (GPa) = 84.33994 67.11850 20.51881
#
# Poissons Ratio (x) = 0.30216 0.21372
# Poissons Ratio (y) = 0.37969 0.03605
# Poissons Ratio (z) = 0.87846 0.11792
#
# Static dielectric constant tensor:
#      x y z
#    x 1.748300 0.000000 0.000000 
#    y 0.000000 1.697680 0.000000 
#    z 0.000000 0.000000 2.179300 
# 
# From -- ./inp_files/11196.got.cif
#   From: 2010.05.17/outbox.cif.g08.bks.cpg/sg24_6_cif.got.tgz:11196.got - 2010.06.04 00:33:39.
