data_PCOD9333671
_publ_section_title
;
Structure prediction by ZEFSAII (Michael W. Deem and Ramdas Pophale) SiO2 
 PCOD9333671
Probable space group: I 21 21 21
;
_chemical_formula_sum "Si O2"
_cell_formula_units_Z 36
_cell_length_a 13.009639
_cell_length_b 8.593727
_cell_length_c 14.384119
_cell_angle_alpha 90.000000
_cell_angle_beta 90.000000
_cell_angle_gamma 90.000000
_cell_volume 1608.163001
_symmetry_space_group_name_H-M "I 21 21 21"
_symmetry_group_IT_number 24
_symmetry_cell_setting 'orthorhombic'
loop_
_space_group_symop_operation_xyz
x,y,z
-x,1/2-y,z
x,-y,1/2-z
1/2-x,y,-z
1/2+x,1/2+y,1/2+z
1/2-x,-y,1/2+z
1/2+x,1/2-y,-z
-x,1/2+y,1/2-z
loop_
_atom_site_type_symbol
_atom_site_label
_atom_site_fract_x
_atom_site_fract_y
_atom_site_fract_z
Si Si1 0.806081 0.566409 0.354719
Si Si2 0.293105 0.422958 0.846404
Si Si3 0.383379 0.932686 0.038648
Si Si4 0.045738 0.422108 0.846976
Si Si5 0.750000 0.850790 0.000000
O O1 0.808723 0.500000 0.250000
O O2 0.833388 0.748407 0.356320
O O3 0.875016 0.474817 0.429799
O O4 0.692819 0.543297 0.400400
O O5 0.326201 0.500000 0.750000
O O6 0.168503 0.412339 0.847499
O O7 0.312764 0.540392 0.930213
O O8 0.495170 0.967439 0.076027
O O9 0.329071 0.765768 0.051504
O O10 0.013909 0.500000 0.750000
O O11 0.000000 0.250000 0.856194
#
# Coordination Sequence:
#
# PCOD9333671 Si02
#       5
#     8   8   8   8   4
#     4  10  19  36  59  84 119 158 203 239 294 357
#     4  11  22  35  58  89 119 149 197 249 297 357
#     4  10  21  36  57  85 120 161 196 242 303 357
#     4  11  24  36  60  91 124 156 190 248 310 357
#     4  10  22  36  56  82 122 156 194 246 288 356
#
# _framework density 22.38579
#
# number of rings (size 3 to 8) (size 9 to 14) (size 15 to 20)
#    0.000    1.778    2.222    4.667    6.222    0.000 
#    0.000    0.000    0.000    1.333    0.000    0.000 
#    0.000    0.000    0.000    0.000    0.000    0.000 
#
# Total GULP energy -100615.049268 kJ/mol
# GULP energy per Si atom -5589.724959 kJ/mol
# Density = 2.233484 g / cm^3
# Si number density = 22.385790 Si / 1000 Ang^3
#
#
#
# Elastic Constant Matrix: (Units=GPa)
#
#
# Indices 1 2 3 4 5 6 
#
# 1 23.6161 1.4351 6.9289 0.0000 0.0000 0.0000
# 2 1.4351 132.5067 24.8288 0.0000 0.0000 0.0000
# 3 6.9289 24.8288 141.3730 0.0000 0.0000 0.0000
# 4 0.0000 0.0000 0.0000 44.1317 0.0000 0.0000
# 5 0.0000 0.0000 0.0000 0.0000 14.0180 0.0000
# 6 0.0000 0.0000 0.0000 0.0000 0.0000 20.5944
#
#
#
# Elastic Compliance Matrix: (Units=1/GPa)
#
#
# Indices 1 2 3 4 5 6 
#
# 1 0.042962 -0.000073 -0.002093 0.000000 0.000000 0.000000
# 2 -0.000073 0.007804 -0.001367 0.000000 0.000000 0.000000
# 3 -0.002093 -0.001367 0.007416 0.000000 0.000000 0.000000
# 4 0.000000 0.000000 0.000000 0.022659 0.000000 0.000000
# 5 0.000000 0.000000 0.000000 0.000000 0.071337 0.000000
# 6 0.000000 0.000000 0.000000 0.000000 0.000000 0.048557
#
#
# Mechanical properties :
#
#
# Convention : Reuss Voigt Hill
#
# Bulk Modulus (GPa) = 19.56317 40.43128 29.99723
# Shear Modulus (GPa) = 22.23804 33.36902 27.80353
#
# Velocity S-wave (km/s) = 3.15524 3.86506 3.52805
# Velocity P-wave (km/s) = 4.69384 6.16592 5.47954
#
# Compressibility (1/GPa) = 0.05111646
#
# Stress axis : x y z
#
# Youngs Moduli (GPa) = 23.27614 128.14403 134.84123
#
# Poissons Ratio (x) = 0.00938 0.28220
# Poissons Ratio (y) = 0.00170 0.18432
# Poissons Ratio (z) = 0.04871 0.17517
#
# Static dielectric constant tensor:
#      x y z
#    x 1.876970 0.000000 0.000000 
#    y 0.000000 1.823180 0.000000 
#    z 0.000000 0.000000 1.827170 
# 
# From -- ./inp_files/12476.got.cif
#   From: 2010.05.17/outbox.cif.g08.bks.cpg/sg24_7_cif.got.tgz:12476.got - 2010.06.04 00:33:39.
