data_PCOD9333406
_publ_section_title
;
Structure prediction by ZEFSAII (Michael W. Deem and Ramdas Pophale) SiO2 
 PCOD9333406
Probable space group: I 21 21 21
;
_chemical_formula_sum "Si O2"
_cell_formula_units_Z 56
_cell_length_a 8.786957
_cell_length_b 14.096792
_cell_length_c 22.096437
_cell_angle_alpha 90.000000
_cell_angle_beta 90.000000
_cell_angle_gamma 90.000000
_cell_volume 2737.039362
_symmetry_space_group_name_H-M "I 21 21 21"
_symmetry_group_IT_number 24
_symmetry_cell_setting 'orthorhombic'
loop_
_space_group_symop_operation_xyz
x,y,z
-x,1/2-y,z
x,-y,1/2-z
1/2-x,y,-z
1/2+x,1/2+y,1/2+z
1/2-x,-y,1/2+z
1/2+x,1/2-y,-z
-x,1/2+y,1/2-z
loop_
_atom_site_type_symbol
_atom_site_label
_atom_site_fract_x
_atom_site_fract_y
_atom_site_fract_z
Si Si1 0.563833 0.844404 0.350132
Si Si2 0.369346 0.407419 0.794783
Si Si3 0.611435 0.602772 0.234159
Si Si4 0.588283 0.941567 0.120876
Si Si5 0.591760 0.664855 0.805260
Si Si6 0.939152 0.038451 0.395731
Si Si7 0.067254 0.854602 0.993604
O O1 0.500000 0.750000 0.382843
O O2 0.722328 0.845364 0.311938
O O3 0.442381 0.857923 0.297160
O O4 0.569667 0.943947 0.386719
O O5 0.332003 0.500000 0.750000
O O6 0.500519 0.357581 0.756347
O O7 0.423100 0.437977 0.862021
O O8 0.685685 0.500000 0.250000
O O9 0.475585 0.582143 0.187472
O O10 0.731870 0.674187 0.205735
O O11 0.767778 0.920080 0.113748
O O12 0.488875 0.884140 0.072983
O O13 0.500000 0.750000 0.834196
O O14 0.567027 0.582426 0.852651
O O15 0.992896 0.065867 0.462228
O O16 0.000000 0.750000 0.008064
O O17 0.250000 0.853491 0.000000
#
# Coordination Sequence:
#
# PCOD9333406 Si02
#       7
#     8   8   8   8   8   8   8
#     4  10  19  34  57  82 110 146 187 229 276 334
#     4   9  18  34  53  77 112 151 185 224 279 334
#     4  10  19  32  51  79 111 145 183 226 276 328
#     4  10  22  38  57  80 111 147 187 231 279 333
#     4  11  20  30  49  80 114 145 183 230 278 332
#     4  10  20  37  56  76 107 146 184 223 275 331
#     4  12  25  41  61  84 110 142 184 229 278 334
#
# _framework density 20.460063000000002
#
# number of rings (size 3 to 8) (size 9 to 14) (size 15 to 20)
#    0.000    1.714    0.000    7.714    0.000    2.857 
#    0.000    0.000    0.000    4.286    0.000    0.000 
#    0.000    0.000    0.000    0.000    0.000    0.000 
#
# Total GULP energy -155967.064238 kJ/mol
# GULP energy per Si atom -5570.252294 kJ/mol
# Density = 2.041350 g / cm^3
# Si number density = 20.460063 Si / 1000 Ang^3
#
#
#
# Elastic Constant Matrix: (Units=GPa)
#
#
# Indices 1 2 3 4 5 6 
#
# 1 65.7973 0.3192 2.3933 0.0000 0.0000 0.0000
# 2 0.3192 51.8342 8.6148 0.0000 0.0000 0.0000
# 3 2.3933 8.6148 54.5659 0.0000 0.0000 0.0000
# 4 0.0000 0.0000 0.0000 11.7268 0.0000 0.0000
# 5 0.0000 0.0000 0.0000 0.0000 24.5044 0.0000
# 6 0.0000 0.0000 0.0000 0.0000 0.0000 18.6857
#
#
#
# Elastic Compliance Matrix: (Units=1/GPa)
#
#
# Indices 1 2 3 4 5 6 
#
# 1 0.015222 0.000018 -0.000670 0.000000 0.000000 0.000000
# 2 0.000018 0.019812 -0.003129 0.000000 0.000000 0.000000
# 3 -0.000670 -0.003129 0.018850 0.000000 0.000000 0.000000
# 4 0.000000 0.000000 0.000000 0.085274 0.000000 0.000000
# 5 0.000000 0.000000 0.000000 0.000000 0.040809 0.000000
# 6 0.000000 0.000000 0.000000 0.000000 0.000000 0.053517
#
#
# Mechanical properties :
#
#
# Convention : Reuss Voigt Hill
#
# Bulk Modulus (GPa) = 21.58823 21.65023 21.61923
# Shear Modulus (GPa) = 19.49408 21.70806 20.60107
#
# Velocity S-wave (km/s) = 3.09007 3.26083 3.17660
# Velocity P-wave (km/s) = 4.82760 4.97815 4.90345
#
# Compressibility (1/GPa) = 0.04632153
#
# Stress axis : x y z
#
# Youngs Moduli (GPa) = 65.69224 50.47403 53.05094
#
# Poissons Ratio (x) = -0.00089 0.03557
# Poissons Ratio (y) = -0.00116 0.16598
# Poissons Ratio (z) = 0.04404 0.15792
#
# Static dielectric constant tensor:
#      x y z
#    x 1.774840 0.000000 0.000000 
#    y 0.000000 1.871760 0.000000 
#    z 0.000000 0.000000 1.704310 
# 
# From -- ./inp_files/32842.got.cif
#   From: 2010.05.17/outbox.cif.g08.bks.cpg/sg24_17_cif.got.tgz:32842.got - 2010.06.04 00:33:39.
