data_PCOD9333392
_publ_section_title
;
Structure prediction by ZEFSAII (Michael W. Deem and Ramdas Pophale) SiO2 
 PCOD9333392
Probable space group: I 21 21 21
;
_chemical_formula_sum "Si O2"
_cell_formula_units_Z 56
_cell_length_a 20.324826
_cell_length_b 8.914674
_cell_length_c 14.895451
_cell_angle_alpha 90.000000
_cell_angle_beta 90.000000
_cell_angle_gamma 90.000000
_cell_volume 2698.894819
_symmetry_space_group_name_H-M "I 21 21 21"
_symmetry_group_IT_number 24
_symmetry_cell_setting 'orthorhombic'
loop_
_space_group_symop_operation_xyz
x,y,z
-x,1/2-y,z
x,-y,1/2-z
1/2-x,y,-z
1/2+x,1/2+y,1/2+z
1/2-x,-y,1/2+z
1/2+x,1/2-y,-z
-x,1/2+y,1/2-z
loop_
_atom_site_type_symbol
_atom_site_label
_atom_site_fract_x
_atom_site_fract_y
_atom_site_fract_z
Si Si1 0.816069 0.892769 0.337865
Si Si2 0.565725 0.653617 0.000804
Si Si3 0.305818 0.689629 0.929024
Si Si4 0.569098 0.668354 0.214190
Si Si5 0.677731 0.717173 0.352132
Si Si6 0.127922 0.854984 0.454224
Si Si7 0.726917 0.538471 0.843615
O O1 0.743801 0.815403 0.340847
O O2 0.868771 0.767549 0.373074
O O3 0.828803 0.000000 0.250000
O O4 0.813322 0.015919 0.415647
O O5 0.500000 0.750000 0.983630
O O6 0.579818 0.662473 0.107333
O O7 0.624395 0.740430 0.951889
O O8 0.569573 0.477729 0.969542
O O9 0.276621 0.783572 0.845975
O O10 0.250000 0.723305 0.000000
O O11 0.500000 0.750000 0.230007
O O12 0.563507 0.500000 0.250000
O O13 0.626163 0.746044 0.272930
O O14 0.644833 0.723860 0.450818
O O15 0.703683 0.544867 0.343577
O O16 0.188489 0.964237 0.426146
O O17 0.692433 0.500000 0.750000
#
# Coordination Sequence:
#
# PCOD9333392 Si02
#       7
#     8   8   8   8   8   8   8
#     4  11  24  39  60  97 138 174 223 289 349 411
#     4  10  23  44  68  95 135 183 238 285 340 419
#     4  11  22  37  62  96 130 172 224 289 339 399
#     4  11  24  43  63  95 135 181 231 268 330 424
#     4  11  21  39  60  88 134 187 224 273 347 407
#     4  10  20  40  60  87 132 179 226 277 336 411
#     4  10  19  31  59  92 122 166 221 279 336 396
#
# _framework density 20.749234000000001
#
# number of rings (size 3 to 8) (size 9 to 14) (size 15 to 20)
#    0.000    1.429    1.429    6.429    4.000    0.571 
#    7.714    0.714    0.000    5.143    0.000    4.000 
#    0.000    0.000    0.000    0.000    0.000    0.000 
#
# Total GULP energy -156032.915669 kJ/mol
# GULP energy per Si atom -5572.604131 kJ/mol
# Density = 2.070201 g / cm^3
# Si number density = 20.749234 Si / 1000 Ang^3
#
#
#
# Elastic Constant Matrix: (Units=GPa)
#
#
# Indices 1 2 3 4 5 6 
#
# 1 76.7813 48.8983 34.9573 0.0000 0.0000 0.0000
# 2 48.8983 122.9026 41.5239 0.0000 0.0000 0.0000
# 3 34.9573 41.5239 76.5773 0.0000 0.0000 0.0000
# 4 0.0000 0.0000 0.0000 39.7583 0.0000 0.0000
# 5 0.0000 0.0000 0.0000 0.0000 4.9480 0.0000
# 6 0.0000 0.0000 0.0000 0.0000 0.0000 38.6628
#
#
#
# Elastic Compliance Matrix: (Units=1/GPa)
#
#
# Indices 1 2 3 4 5 6 
#
# 1 0.019271 -0.005748 -0.005680 0.000000 0.000000 0.000000
# 2 -0.005748 0.011676 -0.003707 0.000000 0.000000 0.000000
# 3 -0.005680 -0.003707 0.017662 0.000000 0.000000 0.000000
# 4 0.000000 0.000000 0.000000 0.025152 0.000000 0.000000
# 5 0.000000 0.000000 0.000000 0.000000 0.202102 0.000000
# 6 0.000000 0.000000 0.000000 0.000000 0.000000 0.025865
#
#
# Mechanical properties :
#
#
# Convention : Reuss Voigt Hill
#
# Bulk Modulus (GPa) = 54.53259 58.55781 56.54520
# Shear Modulus (GPa) = 14.78803 26.73259 20.76031
#
# Velocity S-wave (km/s) = 2.67255 3.59327 3.16655
# Velocity P-wave (km/s) = 5.98850 6.74525 6.37811
#
# Compressibility (1/GPa) = 0.01833766
#
# Stress axis : x y z
#
# Youngs Moduli (GPa) = 51.89215 85.64575 56.61875
#
# Poissons Ratio (x) = 0.49229 0.32161
# Poissons Ratio (y) = 0.29828 0.20991
# Poissons Ratio (z) = 0.29476 0.31752
#
# Static dielectric constant tensor:
#      x y z
#    x 1.737050 0.000000 0.000000 
#    y 0.000000 1.809090 0.000000 
#    z 0.000000 0.000000 1.822100 
# 
# From -- ./inp_files/27528.got.cif
#   From: 2010.05.17/outbox.cif.g08.bks.cpg/sg24_14_cif.got.tgz:27528.got - 2010.06.04 00:33:39.
