data_PCOD9333932
_publ_section_title
;
Structure prediction by ZEFSAII (Michael W. Deem and Ramdas Pophale) SiO2 
 PCOD9333932
Probable space group: I 21 21 21
;
_chemical_formula_sum "Si O2"
_cell_formula_units_Z 56
_cell_length_a 8.969751
_cell_length_b 23.578627
_cell_length_c 14.343736
_cell_angle_alpha 90.000000
_cell_angle_beta 90.000000
_cell_angle_gamma 90.000000
_cell_volume 3033.620027
_symmetry_space_group_name_H-M "I 21 21 21"
_symmetry_group_IT_number 24
_symmetry_cell_setting 'orthorhombic'
loop_
_space_group_symop_operation_xyz
x,y,z
-x,1/2-y,z
x,-y,1/2-z
1/2-x,y,-z
1/2+x,1/2+y,1/2+z
1/2-x,-y,1/2+z
1/2+x,1/2-y,-z
-x,1/2+y,1/2-z
loop_
_atom_site_type_symbol
_atom_site_label
_atom_site_fract_x
_atom_site_fract_y
_atom_site_fract_z
Si Si1 0.919828 0.938205 0.205630
Si Si2 0.308227 0.015139 0.398033
Si Si3 0.179231 0.748365 0.097018
Si Si4 0.662480 0.134483 0.359971
Si Si5 0.774511 0.590511 0.279423
Si Si6 0.399799 0.197399 0.251852
Si Si7 0.913263 0.035399 0.506333
O O1 0.051349 0.902586 0.253970
O O2 0.762654 0.906160 0.204911
O O3 0.293082 0.938672 0.184487
O O4 0.963881 0.951311 0.098305
O O5 0.250000 0.034216 0.500000
O O6 0.236003 0.957922 0.358234
O O7 0.478677 0.002003 0.425238
O O8 0.227071 0.683109 0.105718
O O9 0.268655 0.778602 0.181017
O O10 0.000000 0.750000 0.098468
O O11 0.250000 0.770611 0.000000
O O12 0.523696 0.164478 0.312130
O O13 0.606012 0.095747 0.443542
O O14 0.090955 0.500000 0.250000
O O15 0.685075 0.647533 0.304546
O O16 0.500000 0.250000 0.210936
O O17 0.750000 0.008390 0.500000
#
# Coordination Sequence:
#
# PCOD9333932 Si02
#       7
#     8   8   8   8   8   8   8
#     4  11  20  33  51  81 111 144 185 229 289 353
#     4  11  20  36  56  83 113 143 192 231 293 356
#     4  11  21  35  50  72 103 144 192 234 279 343
#     4  10  21  34  51  73 106 145 186 229 281 341
#     4  11  21  35  57  82 112 149 189 235 293 351
#     4  10  22  36  52  78 107 146 195 237 283 345
#     4  10  20  33  50  74 109 145 181 225 280 341
#
# _framework density 18.459793000000001
#
# number of rings (size 3 to 8) (size 9 to 14) (size 15 to 20)
#    0.000    1.429    4.286    3.429    0.000    4.000 
#    0.000    0.000    0.000    0.000    0.000   10.000 
#    0.000    0.000    0.000    0.000    0.000    0.000 
#
# Total GULP energy -156013.387521 kJ/mol
# GULP energy per Si atom -5571.906697 kJ/mol
# Density = 1.841778 g / cm^3
# Si number density = 18.459793 Si / 1000 Ang^3
#
#
#
# Elastic Constant Matrix: (Units=GPa)
#
#
# Indices 1 2 3 4 5 6 
#
# 1 95.6823 22.3753 15.4954 0.0000 0.0000 0.0000
# 2 22.3753 72.2426 6.5898 0.0000 0.0000 0.0000
# 3 15.4954 6.5898 28.5255 0.0000 0.0000 0.0000
# 4 0.0000 0.0000 0.0000 17.1119 0.0000 0.0000
# 5 0.0000 0.0000 0.0000 0.0000 17.8369 0.0000
# 6 0.0000 0.0000 0.0000 0.0000 0.0000 31.4313
#
#
#
# Elastic Compliance Matrix: (Units=1/GPa)
#
#
# Indices 1 2 3 4 5 6 
#
# 1 0.012155 -0.003231 -0.005857 0.000000 0.000000 0.000000
# 2 -0.003231 0.014999 -0.001710 0.000000 0.000000 0.000000
# 3 -0.005857 -0.001710 0.038633 0.000000 0.000000 0.000000
# 4 0.000000 0.000000 0.000000 0.058439 0.000000 0.000000
# 5 0.000000 0.000000 0.000000 0.000000 0.056064 0.000000
# 6 0.000000 0.000000 0.000000 0.000000 0.000000 0.031815
#
#
# Mechanical properties :
#
#
# Convention : Reuss Voigt Hill
#
# Bulk Modulus (GPa) = 22.62829 31.70794 27.16811
# Shear Modulus (GPa) = 20.12641 23.40868 21.76755
#
# Velocity S-wave (km/s) = 3.30553 3.56489 3.43765
# Velocity P-wave (km/s) = 5.18203 5.84454 5.52323
#
# Compressibility (1/GPa) = 0.04419247
#
# Stress axis : x y z
#
# Youngs Moduli (GPa) = 82.26954 66.67199 25.88473
#
# Poissons Ratio (x) = 0.21539 0.15160
# Poissons Ratio (y) = 0.26577 0.04426
# Poissons Ratio (z) = 0.48182 0.11401
#
# Static dielectric constant tensor:
#      x y z
#    x 1.743390 0.000000 0.000000 
#    y 0.000000 1.649170 0.000000 
#    z 0.000000 0.000000 1.628430 
# 
# From -- ./inp_files/29762.got.cif
#   From: 2010.05.17/outbox.cif.g08.bks.cpg/sg24_15_cif.got.tgz:29762.got - 2010.06.04 00:33:39.
