data_PCOD9333729
_publ_section_title
;
Structure prediction by ZEFSAII (Michael W. Deem and Ramdas Pophale) SiO2 
 PCOD9333729
Probable space group: I 21 21 21
;
_chemical_formula_sum "Si O2"
_cell_formula_units_Z 60
_cell_length_a 8.764357
_cell_length_b 24.771945
_cell_length_c 14.908220
_cell_angle_alpha 90.000000
_cell_angle_beta 90.000000
_cell_angle_gamma 90.000000
_cell_volume 3236.726172
_symmetry_space_group_name_H-M "I 21 21 21"
_symmetry_group_IT_number 24
_symmetry_cell_setting 'orthorhombic'
loop_
_space_group_symop_operation_xyz
x,y,z
-x,1/2-y,z
x,-y,1/2-z
1/2-x,y,-z
1/2+x,1/2+y,1/2+z
1/2-x,-y,1/2+z
1/2+x,1/2-y,-z
-x,1/2+y,1/2-z
loop_
_atom_site_type_symbol
_atom_site_label
_atom_site_fract_x
_atom_site_fract_y
_atom_site_fract_z
Si Si1 0.437661 0.909470 0.731266
Si Si2 0.579971 0.338288 0.022385
Si Si3 0.926557 0.196746 0.794786
Si Si4 0.917748 0.804953 0.342567
Si Si5 0.151838 0.938443 0.619113
Si Si6 0.672031 0.000000 0.750000
Si Si7 0.936182 0.079620 0.715399
Si Si8 0.229439 0.938286 0.899257
O O1 0.527779 0.853932 0.720655
O O2 0.291585 0.906770 0.665754
O O3 0.361541 0.921319 0.828608
O O4 0.553564 0.957868 0.704332
O O5 0.530415 0.316458 0.118841
O O6 0.588844 0.403140 0.037326
O O7 0.750000 0.318877 0.000000
O O8 0.467477 0.321473 0.943308
O O9 0.759596 0.206023 0.833617
O O10 0.910089 0.142744 0.735683
O O11 0.000000 0.250000 0.750729
O O12 0.000000 0.750000 0.317719
O O13 0.019114 0.942730 0.693928
O O14 0.217545 0.996833 0.598968
O O15 0.787632 0.042016 0.700073
O O16 0.064706 0.077627 0.639734
O O17 0.250000 0.917867 0.000000
#
# Coordination Sequence:
#
# PCOD9333729 Si02
#       8
#     8   8   8   8   8   4   8   8
#     4  11  22  38  63  88 123 166 206 259 311 375
#     4  11  21  36  58  85 130 164 207 247 294 357
#     4  11  24  39  59  87 120 167 204 251 308 371
#     4  12  25  39  59  91 124 168 209 255 302 373
#     4  10  19  37  59  87 123 164 201 238 302 376
#     4  12  18  38  62  90 122 154 206 254 308 374
#     4  10  21  38  62  84 120 160 202 251 307 369
#     4  11  22  38  62  91 117 156 206 255 311 373
#
# _framework density 18.53725
#
# number of rings (size 3 to 8) (size 9 to 14) (size 15 to 20)
#    0.000    1.067    5.333    2.800    3.733    0.000 
#    0.000    0.667    2.933    0.800    0.000    0.000 
#    0.000    0.000    0.000    0.000    0.000    0.000 
#
# Total GULP energy -167369.457252 kJ/mol
# GULP energy per Si atom -5578.981908 kJ/mol
# Density = 1.849506 g / cm^3
# Si number density = 18.537250 Si / 1000 Ang^3
#
#
#
# Elastic Constant Matrix: (Units=GPa)
#
#
# Indices 1 2 3 4 5 6 
#
# 1 106.8341 36.7064 18.5977 0.0000 0.0000 0.0000
# 2 36.7064 129.2143 23.1964 0.0000 0.0000 0.0000
# 3 18.5977 23.1964 57.5997 -0.0001 0.0000 0.0000
# 4 0.0000 0.0000 -0.0001 20.3654 0.0000 0.0000
# 5 0.0000 0.0000 0.0000 0.0000 21.7712 0.0000
# 6 0.0000 0.0000 0.0000 0.0000 0.0000 37.2229
#
#
#
# Elastic Compliance Matrix: (Units=1/GPa)
#
#
# Indices 1 2 3 4 5 6 
#
# 1 0.010671 -0.002601 -0.002398 0.000000 0.000000 0.000000
# 2 -0.002601 0.008976 -0.002775 0.000000 0.000000 0.000000
# 3 -0.002398 -0.002775 0.019253 0.000000 0.000000 0.000000
# 4 0.000000 0.000000 0.000000 0.049103 0.000000 0.000000
# 5 0.000000 0.000000 0.000000 0.000000 0.045932 0.000000
# 6 0.000000 0.000000 0.000000 0.000000 0.000000 0.026865
#
#
# Mechanical properties :
#
#
# Convention : Reuss Voigt Hill
#
# Bulk Modulus (GPa) = 42.82226 50.07213 46.44719
# Shear Modulus (GPa) = 27.15426 30.21507 28.68467
#
# Velocity S-wave (km/s) = 3.83149 4.04166 3.93798
# Velocity P-wave (km/s) = 6.53640 6.98930 6.76664
#
# Compressibility (1/GPa) = 0.02335234
#
# Stress axis : x y z
#
# Youngs Moduli (GPa) = 93.70821 111.40672 51.93982
#
# Poissons Ratio (x) = 0.28977 0.12456
# Poissons Ratio (y) = 0.24373 0.14413
# Poissons Ratio (z) = 0.22472 0.30916
#
# Static dielectric constant tensor:
#      x y z
#    x 1.660480 0.000000 0.000000 
#    y 0.000000 1.734780 0.000000 
#    z 0.000000 0.000000 1.640250 
# 
# From -- ./inp_files/25184.got.cif
#   From: 2010.05.17/outbox.cif.g08.bks.cpg/sg24_13_cif.got.tgz:25184.got - 2010.06.04 00:33:39.
