data_PCOD9333631
_publ_section_title
;
Structure prediction by ZEFSAII (Michael W. Deem and Ramdas Pophale) SiO2 
 PCOD9333631
Probable space group: I 21 21 21
;
_chemical_formula_sum "Si O2"
_cell_formula_units_Z 60
_cell_length_a 14.871712
_cell_length_b 23.559139
_cell_length_c 9.129279
_cell_angle_alpha 90.000000
_cell_angle_beta 90.000000
_cell_angle_gamma 90.000000
_cell_volume 3198.577374
_symmetry_space_group_name_H-M "I 21 21 21"
_symmetry_group_IT_number 24
_symmetry_cell_setting 'orthorhombic'
loop_
_space_group_symop_operation_xyz
x,y,z
-x,1/2-y,z
x,-y,1/2-z
1/2-x,y,-z
1/2+x,1/2+y,1/2+z
1/2-x,-y,1/2+z
1/2+x,1/2-y,-z
-x,1/2+y,1/2-z
loop_
_atom_site_type_symbol
_atom_site_label
_atom_site_fract_x
_atom_site_fract_y
_atom_site_fract_z
Si Si1 0.588814 0.589294 0.253642
Si Si2 0.648094 0.333776 0.488402
Si Si3 0.987529 0.880791 0.185245
Si Si4 0.350143 0.004641 0.031376
Si Si5 0.491963 0.343094 0.022477
Si Si6 0.145395 0.751164 0.469905
Si Si7 0.534428 0.500000 0.750000
Si Si8 0.898508 0.226410 0.364275
O O1 0.591286 0.541287 0.124923
O O2 0.657093 0.560805 0.368728
O O3 0.505433 0.607902 0.356247
O O4 0.614498 0.646116 0.168722
O O5 0.750000 0.353206 0.500000
O O6 0.582186 0.362906 0.608764
O O7 0.645006 0.266318 0.514362
O O8 0.912008 0.840573 0.111840
O O9 0.986130 0.865627 0.356740
O O10 0.978447 0.948096 0.183940
O O11 0.250000 0.982939 0.000000
O O12 0.400643 0.019204 0.881941
O O13 0.581516 0.303571 0.015857
O O14 0.404869 0.303010 0.043626
O O15 0.250000 0.759030 0.500000
O O16 0.140409 0.740396 0.294848
O O17 0.000000 0.250000 0.355208
#
# Coordination Sequence:
#
# PCOD9333631 Si02
#       8
#     8   8   8   8   8   8   4   8
#     4  11  23  35  51  82 121 152 195 255 300 339
#     4  11  22  34  53  82 116 159 198 239 304 354
#     4  10  20  38  59  75 111 158 197 236 290 366
#     4  11  24  37  51  79 123 161 202 244 288 357
#     4  10  20  39  56  83 118 151 195 245 298 360
#     4  10  19  35  60  85 111 152 200 240 299 363
#     4  12  20  36  60  78 100 162 212 222 294 364
#     4   9  18  40  56  74 115 156 194 245 288 369
#
# _framework density 18.75834
#
# number of rings (size 3 to 8) (size 9 to 14) (size 15 to 20)
#    0.000    1.600    6.667    1.200    3.733    0.533 
#    7.200    0.000    0.000    0.000    0.000   11.200 
#    0.000    0.000    0.000    0.000    0.000    0.000 
#
# Total GULP energy -167009.678858 kJ/mol
# GULP energy per Si atom -5566.989295 kJ/mol
# Density = 1.871565 g / cm^3
# Si number density = 18.758340 Si / 1000 Ang^3
#
#
#
# Elastic Constant Matrix: (Units=GPa)
#
#
# Indices 1 2 3 4 5 6 
#
# 1 45.7631 12.6970 -0.6267 0.0000 0.0000 0.0000
# 2 12.6970 106.5181 19.1920 0.0000 0.0000 0.0000
# 3 -0.6267 19.1920 75.4150 0.0001 0.0000 -0.0002
# 4 0.0000 0.0000 0.0001 32.0483 0.0000 0.0000
# 5 0.0000 0.0000 0.0000 0.0000 15.4588 0.0000
# 6 0.0000 0.0000 -0.0002 0.0000 0.0000 -2.6932
#
#
#
# Elastic Compliance Matrix: (Units=1/GPa)
#
#
# Indices 1 2 3 4 5 6 
#
# 1 0.022660 -0.002866 0.000918 0.000000 0.000000 0.000000
# 2 -0.002866 0.010202 -0.002620 0.000000 0.000000 0.000000
# 3 0.000918 -0.002620 0.013934 0.000000 0.000000 -0.000001
# 4 0.000000 0.000000 0.000000 0.031203 0.000000 0.000000
# 5 0.000000 0.000000 0.000000 0.000000 0.064688 0.000000
# 6 0.000000 0.000000 -0.000001 0.000000 0.000000 -0.371306
#
#
# Mechanical properties :
#
#
# Convention : Reuss Voigt Hill
#
# Bulk Modulus (GPa) = 26.55454 32.24677 29.40065
# Shear Modulus (GPa) = -24.16290 22.05837 -1.05227
#
# Velocity S-wave (km/s) = -3.59293 3.43289 -0.74979
# Velocity P-wave (km/s) = 1.73934 5.73942 3.86754
#
# Compressibility (1/GPa) = 0.03765835
#
# Stress axis : x y z
#
# Youngs Moduli (GPa) = 44.13160 98.02181 71.76509
#
# Poissons Ratio (x) = 0.28097 -0.06586
# Poissons Ratio (y) = 0.12650 0.18803
# Poissons Ratio (z) = -0.04050 0.25682
#
# Static dielectric constant tensor:
#      x y z
#    x 1.622970 0.000000 0.000000 
#    y 0.000000 1.772220 0.000000 
#    z 0.000000 0.000000 1.711810 
# 
# From -- ./inp_files/13434.got.cif
#   From: 2010.05.17/outbox.cif.g08.bks.cpg/sg24_7_cif.got.tgz:13434.got - 2010.06.04 00:33:39.
