data_PCOD9333023
_publ_section_title
;
Structure prediction by ZEFSAII (Michael W. Deem and Ramdas Pophale) SiO2 
 PCOD9333023
Probable space group: I 21 21 21
;
_chemical_formula_sum "Si O2"
_cell_formula_units_Z 52
_cell_length_a 28.126380
_cell_length_b 5.153471
_cell_length_c 24.539155
_cell_angle_alpha 90.000000
_cell_angle_beta 90.000000
_cell_angle_gamma 90.000000
_cell_volume 3556.913308
_symmetry_space_group_name_H-M "I 21 21 21"
_symmetry_group_IT_number 24
_symmetry_cell_setting 'orthorhombic'
loop_
_space_group_symop_operation_xyz
x,y,z
-x,1/2-y,z
x,-y,1/2-z
1/2-x,y,-z
1/2+x,1/2+y,1/2+z
1/2-x,-y,1/2+z
1/2+x,1/2-y,-z
-x,1/2+y,1/2-z
loop_
_atom_site_type_symbol
_atom_site_label
_atom_site_fract_x
_atom_site_fract_y
_atom_site_fract_z
Si Si1 0.841762 0.000000 0.750000
Si Si2 0.370721 0.450899 0.452707
Si Si3 0.746640 0.562394 0.590884
Si Si4 0.946261 0.841993 0.867350
Si Si5 0.670742 0.554224 0.501606
Si Si6 0.788421 0.940169 0.860143
Si Si7 0.923038 0.353802 0.800177
O O1 0.809926 0.910189 0.800399
O O2 0.875599 0.771098 0.726408
O O3 0.421018 0.416651 0.423552
O O4 0.364064 0.713301 0.486039
O O5 0.333016 0.452598 0.402226
O O6 0.355506 0.215183 0.491210
O O7 0.696699 0.578793 0.559546
O O8 0.786744 0.568764 0.543172
O O9 0.755374 0.295888 0.621947
O O10 0.758973 0.797938 0.630580
O O11 0.917858 0.592156 0.842475
O O12 0.000000 0.750000 0.873193
O O13 0.944985 0.098930 0.828910
O O14 0.949552 0.500000 0.750000
#
# Coordination Sequence:
#
# PCOD9333023 Si02
#       7
#     4   8   8   8   8   8   8
#     4  12  24  34  52  64  88 124 164 190 232 290
#     4  10  18  32  50  65  82 115 137 186 228 292
#     4   9  18  30  43  71  86 108 130 184 224 274
#     4  12  25  38  50  66  88 113 154 205 252 283
#     4   9  17  29  50  66  88 103 137 168 237 283
#     4  10  20  29  47  61  91 111 148 182 225 268
#     4  12  23  39  49  61  83 114 162 199 241 283
#
# _framework density 14.619418
#
# number of rings (size 3 to 8) (size 9 to 14) (size 15 to 20)
#    0.000    1.538    3.077    2.308    6.462    4.923 
#    1.385    0.000    0.000    0.000    0.000    0.000 
#    0.000    0.000    0.000    0.000    0.000    0.000 
#
# Total GULP energy -145043.503386 kJ/mol
# GULP energy per Si atom -5578.596284 kJ/mol
# Density = 1.458614 g / cm^3
# Si number density = 14.619418 Si / 1000 Ang^3
#
#
#
# Elastic Constant Matrix: (Units=GPa)
#
#
# Indices 1 2 3 4 5 6 
#
# 1 30.9832 -4.4133 25.2663 0.0000 0.0000 0.0000
# 2 -4.4133 49.8095 -0.9343 0.0000 0.0000 0.0000
# 3 25.2663 -0.9343 35.7851 0.0000 0.0000 0.0000
# 4 0.0000 0.0000 0.0000 18.3183 0.0000 0.0000
# 5 0.0000 0.0000 0.0000 0.0000 13.7828 0.0000
# 6 0.0000 0.0000 0.0000 0.0000 0.0000 13.5597
#
#
#
# Elastic Compliance Matrix: (Units=1/GPa)
#
#
# Indices 1 2 3 4 5 6 
#
# 1 0.077756 0.005862 -0.054747 0.000000 0.000000 0.000000
# 2 0.005862 0.020528 -0.003603 0.000000 0.000000 0.000000
# 3 -0.054747 -0.003603 0.066505 0.000000 0.000000 0.000000
# 4 0.000000 0.000000 0.000000 0.054590 0.000000 0.000000
# 5 0.000000 0.000000 0.000000 0.000000 0.072554 0.000000
# 6 0.000000 0.000000 0.000000 0.000000 0.000000 0.073748
#
#
# Mechanical properties :
#
#
# Convention : Reuss Voigt Hill
#
# Bulk Modulus (GPa) = 16.71858 17.37945 17.04902
# Shear Modulus (GPa) = 10.19173 15.57610 12.88391
#
# Velocity S-wave (km/s) = 2.64320 3.26765 2.97187
# Velocity P-wave (km/s) = 4.55807 5.11375 4.84389
#
# Compressibility (1/GPa) = 0.05981369
#
# Stress axis : x y z
#
# Youngs Moduli (GPa) = 12.86081 48.71313 15.03650
#
# Poissons Ratio (x) = -0.28558 0.82320
# Poissons Ratio (y) = -0.07540 0.05418
# Poissons Ratio (z) = 0.70409 0.17552
#
# Static dielectric constant tensor:
#      x y z
#    x 1.484480 0.000000 0.000000 
#    y 0.000000 1.516100 0.000000 
#    z 0.000000 0.000000 1.475610 
# 
# From -- ./inp_files/31709.got.cif
#   From: 2010.05.17/outbox.cif.g08.bks.cpg/sg24_16_cif.got.tgz:31709.got - 2010.06.04 00:33:39.
