data_PCOD9333357
_publ_section_title
;
Structure prediction by ZEFSAII (Michael W. Deem and Ramdas Pophale) SiO2 
 PCOD9333357
Probable space group: I 21 21 21
;
_chemical_formula_sum "Si O2"
_cell_formula_units_Z 56
_cell_length_a 18.574195
_cell_length_b 8.571953
_cell_length_c 18.211092
_cell_angle_alpha 90.000000
_cell_angle_beta 90.000000
_cell_angle_gamma 90.000000
_cell_volume 2899.517740
_symmetry_space_group_name_H-M "I 21 21 21"
_symmetry_group_IT_number 24
_symmetry_cell_setting 'orthorhombic'
loop_
_space_group_symop_operation_xyz
x,y,z
-x,1/2-y,z
x,-y,1/2-z
1/2-x,y,-z
1/2+x,1/2+y,1/2+z
1/2-x,-y,1/2+z
1/2+x,1/2-y,-z
-x,1/2+y,1/2-z
loop_
_atom_site_type_symbol
_atom_site_label
_atom_site_fract_x
_atom_site_fract_y
_atom_site_fract_z
Si Si1 0.080575 0.299952 0.911271
Si Si2 0.360688 0.632215 0.137816
Si Si3 0.187832 0.281234 0.189817
Si Si4 0.662476 0.693032 0.992509
Si Si5 0.847313 0.325285 0.777504
Si Si6 0.185168 0.635048 0.153318
Si Si7 0.831141 0.343411 0.032458
O O1 0.100192 0.466896 0.874380
O O2 0.105752 0.174568 0.850366
O O3 0.000000 0.250000 0.928023
O O4 0.125813 0.283922 0.985914
O O5 0.381862 0.724718 0.211551
O O6 0.272788 0.624513 0.144787
O O7 0.371748 0.731202 0.064149
O O8 0.273778 0.258783 0.197439
O O9 0.165801 0.456294 0.168087
O O10 0.165085 0.262583 0.274835
O O11 0.166690 0.178603 0.119995
O O12 0.651118 0.793217 0.919270
O O13 0.639451 0.514849 0.984712
O O14 0.750000 0.690025 0.000000
O O15 0.831528 0.500000 0.750000
O O16 0.750000 0.334339 0.000000
#
# Coordination Sequence:
#
# PCOD9333357 Si02
#       7
#     8   8   8   8   8   8   8
#     4  12  25  40  58  83 117 165 209 243 294 353
#     4  10  19  36  55  75 114 157 195 240 285 351
#     4  10  19  30  55  83 119 148 188 243 294 349
#     4   9  19  31  54  84 116 145 189 246 304 348
#     4  11  22  35  56  84 121 158 200 243 289 349
#     4   9  17  31  51  86 114 148 187 232 300 350
#     4  11  20  35  56  83 113 150 196 257 302 344
#
# _framework density 19.313556999999999
#
# number of rings (size 3 to 8) (size 9 to 14) (size 15 to 20)
#    0.000    1.714    2.857    2.143    6.000    2.286 
#    0.000    2.143    0.000    0.000    0.000    8.000 
#    0.000    0.000    0.000    0.000    0.000    0.000 
#
# Total GULP energy -156081.983617 kJ/mol
# GULP energy per Si atom -5574.356558 kJ/mol
# Density = 1.926960 g / cm^3
# Si number density = 19.313557 Si / 1000 Ang^3
#
#
#
# Elastic Constant Matrix: (Units=GPa)
#
#
# Indices 1 2 3 4 5 6 
#
# 1 23.8321 2.1534 15.1832 0.0000 0.0000 0.0000
# 2 2.1534 69.6863 41.3268 0.0000 0.0000 0.0000
# 3 15.1832 41.3268 143.3305 0.0000 0.0000 0.0000
# 4 0.0000 0.0000 0.0000 35.7890 0.0000 0.0000
# 5 0.0000 0.0000 0.0000 0.0000 7.8970 0.0000
# 6 0.0000 0.0000 0.0000 0.0000 0.0000 3.2637
#
#
#
# Elastic Compliance Matrix: (Units=1/GPa)
#
#
# Indices 1 2 3 4 5 6 
#
# 1 0.045171 0.001739 -0.005287 0.000000 0.000000 0.000000
# 2 0.001739 0.017377 -0.005195 0.000000 0.000000 0.000000
# 3 -0.005287 -0.005195 0.009035 0.000000 0.000000 0.000000
# 4 0.000000 0.000000 0.000000 0.027942 0.000000 0.000000
# 5 0.000000 0.000000 0.000000 0.000000 0.126630 0.000000
# 6 0.000000 0.000000 0.000000 0.000000 0.000000 0.306397
#
#
# Mechanical properties :
#
#
# Convention : Reuss Voigt Hill
#
# Bulk Modulus (GPa) = 18.48469 39.35289 28.91879
# Shear Modulus (GPa) = 8.80176 21.26899 15.03538
#
# Velocity S-wave (km/s) = 2.13710 3.32210 2.79317
# Velocity P-wave (km/s) = 3.95995 5.92749 5.04065
#
# Compressibility (1/GPa) = 0.05409882
#
# Stress axis : x y z
#
# Youngs Moduli (GPa) = 22.13812 57.54785 110.68505
#
# Poissons Ratio (x) = -0.10009 0.58514
# Poissons Ratio (y) = -0.03850 0.57496
# Poissons Ratio (z) = 0.11703 0.29893
#
# Static dielectric constant tensor:
#      x y z
#    x 1.669880 0.000000 0.000000 
#    y 0.000000 1.688740 0.000000 
#    z 0.000000 0.000000 1.691820 
# 
# From -- ./inp_files/31363.got.cif
#   From: 2010.05.17/outbox.cif.g08.bks.cpg/sg24_16_cif.got.tgz:31363.got - 2010.06.04 00:33:39.
