data_PCOD9333141
_publ_section_title
;
Structure prediction by ZEFSAII (Michael W. Deem and Ramdas Pophale) SiO2 
 PCOD9333141
Probable space group: I 21 21 21
;
_chemical_formula_sum "Si O2"
_cell_formula_units_Z 56
_cell_length_a 19.542711
_cell_length_b 9.908826
_cell_length_c 15.043851
_cell_angle_alpha 90.000000
_cell_angle_beta 90.000000
_cell_angle_gamma 90.000000
_cell_volume 2913.171384
_symmetry_space_group_name_H-M "I 21 21 21"
_symmetry_group_IT_number 24
_symmetry_cell_setting 'orthorhombic'
loop_
_space_group_symop_operation_xyz
x,y,z
-x,1/2-y,z
x,-y,1/2-z
1/2-x,y,-z
1/2+x,1/2+y,1/2+z
1/2-x,-y,1/2+z
1/2+x,1/2-y,-z
-x,1/2+y,1/2-z
loop_
_atom_site_type_symbol
_atom_site_label
_atom_site_fract_x
_atom_site_fract_y
_atom_site_fract_z
Si Si1 0.961382 0.393904 0.324253
Si Si2 0.699722 0.500000 0.250000
Si Si3 0.304272 0.818405 0.830811
Si Si4 0.750000 0.472088 0.500000
Si Si5 0.633939 0.369691 0.082704
Si Si6 0.236317 0.477594 0.356005
Si Si7 0.654830 0.074336 0.021717
Si Si8 0.001159 0.097879 0.024119
O O1 0.986652 0.500000 0.250000
O O2 0.880671 0.366749 0.312330
O O3 0.000000 0.250000 0.323246
O O4 0.971633 0.478739 0.414008
O O5 0.751958 0.372435 0.256365
O O6 0.651408 0.454181 0.169993
O O7 0.305098 0.661036 0.850806
O O8 0.267542 0.883349 0.915728
O O9 0.683000 0.562126 0.489615
O O10 0.657005 0.214237 0.077109
O O11 0.555189 0.382168 0.055326
O O12 0.248939 0.500000 0.250000
O O13 0.192121 0.573992 0.424009
O O14 0.306331 0.468965 0.413728
O O15 0.574776 0.055859 0.004221
O O16 0.000000 0.250000 0.067292
#
# Coordination Sequence:
#
# PCOD9333141 Si02
#       8
#     8   4   8   4   8   8   8   8
#     4  12  25  41  59  92 130 173 218 273 339 409
#     4  10  22  40  64  94 124 162 228 272 326 380
#     4  11  22  37  60  87 124 158 216 270 319 391
#     4  10  18  34  60  84 114 154 206 254 308 364
#     4  10  20  38  66  92 123 169 210 266 324 391
#     4  11  23  39  63  94 127 169 219 271 336 393
#     4  10  22  41  63  93 132 166 214 268 336 398
#     4  10  22  42  65  91 129 173 216 267 337 408
#
# _framework density 19.223036
#
# number of rings (size 3 to 8) (size 9 to 14) (size 15 to 20)
#    0.000    1.429    2.143    3.857    0.000    5.714 
#    1.286    0.000    0.000    0.000    0.000    0.000 
#    0.000    0.000    0.000    0.000    0.000    0.000 
#
# Total GULP energy -155871.883605 kJ/mol
# GULP energy per Si atom -5566.852986 kJ/mol
# Density = 1.917928 g / cm^3
# Si number density = 19.223036 Si / 1000 Ang^3
#
#
#
# Elastic Constant Matrix: (Units=GPa)
#
#
# Indices 1 2 3 4 5 6 
#
# 1 100.8921 17.6053 25.5066 0.0000 0.0000 0.0000
# 2 17.6053 84.2855 22.0952 0.0000 0.0000 0.0000
# 3 25.5066 22.0952 67.9338 0.0000 0.0000 0.0000
# 4 0.0000 0.0000 0.0000 -11.8957 0.0000 0.0000
# 5 0.0000 0.0000 0.0000 0.0000 2.1532 0.0000
# 6 0.0000 0.0000 0.0000 0.0000 0.0000 34.4902
#
#
#
# Elastic Compliance Matrix: (Units=1/GPa)
#
#
# Indices 1 2 3 4 5 6 
#
# 1 0.011088 -0.001339 -0.003728 0.000000 0.000000 0.000000
# 2 -0.001339 0.013132 -0.003768 0.000000 0.000000 0.000000
# 3 -0.003728 -0.003768 0.017345 0.000000 0.000000 0.000000
# 4 0.000000 0.000000 0.000000 -0.084064 0.000000 0.000000
# 5 0.000000 0.000000 0.000000 0.000000 0.464429 0.000000
# 6 0.000000 0.000000 0.000000 0.000000 0.000000 0.028994
#
#
# Mechanical properties :
#
#
# Convention : Reuss Voigt Hill
#
# Bulk Modulus (GPa) = 41.84902 42.61396 42.23149
# Shear Modulus (GPa) = 10.49189 17.47648 13.98418
#
# Velocity S-wave (km/s) = 2.33877 3.01847 2.70009
# Velocity P-wave (km/s) = 5.39542 5.86213 5.63361
#
# Compressibility (1/GPa) = 0.02389542
#
# Stress axis : x y z
#
# Youngs Moduli (GPa) = 90.19127 76.15008 57.65209
#
# Poissons Ratio (x) = 0.10195 0.21490
# Poissons Ratio (y) = 0.12075 0.21726
# Poissons Ratio (z) = 0.33619 0.28697
#
# Static dielectric constant tensor:
#      x y z
#    x 1.780910 0.000000 0.000000 
#    y 0.000000 1.737140 0.000000 
#    z 0.000000 0.000000 1.451030 
# 
# From -- ./inp_files/27592.got.cif
#   From: 2010.05.17/outbox.cif.g08.bks.cpg/sg24_14_cif.got.tgz:27592.got - 2010.06.04 00:33:39.
