data_PCOD9333725
_publ_section_title
;
Structure prediction by ZEFSAII (Michael W. Deem and Ramdas Pophale) SiO2 
 PCOD9333725
Probable space group: I 21 21 21
;
_chemical_formula_sum "Si O2"
_cell_formula_units_Z 44
_cell_length_a 25.556739
_cell_length_b 13.375873
_cell_length_c 6.121467
_cell_angle_alpha 90.000000
_cell_angle_beta 90.000000
_cell_angle_gamma 90.000000
_cell_volume 2092.584899
_symmetry_space_group_name_H-M "I 21 21 21"
_symmetry_group_IT_number 24
_symmetry_cell_setting 'orthorhombic'
loop_
_space_group_symop_operation_xyz
x,y,z
-x,1/2-y,z
x,-y,1/2-z
1/2-x,y,-z
1/2+x,1/2+y,1/2+z
1/2-x,-y,1/2+z
1/2+x,1/2-y,-z
-x,1/2+y,1/2-z
loop_
_atom_site_type_symbol
_atom_site_label
_atom_site_fract_x
_atom_site_fract_y
_atom_site_fract_z
Si Si1 0.499419 0.000000 0.750000
Si Si2 0.581619 0.878291 0.978926
Si Si3 0.760528 0.693783 0.761476
Si Si4 0.808228 0.893229 0.269497
Si Si5 0.051381 0.206421 0.147526
Si Si6 0.863076 0.209977 0.858903
O O1 0.540293 0.034019 0.561861
O O2 0.463274 0.093982 0.799076
O O3 0.593867 0.847791 0.222061
O O4 0.638990 0.899064 0.875862
O O5 0.558903 0.781276 0.852381
O O6 0.750000 0.659199 0.500000
O O7 0.726278 0.795841 0.778210
O O8 0.821446 0.723696 0.769273
O O9 0.750000 0.639770 0.000000
O O10 0.829525 0.871446 0.510994
O O11 0.780626 0.000000 0.250000
O O12 0.000000 0.250000 0.026384
O O13 0.105094 0.218632 0.020012
#
# Coordination Sequence:
#
# PCOD9333725 Si02
#       6
#     4   8   8   8   8   8
#     4  10  20  40  62  84 122 164 214 272 318 376
#     4  10  19  37  58  81 119 162 205 260 311 378
#     4  10  20  35  55  86 125 162 210 247 310 383
#     4  10  20  35  50  82 123 161 200 244 304 384
#     4   9  21  39  57  83 119 161 213 263 319 376
#     4  10  21  37  57  82 123 166 208 253 312 382
#
# _framework density 21.026624000000002
#
# number of rings (size 3 to 8) (size 9 to 14) (size 15 to 20)
#    0.000    2.182    2.727    0.000    0.000    5.091 
#    0.000    6.364    0.000    0.000    0.000    0.000 
#  109.091    0.000    0.000    0.000    0.000    0.000 
#
# Total GULP energy -122539.215799 kJ/mol
# GULP energy per Si atom -5569.964354 kJ/mol
# Density = 2.097877 g / cm^3
# Si number density = 21.026624 Si / 1000 Ang^3
#
#
#
# Elastic Constant Matrix: (Units=GPa)
#
#
# Indices 1 2 3 4 5 6 
#
# 1 69.7656 17.4407 15.9155 0.0000 0.0000 0.0000
# 2 17.4407 54.2815 4.6974 0.0000 0.0000 0.0000
# 3 15.9155 4.6974 90.9448 0.0000 0.0000 0.0000
# 4 0.0000 0.0000 0.0000 1.7879 0.0000 0.0000
# 5 0.0000 0.0000 0.0000 0.0000 17.0321 0.0000
# 6 0.0000 0.0000 0.0000 0.0000 0.0000 12.4062
#
#
#
# Elastic Compliance Matrix: (Units=1/GPa)
#
#
# Indices 1 2 3 4 5 6 
#
# 1 0.016163 -0.004971 -0.002572 0.000000 0.000000 0.000000
# 2 -0.004971 0.020034 -0.000165 0.000000 0.000000 0.000000
# 3 -0.002572 -0.000165 0.011454 0.000000 0.000000 0.000000
# 4 0.000000 0.000000 0.000000 0.559329 0.000000 0.000000
# 5 0.000000 0.000000 0.000000 0.000000 0.058713 0.000000
# 6 0.000000 0.000000 0.000000 0.000000 0.000000 0.080605
#
#
# Mechanical properties :
#
#
# Convention : Reuss Voigt Hill
#
# Bulk Modulus (GPa) = 31.02080 32.34432 31.68256
# Shear Modulus (GPa) = 6.47285 18.04113 12.25699
#
# Velocity S-wave (km/s) = 1.75644 2.93236 2.41701
# Velocity P-wave (km/s) = 4.34725 5.18469 4.78433
#
# Compressibility (1/GPa) = 0.03223643
#
# Stress axis : x y z
#
# Youngs Moduli (GPa) = 61.86966 49.91557 87.30367
#
# Poissons Ratio (x) = 0.24811 0.22453
# Poissons Ratio (y) = 0.30753 0.01440
# Poissons Ratio (z) = 0.15912 0.00823
#
# Static dielectric constant tensor:
#      x y z
#    x 1.788670 0.000000 0.000000 
#    y 0.000000 1.755670 0.000000 
#    z 0.000000 0.000000 1.877850 
# 
# From -- ./inp_files/7033.got.cif
#   From: 2010.05.17/outbox.cif.g08.bks.cpg/sg24_4_cif.got.tgz:7033.got - 2010.06.04 00:33:39.
