data_PCOD9333424
_publ_section_title
;
Structure prediction by ZEFSAII (Michael W. Deem and Ramdas Pophale) SiO2 
 PCOD9333424
Probable space group: I 21 21 21
;
_chemical_formula_sum "Si O2"
_cell_formula_units_Z 44
_cell_length_a 26.475258
_cell_length_b 5.660360
_cell_length_c 14.065822
_cell_angle_alpha 90.000000
_cell_angle_beta 90.000000
_cell_angle_gamma 90.000000
_cell_volume 2107.896931
_symmetry_space_group_name_H-M "I 21 21 21"
_symmetry_group_IT_number 24
_symmetry_cell_setting 'orthorhombic'
loop_
_space_group_symop_operation_xyz
x,y,z
-x,1/2-y,z
x,-y,1/2-z
1/2-x,y,-z
1/2+x,1/2+y,1/2+z
1/2-x,-y,1/2+z
1/2+x,1/2-y,-z
-x,1/2+y,1/2-z
loop_
_atom_site_type_symbol
_atom_site_label
_atom_site_fract_x
_atom_site_fract_y
_atom_site_fract_z
Si Si1 0.806551 0.500000 0.750000
Si Si2 0.287072 0.138705 0.874585
Si Si3 0.971459 0.500397 0.363128
Si Si4 0.125774 0.214977 0.421691
Si Si5 0.651588 0.000000 0.750000
Si Si6 0.298968 0.465191 0.463899
Si Si7 0.819045 0.000000 0.750000
O O1 0.766766 0.462672 0.837473
O O2 0.840303 0.735011 0.753286
O O3 0.311752 0.301984 0.792880
O O4 0.325285 0.926561 0.889096
O O5 0.295255 0.302844 0.968618
O O6 0.959051 0.500000 0.250000
O O7 0.920397 0.464907 0.423708
O O8 0.000000 0.750000 0.382779
O O9 0.000000 0.250000 0.380639
O O10 0.117545 0.402874 0.336297
O O11 0.146878 0.349189 0.514226
O O12 0.250000 0.321735 0.500000
O O13 0.291278 0.501711 0.352201
#
# Coordination Sequence:
#
# PCOD9333424 Si02
#       7
#     4   8   8   8   4   8   4
#     4  12  22  40  60  83 124 176 220 285 322 384
#     4  11  21  34  57  88 121 168 222 270 321 389
#     4  10  23  39  61  94 136 176 214 266 336 404
#     4  11  23  36  62  88 133 174 228 267 331 402
#     4  10  19  32  54  87 122 168 214 263 322 371
#     4  11  25  40  61  92 129 183 233 284 332 405
#     4  12  27  44  60  84 132 170 234 284 340 379
#
# _framework density 20.873884
#
# number of rings (size 3 to 8) (size 9 to 14) (size 15 to 20)
#    0.000    1.091    3.636    2.727   11.455    0.727 
#    0.000    0.000    0.000    0.000    0.000    0.000 
#    5.455    0.000    0.000    0.000    0.000    0.000 
#
# Total GULP energy -122488.077153 kJ/mol
# GULP energy per Si atom -5567.639871 kJ/mol
# Density = 2.082637 g / cm^3
# Si number density = 20.873884 Si / 1000 Ang^3
#
#
#
# Elastic Constant Matrix: (Units=GPa)
#
#
# Indices 1 2 3 4 5 6 
#
# 1 73.2251 26.4362 21.2057 0.0000 0.0000 0.0000
# 2 26.4362 127.5689 15.0131 0.0000 0.0000 0.0000
# 3 21.2057 15.0131 126.1355 0.0000 0.0000 0.0000
# 4 0.0000 0.0000 0.0000 25.5384 0.0000 0.0000
# 5 0.0000 0.0000 0.0000 0.0000 14.0507 0.0000
# 6 0.0000 0.0000 0.0000 0.0000 0.0000 27.0751
#
#
#
# Elastic Compliance Matrix: (Units=1/GPa)
#
#
# Indices 1 2 3 4 5 6 
#
# 1 0.015358 -0.002920 -0.002234 0.000000 0.000000 0.000000
# 2 -0.002920 0.008505 -0.000521 0.000000 0.000000 0.000000
# 3 -0.002234 -0.000521 0.008366 0.000000 0.000000 0.000000
# 4 0.000000 0.000000 0.000000 0.039157 0.000000 0.000000
# 5 0.000000 0.000000 0.000000 0.000000 0.071171 0.000000
# 6 0.000000 0.000000 0.000000 0.000000 0.000000 0.036934
#
#
# Mechanical properties :
#
#
# Convention : Reuss Voigt Hill
#
# Bulk Modulus (GPa) = 47.89816 50.24884 49.07350
# Shear Modulus (GPa) = 25.27797 30.95113 28.11455
#
# Velocity S-wave (km/s) = 3.48370 3.85485 3.67396
# Velocity P-wave (km/s) = 6.25922 6.62858 6.44654
#
# Compressibility (1/GPa) = 0.02087763
#
# Stress axis : x y z
#
# Youngs Moduli (GPa) = 65.11413 117.57363 119.53577
#
# Poissons Ratio (x) = 0.34327 0.26709
# Poissons Ratio (y) = 0.19011 0.06234
# Poissons Ratio (z) = 0.14549 0.06131
#
# Static dielectric constant tensor:
#      x y z
#    x 1.789180 0.000000 0.000000 
#    y 0.000000 1.912210 0.000000 
#    z 0.000000 0.000000 1.827430 
# 
# From -- ./inp_files/3704.got.cif
#   From: 2010.05.17/outbox.cif.g08.bks.cpg/sg24_2_cif.got.tgz:3704.got - 2010.06.04 00:33:39.
