data_PCOD9333009
_publ_section_title
;
Structure prediction by ZEFSAII (Michael W. Deem and Ramdas Pophale) SiO2 
 PCOD9333009
Probable space group: I 21 21 21
;
_chemical_formula_sum "Si O2"
_cell_formula_units_Z 48
_cell_length_a 17.656572
_cell_length_b 14.464805
_cell_length_c 10.119125
_cell_angle_alpha 90.000000
_cell_angle_beta 90.000000
_cell_angle_gamma 90.000000
_cell_volume 2584.413100
_symmetry_space_group_name_H-M "I 21 21 21"
_symmetry_group_IT_number 24
_symmetry_cell_setting 'orthorhombic'
loop_
_space_group_symop_operation_xyz
x,y,z
-x,1/2-y,z
x,-y,1/2-z
1/2-x,y,-z
1/2+x,1/2+y,1/2+z
1/2-x,-y,1/2+z
1/2+x,1/2-y,-z
-x,1/2+y,1/2-z
loop_
_atom_site_type_symbol
_atom_site_label
_atom_site_fract_x
_atom_site_fract_y
_atom_site_fract_z
Si Si1 0.934244 0.825848 0.979376
Si Si2 0.489241 0.983707 0.389274
Si Si3 0.933415 0.588277 0.342154
Si Si4 0.077433 0.306807 0.805161
Si Si5 0.392936 0.610165 0.743511
Si Si6 0.168348 0.755805 0.442755
O O1 0.889368 0.804317 0.843267
O O2 0.000000 0.750000 0.003378
O O3 0.976176 0.922011 0.944761
O O4 0.887796 0.844176 0.111890
O O5 0.439777 0.943747 0.506315
O O6 0.554674 0.910092 0.351190
O O7 0.447854 0.000000 0.250000
O O8 0.916011 0.500000 0.250000
O O9 0.871914 0.669143 0.347765
O O10 0.018448 0.621780 0.302108
O O11 0.000000 0.250000 0.790650
O O12 0.120920 0.260318 0.924047
O O13 0.380343 0.500000 0.750000
O O14 0.338156 0.660859 0.640637
O O15 0.250000 0.780306 0.500000
#
# Coordination Sequence:
#
# PCOD9333009 Si02
#       6
#     8   8   8   8   8   8
#     4  10  19  30  56  91 115 140 191 261 311 350
#     4  10  18  31  56  93 118 146 189 250 308 350
#     4  11  20  37  65  89 118 155 207 262 304 353
#     4  10  18  35  59  84 115 151 198 251 298 362
#     4  11  20  38  62  90 116 151 204 265 311 357
#     4  12  24  39  58  87 125 168 200 241 312 381
#
# _framework density 18.572883000000001
#
# number of rings (size 3 to 8) (size 9 to 14) (size 15 to 20)
#    0.000    1.333    6.667    1.500    0.000    0.000 
#    0.000    5.833    0.000    0.000    0.000    0.000 
#    0.000    0.000    0.000    0.000    0.000    0.000 
#
# Total GULP energy -133788.662603 kJ/mol
# GULP energy per Si atom -5574.527608 kJ/mol
# Density = 1.853061 g / cm^3
# Si number density = 18.572883 Si / 1000 Ang^3
#
#
#
# Elastic Constant Matrix: (Units=GPa)
#
#
# Indices 1 2 3 4 5 6 
#
# 1 6.4250 4.6473 -2.3629 0.0000 0.0000 0.0000
# 2 4.6473 56.4865 6.1995 0.0000 0.0000 0.0000
# 3 -2.3629 6.1995 131.8567 0.0000 0.0000 0.0000
# 4 0.0000 0.0000 0.0000 38.9436 0.0000 0.0000
# 5 0.0000 0.0000 0.0000 0.0000 -179.6810 0.0000
# 6 0.0000 0.0000 0.0000 0.0000 0.0000 7.9304
#
#
#
# Elastic Compliance Matrix: (Units=1/GPa)
#
#
# Indices 1 2 3 4 5 6 
#
# 1 0.167231 -0.014161 0.003663 0.000000 0.000000 0.000000
# 2 -0.014161 0.018994 -0.001147 0.000000 0.000000 0.000000
# 3 0.003663 -0.001147 0.007704 0.000000 0.000000 0.000000
# 4 0.000000 0.000000 0.000000 0.025678 0.000000 0.000000
# 5 0.000000 0.000000 0.000000 0.000000 -0.005565 0.000000
# 6 0.000000 0.000000 0.000000 0.000000 0.000000 0.126098
#
#
# Mechanical properties :
#
#
# Convention : Reuss Voigt Hill
#
# Bulk Modulus (GPa) = 5.86031 23.52622 14.69326
# Shear Modulus (GPa) = 11.89601 -14.14244 -1.12322
#
# Velocity S-wave (km/s) = 2.53356 -2.76244 -0.77851
# Velocity P-wave (km/s) = 3.42356 1.58735 2.66837
#
# Compressibility (1/GPa) = 0.17063954
#
# Stress axis : x y z
#
# Youngs Moduli (GPa) = 5.97974 52.64749 129.81036
#
# Poissons Ratio (x) = 0.74552 -0.47545
# Poissons Ratio (y) = 0.08468 0.14887
# Poissons Ratio (z) = -0.02190 0.06038
#
# Static dielectric constant tensor:
#      x y z
#    x 1.624880 0.000000 0.000000 
#    y 0.000000 1.695520 0.000000 
#    z 0.000000 0.000000 1.701600 
# 
# From -- ./inp_files/14145.got.cif
#   From: 2010.05.17/outbox.cif.g08.bks.cpg/sg24_8_cif.got.tgz:14145.got - 2010.06.04 00:33:39.
