data_PCOD9333295
_publ_section_title
;
Structure prediction by ZEFSAII (Michael W. Deem and Ramdas Pophale) SiO2 
 PCOD9333295
Probable space group: I 21 21 21
;
_chemical_formula_sum "Si O2"
_cell_formula_units_Z 56
_cell_length_a 16.065974
_cell_length_b 20.203328
_cell_length_c 8.240896
_cell_angle_alpha 90.000000
_cell_angle_beta 90.000000
_cell_angle_gamma 90.000000
_cell_volume 2674.880642
_symmetry_space_group_name_H-M "I 21 21 21"
_symmetry_group_IT_number 24
_symmetry_cell_setting 'orthorhombic'
loop_
_space_group_symop_operation_xyz
x,y,z
-x,1/2-y,z
x,-y,1/2-z
1/2-x,y,-z
1/2+x,1/2+y,1/2+z
1/2-x,-y,1/2+z
1/2+x,1/2-y,-z
-x,1/2+y,1/2-z
loop_
_atom_site_type_symbol
_atom_site_label
_atom_site_fract_x
_atom_site_fract_y
_atom_site_fract_z
Si Si1 0.527480 0.410328 0.642137
Si Si2 0.616937 0.196438 0.087296
Si Si3 0.655170 0.319600 0.532883
Si Si4 0.581846 0.203686 0.717460
Si Si5 0.988857 0.456941 0.989369
Si Si6 0.426977 0.834390 0.314378
Si Si7 0.321899 0.561827 0.367678
O O1 0.614057 0.371694 0.653920
O O2 0.452947 0.358250 0.616911
O O3 0.511190 0.435917 0.822847
O O4 0.532261 0.465670 0.503744
O O5 0.523638 0.184121 0.154743
O O6 0.628874 0.275465 0.106802
O O7 0.673786 0.141079 0.175017
O O8 0.616607 0.183844 0.893264
O O9 0.750000 0.333161 0.500000
O O10 0.642567 0.247636 0.610073
O O11 0.599848 0.329350 0.371715
O O12 0.500000 0.250000 0.750449
O O13 0.083085 0.450417 0.926384
O O14 0.927020 0.408000 0.892018
O O15 0.304817 0.500000 0.250000
O O16 0.250000 0.557160 0.500000
#
# Coordination Sequence:
#
# PCOD9333295 Si02
#       7
#     8   8   8   8   8   8   8
#     4  10  21  40  69  93 129 179 234 266 334 414
#     4  10  20  40  68  93 124 182 229 269 319 406
#     4  11  26  40  63 103 141 169 221 295 349 391
#     4  10  18  39  67  91 131 173 223 273 320 405
#     4  10  22  43  70  94 123 186 234 271 326 416
#     4  10  20  39  64  97 128 167 233 281 323 393
#     4  11  26  41  61  98 143 173 217 280 343 402
#
# _framework density 20.935513
#
# number of rings (size 3 to 8) (size 9 to 14) (size 15 to 20)
#    0.000    1.714    4.286    0.857   12.000    1.143 
#    0.000    6.429    0.000    0.000    0.000    0.000 
#    0.000    0.000    0.000    0.000    0.000    0.000 
#
# Total GULP energy -156037.550294 kJ/mol
# GULP energy per Si atom -5572.769653 kJ/mol
# Density = 2.088786 g / cm^3
# Si number density = 20.935513 Si / 1000 Ang^3
#
#
#
# Elastic Constant Matrix: (Units=GPa)
#
#
# Indices 1 2 3 4 5 6 
#
# 1 47.2086 15.7581 10.4316 0.0000 0.0000 0.0000
# 2 15.7581 135.0021 24.0118 0.0000 0.0000 0.0000
# 3 10.4316 24.0118 55.7384 0.0000 0.0000 0.0000
# 4 0.0000 0.0000 0.0000 31.6463 0.0000 0.0000
# 5 0.0000 0.0000 0.0000 0.0000 12.0970 0.0000
# 6 0.0000 0.0000 0.0000 0.0000 0.0000 14.7132
#
#
#
# Elastic Compliance Matrix: (Units=1/GPa)
#
#
# Indices 1 2 3 4 5 6 
#
# 1 0.022605 -0.002043 -0.003351 0.000000 0.000000 0.000000
# 2 -0.002043 0.008207 -0.003153 0.000000 0.000000 0.000000
# 3 -0.003351 -0.003153 0.019926 0.000000 0.000000 0.000000
# 4 0.000000 0.000000 0.000000 0.031599 0.000000 0.000000
# 5 0.000000 0.000000 0.000000 0.000000 0.082665 0.000000
# 6 0.000000 0.000000 0.000000 0.000000 0.000000 0.067966
#
#
# Mechanical properties :
#
#
# Convention : Reuss Voigt Hill
#
# Bulk Modulus (GPa) = 29.72199 37.59469 33.65834
# Shear Modulus (GPa) = 19.13686 24.20781 21.67234
#
# Velocity S-wave (km/s) = 3.02667 3.40414 3.22094
# Velocity P-wave (km/s) = 5.14218 5.78336 5.47217
#
# Compressibility (1/GPa) = 0.03364512
#
# Stress axis : x y z
#
# Youngs Moduli (GPa) = 44.23849 121.85430 50.18485
#
# Poissons Ratio (x) = 0.24890 0.16815
# Poissons Ratio (y) = 0.09036 0.15824
# Poissons Ratio (z) = 0.14823 0.38421
#
# Static dielectric constant tensor:
#      x y z
#    x 1.705650 0.000000 0.000000 
#    y 0.000000 1.896490 0.000000 
#    z 0.000000 0.000000 1.786680 
# 
# From -- ./inp_files/13165.got.cif
#   From: 2010.05.17/outbox.cif.g08.bks.cpg/sg24_7_cif.got.tgz:13165.got - 2010.06.04 00:33:39.
