data_PCOD9333535
_publ_section_title
;
Structure prediction by ZEFSAII (Michael W. Deem and Ramdas Pophale) SiO2 
 PCOD9333535
Probable space group: I 21 21 21
;
_chemical_formula_sum "Si O2"
_cell_formula_units_Z 56
_cell_length_a 30.289596
_cell_length_b 5.521281
_cell_length_c 16.228235
_cell_angle_alpha 90.000000
_cell_angle_beta 90.000000
_cell_angle_gamma 90.000000
_cell_volume 2713.967356
_symmetry_space_group_name_H-M "I 21 21 21"
_symmetry_group_IT_number 24
_symmetry_cell_setting 'orthorhombic'
loop_
_space_group_symop_operation_xyz
x,y,z
-x,1/2-y,z
x,-y,1/2-z
1/2-x,y,-z
1/2+x,1/2+y,1/2+z
1/2-x,-y,1/2+z
1/2+x,1/2-y,-z
-x,1/2+y,1/2-z
loop_
_atom_site_type_symbol
_atom_site_label
_atom_site_fract_x
_atom_site_fract_y
_atom_site_fract_z
Si Si1 0.083976 0.997025 0.155725
Si Si2 0.800380 0.746200 0.233657
Si Si3 0.095545 0.490438 0.090737
Si Si4 0.333679 0.677258 0.479108
Si Si5 0.201885 0.249974 0.795651
Si Si6 0.294722 0.830190 0.956144
Si Si7 0.001569 0.999928 0.028891
O O1 0.109335 0.749828 0.128628
O O2 0.068124 0.000000 0.250000
O O3 0.107037 0.256431 0.144203
O O4 0.043265 0.003248 0.090239
O O5 0.826309 0.500000 0.250000
O O6 0.755839 0.746717 0.290444
O O7 0.786245 0.723818 0.139222
O O8 0.822554 0.000000 0.250000
O O9 0.042864 0.504131 0.083166
O O10 0.117228 0.418683 0.002897
O O11 0.318901 0.734577 0.386209
O O12 0.307808 0.433527 0.507378
O O13 0.325090 0.932410 0.526982
O O14 0.189244 0.500000 0.750000
O O15 0.188412 0.000000 0.750000
O O16 0.250000 0.906794 0.000000
O O17 0.000000 0.250000 0.980287
O O18 0.000000 0.750000 0.979954
#
# Coordination Sequence:
#
# PCOD9333535 Si02
#       7
#     8   8   8   8   8   8   8
#     4  10  19  34  57  80 111 156 200 231 258 312
#     4  10  19  35  54  75  99 128 176 233 270 319
#     4  10  21  35  51  80 116 147 185 230 280 329
#     4  12  24  40  59  83 114 145 176 233 303 345
#     4  10  20  37  59  81 101 130 175 227 279 331
#     4  12  23  38  60  82 105 143 190 235 290 349
#     4   8  16  29  50  77 106 143 189 227 258 307
#
# _framework density 20.634
#
# number of rings (size 3 to 8) (size 9 to 14) (size 15 to 20)
#    0.000    1.714    0.000    6.857    0.000    5.143 
#    0.000    7.143    0.000    0.000    0.000    0.000 
#    0.000   20.571    0.000    0.000    0.000    0.000 
#
# Total GULP energy -156042.806568 kJ/mol
# GULP energy per Si atom -5572.957377 kJ/mol
# Density = 2.058704 g / cm^3
# Si number density = 20.634000 Si / 1000 Ang^3
#
#
#
# Elastic Constant Matrix: (Units=GPa)
#
#
# Indices 1 2 3 4 5 6 
#
# 1 41.8399 26.9042 28.1391 0.0000 0.0000 0.0000
# 2 26.9042 254.4669 52.1533 0.0000 0.0000 0.0000
# 3 28.1391 52.1533 75.2547 0.0000 0.0000 0.0000
# 4 0.0000 0.0000 0.0000 35.3390 0.0000 0.0000
# 5 0.0000 0.0000 0.0000 0.0000 5.7066 0.0000
# 6 0.0000 0.0000 0.0000 0.0000 0.0000 23.0478
#
#
#
# Elastic Compliance Matrix: (Units=1/GPa)
#
#
# Indices 1 2 3 4 5 6 
#
# 1 0.032188 -0.001091 -0.011279 0.000000 0.000000 0.000000
# 2 -0.001091 0.004617 -0.002792 0.000000 0.000000 0.000000
# 3 -0.011279 -0.002792 0.019441 0.000000 0.000000 0.000000
# 4 0.000000 0.000000 0.000000 0.028297 0.000000 0.000000
# 5 0.000000 0.000000 0.000000 0.000000 0.175234 0.000000
# 6 0.000000 0.000000 0.000000 0.000000 0.000000 0.043388
#
#
# Mechanical properties :
#
#
# Convention : Reuss Voigt Hill
#
# Bulk Modulus (GPa) = 38.57890 65.10608 51.84249
# Shear Modulus (GPa) = 14.61427 30.44303 22.52865
#
# Velocity S-wave (km/s) = 2.66421 3.84524 3.30786
# Velocity P-wave (km/s) = 5.31049 7.16490 6.30623
#
# Compressibility (1/GPa) = 0.02592090
#
# Stress axis : x y z
#
# Youngs Moduli (GPa) = 31.06718 216.57342 51.43881
#
# Poissons Ratio (x) = 0.23638 0.58020
# Poissons Ratio (y) = 0.03391 0.14361
# Poissons Ratio (z) = 0.35042 0.60464
#
# Static dielectric constant tensor:
#      x y z
#    x 1.794260 0.000000 0.000000 
#    y 0.000000 1.875080 0.000000 
#    z 0.000000 0.000000 1.698510 
# 
# From -- ./inp_files/28225.got.cif
#   From: 2010.05.17/outbox.cif.g08.bks.cpg/sg24_15_cif.got.tgz:28225.got - 2010.06.04 00:33:39.
