data_PCOD9333625
_publ_section_title
;
Structure prediction by ZEFSAII (Michael W. Deem and Ramdas Pophale) SiO2 
 PCOD9333625
Probable space group: I 21 21 21
;
_chemical_formula_sum "Si O2"
_cell_formula_units_Z 48
_cell_length_a 10.499781
_cell_length_b 14.250640
_cell_length_c 17.352169
_cell_angle_alpha 90.000000
_cell_angle_beta 90.000000
_cell_angle_gamma 90.000000
_cell_volume 2596.380739
_symmetry_space_group_name_H-M "I 21 21 21"
_symmetry_group_IT_number 24
_symmetry_cell_setting 'orthorhombic'
loop_
_space_group_symop_operation_xyz
x,y,z
-x,1/2-y,z
x,-y,1/2-z
1/2-x,y,-z
1/2+x,1/2+y,1/2+z
1/2-x,-y,1/2+z
1/2+x,1/2-y,-z
-x,1/2+y,1/2-z
loop_
_atom_site_type_symbol
_atom_site_label
_atom_site_fract_x
_atom_site_fract_y
_atom_site_fract_z
Si Si1 0.398308 0.555269 0.408132
Si Si2 0.620847 0.813443 0.828399
Si Si3 0.537188 0.500000 0.250000
Si Si4 0.383312 0.499461 0.574008
Si Si5 0.539767 0.590787 0.699627
Si Si6 0.793618 0.315469 0.759112
Si Si7 0.000000 0.750000 0.623152
O O1 0.452489 0.517780 0.326704
O O2 0.417770 0.492415 0.484341
O O3 0.244860 0.559111 0.408794
O O4 0.468237 0.654899 0.421921
O O5 0.500000 0.750000 0.853193
O O6 0.639913 0.898294 0.887288
O O7 0.573302 0.859738 0.747709
O O8 0.743835 0.749859 0.810585
O O9 0.626019 0.408368 0.262802
O O10 0.494367 0.552966 0.618590
O O11 0.574946 0.500000 0.750000
O O12 0.663317 0.654446 0.699206
O O13 0.880852 0.261697 0.819557
#
# Coordination Sequence:
#
# PCOD9333625 Si02
#       7
#     8   8   4   8   8   8   4
#     4  10  23  41  57  87 119 159 204 249 313 376
#     4   9  19  34  61  90 117 150 208 252 293 367
#     4  10  22  38  62  82 128 164 202 246 316 376
#     4  10  21  39  61  86 121 159 198 259 315 358
#     4   9  17  33  60  87 113 149 192 243 297 351
#     4  10  19  35  59  92 113 156 204 245 296 374
#     4  10  22  38  56  86 118 154 202 246 296 376
#
# _framework density 18.487272999999998
#
# number of rings (size 3 to 8) (size 9 to 14) (size 15 to 20)
#    0.000    2.333    0.833    1.000    8.167    0.000 
#   10.500    5.833    0.000    0.000    0.000    0.000 
#    0.000    0.000    0.000    0.000    0.000    0.000 
#
# Total GULP energy -133730.258576 kJ/mol
# GULP energy per Si atom -5572.094107 kJ/mol
# Density = 1.844520 g / cm^3
# Si number density = 18.487273 Si / 1000 Ang^3
#
#
#
# Elastic Constant Matrix: (Units=GPa)
#
#
# Indices 1 2 3 4 5 6 
#
# 1 58.1863 27.5476 49.7158 0.0000 0.0000 0.0000
# 2 27.5476 81.5990 38.8122 0.0000 0.0000 0.0000
# 3 49.7158 38.8122 108.1405 0.0000 0.0000 0.0000
# 4 0.0000 0.0000 0.0000 22.6920 0.0000 0.0000
# 5 0.0000 0.0000 0.0000 0.0000 -6.0349 0.0000
# 6 0.0000 0.0000 0.0000 0.0000 0.0000 26.3308
#
#
#
# Elastic Compliance Matrix: (Units=1/GPa)
#
#
# Indices 1 2 3 4 5 6 
#
# 1 0.029465 -0.004226 -0.012029 0.000000 0.000000 0.000000
# 2 -0.004226 0.015384 -0.003579 0.000000 0.000000 0.000000
# 3 -0.012029 -0.003579 0.016062 0.000000 0.000000 0.000000
# 4 0.000000 0.000000 0.000000 0.044068 0.000000 0.000000
# 5 0.000000 0.000000 0.000000 0.000000 -0.165702 0.000000
# 6 0.000000 0.000000 0.000000 0.000000 0.000000 0.037978
#
#
# Mechanical properties :
#
#
# Convention : Reuss Voigt Hill
#
# Bulk Modulus (GPa) = 47.07357 53.34188 50.20773
# Shear Modulus (GPa) = 208.30326 17.38760 112.84543
#
# Velocity S-wave (km/s) = 10.62631 3.07011 7.82126
# Velocity P-wave (km/s) = 13.26936 6.44076 10.42975
#
# Compressibility (1/GPa) = 0.02124334
#
# Stress axis : x y z
#
# Youngs Moduli (GPa) = 33.93861 65.00364 62.25885
#
# Poissons Ratio (x) = 0.27468 0.74894
# Poissons Ratio (y) = 0.14341 0.22280
# Poissons Ratio (z) = 0.40826 0.23263
#
# Static dielectric constant tensor:
#      x y z
#    x 1.645090 0.000000 0.000000 
#    y 0.000000 1.704210 0.000000 
#    z 0.000000 0.000000 1.616260 
# 
# From -- ./inp_files/29509.got.cif
#   From: 2010.05.17/outbox.cif.g08.bks.cpg/sg24_15_cif.got.tgz:29509.got - 2010.06.04 00:33:39.
