data_PCOD9333551
_publ_section_title
;
Structure prediction by ZEFSAII (Michael W. Deem and Ramdas Pophale) SiO2 
 PCOD9333551
Probable space group: I 21 21 21
;
_chemical_formula_sum "Si O2"
_cell_formula_units_Z 52
_cell_length_a 14.629954
_cell_length_b 5.262481
_cell_length_c 29.827434
_cell_angle_alpha 90.000000
_cell_angle_beta 90.000000
_cell_angle_gamma 90.000000
_cell_volume 2296.409817
_symmetry_space_group_name_H-M "I 21 21 21"
_symmetry_group_IT_number 24
_symmetry_cell_setting 'orthorhombic'
loop_
_space_group_symop_operation_xyz
x,y,z
-x,1/2-y,z
x,-y,1/2-z
1/2-x,y,-z
1/2+x,1/2+y,1/2+z
1/2-x,-y,1/2+z
1/2+x,1/2-y,-z
-x,1/2+y,1/2-z
loop_
_atom_site_type_symbol
_atom_site_label
_atom_site_fract_x
_atom_site_fract_y
_atom_site_fract_z
Si Si1 0.344395 0.000318 0.970201
Si Si2 0.272837 0.050508 0.870852
Si Si3 0.405620 0.614758 0.395530
Si Si4 0.662228 0.157250 0.319052
Si Si5 0.640652 0.995026 0.008422
Si Si6 0.940617 0.500000 0.750000
Si Si7 0.700367 0.232566 0.778817
O O1 0.323998 0.031934 0.917913
O O2 0.393377 0.738191 0.979859
O O3 0.395351 0.237808 0.991294
O O4 0.250000 0.982470 0.000000
O O5 0.240833 0.781018 0.850166
O O6 0.178713 0.198227 0.883694
O O7 0.326673 0.185377 0.829566
O O8 0.500000 0.750000 0.404911
O O9 0.414901 0.442767 0.351910
O O10 0.377125 0.458652 0.439318
O O11 0.378160 0.119825 0.288780
O O12 0.705344 0.920209 0.292100
O O13 0.750000 0.014521 0.000000
O O14 0.000000 0.250000 0.763645
O O15 0.701139 0.500000 0.750000
O O16 0.653719 0.000000 0.750000
#
# Coordination Sequence:
#
# PCOD9333551 Si02
#       7
#     8   8   8   8   8   4   8
#     4  10  19  34  59  82 101 129 180 234 283 335
#     4  11  22  36  61  81 103 145 190 247 290 338
#     4  11  25  39  57  84 112 145 187 247 302 342
#     4  11  25  42  56  72 103 142 195 244 293 337
#     4  10  19  38  58  78 107 134 175 233 285 342
#     4  12  32  44  54  68  98 146 198 246 296 338
#     4  11  22  38  56  78 106 142 186 240 288 339
#
# _framework density 22.644041000000001
#
# number of rings (size 3 to 8) (size 9 to 14) (size 15 to 20)
#    0.000    1.231    4.615    2.769    9.692    0.000 
#    2.769    0.000    0.000    0.000    0.000    0.000 
#    0.000    0.000    0.000    0.000    0.000    4.615 
#
# Total GULP energy -145067.123613 kJ/mol
# GULP energy per Si atom -5579.504754 kJ/mol
# Density = 2.259250 g / cm^3
# Si number density = 22.644041 Si / 1000 Ang^3
#
#
#
# Elastic Constant Matrix: (Units=GPa)
#
#
# Indices 1 2 3 4 5 6 
#
# 1 24.4466 13.4284 16.1192 0.0000 0.0000 0.0000
# 2 13.4284 213.0992 74.7138 0.0000 0.0000 0.0000
# 3 16.1192 74.7138 202.1878 0.0000 0.0000 0.0000
# 4 0.0000 0.0000 0.0000 51.6295 0.0000 0.0000
# 5 0.0000 0.0000 0.0000 0.0000 5.1796 0.0000
# 6 0.0000 0.0000 0.0000 0.0000 0.0000 -5.8104
#
#
#
# Elastic Compliance Matrix: (Units=1/GPa)
#
#
# Indices 1 2 3 4 5 6 
#
# 1 0.043744 -0.001762 -0.002836 0.000000 0.000000 0.000000
# 2 -0.001762 0.005462 -0.001878 0.000000 0.000000 0.000000
# 3 -0.002836 -0.001878 0.005866 0.000000 0.000000 0.000000
# 4 0.000000 0.000000 0.000000 0.019369 0.000000 0.000000
# 5 0.000000 0.000000 0.000000 0.000000 0.193065 0.000000
# 6 0.000000 0.000000 0.000000 0.000000 0.000000 -0.172106
#
#
# Mechanical properties :
#
#
# Convention : Reuss Voigt Hill
#
# Bulk Modulus (GPa) = 23.74223 72.02851 47.88537
# Shear Modulus (GPa) = 40.85279 32.56457 36.70868
#
# Velocity S-wave (km/s) = 4.25211 3.79635 4.03068
# Velocity P-wave (km/s) = 5.88345 7.14804 6.54635
#
# Compressibility (1/GPa) = 0.04211904
#
# Stress axis : x y z
#
# Youngs Moduli (GPa) = 22.86054 183.07998 170.47534
#
# Poissons Ratio (x) = 0.32260 0.48351
# Poissons Ratio (y) = 0.04028 0.32014
# Poissons Ratio (z) = 0.06484 0.34381
#
# Static dielectric constant tensor:
#      x y z
#    x 1.819850 0.000000 0.000000 
#    y 0.000000 1.904940 0.000000 
#    z 0.000000 0.000000 1.863600 
# 
# From -- ./inp_files/36067.got.cif
#   From: 2010.05.17/outbox.cif.g08.bks.cpg/sg24_19_cif.got.tgz:36067.got - 2010.06.04 00:33:39.
