data_PCOD9333426
_publ_section_title
;
Structure prediction by ZEFSAII (Michael W. Deem and Ramdas Pophale) SiO2 
 PCOD9333426
Probable space group: I 21 21 21
;
_chemical_formula_sum "Si O2"
_cell_formula_units_Z 48
_cell_length_a 5.293032
_cell_length_b 26.906309
_cell_length_c 12.971438
_cell_angle_alpha 90.000000
_cell_angle_beta 90.000000
_cell_angle_gamma 90.000000
_cell_volume 1847.339725
_symmetry_space_group_name_H-M "I 21 21 21"
_symmetry_group_IT_number 24
_symmetry_cell_setting 'orthorhombic'
loop_
_space_group_symop_operation_xyz
x,y,z
-x,1/2-y,z
x,-y,1/2-z
1/2-x,y,-z
1/2+x,1/2+y,1/2+z
1/2-x,-y,1/2+z
1/2+x,1/2-y,-z
-x,1/2+y,1/2-z
loop_
_atom_site_type_symbol
_atom_site_label
_atom_site_fract_x
_atom_site_fract_y
_atom_site_fract_z
Si Si1 0.619581 0.974853 0.860029
Si Si2 0.752076 0.609444 0.117491
Si Si3 0.926314 0.197144 0.413976
Si Si4 0.423984 0.694241 0.676371
Si Si5 0.882460 0.482370 0.871252
Si Si6 0.055386 0.129505 0.828197
O O1 0.895583 0.980543 0.907616
O O2 0.399402 0.007982 0.910592
O O3 0.663717 0.000000 0.750000
O O4 0.495003 0.921258 0.842084
O O5 0.545202 0.611657 0.207057
O O6 0.823462 0.666360 0.104569
O O7 0.750000 0.591283 0.000000
O O8 0.750000 0.171646 0.500000
O O9 0.834498 0.202897 0.296498
O O10 0.000000 0.250000 0.457890
O O11 0.500000 0.750000 0.638239
O O12 0.676446 0.659592 0.664217
O O13 0.178226 0.663963 0.636385
O O14 0.846607 0.500000 0.750000
O O15 0.946412 0.424479 0.882051
#
# Coordination Sequence:
#
# PCOD9333426 Si02
#       6
#     8   8   8   8   8   8
#     4  10  20  35  52  74 101 130 171 230 269 323
#     4  11  22  34  53  80 103 138 186 238 272 311
#     4  10  21  34  48  67 100 141 182 227 272 311
#     4  10  22  34  50  72 100 133 174 222 271 314
#     4  10  19  32  55  72  93 129 174 221 261 321
#     4  11  20  35  54  73 100 134 181 224 264 316
#
# _framework density 25.983311
#
# number of rings (size 3 to 8) (size 9 to 14) (size 15 to 20)
#    0.000    1.667    3.333    3.000    7.000    4.000 
#    0.000    0.000    0.000    0.000    0.000    0.000 
#    0.000    0.000    0.000    0.000    0.000   53.333 
#
# Total GULP energy -133860.267943 kJ/mol
# GULP energy per Si atom -5577.511164 kJ/mol
# Density = 2.592417 g / cm^3
# Si number density = 25.983311 Si / 1000 Ang^3
#
#
#
# Elastic Constant Matrix: (Units=GPa)
#
#
# Indices 1 2 3 4 5 6 
#
# 1 158.8378 46.5619 4.5268 0.0000 0.0000 0.0000
# 2 46.5619 174.8657 -6.4232 0.0000 0.0000 0.0000
# 3 4.5268 -6.4232 18.1372 0.0000 0.0000 0.0000
# 4 0.0000 0.0000 0.0000 21.7576 0.0000 0.0000
# 5 0.0000 0.0000 0.0000 0.0000 32.6528 0.0000
# 6 0.0000 0.0000 0.0000 0.0000 0.0000 52.7044
#
#
#
# Elastic Compliance Matrix: (Units=1/GPa)
#
#
# Indices 1 2 3 4 5 6 
#
# 1 0.006932 -0.001934 -0.002415 0.000000 0.000000 0.000000
# 2 -0.001934 0.006334 0.002726 0.000000 0.000000 0.000000
# 3 -0.002415 0.002726 0.056704 0.000000 0.000000 0.000000
# 4 0.000000 0.000000 0.000000 0.045961 0.000000 0.000000
# 5 0.000000 0.000000 0.000000 0.000000 0.030625 0.000000
# 6 0.000000 0.000000 0.000000 0.000000 0.000000 0.018974
#
#
# Mechanical properties :
#
#
# Convention : Reuss Voigt Hill
#
# Bulk Modulus (GPa) = 14.98758 49.01907 32.00332
# Shear Modulus (GPa) = 26.17570 41.90131 34.03850
#
# Velocity S-wave (km/s) = 3.17741 4.02011 3.62334
# Velocity P-wave (km/s) = 4.38656 6.36042 5.46337
#
# Compressibility (1/GPa) = 0.06672193
#
# Stress axis : x y z
#
# Youngs Moduli (GPa) = 144.26654 157.88104 17.63557
#
# Poissons Ratio (x) = 0.30541 0.04259
# Poissons Ratio (y) = 0.27907 -0.04807
# Poissons Ratio (z) = 0.34842 -0.43037
#
# Static dielectric constant tensor:
#      x y z
#    x 2.153200 0.000000 0.000000 
#    y 0.000000 2.048520 0.000000 
#    z 0.000000 0.000000 2.208170 
# 
# From -- ./inp_files/28812.got.cif
#   From: 2010.05.17/outbox.cif.g08.bks.cpg/sg24_15_cif.got.tgz:28812.got - 2010.06.04 00:33:39.
