data_PCOD9333004
_publ_section_title
;
Structure prediction by ZEFSAII (Michael W. Deem and Ramdas Pophale) SiO2 
 PCOD9333004
Probable space group: I 21 21 21
;
_chemical_formula_sum "Si O2"
_cell_formula_units_Z 48
_cell_length_a 29.246314
_cell_length_b 10.783051
_cell_length_c 8.346718
_cell_angle_alpha 90.000000
_cell_angle_beta 90.000000
_cell_angle_gamma 90.000000
_cell_volume 2632.258511
_symmetry_space_group_name_H-M "I 21 21 21"
_symmetry_group_IT_number 24
_symmetry_cell_setting 'orthorhombic'
loop_
_space_group_symop_operation_xyz
x,y,z
-x,1/2-y,z
x,-y,1/2-z
1/2-x,y,-z
1/2+x,1/2+y,1/2+z
1/2-x,-y,1/2+z
1/2+x,1/2-y,-z
-x,1/2+y,1/2-z
loop_
_atom_site_type_symbol
_atom_site_label
_atom_site_fract_x
_atom_site_fract_y
_atom_site_fract_z
Si Si1 0.844921 0.615861 0.014135
Si Si2 0.402178 0.753035 0.260975
Si Si3 0.413980 0.000000 0.750000
Si Si4 0.454555 0.500000 0.250000
Si Si5 0.180184 0.832402 0.568272
Si Si6 0.975353 0.378732 0.973869
Si Si7 0.268422 0.849889 0.755823
O O1 0.879250 0.593912 0.162856
O O2 0.798306 0.675549 0.085630
O O3 0.874116 0.690133 0.885533
O O4 0.833190 0.478558 0.944414
O O5 0.423964 0.621161 0.224279
O O6 0.364628 0.752255 0.402020
O O7 0.442265 0.841869 0.325779
O O8 0.445467 0.936840 0.615334
O O9 0.486687 0.470576 0.097640
O O10 0.216525 0.813608 0.712914
O O11 0.203869 0.804146 0.399690
O O12 0.000000 0.250000 0.023580
O O13 0.268202 0.000000 0.750000
#
# Coordination Sequence:
#
# PCOD9333004 Si02
#       7
#     8   8   4   4   8   8   8
#     4  11  19  31  54  87 112 147 176 222 273 335
#     4  11  21  36  59  76 109 145 186 224 272 329
#     4  12  20  34  56  83 114 133 178 220 286 338
#     4  10  24  42  54  77 102 147 194 230 274 328
#     4  10  18  31  53  81 115 146 170 224 275 327
#     4  10  22  38  56  78 106 141 185 234 280 328
#     4   9  17  30  48  83 120 142 176 214 274 328
#
# _framework density 18.235291
#
# number of rings (size 3 to 8) (size 9 to 14) (size 15 to 20)
#    0.000    1.667    4.167    2.500    0.000    3.333 
#    0.000    0.000    0.000    4.000    0.000    0.000 
#    0.000    0.000    0.000    0.000    0.000    0.000 
#
# Total GULP energy -133886.499196 kJ/mol
# GULP energy per Si atom -5578.604133 kJ/mol
# Density = 1.819379 g / cm^3
# Si number density = 18.235291 Si / 1000 Ang^3
#
#
#
# Elastic Constant Matrix: (Units=GPa)
#
#
# Indices 1 2 3 4 5 6 
#
# 1 134.5634 53.3404 43.3923 0.0000 0.0000 0.0000
# 2 53.3404 61.5642 33.7162 0.0000 0.0000 0.0000
# 3 43.3923 33.7162 76.5992 0.0000 0.0000 0.0000
# 4 0.0000 0.0000 0.0000 11.3858 0.0000 0.0000
# 5 0.0000 0.0000 0.0000 0.0000 53.0649 0.0000
# 6 0.0000 0.0000 0.0000 0.0000 0.0000 17.3678
#
#
#
# Elastic Compliance Matrix: (Units=1/GPa)
#
#
# Indices 1 2 3 4 5 6 
#
# 1 0.011780 -0.008633 -0.002873 0.000000 0.000000 0.000000
# 2 -0.008633 0.027729 -0.007315 0.000000 0.000000 0.000000
# 3 -0.002873 -0.007315 0.017902 0.000000 0.000000 0.000000
# 4 0.000000 0.000000 0.000000 0.087829 0.000000 0.000000
# 5 0.000000 0.000000 0.000000 0.000000 0.018845 0.000000
# 6 0.000000 0.000000 0.000000 0.000000 0.000000 0.057578
#
#
# Mechanical properties :
#
#
# Convention : Reuss Voigt Hill
#
# Bulk Modulus (GPa) = 50.58366 59.29161 54.93763
# Shear Modulus (GPa) = 18.80443 25.84890 22.32666
#
# Velocity S-wave (km/s) = 3.21473 3.76908 3.50289
# Velocity P-wave (km/s) = 6.44818 7.17821 6.82296
#
# Compressibility (1/GPa) = 0.01976923
#
# Stress axis : x y z
#
# Youngs Moduli (GPa) = 84.88956 36.06345 55.85836
#
# Poissons Ratio (x) = 0.31133 0.16050
# Poissons Ratio (y) = 0.73284 0.40860
# Poissons Ratio (z) = 0.24392 0.26380
#
# Static dielectric constant tensor:
#      x y z
#    x 1.668770 0.000000 0.000000 
#    y 0.000000 1.582280 0.000000 
#    z 0.000000 0.000000 1.684270 
# 
# From -- ./inp_files/16375.got.cif
#   From: 2010.05.17/outbox.cif.g08.bks.cpg/sg24_9_cif.got.tgz:16375.got - 2010.06.04 00:33:39.
