data_PCOD9333437
_publ_section_title
;
Structure prediction by ZEFSAII (Michael W. Deem and Ramdas Pophale) SiO2 
 PCOD9333437
Probable space group: I 21 21 21
;
_chemical_formula_sum "Si O2"
_cell_formula_units_Z 56
_cell_length_a 16.319669
_cell_length_b 21.898981
_cell_length_c 9.880667
_cell_angle_alpha 90.000000
_cell_angle_beta 90.000000
_cell_angle_gamma 90.000000
_cell_volume 3531.193494
_symmetry_space_group_name_H-M "I 21 21 21"
_symmetry_group_IT_number 24
_symmetry_cell_setting 'orthorhombic'
loop_
_space_group_symop_operation_xyz
x,y,z
-x,1/2-y,z
x,-y,1/2-z
1/2-x,y,-z
1/2+x,1/2+y,1/2+z
1/2-x,-y,1/2+z
1/2+x,1/2-y,-z
-x,1/2+y,1/2-z
loop_
_atom_site_type_symbol
_atom_site_label
_atom_site_fract_x
_atom_site_fract_y
_atom_site_fract_z
Si Si1 0.053706 0.312182 0.551430
Si Si2 0.032100 0.320544 0.244260
Si Si3 0.395213 0.147286 0.953454
Si Si4 0.657194 0.500000 0.250000
Si Si5 0.427378 0.128968 0.260009
Si Si6 0.750000 0.445576 0.000000
Si Si7 0.700596 0.731170 0.134944
Si Si8 0.688924 0.225566 0.885656
O O1 0.048583 0.337902 0.399445
O O2 0.142729 0.288264 0.594282
O O3 0.000000 0.250000 0.551134
O O4 0.009307 0.355899 0.657844
O O5 0.116686 0.318996 0.161683
O O6 0.000000 0.250000 0.246610
O O7 0.961369 0.356939 0.166253
O O8 0.322618 0.098107 0.945806
O O9 0.354024 0.213979 0.946659
O O10 0.436811 0.140621 0.100034
O O11 0.603448 0.439917 0.277939
O O12 0.712945 0.515147 0.379103
O O13 0.356845 0.175825 0.313001
O O14 0.761483 0.751608 0.253871
O O15 0.750000 0.712755 0.000000
O O16 0.750000 0.200992 0.000000
#
# Coordination Sequence:
#
# PCOD9333437 Si02
#       8
#     8   8   8   4   8   4   8   8
#     4   9  19  33  46  72  99 136 169 204 258 317
#     4   9  19  29  45  68 100 132 169 205 247 309
#     4  10  19  33  46  66  98 135 168 210 247 300
#     4  10  22  36  50  76  96 132 186 216 246 304
#     4  10  21  34  50  69 103 139 175 213 257 303
#     4  10  20  36  50  70  98 126 178 218 250 300
#     4  11  20  31  50  74 108 134 167 212 258 313
#     4  11  18  29  46  72  99 136 166 199 251 306
#
# _framework density 15.858661
#
# number of rings (size 3 to 8) (size 9 to 14) (size 15 to 20)
#    0.000    2.000    3.571    0.857    5.000    2.857 
#    0.000    0.000    0.000    0.000    0.000    0.000 
#    8.571    0.000    0.000    0.000    0.000    0.000 
#
# Total GULP energy -156137.472974 kJ/mol
# GULP energy per Si atom -5576.338321 kJ/mol
# Density = 1.582257 g / cm^3
# Si number density = 15.858661 Si / 1000 Ang^3
#
#
#
# Elastic Constant Matrix: (Units=GPa)
#
#
# Indices 1 2 3 4 5 6 
#
# 1 58.9672 30.0438 25.7828 0.0000 0.0000 0.0000
# 2 30.0438 53.5668 41.9115 0.0000 0.0000 0.0000
# 3 25.7828 41.9115 87.1302 0.0000 0.0000 0.0000
# 4 0.0000 0.0000 0.0000 18.7021 0.0000 0.0000
# 5 0.0000 0.0000 0.0000 0.0000 23.9224 0.0000
# 6 0.0000 0.0000 0.0000 0.0000 0.0000 7.8380
#
#
#
# Elastic Compliance Matrix: (Units=1/GPa)
#
#
# Indices 1 2 3 4 5 6 
#
# 1 0.023797 -0.012567 -0.000997 0.000000 0.000000 0.000000
# 2 -0.012567 0.036571 -0.013873 0.000000 0.000000 0.000000
# 3 -0.000997 -0.013873 0.018445 0.000000 0.000000 0.000000
# 4 0.000000 0.000000 0.000000 0.053470 0.000000 0.000000
# 5 0.000000 0.000000 0.000000 0.000000 0.041802 0.000000
# 6 0.000000 0.000000 0.000000 0.000000 0.000000 0.127584
#
#
# Mechanical properties :
#
#
# Convention : Reuss Voigt Hill
#
# Bulk Modulus (GPa) = 41.77088 43.90447 42.83767
# Shear Modulus (GPa) = 13.71657 16.88757 15.30207
#
# Velocity S-wave (km/s) = 2.94415 3.26679 3.10966
# Velocity P-wave (km/s) = 6.16068 6.47875 6.32172
#
# Compressibility (1/GPa) = 0.02394012
#
# Stress axis : x y z
#
# Youngs Moduli (GPa) = 42.02130 27.34403 54.21498
#
# Poissons Ratio (x) = 0.34364 0.05404
# Poissons Ratio (y) = 0.52809 0.75211
# Poissons Ratio (z) = 0.04189 0.37933
#
# Static dielectric constant tensor:
#      x y z
#    x 1.542490 0.000000 0.000000 
#    y 0.000000 1.491820 0.000000 
#    z 0.000000 0.000000 1.541520 
# 
# From -- ./inp_files/14563.got.cif
#   From: 2010.05.17/outbox.cif.g08.bks.cpg/sg24_8_cif.got.tgz:14563.got - 2010.06.04 00:33:39.
