data_PCOD9333042
_publ_section_title
;
Structure prediction by ZEFSAII (Michael W. Deem and Ramdas Pophale) SiO2 
 PCOD9333042
Probable space group: I 21 21 21
;
_chemical_formula_sum "Si O2"
_cell_formula_units_Z 40
_cell_length_a 8.321906
_cell_length_b 9.230408
_cell_length_c 28.367974
_cell_angle_alpha 90.000000
_cell_angle_beta 90.000000
_cell_angle_gamma 90.000000
_cell_volume 2179.074227
_symmetry_space_group_name_H-M "I 21 21 21"
_symmetry_group_IT_number 24
_symmetry_cell_setting 'orthorhombic'
loop_
_space_group_symop_operation_xyz
x,y,z
-x,1/2-y,z
x,-y,1/2-z
1/2-x,y,-z
1/2+x,1/2+y,1/2+z
1/2-x,-y,1/2+z
1/2+x,1/2-y,-z
-x,1/2+y,1/2-z
loop_
_atom_site_type_symbol
_atom_site_label
_atom_site_fract_x
_atom_site_fract_y
_atom_site_fract_z
Si Si1 0.946011 0.585637 0.702134
Si Si2 0.519567 0.920343 0.918290
Si Si3 0.851670 0.934232 0.609965
Si Si4 0.559602 0.090023 0.008413
Si Si5 0.158369 0.156755 0.142574
O O1 0.969322 0.500000 0.750000
O O2 0.761532 0.593895 0.685427
O O3 0.000000 0.750000 0.710186
O O4 0.052006 0.530637 0.657586
O O5 0.500000 0.750000 0.912355
O O6 0.698663 0.964775 0.900844
O O7 0.400145 0.023853 0.889192
O O8 0.495884 0.970026 0.972544
O O9 0.963682 0.937806 0.563759
O O10 0.775607 0.772655 0.616457
O O11 0.500000 0.250000 0.995194
O O12 0.750000 0.092050 0.000000
O O13 0.000000 0.250000 0.155813
#
# Coordination Sequence:
#
# PCOD9333042 Si02
#       5
#     8   8   8   8   8
#     4  10  21  38  59  82 106 135 179 229 275 319
#     4  10  20  34  52  80 114 143 175 221 274 322
#     4   9  19  37  56  77 106 143 185 223 260 320
#     4  10  18  32  54  78 104 142 184 217 257 318
#     4   9  18  37  59  77 105 143 182 218 260 325
#
# _framework density 18.35642
#
# number of rings (size 3 to 8) (size 9 to 14) (size 15 to 20)
#    0.000    2.400    0.000    4.800    0.000    1.600 
#    0.000   26.000    0.000    0.000    0.000    0.000 
#    0.000    0.000    0.000    0.000    0.000    0.000 
#
# Total GULP energy -111549.316721 kJ/mol
# GULP energy per Si atom -5577.465836 kJ/mol
# Density = 1.831464 g / cm^3
# Si number density = 18.356420 Si / 1000 Ang^3
#
#
#
# Elastic Constant Matrix: (Units=GPa)
#
#
# Indices 1 2 3 4 5 6 
#
# 1 64.6648 31.9083 56.9357 0.0000 0.0000 0.0000
# 2 31.9083 107.5149 60.2283 0.0000 0.0000 0.0000
# 3 56.9357 60.2283 154.3890 0.0000 0.0000 0.0000
# 4 0.0000 0.0000 0.0000 24.3119 0.0000 0.0000
# 5 0.0000 0.0000 0.0000 0.0000 17.2320 0.0000
# 6 0.0000 0.0000 0.0000 0.0000 0.0000 14.9515
#
#
#
# Elastic Compliance Matrix: (Units=1/GPa)
#
#
# Indices 1 2 3 4 5 6 
#
# 1 0.023502 -0.002713 -0.007609 0.000000 0.000000 0.000000
# 2 -0.002713 0.012215 -0.003765 0.000000 0.000000 0.000000
# 3 -0.007609 -0.003765 0.010752 0.000000 0.000000 0.000000
# 4 0.000000 0.000000 0.000000 0.041132 0.000000 0.000000
# 5 0.000000 0.000000 0.000000 0.000000 0.058032 0.000000
# 6 0.000000 0.000000 0.000000 0.000000 0.000000 0.066883
#
#
# Mechanical properties :
#
#
# Convention : Reuss Voigt Hill
#
# Bulk Modulus (GPa) = 54.65534 69.41261 62.03397
# Shear Modulus (GPa) = 20.26031 23.13217 21.69624
#
# Velocity S-wave (km/s) = 3.32583 3.55374 3.44167
# Velocity P-wave (km/s) = 6.67737 7.39828 7.04705
#
# Compressibility (1/GPa) = 0.01829647
#
# Stress axis : x y z
#
# Youngs Moduli (GPa) = 42.54874 81.86596 93.00666
#
# Poissons Ratio (x) = 0.22207 0.70769
# Poissons Ratio (y) = 0.11542 0.35016
# Poissons Ratio (z) = 0.32376 0.30821
#
# Static dielectric constant tensor:
#      x y z
#    x 1.657540 0.000000 0.000000 
#    y 0.000000 1.603870 0.000000 
#    z 0.000000 0.000000 1.657990 
# 
# From -- ./inp_files/9271.got.cif
#   From: 2010.05.17/outbox.cif.g08.bks.cpg/sg24_5_cif.got.tgz:9271.got - 2010.06.04 00:33:39.
