data_PCOD9333913
_publ_section_title
;
Structure prediction by ZEFSAII (Michael W. Deem and Ramdas Pophale) SiO2 
 PCOD9333913
Probable space group: I 21 21 21
;
_chemical_formula_sum "Si O2"
_cell_formula_units_Z 48
_cell_length_a 17.889752
_cell_length_b 7.749985
_cell_length_c 20.844992
_cell_angle_alpha 90.000000
_cell_angle_beta 90.000000
_cell_angle_gamma 90.000000
_cell_volume 2890.060371
_symmetry_space_group_name_H-M "I 21 21 21"
_symmetry_group_IT_number 24
_symmetry_cell_setting 'orthorhombic'
loop_
_space_group_symop_operation_xyz
x,y,z
-x,1/2-y,z
x,-y,1/2-z
1/2-x,y,-z
1/2+x,1/2+y,1/2+z
1/2-x,-y,1/2+z
1/2+x,1/2-y,-z
-x,1/2+y,1/2-z
loop_
_atom_site_type_symbol
_atom_site_label
_atom_site_fract_x
_atom_site_fract_y
_atom_site_fract_z
Si Si1 0.583936 0.809247 0.136152
Si Si2 0.413114 0.723442 0.981767
Si Si3 0.188829 0.987921 0.822161
Si Si4 0.088115 0.293286 0.878182
Si Si5 0.196704 0.016993 0.062850
Si Si6 0.836786 0.870020 0.485179
O O1 0.500000 0.750000 0.152261
O O2 0.641494 0.687067 0.171664
O O3 0.594667 0.987909 0.351445
O O4 0.594691 0.774737 0.059616
O O5 0.500000 0.750000 0.967654
O O6 0.365346 0.873910 0.949837
O O7 0.380693 0.537851 0.962142
O O8 0.133131 0.147026 0.839787
O O9 0.253641 0.985738 0.874930
O O10 0.217263 0.000000 0.750000
O O11 0.124114 0.303268 0.949344
O O12 0.000000 0.250000 0.882183
O O13 0.250000 0.012468 0.000000
O O14 0.163892 0.209938 0.063087
O O15 0.750000 0.916545 0.500000
#
# Coordination Sequence:
#
# PCOD9333913 Si02
#       6
#     8   8   8   8   8   8
#     4  10  20  35  55  79 116 155 184 227 271 331
#     4  10  21  33  58  90 112 139 185 238 294 335
#     4  12  25  39  54  81 115 158 195 230 277 333
#     4  11  21  36  56  82 119 154 191 227 272 337
#     4  11  20  37  59  81 111 148 188 240 281 330
#     4  10  20  32  57  85 115 148 186 232 281 325
#
# _framework density 16.608650000000001
#
# number of rings (size 3 to 8) (size 9 to 14) (size 15 to 20)
#    0.000    1.333    6.667    0.500    7.000    1.333 
#    0.000    0.000    0.000    0.000    4.333    0.000 
#    0.000    0.000    0.000    0.000    0.000    0.000 
#
# Total GULP energy -134010.947824 kJ/mol
# GULP energy per Si atom -5583.789493 kJ/mol
# Density = 1.657085 g / cm^3
# Si number density = 16.608650 Si / 1000 Ang^3
#
#
#
# Elastic Constant Matrix: (Units=GPa)
#
#
# Indices 1 2 3 4 5 6 
#
# 1 90.6689 65.2296 46.7184 0.0000 0.0000 0.0000
# 2 65.2296 126.4832 24.4231 0.0000 0.0000 0.0000
# 3 46.7184 24.4231 56.9083 0.0000 0.0000 0.0000
# 4 0.0000 0.0000 0.0000 8.6489 0.0000 0.0000
# 5 0.0000 0.0000 0.0000 0.0000 12.3333 0.0000
# 6 0.0000 0.0000 0.0000 0.0000 0.0000 31.0775
#
#
#
# Elastic Compliance Matrix: (Units=1/GPa)
#
#
# Indices 1 2 3 4 5 6 
#
# 1 0.028802 -0.011218 -0.018831 0.000000 0.000000 0.000000
# 2 -0.011218 0.012990 0.003634 0.000000 0.000000 0.000000
# 3 -0.018831 0.003634 0.031471 0.000000 0.000000 0.000000
# 4 0.000000 0.000000 0.000000 0.115622 0.000000 0.000000
# 5 0.000000 0.000000 0.000000 0.000000 0.081081 0.000000
# 6 0.000000 0.000000 0.000000 0.000000 0.000000 0.032178
#
#
# Mechanical properties :
#
#
# Convention : Reuss Voigt Hill
#
# Bulk Modulus (GPa) = 48.93546 60.75585 54.84565
# Shear Modulus (GPa) = 13.82041 19.59121 16.70581
#
# Velocity S-wave (km/s) = 2.88778 3.43823 3.17495
# Velocity P-wave (km/s) = 6.37549 7.24031 6.82162
#
# Compressibility (1/GPa) = 0.02043508
#
# Stress axis : x y z
#
# Youngs Moduli (GPa) = 34.71955 76.98477 31.77502
#
# Poissons Ratio (x) = 0.86359 0.59835
# Poissons Ratio (y) = 0.38947 -0.11548
# Poissons Ratio (z) = 0.65379 -0.27979
#
# Static dielectric constant tensor:
#      x y z
#    x 1.544650 0.000000 0.000000 
#    y 0.000000 1.586080 0.000000 
#    z 0.000000 0.000000 1.547910 
# 
# From -- ./inp_files/29482.got.cif
#   From: 2010.05.17/outbox.cif.g08.bks.cpg/sg24_15_cif.got.tgz:29482.got - 2010.06.04 00:33:39.
