data_PCOD9333182
_publ_section_title
;
Structure prediction by ZEFSAII (Michael W. Deem and Ramdas Pophale) SiO2 
 PCOD9333182
Probable space group: I 21 21 21
;
_chemical_formula_sum "Si O2"
_cell_formula_units_Z 60
_cell_length_a 12.873707
_cell_length_b 16.289819
_cell_length_c 14.083526
_cell_angle_alpha 90.000000
_cell_angle_beta 90.000000
_cell_angle_gamma 90.000000
_cell_volume 2953.461264
_symmetry_space_group_name_H-M "I 21 21 21"
_symmetry_group_IT_number 24
_symmetry_cell_setting 'orthorhombic'
loop_
_space_group_symop_operation_xyz
x,y,z
-x,1/2-y,z
x,-y,1/2-z
1/2-x,y,-z
1/2+x,1/2+y,1/2+z
1/2-x,-y,1/2+z
1/2+x,1/2-y,-z
-x,1/2+y,1/2-z
loop_
_atom_site_type_symbol
_atom_site_label
_atom_site_fract_x
_atom_site_fract_y
_atom_site_fract_z
Si Si1 0.651200 0.913196 0.227503
Si Si2 0.138801 0.820820 0.041075
Si Si3 0.922479 0.153614 0.119494
Si Si4 0.578203 0.144351 0.462642
Si Si5 0.786581 0.205348 0.890536
Si Si6 0.000000 0.250000 0.945744
Si Si7 0.145044 0.469306 0.386538
Si Si8 0.936503 0.589299 0.220193
O O1 0.597291 0.855325 0.149403
O O2 0.667959 0.867183 0.325987
O O3 0.759762 0.936965 0.175795
O O4 0.597043 0.000000 0.250000
O O5 0.127657 0.853218 0.148577
O O6 0.250000 0.842675 0.000000
O O7 0.120143 0.723670 0.020770
O O8 0.043706 0.860989 0.983546
O O9 0.830738 0.216776 0.151430
O O10 0.016159 0.139813 0.192227
O O11 0.864387 0.066557 0.111581
O O12 0.971806 0.177139 0.018678
O O13 0.636894 0.067214 0.508311
O O14 0.888825 0.264409 0.893814
O O15 0.750000 0.192132 0.000000
O O16 0.040716 0.436770 0.336437
O O17 0.889093 0.500000 0.250000
#
# Coordination Sequence:
#
# PCOD9333182 Si02
#       8
#     8   8   8   8   8   4   8   8
#     4  12  21  34  61  97 126 161 211 268 350 401
#     4  10  21  43  60  91 136 166 204 269 340 398
#     4  10  19  38  61  90 130 159 225 267 322 393
#     4  10  24  36  62  97 125 161 206 267 346 394
#     4  10  22  40  57  86 131 175 212 264 326 398
#     4  10  24  34  54  82 130 190 196 256 326 390
#     4  10  18  35  64 102 124 149 203 287 342 385
#     4   9  18  36  66 101 117 161 217 275 320 388
#
# _framework density 20.315145999999999
#
# number of rings (size 3 to 8) (size 9 to 14) (size 15 to 20)
#    0.000    1.867    2.667    1.600    3.733    3.200 
#    4.800    0.667    0.000   21.600    0.000    0.000 
#    0.000    0.000    0.000    0.000    0.000    0.000 
#
# Total GULP energy -167016.092510 kJ/mol
# GULP energy per Si atom -5567.203084 kJ/mol
# Density = 2.026891 g / cm^3
# Si number density = 20.315146 Si / 1000 Ang^3
#
#
#
# Elastic Constant Matrix: (Units=GPa)
#
#
# Indices 1 2 3 4 5 6 
#
# 1 116.1754 47.6798 23.4062 0.0000 0.0000 0.0000
# 2 47.6798 49.6036 32.3925 0.0000 0.0000 0.0000
# 3 23.4062 32.3925 69.9843 0.0000 0.0000 0.0000
# 4 0.0000 0.0000 0.0000 36.7423 0.0000 0.0000
# 5 0.0000 0.0000 0.0000 0.0000 24.4258 0.0000
# 6 0.0000 0.0000 0.0000 0.0000 0.0000 18.4850
#
#
#
# Elastic Compliance Matrix: (Units=1/GPa)
#
#
# Indices 1 2 3 4 5 6 
#
# 1 0.014467 -0.015402 0.002290 0.000000 0.000000 0.000000
# 2 -0.015402 0.045290 -0.015811 0.000000 0.000000 0.000000
# 3 0.002290 -0.015811 0.020841 0.000000 0.000000 0.000000
# 4 0.000000 0.000000 0.000000 0.027217 0.000000 0.000000
# 5 0.000000 0.000000 0.000000 0.000000 0.040940 0.000000
# 6 0.000000 0.000000 0.000000 0.000000 0.000000 0.054098
#
#
# Mechanical properties :
#
#
# Convention : Reuss Voigt Hill
#
# Bulk Modulus (GPa) = 43.95162 49.19117 46.57139
# Shear Modulus (GPa) = 18.63704 24.74962 21.69333
#
# Velocity S-wave (km/s) = 3.03214 3.49418 3.27133
# Velocity P-wave (km/s) = 5.82584 6.36755 6.10271
#
# Compressibility (1/GPa) = 0.02275229
#
# Stress axis : x y z
#
# Youngs Moduli (GPa) = 69.12114 22.08016 47.98167
#
# Poissons Ratio (x) = 0.34007 -0.10989
# Poissons Ratio (y) = 1.06459 0.75865
# Poissons Ratio (z) = -0.15830 0.34912
#
# Static dielectric constant tensor:
#      x y z
#    x 1.780310 0.000000 0.000000 
#    y 0.000000 1.781150 0.000000 
#    z 0.000000 0.000000 1.790730 
# 
# From -- ./inp_files/25966.got.cif
#   From: 2010.05.17/outbox.cif.g08.bks.cpg/sg24_13_cif.got.tgz:25966.got - 2010.06.04 00:33:39.
