data_PCOD9333179
_publ_section_title
;
Structure prediction by ZEFSAII (Michael W. Deem and Ramdas Pophale) SiO2 
 PCOD9333179
Probable space group: I 21 21 21
;
_chemical_formula_sum "Si O2"
_cell_formula_units_Z 52
_cell_length_a 8.021838
_cell_length_b 28.209033
_cell_length_c 11.245628
_cell_angle_alpha 90.000000
_cell_angle_beta 90.000000
_cell_angle_gamma 90.000000
_cell_volume 2544.753962
_symmetry_space_group_name_H-M "I 21 21 21"
_symmetry_group_IT_number 24
_symmetry_cell_setting 'orthorhombic'
loop_
_space_group_symop_operation_xyz
x,y,z
-x,1/2-y,z
x,-y,1/2-z
1/2-x,y,-z
1/2+x,1/2+y,1/2+z
1/2-x,-y,1/2+z
1/2+x,1/2-y,-z
-x,1/2+y,1/2-z
loop_
_atom_site_type_symbol
_atom_site_label
_atom_site_fract_x
_atom_site_fract_y
_atom_site_fract_z
Si Si1 0.606699 0.551250 0.761260
Si Si2 0.361160 0.783239 0.231286
Si Si3 0.000000 0.250000 0.168967
Si Si4 0.057329 0.462516 0.519685
Si Si5 0.654864 0.384734 0.375421
Si Si6 0.051761 0.171516 0.976574
Si Si7 0.548017 0.434968 0.995760
O O1 0.692080 0.500000 0.750000
O O2 0.519138 0.547774 0.888616
O O3 0.735774 0.593657 0.769209
O O4 0.498508 0.559156 0.643896
O O5 0.500000 0.750000 0.173209
O O6 0.357409 0.830078 0.152096
O O7 0.450531 0.800355 0.353610
O O8 0.174792 0.761839 0.260195
O O9 0.024548 0.295862 0.081759
O O10 0.250000 0.460494 0.500000
O O11 0.997370 0.420973 0.607484
O O12 0.009346 0.516216 0.556686
O O13 0.750000 0.389462 0.500000
O O14 0.250000 0.167704 0.000000
O O15 0.988854 0.117322 0.966001
O O16 0.750000 0.436373 0.000000
#
# Coordination Sequence:
#
# PCOD9333179 Si02
#       7
#     8   8   4   8   8   8   8
#     4   9  17  34  61  85 112 156 203 243 295 375
#     4  11  23  42  61  92 120 158 214 259 319 385
#     4  10  20  40  66  86 128 164 196 268 322 364
#     4  10  21  38  55  86 129 162 200 262 315 371
#     4  10  21  41  63  83 116 163 212 253 309 372
#     4   9  18  34  61  90 120 158 201 248 318 381
#     4  10  18  35  61  90 120 160 208 251 309 386
#
# _framework density 20.434197000000001
#
# number of rings (size 3 to 8) (size 9 to 14) (size 15 to 20)
#    0.000    2.154    0.769    5.077    0.000    0.000 
#   12.462   10.000    0.000    0.000    0.000    0.000 
#    0.000    0.000    0.000    0.000    0.000    0.000 
#
# Total GULP energy -144789.468993 kJ/mol
# GULP energy per Si atom -5568.825731 kJ/mol
# Density = 2.038769 g / cm^3
# Si number density = 20.434197 Si / 1000 Ang^3
#
#
#
# Elastic Constant Matrix: (Units=GPa)
#
#
# Indices 1 2 3 4 5 6 
#
# 1 77.4922 76.8201 9.7837 0.0001 0.0000 -0.0002
# 2 76.8201 158.9987 12.5070 0.0001 0.0000 -0.0001
# 3 9.7837 12.5070 30.3894 0.0005 0.0001 0.0000
# 4 0.0001 0.0001 0.0005 27.5908 0.0000 -0.0004
# 5 0.0000 0.0000 0.0001 0.0000 0.3149 -0.0001
# 6 -0.0002 -0.0001 0.0000 -0.0004 -0.0001 128.5064
#
#
#
# Elastic Compliance Matrix: (Units=1/GPa)
#
#
# Indices 1 2 3 4 5 6 
#
# 1 0.025062 -0.011858 -0.003188 0.000000 0.000001 0.000000
# 2 -0.011858 0.012110 -0.001166 0.000000 0.000001 0.000000
# 3 -0.003188 -0.001166 0.034413 -0.000001 -0.000011 0.000000
# 4 0.000000 0.000000 -0.000001 0.036244 -0.000006 0.000000
# 5 0.000001 0.000001 -0.000011 -0.000006 3.175244 0.000002
# 6 0.000000 0.000000 0.000000 0.000000 0.000002 0.007782
#
#
# Mechanical properties :
#
#
# Convention : Reuss Voigt Hill
#
# Bulk Modulus (GPa) = 25.53655 51.67798 38.60726
# Shear Modulus (GPa) = 1.49865 42.46706 21.98286
#
# Velocity S-wave (km/s) = 0.85732 4.56371 3.28348
# Velocity P-wave (km/s) = 3.67479 7.28799 5.77143
#
# Compressibility (1/GPa) = 0.03915955
#
# Stress axis : x y z
#
# Youngs Moduli (GPa) = 39.90074 82.57441 29.05902
#
# Poissons Ratio (x) = 0.97917 0.09265
# Poissons Ratio (y) = 0.47314 0.03390
# Poissons Ratio (z) = 0.12722 0.09632
#
# Static dielectric constant tensor:
#      x y z
#    x 1.744220 0.000000 0.000000 
#    y 0.000000 1.800370 0.000000 
#    z 0.000000 0.000000 1.758410 
# 
# From -- ./inp_files/18745.got.cif
#   From: 2010.05.17/outbox.cif.g08.bks.cpg/sg24_10_cif.got.tgz:18745.got - 2010.06.04 00:33:39.
