data_PCOD9333125
_publ_section_title
;
Structure prediction by ZEFSAII (Michael W. Deem and Ramdas Pophale) SiO2 
 PCOD9333125
Probable space group: I 21 21 21
;
_chemical_formula_sum "Si O2"
_cell_formula_units_Z 64
_cell_length_a 22.140877
_cell_length_b 8.882699
_cell_length_c 17.516544
_cell_angle_alpha 90.000000
_cell_angle_beta 90.000000
_cell_angle_gamma 90.000000
_cell_volume 3444.991776
_symmetry_space_group_name_H-M "I 21 21 21"
_symmetry_group_IT_number 24
_symmetry_cell_setting 'orthorhombic'
loop_
_space_group_symop_operation_xyz
x,y,z
-x,1/2-y,z
x,-y,1/2-z
1/2-x,y,-z
1/2+x,1/2+y,1/2+z
1/2-x,-y,1/2+z
1/2+x,1/2-y,-z
-x,1/2+y,1/2-z
loop_
_atom_site_type_symbol
_atom_site_label
_atom_site_fract_x
_atom_site_fract_y
_atom_site_fract_z
Si Si1 0.650332 0.225651 0.806959
Si Si2 0.552881 0.662086 0.778198
Si Si3 0.153860 0.469309 0.427995
Si Si4 0.795167 0.358202 0.429238
Si Si5 0.731207 0.405577 0.182633
Si Si6 0.812114 0.220726 0.956734
Si Si7 0.098986 0.088824 0.051384
Si Si8 0.989063 0.089670 0.440250
O O1 0.608814 0.225462 0.731651
O O2 0.664956 0.076970 0.854837
O O3 0.710943 0.313381 0.786997
O O4 0.611142 0.319591 0.870244
O O5 0.500000 0.750000 0.733625
O O6 0.573395 0.500000 0.750000
O O7 0.521100 0.382470 0.642426
O O8 0.189348 0.315189 0.415262
O O9 0.176140 0.554725 0.506244
O O10 0.081520 0.443999 0.434365
O O11 0.750000 0.362733 0.500000
O O12 0.760884 0.462915 0.368669
O O13 0.859824 0.438933 0.442972
O O14 0.698974 0.500000 0.250000
O O15 0.697546 0.281709 0.129366
O O16 0.868926 0.311848 0.987911
O O17 0.750000 0.269177 0.000000
O O18 0.030740 0.046145 0.031355
O O19 0.000000 0.250000 0.481576
#
# Coordination Sequence:
#
# PCOD9333125 Si02
#       8
#     8   8   8   8   8   8   8   8
#     4  10  21  32  50  77 108 162 197 246 289 344
#     4  11  21  32  47  66 112 162 202 229 278 330
#     4  11  23  35  60  83 121 154 210 264 302 344
#     4  11  20  37  62  84 109 159 203 252 316 365
#     4  11  22  37  59  85 117 151 207 254 317 384
#     4  11  19  39  59  84 110 156 207 266 303 362
#     4  10  18  34  57  72 111 143 208 241 292 358
#     4  11  22  33  48  82 114 154 202 246 283 354
#
# _framework density 18.577694000000001
#
# number of rings (size 3 to 8) (size 9 to 14) (size 15 to 20)
#    0.000    1.250    7.500    1.500    1.750    1.500 
#    0.000    3.125    0.000    0.000    0.000    0.000 
#   11.250    0.000    0.000    0.000    0.000    0.000 
#
# Total GULP energy -178186.054183 kJ/mol
# GULP energy per Si atom -5568.314193 kJ/mol
# Density = 1.853541 g / cm^3
# Si number density = 18.577694 Si / 1000 Ang^3
#
#
#
# Elastic Constant Matrix: (Units=GPa)
#
#
# Indices 1 2 3 4 5 6 
#
# 1 61.1163 7.0981 21.9016 0.0000 0.0000 0.0000
# 2 7.0981 99.9088 10.1341 0.0000 0.0000 0.0000
# 3 21.9016 10.1341 46.6297 0.0000 0.0000 0.0000
# 4 0.0000 0.0000 0.0000 12.6023 0.0000 0.0000
# 5 0.0000 0.0000 0.0000 0.0000 19.6190 0.0000
# 6 0.0000 0.0000 0.0000 0.0000 0.0000 -7.9268
#
#
#
# Elastic Compliance Matrix: (Units=1/GPa)
#
#
# Indices 1 2 3 4 5 6 
#
# 1 0.019695 -0.000471 -0.009148 0.000000 0.000000 0.000000
# 2 -0.000471 0.010246 -0.002005 0.000000 0.000000 0.000000
# 3 -0.009148 -0.002005 0.026178 0.000000 0.000000 0.000000
# 4 0.000000 0.000000 0.000000 0.079351 0.000000 0.000000
# 5 0.000000 0.000000 0.000000 0.000000 0.050971 0.000000
# 6 0.000000 0.000000 0.000000 0.000000 0.000000 -0.126155
#
#
# Mechanical properties :
#
#
# Convention : Reuss Voigt Hill
#
# Bulk Modulus (GPa) = 30.42325 31.76914 31.09619
# Shear Modulus (GPa) = 52.91373 16.09363 34.50368
#
# Velocity S-wave (km/s) = 5.34268 2.94647 4.31427
# Velocity P-wave (km/s) = 7.38043 5.35849 6.44919
#
# Compressibility (1/GPa) = 0.03286960
#
# Stress axis : x y z
#
# Youngs Moduli (GPa) = 50.77335 97.59883 38.19956
#
# Poissons Ratio (x) = 0.04600 0.34946
# Poissons Ratio (y) = 0.02393 0.07661
# Poissons Ratio (z) = 0.46449 0.19573
#
# Static dielectric constant tensor:
#      x y z
#    x 1.700210 0.000000 0.000000 
#    y 0.000000 1.774990 0.000000 
#    z 0.000000 0.000000 2.082870 
# 
# From -- ./inp_files/14662.got.cif
#   From: 2010.05.17/outbox.cif.g08.bks.cpg/sg24_8_cif.got.tgz:14662.got - 2010.06.04 00:33:39.
