data_PCOD9333396
_publ_section_title
;
Structure prediction by ZEFSAII (Michael W. Deem and Ramdas Pophale) SiO2 
 PCOD9333396
Probable space group: I 21 21 21
;
_chemical_formula_sum "Si O2"
_cell_formula_units_Z 44
_cell_length_a 13.392001
_cell_length_b 5.167585
_cell_length_c 25.814293
_cell_angle_alpha 90.000000
_cell_angle_beta 90.000000
_cell_angle_gamma 90.000000
_cell_volume 1786.460167
_symmetry_space_group_name_H-M "I 21 21 21"
_symmetry_group_IT_number 24
_symmetry_cell_setting 'orthorhombic'
loop_
_space_group_symop_operation_xyz
x,y,z
-x,1/2-y,z
x,-y,1/2-z
1/2-x,y,-z
1/2+x,1/2+y,1/2+z
1/2-x,-y,1/2+z
1/2+x,1/2-y,-z
-x,1/2+y,1/2-z
loop_
_atom_site_type_symbol
_atom_site_label
_atom_site_fract_x
_atom_site_fract_y
_atom_site_fract_z
Si Si1 0.000000 0.250000 0.319251
Si Si2 0.630135 0.067592 0.429843
Si Si3 0.379379 0.904894 0.605717
Si Si4 0.131495 0.591567 0.044744
Si Si5 0.169687 0.500000 0.250000
Si Si6 0.144549 0.930464 0.634425
Si Si7 0.187640 0.000000 0.750000
O O1 0.058217 0.025923 0.348635
O O2 0.090682 0.402396 0.292247
O O3 0.590305 0.030025 0.487837
O O4 0.748832 0.068103 0.444992
O O5 0.608467 0.843095 0.388495
O O6 0.607920 0.340456 0.403045
O O7 0.390295 0.113607 0.559422
O O8 0.264570 0.915530 0.625122
O O9 0.404980 0.622346 0.585139
O O10 0.242655 0.745787 0.255990
O O11 0.128317 0.998005 0.695051
#
# Coordination Sequence:
#
# PCOD9333396 Si02
#       7
#     4   8   8   8   4   8   4
#     4  12  26  38  50  68  94 138 184 218 256 270
#     4   9  17  31  51  68  89 111 148 199 260 305
#     4  10  21  32  48  66  91 119 165 209 251 285
#     4   9  18  32  49  70  86 111 149 207 259 302
#     4  12  27  38  50  62  94 140 184 220 245 280
#     4  10  19  32  48  69  91 122 157 201 248 294
#     4  12  23  38  50  70  98 132 174 214 249 280
#
# _framework density 24.629711
#
# number of rings (size 3 to 8) (size 9 to 14) (size 15 to 20)
#    0.000    1.818    1.818    2.727    5.091    6.545 
#    0.000    0.000    0.000    0.000    0.000    0.000 
#    0.000    0.000    0.000    0.000    0.000   50.909 
#
# Total GULP energy -123032.027853 kJ/mol
# GULP energy per Si atom -5592.364902 kJ/mol
# Density = 2.457365 g / cm^3
# Si number density = 24.629711 Si / 1000 Ang^3
#
#
#
# Elastic Constant Matrix: (Units=GPa)
#
#
# Indices 1 2 3 4 5 6 
#
# 1 41.1020 3.1710 -12.7985 0.0000 0.0000 0.0000
# 2 3.1710 141.3008 33.2593 0.0000 0.0000 0.0000
# 3 -12.7985 33.2593 140.4146 0.0000 0.0000 0.0000
# 4 0.0000 0.0000 0.0000 26.3173 0.0000 0.0000
# 5 0.0000 0.0000 0.0000 0.0000 10.9014 0.0000
# 6 0.0000 0.0000 0.0000 0.0000 0.0000 23.8490
#
#
#
# Elastic Compliance Matrix: (Units=1/GPa)
#
#
# Indices 1 2 3 4 5 6 
#
# 1 0.025223 -0.001173 0.002577 0.000000 0.000000 0.000000
# 2 -0.001173 0.007549 -0.001895 0.000000 0.000000 0.000000
# 3 0.002577 -0.001895 0.007806 0.000000 0.000000 0.000000
# 4 0.000000 0.000000 0.000000 0.037998 0.000000 0.000000
# 5 0.000000 0.000000 0.000000 0.000000 0.091732 0.000000
# 6 0.000000 0.000000 0.000000 0.000000 0.000000 0.041930
#
#
# Mechanical properties :
#
#
# Convention : Reuss Voigt Hill
#
# Bulk Modulus (GPa) = 25.25528 41.12012 33.18770
# Shear Modulus (GPa) = 22.08309 32.15925 27.12117
#
# Velocity S-wave (km/s) = 2.99758 3.61738 3.32197
# Velocity P-wave (km/s) = 4.71772 5.84627 5.31205
#
# Compressibility (1/GPa) = 0.03959569
#
# Stress axis : x y z
#
# Youngs Moduli (GPa) = 39.64710 132.45946 128.11469
#
# Poissons Ratio (x) = 0.15531 -0.33011
# Poissons Ratio (y) = 0.04649 0.24279
# Poissons Ratio (z) = -0.10216 0.25102
#
# Static dielectric constant tensor:
#      x y z
#    x 2.065650 0.000000 0.000000 
#    y 0.000000 1.907370 0.000000 
#    z 0.000000 0.000000 1.978720 
# 
# From -- ./inp_files/32115.got.cif
#   From: 2010.05.17/outbox.cif.g08.bks.cpg/sg24_17_cif.got.tgz:32115.got - 2010.06.04 00:33:39.
