data_PCOD9333750
_publ_section_title
;
Structure prediction by ZEFSAII (Michael W. Deem and Ramdas Pophale) SiO2 
 PCOD9333750
Probable space group: I 21 21 21
;
_chemical_formula_sum "Si O2"
_cell_formula_units_Z 32
_cell_length_a 12.831517
_cell_length_b 13.052189
_cell_length_c 6.936540
_cell_angle_alpha 90.000000
_cell_angle_beta 90.000000
_cell_angle_gamma 90.000000
_cell_volume 1161.727454
_symmetry_space_group_name_H-M "I 21 21 21"
_symmetry_group_IT_number 24
_symmetry_cell_setting 'orthorhombic'
loop_
_space_group_symop_operation_xyz
x,y,z
-x,1/2-y,z
x,-y,1/2-z
1/2-x,y,-z
1/2+x,1/2+y,1/2+z
1/2-x,-y,1/2+z
1/2+x,1/2-y,-z
-x,1/2+y,1/2-z
loop_
_atom_site_type_symbol
_atom_site_label
_atom_site_fract_x
_atom_site_fract_y
_atom_site_fract_z
Si Si1 0.750000 0.363948 0.500000
Si Si2 0.415569 0.638058 0.344753
Si Si3 0.750000 0.978945 0.000000
Si Si4 0.897918 0.193545 0.395632
Si Si5 0.353305 0.871930 0.382303
O O1 0.820207 0.288241 0.375547
O O2 0.828401 0.405149 0.660654
O O3 0.335208 0.553374 0.409141
O O4 0.369749 0.748421 0.407707
O O5 0.526986 0.599014 0.426511
O O6 0.428844 0.661251 0.115821
O O7 0.680288 0.902564 0.860979
O O8 0.000000 0.250000 0.309037
O O9 0.250000 0.904458 0.500000
#
# Coordination Sequence:
#
# PCOD9333750 Si02
#       5
#     4   8   4   8   8
#     4   9  18  36  62  90 127 188 235 272 360 454
#     4  10  19  38  59  97 145 176 241 314 355 430
#     4  11  22  34  68 100 129 192 245 292 370 436
#     4  10  19  38  62  95 137 183 233 300 370 438
#     4  10  19  37  64  94 142 190 243 291 380 441
#
# _framework density 27.545188
#
# number of rings (size 3 to 8) (size 9 to 14) (size 15 to 20)
#    0.000    2.000    6.250    0.750    0.000    0.000 
#    4.500    0.000    5.500    0.000    0.000    0.000 
#    0.000    0.000    0.000    0.000    0.000    0.000 
#
# Total GULP energy -89140.030366 kJ/mol
# GULP energy per Si atom -5571.251898 kJ/mol
# Density = 2.748249 g / cm^3
# Si number density = 27.545188 Si / 1000 Ang^3
#
#
#
# Elastic Constant Matrix: (Units=GPa)
#
#
# Indices 1 2 3 4 5 6 
#
# 1 301.0356 81.2271 50.0388 0.0000 0.0000 0.0000
# 2 81.2271 130.6008 25.2248 0.0000 0.0000 0.0000
# 3 50.0388 25.2248 96.5485 0.0000 0.0000 0.0000
# 4 0.0000 0.0000 0.0000 39.1205 0.0000 0.0000
# 5 0.0000 0.0000 0.0000 0.0000 31.6652 0.0000
# 6 0.0000 0.0000 0.0000 0.0000 0.0000 47.2048
#
#
#
# Elastic Compliance Matrix: (Units=1/GPa)
#
#
# Indices 1 2 3 4 5 6 
#
# 1 0.004208 -0.002313 -0.001577 0.000000 0.000000 0.000000
# 2 -0.002313 0.009335 -0.001240 0.000000 0.000000 0.000000
# 3 -0.001577 -0.001240 0.011499 0.000000 0.000000 0.000000
# 4 0.000000 0.000000 0.000000 0.025562 0.000000 0.000000
# 5 0.000000 0.000000 0.000000 0.000000 0.031580 0.000000
# 6 0.000000 0.000000 0.000000 0.000000 0.000000 0.021184
#
#
# Mechanical properties :
#
#
# Convention : Reuss Voigt Hill
#
# Bulk Modulus (GPa) = 67.64850 93.46293 80.55572
# Shear Modulus (GPa) = 42.17460 48.37770 45.27615
#
# Velocity S-wave (km/s) = 3.91718 4.19537 4.05866
# Velocity P-wave (km/s) = 6.71353 7.58107 7.16045
#
# Compressibility (1/GPa) = 0.01478229
#
# Stress axis : x y z
#
# Youngs Moduli (GPa) = 237.64569 107.12602 86.96639
#
# Poissons Ratio (x) = 0.24774 0.13712
# Poissons Ratio (y) = 0.54958 0.10786
# Poissons Ratio (z) = 0.37469 0.13287
#
# Static dielectric constant tensor:
#      x y z
#    x 2.418790 0.000000 0.000000 
#    y 0.000000 2.225680 0.000000 
#    z 0.000000 0.000000 2.384640 
# 
# From -- ./inp_files/10419.got.cif
#   From: 2010.05.17/outbox.cif.g08.bks.cpg/sg24_6_cif.got.tgz:10419.got - 2010.06.04 00:33:39.
