data_PCOD9333276
_publ_section_title
;
Structure prediction by ZEFSAII (Michael W. Deem and Ramdas Pophale) SiO2 
 PCOD9333276
Probable space group: I 21 21 21
;
_chemical_formula_sum "Si O2"
_cell_formula_units_Z 40
_cell_length_a 11.325654
_cell_length_b 8.731759
_cell_length_c 19.081816
_cell_angle_alpha 90.000000
_cell_angle_beta 90.000000
_cell_angle_gamma 90.000000
_cell_volume 1887.055764
_symmetry_space_group_name_H-M "I 21 21 21"
_symmetry_group_IT_number 24
_symmetry_cell_setting 'orthorhombic'
loop_
_space_group_symop_operation_xyz
x,y,z
-x,1/2-y,z
x,-y,1/2-z
1/2-x,y,-z
1/2+x,1/2+y,1/2+z
1/2-x,-y,1/2+z
1/2+x,1/2-y,-z
-x,1/2+y,1/2-z
loop_
_atom_site_type_symbol
_atom_site_label
_atom_site_fract_x
_atom_site_fract_y
_atom_site_fract_z
Si Si1 0.433457 0.412707 0.178244
Si Si2 0.466110 0.577058 0.820740
Si Si3 0.640903 0.397604 0.910649
Si Si4 0.420770 0.089944 0.059808
Si Si5 0.706123 0.937112 0.580818
O O1 0.500000 0.250000 0.192873
O O2 0.417009 0.500000 0.250000
O O3 0.516688 0.499835 0.122114
O O4 0.312682 0.403051 0.134573
O O5 0.500000 0.750000 0.806184
O O6 0.417730 0.500000 0.750000
O O7 0.580862 0.479932 0.845579
O O8 0.370659 0.569264 0.883527
O O9 0.783145 0.404380 0.918691
O O10 0.625347 0.214562 0.914818
O O11 0.583717 0.469029 0.980967
O O12 0.500000 0.250000 0.056787
O O13 0.750000 0.956227 0.500000
#
# Coordination Sequence:
#
# PCOD9333276 Si02
#       5
#     8   8   8   8   8
#     4  11  22  40  60  97 135 170 211 265 335 407
#     4  12  28  48  66 100 141 183 235 291 344 407
#     4  11  20  39  77  98 129 176 228 284 335 406
#     4  10  18  38  65 104 130 168 227 265 329 410
#     4  12  21  44  75 101 132 176 229 284 339 412
#
# _framework density 21.197043000000001
#
# number of rings (size 3 to 8) (size 9 to 14) (size 15 to 20)
#    0.000    0.800    6.000    4.800    0.000    0.800 
#   10.800    2.000    0.000    0.000    0.000    0.000 
#    0.000    0.000    0.000    0.000    0.000    0.000 
#
# Total GULP energy -111427.478201 kJ/mol
# GULP energy per Si atom -5571.373910 kJ/mol
# Density = 2.114880 g / cm^3
# Si number density = 21.197043 Si / 1000 Ang^3
#
#
#
# Elastic Constant Matrix: (Units=GPa)
#
#
# Indices 1 2 3 4 5 6 
#
# 1 113.5850 20.0422 57.0526 0.0000 0.0000 0.0000
# 2 20.0422 59.4719 42.7566 0.0000 0.0000 0.0000
# 3 57.0526 42.7566 167.1949 0.0000 0.0000 0.0000
# 4 0.0000 0.0000 0.0000 21.4917 0.0000 0.0000
# 5 0.0000 0.0000 0.0000 0.0000 37.6746 0.0000
# 6 0.0000 0.0000 0.0000 0.0000 0.0000 15.9707
#
#
#
# Elastic Compliance Matrix: (Units=1/GPa)
#
#
# Indices 1 2 3 4 5 6 
#
# 1 0.010695 -0.001201 -0.003342 0.000000 0.000000 0.000000
# 2 -0.001201 0.020737 -0.004893 0.000000 0.000000 0.000000
# 3 -0.003342 -0.004893 0.008373 0.000000 0.000000 0.000000
# 4 0.000000 0.000000 0.000000 0.046530 0.000000 0.000000
# 5 0.000000 0.000000 0.000000 0.000000 0.026543 0.000000
# 6 0.000000 0.000000 0.000000 0.000000 0.000000 0.062615
#
#
# Mechanical properties :
#
#
# Convention : Reuss Voigt Hill
#
# Bulk Modulus (GPa) = 47.77487 64.43939 56.10713
# Shear Modulus (GPa) = 24.83326 29.72076 27.27701
#
# Velocity S-wave (km/s) = 3.42650 3.74855 3.59113
# Velocity P-wave (km/s) = 6.18400 7.01439 6.61224
#
# Compressibility (1/GPa) = 0.02093151
#
# Stress axis : x y z
#
# Youngs Moduli (GPa) = 93.50430 48.22201 119.43360
#
# Poissons Ratio (x) = 0.05793 0.39917
# Poissons Ratio (y) = 0.11233 0.58442
# Poissons Ratio (z) = 0.31251 0.23596
#
# Static dielectric constant tensor:
#      x y z
#    x 1.889050 0.000000 0.000000 
#    y 0.000000 1.807110 0.000000 
#    z 0.000000 0.000000 1.799220 
# 
# From -- ./inp_files/33239.got.cif
#   From: 2010.05.17/outbox.cif.g08.bks.cpg/sg24_17_cif.got.tgz:33239.got - 2010.06.04 00:33:39.
