data_PCOD9333030
_publ_section_title
;
Structure prediction by ZEFSAII (Michael W. Deem and Ramdas Pophale) SiO2 
 PCOD9333030
Probable space group: I 21 21 21
;
_chemical_formula_sum "Si O2"
_cell_formula_units_Z 60
_cell_length_a 10.512715
_cell_length_b 24.899217
_cell_length_c 13.105628
_cell_angle_alpha 90.000000
_cell_angle_beta 90.000000
_cell_angle_gamma 90.000000
_cell_volume 3430.507850
_symmetry_space_group_name_H-M "I 21 21 21"
_symmetry_group_IT_number 24
_symmetry_cell_setting 'orthorhombic'
loop_
_space_group_symop_operation_xyz
x,y,z
-x,1/2-y,z
x,-y,1/2-z
1/2-x,y,-z
1/2+x,1/2+y,1/2+z
1/2-x,-y,1/2+z
1/2+x,1/2-y,-z
-x,1/2+y,1/2-z
loop_
_atom_site_type_symbol
_atom_site_label
_atom_site_fract_x
_atom_site_fract_y
_atom_site_fract_z
Si Si1 0.949257 0.000000 0.250000
Si Si2 0.078076 0.673554 0.334055
Si Si3 0.372588 0.565947 0.561108
Si Si4 0.180554 0.126426 0.758054
Si Si5 0.376923 0.961144 0.431707
Si Si6 0.042034 0.892468 0.161358
Si Si7 0.889011 0.412158 0.554582
Si Si8 0.798739 0.282907 0.115509
O O1 0.874643 0.969370 0.337139
O O2 0.029081 0.954267 0.194764
O O3 0.134826 0.627524 0.405015
O O4 0.052258 0.646366 0.223807
O O5 0.167924 0.725384 0.334917
O O6 0.937662 0.688258 0.378615
O O7 0.250000 0.549514 0.500000
O O8 0.501949 0.557939 0.497437
O O9 0.146339 0.076989 0.833639
O O10 0.319359 0.121479 0.705504
O O11 0.093993 0.122372 0.657080
O O12 0.196486 0.180490 0.824134
O O13 0.250000 0.955783 0.500000
O O14 0.398034 0.024956 0.413983
O O15 0.024637 0.893080 0.039886
O O16 0.750000 0.407213 0.500000
O O17 0.750000 0.276923 0.000000
#
# Coordination Sequence:
#
# PCOD9333030 Si02
#       8
#     4   8   8   8   8   8   8   8
#     4  10  18  34  52  68 104 148 178 210 262 334
#     4   9  19  32  54  76 101 144 186 224 274 334
#     4  11  22  36  52  77 110 147 186 221 271 334
#     4  10  19  28  48  82 115 138 173 234 290 332
#     4  11  19  32  53  81 114 145 183 225 284 340
#     4   9  17  31  51  77 106 144 186 222 265 342
#     4   9  18  28  47  78 111 145 174 223 279 337
#     4  10  18  32  51  80 109 136 180 237 288 331
#
# _framework density 17.490123000000001
#
# number of rings (size 3 to 8) (size 9 to 14) (size 15 to 20)
#    0.000    2.133    1.333    4.400    3.733    0.000 
#    2.400    0.000    0.000    0.000    0.000   84.000 
#    0.000    0.000    0.000    0.000    0.000    0.000 
#
# Total GULP energy -167027.436758 kJ/mol
# GULP energy per Si atom -5567.581225 kJ/mol
# Density = 1.745031 g / cm^3
# Si number density = 17.490123 Si / 1000 Ang^3
#
#
#
# Elastic Constant Matrix: (Units=GPa)
#
#
# Indices 1 2 3 4 5 6 
#
# 1 32.8064 6.4427 24.8442 0.0000 0.0000 -0.0001
# 2 6.4427 77.0339 48.2132 -0.0001 0.0000 -0.0002
# 3 24.8442 48.2132 131.3529 -0.0001 0.0000 0.0010
# 4 0.0000 -0.0001 -0.0001 16.0682 0.0000 0.0007
# 5 0.0000 0.0000 0.0000 0.0000 4.9927 -0.0003
# 6 -0.0001 -0.0002 0.0010 0.0007 -0.0003 -77.1624
#
#
#
# Elastic Compliance Matrix: (Units=1/GPa)
#
#
# Indices 1 2 3 4 5 6 
#
# 1 0.035731 0.001612 -0.007350 0.000000 0.000000 0.000000
# 2 0.001612 0.016926 -0.006517 0.000000 0.000000 0.000000
# 3 -0.007350 -0.006517 0.011395 0.000000 0.000000 0.000000
# 4 0.000000 0.000000 0.000000 0.062235 0.000000 0.000001
# 5 0.000000 0.000000 0.000000 0.000000 0.200294 -0.000001
# 6 0.000000 0.000000 0.000000 0.000001 -0.000001 -0.012960
#
#
# Mechanical properties :
#
#
# Convention : Reuss Voigt Hill
#
# Bulk Modulus (GPa) = 25.29004 44.46594 34.87799
# Shear Modulus (GPa) = 14.23233 -0.44078 6.89578
#
# Velocity S-wave (km/s) = 2.85570 -0.50256 1.98777
# Velocity P-wave (km/s) = 5.03630 5.01417 5.02525
#
# Compressibility (1/GPa) = 0.03954126
#
# Stress axis : x y z
#
# Youngs Moduli (GPa) = 27.98660 59.08237 87.75453
#
# Poissons Ratio (x) = -0.09522 0.64498
# Poissons Ratio (y) = -0.04510 0.57193
# Poissons Ratio (z) = 0.20570 0.38506
#
# Static dielectric constant tensor:
#      x y z
#    x 1.593330 0.000000 0.000000 
#    y 0.000000 1.614100 0.000000 
#    z 0.000000 0.000000 2.814320 
# 
# From -- ./inp_files/25192.got.cif
#   From: 2010.05.17/outbox.cif.g08.bks.cpg/sg24_13_cif.got.tgz:25192.got - 2010.06.04 00:33:39.
