data_PCOD9333686
_publ_section_title
;
Structure prediction by ZEFSAII (Michael W. Deem and Ramdas Pophale) SiO2 
 PCOD9333686
Probable space group: I 21 21 21
;
_chemical_formula_sum "Si O2"
_cell_formula_units_Z 64
_cell_length_a 12.936641
_cell_length_b 15.373876
_cell_length_c 16.019248
_cell_angle_alpha 90.000000
_cell_angle_beta 90.000000
_cell_angle_gamma 90.000000
_cell_volume 3186.009197
_symmetry_space_group_name_H-M "I 21 21 21"
_symmetry_group_IT_number 24
_symmetry_cell_setting 'orthorhombic'
loop_
_space_group_symop_operation_xyz
x,y,z
-x,1/2-y,z
x,-y,1/2-z
1/2-x,y,-z
1/2+x,1/2+y,1/2+z
1/2-x,-y,1/2+z
1/2+x,1/2-y,-z
-x,1/2+y,1/2-z
loop_
_atom_site_type_symbol
_atom_site_label
_atom_site_fract_x
_atom_site_fract_y
_atom_site_fract_z
Si Si1 0.423710 0.182994 0.790934
Si Si2 0.561187 0.092102 0.211422
Si Si3 0.060163 0.144331 0.397986
Si Si4 0.839867 0.171366 0.432393
Si Si5 0.070538 0.829102 0.863229
Si Si6 0.836726 0.535398 0.395828
Si Si7 0.394044 0.024146 0.083866
Si Si8 0.733409 0.212483 0.270434
O O1 0.500000 0.250000 0.835505
O O2 0.466175 0.165629 0.698194
O O3 0.405426 0.092904 0.835788
O O4 0.315817 0.232776 0.780560
O O5 0.488240 0.136243 0.281027
O O6 0.490208 0.068984 0.131302
O O7 0.658258 0.157146 0.210838
O O8 0.595676 0.000000 0.250000
O O9 0.119812 0.228178 0.434269
O O10 0.950047 0.122654 0.441057
O O11 0.137951 0.065595 0.391987
O O12 0.750000 0.156005 0.500000
O O13 0.791488 0.154912 0.340765
O O14 0.170691 0.780104 0.828884
O O15 0.000000 0.750000 0.899994
O O16 0.092119 0.918158 0.913810
O O17 0.870978 0.556941 0.490575
O O18 0.716068 0.545438 0.373045
#
# Coordination Sequence:
#
# PCOD9333686 Si02
#       8
#     8   8   8   8   8   8   8   8
#     4  11  21  43  61  82 111 160 227 256 290 364
#     4   9  19  36  57  90 127 155 195 246 306 388
#     4  10  21  40  61  91 124 164 203 249 302 391
#     4  10  21  36  59  94 133 158 191 247 312 383
#     4   9  18  32  59  89 122 157 186 232 313 387
#     4  11  24  37  64  86 117 164 205 264 308 354
#     4  10  21  39  57  95 124 153 203 259 313 369
#     4  10  19  36  61  89 115 167 197 247 311 369
#
# _framework density 20.087826
#
# number of rings (size 3 to 8) (size 9 to 14) (size 15 to 20)
#    0.000    2.000    2.500    2.625    3.500    5.000 
#    4.500    4.375    0.000    0.000    0.000    0.000 
#    0.000    0.000    0.000    0.000    0.000    0.000 
#
# Total GULP energy -178452.586675 kJ/mol
# GULP energy per Si atom -5576.643334 kJ/mol
# Density = 2.004211 g / cm^3
# Si number density = 20.087826 Si / 1000 Ang^3
#
#
#
# Elastic Constant Matrix: (Units=GPa)
#
#
# Indices 1 2 3 4 5 6 
#
# 1 113.7107 24.6647 24.9225 0.0000 0.0000 0.0000
# 2 24.6647 36.3943 24.0933 0.0000 0.0000 0.0000
# 3 24.9225 24.0933 49.3107 0.0000 0.0000 0.0000
# 4 0.0000 0.0000 0.0000 3.1997 0.0000 0.0000
# 5 0.0000 0.0000 0.0000 0.0000 26.2023 0.0000
# 6 0.0000 0.0000 0.0000 0.0000 0.0000 29.3205
#
#
#
# Elastic Compliance Matrix: (Units=1/GPa)
#
#
# Indices 1 2 3 4 5 6 
#
# 1 0.010551 -0.005351 -0.002718 0.000000 0.000000 0.000000
# 2 -0.005351 0.043327 -0.018465 0.000000 0.000000 0.000000
# 3 -0.002718 -0.018465 0.030676 0.000000 0.000000 0.000000
# 4 0.000000 0.000000 0.000000 0.312529 0.000000 0.000000
# 5 0.000000 0.000000 0.000000 0.000000 0.038165 0.000000
# 6 0.000000 0.000000 0.000000 0.000000 0.000000 0.034106
#
#
# Mechanical properties :
#
#
# Convention : Reuss Voigt Hill
#
# Bulk Modulus (GPa) = 31.76122 38.53074 35.14598
# Shear Modulus (GPa) = 9.38234 20.12686 14.75460
#
# Velocity S-wave (km/s) = 2.16351 3.16878 2.71311
# Velocity P-wave (km/s) = 4.69963 5.71061 5.22961
#
# Compressibility (1/GPa) = 0.03148493
#
# Stress axis : x y z
#
# Youngs Moduli (GPa) = 94.78123 23.08007 32.59919
#
# Poissons Ratio (x) = 0.12350 0.08861
# Poissons Ratio (y) = 0.50716 0.60196
# Poissons Ratio (z) = 0.25762 0.42618
#
# Static dielectric constant tensor:
#      x y z
#    x 1.743460 0.000000 0.000000 
#    y 0.000000 1.738600 0.000000 
#    z 0.000000 0.000000 1.757920 
# 
# From -- ./inp_files/30357.got.cif
#   From: 2010.05.17/outbox.cif.g08.bks.cpg/sg24_16_cif.got.tgz:30357.got - 2010.06.04 00:33:39.
