data_PCOD9333891
_publ_section_title
;
Structure prediction by ZEFSAII (Michael W. Deem and Ramdas Pophale) SiO2 
 PCOD9333891
Probable space group: I 21 21 21
;
_chemical_formula_sum "Si O2"
_cell_formula_units_Z 56
_cell_length_a 5.774869
_cell_length_b 32.223447
_cell_length_c 15.857007
_cell_angle_alpha 90.000000
_cell_angle_beta 90.000000
_cell_angle_gamma 90.000000
_cell_volume 2950.769941
_symmetry_space_group_name_H-M "I 21 21 21"
_symmetry_group_IT_number 24
_symmetry_cell_setting 'orthorhombic'
loop_
_space_group_symop_operation_xyz
x,y,z
-x,1/2-y,z
x,-y,1/2-z
1/2-x,y,-z
1/2+x,1/2+y,1/2+z
1/2-x,-y,1/2+z
1/2+x,1/2-y,-z
-x,1/2+y,1/2-z
loop_
_atom_site_type_symbol
_atom_site_label
_atom_site_fract_x
_atom_site_fract_y
_atom_site_fract_z
Si Si1 0.216247 0.630106 0.250256
Si Si2 0.112671 0.137759 0.608016
Si Si3 0.508142 0.934880 0.339946
Si Si4 0.750000 0.824425 0.000000
Si Si5 0.357184 0.497883 0.583311
Si Si6 0.161197 0.065718 0.314129
Si Si7 0.010463 0.298035 0.333947
Si Si8 0.750000 0.554722 0.500000
O O1 0.410695 0.632167 0.177509
O O2 0.339294 0.605996 0.324858
O O3 0.009289 0.599179 0.227143
O O4 0.111390 0.675880 0.244751
O O5 0.229073 0.092609 0.610052
O O6 0.281590 0.175680 0.636900
O O7 0.975515 0.148875 0.523589
O O8 0.354299 0.945238 0.256531
O O9 0.347576 0.923108 0.418401
O O10 0.666739 0.974255 0.367265
O O11 0.679264 0.799691 0.916366
O O12 0.250000 0.475151 0.500000
O O13 0.501743 0.470291 0.648602
O O14 0.542864 0.527666 0.538819
O O15 0.000000 0.250000 0.312408
#
# Coordination Sequence:
#
# PCOD9333891 Si02
#       8
#     8   8   8   4   8   8   8   4
#     4   9  20  37  55  83 106 152 196 245 292 362
#     4   9  20  37  51  78 109 151 206 247 286 349
#     4  10  21  38  62  79 115 150 200 254 306 371
#     4  10  20  32  50  75 108 154 210 243 294 334
#     4  10  23  40  56  87 117 155 207 258 310 359
#     4  10  21  40  59  82 112 164 202 247 307 361
#     4  10  21  35  54  79 115 153 198 245 294 347
#     4  10  22  38  54  87 112 150 186 265 304 366
#
# _framework density 18.978097999999999
#
# number of rings (size 3 to 8) (size 9 to 14) (size 15 to 20)
#    0.000    2.286    0.000    1.286    2.000    9.714 
#   21.857    0.000    3.143    0.000    0.000    0.000 
#    0.000    0.000  765.000    0.000    0.000    0.000 
#
# Total GULP energy -155991.987867 kJ/mol
# GULP energy per Si atom -5571.142424 kJ/mol
# Density = 1.893490 g / cm^3
# Si number density = 18.978098 Si / 1000 Ang^3
#
#
#
# Elastic Constant Matrix: (Units=GPa)
#
#
# Indices 1 2 3 4 5 6 
#
# 1 85.7414 44.6023 33.3232 0.0000 0.0000 0.0000
# 2 44.6023 104.7697 61.4046 0.0000 0.0000 0.0000
# 3 33.3232 61.4046 76.6663 0.0000 0.0000 0.0000
# 4 0.0000 0.0000 0.0000 13.0371 0.0000 0.0000
# 5 0.0000 0.0000 0.0000 0.0000 45.6543 0.0000
# 6 0.0000 0.0000 0.0000 0.0000 0.0000 21.2856
#
#
#
# Elastic Compliance Matrix: (Units=1/GPa)
#
#
# Indices 1 2 3 4 5 6 
#
# 1 0.015271 -0.004921 -0.002696 0.000000 0.000000 0.000000
# 2 -0.004921 0.019575 -0.013539 0.000000 0.000000 0.000000
# 3 -0.002696 -0.013539 0.025060 0.000000 0.000000 0.000000
# 4 0.000000 0.000000 0.000000 0.076704 0.000000 0.000000
# 5 0.000000 0.000000 0.000000 0.000000 0.021904 0.000000
# 6 0.000000 0.000000 0.000000 0.000000 0.000000 0.046980
#
#
# Mechanical properties :
#
#
# Convention : Reuss Voigt Hill
#
# Bulk Modulus (GPa) = 56.84264 60.64863 58.74563
# Shear Modulus (GPa) = 19.71068 24.51858 22.11463
#
# Velocity S-wave (km/s) = 3.22623 3.59826 3.41731
# Velocity P-wave (km/s) = 6.62532 7.02067 6.82586
#
# Compressibility (1/GPa) = 0.01759243
#
# Stress axis : x y z
#
# Youngs Moduli (GPa) = 65.48535 51.08583 39.90489
#
# Poissons Ratio (x) = 0.25138 0.10759
# Poissons Ratio (y) = 0.32224 0.54029
# Poissons Ratio (z) = 0.17656 0.69167
#
# Static dielectric constant tensor:
#      x y z
#    x 1.770900 0.000000 0.000000 
#    y 0.000000 1.664730 0.000000 
#    z 0.000000 0.000000 1.688290 
# 
# From -- ./inp_files/24129.got.cif
#   From: 2010.05.17/outbox.cif.g08.bks.cpg/sg24_13_cif.got.tgz:24129.got - 2010.06.04 00:33:39.
