data_PCOD9333318
_publ_section_title
;
Structure prediction by ZEFSAII (Michael W. Deem and Ramdas Pophale) SiO2 
 PCOD9333318
Probable space group: I 21 21 21
;
_chemical_formula_sum "Si O2"
_cell_formula_units_Z 40
_cell_length_a 12.436130
_cell_length_b 4.954347
_cell_length_c 25.626416
_cell_angle_alpha 90.000000
_cell_angle_beta 90.000000
_cell_angle_gamma 90.000000
_cell_volume 1578.917892
_symmetry_space_group_name_H-M "I 21 21 21"
_symmetry_group_IT_number 24
_symmetry_cell_setting 'orthorhombic'
loop_
_space_group_symop_operation_xyz
x,y,z
-x,1/2-y,z
x,-y,1/2-z
1/2-x,y,-z
1/2+x,1/2+y,1/2+z
1/2-x,-y,1/2+z
1/2+x,1/2-y,-z
-x,1/2+y,1/2-z
loop_
_atom_site_type_symbol
_atom_site_label
_atom_site_fract_x
_atom_site_fract_y
_atom_site_fract_z
Si Si1 0.500000 0.750000 0.828876
Si Si2 0.500000 0.250000 0.500000
Si Si3 0.328406 0.500000 0.750000
Si Si4 0.250000 0.250001 0.000000
Si Si5 0.359340 0.366308 0.416655
Si Si6 0.500000 0.750000 0.171124
Si Si7 0.140660 0.133689 0.416655
Si Si8 0.828406 0.500000 0.750000
O O1 0.410845 0.599462 0.794740
O O2 0.565627 0.557826 0.868708
O O3 0.417915 0.146033 0.454839
O O4 0.417915 0.353965 0.545161
O O5 0.250000 0.250000 0.764273
O O6 0.323936 0.417071 0.040660
O O7 0.176064 0.082932 0.040660
O O8 0.434373 0.442173 0.368708
O O9 0.250000 0.249998 0.393906
O O10 0.589155 0.599462 0.205260
#
# Coordination Sequence:
#
# PCOD9333318 Si02
#       8
#     4   4   4   4   8   4   8   4
#     4  11  28  55  84 122 166 223 292 349 458 506
#     4  10  18  42  64  90 162 196 258 312 392 480
#     4  12  28  62  92 124 178 222 292 386 438 530
#     4  12  22  46  76 110 166 212 266 342 406 502
#     4  11  23  47  70 114 160 214 273 341 409 513
#     4  11  28  55  84 122 166 223 292 349 458 506
#     4  11  23  47  70 114 160 214 273 341 409 513
#     4  12  28  62  92 124 178 222 292 386 438 530
#
# _framework density 25.333803
#
# number of rings (size 3 to 8) (size 9 to 14) (size 15 to 20)
#    0.000    0.800    4.000    2.400    0.000    0.800 
#   36.000    0.000    0.000    0.000    0.000    0.000 
#    0.000    0.000    0.000    0.000    0.000    0.000 
#
# Total GULP energy -111336.757428 kJ/mol
# GULP energy per Si atom -5566.837871 kJ/mol
# Density = 2.527614 g / cm^3
# Si number density = 25.333803 Si / 1000 Ang^3
#
#
#
# Elastic Constant Matrix: (Units=GPa)
#
#
# Indices 1 2 3 4 5 6 
#
# 1 196.4495 67.1570 122.0769 0.0000 0.0000 0.0000
# 2 67.1570 109.2536 63.1186 0.0000 0.0000 0.0000
# 3 122.0769 63.1186 202.2820 0.0000 0.0000 0.0000
# 4 0.0000 0.0000 0.0000 -10.4934 0.0000 0.0000
# 5 0.0000 0.0000 0.0000 0.0000 78.0323 0.0000
# 6 0.0000 0.0000 0.0000 0.0000 0.0000 20.3348
#
#
#
# Elastic Compliance Matrix: (Units=1/GPa)
#
#
# Indices 1 2 3 4 5 6 
#
# 1 0.008823 -0.002863 -0.004431 0.000000 0.000000 0.000000
# 2 -0.002863 0.012095 -0.002046 0.000000 0.000000 0.000000
# 3 -0.004431 -0.002046 0.008256 0.000000 0.000000 0.000000
# 4 0.000000 0.000000 0.000000 -0.095298 0.000000 0.000000
# 5 0.000000 0.000000 0.000000 0.000000 0.012815 0.000000
# 6 0.000000 0.000000 0.000000 0.000000 0.000000 0.049177
#
#
# Mechanical properties :
#
#
# Convention : Reuss Voigt Hill
#
# Bulk Modulus (GPa) = 95.30023 112.52114 103.91069
# Shear Modulus (GPa) = 277.06135 34.61691 155.83913
#
# Velocity S-wave (km/s) = 10.46908 3.70054 7.85161
# Velocity P-wave (km/s) = 13.55858 7.92278 11.10418
#
# Compressibility (1/GPa) = 0.01049315
#
# Stress axis : x y z
#
# Youngs Moduli (GPa) = 113.34361 82.67791 121.12144
#
# Poissons Ratio (x) = 0.23673 0.53670
# Poissons Ratio (y) = 0.32454 0.24782
# Poissons Ratio (z) = 0.50223 0.16917
#
# Static dielectric constant tensor:
#      x y z
#    x 2.198190 0.000000 0.000000 
#    y 0.000000 2.086900 0.000000 
#    z 0.000000 0.000000 1.938890 
# 
# From -- ./inp_files/36377.got.cif
#   From: 2010.05.17/outbox.cif.g08.bks.cpg/sg24_19_cif.got.tgz:36377.got - 2010.06.04 00:33:39.
