data_PCOD9333761
_publ_section_title
;
Structure prediction by ZEFSAII (Michael W. Deem and Ramdas Pophale) SiO2 
 PCOD9333761
Probable space group: I 21 21 21
;
_chemical_formula_sum "Si O2"
_cell_formula_units_Z 48
_cell_length_a 18.286277
_cell_length_b 5.142499
_cell_length_c 25.562224
_cell_angle_alpha 90.000000
_cell_angle_beta 90.000000
_cell_angle_gamma 90.000000
_cell_volume 2403.798979
_symmetry_space_group_name_H-M "I 21 21 21"
_symmetry_group_IT_number 24
_symmetry_cell_setting 'orthorhombic'
loop_
_space_group_symop_operation_xyz
x,y,z
-x,1/2-y,z
x,-y,1/2-z
1/2-x,y,-z
1/2+x,1/2+y,1/2+z
1/2-x,-y,1/2+z
1/2+x,1/2-y,-z
-x,1/2+y,1/2-z
loop_
_atom_site_type_symbol
_atom_site_label
_atom_site_fract_x
_atom_site_fract_y
_atom_site_fract_z
Si Si1 0.348586 0.500000 0.750000
Si Si2 0.238214 0.813318 0.802784
Si Si3 0.662018 0.306008 0.595382
Si Si4 0.156586 0.698363 0.660275
Si Si5 0.454878 0.511519 0.844958
Si Si6 0.264507 0.300315 0.939952
Si Si7 0.000000 0.250000 0.789243
O O1 0.293121 0.736406 0.757065
O O2 0.396180 0.439390 0.800780
O O3 0.295652 0.825825 0.850167
O O4 0.186120 0.569529 0.815858
O O5 0.188456 0.063566 0.806437
O O6 0.670278 0.599639 0.575538
O O7 0.585546 0.163885 0.607656
O O8 0.708044 0.096865 0.562535
O O9 0.196455 0.724111 0.602209
O O10 0.070172 0.713064 0.672186
O O11 0.500000 0.250000 0.857872
O O12 0.500000 0.750000 0.819701
O O13 0.250000 0.235138 0.000000
O O14 0.993400 0.500000 0.750000
#
# Coordination Sequence:
#
# PCOD9333761 Si02
#       7
#     4   8   8   8   8   8   4
#     4  10  22  34  54  84 110 152 206 244 274 334
#     4   9  20  34  56  79 114 146 189 249 288 320
#     4   9  19  35  54  87 114 144 189 239 290 346
#     4  10  22  39  56  86 119 150 194 246 294 360
#     4  11  22  36  54  77 120 161 191 230 285 345
#     4  10  19  37  66  90 112 145 194 256 305 345
#     4  12  26  40  60  86 126 170 200 232 304 384
#
# _framework density 19.968392999999999
#
# number of rings (size 3 to 8) (size 9 to 14) (size 15 to 20)
#    0.000    2.000    0.000    3.000    3.500    5.333 
#    0.000    0.000    5.500    0.000    0.000    0.000 
#    0.000    0.000    0.000    0.000    0.000    0.000 
#
# Total GULP energy -133693.190750 kJ/mol
# GULP energy per Si atom -5570.549615 kJ/mol
# Density = 1.992294 g / cm^3
# Si number density = 19.968393 Si / 1000 Ang^3
#
#
#
# Elastic Constant Matrix: (Units=GPa)
#
#
# Indices 1 2 3 4 5 6 
#
# 1 101.2047 17.4178 38.8124 0.0000 0.0000 0.0000
# 2 17.4178 112.2777 15.3328 0.0000 0.0000 0.0000
# 3 38.8124 15.3328 65.3183 0.0000 0.0000 0.0000
# 4 0.0000 0.0000 0.0000 10.9898 0.0000 0.0000
# 5 0.0000 0.0000 0.0000 0.0000 20.6357 0.0000
# 6 0.0000 0.0000 0.0000 0.0000 0.0000 7.9272
#
#
#
# Elastic Compliance Matrix: (Units=1/GPa)
#
#
# Indices 1 2 3 4 5 6 
#
# 1 0.012902 -0.000986 -0.007435 0.000000 0.000000 0.000000
# 2 -0.000986 0.009277 -0.001592 0.000000 0.000000 0.000000
# 3 -0.007435 -0.001592 0.020101 0.000000 0.000000 0.000000
# 4 0.000000 0.000000 0.000000 0.090993 0.000000 0.000000
# 5 0.000000 0.000000 0.000000 0.000000 0.048460 0.000000
# 6 0.000000 0.000000 0.000000 0.000000 0.000000 0.126149
#
#
# Mechanical properties :
#
#
# Convention : Reuss Voigt Hill
#
# Bulk Modulus (GPa) = 44.93484 46.88077 45.90780
# Shear Modulus (GPa) = 14.91090 21.72638 18.31864
#
# Velocity S-wave (km/s) = 2.73559 3.30212 3.03212
# Velocity P-wave (km/s) = 5.70349 6.16986 5.94125
#
# Compressibility (1/GPa) = 0.02225445
#
# Stress axis : x y z
#
# Youngs Moduli (GPa) = 77.50729 107.79541 49.74842
#
# Poissons Ratio (x) = 0.10631 0.36988
# Poissons Ratio (y) = 0.07644 0.07918
# Poissons Ratio (z) = 0.57626 0.17157
#
# Static dielectric constant tensor:
#      x y z
#    x 1.747700 0.000000 0.000000 
#    y 0.000000 1.818080 0.000000 
#    z 0.000000 0.000000 1.762920 
# 
# From -- ./inp_files/35963.got.cif
#   From: 2010.05.17/outbox.cif.g08.bks.cpg/sg24_18_cif.got.tgz:35963.got - 2010.06.04 00:33:39.
