data_PCOD9333187
_publ_section_title
;
Structure prediction by ZEFSAII (Michael W. Deem and Ramdas Pophale) SiO2 
 PCOD9333187
Probable space group: I 21 21 21
;
_chemical_formula_sum "Si O2"
_cell_formula_units_Z 56
_cell_length_a 19.298667
_cell_length_b 13.757477
_cell_length_c 8.868016
_cell_angle_alpha 90.000000
_cell_angle_beta 90.000000
_cell_angle_gamma 90.000000
_cell_volume 2354.466827
_symmetry_space_group_name_H-M "I 21 21 21"
_symmetry_group_IT_number 24
_symmetry_cell_setting 'orthorhombic'
loop_
_space_group_symop_operation_xyz
x,y,z
-x,1/2-y,z
x,-y,1/2-z
1/2-x,y,-z
1/2+x,1/2+y,1/2+z
1/2-x,-y,1/2+z
1/2+x,1/2-y,-z
-x,1/2+y,1/2-z
loop_
_atom_site_type_symbol
_atom_site_label
_atom_site_fract_x
_atom_site_fract_y
_atom_site_fract_z
Si Si1 0.478428 0.859882 0.552928
Si Si2 0.634220 0.388455 0.394542
Si Si3 0.649558 0.026086 0.402510
Si Si4 0.879437 0.902410 0.333741
Si Si5 0.819444 0.218280 0.421795
Si Si6 0.826451 0.396220 0.947160
Si Si7 0.509522 0.133489 0.298020
O O1 0.500000 0.750000 0.582970
O O2 0.536241 0.907646 0.660669
O O3 0.394871 0.873177 0.549296
O O4 0.501241 0.877332 0.380420
O O5 0.630882 0.301746 0.514550
O O6 0.658643 0.358316 0.224542
O O7 0.674512 0.485924 0.438031
O O8 0.554701 0.418751 0.376100
O O9 0.678832 0.114741 0.496255
O O10 0.577922 0.079626 0.352962
O O11 0.688909 0.000000 0.250000
O O12 0.643650 0.926420 0.496047
O O13 0.843068 0.812298 0.247355
O O14 0.857655 0.000000 0.250000
O O15 0.750000 0.262470 0.500000
O O16 0.750000 0.363117 0.000000
O O17 0.500000 0.250000 0.327044
#
# Coordination Sequence:
#
# PCOD9333187 Si02
#       7
#     8   8   8   8   8   8   8
#     4  10  21  40  66  98 140 179 235 303 357 435
#     4  10  21  40  66  96 136 186 238 294 364 459
#     4  11  21  38  70  96 135 174 235 303 366 431
#     4  10  23  43  61  96 140 176 237 305 369 435
#     4  11  25  44  64  94 140 190 237 294 372 454
#     4  10  22  40  67 102 140 186 247 300 369 449
#     4  10  18  35  68 101 123 176 241 289 355 432
#
# _framework density 23.784578
#
# number of rings (size 3 to 8) (size 9 to 14) (size 15 to 20)
#    0.000    1.714    2.857    1.286    2.000    2.857 
#   10.286    0.000    0.000    0.000    0.000    0.000 
#    0.000    0.000    0.000    0.000    0.000    0.000 
#
# Total GULP energy -155872.924136 kJ/mol
# GULP energy per Si atom -5566.890148 kJ/mol
# Density = 2.373044 g / cm^3
# Si number density = 23.784578 Si / 1000 Ang^3
#
#
#
# Elastic Constant Matrix: (Units=GPa)
#
#
# Indices 1 2 3 4 5 6 
#
# 1 118.7029 -2.2208 26.2935 0.0000 0.0000 0.0000
# 2 -2.2208 95.4047 45.2668 0.0000 0.0000 0.0000
# 3 26.2935 45.2668 82.6678 0.0000 0.0000 0.0000
# 4 0.0000 0.0000 0.0000 36.9032 0.0000 0.0000
# 5 0.0000 0.0000 0.0000 0.0000 12.6779 0.0000
# 6 0.0000 0.0000 0.0000 0.0000 0.0000 20.4675
#
#
#
# Elastic Compliance Matrix: (Units=1/GPa)
#
#
# Indices 1 2 3 4 5 6 
#
# 1 0.009396 0.002211 -0.004199 0.000000 0.000000 0.000000
# 2 0.002211 0.014681 -0.008742 0.000000 0.000000 0.000000
# 3 -0.004199 -0.008742 0.018219 0.000000 0.000000 0.000000
# 4 0.000000 0.000000 0.000000 0.027098 0.000000 0.000000
# 5 0.000000 0.000000 0.000000 0.000000 0.078877 0.000000
# 6 0.000000 0.000000 0.000000 0.000000 0.000000 0.048858
#
#
# Mechanical properties :
#
#
# Convention : Reuss Voigt Hill
#
# Bulk Modulus (GPa) = 47.99499 48.38386 48.18942
# Shear Modulus (GPa) = 22.16949 29.17214 25.67081
#
# Velocity S-wave (km/s) = 3.05634 3.50596 3.28884
# Velocity P-wave (km/s) = 5.71645 6.06430 5.89294
#
# Compressibility (1/GPa) = 0.02083551
#
# Stress axis : x y z
#
# Youngs Moduli (GPa) = 106.42917 68.11484 54.88694
#
# Poissons Ratio (x) = -0.15061 0.23048
# Poissons Ratio (y) = -0.23533 0.47984
# Poissons Ratio (z) = 0.44692 0.59548
#
# Static dielectric constant tensor:
#      x y z
#    x 2.118420 0.000000 0.000000 
#    y 0.000000 2.392420 0.000000 
#    z 0.000000 0.000000 1.994410 
# 
# From -- ./inp_files/15238.got.cif
#   From: 2010.05.17/outbox.cif.g08.bks.cpg/sg24_8_cif.got.tgz:15238.got - 2010.06.04 00:33:39.
