data_PCOD9333802
_publ_section_title
;
Structure prediction by ZEFSAII (Michael W. Deem and Ramdas Pophale) SiO2 
 PCOD9333802
Probable space group: I 21 21 21
;
_chemical_formula_sum "Si O2"
_cell_formula_units_Z 36
_cell_length_a 7.117632
_cell_length_b 14.210132
_cell_length_c 15.567133
_cell_angle_alpha 90.000000
_cell_angle_beta 90.000000
_cell_angle_gamma 90.000000
_cell_volume 1574.498598
_symmetry_space_group_name_H-M "I 21 21 21"
_symmetry_group_IT_number 24
_symmetry_cell_setting 'orthorhombic'
loop_
_space_group_symop_operation_xyz
x,y,z
-x,1/2-y,z
x,-y,1/2-z
1/2-x,y,-z
1/2+x,1/2+y,1/2+z
1/2-x,-y,1/2+z
1/2+x,1/2-y,-z
-x,1/2+y,1/2-z
loop_
_atom_site_type_symbol
_atom_site_label
_atom_site_fract_x
_atom_site_fract_y
_atom_site_fract_z
Si Si1 0.172791 0.820531 0.904346
Si Si2 0.500000 0.750000 0.781297
Si Si3 0.916576 0.526880 0.658467
Si Si4 0.981757 0.076408 0.178780
Si Si5 0.973419 0.362210 0.996691
O O1 0.343019 0.797623 0.840202
O O2 0.000000 0.750000 0.888562
O O3 0.112894 0.928567 0.891170
O O4 0.250000 0.806673 0.000000
O O5 0.412085 0.673231 0.718833
O O6 0.003467 0.500000 0.750000
O O7 0.711449 0.571152 0.679398
O O8 0.026453 0.597908 0.596699
O O9 0.924768 0.000000 0.250000
O O10 0.941335 0.079479 0.076811
O O11 0.000000 0.250000 0.005698
O O12 0.750000 0.379128 0.000000
#
# Coordination Sequence:
#
# PCOD9333802 Si02
#       5
#     8   4   8   8   8
#     4  12  25  43  71 102 138 184 234 287 355 428
#     4  12  22  42  72 100 138 180 238 290 350 426
#     4  10  21  41  65  91 137 186 218 289 366 403
#     4  10  19  38  68  92 128 181 223 280 362 408
#     4  10  21  38  64  91 124 178 230 278 347 426
#
# _framework density 22.864422000000001
#
# number of rings (size 3 to 8) (size 9 to 14) (size 15 to 20)
#    0.000    1.333    6.667    2.000    0.000    0.889 
#    0.000    4.444    0.000    0.000    0.000    0.000 
#    0.000    0.000    0.000    0.000    0.000    0.000 
#
# Total GULP energy -100556.325918 kJ/mol
# GULP energy per Si atom -5586.462551 kJ/mol
# Density = 2.281238 g / cm^3
# Si number density = 22.864422 Si / 1000 Ang^3
#
#
#
# Elastic Constant Matrix: (Units=GPa)
#
#
# Indices 1 2 3 4 5 6 
#
# 1 84.1010 -14.4450 2.7294 0.0000 0.0000 0.0000
# 2 -14.4450 91.7359 32.7246 0.0000 0.0000 0.0000
# 3 2.7294 32.7246 173.2589 0.0000 0.0000 0.0000
# 4 0.0000 0.0000 0.0000 48.3098 0.0000 0.0000
# 5 0.0000 0.0000 0.0000 0.0000 -4.4397 0.0000
# 6 0.0000 0.0000 0.0000 0.0000 0.0000 13.2701
#
#
#
# Elastic Compliance Matrix: (Units=1/GPa)
#
#
# Indices 1 2 3 4 5 6 
#
# 1 0.012279 0.002147 -0.000599 0.000000 0.000000 0.000000
# 2 0.002147 0.012064 -0.002312 0.000000 0.000000 0.000000
# 3 -0.000599 -0.002312 0.006218 0.000000 0.000000 0.000000
# 4 0.000000 0.000000 0.000000 0.020700 0.000000 0.000000
# 5 0.000000 0.000000 0.000000 0.000000 -0.225238 0.000000
# 6 0.000000 0.000000 0.000000 0.000000 0.000000 0.075358
#
#
# Mechanical properties :
#
#
# Convention : Reuss Voigt Hill
#
# Bulk Modulus (GPa) = 34.44488 43.45710 38.95099
# Shear Modulus (GPa) = -57.19869 33.30048 -11.94910
#
# Velocity S-wave (km/s) = -5.00707 3.82046 -2.28854
# Velocity P-wave (km/s) = 4.28137 6.20556 3.17638
#
# Compressibility (1/GPa) = 0.02903189
#
# Stress axis : x y z
#
# Youngs Moduli (GPa) = 81.44192 82.89235 160.82590
#
# Poissons Ratio (x) = -0.17798 0.09633
# Poissons Ratio (y) = -0.17486 0.37189
# Poissons Ratio (z) = 0.04878 0.19168
#
# Static dielectric constant tensor:
#      x y z
#    x 1.885210 0.000000 0.000000 
#    y 0.000000 1.672100 0.000000 
#    z 0.000000 0.000000 1.884390 
# 
# From -- ./inp_files/12175.got.cif
#   From: 2010.05.17/outbox.cif.g08.bks.cpg/sg24_7_cif.got.tgz:12175.got - 2010.06.04 00:33:39.
