data_PCOD9333800
_publ_section_title
;
Structure prediction by ZEFSAII (Michael W. Deem and Ramdas Pophale) SiO2 
 PCOD9333800
Probable space group: I 21 21 21
;
_chemical_formula_sum "Si O2"
_cell_formula_units_Z 40
_cell_length_a 8.117775
_cell_length_b 7.525372
_cell_length_c 27.498946
_cell_angle_alpha 90.000000
_cell_angle_beta 90.000000
_cell_angle_gamma 90.000000
_cell_volume 1679.890721
_symmetry_space_group_name_H-M "I 21 21 21"
_symmetry_group_IT_number 24
_symmetry_cell_setting 'orthorhombic'
loop_
_space_group_symop_operation_xyz
x,y,z
-x,1/2-y,z
x,-y,1/2-z
1/2-x,y,-z
1/2+x,1/2+y,1/2+z
1/2-x,-y,1/2+z
1/2+x,1/2-y,-z
-x,1/2+y,1/2-z
loop_
_atom_site_type_symbol
_atom_site_label
_atom_site_fract_x
_atom_site_fract_y
_atom_site_fract_z
Si Si1 0.513524 0.037077 0.193416
Si Si2 0.171651 0.534329 0.366621
Si Si3 0.195302 0.035620 0.136884
Si Si4 0.144649 0.134240 0.542936
Si Si5 0.908474 0.078545 0.029393
O O1 0.500000 0.250000 0.187575
O O2 0.669768 0.967994 0.162493
O O3 0.338845 0.971139 0.172766
O O4 0.535837 0.000000 0.250000
O O5 0.195455 0.748993 0.365498
O O6 0.156658 0.474826 0.423001
O O7 0.989912 0.486601 0.347124
O O8 0.245076 0.957412 0.083914
O O9 0.250000 0.229949 0.500000
O O10 0.000000 0.250000 0.566348
O O11 0.036860 0.002736 0.508836
O O12 0.000000 0.250000 0.050114
O O13 0.750000 0.138195 0.000000
#
# Coordination Sequence:
#
# PCOD9333800 Si02
#       5
#     8   8   8   8   8
#     4  10  23  41  66  93 123 157 207 270 335 393
#     4  10  19  38  66  94 118 160 222 274 311 366
#     4  10  20  40  64  92 126 163 216 273 313 369
#     4  12  24  40  58  92 139 179 209 256 327 392
#     4  12  21  35  62  93 125 169 224 271 313 366
#
# _framework density 23.811071999999999
#
# number of rings (size 3 to 8) (size 9 to 14) (size 15 to 20)
#    0.000    1.200    4.000    3.600    0.000    3.200 
#    0.000    0.000    0.000    0.000    0.000    0.000 
#    0.000    0.000    0.000    0.000    0.000    0.000 
#
# Total GULP energy -111791.673988 kJ/mol
# GULP energy per Si atom -5589.583699 kJ/mol
# Density = 2.375688 g / cm^3
# Si number density = 23.811072 Si / 1000 Ang^3
#
#
#
# Elastic Constant Matrix: (Units=GPa)
#
#
# Indices 1 2 3 4 5 6 
#
# 1 229.5422 29.6106 99.4294 0.0000 0.0000 0.0000
# 2 29.6106 52.1191 6.3049 0.0000 0.0000 0.0000
# 3 99.4294 6.3049 134.7656 0.0000 0.0000 0.0000
# 4 0.0000 0.0000 0.0000 27.5615 0.0000 0.0000
# 5 0.0000 0.0000 0.0000 0.0000 37.1843 0.0000
# 6 0.0000 0.0000 0.0000 0.0000 0.0000 15.1190
#
#
#
# Elastic Compliance Matrix: (Units=1/GPa)
#
#
# Indices 1 2 3 4 5 6 
#
# 1 0.006937 -0.003341 -0.004961 0.000000 0.000000 0.000000
# 2 -0.003341 0.020905 0.001487 0.000000 0.000000 0.000000
# 3 -0.004961 0.001487 0.011011 0.000000 0.000000 0.000000
# 4 0.000000 0.000000 0.000000 0.036283 0.000000 0.000000
# 5 0.000000 0.000000 0.000000 0.000000 0.026893 0.000000
# 6 0.000000 0.000000 0.000000 0.000000 0.000000 0.066142
#
#
# Mechanical properties :
#
#
# Convention : Reuss Voigt Hill
#
# Bulk Modulus (GPa) = 39.64809 76.34629 57.99719
# Shear Modulus (GPa) = 26.28696 34.71178 30.49937
#
# Velocity S-wave (km/s) = 3.32622 3.82226 3.58284
# Velocity P-wave (km/s) = 5.60705 7.18418 6.44405
#
# Compressibility (1/GPa) = 0.02522190
#
# Stress axis : x y z
#
# Youngs Moduli (GPa) = 144.16339 47.83562 90.81592
#
# Poissons Ratio (x) = 0.15980 0.45058
# Poissons Ratio (y) = 0.48161 -0.13502
# Poissons Ratio (z) = 0.71526 -0.07112
#
# Static dielectric constant tensor:
#      x y z
#    x 1.936970 0.000000 0.000000 
#    y 0.000000 2.008080 0.000000 
#    z 0.000000 0.000000 1.850940 
# 
# From -- ./inp_files/35005.got.cif
#   From: 2010.05.17/outbox.cif.g08.bks.cpg/sg24_18_cif.got.tgz:35005.got - 2010.06.04 00:33:39.
