data_PCOD9333706
_publ_section_title
;
Structure prediction by ZEFSAII (Michael W. Deem and Ramdas Pophale) SiO2 
 PCOD9333706
Probable space group: I 21 21 21
;
_chemical_formula_sum "Si O2"
_cell_formula_units_Z 56
_cell_length_a 12.263444
_cell_length_b 13.733443
_cell_length_c 13.758180
_cell_angle_alpha 90.000000
_cell_angle_beta 90.000000
_cell_angle_gamma 90.000000
_cell_volume 2317.143171
_symmetry_space_group_name_H-M "I 21 21 21"
_symmetry_group_IT_number 24
_symmetry_cell_setting 'orthorhombic'
loop_
_space_group_symop_operation_xyz
x,y,z
-x,1/2-y,z
x,-y,1/2-z
1/2-x,y,-z
1/2+x,1/2+y,1/2+z
1/2-x,-y,1/2+z
1/2+x,1/2-y,-z
-x,1/2+y,1/2-z
loop_
_atom_site_type_symbol
_atom_site_label
_atom_site_fract_x
_atom_site_fract_y
_atom_site_fract_z
Si Si1 0.402273 0.056507 0.847775
Si Si2 0.412758 0.818485 0.401663
Si Si3 0.677481 0.481422 0.419577
Si Si4 0.480180 0.399979 0.294862
Si Si5 0.310941 0.737245 0.682309
Si Si6 0.369485 0.478301 0.864276
Si Si7 0.237115 0.668922 0.892315
O O1 0.277641 0.022404 0.858270
O O2 0.393447 0.172970 0.834791
O O3 0.508086 0.017050 0.906599
O O4 0.431212 0.000000 0.750000
O O5 0.500000 0.750000 0.454287
O O6 0.375111 0.916229 0.456917
O O7 0.473530 0.850509 0.302223
O O8 0.303815 0.765438 0.367393
O O9 0.750000 0.427465 0.500000
O O10 0.585248 0.425179 0.361366
O O11 0.431073 0.500000 0.250000
O O12 0.387701 0.345123 0.355579
O O13 0.339773 0.635351 0.631731
O O14 0.294043 0.721737 0.799144
O O15 0.359428 0.500000 0.750000
O O16 0.293360 0.562777 0.904839
O O17 0.250000 0.713711 0.000000
#
# Coordination Sequence:
#
# PCOD9333706 Si02
#       7
#     8   8   8   8   8   8   8
#     4  10  20  39  62  87 119 172 217 251 316 399
#     4  10  19  36  64  87 115 162 216 256 303 393
#     4  10  22  36  58  89 123 155 206 269 319 371
#     4  10  20  39  67  88 118 169 215 258 311 393
#     4  10  19  38  63  89 121 162 217 262 310 396
#     4   9  20  36  61  86 119 166 209 254 309 395
#     4  11  23  37  61  97 132 160 212 276 332 379
#
# _framework density 24.16769
#
# number of rings (size 3 to 8) (size 9 to 14) (size 15 to 20)
#    0.000    2.000    1.429    3.857    4.000    0.000 
#    0.000    8.571    9.429    0.000    0.000    0.000 
#    0.000    0.000    0.000    0.000    0.000    0.000 
#
# Total GULP energy -156148.269882 kJ/mol
# GULP energy per Si atom -5576.723924 kJ/mol
# Density = 2.411268 g / cm^3
# Si number density = 24.167690 Si / 1000 Ang^3
#
#
#
# Elastic Constant Matrix: (Units=GPa)
#
#
# Indices 1 2 3 4 5 6 
#
# 1 120.5069 25.9595 22.7067 0.0000 0.0000 0.0000
# 2 25.9595 98.6070 -0.1709 0.0000 0.0000 0.0000
# 3 22.7067 -0.1709 77.3697 0.0000 0.0000 0.0000
# 4 0.0000 0.0000 0.0000 16.0111 0.0000 0.0000
# 5 0.0000 0.0000 0.0000 0.0000 30.1953 0.0000
# 6 0.0000 0.0000 0.0000 0.0000 0.0000 38.5432
#
#
#
# Elastic Compliance Matrix: (Units=1/GPa)
#
#
# Indices 1 2 3 4 5 6 
#
# 1 0.009347 -0.002466 -0.002749 0.000000 0.000000 0.000000
# 2 -0.002466 0.010792 0.000747 0.000000 0.000000 0.000000
# 3 -0.002749 0.000747 0.013733 0.000000 0.000000 0.000000
# 4 0.000000 0.000000 0.000000 0.062457 0.000000 0.000000
# 5 0.000000 0.000000 0.000000 0.000000 0.033118 0.000000
# 6 0.000000 0.000000 0.000000 0.000000 0.000000 0.025945
#
#
# Mechanical properties :
#
#
# Convention : Reuss Voigt Hill
#
# Bulk Modulus (GPa) = 40.09851 43.71936 41.90893
# Shear Modulus (GPa) = 28.96231 33.48248 31.22240
#
# Velocity S-wave (km/s) = 3.46553 3.72617 3.59821
# Velocity P-wave (km/s) = 5.71323 6.05324 5.88569
#
# Compressibility (1/GPa) = 0.02493858
#
# Stress axis : x y z
#
# Youngs Moduli (GPa) = 106.98231 92.66421 72.81567
#
# Poissons Ratio (x) = 0.22847 0.20015
# Poissons Ratio (y) = 0.26377 -0.05442
# Poissons Ratio (z) = 0.29407 -0.06926
#
# Static dielectric constant tensor:
#      x y z
#    x 1.903050 0.000000 0.000000 
#    y 0.000000 1.952260 0.000000 
#    z 0.000000 0.000000 2.061270 
# 
# From -- ./inp_files/25825.got.cif
#   From: 2010.05.17/outbox.cif.g08.bks.cpg/sg24_13_cif.got.tgz:25825.got - 2010.06.04 00:33:39.
