data_PCOD9333915
_publ_section_title
;
Structure prediction by ZEFSAII (Michael W. Deem and Ramdas Pophale) SiO2 
 PCOD9333915
Probable space group: I 21 21 21
;
_chemical_formula_sum "Si O2"
_cell_formula_units_Z 48
_cell_length_a 12.995758
_cell_length_b 14.767639
_cell_length_c 11.340170
_cell_angle_alpha 90.000000
_cell_angle_beta 90.000000
_cell_angle_gamma 90.000000
_cell_volume 2176.367581
_symmetry_space_group_name_H-M "I 21 21 21"
_symmetry_group_IT_number 24
_symmetry_cell_setting 'orthorhombic'
loop_
_space_group_symop_operation_xyz
x,y,z
-x,1/2-y,z
x,-y,1/2-z
1/2-x,y,-z
1/2+x,1/2+y,1/2+z
1/2-x,-y,1/2+z
1/2+x,1/2-y,-z
-x,1/2+y,1/2-z
loop_
_atom_site_type_symbol
_atom_site_label
_atom_site_fract_x
_atom_site_fract_y
_atom_site_fract_z
Si Si1 0.015574 0.559718 0.496699
Si Si2 0.953613 0.500000 0.750000
Si Si3 0.630104 0.595311 0.692736
Si Si4 0.538388 0.879248 0.885730
Si Si5 0.339092 0.815640 0.258569
Si Si6 0.638494 0.723727 0.010927
Si Si7 0.000000 0.750000 0.551639
O O1 0.015759 0.527962 0.632282
O O2 0.900958 0.569820 0.440307
O O3 0.067620 0.481537 0.418447
O O4 0.048892 0.663935 0.485998
O O5 0.883457 0.413560 0.721212
O O6 0.661683 0.500000 0.750000
O O7 0.525152 0.623939 0.763355
O O8 0.719958 0.667942 0.709519
O O9 0.625961 0.806816 0.918863
O O10 0.450371 0.845665 0.977315
O O11 0.364153 0.750162 0.148227
O O12 0.407969 0.785855 0.367302
O O13 0.750000 0.679607 0.000000
#
# Coordination Sequence:
#
# PCOD9333915 Si02
#       7
#     8   4   8   8   8   8   4
#     4  10  22  40  61  90 127 167 217 257 332 387
#     4  10  20  32  58  86 126 156 200 272 316 380
#     4  10  21  38  65  96 127 165 209 280 343 379
#     4  10  21  38  63  94 128 162 207 272 325 374
#     4  11  20  37  56  94 125 161 215 260 332 385
#     4  11  21  35  62  96 125 164 215 262 322 389
#     4  10  24  36  58  86 126 176 194 258 320 400
#
# _framework density 22.055098999999998
#
# number of rings (size 3 to 8) (size 9 to 14) (size 15 to 20)
#    0.000    1.667    4.167    1.000    2.333    4.000 
#    0.000    0.000    3.667    0.000    0.000    0.000 
#    0.000    0.000    0.000    0.000    0.000    0.000 
#
# Total GULP energy -133717.765234 kJ/mol
# GULP energy per Si atom -5571.573551 kJ/mol
# Density = 2.200490 g / cm^3
# Si number density = 22.055099 Si / 1000 Ang^3
#
#
#
# Elastic Constant Matrix: (Units=GPa)
#
#
# Indices 1 2 3 4 5 6 
#
# 1 37.0276 4.7692 14.8856 0.0000 0.0000 0.0000
# 2 4.7692 113.7469 15.2404 0.0000 0.0000 0.0000
# 3 14.8856 15.2404 88.3095 0.0000 0.0000 0.0000
# 4 0.0000 0.0000 0.0000 27.5765 0.0000 0.0000
# 5 0.0000 0.0000 0.0000 0.0000 16.1067 0.0000
# 6 0.0000 0.0000 0.0000 0.0000 0.0000 20.9162
#
#
#
# Elastic Compliance Matrix: (Units=1/GPa)
#
#
# Indices 1 2 3 4 5 6 
#
# 1 0.029007 -0.000574 -0.004790 0.000000 0.000000 0.000000
# 2 -0.000574 0.009011 -0.001458 0.000000 0.000000 0.000000
# 3 -0.004790 -0.001458 0.012383 0.000000 0.000000 0.000000
# 4 0.000000 0.000000 0.000000 0.036263 0.000000 0.000000
# 5 0.000000 0.000000 0.000000 0.000000 0.062086 0.000000
# 6 0.000000 0.000000 0.000000 0.000000 0.000000 0.047810
#
#
# Mechanical properties :
#
#
# Convention : Reuss Voigt Hill
#
# Bulk Modulus (GPa) = 27.20748 34.31938 30.76343
# Shear Modulus (GPa) = 22.47633 26.53249 24.50441
#
# Velocity S-wave (km/s) = 3.19580 3.47221 3.33686
# Velocity P-wave (km/s) = 5.09710 5.62756 5.36889
#
# Compressibility (1/GPa) = 0.03675460
#
# Stress axis : x y z
#
# Youngs Moduli (GPa) = 34.47491 110.97651 80.75631
#
# Poissons Ratio (x) = 0.06374 0.38684
# Poissons Ratio (y) = 0.01980 0.11777
# Poissons Ratio (z) = 0.16514 0.16183
#
# Static dielectric constant tensor:
#      x y z
#    x 1.809670 0.000000 0.000000 
#    y 0.000000 1.901480 0.000000 
#    z 0.000000 0.000000 1.900220 
# 
# From -- ./inp_files/20775.got.cif
#   From: 2010.05.17/outbox.cif.g08.bks.cpg/sg24_11_cif.got.tgz:20775.got - 2010.06.04 00:33:39.
