data_PCOD9333553
_publ_section_title
;
Structure prediction by ZEFSAII (Michael W. Deem and Ramdas Pophale) SiO2 
 PCOD9333553
Probable space group: I 21 21 21
;
_chemical_formula_sum "Si O2"
_cell_formula_units_Z 48
_cell_length_a 22.485560
_cell_length_b 10.207681
_cell_length_c 10.822519
_cell_angle_alpha 90.000000
_cell_angle_beta 90.000000
_cell_angle_gamma 90.000000
_cell_volume 2484.043258
_symmetry_space_group_name_H-M "I 21 21 21"
_symmetry_group_IT_number 24
_symmetry_cell_setting 'orthorhombic'
loop_
_space_group_symop_operation_xyz
x,y,z
-x,1/2-y,z
x,-y,1/2-z
1/2-x,y,-z
1/2+x,1/2+y,1/2+z
1/2-x,-y,1/2+z
1/2+x,1/2-y,-z
-x,1/2+y,1/2-z
loop_
_atom_site_type_symbol
_atom_site_label
_atom_site_fract_x
_atom_site_fract_y
_atom_site_fract_z
Si Si1 0.232170 0.414847 0.864187
Si Si2 0.361614 0.651586 0.732404
Si Si3 0.127022 0.241533 0.968433
Si Si4 0.088980 0.018167 0.604178
Si Si5 0.929284 0.218301 0.472206
Si Si6 0.955671 0.957875 0.608558
O O1 0.205578 0.500000 0.750000
O O2 0.290910 0.356163 0.797262
O O3 0.185532 0.308011 0.910918
O O4 0.250000 0.479776 0.000000
O O5 0.380010 0.500000 0.750000
O O6 0.388323 0.723159 0.850987
O O7 0.385213 0.716165 0.608397
O O8 0.073506 0.315776 0.898671
O O9 0.132029 0.086538 0.957802
O O10 0.092370 0.168303 0.564832
O O11 0.095088 0.000000 0.750000
O O12 0.023623 0.966307 0.565736
O O13 0.000000 0.250000 0.448802
O O14 0.923288 0.073133 0.531082
O O15 0.955471 0.000000 0.750000
#
# Coordination Sequence:
#
# PCOD9333553 Si02
#       6
#     8   8   8   8   8   8
#     4   9  20  37  61  89 117 151 206 264 302 347
#     4  10  20  39  60  86 117 148 201 260 293 349
#     4  11  20  35  61  85 115 154 198 246 302 356
#     4  10  22  37  54  86 127 157 193 242 297 370
#     4  10  21  37  58  90 126 159 198 243 300 372
#     4  10  19  34  59  87 116 157 202 245 295 352
#
# _framework density 19.323335
#
# number of rings (size 3 to 8) (size 9 to 14) (size 15 to 20)
#    0.000    2.000    1.667    2.000    0.000    4.667 
#    0.000    0.000   11.000    0.000    0.000    0.000 
#    0.000    0.000    0.000    0.000    0.000    0.000 
#
# Total GULP energy -133659.325622 kJ/mol
# GULP energy per Si atom -5569.138568 kJ/mol
# Density = 1.927935 g / cm^3
# Si number density = 19.323335 Si / 1000 Ang^3
#
#
#
# Elastic Constant Matrix: (Units=GPa)
#
#
# Indices 1 2 3 4 5 6 
#
# 1 16.0821 5.1599 28.8989 0.0000 0.0000 0.0000
# 2 5.1599 81.9853 35.5744 0.0000 0.0000 0.0000
# 3 28.8989 35.5744 113.9396 0.0000 0.0000 0.0000
# 4 0.0000 0.0000 0.0000 29.7864 0.0000 0.0000
# 5 0.0000 0.0000 0.0000 0.0000 30.7735 0.0000
# 6 0.0000 0.0000 0.0000 0.0000 0.0000 16.2706
#
#
#
# Elastic Compliance Matrix: (Units=1/GPa)
#
#
# Indices 1 2 3 4 5 6 
#
# 1 0.117072 0.006381 -0.031686 0.000000 0.000000 0.000000
# 2 0.006381 0.014456 -0.006132 0.000000 0.000000 0.000000
# 3 -0.031686 -0.006132 0.018728 0.000000 0.000000 0.000000
# 4 0.000000 0.000000 0.000000 0.033572 0.000000 0.000000
# 5 0.000000 0.000000 0.000000 0.000000 0.032495 0.000000
# 6 0.000000 0.000000 0.000000 0.000000 0.000000 0.061460
#
#
# Mechanical properties :
#
#
# Convention : Reuss Voigt Hill
#
# Bulk Modulus (GPa) = 11.44398 39.03039 25.23719
# Shear Modulus (GPa) = 13.52136 24.85770 19.18953
#
# Velocity S-wave (km/s) = 2.64813 3.59054 3.15473
# Velocity P-wave (km/s) = 3.90965 6.11815 5.13406
#
# Compressibility (1/GPa) = 0.08738216
#
# Stress axis : x y z
#
# Youngs Moduli (GPa) = 8.54177 69.17316 53.39700
#
# Poissons Ratio (x) = -0.44137 1.69191
# Poissons Ratio (y) = -0.05450 0.32743
# Poissons Ratio (z) = 0.27065 0.42417
#
# Static dielectric constant tensor:
#      x y z
#    x 1.741370 0.000000 0.000000 
#    y 0.000000 1.683170 0.000000 
#    z 0.000000 0.000000 1.686470 
# 
# From -- ./inp_files/16350.got.cif
#   From: 2010.05.17/outbox.cif.g08.bks.cpg/sg24_9_cif.got.tgz:16350.got - 2010.06.04 00:33:39.
