data_PCOD9333214
_publ_section_title
;
Structure prediction by ZEFSAII (Michael W. Deem and Ramdas Pophale) SiO2 
 PCOD9333214
Probable space group: I 21 21 21
;
_chemical_formula_sum "Si O2"
_cell_formula_units_Z 40
_cell_length_a 8.719903
_cell_length_b 11.662251
_cell_length_c 20.550768
_cell_angle_alpha 90.000000
_cell_angle_beta 90.000000
_cell_angle_gamma 90.000000
_cell_volume 2089.883584
_symmetry_space_group_name_H-M "I 21 21 21"
_symmetry_group_IT_number 24
_symmetry_cell_setting 'orthorhombic'
loop_
_space_group_symop_operation_xyz
x,y,z
-x,1/2-y,z
x,-y,1/2-z
1/2-x,y,-z
1/2+x,1/2+y,1/2+z
1/2-x,-y,1/2+z
1/2+x,1/2-y,-z
-x,1/2+y,1/2-z
loop_
_atom_site_type_symbol
_atom_site_label
_atom_site_fract_x
_atom_site_fract_y
_atom_site_fract_z
Si Si1 0.001220 0.037748 0.379843
Si Si2 0.929785 0.866753 0.982028
Si Si3 0.000000 0.750000 0.219609
Si Si4 0.698520 0.923655 0.425745
Si Si5 0.000000 0.250000 0.852205
Si Si6 0.263920 0.105188 0.799412
O O1 0.015863 0.094963 0.451588
O O2 0.976197 0.139971 0.327659
O O3 0.845278 0.964944 0.385522
O O4 0.138301 0.952955 0.358374
O O5 0.000000 0.750000 0.956323
O O6 0.922564 0.971604 0.931868
O O7 0.750000 0.847196 0.000000
O O8 0.862605 0.707290 0.266039
O O9 0.750000 0.902947 0.500000
O O10 0.623599 0.813732 0.395984
O O11 0.902388 0.344170 0.814034
O O12 0.250728 0.000000 0.750000
#
# Coordination Sequence:
#
# PCOD9333214 Si02
#       6
#     8   8   4   8   4   8
#     4   9  18  37  59  83 110 148 195 225 276 333
#     4   9  18  34  56  86 115 143 188 234 279 336
#     4  10  18  36  63  80 107 152 190 234 268 338
#     4   9  22  38  56  85 116 149 189 225 280 346
#     4  12  24  40  55  82 123 146 182 242 288 320
#     4  10  23  37  57  85 110 148 197 230 280 335
#
# _framework density 19.139821999999999
#
# number of rings (size 3 to 8) (size 9 to 14) (size 15 to 20)
#    0.000    2.800    1.000    1.200    0.000    6.400 
#    3.600    0.000    0.000    0.000    0.000    0.000 
#    0.000    0.000    0.000    0.000    0.000    0.000 
#
# Total GULP energy -111469.799509 kJ/mol
# GULP energy per Si atom -5573.489975 kJ/mol
# Density = 1.909626 g / cm^3
# Si number density = 19.139822 Si / 1000 Ang^3
#
#
#
# Elastic Constant Matrix: (Units=GPa)
#
#
# Indices 1 2 3 4 5 6 
#
# 1 57.5826 21.4552 28.5049 0.0000 0.0000 0.0000
# 2 21.4552 52.5230 4.9860 0.0000 0.0000 0.0000
# 3 28.5049 4.9860 34.6858 0.0000 0.0000 0.0000
# 4 0.0000 0.0000 0.0000 5.4254 0.0000 0.0000
# 5 0.0000 0.0000 0.0000 0.0000 20.0200 0.0000
# 6 0.0000 0.0000 0.0000 0.0000 0.0000 40.5007
#
#
#
# Elastic Compliance Matrix: (Units=1/GPa)
#
#
# Indices 1 2 3 4 5 6 
#
# 1 0.035284 -0.011822 -0.027297 0.000000 0.000000 0.000000
# 2 -0.011822 0.023264 0.006371 0.000000 0.000000 0.000000
# 3 -0.027297 0.006371 0.050347 0.000000 0.000000 0.000000
# 4 0.000000 0.000000 0.000000 0.184318 0.000000 0.000000
# 5 0.000000 0.000000 0.000000 0.000000 0.049950 0.000000
# 6 0.000000 0.000000 0.000000 0.000000 0.000000 0.024691
#
#
# Mechanical properties :
#
#
# Convention : Reuss Voigt Hill
#
# Bulk Modulus (GPa) = 23.04187 28.29815 25.67001
# Shear Modulus (GPa) = 11.16530 19.17891 15.17211
#
# Velocity S-wave (km/s) = 2.41789 3.16894 2.81854
# Velocity P-wave (km/s) = 4.45643 5.31099 4.90237
#
# Compressibility (1/GPa) = 0.04339925
#
# Stress axis : x y z
#
# Youngs Moduli (GPa) = 28.34156 42.98560 19.86207
#
# Poissons Ratio (x) = 0.50817 0.54218
# Poissons Ratio (y) = 0.33505 -0.12654
# Poissons Ratio (z) = 0.77364 -0.27387
#
# Static dielectric constant tensor:
#      x y z
#    x 1.663260 0.000000 0.000000 
#    y 0.000000 1.675540 0.000000 
#    z 0.000000 0.000000 1.666000 
# 
# From -- ./inp_files/11047.got.cif
#   From: 2010.05.17/outbox.cif.g08.bks.cpg/sg24_6_cif.got.tgz:11047.got - 2010.06.04 00:33:39.
