data_PCOD9333269
_publ_section_title
;
Structure prediction by ZEFSAII (Michael W. Deem and Ramdas Pophale) SiO2 
 PCOD9333269
Probable space group: I 21 21 21
;
_chemical_formula_sum "Si O2"
_cell_formula_units_Z 60
_cell_length_a 12.478840
_cell_length_b 27.211120
_cell_length_c 8.880667
_cell_angle_alpha 90.000000
_cell_angle_beta 90.000000
_cell_angle_gamma 90.000000
_cell_volume 3015.547817
_symmetry_space_group_name_H-M "I 21 21 21"
_symmetry_group_IT_number 24
_symmetry_cell_setting 'orthorhombic'
loop_
_space_group_symop_operation_xyz
x,y,z
-x,1/2-y,z
x,-y,1/2-z
1/2-x,y,-z
1/2+x,1/2+y,1/2+z
1/2-x,-y,1/2+z
1/2+x,1/2-y,-z
-x,1/2+y,1/2-z
loop_
_atom_site_type_symbol
_atom_site_label
_atom_site_fract_x
_atom_site_fract_y
_atom_site_fract_z
Si Si1 0.079575 0.829534 0.876944
Si Si2 0.712307 0.550720 0.330551
Si Si3 0.344827 0.083297 0.596895
Si Si4 0.250000 0.754660 0.000000
Si Si5 0.435186 0.702815 0.864299
Si Si6 0.456678 0.403608 0.777568
Si Si7 0.772640 0.052784 0.821908
Si Si8 0.496554 0.599483 0.364397
O O1 0.042330 0.851411 0.716903
O O2 0.119569 0.874279 0.983792
O O3 0.172328 0.789330 0.899997
O O4 0.978747 0.807788 0.967341
O O5 0.745244 0.500000 0.250000
O O6 0.750000 0.551456 0.500000
O O7 0.776095 0.594571 0.246354
O O8 0.585796 0.559047 0.319588
O O9 0.250000 0.056771 0.500000
O O10 0.457244 0.066867 0.672930
O O11 0.184716 0.720719 0.114274
O O12 0.500000 0.750000 0.803740
O O13 0.454225 0.653169 0.773760
O O14 0.337670 0.425071 0.757321
O O15 0.488494 0.402765 0.954090
O O16 0.878514 0.086192 0.803490
O O17 0.793796 0.000000 0.750000
O O18 0.750000 0.047368 0.000000
#
# Coordination Sequence:
#
# PCOD9333269 Si02
#       8
#     8   8   8   4   8   8   8   8
#     4  10  20  36  65  91 119 167 211 261 311 396
#     4  12  24  38  59  92 127 165 206 269 322 387
#     4  11  20  39  61  91 123 162 208 253 327 380
#     4  10  18  38  62  96 128 152 214 264 318 384
#     4   9  21  37  61  92 123 161 210 262 320 384
#     4  10  23  42  64  91 130 174 212 271 327 388
#     4  10  24  44  64  92 128 171 222 271 317 382
#     4  11  22  42  65  90 129 170 218 260 328 385
#
# _framework density 19.896882999999999
#
# number of rings (size 3 to 8) (size 9 to 14) (size 15 to 20)
#    0.000    1.600    3.333    0.800    1.867    2.667 
#    4.800    2.000    0.000    0.000    0.000    0.000 
#    0.000    0.000    0.000    0.000    0.000    0.000 
#
# Total GULP energy -167003.034637 kJ/mol
# GULP energy per Si atom -5566.767821 kJ/mol
# Density = 1.985160 g / cm^3
# Si number density = 19.896883 Si / 1000 Ang^3
#
#
#
# Elastic Constant Matrix: (Units=GPa)
#
#
# Indices 1 2 3 4 5 6 
#
# 1 140.6415 15.1896 31.0889 0.0000 0.0001 0.0000
# 2 15.1896 43.2693 14.3686 0.0005 0.0000 0.0000
# 3 31.0889 14.3686 60.3174 0.0014 0.0004 0.0000
# 4 0.0000 0.0005 0.0014 21.9834 -0.0002 -0.0002
# 5 0.0001 0.0000 0.0004 -0.0002 32.6309 0.0001
# 6 0.0000 0.0000 0.0000 -0.0002 0.0001 21.2148
#
#
#
# Elastic Compliance Matrix: (Units=1/GPa)
#
#
# Indices 1 2 3 4 5 6 
#
# 1 0.008124 -0.001587 -0.003809 0.000000 0.000000 0.000000
# 2 -0.001587 0.025406 -0.005234 0.000000 0.000000 0.000000
# 3 -0.003809 -0.005234 0.019789 -0.000001 0.000000 0.000000
# 4 0.000000 0.000000 -0.000001 0.045489 0.000000 0.000000
# 5 0.000000 0.000000 0.000000 0.000000 0.030646 0.000000
# 6 0.000000 0.000000 0.000000 0.000000 0.000000 0.047137
#
#
# Mechanical properties :
#
#
# Convention : Reuss Voigt Hill
#
# Bulk Modulus (GPa) = 31.19287 40.61359 35.90323
# Shear Modulus (GPa) = 23.97651 27.40456 25.69053
#
# Velocity S-wave (km/s) = 3.47513 3.71526 3.59720
# Velocity P-wave (km/s) = 5.64033 6.23383 5.94449
#
# Compressibility (1/GPa) = 0.03205861
#
# Stress axis : x y z
#
# Youngs Moduli (GPa) = 123.09709 39.36023 50.53276
#
# Poissons Ratio (x) = 0.06246 0.19248
# Poissons Ratio (y) = 0.19534 0.26450
# Poissons Ratio (z) = 0.46889 0.20602
#
# Static dielectric constant tensor:
#      x y z
#    x 1.744760 0.000000 0.000000 
#    y 0.000000 1.714800 0.000000 
#    z 0.000000 0.000000 1.723980 
# 
# From -- ./inp_files/11606.got.cif
#   From: 2010.05.17/outbox.cif.g08.bks.cpg/sg24_6_cif.got.tgz:11606.got - 2010.06.04 00:33:39.
