data_PCOD9333074
_publ_section_title
;
Structure prediction by ZEFSAII (Michael W. Deem and Ramdas Pophale) SiO2 
 PCOD9333074
Probable space group: I 21 21 21
;
_chemical_formula_sum "Si O2"
_cell_formula_units_Z 44
_cell_length_a 30.823752
_cell_length_b 8.128839
_cell_length_c 9.454986
_cell_angle_alpha 90.000000
_cell_angle_beta 90.000000
_cell_angle_gamma 90.000000
_cell_volume 2369.053748
_symmetry_space_group_name_H-M "I 21 21 21"
_symmetry_group_IT_number 24
_symmetry_cell_setting 'orthorhombic'
loop_
_space_group_symop_operation_xyz
x,y,z
-x,1/2-y,z
x,-y,1/2-z
1/2-x,y,-z
1/2+x,1/2+y,1/2+z
1/2-x,-y,1/2+z
1/2+x,1/2-y,-z
-x,1/2+y,1/2-z
loop_
_atom_site_type_symbol
_atom_site_label
_atom_site_fract_x
_atom_site_fract_y
_atom_site_fract_z
Si Si1 0.415376 0.081574 0.510719
Si Si2 0.297020 0.326749 0.175307
Si Si3 0.500000 0.750000 0.949714
Si Si4 0.301898 0.661563 0.658584
Si Si5 0.551137 0.000000 0.750000
Si Si6 0.392890 0.220488 0.803695
Si Si7 0.147265 0.000000 0.750000
O O1 0.461604 0.157848 0.466923
O O2 0.398223 0.201249 0.634958
O O3 0.417473 0.914779 0.603162
O O4 0.383115 0.049549 0.382320
O O5 0.309010 0.500000 0.250000
O O6 0.246251 0.288133 0.207832
O O7 0.324696 0.163956 0.212645
O O8 0.299626 0.367023 0.008880
O O9 0.521268 0.885560 0.846545
O O10 0.313286 0.500000 0.750000
O O11 0.341640 0.786867 0.672893
O O12 0.583660 0.889359 0.657361
#
# Coordination Sequence:
#
# PCOD9333074 Si02
#       7
#     8   8   4   8   4   8   4
#     4  10  23  38  60  85 123 154 210 257 314 380
#     4  10  24  41  62  92 134 173 207 258 313 372
#     4  10  20  38  56  92 118 156 202 264 318 378
#     4  10  20  40  62  94 127 164 218 257 303 372
#     4  10  18  32  64  87 122 147 198 266 322 352
#     4  10  19  36  61  92 115 161 206 258 301 374
#     4  12  24  44  62  91 132 171 206 262 316 384
#
# _framework density 18.572814000000001
#
# number of rings (size 3 to 8) (size 9 to 14) (size 15 to 20)
#    0.000    1.818    2.727    2.182    2.545    1.455 
#    0.000    1.818    0.000    0.000    0.000    0.000 
#    0.000    0.000    0.000    0.000    0.000    0.000 
#
# Total GULP energy -122482.755758 kJ/mol
# GULP energy per Si atom -5567.397989 kJ/mol
# Density = 1.853054 g / cm^3
# Si number density = 18.572814 Si / 1000 Ang^3
#
#
#
# Elastic Constant Matrix: (Units=GPa)
#
#
# Indices 1 2 3 4 5 6 
#
# 1 119.5512 65.6618 36.6470 0.0000 0.0000 0.0000
# 2 65.6618 117.7592 37.1511 0.0000 0.0000 0.0000
# 3 36.6470 37.1511 75.2490 0.0000 0.0000 0.0000
# 4 0.0000 0.0000 0.0000 16.1917 0.0000 0.0000
# 5 0.0000 0.0000 0.0000 0.0000 61.1598 0.0000
# 6 0.0000 0.0000 0.0000 0.0000 0.0000 54.2565
#
#
#
# Elastic Compliance Matrix: (Units=1/GPa)
#
#
# Indices 1 2 3 4 5 6 
#
# 1 0.012667 -0.006061 -0.003177 0.000000 0.000000 0.000000
# 2 -0.006061 0.012959 -0.003446 0.000000 0.000000 0.000000
# 3 -0.003177 -0.003446 0.016538 0.000000 0.000000 0.000000
# 4 0.000000 0.000000 0.000000 0.061760 0.000000 0.000000
# 5 0.000000 0.000000 0.000000 0.000000 0.016351 0.000000
# 6 0.000000 0.000000 0.000000 0.000000 0.000000 0.018431
#
#
# Mechanical properties :
#
#
# Convention : Reuss Voigt Hill
#
# Bulk Modulus (GPa) = 59.53772 65.71990 62.62881
# Shear Modulus (GPa) = 29.46869 37.86158 33.66513
#
# Velocity S-wave (km/s) = 3.98761 4.51993 4.26209
# Velocity P-wave (km/s) = 7.30256 7.91843 7.61672
#
# Compressibility (1/GPa) = 0.01679607
#
# Stress axis : x y z
#
# Youngs Moduli (GPa) = 78.94325 77.16854 60.46813
#
# Poissons Ratio (x) = 0.46772 0.19209
# Poissons Ratio (y) = 0.47848 0.20837
# Poissons Ratio (z) = 0.25078 0.26592
#
# Static dielectric constant tensor:
#      x y z
#    x 1.698390 0.000000 0.000000 
#    y 0.000000 1.654310 0.000000 
#    z 0.000000 0.000000 1.608450 
# 
# From -- ./inp_files/16762.got.cif
#   From: 2010.05.17/outbox.cif.g08.bks.cpg/sg24_9_cif.got.tgz:16762.got - 2010.06.04 00:33:39.
