data_PCOD9333695
_publ_section_title
;
Structure prediction by ZEFSAII (Michael W. Deem and Ramdas Pophale) SiO2 
 PCOD9333695
Probable space group: I 21 21 21
;
_chemical_formula_sum "Si O2"
_cell_formula_units_Z 32
_cell_length_a 9.213295
_cell_length_b 10.394918
_cell_length_c 14.685924
_cell_angle_alpha 90.000000
_cell_angle_beta 90.000000
_cell_angle_gamma 90.000000
_cell_volume 1406.492178
_symmetry_space_group_name_H-M "I 21 21 21"
_symmetry_group_IT_number 24
_symmetry_cell_setting 'orthorhombic'
loop_
_space_group_symop_operation_xyz
x,y,z
-x,1/2-y,z
x,-y,1/2-z
1/2-x,y,-z
1/2+x,1/2+y,1/2+z
1/2-x,-y,1/2+z
1/2+x,1/2-y,-z
-x,1/2+y,1/2-z
loop_
_atom_site_type_symbol
_atom_site_label
_atom_site_fract_x
_atom_site_fract_y
_atom_site_fract_z
Si Si1 0.820365 0.366900 0.098782
Si Si2 0.337933 0.411979 0.903343
Si Si3 0.900839 0.425695 0.664513
Si Si4 0.809732 0.841051 0.900040
O O1 0.797215 0.224975 0.141187
O O2 0.731187 0.479532 0.144760
O O3 0.989051 0.400052 0.088507
O O4 0.750000 0.357229 0.000000
O O5 0.294924 0.548594 0.861212
O O6 0.250000 0.416088 0.000000
O O7 0.972427 0.500000 0.750000
O O8 0.835214 0.282026 0.664040
O O9 0.031178 0.407883 0.592119
O O10 0.750000 0.800275 0.000000
#
# Coordination Sequence:
#
# PCOD9333695 Si02
#       4
#     8   8   8   8
#     4  10  19  36  62  91 128 177 228 281 341 416
#     4   9  19  34  59  94 124 162 225 284 327 387
#     4  11  25  42  63  99 139 176 227 297 359 404
#     4  10  22  42  68  98 132 185 241 280 335 427
#
# _framework density 22.751638
#
# number of rings (size 3 to 8) (size 9 to 14) (size 15 to 20)
#    0.000    2.000    0.000    3.750    0.000   12.000 
#    0.000    6.250    0.000    0.000    0.000    0.000 
#    0.000    0.000    0.000    0.000    0.000    0.000 
#
# Total GULP energy -89143.922234 kJ/mol
# GULP energy per Si atom -5571.495140 kJ/mol
# Density = 2.269985 g / cm^3
# Si number density = 22.751638 Si / 1000 Ang^3
#
#
#
# Elastic Constant Matrix: (Units=GPa)
#
#
# Indices 1 2 3 4 5 6 
#
# 1 104.0210 51.5758 25.7438 0.0000 0.0000 0.0000
# 2 51.5758 199.0962 25.5509 0.0000 0.0000 0.0000
# 3 25.7438 25.5509 64.5942 0.0000 0.0000 0.0000
# 4 0.0000 0.0000 0.0000 9.6706 0.0000 0.0000
# 5 0.0000 0.0000 0.0000 0.0000 15.1640 0.0000
# 6 0.0000 0.0000 0.0000 0.0000 0.0000 45.3266
#
#
#
# Elastic Compliance Matrix: (Units=1/GPa)
#
#
# Indices 1 2 3 4 5 6 
#
# 1 0.011807 -0.002586 -0.003683 0.000000 0.000000 0.000000
# 2 -0.002586 0.005858 -0.001286 0.000000 0.000000 0.000000
# 3 -0.003683 -0.001286 0.017458 0.000000 0.000000 0.000000
# 4 0.000000 0.000000 0.000000 0.103406 0.000000 0.000000
# 5 0.000000 0.000000 0.000000 0.000000 0.065946 0.000000
# 6 0.000000 0.000000 0.000000 0.000000 0.000000 0.022062
#
#
# Mechanical properties :
#
#
# Convention : Reuss Voigt Hill
#
# Bulk Modulus (GPa) = 49.96931 63.71692 56.84312
# Shear Modulus (GPa) = 20.13554 31.68831 25.91192
#
# Velocity S-wave (km/s) = 2.97815 3.73606 3.37843
# Velocity P-wave (km/s) = 5.81691 6.83206 6.34482
#
# Compressibility (1/GPa) = 0.02001228
#
# Stress axis : x y z
#
# Youngs Moduli (GPa) = 84.69504 170.71575 57.28075
#
# Poissons Ratio (x) = 0.44147 0.21095
# Poissons Ratio (y) = 0.21902 0.07369
# Poissons Ratio (z) = 0.31191 0.21961
#
# Static dielectric constant tensor:
#      x y z
#    x 1.834160 0.000000 0.000000 
#    y 0.000000 1.920650 0.000000 
#    z 0.000000 0.000000 1.819060 
# 
# From -- ./inp_files/20397.got.cif
#   From: 2010.05.17/outbox.cif.g08.bks.cpg/sg24_11_cif.got.tgz:20397.got - 2010.06.04 00:33:39.
