data_PCOD9333662
_publ_section_title
;
Structure prediction by ZEFSAII (Michael W. Deem and Ramdas Pophale) SiO2 
 PCOD9333662
Probable space group: I 21 21 21
;
_chemical_formula_sum "Si O2"
_cell_formula_units_Z 64
_cell_length_a 8.976821
_cell_length_b 18.369623
_cell_length_c 22.146385
_cell_angle_alpha 90.000000
_cell_angle_beta 90.000000
_cell_angle_gamma 90.000000
_cell_volume 3651.956991
_symmetry_space_group_name_H-M "I 21 21 21"
_symmetry_group_IT_number 24
_symmetry_cell_setting 'orthorhombic'
loop_
_space_group_symop_operation_xyz
x,y,z
-x,1/2-y,z
x,-y,1/2-z
1/2-x,y,-z
1/2+x,1/2+y,1/2+z
1/2-x,-y,1/2+z
1/2+x,1/2-y,-z
-x,1/2+y,1/2-z
loop_
_atom_site_type_symbol
_atom_site_label
_atom_site_fract_x
_atom_site_fract_y
_atom_site_fract_z
Si Si1 0.396065 0.952031 0.970439
Si Si2 0.976086 0.050650 0.343639
Si Si3 0.298888 0.929383 0.207452
Si Si4 0.270776 0.679717 0.149439
Si Si5 0.702622 0.963811 0.313675
Si Si6 0.041133 0.672172 0.729961
Si Si7 0.839067 0.715455 0.057688
Si Si8 0.974980 0.064844 0.598714
O O1 0.472405 0.978496 0.909468
O O2 0.348662 0.870587 0.949919
O O3 0.250000 0.988968 0.000000
O O4 0.501629 0.947165 0.028415
O O5 0.122622 0.074900 0.306698
O O6 0.867101 0.121935 0.348474
O O7 0.876787 0.984748 0.316527
O O8 0.393024 0.866995 0.242634
O O9 0.316451 0.000000 0.250000
O O10 0.379904 0.937552 0.142049
O O11 0.347544 0.686303 0.213912
O O12 0.229331 0.756177 0.119970
O O13 0.395340 0.642059 0.107714
O O14 0.634797 0.883559 0.311267
O O15 0.631524 0.006128 0.369736
O O16 0.651470 0.000000 0.250000
O O17 0.000000 0.750000 0.702517
O O18 0.000000 0.750000 0.054944
O O19 0.750000 0.744044 0.000000
#
# Coordination Sequence:
#
# PCOD9333662 Si02
#       8
#     8   8   8   8   8   8   8   8
#     4  11  22  33  49  83 113 152 201 248 285 352
#     4  11  22  34  61  80 117 150 201 258 287 346
#     4  11  20  37  60  85 109 160 199 242 311 349
#     4  10  22  34  50  75 108 167 197 242 285 343
#     4  11  19  41  58  82 111 154 209 260 298 361
#     4  11  23  37  59  86 117 149 203 252 314 370
#     4  11  22  33  45  66 115 160 205 229 285 325
#     4  10  19  36  58  71 114 151 215 239 286 348
#
# _framework density 17.524850000000001
#
# number of rings (size 3 to 8) (size 9 to 14) (size 15 to 20)
#    0.000    1.250    7.500    1.125    1.750    3.000 
#    0.000    0.000    0.000    0.000    0.000    0.000 
#   11.250    0.000    0.000    0.000    0.000    0.000 
#
# Total GULP energy -178399.117239 kJ/mol
# GULP energy per Si atom -5574.972414 kJ/mol
# Density = 1.748496 g / cm^3
# Si number density = 17.524850 Si / 1000 Ang^3
#
#
#
# Elastic Constant Matrix: (Units=GPa)
#
#
# Indices 1 2 3 4 5 6 
#
# 1 105.4537 28.0648 28.8237 0.0000 0.0000 0.0000
# 2 28.0648 76.6240 32.1102 0.0000 0.0000 0.0000
# 3 28.8237 32.1102 70.5146 0.0000 0.0000 0.0000
# 4 0.0000 0.0000 0.0000 11.3454 0.0000 0.0000
# 5 0.0000 0.0000 0.0000 0.0000 -31.8506 0.0000
# 6 0.0000 0.0000 0.0000 0.0000 0.0000 2.2101
#
#
#
# Elastic Compliance Matrix: (Units=1/GPa)
#
#
# Indices 1 2 3 4 5 6 
#
# 1 0.011102 -0.002675 -0.003320 0.000000 0.000000 0.000000
# 2 -0.002675 0.016773 -0.006544 0.000000 0.000000 0.000000
# 3 -0.003320 -0.006544 0.018519 0.000000 0.000000 0.000000
# 4 0.000000 0.000000 0.000000 0.088142 0.000000 0.000000
# 5 0.000000 0.000000 0.000000 0.000000 -0.031397 0.000000
# 6 0.000000 0.000000 0.000000 0.000000 0.000000 0.452462
#
#
# Mechanical properties :
#
#
# Convention : Reuss Voigt Hill
#
# Bulk Modulus (GPa) = 46.91563 47.84332 47.37947
# Shear Modulus (GPa) = 8.50651 7.24721 7.87686
#
# Velocity S-wave (km/s) = 2.20556 2.03577 2.12237
# Velocity P-wave (km/s) = 5.77192 5.73458 5.75328
#
# Compressibility (1/GPa) = 0.02131486
#
# Stress axis : x y z
#
# Youngs Moduli (GPa) = 90.07201 59.61940 53.99947
#
# Poissons Ratio (x) = 0.15949 0.17928
# Poissons Ratio (y) = 0.24095 0.35340
# Poissons Ratio (z) = 0.29904 0.39018
#
# Static dielectric constant tensor:
#      x y z
#    x 1.691790 0.000000 0.000000 
#    y 0.000000 1.683720 0.000000 
#    z 0.000000 0.000000 1.627460 
# 
# From -- ./inp_files/35325.got.cif
#   From: 2010.05.17/outbox.cif.g08.bks.cpg/sg24_18_cif.got.tgz:35325.got - 2010.06.04 00:33:39.
