data_PCOD9333212
_publ_section_title
;
Structure prediction by ZEFSAII (Michael W. Deem and Ramdas Pophale) SiO2 
 PCOD9333212
Probable space group: I 21 21 21
;
_chemical_formula_sum "Si O2"
_cell_formula_units_Z 44
_cell_length_a 9.346656
_cell_length_b 30.146388
_cell_length_c 7.435821
_cell_angle_alpha 90.000000
_cell_angle_beta 90.000000
_cell_angle_gamma 90.000000
_cell_volume 2095.175804
_symmetry_space_group_name_H-M "I 21 21 21"
_symmetry_group_IT_number 24
_symmetry_cell_setting 'orthorhombic'
loop_
_space_group_symop_operation_xyz
x,y,z
-x,1/2-y,z
x,-y,1/2-z
1/2-x,y,-z
1/2+x,1/2+y,1/2+z
1/2-x,-y,1/2+z
1/2+x,1/2-y,-z
-x,1/2+y,1/2-z
loop_
_atom_site_type_symbol
_atom_site_label
_atom_site_fract_x
_atom_site_fract_y
_atom_site_fract_z
Si Si1 0.750000 0.810580 0.000000
Si Si2 0.657065 0.421941 0.186646
Si Si3 0.086158 0.542523 0.475479
Si Si4 0.867924 0.864446 0.344030
Si Si5 0.500000 0.250000 0.354790
Si Si6 0.855383 0.500000 0.250000
Si Si7 0.109555 0.172934 0.896639
O O1 0.698355 0.841359 0.831910
O O2 0.881356 0.777360 0.962613
O O3 0.751708 0.458268 0.287646
O O4 0.640455 0.370231 0.229194
O O5 0.750000 0.420068 0.000000
O O6 0.494318 0.438005 0.150916
O O7 0.250000 0.527648 0.500000
O O8 0.089763 0.583415 0.331321
O O9 0.967763 0.508017 0.409972
O O10 0.750000 0.864749 0.500000
O O11 0.999008 0.840131 0.444139
O O12 0.436150 0.212755 0.226173
O O13 0.250000 0.186263 0.000000
#
# Coordination Sequence:
#
# PCOD9333212 Si02
#       7
#     4   8   8   8   4   4   8
#     4  12  28  46  64 104 140 174 238 290 348 422
#     4   8  17  36  61  90 125 172 227 276 332 414
#     4   9  19  36  63  92 128 176 227 274 340 413
#     4  10  21  46  71  93 139 186 224 283 351 414
#     4  12  28  42  66 102 140 178 234 296 344 412
#     4  10  18  36  62  96 132 164 222 294 328 400
#     4  10  22  41  71  98 129 191 232 274 350 414
#
# _framework density 21.000624999999999
#
# number of rings (size 3 to 8) (size 9 to 14) (size 15 to 20)
#    0.000    2.182    1.818    1.091    5.091    0.727 
#    1.636    5.455    0.000    0.000    0.000    0.000 
#    0.000    0.000    0.000    0.000    0.000    0.000 
#
# Total GULP energy -122549.163888 kJ/mol
# GULP energy per Si atom -5570.416540 kJ/mol
# Density = 2.095283 g / cm^3
# Si number density = 21.000625 Si / 1000 Ang^3
#
#
#
# Elastic Constant Matrix: (Units=GPa)
#
#
# Indices 1 2 3 4 5 6 
#
# 1 148.2945 59.8588 26.3493 0.0002 -0.0029 0.0000
# 2 59.8588 140.7281 56.3945 0.0008 0.0016 0.0003
# 3 26.3493 56.3945 59.3936 0.0035 0.0080 0.0022
# 4 0.0002 0.0008 0.0035 21.2180 0.0018 0.0002
# 5 -0.0029 0.0016 0.0080 0.0018 26.0763 0.0011
# 6 0.0000 0.0003 0.0022 0.0002 0.0011 32.9858
#
#
#
# Elastic Compliance Matrix: (Units=1/GPa)
#
#
# Indices 1 2 3 4 5 6 
#
# 1 0.008151 -0.003257 -0.000523 0.000000 0.000001 0.000000
# 2 -0.003257 0.012772 -0.010682 0.000001 0.000002 0.000001
# 3 -0.000523 -0.010682 0.027212 -0.000004 -0.000008 -0.000002
# 4 0.000000 0.000001 -0.000004 0.047130 -0.000003 0.000000
# 5 0.000001 0.000002 -0.000008 -0.000003 0.038349 -0.000001
# 6 0.000000 0.000001 -0.000002 0.000000 -0.000001 0.030316
#
#
# Mechanical properties :
#
#
# Convention : Reuss Voigt Hill
#
# Bulk Modulus (GPa) = 52.05764 70.40235 61.22999
# Shear Modulus (GPa) = 25.09306 29.77693 27.43500
#
# Velocity S-wave (km/s) = 3.46044 3.76960 3.61832
# Velocity P-wave (km/s) = 6.38816 7.24867 6.83198
#
# Compressibility (1/GPa) = 0.01920948
#
# Stress axis : x y z
#
# Youngs Moduli (GPa) = 122.68193 78.29568 36.74900
#
# Poissons Ratio (x) = 0.25504 0.01923
# Poissons Ratio (y) = 0.39963 0.39255
# Poissons Ratio (z) = 0.06419 0.83636
#
# Static dielectric constant tensor:
#      x y z
#    x 1.752770 0.000000 0.000000 
#    y 0.000000 1.834370 0.000000 
#    z 0.000000 0.000000 1.775030 
# 
# From -- ./inp_files/9680.got.cif
#   From: 2010.05.17/outbox.cif.g08.bks.cpg/sg24_5_cif.got.tgz:9680.got - 2010.06.04 00:33:39.
