data_PCOD9333768
_publ_section_title
;
Structure prediction by ZEFSAII (Michael W. Deem and Ramdas Pophale) SiO2 
 PCOD9333768
Probable space group: I 21 21 21
;
_chemical_formula_sum "Si O2"
_cell_formula_units_Z 60
_cell_length_a 5.549753
_cell_length_b 14.082822
_cell_length_c 31.506833
_cell_angle_alpha 90.000000
_cell_angle_beta 90.000000
_cell_angle_gamma 90.000000
_cell_volume 2462.453826
_symmetry_space_group_name_H-M "I 21 21 21"
_symmetry_group_IT_number 24
_symmetry_cell_setting 'orthorhombic'
loop_
_space_group_symop_operation_xyz
x,y,z
-x,1/2-y,z
x,-y,1/2-z
1/2-x,y,-z
1/2+x,1/2+y,1/2+z
1/2-x,-y,1/2+z
1/2+x,1/2-y,-z
-x,1/2+y,1/2-z
loop_
_atom_site_type_symbol
_atom_site_label
_atom_site_fract_x
_atom_site_fract_y
_atom_site_fract_z
Si Si1 0.051927 0.864273 0.248693
Si Si2 0.250000 0.999831 0.000000
Si Si3 0.686319 0.895532 0.129257
Si Si4 0.605683 0.153809 0.460168
Si Si5 0.340149 0.916861 0.591483
Si Si6 0.823554 0.601112 0.155294
Si Si7 0.549079 0.850087 0.279087
Si Si8 0.836964 0.881450 0.628887
O O1 0.779076 0.899936 0.257638
O O2 0.000000 0.750000 0.247308
O O3 0.163088 0.907576 0.205773
O O4 0.272230 0.886730 0.281518
O O5 0.442820 0.927829 0.020080
O O6 0.158975 0.057074 0.041355
O O7 0.733477 0.895175 0.078921
O O8 0.429710 0.854234 0.142317
O O9 0.920684 0.848583 0.148029
O O10 0.668469 0.006309 0.142201
O O11 0.500000 0.250000 0.441112
O O12 0.750000 0.192160 0.500000
O O13 0.588063 0.864739 0.604085
O O14 0.084175 0.867485 0.602590
O O15 0.335441 0.010487 0.622643
O O16 0.500000 0.750000 0.255800
O O17 0.648893 0.830370 0.326221
#
# Coordination Sequence:
#
# PCOD9333768 Si02
#       8
#     8   4   8   8   8   8   8   8
#     4  10  21  36  57  83 118 154 191 231 292 354
#     4  12  22  42  56  82 120 154 208 258 284 350
#     4  10  22  37  53  78 111 149 196 237 285 337
#     4  12  24  36  55  79 113 153 199 252 295 335
#     4  10  22  36  59  82 115 155 197 246 288 337
#     4  10  19  38  53  79 113 149 195 236 279 337
#     4  10  21  38  61  89 115 147 186 240 293 358
#     4  10  19  39  58  84 116 146 191 241 292 356
#
# _framework density 24.365942
#
# number of rings (size 3 to 8) (size 9 to 14) (size 15 to 20)
#    0.000    1.600    3.333    3.200    0.000    1.067 
#    0.000   16.000    0.000    0.000    0.000    1.867 
#    0.000    0.000    0.000    0.000    0.000    0.000 
#
# Total GULP energy -167239.277145 kJ/mol
# GULP energy per Si atom -5574.642572 kJ/mol
# Density = 2.431048 g / cm^3
# Si number density = 24.365942 Si / 1000 Ang^3
#
#
#
# Elastic Constant Matrix: (Units=GPa)
#
#
# Indices 1 2 3 4 5 6 
#
# 1 217.8893 21.7153 27.1310 0.0000 0.0000 0.0000
# 2 21.7153 62.7362 12.2047 0.0000 0.0000 0.0000
# 3 27.1310 12.2047 98.8174 0.0000 0.0000 0.0000
# 4 0.0000 0.0000 0.0000 22.0313 0.0000 0.0000
# 5 0.0000 0.0000 0.0000 0.0000 48.6248 0.0000
# 6 0.0000 0.0000 0.0000 0.0000 0.0000 6.1941
#
#
#
# Elastic Compliance Matrix: (Units=1/GPa)
#
#
# Indices 1 2 3 4 5 6 
#
# 1 0.004880 -0.001464 -0.001159 0.000000 0.000000 0.000000
# 2 -0.001464 0.016771 -0.001670 0.000000 0.000000 0.000000
# 3 -0.001159 -0.001670 0.010644 0.000000 0.000000 0.000000
# 4 0.000000 0.000000 0.000000 0.045390 0.000000 0.000000
# 5 0.000000 0.000000 0.000000 0.000000 0.020566 0.000000
# 6 0.000000 0.000000 0.000000 0.000000 0.000000 0.161444
#
#
# Mechanical properties :
#
#
# Convention : Reuss Voigt Hill
#
# Bulk Modulus (GPa) = 42.17499 55.72720 48.95109
# Shear Modulus (GPa) = 18.10401 36.59616 27.35008
#
# Velocity S-wave (km/s) = 2.72877 3.87969 3.35397
# Velocity P-wave (km/s) = 5.22253 6.55667 5.92726
#
# Compressibility (1/GPa) = 0.02371073
#
# Stress axis : x y z
#
# Youngs Moduli (GPa) = 204.93229 59.62627 93.94893
#
# Poissons Ratio (x) = 0.08727 0.10889
# Poissons Ratio (y) = 0.29993 0.15685
# Poissons Ratio (z) = 0.23751 0.09955
#
# Static dielectric constant tensor:
#      x y z
#    x 2.035440 0.000000 0.000000 
#    y 0.000000 1.983510 0.000000 
#    z 0.000000 0.000000 1.850580 
# 
# From -- ./inp_files/36580.got.cif
#   From: 2010.05.17/outbox.cif.g08.bks.cpg/sg24_19_cif.got.tgz:36580.got - 2010.06.04 00:33:39.
