data_PCOD9333280
_publ_section_title
;
Structure prediction by ZEFSAII (Michael W. Deem and Ramdas Pophale) SiO2 
 PCOD9333280
Probable space group: I 21 21 21
;
_chemical_formula_sum "Si O2"
_cell_formula_units_Z 60
_cell_length_a 7.914371
_cell_length_b 24.261724
_cell_length_c 12.472157
_cell_angle_alpha 90.000000
_cell_angle_beta 90.000000
_cell_angle_gamma 90.000000
_cell_volume 2394.857251
_symmetry_space_group_name_H-M "I 21 21 21"
_symmetry_group_IT_number 24
_symmetry_cell_setting 'orthorhombic'
loop_
_space_group_symop_operation_xyz
x,y,z
-x,1/2-y,z
x,-y,1/2-z
1/2-x,y,-z
1/2+x,1/2+y,1/2+z
1/2-x,-y,1/2+z
1/2+x,1/2-y,-z
-x,1/2+y,1/2-z
loop_
_atom_site_type_symbol
_atom_site_label
_atom_site_fract_x
_atom_site_fract_y
_atom_site_fract_z
Si Si1 0.041297 0.464200 0.996590
Si Si2 0.000000 0.250000 0.091385
Si Si3 0.690225 0.236453 0.257132
Si Si4 0.544490 0.139463 0.884371
Si Si5 0.430984 0.584520 0.944534
Si Si6 0.213816 0.611935 0.768706
Si Si7 0.342613 0.842895 0.828630
Si Si8 0.381563 0.059975 0.231089
O O1 0.951052 0.442815 0.889560
O O2 0.250000 0.466472 0.000000
O O3 0.976299 0.419510 0.082134
O O4 0.992121 0.527296 0.018146
O O5 0.822575 0.243156 0.158056
O O6 0.999839 0.189697 0.036342
O O7 0.500000 0.250000 0.222828
O O8 0.688111 0.174924 0.307477
O O9 0.752413 0.284262 0.338140
O O10 0.738821 0.125068 0.855137
O O11 0.473767 0.162762 0.771294
O O12 0.368871 0.579312 0.821336
O O13 0.563665 0.634121 0.933933
O O14 0.250000 0.596956 0.000000
O O15 0.059321 0.571945 0.790654
O O16 0.225289 0.890104 0.777837
O O17 0.305380 0.000000 0.250000
#
# Coordination Sequence:
#
# PCOD9333280 Si02
#       8
#     8   4   8   8   8   8   8   8
#     4  11  22  39  64  94 133 178 235 291 349 426
#     4   8  18  34  60  94 128 180 228 280 340 422
#     4  10  18  38  67  97 131 177 233 286 345 433
#     4   9  19  37  61  90 126 175 226 276 337 418
#     4  10  23  43  66  95 131 179 229 295 348 421
#     4  10  20  38  69  92 129 174 233 276 343 424
#     4  10  23  40  65  96 133 179 229 282 367 424
#     4  12  24  38  60  97 132 177 225 283 352 426
#
# _framework density 25.053685999999999
#
# number of rings (size 3 to 8) (size 9 to 14) (size 15 to 20)
#    0.000    1.867    2.667    2.400    1.867    1.600 
#    0.000    3.333    2.933    0.000    0.000    0.000 
#    0.000    0.000    0.000    0.000    0.000    0.000 
#
# Total GULP energy -167061.843592 kJ/mol
# GULP energy per Si atom -5568.728120 kJ/mol
# Density = 2.499666 g / cm^3
# Si number density = 25.053686 Si / 1000 Ang^3
#
#
#
# Elastic Constant Matrix: (Units=GPa)
#
#
# Indices 1 2 3 4 5 6 
#
# 1 68.2988 -4.7017 3.4259 0.0000 0.0000 0.0000
# 2 -4.7017 136.6594 32.0117 0.0000 0.0000 0.0000
# 3 3.4259 32.0117 41.0235 -0.0001 -0.0001 0.0000
# 4 0.0000 0.0000 -0.0001 23.0471 0.0000 0.0000
# 5 0.0000 0.0000 -0.0001 0.0000 20.7737 0.0000
# 6 0.0000 0.0000 0.0000 0.0000 0.0000 40.1251
#
#
#
# Elastic Compliance Matrix: (Units=1/GPa)
#
#
# Indices 1 2 3 4 5 6 
#
# 1 0.014809 0.000978 -0.002000 0.000000 0.000000 0.000000
# 2 0.000978 0.009019 -0.007119 0.000000 0.000000 0.000000
# 3 -0.002000 -0.007119 0.030099 0.000000 0.000000 0.000000
# 4 0.000000 0.000000 0.000000 0.043389 0.000000 0.000000
# 5 0.000000 0.000000 0.000000 0.000000 0.048138 0.000000
# 6 0.000000 0.000000 0.000000 0.000000 0.000000 0.024922
#
#
# Mechanical properties :
#
#
# Convention : Reuss Voigt Hill
#
# Bulk Modulus (GPa) = 26.56447 34.16151 30.36299
# Shear Modulus (GPa) = 25.09965 31.13891 28.11928
#
# Velocity S-wave (km/s) = 3.16861 3.52929 3.35380
# Velocity P-wave (km/s) = 4.90029 5.50207 5.20987
#
# Compressibility (1/GPa) = 0.03764426
#
# Stress axis : x y z
#
# Youngs Moduli (GPa) = 67.52564 110.88011 33.22414
#
# Poissons Ratio (x) = -0.10844 0.06644
# Poissons Ratio (y) = -0.06604 0.23653
# Poissons Ratio (z) = 0.13504 0.78938
#
# Static dielectric constant tensor:
#      x y z
#    x 2.089260 0.000000 0.000000 
#    y 0.000000 2.059320 0.000000 
#    z 0.000000 0.000000 2.162800 
# 
# From -- ./inp_files/25189.got.cif
#   From: 2010.05.17/outbox.cif.g08.bks.cpg/sg24_13_cif.got.tgz:25189.got - 2010.06.04 00:33:39.
