data_PCOD9333572
_publ_section_title
;
Structure prediction by ZEFSAII (Michael W. Deem and Ramdas Pophale) SiO2 
 PCOD9333572
Probable space group: I 21 21 21
;
_chemical_formula_sum "Si O2"
_cell_formula_units_Z 28
_cell_length_a 20.080969
_cell_length_b 5.067938
_cell_length_c 10.999632
_cell_angle_alpha 90.000000
_cell_angle_beta 90.000000
_cell_angle_gamma 90.000000
_cell_volume 1119.422714
_symmetry_space_group_name_H-M "I 21 21 21"
_symmetry_group_IT_number 24
_symmetry_cell_setting 'orthorhombic'
loop_
_space_group_symop_operation_xyz
x,y,z
-x,1/2-y,z
x,-y,1/2-z
1/2-x,y,-z
1/2+x,1/2+y,1/2+z
1/2-x,-y,1/2+z
1/2+x,1/2-y,-z
-x,1/2+y,1/2-z
loop_
_atom_site_type_symbol
_atom_site_label
_atom_site_fract_x
_atom_site_fract_y
_atom_site_fract_z
Si Si1 0.124003 0.457308 0.927983
Si Si2 0.571033 0.359316 0.863362
Si Si3 0.500000 0.250000 0.451262
Si Si4 0.791694 0.526260 0.879832
O O1 0.051854 0.559484 0.885882
O O2 0.177316 0.687145 0.906890
O O3 0.150225 0.192172 0.866671
O O4 0.111822 0.368252 0.068579
O O5 0.500000 0.250000 0.817929
O O6 0.604379 0.500000 0.750000
O O7 0.548210 0.570120 0.964960
O O8 0.755686 0.500000 0.750000
O O9 0.750000 0.453173 0.000000
#
# Coordination Sequence:
#
# PCOD9333572 Si02
#       4
#     8   8   4   8
#     4  11  24  45  75 107 154 195 250 324 394 469
#     4  10  19  34  64 106 158 204 248 303 377 465
#     4  10  20  42  68 110 158 194 254 302 396 468
#     4  12  28  54  78 107 148 202 270 334 389 461
#
# _framework density 25.012892999999998
#
# number of rings (size 3 to 8) (size 9 to 14) (size 15 to 20)
#    0.000    1.143    4.286    1.714    0.000    1.143 
#    5.143    2.857    3.143    0.000    0.000    0.000 
#    0.000    0.000    0.000    0.000    0.000    0.000 
#
# Total GULP energy -78292.211134 kJ/mol
# GULP energy per Si atom -5592.300795 kJ/mol
# Density = 2.495596 g / cm^3
# Si number density = 25.012893 Si / 1000 Ang^3
#
#
#
# Elastic Constant Matrix: (Units=GPa)
#
#
# Indices 1 2 3 4 5 6 
#
# 1 69.8229 39.2982 62.5066 0.0000 0.0000 0.0000
# 2 39.2982 161.8388 44.2354 0.0000 0.0000 0.0000
# 3 62.5066 44.2354 173.9154 0.0000 0.0000 0.0000
# 4 0.0000 0.0000 0.0000 37.7945 0.0000 0.0000
# 5 0.0000 0.0000 0.0000 0.0000 11.8108 0.0000
# 6 0.0000 0.0000 0.0000 0.0000 0.0000 14.4463
#
#
#
# Elastic Compliance Matrix: (Units=1/GPa)
#
#
# Indices 1 2 3 4 5 6 
#
# 1 0.022872 -0.003554 -0.007316 0.000000 0.000000 0.000000
# 2 -0.003554 0.007193 -0.000552 0.000000 0.000000 0.000000
# 3 -0.007316 -0.000552 0.008520 0.000000 0.000000 0.000000
# 4 0.000000 0.000000 0.000000 0.026459 0.000000 0.000000
# 5 0.000000 0.000000 0.000000 0.000000 0.084668 0.000000
# 6 0.000000 0.000000 0.000000 0.000000 0.000000 0.069222
#
#
# Mechanical properties :
#
#
# Convention : Reuss Voigt Hill
#
# Bulk Modulus (GPa) = 63.53397 77.51754 70.52575
# Shear Modulus (GPa) = 20.24080 30.11277 25.17678
#
# Velocity S-wave (km/s) = 2.84776 3.47348 3.17606
# Velocity P-wave (km/s) = 6.02234 6.86622 6.45808
#
# Compressibility (1/GPa) = 0.01573961
#
# Stress axis : x y z
#
# Youngs Moduli (GPa) = 43.72148 139.02559 117.37160
#
# Poissons Ratio (x) = 0.49411 0.85874
# Poissons Ratio (y) = 0.15539 0.06481
# Poissons Ratio (z) = 0.31988 0.07676
#
# Static dielectric constant tensor:
#      x y z
#    x 1.979040 0.000000 0.000000 
#    y 0.000000 2.022570 0.000000 
#    z 0.000000 0.000000 2.085880 
# 
# From -- ./inp_files/17322.got.cif
#   From: 2010.05.17/outbox.cif.g08.bks.cpg/sg24_9_cif.got.tgz:17322.got - 2010.06.04 00:33:39.
