data_PCOD9333589
_publ_section_title
;
Structure prediction by ZEFSAII (Michael W. Deem and Ramdas Pophale) SiO2 
 PCOD9333589
Probable space group: I 21 21 21
;
_chemical_formula_sum "Si O2"
_cell_formula_units_Z 48
_cell_length_a 15.823688
_cell_length_b 8.430166
_cell_length_c 18.159629
_cell_angle_alpha 90.000000
_cell_angle_beta 90.000000
_cell_angle_gamma 90.000000
_cell_volume 2422.427619
_symmetry_space_group_name_H-M "I 21 21 21"
_symmetry_group_IT_number 24
_symmetry_cell_setting 'orthorhombic'
loop_
_space_group_symop_operation_xyz
x,y,z
-x,1/2-y,z
x,-y,1/2-z
1/2-x,y,-z
1/2+x,1/2+y,1/2+z
1/2-x,-y,1/2+z
1/2+x,1/2-y,-z
-x,1/2+y,1/2-z
loop_
_atom_site_type_symbol
_atom_site_label
_atom_site_fract_x
_atom_site_fract_y
_atom_site_fract_z
Si Si1 0.302813 0.619585 0.424640
Si Si2 0.830783 0.701704 0.047912
Si Si3 0.094098 0.304490 0.315197
Si Si4 0.449682 0.600560 0.052206
Si Si5 0.630670 0.830717 0.652360
Si Si6 0.406463 0.128609 0.990536
O O1 0.250000 0.582415 0.500000
O O2 0.370862 0.482544 0.406673
O O3 0.269490 0.653120 0.634687
O O4 0.358083 0.772569 0.446852
O O5 0.832427 0.731905 0.134093
O O6 0.850609 0.519537 0.034072
O O7 0.750000 0.741213 0.000000
O O8 0.905855 0.811677 0.016704
O O9 0.110833 0.254060 0.231004
O O10 0.097424 0.491508 0.333286
O O11 0.000000 0.250000 0.334910
O O12 0.500000 0.750000 0.088597
O O13 0.510529 0.458599 0.023607
O O14 0.590765 0.741251 0.581937
#
# Coordination Sequence:
#
# PCOD9333589 Si02
#       6
#     8   8   8   8   8   8
#     4  10  19  35  56  78 111 154 194 233 280 336
#     4  11  21  36  56  84 116 150 189 233 282 339
#     4  11  24  38  56  84 115 150 184 223 279 336
#     4  10  20  32  55  87 115 143 186 241 288 330
#     4  10  23  40  55  80 116 155 189 227 278 341
#     4  10  21  36  56  84 114 148 192 239 282 330
#
# _framework density 19.814833
#
# number of rings (size 3 to 8) (size 9 to 14) (size 15 to 20)
#    0.000    1.667    0.000    7.000    0.000   10.000 
#    0.000    0.000    0.000    0.000    0.000   46.667 
#    0.000    0.000    0.000    0.000    0.000    0.000 
#
# Total GULP energy -133848.483139 kJ/mol
# GULP energy per Si atom -5577.020131 kJ/mol
# Density = 1.976973 g / cm^3
# Si number density = 19.814833 Si / 1000 Ang^3
#
#
#
# Elastic Constant Matrix: (Units=GPa)
#
#
# Indices 1 2 3 4 5 6 
#
# 1 137.3438 53.4302 44.4284 0.0000 0.0000 0.0000
# 2 53.4302 97.2112 15.2809 0.0000 0.0000 0.0000
# 3 44.4284 15.2809 63.6668 0.0000 0.0000 0.0000
# 4 0.0000 0.0000 0.0000 18.3729 0.0000 0.0000
# 5 0.0000 0.0000 0.0000 0.0000 21.0413 0.0000
# 6 0.0000 0.0000 0.0000 0.0000 0.0000 34.4371
#
#
#
# Elastic Compliance Matrix: (Units=1/GPa)
#
#
# Indices 1 2 3 4 5 6 
#
# 1 0.011522 -0.005268 -0.006776 0.000000 0.000000 0.000000
# 2 -0.005268 0.013099 0.000532 0.000000 0.000000 0.000000
# 3 -0.006776 0.000532 0.020308 0.000000 0.000000 0.000000
# 4 0.000000 0.000000 0.000000 0.054428 0.000000 0.000000
# 5 0.000000 0.000000 0.000000 0.000000 0.047526 0.000000
# 6 0.000000 0.000000 0.000000 0.000000 0.000000 0.029038
#
#
# Mechanical properties :
#
#
# Convention : Reuss Voigt Hill
#
# Bulk Modulus (GPa) = 45.65201 58.27786 51.96494
# Shear Modulus (GPa) = 24.24291 27.10909 25.67600
#
# Velocity S-wave (km/s) = 3.50161 3.70282 3.60362
# Velocity P-wave (km/s) = 6.27995 6.91059 6.60280
#
# Compressibility (1/GPa) = 0.02190484
#
# Stress axis : x y z
#
# Youngs Moduli (GPa) = 86.78814 76.34411 49.24250
#
# Poissons Ratio (x) = 0.40217 0.33368
# Poissons Ratio (y) = 0.45719 -0.02621
# Poissons Ratio (z) = 0.58810 -0.04063
#
# Static dielectric constant tensor:
#      x y z
#    x 1.760130 0.000000 0.000000 
#    y 0.000000 1.749810 0.000000 
#    z 0.000000 0.000000 1.696200 
# 
# From -- ./inp_files/31080.got.cif
#   From: 2010.05.17/outbox.cif.g08.bks.cpg/sg24_16_cif.got.tgz:31080.got - 2010.06.04 00:33:39.
