data_PCOD9333174
_publ_section_title
;
Structure prediction by ZEFSAII (Michael W. Deem and Ramdas Pophale) SiO2 
 PCOD9333174
Probable space group: I 21 21 21
;
_chemical_formula_sum "Si O2"
_cell_formula_units_Z 56
_cell_length_a 11.571998
_cell_length_b 23.049987
_cell_length_c 10.177102
_cell_angle_alpha 90.000000
_cell_angle_beta 90.000000
_cell_angle_gamma 90.000000
_cell_volume 2714.583231
_symmetry_space_group_name_H-M "I 21 21 21"
_symmetry_group_IT_number 24
_symmetry_cell_setting 'orthorhombic'
loop_
_space_group_symop_operation_xyz
x,y,z
-x,1/2-y,z
x,-y,1/2-z
1/2-x,y,-z
1/2+x,1/2+y,1/2+z
1/2-x,-y,1/2+z
1/2+x,1/2-y,-z
-x,1/2+y,1/2-z
loop_
_atom_site_type_symbol
_atom_site_label
_atom_site_fract_x
_atom_site_fract_y
_atom_site_fract_z
Si Si1 0.479292 0.810788 0.898794
Si Si2 0.387895 0.923418 0.009601
Si Si3 0.117871 0.953458 0.446970
Si Si4 0.066815 0.101910 0.793409
Si Si5 0.408438 0.302039 0.140309
Si Si6 0.685351 0.659614 0.690882
Si Si7 0.644470 0.783781 0.649792
O O1 0.500000 0.750000 0.973229
O O2 0.352401 0.815845 0.831983
O O3 0.566015 0.803995 0.772940
O O4 0.474466 0.870669 0.976099
O O5 0.407279 0.935020 0.164240
O O6 0.250000 0.909888 0.000000
O O7 0.410985 0.979784 0.919083
O O8 0.250000 0.956445 0.500000
O O9 0.048127 0.933933 0.574586
O O10 0.119711 0.900400 0.344257
O O11 0.181213 0.142310 0.817047
O O12 0.960047 0.144426 0.781057
O O13 0.500000 0.250000 0.154717
O O14 0.278313 0.290356 0.185595
O O15 0.393068 0.315183 0.983936
O O16 0.643122 0.714939 0.607111
#
# Coordination Sequence:
#
# PCOD9333174 Si02
#       7
#     8   8   8   8   8   8   8
#     4  10  21  38  55  81 120 163 192 233 289 354
#     4  11  22  38  55  84 125 161 202 238 292 366
#     4   9  20  32  57  90 116 149 187 253 317 358
#     4  11  20  34  56  86 119 155 196 244 299 355
#     4  11  20  33  58  89 120 153 193 244 311 355
#     4  10  18  35  58  84 123 146 187 251 309 348
#     4  10  21  35  57  89 124 151 194 249 301 366
#
# _framework density 20.629315999999999
#
# number of rings (size 3 to 8) (size 9 to 14) (size 15 to 20)
#    0.000    1.714    2.857    3.429    4.000    1.143 
#    0.000    0.714    0.000    0.000   26.000    0.000 
#    0.000    0.000    0.000    0.000    0.000    0.000 
#
# Total GULP energy -155891.534321 kJ/mol
# GULP energy per Si atom -5567.554797 kJ/mol
# Density = 2.058236 g / cm^3
# Si number density = 20.629316 Si / 1000 Ang^3
#
#
#
# Elastic Constant Matrix: (Units=GPa)
#
#
# Indices 1 2 3 4 5 6 
#
# 1 93.5965 34.8427 9.5809 0.0000 0.0000 0.0000
# 2 34.8427 145.1535 25.3452 0.0001 0.0000 0.0000
# 3 9.5809 25.3452 25.0000 0.0006 -0.0002 -0.0001
# 4 0.0000 0.0001 0.0006 30.9847 0.0000 0.0000
# 5 0.0000 0.0000 -0.0002 0.0000 17.0822 0.0000
# 6 0.0000 0.0000 -0.0001 0.0000 0.0000 25.4987
#
#
#
# Elastic Compliance Matrix: (Units=1/GPa)
#
#
# Indices 1 2 3 4 5 6 
#
# 1 0.011815 -0.002485 -0.002008 0.000000 0.000000 0.000000
# 2 -0.002485 0.008894 -0.008064 0.000000 0.000000 0.000000
# 3 -0.002008 -0.008064 0.048945 -0.000001 0.000001 0.000000
# 4 0.000000 0.000000 -0.000001 0.032274 0.000000 0.000000
# 5 0.000000 0.000000 0.000001 0.000000 0.058540 0.000000
# 6 0.000000 0.000000 0.000000 0.000000 0.000000 0.039218
#
#
# Mechanical properties :
#
#
# Convention : Reuss Voigt Hill
#
# Bulk Modulus (GPa) = 22.45252 44.80973 33.63112
# Shear Modulus (GPa) = 20.86393 27.64521 24.25457
#
# Velocity S-wave (km/s) = 3.18366 3.66470 3.43262
# Velocity P-wave (km/s) = 4.94183 6.29883 5.66114
#
# Compressibility (1/GPa) = 0.04453844
#
# Stress axis : x y z
#
# Youngs Moduli (GPa) = 84.63843 112.43580 20.43099
#
# Poissons Ratio (x) = 0.27945 0.04103
# Poissons Ratio (y) = 0.21036 0.16476
# Poissons Ratio (z) = 0.16997 0.90671
#
# Static dielectric constant tensor:
#      x y z
#    x 1.722140 0.000000 0.000000 
#    y 0.000000 1.846000 0.000000 
#    z 0.000000 0.000000 1.837000 
# 
# From -- ./inp_files/19943.got.cif
#   From: 2010.05.17/outbox.cif.g08.bks.cpg/sg24_10_cif.got.tgz:19943.got - 2010.06.04 00:33:39.
