data_PCOD9333655
_publ_section_title
;
Structure prediction by ZEFSAII (Michael W. Deem and Ramdas Pophale) SiO2 
 PCOD9333655
Probable space group: I 21 21 21
;
_chemical_formula_sum "Si O2"
_cell_formula_units_Z 60
_cell_length_a 17.415157
_cell_length_b 5.559515
_cell_length_c 26.244153
_cell_angle_alpha 90.000000
_cell_angle_beta 90.000000
_cell_angle_gamma 90.000000
_cell_volume 2540.954342
_symmetry_space_group_name_H-M "I 21 21 21"
_symmetry_group_IT_number 24
_symmetry_cell_setting 'orthorhombic'
loop_
_space_group_symop_operation_xyz
x,y,z
-x,1/2-y,z
x,-y,1/2-z
1/2-x,y,-z
1/2+x,1/2+y,1/2+z
1/2-x,-y,1/2+z
1/2+x,1/2-y,-z
-x,1/2+y,1/2-z
loop_
_atom_site_type_symbol
_atom_site_label
_atom_site_fract_x
_atom_site_fract_y
_atom_site_fract_z
Si Si1 0.000000 0.750000 0.559660
Si Si2 0.705891 0.253406 0.235110
Si Si3 0.413605 0.345830 0.404827
Si Si4 0.365421 0.296913 0.609720
Si Si5 0.382050 0.747753 0.775338
Si Si6 0.399024 0.089818 0.506821
Si Si7 0.788247 0.485312 0.872100
Si Si8 0.717897 0.804438 0.547715
O O1 0.065718 0.628877 0.594472
O O2 0.966154 0.555684 0.520811
O O3 0.663702 0.500000 0.250000
O O4 0.788416 0.250659 0.265103
O O5 0.717997 0.303826 0.175530
O O6 0.669166 0.000000 0.250000
O O7 0.500000 0.250000 0.394777
O O8 0.383962 0.282952 0.462162
O O9 0.354606 0.189224 0.370974
O O10 0.402074 0.284694 0.665336
O O11 0.414274 0.202933 0.561992
O O12 0.332434 0.548246 0.588241
O O13 0.290505 0.131861 0.619686
O O14 0.408927 0.500000 0.750000
O O15 0.407848 0.000000 0.750000
O O16 0.332475 0.902542 0.521331
O O17 0.786624 0.315414 0.921160
O O18 0.750000 0.955602 0.500000
#
# Coordination Sequence:
#
# PCOD9333655 Si02
#       8
#     4   8   8   8   8   8   8   8
#     4  10  22  42  62  78 130 182 230 280 316 400
#     4  10  19  36  56  86 124 166 206 258 330 409
#     4  10  22  40  58  85 122 168 228 271 321 398
#     4  11  23  32  58  90 128 164 213 261 335 411
#     4  10  19  36  54  83 129 164 201 255 322 407
#     4  10  22  39  55  86 124 167 218 264 324 397
#     4  11  22  36  58  88 127 173 215 271 337 417
#     4  11  22  34  56  88 128 166 204 268 340 406
#
# _framework density 23.613174000000001
#
# number of rings (size 3 to 8) (size 9 to 14) (size 15 to 20)
#    0.000    1.600    4.000    2.400    5.600    0.000 
#    0.000    0.000    0.000    0.000    0.000    1.867 
#   10.000    0.000    0.000    0.000    0.000    0.000 
#
# Total GULP energy -167244.036179 kJ/mol
# GULP energy per Si atom -5574.801206 kJ/mol
# Density = 2.355943 g / cm^3
# Si number density = 23.613174 Si / 1000 Ang^3
#
#
#
# Elastic Constant Matrix: (Units=GPa)
#
#
# Indices 1 2 3 4 5 6 
#
# 1 71.3479 13.2588 -18.5706 0.0000 0.0000 0.0000
# 2 13.2588 136.6090 25.8042 0.0000 0.0000 0.0000
# 3 -18.5706 25.8042 122.6935 0.0000 0.0000 0.0000
# 4 0.0000 0.0000 0.0000 28.0078 0.0000 0.0000
# 5 0.0000 0.0000 0.0000 0.0000 -8.4626 0.0000
# 6 0.0000 0.0000 0.0000 0.0000 0.0000 20.2540
#
#
#
# Elastic Compliance Matrix: (Units=1/GPa)
#
#
# Indices 1 2 3 4 5 6 
#
# 1 0.015085 -0.001974 0.002698 0.000000 0.000000 0.000000
# 2 -0.001974 0.007881 -0.001956 0.000000 0.000000 0.000000
# 3 0.002698 -0.001956 0.008970 0.000000 0.000000 0.000000
# 4 0.000000 0.000000 0.000000 0.035704 0.000000 0.000000
# 5 0.000000 0.000000 0.000000 0.000000 -0.118167 0.000000
# 6 0.000000 0.000000 0.000000 0.000000 0.000000 0.049373
#
#
# Mechanical properties :
#
#
# Convention : Reuss Voigt Hill
#
# Bulk Modulus (GPa) = 33.92936 41.29278 37.61107
# Shear Modulus (GPa) = 449.05104 28.63704 238.84404
#
# Velocity S-wave (km/s) = 13.80516 3.48624 10.06818
# Velocity P-wave (km/s) = 16.38628 5.80778 12.29310
#
# Compressibility (1/GPa) = 0.02947300
#
# Stress axis : x y z
#
# Youngs Moduli (GPa) = 66.29118 126.88331 111.47967
#
# Poissons Ratio (x) = 0.25044 -0.30081
# Poissons Ratio (y) = 0.13084 0.21809
# Poissons Ratio (z) = -0.17888 0.24822
#
# Static dielectric constant tensor:
#      x y z
#    x 1.926170 0.000000 0.000000 
#    y 0.000000 2.062940 0.000000 
#    z 0.000000 0.000000 1.961340 
# 
# From -- ./inp_files/37530.got.cif
#   From: 2010.05.17/outbox.cif.g08.bks.cpg/sg24_19_cif.got.tgz:37530.got - 2010.06.04 00:33:39.
