data_PCOD9333516
_publ_section_title
;
Structure prediction by ZEFSAII (Michael W. Deem and Ramdas Pophale) SiO2 
 PCOD9333516
Probable space group: I 21 21 21
;
_chemical_formula_sum "Si O2"
_cell_formula_units_Z 36
_cell_length_a 32.581084
_cell_length_b 11.382157
_cell_length_c 5.110281
_cell_angle_alpha 90.000000
_cell_angle_beta 90.000000
_cell_angle_gamma 90.000000
_cell_volume 1895.112005
_symmetry_space_group_name_H-M "I 21 21 21"
_symmetry_group_IT_number 24
_symmetry_cell_setting 'orthorhombic'
loop_
_space_group_symop_operation_xyz
x,y,z
-x,1/2-y,z
x,-y,1/2-z
1/2-x,y,-z
1/2+x,1/2+y,1/2+z
1/2-x,-y,1/2+z
1/2+x,1/2-y,-z
-x,1/2+y,1/2-z
loop_
_atom_site_type_symbol
_atom_site_label
_atom_site_fract_x
_atom_site_fract_y
_atom_site_fract_z
Si Si1 0.632442 0.138479 0.770644
Si Si2 0.656142 0.290004 0.270374
Si Si3 0.779054 0.500000 0.750000
Si Si4 0.932117 0.379524 0.645938
Si Si5 0.547729 0.256385 0.854218
O O1 0.651367 0.206949 0.523287
O O2 0.582677 0.159513 0.788425
O O3 0.640387 0.000000 0.750000
O O4 0.651691 0.204108 0.021689
O O5 0.693451 0.381383 0.263603
O O6 0.615540 0.370528 0.281648
O O7 0.750000 0.505870 0.500000
O O8 0.950467 0.500000 0.750000
O O9 0.936993 0.360327 0.338619
O O10 0.950506 0.279397 0.835316
O O11 0.500000 0.250000 0.782426
#
# Coordination Sequence:
#
# PCOD9333516 Si02
#       5
#     8   8   4   8   8
#     4  10  21  37  61  84 118 168 207 241 283 356
#     4  10  21  39  60  88 120 147 201 237 295 369
#     4  12  24  40  68  98 124 146 182 260 324 360
#     4  10  19  34  55  76 106 150 184 237 293 343
#     4  10  21  34  50  81 116 148 203 247 294 332
#
# _framework density 18.99624
#
# number of rings (size 3 to 8) (size 9 to 14) (size 15 to 20)
#    0.000    1.778    1.111    3.333    0.000    1.778 
#    0.000    0.000    0.000   13.333    0.000    0.000 
#    0.000    0.000    0.000    0.000    0.000    0.000 
#
# Total GULP energy -100246.064379 kJ/mol
# GULP energy per Si atom -5569.225799 kJ/mol
# Density = 1.895300 g / cm^3
# Si number density = 18.996240 Si / 1000 Ang^3
#
#
#
# Elastic Constant Matrix: (Units=GPa)
#
#
# Indices 1 2 3 4 5 6 
#
# 1 122.5585 52.9179 42.1672 0.0000 0.0001 0.0001
# 2 52.9179 132.8003 46.2958 -0.0039 -0.0012 0.0013
# 3 42.1672 46.2958 134.9169 -0.0046 -0.0014 0.0032
# 4 0.0000 -0.0039 -0.0046 9.6818 -0.0010 0.0018
# 5 0.0001 -0.0012 -0.0014 -0.0010 16.4152 0.0009
# 6 0.0001 0.0013 0.0032 0.0018 0.0009 -1.7978
#
#
#
# Elastic Compliance Matrix: (Units=1/GPa)
#
#
# Indices 1 2 3 4 5 6 
#
# 1 0.010337 -0.003400 -0.002064 -0.000002 0.000000 -0.000006
# 2 -0.003400 0.009671 -0.002256 0.000003 0.000001 0.000003
# 3 -0.002064 -0.002256 0.008831 0.000003 0.000001 0.000014
# 4 -0.000002 0.000003 0.000003 0.103287 0.000006 0.000105
# 5 0.000000 0.000001 0.000001 0.000006 0.060919 0.000030
# 6 -0.000006 0.000003 0.000014 0.000105 0.000030 -0.556235
#
#
# Mechanical properties :
#
#
# Convention : Reuss Voigt Hill
#
# Bulk Modulus (GPa) = 74.62701 74.78195 74.70448
# Shear Modulus (GPa) = -14.56529 21.45282 3.44377
#
# Velocity S-wave (km/s) = -2.77202 3.36418 1.34789
# Velocity P-wave (km/s) = 5.39675 7.38529 6.46790
#
# Compressibility (1/GPa) = 0.01339997
#
# Stress axis : x y z
#
# Youngs Moduli (GPa) = 96.73522 103.39899 113.23317
#
# Poissons Ratio (x) = 0.35151 0.23375
# Poissons Ratio (y) = 0.32886 0.25547
# Poissons Ratio (z) = 0.19970 0.23328
#
# Static dielectric constant tensor:
#      x y z
#    x 1.665980 0.000000 0.000000 
#    y 0.000000 1.674950 0.000000 
#    z 0.000000 0.000000 1.660280 
# 
# From -- ./inp_files/7588.got.cif
#   From: 2010.05.17/outbox.cif.g08.bks.cpg/sg24_4_cif.got.tgz:7588.got - 2010.06.04 00:33:39.
