data_PCOD9333607
_publ_section_title
;
Structure prediction by ZEFSAII (Michael W. Deem and Ramdas Pophale) SiO2 
 PCOD9333607
Probable space group: I 21 21 21
;
_chemical_formula_sum "Si O2"
_cell_formula_units_Z 60
_cell_length_a 29.179715
_cell_length_b 16.308797
_cell_length_c 5.216079
_cell_angle_alpha 90.000000
_cell_angle_beta 90.000000
_cell_angle_gamma 90.000000
_cell_volume 2482.259224
_symmetry_space_group_name_H-M "I 21 21 21"
_symmetry_group_IT_number 24
_symmetry_cell_setting 'orthorhombic'
loop_
_space_group_symop_operation_xyz
x,y,z
-x,1/2-y,z
x,-y,1/2-z
1/2-x,y,-z
1/2+x,1/2+y,1/2+z
1/2-x,-y,1/2+z
1/2+x,1/2-y,-z
-x,1/2+y,1/2-z
loop_
_atom_site_type_symbol
_atom_site_label
_atom_site_fract_x
_atom_site_fract_y
_atom_site_fract_z
Si Si1 0.825045 0.691608 0.895476
Si Si2 0.011479 0.338042 0.521827
Si Si3 0.379734 0.793282 0.605794
Si Si4 0.543137 0.090808 0.981417
Si Si5 0.302010 0.382027 0.440462
Si Si6 0.360524 0.599945 0.558998
Si Si7 0.444820 0.920666 0.346435
Si Si8 0.750000 0.444016 0.500000
O O1 0.866243 0.691309 0.100919
O O2 0.803163 0.782048 0.932625
O O3 0.792442 0.617349 0.966368
O O4 0.840788 0.682397 0.602211
O O5 0.040571 0.382731 0.310994
O O6 0.037678 0.340610 0.794022
O O7 0.000000 0.250000 0.417796
O O8 0.963090 0.376957 0.591965
O O9 0.380017 0.694554 0.569032
O O10 0.421269 0.851857 0.518826
O O11 0.664736 0.088884 0.670043
O O12 0.592876 0.051016 0.005899
O O13 0.493232 0.048925 0.025921
O O14 0.250000 0.408236 0.500000
O O15 0.323489 0.407387 0.167763
O O16 0.417247 0.000000 0.250000
O O17 0.755136 0.500000 0.250000
#
# Coordination Sequence:
#
# PCOD9333607 Si02
#       8
#     8   8   8   8   8   8   8   4
#     4  10  22  39  53  78 105 142 191 245 294 342
#     4  10  21  35  60  81 111 156 199 242 291 342
#     4  10  22  35  58  81 109 147 193 243 289 341
#     4  10  22  37  57  83 117 154 196 240 287 348
#     4  10  19  35  58  82 116 145 175 235 302 354
#     4  10  20  33  56  88 114 146 195 233 286 349
#     4  10  25  41  58  85 122 163 199 248 298 349
#     4  12  24  38  58  72  98 144 200 246 294 354
#
# _framework density 24.171531000000002
#
# number of rings (size 3 to 8) (size 9 to 14) (size 15 to 20)
#    0.800    1.067    0.667    3.200    3.733    3.200 
#    0.000    0.000    0.000    0.000    0.000    0.000 
#    0.000    2.133    0.000    0.000    0.000    0.000 
#
# Total GULP energy -167521.376872 kJ/mol
# GULP energy per Si atom -5584.045896 kJ/mol
# Density = 2.411652 g / cm^3
# Si number density = 24.171531 Si / 1000 Ang^3
#
#
#
# Elastic Constant Matrix: (Units=GPa)
#
#
# Indices 1 2 3 4 5 6 
#
# 1 85.2703 -1.2291 -0.1393 0.0000 0.0000 0.0000
# 2 -1.2291 70.3909 -4.8965 0.0000 0.0000 0.0000
# 3 -0.1393 -4.8965 85.2150 -0.0001 0.0001 0.0001
# 4 0.0000 0.0000 -0.0001 24.4268 0.0000 0.0000
# 5 0.0000 0.0000 0.0001 0.0000 24.3153 0.0000
# 6 0.0000 0.0000 0.0001 0.0000 0.0000 -4.0372
#
#
#
# Elastic Compliance Matrix: (Units=1/GPa)
#
#
# Indices 1 2 3 4 5 6 
#
# 1 0.011730 0.000207 0.000031 0.000000 0.000000 0.000000
# 2 0.000207 0.014267 0.000820 0.000000 0.000000 0.000000
# 3 0.000031 0.000820 0.011782 0.000000 0.000000 0.000000
# 4 0.000000 0.000000 0.000000 0.040939 0.000000 0.000000
# 5 0.000000 0.000000 0.000000 0.000000 0.041126 0.000000
# 6 0.000000 0.000000 0.000000 0.000000 0.000000 -0.247694
#
#
# Mechanical properties :
#
#
# Convention : Reuss Voigt Hill
#
# Bulk Modulus (GPa) = 25.06511 25.37180 25.21845
# Shear Modulus (GPa) = -42.85710 25.41705 -8.72003
#
# Velocity S-wave (km/s) = -4.21532 3.24625 -1.90142
# Velocity P-wave (km/s) = 3.64687 4.95683 2.37387
#
# Compressibility (1/GPa) = 0.03989610
#
# Stress axis : x y z
#
# Youngs Moduli (GPa) = 85.24823 70.09157 84.87376
#
# Poissons Ratio (x) = -0.01451 -0.00264
# Poissons Ratio (y) = -0.01765 -0.06961
# Poissons Ratio (z) = -0.00265 -0.05748
#
# Static dielectric constant tensor:
#      x y z
#    x 1.962680 0.000000 0.000000 
#    y 0.000000 2.732260 0.000000 
#    z 0.000000 0.000000 1.869840 
# 
# From -- ./inp_files/7278.got.cif
#   From: 2010.05.17/outbox.cif.g08.bks.cpg/sg24_4_cif.got.tgz:7278.got - 2010.06.04 00:33:39.
