data_PCOD9333997
_publ_section_title
;
Structure prediction by ZEFSAII (Michael W. Deem and Ramdas Pophale) SiO2 
 PCOD9333997
Probable space group: I 21 21 21
;
_chemical_formula_sum "Si O2"
_cell_formula_units_Z 56
_cell_length_a 21.605550
_cell_length_b 8.825882
_cell_length_c 14.770682
_cell_angle_alpha 90.000000
_cell_angle_beta 90.000000
_cell_angle_gamma 90.000000
_cell_volume 2816.592324
_symmetry_space_group_name_H-M "I 21 21 21"
_symmetry_group_IT_number 24
_symmetry_cell_setting 'orthorhombic'
loop_
_space_group_symop_operation_xyz
x,y,z
-x,1/2-y,z
x,-y,1/2-z
1/2-x,y,-z
1/2+x,1/2+y,1/2+z
1/2-x,-y,1/2+z
1/2+x,1/2-y,-z
-x,1/2+y,1/2-z
loop_
_atom_site_type_symbol
_atom_site_label
_atom_site_fract_x
_atom_site_fract_y
_atom_site_fract_z
Si Si1 0.864234 0.932281 0.845221
Si Si2 0.772639 0.895950 0.099667
Si Si3 0.714507 0.568848 0.845979
Si Si4 0.110206 0.573056 0.462100
Si Si5 0.112980 0.932968 0.466151
Si Si6 0.863247 0.573150 0.845319
Si Si7 0.997814 0.430969 0.350106
O O1 0.789459 0.953003 0.852380
O O2 0.876006 0.752449 0.848215
O O3 0.885863 0.000000 0.750000
O O4 0.890784 0.011818 0.934711
O O5 0.799284 0.748121 0.148698
O O6 0.824577 0.020337 0.081678
O O7 0.750000 0.841797 0.000000
O O8 0.694667 0.500000 0.750000
O O9 0.679107 0.483501 0.925732
O O10 0.788661 0.554173 0.852764
O O11 0.105178 0.753276 0.461348
O O12 0.056249 0.495749 0.404892
O O13 0.107604 0.990901 0.568651
O O14 0.062706 0.014749 0.403709
O O15 0.882433 0.500000 0.750000
O O16 0.997497 0.500000 0.250000
O O17 0.000000 0.250000 0.345849
#
# Coordination Sequence:
#
# PCOD9333997 Si02
#       7
#     8   8   8   8   8   8   8
#     4  10  20  37  60  88 123 158 195 240 292 348
#     4   9  19  36  56  83 121 160 198 241 291 344
#     4  10  20  34  56  86 120 159 199 240 291 346
#     4  11  24  39  59  88 119 156 197 242 294 349
#     4  12  23  39  61  87 120 154 197 243 292 348
#     4  10  21  37  60  89 120 157 197 241 292 347
#     4  12  26  46  67  87 115 152 196 243 292 344
#
# _framework density 19.882182
#
# number of rings (size 3 to 8) (size 9 to 14) (size 15 to 20)
#    0.000    1.429    0.000    7.286    0.000    8.571 
#    0.000    0.714    0.000    0.000    0.000    0.000 
#    0.000    0.000    0.000    0.000    0.000    0.000 
#
# Total GULP energy -156596.749461 kJ/mol
# GULP energy per Si atom -5592.741052 kJ/mol
# Density = 1.983693 g / cm^3
# Si number density = 19.882182 Si / 1000 Ang^3
#
#
#
# Elastic Constant Matrix: (Units=GPa)
#
#
# Indices 1 2 3 4 5 6 
#
# 1 31.7221 56.9690 39.1173 0.0000 0.0000 0.0000
# 2 56.9690 181.9112 91.0649 0.0000 0.0000 0.0000
# 3 39.1173 91.0649 169.6274 0.0000 0.0000 0.0000
# 4 0.0000 0.0000 0.0000 40.1037 0.0000 0.0000
# 5 0.0000 0.0000 0.0000 0.0000 22.8992 0.0000
# 6 0.0000 0.0000 0.0000 0.0000 0.0000 13.7788
#
#
#
# Elastic Compliance Matrix: (Units=1/GPa)
#
#
# Indices 1 2 3 4 5 6 
#
# 1 0.077068 -0.020839 -0.006585 0.000000 0.000000 0.000000
# 2 -0.020839 0.013152 -0.002255 0.000000 0.000000 0.000000
# 3 -0.006585 -0.002255 0.008625 0.000000 0.000000 0.000000
# 4 0.000000 0.000000 0.000000 0.024935 0.000000 0.000000
# 5 0.000000 0.000000 0.000000 0.000000 0.043670 0.000000
# 6 0.000000 0.000000 0.000000 0.000000 0.000000 0.072575
#
#
# Mechanical properties :
#
#
# Convention : Reuss Voigt Hill
#
# Bulk Modulus (GPa) = 25.32515 84.17365 54.74940
# Shear Modulus (GPa) = 15.99771 28.43031 22.21401
#
# Velocity S-wave (km/s) = 2.83967 3.78556 3.34620
# Velocity P-wave (km/s) = 4.84942 7.84445 6.52121
#
# Compressibility (1/GPa) = 0.03948644
#
# Stress axis : x y z
#
# Youngs Moduli (GPa) = 12.97561 76.03283 115.94808
#
# Poissons Ratio (x) = 1.58443 0.76352
# Poissons Ratio (y) = 0.27040 0.26149
# Poissons Ratio (z) = 0.08544 0.17147
#
# Static dielectric constant tensor:
#      x y z
#    x 1.710200 0.000000 0.000000 
#    y 0.000000 1.665660 0.000000 
#    z 0.000000 0.000000 1.695990 
# 
# From -- ./inp_files/27538.got.cif
#   From: 2010.05.17/outbox.cif.g08.bks.cpg/sg24_14_cif.got.tgz:27538.got - 2010.06.04 00:33:39.
