data_PCOD9333455
_publ_section_title
;
Structure prediction by ZEFSAII (Michael W. Deem and Ramdas Pophale) SiO2 
 PCOD9333455
Probable space group: I 21 21 21
;
_chemical_formula_sum "Si O2"
_cell_formula_units_Z 56
_cell_length_a 14.594244
_cell_length_b 7.418776
_cell_length_c 21.400660
_cell_angle_alpha 90.000000
_cell_angle_beta 90.000000
_cell_angle_gamma 90.000000
_cell_volume 2317.080000
_symmetry_space_group_name_H-M "I 21 21 21"
_symmetry_group_IT_number 24
_symmetry_cell_setting 'orthorhombic'
loop_
_space_group_symop_operation_xyz
x,y,z
-x,1/2-y,z
x,-y,1/2-z
1/2-x,y,-z
1/2+x,1/2+y,1/2+z
1/2-x,-y,1/2+z
1/2+x,1/2-y,-z
-x,1/2+y,1/2-z
loop_
_atom_site_type_symbol
_atom_site_label
_atom_site_fract_x
_atom_site_fract_y
_atom_site_fract_z
Si Si1 0.074451 0.520556 0.119687
Si Si2 0.890675 0.618543 0.375706
Si Si3 0.352446 0.093846 0.008987
Si Si4 0.602643 0.787273 0.233062
Si Si5 0.899543 0.193877 0.513914
Si Si6 0.185176 0.175154 0.856891
Si Si7 0.774274 0.900622 0.871205
O O1 0.091859 0.320427 0.149008
O O2 0.166143 0.627926 0.138157
O O3 0.966729 0.534175 0.137952
O O4 0.080074 0.564823 0.044814
O O5 0.904982 0.666177 0.449545
O O6 0.784187 0.576483 0.362175
O O7 0.355817 0.882726 0.993788
O O8 0.374041 0.126653 0.081336
O O9 0.250000 0.167688 0.000000
O O10 0.500000 0.750000 0.212889
O O11 0.630075 0.665737 0.292513
O O12 0.672298 0.771761 0.176146
O O13 0.606653 0.000000 0.250000
O O14 0.825344 0.121266 0.562505
O O15 0.000000 0.250000 0.540805
O O16 0.209793 0.387074 0.859680
#
# Coordination Sequence:
#
# PCOD9333455 Si02
#       7
#     8   8   8   8   8   8   8
#     4  10  19  35  57  85 119 157 198 251 315 379
#     4   9  18  35  58  88 117 151 199 255 309 379
#     4  10  19  33  52  81 116 150 186 239 299 368
#     4  10  22  41  61  87 120 162 213 265 310 369
#     4  12  22  33  51  85 123 160 196 243 309 378
#     4   9  20  37  60  85 114 155 208 256 309 364
#     4  10  21  37  57  84 117 161 205 256 312 367
#
# _framework density 24.168348000000002
#
# number of rings (size 3 to 8) (size 9 to 14) (size 15 to 20)
#    0.000    2.000    1.429    2.571    0.000    5.714 
#    2.571    0.000    0.000    0.000   18.571    0.000 
#    0.000    0.000    0.000    0.000    0.000    0.000 
#
# Total GULP energy -155996.181595 kJ/mol
# GULP energy per Si atom -5571.292200 kJ/mol
# Density = 2.411334 g / cm^3
# Si number density = 24.168348 Si / 1000 Ang^3
#
#
#
# Elastic Constant Matrix: (Units=GPa)
#
#
# Indices 1 2 3 4 5 6 
#
# 1 167.8465 25.0875 36.0955 0.0000 0.0000 0.0000
# 2 25.0875 60.7377 12.4388 0.0000 0.0000 0.0000
# 3 36.0955 12.4388 48.5230 0.0000 0.0000 0.0000
# 4 0.0000 0.0000 0.0000 -19.4726 0.0000 0.0000
# 5 0.0000 0.0000 0.0000 0.0000 16.9632 0.0000
# 6 0.0000 0.0000 0.0000 0.0000 0.0000 45.0819
#
#
#
# Elastic Compliance Matrix: (Units=1/GPa)
#
#
# Indices 1 2 3 4 5 6 
#
# 1 0.007319 -0.002014 -0.004928 0.000000 0.000000 0.000000
# 2 -0.002014 0.017931 -0.003099 0.000000 0.000000 0.000000
# 3 -0.004928 -0.003099 0.025069 0.000000 0.000000 0.000000
# 4 0.000000 0.000000 0.000000 -0.051354 0.000000 0.000000
# 5 0.000000 0.000000 0.000000 0.000000 0.058951 0.000000
# 6 0.000000 0.000000 0.000000 0.000000 0.000000 0.022182
#
#
# Mechanical properties :
#
#
# Convention : Reuss Voigt Hill
#
# Bulk Modulus (GPa) = 33.07131 47.15009 40.11070
# Shear Modulus (GPa) = 45.34877 22.08018 33.71448
#
# Velocity S-wave (km/s) = 4.33641 3.02586 3.73900
# Velocity P-wave (km/s) = 6.22784 5.63553 5.93907
#
# Compressibility (1/GPa) = 0.03023769
#
# Stress axis : x y z
#
# Youngs Moduli (GPa) = 136.63888 55.77071 39.89001
#
# Poissons Ratio (x) = 0.11230 0.19658
# Poissons Ratio (y) = 0.27515 0.12360
# Poissons Ratio (z) = 0.67335 0.17281
#
# Static dielectric constant tensor:
#      x y z
#    x 2.030900 0.000000 0.000000 
#    y 0.000000 2.048230 0.000000 
#    z 0.000000 0.000000 1.971030 
# 
# From -- ./inp_files/33775.got.cif
#   From: 2010.05.17/outbox.cif.g08.bks.cpg/sg24_17_cif.got.tgz:33775.got - 2010.06.04 00:33:39.
