data_PCOD9333458
_publ_section_title
;
Structure prediction by ZEFSAII (Michael W. Deem and Ramdas Pophale) SiO2 
 PCOD9333458
Probable space group: I 21 21 21
;
_chemical_formula_sum "Si O2"
_cell_formula_units_Z 64
_cell_length_a 7.746901
_cell_length_b 37.201947
_cell_length_c 12.099655
_cell_angle_alpha 90.000000
_cell_angle_beta 90.000000
_cell_angle_gamma 90.000000
_cell_volume 3487.118156
_symmetry_space_group_name_H-M "I 21 21 21"
_symmetry_group_IT_number 24
_symmetry_cell_setting 'orthorhombic'
loop_
_space_group_symop_operation_xyz
x,y,z
-x,1/2-y,z
x,-y,1/2-z
1/2-x,y,-z
1/2+x,1/2+y,1/2+z
1/2-x,-y,1/2+z
1/2+x,1/2-y,-z
-x,1/2+y,1/2-z
loop_
_atom_site_type_symbol
_atom_site_label
_atom_site_fract_x
_atom_site_fract_y
_atom_site_fract_z
Si Si1 0.455564 0.711147 0.125260
Si Si2 0.541623 0.292026 1.000000
Si Si3 0.550343 0.580956 0.630137
Si Si4 0.452035 0.842657 0.694957
Si Si5 0.452035 0.157343 0.194957
Si Si6 0.250000 0.477020 0.133679
Si Si7 0.050343 0.919044 0.630137
Si Si8 0.955564 0.211147 0.374740
O O1 0.500000 0.750000 0.176897
O O2 0.529228 0.677678 0.190470
O O3 0.250000 0.708096 0.123749
O O4 0.522754 0.711682 0.000000
O O5 0.500000 0.250000 0.000000
O O6 0.475797 0.314554 0.894689
O O7 0.750000 0.293270 0.000000
O O8 0.475797 0.314554 0.105311
O O9 0.480325 0.616846 0.689956
O O10 0.420587 0.547903 0.642371
O O11 0.750000 0.572827 0.662813
O O12 0.553217 0.590523 0.500000
O O13 0.250000 0.847232 0.668243
O O14 0.470772 0.822322 0.809530
O O15 0.519675 0.116846 0.189956
O O16 0.250000 0.500000 0.250000
O O17 0.420587 0.452097 0.142371
O O18 0.250000 0.490544 0.000000
O O19 0.000000 0.250000 0.323103
#
# Coordination Sequence:
#
# PCOD9333458 Si02
#       8
#     8   8   8   8   8   8   8   8
#     4  10  21  35  49  67  96 139 189 238 287 335
#     4  10  20  32  44  72 110 142 176 228 282 318
#     4   9  18  36  60  87 117 152 190 231 282 351
#     4  10  19  33  53  75 104 138 182 231 277 331
#     4  10  19  33  53  75 104 138 182 231 277 331
#     4  10  22  40  64  94 124 156 194 236 300 362
#     4   9  18  36  60  87 117 152 190 231 282 351
#     4  10  21  35  49  67  96 139 189 238 287 335
#
# _framework density 18.353263999999999
#
# number of rings (size 3 to 8) (size 9 to 14) (size 15 to 20)
#    0.000    2.250    1.250    1.500    1.750    5.000 
#    0.000    1.250    0.000    1.500    0.000    0.000 
#    0.000    0.000    0.000    0.000    0.000    0.000 
#
# Total GULP energy -178212.820975 kJ/mol
# GULP energy per Si atom -5569.150655 kJ/mol
# Density = 1.831149 g / cm^3
# Si number density = 18.353264 Si / 1000 Ang^3
#
#
#
# Elastic Constant Matrix: (Units=GPa)
#
#
# Indices 1 2 3 4 5 6 
#
# 1 59.4532 26.9120 9.2774 0.0000 0.0000 0.0000
# 2 26.9120 91.4775 53.2663 0.0001 0.0000 0.0000
# 3 9.2774 53.2663 79.8155 -0.0001 0.0002 0.0000
# 4 0.0000 0.0001 -0.0001 32.0343 0.0001 0.0000
# 5 0.0000 0.0000 0.0002 0.0001 33.2534 0.0000
# 6 0.0000 0.0000 0.0000 0.0000 0.0000 24.4269
#
#
#
# Elastic Compliance Matrix: (Units=1/GPa)
#
#
# Indices 1 2 3 4 5 6 
#
# 1 0.019725 -0.007307 0.002584 0.000000 0.000000 0.000000
# 2 -0.007307 0.020587 -0.012890 0.000000 0.000000 0.000000
# 3 0.002584 -0.012890 0.020831 0.000000 0.000000 0.000000
# 4 0.000000 0.000000 0.000000 0.031216 0.000000 0.000000
# 5 0.000000 0.000000 0.000000 0.000000 0.030072 0.000000
# 6 0.000000 0.000000 0.000000 0.000000 0.000000 0.040938
#
#
# Mechanical properties :
#
#
# Convention : Reuss Voigt Hill
#
# Bulk Modulus (GPa) = 38.58621 45.51753 42.05187
# Shear Modulus (GPa) = 24.12729 27.36229 25.74479
#
# Velocity S-wave (km/s) = 3.62968 3.86536 3.74938
# Velocity P-wave (km/s) = 6.21578 6.69149 6.45802
#
# Compressibility (1/GPa) = 0.02591599
#
# Stress axis : x y z
#
# Youngs Moduli (GPa) = 50.69832 48.57431 48.00601
#
# Poissons Ratio (x) = 0.35496 -0.12405
# Poissons Ratio (y) = 0.37048 0.61878
# Poissons Ratio (z) = -0.13101 0.62611
#
# Static dielectric constant tensor:
#      x y z
#    x 1.667410 0.000000 0.000000 
#    y 0.000000 1.633150 0.000000 
#    z 0.000000 0.000000 1.674340 
# 
# From -- ./inp_files/18914.got.cif
#   From: 2010.05.17/outbox.cif.g08.bks.cpg/sg24_10_cif.got.tgz:18914.got - 2010.06.04 00:33:39.
