data_PCOD9333443
_publ_section_title
;
Structure prediction by ZEFSAII (Michael W. Deem and Ramdas Pophale) SiO2 
 PCOD9333443
Probable space group: I 21 21 21
;
_chemical_formula_sum "Si O2"
_cell_formula_units_Z 64
_cell_length_a 19.773853
_cell_length_b 5.580966
_cell_length_c 27.075337
_cell_angle_alpha 90.000000
_cell_angle_beta 90.000000
_cell_angle_gamma 90.000000
_cell_volume 2987.958415
_symmetry_space_group_name_H-M "I 21 21 21"
_symmetry_group_IT_number 24
_symmetry_cell_setting 'orthorhombic'
loop_
_space_group_symop_operation_xyz
x,y,z
-x,1/2-y,z
x,-y,1/2-z
1/2-x,y,-z
1/2+x,1/2+y,1/2+z
1/2-x,-y,1/2+z
1/2+x,1/2-y,-z
-x,1/2+y,1/2-z
loop_
_atom_site_type_symbol
_atom_site_label
_atom_site_fract_x
_atom_site_fract_y
_atom_site_fract_z
Si Si1 0.923676 0.250000 0.574714
Si Si2 0.380577 0.250000 0.237665
Si Si3 0.132379 0.750000 0.477538
Si Si4 0.239127 0.750000 0.111161
Si Si5 0.221137 0.250000 0.924729
Si Si6 0.575317 0.750000 0.364936
Si Si7 0.379480 0.250000 0.529611
Si Si8 0.772658 0.250000 0.275213
O O1 0.921143 0.498050 0.605427
O O2 0.869702 0.250000 0.529957
O O3 0.000000 0.250000 0.551840
O O4 0.921143 0.001951 0.605427
O O5 0.415520 0.500000 0.250000
O O6 0.371236 0.250000 0.179046
O O7 0.309339 0.250000 0.267329
O O8 0.415520 0.000000 0.250000
O O9 0.163127 0.750000 0.533205
O O10 0.203856 0.750000 0.448822
O O11 0.090991 0.513272 0.464156
O O12 0.090991 0.986727 0.464156
O O13 0.278681 0.499733 0.104890
O O14 0.185094 0.750000 0.065969
O O15 0.210546 0.750000 0.166724
O O16 0.278681 0.000268 0.104890
O O17 0.500000 0.750000 0.342428
O O18 0.796026 0.500000 0.250000
O O19 0.796026 0.000000 0.250000
#
# Coordination Sequence:
#
# PCOD9333443 Si02
#       8
#     8   8   8   8   8   8   8   8
#     4  10  21  38  55  78 109 134 163 212 266 313
#     4  10  21  38  53  74  97 127 176 224 267 302
#     4   9  17  30  44  70 103 126 160 197 237 297
#     4  10  19  33  53  69 100 134 168 208 247 307
#     4   9  17  30  46  68  99 130 157 198 251 287
#     4  10  21  38  58  76  99 133 171 217 273 316
#     4  10  19  33  50  77  99 132 168 200 245 317
#     4  10  21  38  50  70 100 135 171 215 260 297
#
# _framework density 21.419305999999999
#
# number of rings (size 3 to 8) (size 9 to 14) (size 15 to 20)
#    0.000    2.250    0.000    3.000    0.000    3.500 
#   27.000    0.000    0.000    0.000    0.000    0.000 
#    0.000    1.000    0.000    0.000    0.000    3.000 
#
# Total GULP energy -178149.143609 kJ/mol
# GULP energy per Si atom -5567.160738 kJ/mol
# Density = 2.137055 g / cm^3
# Si number density = 21.419306 Si / 1000 Ang^3
#
#
#
# Elastic Constant Matrix: (Units=GPa)
#
#
# Indices 1 2 3 4 5 6 
#
# 1 24.4642 14.4986 39.9915 0.0000 0.0000 0.0000
# 2 14.4986 275.9443 57.0852 0.0000 0.0000 0.0000
# 3 39.9915 57.0852 106.2735 0.0000 0.0000 0.0000
# 4 0.0000 0.0000 0.0000 31.9006 0.0000 0.0000
# 5 0.0000 0.0000 0.0000 0.0000 13.3156 0.0000
# 6 0.0000 0.0000 0.0000 0.0000 0.0000 -4.3800
#
#
#
# Elastic Compliance Matrix: (Units=1/GPa)
#
#
# Indices 1 2 3 4 5 6 
#
# 1 0.108504 0.003089 -0.042490 0.000000 0.000000 0.000000
# 2 0.003089 0.004165 -0.003400 0.000000 0.000000 0.000000
# 3 -0.042490 -0.003400 0.027225 0.000000 0.000000 0.000000
# 4 0.000000 0.000000 0.000000 0.031347 0.000000 0.000000
# 5 0.000000 0.000000 0.000000 0.000000 0.075100 0.000000
# 6 0.000000 0.000000 0.000000 0.000000 0.000000 -0.228308
#
#
# Mechanical properties :
#
#
# Convention : Reuss Voigt Hill
#
# Bulk Modulus (GPa) = 18.41878 69.98140 44.20009
# Shear Modulus (GPa) = 41.07401 27.84101 34.45751
#
# Velocity S-wave (km/s) = 4.38381 3.60920 4.01523
# Velocity P-wave (km/s) = 5.85163 7.07894 6.49434
#
# Compressibility (1/GPa) = 0.05429242
#
# Stress axis : x y z
#
# Youngs Moduli (GPa) = 9.21629 240.10166 36.73082
#
# Poissons Ratio (x) = -0.74168 1.56069
# Poissons Ratio (y) = -0.02847 0.12487
# Poissons Ratio (z) = 0.39160 0.81625
#
# Static dielectric constant tensor:
#      x y z
#    x 1.784810 0.000000 0.000000 
#    y 0.000000 1.883300 0.000000 
#    z 0.000000 0.000000 1.841740 
# 
# From -- ./inp_files/34857.got.cif
#   From: 2010.05.17/outbox.cif.g08.bks.cpg/sg24_18_cif.got.tgz:34857.got - 2010.06.04 00:33:39.
