data_PCOD9333404
_publ_section_title
;
Structure prediction by ZEFSAII (Michael W. Deem and Ramdas Pophale) SiO2 
 PCOD9333404
Probable space group: I 21 21 21
;
_chemical_formula_sum "Si O2"
_cell_formula_units_Z 64
_cell_length_a 30.262063
_cell_length_b 9.367023
_cell_length_c 13.460697
_cell_angle_alpha 90.000000
_cell_angle_beta 90.000000
_cell_angle_gamma 90.000000
_cell_volume 3815.642400
_symmetry_space_group_name_H-M "I 21 21 21"
_symmetry_group_IT_number 24
_symmetry_cell_setting 'orthorhombic'
loop_
_space_group_symop_operation_xyz
x,y,z
-x,1/2-y,z
x,-y,1/2-z
1/2-x,y,-z
1/2+x,1/2+y,1/2+z
1/2-x,-y,1/2+z
1/2+x,1/2-y,-z
-x,1/2+y,1/2-z
loop_
_atom_site_type_symbol
_atom_site_label
_atom_site_fract_x
_atom_site_fract_y
_atom_site_fract_z
Si Si1 0.694176 0.337269 0.715335
Si Si2 0.629361 0.672423 0.604112
Si Si3 0.376871 0.858873 0.944446
Si Si4 0.283348 0.670077 0.257995
Si Si5 0.344506 0.902995 0.162556
Si Si6 0.705627 0.353861 0.058077
Si Si7 0.544358 0.830648 0.868323
Si Si8 0.456626 0.336936 0.871097
O O1 0.705727 0.500000 0.750000
O O2 0.656016 0.294675 0.794803
O O3 0.670881 0.332905 0.607694
O O4 0.736557 0.236124 0.721829
O O5 0.610184 0.511254 0.604585
O O6 0.665608 0.671751 0.517304
O O7 0.588802 0.776055 0.586055
O O8 0.412380 0.741336 0.914489
O O9 0.372385 0.873988 0.063061
O O10 0.285440 0.500000 0.250000
O O11 0.322453 0.757907 0.202754
O O12 0.287380 0.718291 0.372221
O O13 0.366484 0.000000 0.250000
O O14 0.305994 0.010500 0.125800
O O15 0.750000 0.384587 0.000000
O O16 0.500000 0.750000 0.900436
O O17 0.547276 0.818629 0.748507
O O18 0.539702 0.996536 0.893199
O O19 0.500000 0.250000 0.903263
#
# Coordination Sequence:
#
# PCOD9333404 Si02
#       8
#     8   8   8   8   8   8   8   8
#     4  10  19  32  51  75 106 141 184 220 262 327
#     4  10  19  32  54  77 104 142 184 223 266 321
#     4  10  20  33  55  81 101 139 183 227 269 322
#     4  11  23  36  49  74 108 143 179 235 279 317
#     4   9  21  37  57  75 101 140 189 224 269 325
#     4  10  19  36  56  74 101 144 189 222 267 324
#     4  10  20  33  51  77 112 146 180 216 267 331
#     4  10  20  33  50  76 115 151 177 215 268 328
#
# _framework density 16.773061999999999
#
# number of rings (size 3 to 8) (size 9 to 14) (size 15 to 20)
#    0.000    2.000    2.500    1.875    3.500    3.000 
#    2.250    0.000    0.000    0.000    0.000   14.000 
#    0.000    0.000    0.000    0.000    0.000    0.000 
#
# Total GULP energy -178467.822893 kJ/mol
# GULP energy per Si atom -5577.119465 kJ/mol
# Density = 1.673489 g / cm^3
# Si number density = 16.773062 Si / 1000 Ang^3
#
#
#
# Elastic Constant Matrix: (Units=GPa)
#
#
# Indices 1 2 3 4 5 6 
#
# 1 68.6973 44.4857 10.0509 0.0000 0.0000 0.0000
# 2 44.4857 106.4583 19.5630 0.0000 0.0000 0.0000
# 3 10.0509 19.5630 60.1961 0.0000 0.0000 0.0000
# 4 0.0000 0.0000 0.0000 10.5467 0.0000 0.0000
# 5 0.0000 0.0000 0.0000 0.0000 14.5351 0.0000
# 6 0.0000 0.0000 0.0000 0.0000 0.0000 21.0376
#
#
#
# Elastic Compliance Matrix: (Units=1/GPa)
#
#
# Indices 1 2 3 4 5 6 
#
# 1 0.019982 -0.008228 -0.000662 0.000000 0.000000 0.000000
# 2 -0.008228 0.013378 -0.002974 0.000000 0.000000 0.000000
# 3 -0.000662 -0.002974 0.017689 0.000000 0.000000 0.000000
# 4 0.000000 0.000000 0.000000 0.094816 0.000000 0.000000
# 5 0.000000 0.000000 0.000000 0.000000 0.068799 0.000000
# 6 0.000000 0.000000 0.000000 0.000000 0.000000 0.047534
#
#
# Mechanical properties :
#
#
# Convention : Reuss Voigt Hill
#
# Bulk Modulus (GPa) = 36.60224 42.61676 39.60950
# Shear Modulus (GPa) = 16.94723 19.97403 18.46063
#
# Velocity S-wave (km/s) = 3.18210 3.45460 3.32115
# Velocity P-wave (km/s) = 5.94731 6.43237 6.19459
#
# Compressibility (1/GPa) = 0.02732074
#
# Stress axis : x y z
#
# Youngs Moduli (GPa) = 50.04589 74.74917 56.53086
#
# Poissons Ratio (x) = 0.61504 0.03744
# Poissons Ratio (y) = 0.41178 0.16812
# Poissons Ratio (z) = 0.03315 0.22230
#
# Static dielectric constant tensor:
#      x y z
#    x 1.560960 0.000000 0.000000 
#    y 0.000000 1.568710 0.000000 
#    z 0.000000 0.000000 1.588740 
# 
# From -- ./inp_files/28289.got.cif
#   From: 2010.05.17/outbox.cif.g08.bks.cpg/sg24_15_cif.got.tgz:28289.got - 2010.06.04 00:33:39.
