data_PCOD9333124
_publ_section_title
;
Structure prediction by ZEFSAII (Michael W. Deem and Ramdas Pophale) SiO2 
 PCOD9333124
Probable space group: I 21 21 21
;
_chemical_formula_sum "Si O2"
_cell_formula_units_Z 48
_cell_length_a 10.445968
_cell_length_b 7.171936
_cell_length_c 25.141785
_cell_angle_alpha 90.000000
_cell_angle_beta 90.000000
_cell_angle_gamma 90.000000
_cell_volume 1883.567571
_symmetry_space_group_name_H-M "I 21 21 21"
_symmetry_group_IT_number 24
_symmetry_cell_setting 'orthorhombic'
loop_
_space_group_symop_operation_xyz
x,y,z
-x,1/2-y,z
x,-y,1/2-z
1/2-x,y,-z
1/2+x,1/2+y,1/2+z
1/2-x,-y,1/2+z
1/2+x,1/2-y,-z
-x,1/2+y,1/2-z
loop_
_atom_site_type_symbol
_atom_site_label
_atom_site_fract_x
_atom_site_fract_y
_atom_site_fract_z
Si Si1 0.462516 0.473458 0.035883
Si Si2 0.581175 0.938961 0.690211
Si Si3 0.154866 0.389738 0.860063
Si Si4 0.707883 0.468506 0.402875
Si Si5 0.584173 0.421441 0.302794
Si Si6 0.505649 0.476989 0.922020
O O1 0.500000 0.250000 0.034799
O O2 0.358910 0.494038 0.082773
O O3 0.593009 0.568679 0.056587
O O4 0.431980 0.530502 0.975934
O O5 0.500000 0.750000 0.686048
O O6 0.732695 0.924036 0.681347
O O7 0.541403 0.043685 0.635534
O O8 0.554908 0.000000 0.750000
O O9 0.188371 0.180783 0.880531
O O10 0.022153 0.444594 0.830781
O O11 0.682217 0.357814 0.348263
O O12 0.847330 0.461163 0.426967
O O13 0.500000 0.250000 0.284071
O O14 0.648865 0.500000 0.250000
O O15 0.500000 0.250000 0.921390
#
# Coordination Sequence:
#
# PCOD9333124 Si02
#       6
#     8   8   8   8   8   8
#     4   8  17  29  59  94 119 148 193 254 317 359
#     4  11  23  40  57  82 126 167 207 251 297 366
#     4  10  19  39  60  90 121 156 199 261 309 365
#     4  10  18  35  60  90 126 154 192 253 312 372
#     4  11  23  39  59  89 117 159 214 266 314 357
#     4  10  18  34  56  92 126 156 198 245 304 371
#
# _framework density 25.483554000000002
#
# number of rings (size 3 to 8) (size 9 to 14) (size 15 to 20)
#    0.000    2.000    3.333    3.500    0.000    1.333 
#    6.000    0.000    0.000    4.000   17.333    0.000 
#    0.000    0.000    0.000    0.000    0.000    0.000 
#
# Total GULP energy -133987.871716 kJ/mol
# GULP energy per Si atom -5582.827988 kJ/mol
# Density = 2.542555 g / cm^3
# Si number density = 25.483554 Si / 1000 Ang^3
#
#
#
# Elastic Constant Matrix: (Units=GPa)
#
#
# Indices 1 2 3 4 5 6 
#
# 1 72.2378 -9.1809 22.0890 0.0000 0.0000 0.0000
# 2 -9.1809 51.8452 16.7908 0.0000 0.0000 0.0000
# 3 22.0890 16.7908 240.4066 0.0000 0.0000 0.0000
# 4 0.0000 0.0000 0.0000 18.6429 0.0000 0.0000
# 5 0.0000 0.0000 0.0000 0.0000 44.4700 0.0000
# 6 0.0000 0.0000 0.0000 0.0000 0.0000 11.8239
#
#
#
# Elastic Compliance Matrix: (Units=1/GPa)
#
#
# Indices 1 2 3 4 5 6 
#
# 1 0.014719 0.003115 -0.001570 0.000000 0.000000 0.000000
# 2 0.003115 0.020394 -0.001711 0.000000 0.000000 0.000000
# 3 -0.001570 -0.001711 0.004423 0.000000 0.000000 0.000000
# 4 0.000000 0.000000 0.000000 0.053640 0.000000 0.000000
# 5 0.000000 0.000000 0.000000 0.000000 0.022487 0.000000
# 6 0.000000 0.000000 0.000000 0.000000 0.000000 0.084574
#
#
# Mechanical properties :
#
#
# Convention : Reuss Voigt Hill
#
# Bulk Modulus (GPa) = 25.50690 47.09860 36.30275
# Shear Modulus (GPa) = 23.40417 37.30672 30.35544
#
# Velocity S-wave (km/s) = 3.03380 3.83031 3.45509
# Velocity P-wave (km/s) = 4.72259 6.17121 5.49485
#
# Compressibility (1/GPa) = 0.03920507
#
# Stress axis : x y z
#
# Youngs Moduli (GPa) = 67.93880 49.03452 226.07328
#
# Poissons Ratio (x) = -0.15274 0.35493
# Poissons Ratio (y) = -0.21163 0.38672
# Poissons Ratio (z) = 0.10666 0.08388
#
# Static dielectric constant tensor:
#      x y z
#    x 1.969890 0.000000 0.000000 
#    y 0.000000 2.198180 0.000000 
#    z 0.000000 0.000000 2.012780 
# 
# From -- ./inp_files/35535.got.cif
#   From: 2010.05.17/outbox.cif.g08.bks.cpg/sg24_18_cif.got.tgz:35535.got - 2010.06.04 00:33:39.
