data_PCOD9333882
_publ_section_title
;
Structure prediction by ZEFSAII (Michael W. Deem and Ramdas Pophale) SiO2 
 PCOD9333882
Probable space group: I 21 21 21
;
_chemical_formula_sum "Si O2"
_cell_formula_units_Z 40
_cell_length_a 14.545689
_cell_length_b 14.970214
_cell_length_c 9.484137
_cell_angle_alpha 90.000000
_cell_angle_beta 90.000000
_cell_angle_gamma 90.000000
_cell_volume 2065.190531
_symmetry_space_group_name_H-M "I 21 21 21"
_symmetry_group_IT_number 24
_symmetry_cell_setting 'orthorhombic'
loop_
_space_group_symop_operation_xyz
x,y,z
-x,1/2-y,z
x,-y,1/2-z
1/2-x,y,-z
1/2+x,1/2+y,1/2+z
1/2-x,-y,1/2+z
1/2+x,1/2-y,-z
-x,1/2+y,1/2-z
loop_
_atom_site_type_symbol
_atom_site_label
_atom_site_fract_x
_atom_site_fract_y
_atom_site_fract_z
Si Si1 0.454520 0.898736 0.712311
Si Si2 0.292558 0.220517 0.863410
Si Si3 0.176192 0.343986 0.701945
Si Si4 0.129825 0.592572 0.091178
Si Si5 0.100947 0.609813 0.502427
O O1 0.369443 0.832941 0.720588
O O2 0.542456 0.883464 0.813417
O O3 0.497128 0.883754 0.555632
O O4 0.426796 0.000000 0.750000
O O5 0.210588 0.248996 0.759694
O O6 0.250000 0.171630 0.000000
O O7 0.340390 0.309643 0.932052
O O8 0.126618 0.350707 0.552636
O O9 0.273966 0.391450 0.669584
O O10 0.119168 0.385547 0.830897
O O11 0.129501 0.488110 0.051278
#
# Coordination Sequence:
#
# PCOD9333882 Si02
#       5
#     8   8   8   8   8
#     4  10  21  38  61  82 109 154 201 241 286 335
#     4  10  21  36  62  81 111 154 201 239 279 344
#     4  10  21  31  55  89 124 147 182 229 294 360
#     4  10  21  30  55  89 126 149 182 235 300 346
#     4  10  20  31  56  88 116 155 185 232 286 353
#
# _framework density 19.368673999999999
#
# number of rings (size 3 to 8) (size 9 to 14) (size 15 to 20)
#    0.000    2.000    2.000    1.200   11.200    0.000 
#    0.000    0.000   39.600    2.400    0.000    0.000 
#    0.000    0.000    0.000    0.000    0.000    0.000 
#
# Total GULP energy -111525.197368 kJ/mol
# GULP energy per Si atom -5576.259868 kJ/mol
# Density = 1.932459 g / cm^3
# Si number density = 19.368674 Si / 1000 Ang^3
#
#
#
# Elastic Constant Matrix: (Units=GPa)
#
#
# Indices 1 2 3 4 5 6 
#
# 1 56.4527 28.9359 42.1436 0.0000 0.0000 0.0000
# 2 28.9359 39.1805 35.2714 0.0000 0.0000 0.0000
# 3 42.1436 35.2714 129.6398 0.0000 0.0000 0.0000
# 4 0.0000 0.0000 0.0000 14.5690 0.0000 0.0000
# 5 0.0000 0.0000 0.0000 0.0000 22.7352 0.0000
# 6 0.0000 0.0000 0.0000 0.0000 0.0000 22.5837
#
#
#
# Elastic Compliance Matrix: (Units=1/GPa)
#
#
# Indices 1 2 3 4 5 6 
#
# 1 0.030830 -0.018205 -0.005069 0.000000 0.000000 0.000000
# 2 -0.018205 0.044552 -0.006203 0.000000 0.000000 0.000000
# 3 -0.005069 -0.006203 0.011049 0.000000 0.000000 0.000000
# 4 0.000000 0.000000 0.000000 0.068639 0.000000 0.000000
# 5 0.000000 0.000000 0.000000 0.000000 0.043985 0.000000
# 6 0.000000 0.000000 0.000000 0.000000 0.000000 0.044280
#
#
# Mechanical properties :
#
#
# Convention : Reuss Voigt Hill
#
# Bulk Modulus (GPa) = 36.39520 48.66387 42.52953
# Shear Modulus (GPa) = 16.05403 19.90571 17.97987
#
# Velocity S-wave (km/s) = 2.88213 3.20930 3.05010
# Velocity P-wave (km/s) = 5.46874 6.23798 5.86598
#
# Compressibility (1/GPa) = 0.02747615
#
# Stress axis : x y z
#
# Youngs Moduli (GPa) = 32.43643 22.44553 90.50390
#
# Poissons Ratio (x) = 0.40863 0.45876
# Poissons Ratio (y) = 0.59051 0.56142
# Poissons Ratio (z) = 0.16442 0.13923
#
# Static dielectric constant tensor:
#      x y z
#    x 1.673990 0.000000 0.000000 
#    y 0.000000 1.711310 0.000000 
#    z 0.000000 0.000000 1.749450 
# 
# From -- ./inp_files/12327.got.cif
#   From: 2010.05.17/outbox.cif.g08.bks.cpg/sg24_7_cif.got.tgz:12327.got - 2010.06.04 00:33:39.
