data_PCOD9333811
_publ_section_title
;
Structure prediction by ZEFSAII (Michael W. Deem and Ramdas Pophale) SiO2 
 PCOD9333811
Probable space group: I 21 21 21
;
_chemical_formula_sum "Si O2"
_cell_formula_units_Z 60
_cell_length_a 9.416478
_cell_length_b 25.656540
_cell_length_c 11.816212
_cell_angle_alpha 90.000000
_cell_angle_beta 90.000000
_cell_angle_gamma 90.000000
_cell_volume 2854.728811
_symmetry_space_group_name_H-M "I 21 21 21"
_symmetry_group_IT_number 24
_symmetry_cell_setting 'orthorhombic'
loop_
_space_group_symop_operation_xyz
x,y,z
-x,1/2-y,z
x,-y,1/2-z
1/2-x,y,-z
1/2+x,1/2+y,1/2+z
1/2-x,-y,1/2+z
1/2+x,1/2-y,-z
-x,1/2+y,1/2-z
loop_
_atom_site_type_symbol
_atom_site_label
_atom_site_fract_x
_atom_site_fract_y
_atom_site_fract_z
Si Si1 0.500000 0.750000 0.868370
Si Si2 0.803120 0.758399 0.799111
Si Si3 0.343424 0.898139 0.384299
Si Si4 0.583803 0.077455 0.526641
Si Si5 0.416167 0.546584 0.503940
Si Si6 0.970933 0.674870 0.926832
Si Si7 0.611411 0.717318 0.428617
Si Si8 0.927131 0.562544 0.262881
O O1 0.637223 0.764802 0.799751
O O2 0.535763 0.702008 0.950805
O O3 0.885868 0.801669 0.870459
O O4 0.858817 0.756905 0.673185
O O5 0.847168 0.702981 0.856191
O O6 0.250000 0.903673 0.500000
O O7 0.480654 0.934345 0.403303
O O8 0.410616 0.840365 0.380140
O O9 0.227146 0.911049 0.287214
O O10 0.750000 0.092070 0.500000
O O11 0.487617 0.113858 0.445683
O O12 0.517970 0.082540 0.654374
O O13 0.575023 0.016052 0.503437
O O14 0.250000 0.561334 0.500000
O O15 0.480274 0.567993 0.622318
O O16 0.500000 0.750000 0.501481
O O17 0.750000 0.710315 0.500000
O O18 0.903837 0.500000 0.250000
#
# Coordination Sequence:
#
# PCOD9333811 Si02
#       8
#     4   8   8   8   8   8   8   8
#     4  10  20  34  58  82 116 168 204 234 306 372
#     4  10  21  40  59  85 124 161 201 259 313 367
#     4   9  20  41  62  85 123 162 207 265 325 381
#     4  10  20  36  63 100 132 167 223 266 313 394
#     4   9  19  40  65  93 129 167 211 274 326 377
#     4  10  19  39  58  86 130 161 198 255 307 375
#     4  11  24  44  64  90 120 156 212 267 310 380
#     4   9  19  39  62  92 132 171 214 260 317 389
#
# _framework density 21.017759000000002
#
# number of rings (size 3 to 8) (size 9 to 14) (size 15 to 20)
#    0.000    2.400    1.333    2.400    2.800    0.533 
#    4.800    6.000    0.000    0.000    0.000    0.000 
#    0.000    0.000    0.000    0.000    0.000    0.000 
#
# Total GULP energy -167130.662845 kJ/mol
# GULP energy per Si atom -5571.022095 kJ/mol
# Density = 2.096992 g / cm^3
# Si number density = 21.017759 Si / 1000 Ang^3
#
#
#
# Elastic Constant Matrix: (Units=GPa)
#
#
# Indices 1 2 3 4 5 6 
#
# 1 115.6976 28.3778 23.1805 0.0000 0.0000 0.0000
# 2 28.3778 65.4935 20.2204 0.0000 0.0000 0.0000
# 3 23.1805 20.2204 46.9025 0.0002 -0.0001 0.0000
# 4 0.0000 0.0000 0.0002 13.1860 0.0000 0.0000
# 5 0.0000 0.0000 -0.0001 0.0000 19.0220 0.0000
# 6 0.0000 0.0000 0.0000 0.0000 0.0000 13.8893
#
#
#
# Elastic Compliance Matrix: (Units=1/GPa)
#
#
# Indices 1 2 3 4 5 6 
#
# 1 0.010174 -0.003294 -0.003608 0.000000 0.000000 0.000000
# 2 -0.003294 0.018680 -0.006425 0.000000 0.000000 0.000000
# 3 -0.003608 -0.006425 0.025874 0.000000 0.000000 0.000000
# 4 0.000000 0.000000 0.000000 0.075838 0.000000 0.000000
# 5 0.000000 0.000000 0.000000 0.000000 0.052571 0.000000
# 6 0.000000 0.000000 0.000000 0.000000 0.000000 0.071998
#
#
# Mechanical properties :
#
#
# Convention : Reuss Voigt Hill
#
# Bulk Modulus (GPa) = 35.62147 41.29457 38.45802
# Shear Modulus (GPa) = 17.17345 19.64045 18.40695
#
# Velocity S-wave (km/s) = 2.86158 3.06023 2.96257
# Velocity P-wave (km/s) = 5.28236 5.67246 5.48088
#
# Compressibility (1/GPa) = 0.02807295
#
# Stress axis : x y z
#
# Youngs Moduli (GPa) = 98.28820 53.53387 38.64897
#
# Poissons Ratio (x) = 0.17636 0.13945
# Poissons Ratio (y) = 0.32380 0.24832
# Poissons Ratio (z) = 0.35463 0.34395
#
# Static dielectric constant tensor:
#      x y z
#    x 1.792320 0.000000 0.000000 
#    y 0.000000 1.839510 0.000000 
#    z 0.000000 0.000000 1.775180 
# 
# From -- ./inp_files/18896.got.cif
#   From: 2010.05.17/outbox.cif.g08.bks.cpg/sg24_10_cif.got.tgz:18896.got - 2010.06.04 00:33:39.
