data_PCOD9333566
_publ_section_title
;
Structure prediction by ZEFSAII (Michael W. Deem and Ramdas Pophale) SiO2 
 PCOD9333566
Probable space group: I 21 21 21
;
_chemical_formula_sum "Si O2"
_cell_formula_units_Z 64
_cell_length_a 5.427007
_cell_length_b 27.436226
_cell_length_c 21.102079
_cell_angle_alpha 90.000000
_cell_angle_beta 90.000000
_cell_angle_gamma 90.000000
_cell_volume 3142.027617
_symmetry_space_group_name_H-M "I 21 21 21"
_symmetry_group_IT_number 24
_symmetry_cell_setting 'orthorhombic'
loop_
_space_group_symop_operation_xyz
x,y,z
-x,1/2-y,z
x,-y,1/2-z
1/2-x,y,-z
1/2+x,1/2+y,1/2+z
1/2-x,-y,1/2+z
1/2+x,1/2-y,-z
-x,1/2+y,1/2-z
loop_
_atom_site_type_symbol
_atom_site_label
_atom_site_fract_x
_atom_site_fract_y
_atom_site_fract_z
Si Si1 0.574729 0.943332 0.756048
Si Si2 0.999287 0.973761 0.960891
Si Si3 0.699834 0.370151 0.261347
Si Si4 0.621273 0.798787 0.306190
Si Si5 0.823782 0.574965 0.574039
Si Si6 0.687264 0.113739 0.865129
Si Si7 0.312643 0.392040 0.369790
Si Si8 0.104003 0.699052 0.174706
O O1 0.304298 0.922431 0.742518
O O2 0.726909 0.914682 0.702097
O O3 0.632852 0.925946 0.827391
O O4 0.603337 0.000000 0.750000
O O5 0.914044 0.924702 0.925767
O O6 0.750000 0.989510 0.000000
O O7 0.089569 0.018388 0.916034
O O8 0.250000 0.963207 0.000000
O O9 0.585403 0.339669 0.204770
O O10 0.521866 0.379780 0.319278
O O11 0.907597 0.334658 0.289213
O O12 0.500000 0.750000 0.332466
O O13 0.819881 0.828595 0.347383
O O14 0.716259 0.788342 0.234255
O O15 0.750000 0.577595 0.500000
O O16 0.571047 0.592956 0.607680
O O17 0.074904 0.603850 0.590944
O O18 0.201605 0.337965 0.379252
O O19 0.000000 0.750000 0.150594
#
# Coordination Sequence:
#
# PCOD9333566 Si02
#       8
#     8   8   8   8   8   8   8   8
#     4  11  23  33  55  90 137 171 197 256 342 410
#     4  11  25  45  70  94 125 185 242 276 322 391
#     4  10  19  36  53  86 135 170 211 250 328 396
#     4  11  21  36  59  95 131 173 218 271 324 411
#     4  11  25  44  66  88 127 172 230 275 322 391
#     4  12  23  40  64  97 127 170 221 271 336 400
#     4  10  23  37  58  95 135 164 222 278 326 400
#     4  10  19  34  61  88 133 177 217 262 338 406
#
# _framework density 20.369012000000001
#
# number of rings (size 3 to 8) (size 9 to 14) (size 15 to 20)
#    0.000    1.250    5.000    3.375    5.250    0.500 
#    0.000    0.000    0.000    1.500    3.250    0.000 
#    0.000    0.000    0.000    0.000    0.000    0.000 
#
# Total GULP energy -178248.536398 kJ/mol
# GULP energy per Si atom -5570.266762 kJ/mol
# Density = 2.032265 g / cm^3
# Si number density = 20.369012 Si / 1000 Ang^3
#
#
#
# Elastic Constant Matrix: (Units=GPa)
#
#
# Indices 1 2 3 4 5 6 
#
# 1 100.1125 41.0930 20.9909 0.0000 0.0000 0.0000
# 2 41.0930 169.8205 26.3956 0.0000 0.0000 0.0000
# 3 20.9909 26.3956 34.5991 0.0000 0.0000 0.0000
# 4 0.0000 0.0000 0.0000 20.7628 0.0000 0.0000
# 5 0.0000 0.0000 0.0000 0.0000 25.6019 0.0000
# 6 0.0000 0.0000 0.0000 0.0000 0.0000 36.0658
#
#
#
# Elastic Compliance Matrix: (Units=1/GPa)
#
#
# Indices 1 2 3 4 5 6 
#
# 1 0.012023 -0.002014 -0.005757 0.000000 0.000000 0.000000
# 2 -0.002014 0.007018 -0.004132 0.000000 0.000000 0.000000
# 3 -0.005757 -0.004132 0.035548 0.000000 0.000000 0.000000
# 4 0.000000 0.000000 0.000000 0.048163 0.000000 0.000000
# 5 0.000000 0.000000 0.000000 0.000000 0.039060 0.000000
# 6 0.000000 0.000000 0.000000 0.000000 0.000000 0.027727
#
#
# Mechanical properties :
#
#
# Convention : Reuss Voigt Hill
#
# Bulk Modulus (GPa) = 32.48737 53.49902 42.99320
# Shear Modulus (GPa) = 24.55716 30.88962 27.72339
#
# Velocity S-wave (km/s) = 3.47596 3.89845 3.69325
# Velocity P-wave (km/s) = 5.66514 6.82538 6.27215
#
# Compressibility (1/GPa) = 0.03078119
#
# Stress axis : x y z
#
# Youngs Moduli (GPa) = 83.17560 142.48520 28.13113
#
# Poissons Ratio (x) = 0.28702 0.16196
# Poissons Ratio (y) = 0.16755 0.11624
# Poissons Ratio (z) = 0.47887 0.58877
#
# Static dielectric constant tensor:
#      x y z
#    x 1.870950 0.000000 0.000000 
#    y 0.000000 1.744880 0.000000 
#    z 0.000000 0.000000 1.747950 
# 
# From -- ./inp_files/7344.got.cif
#   From: 2010.05.17/outbox.cif.g08.bks.cpg/sg24_4_cif.got.tgz:7344.got - 2010.06.04 00:33:39.
