data_PCOD9333348
_publ_section_title
;
Structure prediction by ZEFSAII (Michael W. Deem and Ramdas Pophale) SiO2 
 PCOD9333348
Probable space group: I 21 21 21
;
_chemical_formula_sum "Si O2"
_cell_formula_units_Z 64
_cell_length_a 7.769186
_cell_length_b 21.888070
_cell_length_c 19.025662
_cell_angle_alpha 90.000000
_cell_angle_beta 90.000000
_cell_angle_gamma 90.000000
_cell_volume 3235.361140
_symmetry_space_group_name_H-M "I 21 21 21"
_symmetry_group_IT_number 24
_symmetry_cell_setting 'orthorhombic'
loop_
_space_group_symop_operation_xyz
x,y,z
-x,1/2-y,z
x,-y,1/2-z
1/2-x,y,-z
1/2+x,1/2+y,1/2+z
1/2-x,-y,1/2+z
1/2+x,1/2-y,-z
-x,1/2+y,1/2-z
loop_
_atom_site_type_symbol
_atom_site_label
_atom_site_fract_x
_atom_site_fract_y
_atom_site_fract_z
Si Si1 0.705560 0.868333 0.329632
Si Si2 0.300722 0.000006 0.164383
Si Si3 0.294439 0.131667 0.170368
Si Si4 0.788172 0.633354 0.831389
Si Si5 0.297420 0.250000 0.918350
Si Si6 0.288173 0.633354 0.168611
Si Si7 0.293139 0.750000 0.081510
Si Si8 0.199278 0.499994 0.835617
O O1 0.500000 0.876774 0.323940
O O2 0.734796 0.811015 0.379294
O O3 0.765908 0.856572 0.249723
O O4 0.775986 0.934156 0.355741
O O5 0.224014 0.065844 0.144259
O O6 0.301056 0.000000 0.250000
O O7 0.226847 0.933940 0.144571
O O8 0.500000 0.999227 0.140731
O O9 0.234092 0.143428 0.250277
O O10 0.265204 0.188984 0.120706
O O11 0.730113 0.688937 0.879619
O O12 1.000000 0.632055 0.831864
O O13 0.500000 0.250000 0.912409
O O14 0.250000 0.250000 0.000000
O O15 0.230113 0.688937 0.120381
O O16 0.226848 0.566060 0.144571
O O17 0.500000 0.750000 0.088778
O O18 0.250000 0.750000 0.000000
O O19 0.198943 0.500000 0.750000
#
# Coordination Sequence:
#
# PCOD9333348 Si02
#       8
#     8   8   8   8   8   8   8   8
#     4   9  16  31  56  79  96 119 156 201 245 291
#     4   7  11  22  46  78 101 117 148 194 238 284
#     4   9  16  31  56  79  96 119 156 201 245 291
#     4   8  14  27  50  77 100 126 160 195 236 288
#     4  12  25  38  50  68  98 132 165 202 246 296
#     4   8  14  27  50  77 100 126 160 195 236 288
#     4  10  19  30  44  64  96 134 167 196 226 268
#     4   7  11  22  46  78 101 117 148 194 238 284
#
# _framework density 19.781407000000002
#
# number of rings (size 3 to 8) (size 9 to 14) (size 15 to 20)
#    0.000    3.250    0.000    4.875    0.000    2.000 
#    0.000    3.750    0.000   11.250    0.000    0.000 
#    0.000    0.000    0.000    0.000    0.000    0.000 
#
# Total GULP energy -178230.135843 kJ/mol
# GULP energy per Si atom -5569.691745 kJ/mol
# Density = 1.973638 g / cm^3
# Si number density = 19.781407 Si / 1000 Ang^3
#
#
#
# Elastic Constant Matrix: (Units=GPa)
#
#
# Indices 1 2 3 4 5 6 
#
# 1 24.6613 5.3196 -0.5465 0.0000 0.0000 0.0000
# 2 5.3196 258.7322 107.9585 0.0000 0.0000 0.0000
# 3 -0.5465 107.9585 95.2279 0.0000 0.0000 0.0000
# 4 0.0000 0.0000 0.0000 -6.5750 0.0000 0.0000
# 5 0.0000 0.0000 0.0000 0.0000 17.4841 0.0000
# 6 0.0000 0.0000 0.0000 0.0000 0.0000 -9.7463
#
#
#
# Elastic Compliance Matrix: (Units=1/GPa)
#
#
# Indices 1 2 3 4 5 6 
#
# 1 0.040985 -0.001785 0.002259 0.000000 0.000000 0.000000
# 2 -0.001785 0.007412 -0.008413 0.000000 0.000000 0.000000
# 3 0.002259 -0.008413 0.020052 0.000000 0.000000 0.000000
# 4 0.000000 0.000000 0.000000 -0.152091 0.000000 0.000000
# 5 0.000000 0.000000 0.000000 0.000000 0.057195 0.000000
# 6 0.000000 0.000000 0.000000 0.000000 0.000000 -0.102603
#
#
# Mechanical properties :
#
#
# Convention : Reuss Voigt Hill
#
# Bulk Modulus (GPa) = 19.02227 67.12049 43.07138
# Shear Modulus (GPa) = -52.27510 17.95854 -17.15828
#
# Velocity S-wave (km/s) = -5.14624 3.01632 -2.94835
# Velocity P-wave (km/s) = 5.06701 6.79233 3.19853
#
# Compressibility (1/GPa) = 0.05256997
#
# Stress axis : x y z
#
# Youngs Moduli (GPa) = 24.39945 134.91078 49.86956
#
# Poissons Ratio (x) = 0.24086 -0.11266
# Poissons Ratio (y) = 0.04356 0.41958
# Poissons Ratio (z) = -0.05512 1.13507
#
# Static dielectric constant tensor:
#      x y z
#    x 1.741560 0.000000 0.000000 
#    y 0.000000 1.993200 0.000000 
#    z 0.000000 0.000000 1.627370 
# 
# From -- ./inp_files/29821.got.cif
#   From: 2010.05.17/outbox.cif.g08.bks.cpg/sg24_15_cif.got.tgz:29821.got - 2010.06.04 00:33:39.
