data_PCOD9333340
_publ_section_title
;
Structure prediction by ZEFSAII (Michael W. Deem and Ramdas Pophale) SiO2 
 PCOD9333340
Probable space group: I 21 21 21
;
_chemical_formula_sum "Si O2"
_cell_formula_units_Z 56
_cell_length_a 22.380954
_cell_length_b 7.719336
_cell_length_c 14.119171
_cell_angle_alpha 90.000000
_cell_angle_beta 90.000000
_cell_angle_gamma 90.000000
_cell_volume 2439.314164
_symmetry_space_group_name_H-M "I 21 21 21"
_symmetry_group_IT_number 24
_symmetry_cell_setting 'orthorhombic'
loop_
_space_group_symop_operation_xyz
x,y,z
-x,1/2-y,z
x,-y,1/2-z
1/2-x,y,-z
1/2+x,1/2+y,1/2+z
1/2-x,-y,1/2+z
1/2+x,1/2-y,-z
-x,1/2+y,1/2-z
loop_
_atom_site_type_symbol
_atom_site_label
_atom_site_fract_x
_atom_site_fract_y
_atom_site_fract_z
Si Si1 0.104134 0.831271 0.873777
Si Si2 0.191857 0.710981 0.237889
Si Si3 0.315495 0.320832 0.525077
Si Si4 0.394201 0.346758 0.016920
Si Si5 0.011156 0.488497 0.637502
Si Si6 0.933452 0.187156 0.194741
Si Si7 0.322313 0.300824 0.203015
O O1 0.057572 0.982987 0.894798
O O2 0.134689 0.808651 0.771942
O O3 0.055434 0.675358 0.880932
O O4 0.156688 0.810675 0.949335
O O5 0.191730 0.500000 0.250000
O O6 0.193595 0.755965 0.127931
O O7 0.127678 0.777430 0.270471
O O8 0.253904 0.760945 0.287380
O O9 0.250000 0.389017 0.500000
O O10 0.362012 0.478025 0.523335
O O11 0.449753 0.370465 0.086731
O O12 0.344029 0.288031 0.094496
O O13 0.423211 0.286851 0.918215
O O14 0.008200 0.500000 0.750000
O O15 0.000000 0.250000 0.217981
O O16 0.931293 0.000000 0.250000
O O17 0.326153 0.500000 0.250000
#
# Coordination Sequence:
#
# PCOD9333340 Si02
#       7
#     8   8   8   8   8   8   8
#     4  10  19  29  51  82 107 147 182 221 284 356
#     4  10  19  33  55  82 112 145 180 239 295 337
#     4  11  17  30  53  82 114 138 181 235 293 343
#     4  11  20  33  53  83 113 148 179 239 294 355
#     4  10  19  33  49  77 117 145 180 224 286 348
#     4  11  25  42  59  84 115 156 203 237 287 344
#     4  11  17  31  54  87 117 139 179 237 302 341
#
# _framework density 22.957273000000001
#
# number of rings (size 3 to 8) (size 9 to 14) (size 15 to 20)
#    0.000    1.429    8.571    0.857    0.000    2.286 
#    0.000    0.000    0.000    0.857    0.000    0.000 
#    0.000    0.000    0.000    0.000    0.000    0.000 
#
# Total GULP energy -155907.749146 kJ/mol
# GULP energy per Si atom -5568.133898 kJ/mol
# Density = 2.290502 g / cm^3
# Si number density = 22.957273 Si / 1000 Ang^3
#
#
#
# Elastic Constant Matrix: (Units=GPa)
#
#
# Indices 1 2 3 4 5 6 
#
# 1 179.9750 22.7120 3.3082 0.0000 0.0000 0.0000
# 2 22.7120 41.0244 -2.1670 0.0000 0.0000 0.0000
# 3 3.3082 -2.1670 85.9896 0.0000 0.0000 0.0000
# 4 0.0000 0.0000 0.0000 -0.1721 0.0000 0.0000
# 5 0.0000 0.0000 0.0000 0.0000 145.2342 0.0000
# 6 0.0000 0.0000 0.0000 0.0000 0.0000 22.8519
#
#
#
# Elastic Compliance Matrix: (Units=1/GPa)
#
#
# Indices 1 2 3 4 5 6 
#
# 1 0.005982 -0.003328 -0.000314 0.000000 0.000000 0.000000
# 2 -0.003328 0.026260 0.000790 0.000000 0.000000 0.000000
# 3 -0.000314 0.000790 0.011661 0.000000 0.000000 0.000000
# 4 0.000000 0.000000 0.000000 -5.809529 0.000000 0.000000
# 5 0.000000 0.000000 0.000000 0.000000 0.006885 0.000000
# 6 0.000000 0.000000 0.000000 0.000000 0.000000 0.043760
#
#
# Mechanical properties :
#
#
# Convention : Reuss Voigt Hill
#
# Bulk Modulus (GPa) = 26.17915 39.41059 32.79487
# Shear Modulus (GPa) = -0.87773 52.45852 25.79040
#
# Velocity S-wave (km/s) = -0.61900 4.78541 3.35536
# Velocity P-wave (km/s) = 3.30413 6.90925 5.41549
#
# Compressibility (1/GPa) = 0.03819834
#
# Stress axis : x y z
#
# Youngs Moduli (GPa) = 167.16453 38.08052 85.75371
#
# Poissons Ratio (x) = 0.12675 0.02693
# Poissons Ratio (y) = 0.55639 -0.06773
# Poissons Ratio (z) = 0.05249 -0.03008
#
# Static dielectric constant tensor:
#      x y z
#    x 1.863660 0.000000 0.000000 
#    y 0.000000 2.199070 0.000000 
#    z 0.000000 0.000000 1.901250 
# 
# From -- ./inp_files/22200.got.cif
#   From: 2010.05.17/outbox.cif.g08.bks.cpg/sg24_12_cif.got.tgz:22200.got - 2010.06.04 00:33:39.
