data_PCOD9333486
_publ_section_title
;
Structure prediction by ZEFSAII (Michael W. Deem and Ramdas Pophale) SiO2 
 PCOD9333486
Probable space group: I 21 21 21
;
_chemical_formula_sum "Si O2"
_cell_formula_units_Z 48
_cell_length_a 11.851357
_cell_length_b 21.162719
_cell_length_c 9.764884
_cell_angle_alpha 90.000000
_cell_angle_beta 90.000000
_cell_angle_gamma 90.000000
_cell_volume 2449.100656
_symmetry_space_group_name_H-M "I 21 21 21"
_symmetry_group_IT_number 24
_symmetry_cell_setting 'orthorhombic'
loop_
_space_group_symop_operation_xyz
x,y,z
-x,1/2-y,z
x,-y,1/2-z
1/2-x,y,-z
1/2+x,1/2+y,1/2+z
1/2-x,-y,1/2+z
1/2+x,1/2-y,-z
-x,1/2+y,1/2-z
loop_
_atom_site_type_symbol
_atom_site_label
_atom_site_fract_x
_atom_site_fract_y
_atom_site_fract_z
Si Si1 0.714915 0.407104 0.646544
Si Si2 0.250000 0.214385 0.000000
Si Si3 0.299690 0.667176 0.640757
Si Si4 0.397280 0.000000 0.250000
Si Si5 0.972940 0.500686 0.050006
Si Si6 0.701388 0.943452 0.848578
Si Si7 0.055456 0.143179 0.128713
O O1 0.750000 0.377754 0.500000
O O2 0.817333 0.437534 0.734256
O O3 0.643133 0.468393 0.599685
O O4 0.633816 0.362942 0.736316
O O5 0.244811 0.263425 0.872011
O O6 0.361328 0.173092 0.983137
O O7 0.250000 0.635814 0.500000
O O8 0.278216 0.621554 0.767760
O O9 0.434982 0.677232 0.636786
O O10 0.471434 0.001128 0.386275
O O11 0.977731 0.428380 0.092789
O O12 0.070306 0.541192 0.120636
O O13 0.742429 0.000000 0.750000
O O14 0.750000 0.943514 0.000000
#
# Coordination Sequence:
#
# PCOD9333486 Si02
#       7
#     8   4   8   4   8   8   8
#     4  10  19  33  56  98 141 165 206 271 353 416
#     4  10  26  40  70  94 120 184 228 282 322 408
#     4  10  24  44  63  94 129 176 234 276 330 408
#     4  10  20  30  50  96 140 160 206 264 342 424
#     4  11  21  34  61  96 135 171 208 274 344 407
#     4  12  24  41  65  98 135 177 220 277 348 408
#     4  12  19  40  66  90 129 171 225 275 333 396
#
# _framework density 19.599029999999999
#
# number of rings (size 3 to 8) (size 9 to 14) (size 15 to 20)
#    0.500    0.667    5.000    2.000    2.333    0.000 
#    0.000    0.833    0.000    0.000    0.000    0.000 
#    0.000    0.000    0.000    0.000    0.000    0.000 
#
# Total GULP energy -133811.363774 kJ/mol
# GULP energy per Si atom -5575.473491 kJ/mol
# Density = 1.955442 g / cm^3
# Si number density = 19.599030 Si / 1000 Ang^3
#
#
#
# Elastic Constant Matrix: (Units=GPa)
#
#
# Indices 1 2 3 4 5 6 
#
# 1 61.5315 17.2295 41.3121 0.0000 0.0000 0.0000
# 2 17.2295 45.4426 27.2904 0.0002 0.0000 0.0000
# 3 41.3121 27.2904 139.4715 0.0008 -0.0002 0.0002
# 4 0.0000 0.0002 0.0008 36.9721 -0.0001 0.0001
# 5 0.0000 0.0000 -0.0002 -0.0001 34.6529 0.0000
# 6 0.0000 0.0000 0.0002 0.0001 0.0000 21.0632
#
#
#
# Elastic Compliance Matrix: (Units=1/GPa)
#
#
# Indices 1 2 3 4 5 6 
#
# 1 0.021183 -0.004831 -0.005329 0.000000 0.000000 0.000000
# 2 -0.004831 0.026038 -0.003664 0.000000 0.000000 0.000000
# 3 -0.005329 -0.003664 0.009465 0.000000 0.000000 0.000000
# 4 0.000000 0.000000 0.000000 0.027047 0.000000 0.000000
# 5 0.000000 0.000000 0.000000 0.000000 0.028858 0.000000
# 6 0.000000 0.000000 0.000000 0.000000 0.000000 0.047476
#
#
# Mechanical properties :
#
#
# Convention : Reuss Voigt Hill
#
# Bulk Modulus (GPa) = 34.43791 46.45665 40.44728
# Shear Modulus (GPa) = 25.33007 29.24520 27.28763
#
# Velocity S-wave (km/s) = 3.59892 3.86706 3.73540
# Velocity P-wave (km/s) = 5.90584 6.61013 6.26789
#
# Compressibility (1/GPa) = 0.02903777
#
# Stress axis : x y z
#
# Youngs Moduli (GPa) = 47.20878 38.40578 105.64871
#
# Poissons Ratio (x) = 0.18554 0.56301
# Poissons Ratio (y) = 0.22806 0.38708
# Poissons Ratio (z) = 0.25158 0.14071
#
# Static dielectric constant tensor:
#      x y z
#    x 1.738550 0.000000 0.000000 
#    y 0.000000 1.698560 0.000000 
#    z 0.000000 0.000000 1.762270 
# 
# From -- ./inp_files/11316.got.cif
#   From: 2010.05.17/outbox.cif.g08.bks.cpg/sg24_6_cif.got.tgz:11316.got - 2010.06.04 00:33:39.
