data_PCOD9333799
_publ_section_title
;
Structure prediction by ZEFSAII (Michael W. Deem and Ramdas Pophale) SiO2 
 PCOD9333799
Probable space group: I 21 21 21
;
_chemical_formula_sum "Si O2"
_cell_formula_units_Z 36
_cell_length_a 7.777573
_cell_length_b 9.137878
_cell_length_c 22.682010
_cell_angle_alpha 90.000000
_cell_angle_beta 90.000000
_cell_angle_gamma 90.000000
_cell_volume 1612.022091
_symmetry_space_group_name_H-M "I 21 21 21"
_symmetry_group_IT_number 24
_symmetry_cell_setting 'orthorhombic'
loop_
_space_group_symop_operation_xyz
x,y,z
-x,1/2-y,z
x,-y,1/2-z
1/2-x,y,-z
1/2+x,1/2+y,1/2+z
1/2-x,-y,1/2+z
1/2+x,1/2-y,-z
-x,1/2+y,1/2-z
loop_
_atom_site_type_symbol
_atom_site_label
_atom_site_fract_x
_atom_site_fract_y
_atom_site_fract_z
Si Si1 0.003879 0.423010 0.391361
Si Si2 0.421618 0.500000 0.250000
Si Si3 0.180195 0.329200 0.182468
Si Si4 0.044816 0.918858 0.507251
Si Si5 0.132704 0.055447 0.866185
O O1 0.038404 0.477400 0.458374
O O2 0.809814 0.470200 0.375486
O O3 0.000000 0.250000 0.385651
O O4 0.128805 0.520380 0.350263
O O5 0.293648 0.363937 0.239550
O O6 0.536707 0.500161 0.308200
O O7 0.297602 0.221412 0.143322
O O8 0.000000 0.250000 0.195582
O O9 0.250000 0.931827 0.500000
O O10 0.016180 0.955789 0.575565
O O11 0.000000 0.750000 0.494649
#
# Coordination Sequence:
#
# PCOD9333799 Si02
#       5
#     8   4   8   8   8
#     4  10  22  41  65  94 130 171 213 263 324 385
#     4  12  24  40  68  96 122 158 216 278 310 360
#     4  10  23  43  66  92 127 174 217 254 320 400
#     4  10  19  38  66  93 125 166 213 261 315 385
#     4  10  23  43  64  95 129 167 217 266 320 383
#
# _framework density 22.3322
#
# number of rings (size 3 to 8) (size 9 to 14) (size 15 to 20)
#    0.000    1.778    0.000    5.333    0.000    8.000 
#    0.000   18.889    0.000    0.000    0.000    0.000 
#    0.000    0.000    0.000    0.000    0.000    0.000 
#
# Total GULP energy -100623.500523 kJ/mol
# GULP energy per Si atom -5590.194473 kJ/mol
# Density = 2.228137 g / cm^3
# Si number density = 22.332200 Si / 1000 Ang^3
#
#
#
# Elastic Constant Matrix: (Units=GPa)
#
#
# Indices 1 2 3 4 5 6 
#
# 1 87.4585 33.5761 63.0317 0.0000 0.0000 0.0000
# 2 33.5761 164.0391 74.0068 0.0000 0.0000 0.0000
# 3 63.0317 74.0068 159.6858 0.0000 0.0000 0.0000
# 4 0.0000 0.0000 0.0000 35.3839 0.0000 0.0000
# 5 0.0000 0.0000 0.0000 0.0000 24.9558 0.0000
# 6 0.0000 0.0000 0.0000 0.0000 0.0000 19.3321
#
#
#
# Elastic Compliance Matrix: (Units=1/GPa)
#
#
# Indices 1 2 3 4 5 6 
#
# 1 0.016018 -0.000539 -0.006073 0.000000 0.000000 0.000000
# 2 -0.000539 0.007726 -0.003368 0.000000 0.000000 0.000000
# 3 -0.006073 -0.003368 0.010220 0.000000 0.000000 0.000000
# 4 0.000000 0.000000 0.000000 0.028261 0.000000 0.000000
# 5 0.000000 0.000000 0.000000 0.000000 0.040071 0.000000
# 6 0.000000 0.000000 0.000000 0.000000 0.000000 0.051727
#
#
# Mechanical properties :
#
#
# Convention : Reuss Voigt Hill
#
# Bulk Modulus (GPa) = 71.40472 83.60141 77.50307
# Shear Modulus (GPa) = 27.98763 31.97229 29.97996
#
# Velocity S-wave (km/s) = 3.54395 3.78784 3.66793
# Velocity P-wave (km/s) = 6.98494 7.52642 7.26073
#
# Compressibility (1/GPa) = 0.01400468
#
# Stress axis : x y z
#
# Youngs Moduli (GPa) = 62.43161 129.43613 97.84514
#
# Poissons Ratio (x) = 0.06973 0.59419
# Poissons Ratio (y) = 0.03364 0.32953
# Poissons Ratio (z) = 0.37913 0.43593
#
# Static dielectric constant tensor:
#      x y z
#    x 1.823270 0.000000 0.000000 
#    y 0.000000 1.852680 0.000000 
#    z 0.000000 0.000000 1.866610 
# 
# From -- ./inp_files/9077.got.cif
#   From: 2010.05.17/outbox.cif.g08.bks.cpg/sg24_5_cif.got.tgz:9077.got - 2010.06.04 00:33:39.
