data_PCOD9333015
_publ_section_title
;
Structure prediction by ZEFSAII (Michael W. Deem and Ramdas Pophale) SiO2 
 PCOD9333015
Probable space group: I 21 21 21
;
_chemical_formula_sum "Si O2"
_cell_formula_units_Z 32
_cell_length_a 8.341116
_cell_length_b 15.549808
_cell_length_c 11.373150
_cell_angle_alpha 90.000000
_cell_angle_beta 90.000000
_cell_angle_gamma 90.000000
_cell_volume 1475.128857
_symmetry_space_group_name_H-M "I 21 21 21"
_symmetry_group_IT_number 24
_symmetry_cell_setting 'orthorhombic'
loop_
_space_group_symop_operation_xyz
x,y,z
-x,1/2-y,z
x,-y,1/2-z
1/2-x,y,-z
1/2+x,1/2+y,1/2+z
1/2-x,-y,1/2+z
1/2+x,1/2-y,-z
-x,1/2+y,1/2-z
loop_
_atom_site_type_symbol
_atom_site_label
_atom_site_fract_x
_atom_site_fract_y
_atom_site_fract_z
Si Si1 0.449752 0.657233 0.793693
Si Si2 0.056610 0.030931 0.497191
Si Si3 0.370740 0.674709 0.114342
Si Si4 0.064266 0.841506 0.470896
O O1 0.500000 0.750000 0.847587
O O2 0.501081 0.577950 0.876134
O O3 0.257830 0.662849 0.782523
O O4 0.534989 0.653774 0.668920
O O5 0.250000 0.034351 0.500000
O O6 0.975028 0.090070 0.594573
O O7 0.998721 0.933344 0.513521
O O8 0.500000 0.750000 0.127791
O O9 0.250000 0.685451 0.000000
O O10 0.250000 0.842043 0.500000
O O11 0.000000 0.750000 0.514727
#
# Coordination Sequence:
#
# PCOD9333015 Si02
#       4
#     8   8   8   8
#     4  10  20  36  60  88 118 153 192 239 291 347
#     4  10  19  35  61  90 120 151 188 239 297 350
#     4  10  18  31  58  94 126 150 181 236 300 355
#     4  10  23  42  61  80 113 160 203 242 282 338
#
# _framework density 21.693019
#
# number of rings (size 3 to 8) (size 9 to 14) (size 15 to 20)
#    0.000    2.000    0.000    6.000    0.000    3.000 
#    0.000   10.000    0.000   33.000    0.000    0.000 
#    0.000    0.000    0.000    0.000    0.000    0.000 
#
# Total GULP energy -89274.082632 kJ/mol
# GULP energy per Si atom -5579.630164 kJ/mol
# Density = 2.164364 g / cm^3
# Si number density = 21.693019 Si / 1000 Ang^3
#
#
#
# Elastic Constant Matrix: (Units=GPa)
#
#
# Indices 1 2 3 4 5 6 
#
# 1 125.2272 68.1725 38.1596 0.0000 0.0000 0.0000
# 2 68.1725 238.0972 18.2652 0.0001 0.0000 0.0000
# 3 38.1596 18.2652 35.0709 0.0001 0.0000 0.0000
# 4 0.0000 0.0001 0.0001 58.8231 0.0000 0.0000
# 5 0.0000 0.0000 0.0000 0.0000 39.2076 0.0000
# 6 0.0000 0.0000 0.0000 0.0000 0.0000 36.1716
#
#
#
# Elastic Compliance Matrix: (Units=1/GPa)
#
#
# Indices 1 2 3 4 5 6 
#
# 1 0.013605 -0.002875 -0.013306 0.000000 0.000000 0.000000
# 2 -0.002875 0.004982 0.000533 0.000000 0.000000 0.000000
# 3 -0.013306 0.000533 0.042714 0.000000 0.000000 0.000000
# 4 0.000000 0.000000 0.000000 0.017000 0.000000 0.000000
# 5 0.000000 0.000000 0.000000 0.000000 0.025505 0.000000
# 6 0.000000 0.000000 0.000000 0.000000 0.000000 0.027646
#
#
# Mechanical properties :
#
#
# Convention : Reuss Voigt Hill
#
# Bulk Modulus (GPa) = 33.32687 71.95443 52.64065
# Shear Modulus (GPa) = 28.94356 45.09366 37.01861
#
# Velocity S-wave (km/s) = 3.65668 4.56424 4.13543
# Velocity P-wave (km/s) = 5.76409 7.81139 6.86449
#
# Compressibility (1/GPa) = 0.03000582
#
# Stress axis : x y z
#
# Youngs Moduli (GPa) = 73.50176 200.71639 23.41154
#
# Poissons Ratio (x) = 0.57700 0.31152
# Poissons Ratio (y) = 0.21129 -0.01248
# Poissons Ratio (z) = 0.97802 -0.10700
#
# Static dielectric constant tensor:
#      x y z
#    x 1.772550 0.000000 0.000000 
#    y 0.000000 1.827960 0.000000 
#    z 0.000000 0.000000 1.870540 
# 
# From -- ./inp_files/10216.got.cif
#   From: 2010.05.17/outbox.cif.g08.bks.cpg/sg24_6_cif.got.tgz:10216.got - 2010.06.04 00:33:39.
