data_PCOD9333029
_publ_section_title
;
Structure prediction by ZEFSAII (Michael W. Deem and Ramdas Pophale) SiO2 
 PCOD9333029
Probable space group: I 21 21 21
;
_chemical_formula_sum "Si O2"
_cell_formula_units_Z 64
_cell_length_a 9.822267
_cell_length_b 21.440761
_cell_length_c 18.437094
_cell_angle_alpha 90.000000
_cell_angle_beta 90.000000
_cell_angle_gamma 90.000000
_cell_volume 3882.794458
_symmetry_space_group_name_H-M "I 21 21 21"
_symmetry_group_IT_number 24
_symmetry_cell_setting 'orthorhombic'
loop_
_space_group_symop_operation_xyz
x,y,z
-x,1/2-y,z
x,-y,1/2-z
1/2-x,y,-z
1/2+x,1/2+y,1/2+z
1/2-x,-y,1/2+z
1/2+x,1/2-y,-z
-x,1/2+y,1/2-z
loop_
_atom_site_type_symbol
_atom_site_label
_atom_site_fract_x
_atom_site_fract_y
_atom_site_fract_z
Si Si1 0.967341 0.379093 0.842291
Si Si2 0.250000 0.357242 0.913059
Si Si3 0.532659 0.620907 0.657709
Si Si4 0.750000 0.709964 0.586169
Si Si5 0.906261 0.310529 0.698511
Si Si6 0.593739 0.310529 0.698511
Si Si7 0.750000 0.617682 0.086144
Si Si8 0.250000 0.014798 0.164505
O O1 0.882435 0.324467 0.882434
O O2 0.966216 0.357456 0.758466
O O3 0.880262 0.441784 0.850730
O O4 0.114695 0.384283 0.876930
O O5 0.385305 0.384283 0.876930
O O6 0.250000 0.283011 0.897238
O O7 0.250000 0.365504 0.000000
O O8 0.617564 0.675534 0.617566
O O9 0.533784 0.642544 0.741534
O O10 0.619737 0.558216 0.649270
O O11 0.750000 0.702673 0.500000
O O12 0.750000 0.294250 0.722834
O O13 0.878016 0.346075 0.622888
O O14 0.000000 0.250000 0.692937
O O15 0.500000 0.250000 0.692938
O O16 0.621984 0.346075 0.622888
O O17 0.750000 0.547994 0.118143
O O18 0.750000 0.619205 0.000000
O O19 0.250000 0.000000 0.250000
#
# Coordination Sequence:
#
# PCOD9333029 Si02
#       8
#     8   8   8   8   8   8   8   8
#     4  11  21  34  59  82 117 153 201 239 282 350
#     4  11  23  34  49  85 128 154 189 241 293 335
#     4  11  21  34  59  82 117 153 201 239 282 350
#     4  10  18  32  51  78 118 158 190 228 282 339
#     4  10  20  36  59  90 117 147 192 243 299 363
#     4  10  20  36  59  90 117 147 192 243 299 363
#     4  10  22  39  64  90 115 154 199 250 296 350
#     4  11  19  43  62  83 111 151 202 242 275 350
#
# _framework density 16.482973999999999
#
# number of rings (size 3 to 8) (size 9 to 14) (size 15 to 20)
#    0.750    0.750    5.000    3.000    1.750    5.500 
#    0.000    0.625    2.750    0.000    0.000    0.000 
#    0.000    0.000    0.000    0.000    0.000    0.000 
#
# Total GULP energy -178451.641031 kJ/mol
# GULP energy per Si atom -5576.613782 kJ/mol
# Density = 1.644546 g / cm^3
# Si number density = 16.482974 Si / 1000 Ang^3
#
#
#
# Elastic Constant Matrix: (Units=GPa)
#
#
# Indices 1 2 3 4 5 6 
#
# 1 138.8240 46.2865 43.0442 0.0000 0.0000 0.0000
# 2 46.2865 83.1127 28.2838 0.0000 0.0000 0.0000
# 3 43.0442 28.2838 94.0363 0.0000 0.0000 0.0000
# 4 0.0000 0.0000 0.0000 24.6401 0.0000 0.0000
# 5 0.0000 0.0000 0.0000 0.0000 18.6883 0.0000
# 6 0.0000 0.0000 0.0000 0.0000 0.0000 15.2707
#
#
#
# Elastic Compliance Matrix: (Units=1/GPa)
#
#
# Indices 1 2 3 4 5 6 
#
# 1 0.009595 -0.004288 -0.003102 0.000000 0.000000 0.000000
# 2 -0.004288 0.015320 -0.002645 0.000000 0.000000 0.000000
# 3 -0.003102 -0.002645 0.012850 0.000000 0.000000 0.000000
# 4 0.000000 0.000000 0.000000 0.040584 0.000000 0.000000
# 5 0.000000 0.000000 0.000000 0.000000 0.053509 0.000000
# 6 0.000000 0.000000 0.000000 0.000000 0.000000 0.065485
#
#
# Mechanical properties :
#
#
# Convention : Reuss Voigt Hill
#
# Bulk Modulus (GPa) = 56.51583 61.24466 58.88025
# Shear Modulus (GPa) = 22.39026 24.94375 23.66700
#
# Velocity S-wave (km/s) = 3.68963 3.89434 3.79337
# Velocity P-wave (km/s) = 7.24658 7.58012 7.41523
#
# Compressibility (1/GPa) = 0.01769416
#
# Stress axis : x y z
#
# Youngs Moduli (GPa) = 104.22201 65.27441 77.82198
#
# Poissons Ratio (x) = 0.27988 0.24143
# Poissons Ratio (y) = 0.44688 0.20585
# Poissons Ratio (z) = 0.32333 0.17266
#
# Static dielectric constant tensor:
#      x y z
#    x 1.575630 0.000000 0.000000 
#    y 0.000000 1.537060 0.000000 
#    z 0.000000 0.000000 1.560930 
# 
# From -- ./inp_files/29803.got.cif
#   From: 2010.05.17/outbox.cif.g08.bks.cpg/sg24_15_cif.got.tgz:29803.got - 2010.06.04 00:33:39.
