data_PCOD9333312
_publ_section_title
;
Structure prediction by ZEFSAII (Michael W. Deem and Ramdas Pophale) SiO2 
 PCOD9333312
Probable space group: I 21 21 21
;
_chemical_formula_sum "Si O2"
_cell_formula_units_Z 48
_cell_length_a 8.177054
_cell_length_b 16.427779
_cell_length_c 17.282024
_cell_angle_alpha 90.000000
_cell_angle_beta 90.000000
_cell_angle_gamma 90.000000
_cell_volume 2321.508731
_symmetry_space_group_name_H-M "I 21 21 21"
_symmetry_group_IT_number 24
_symmetry_cell_setting 'orthorhombic'
loop_
_space_group_symop_operation_xyz
x,y,z
-x,1/2-y,z
x,-y,1/2-z
1/2-x,y,-z
1/2+x,1/2+y,1/2+z
1/2-x,-y,1/2+z
1/2+x,1/2-y,-z
-x,1/2+y,1/2-z
loop_
_atom_site_type_symbol
_atom_site_label
_atom_site_fract_x
_atom_site_fract_y
_atom_site_fract_z
Si Si1 0.094126 0.078745 0.884786
Si Si2 0.109035 0.500000 0.750000
Si Si3 0.566393 0.993724 0.533355
Si Si4 0.399169 0.673034 0.942699
Si Si5 0.454148 0.927299 0.686662
Si Si6 0.500000 0.750000 0.320967
Si Si7 0.296311 0.670607 0.768290
O O1 0.280276 0.080852 0.855527
O O2 0.027092 0.169772 0.871855
O O3 0.000489 0.019870 0.824599
O O4 0.052439 0.047349 0.970442
O O5 0.213121 0.580728 0.766412
O O6 0.750000 0.992163 0.500000
O O7 0.511035 0.086109 0.552212
O O8 0.572780 0.950249 0.616014
O O9 0.500000 0.750000 0.969311
O O10 0.336077 0.690321 0.856483
O O11 0.250000 0.664168 0.000000
O O12 0.531338 0.846864 0.725304
O O13 0.443658 0.000000 0.750000
O O14 0.337545 0.730727 0.269600
#
# Coordination Sequence:
#
# PCOD9333312 Si02
#       7
#     8   4   8   8   8   4   8
#     4  11  24  42  69 102 137 178 236 298 349 435
#     4  10  18  40  66  94 128 184 232 272 346 432
#     4  11  23  46  71  97 137 183 237 290 359 432
#     4  11  25  41  62  98 138 184 230 289 362 418
#     4  12  23  42  71 104 133 186 241 291 360 431
#     4  10  26  42  70 104 138 186 234 290 368 428
#     4  11  22  43  68  96 144 183 236 292 358 437
#
# _framework density 20.676209
#
# number of rings (size 3 to 8) (size 9 to 14) (size 15 to 20)
#    0.000    1.000    3.333    4.500    3.500    1.333 
#    0.000    5.000    0.000    0.000    0.000    0.000 
#    0.000    0.000    0.000    0.000    0.000    0.000 
#
# Total GULP energy -134120.307751 kJ/mol
# GULP energy per Si atom -5588.346156 kJ/mol
# Density = 2.062915 g / cm^3
# Si number density = 20.676209 Si / 1000 Ang^3
#
#
#
# Elastic Constant Matrix: (Units=GPa)
#
#
# Indices 1 2 3 4 5 6 
#
# 1 86.6932 7.4824 21.4469 0.0000 0.0000 0.0000
# 2 7.4824 72.9485 24.2885 0.0000 0.0000 0.0000
# 3 21.4469 24.2885 119.1560 0.0000 0.0000 0.0000
# 4 0.0000 0.0000 0.0000 29.1271 0.0000 0.0000
# 5 0.0000 0.0000 0.0000 0.0000 35.9424 0.0000
# 6 0.0000 0.0000 0.0000 0.0000 0.0000 18.7488
#
#
#
# Elastic Compliance Matrix: (Units=1/GPa)
#
#
# Indices 1 2 3 4 5 6 
#
# 1 0.012093 -0.000553 -0.002064 0.000000 0.000000 0.000000
# 2 -0.000553 0.014732 -0.002903 0.000000 0.000000 0.000000
# 3 -0.002064 -0.002903 0.009356 0.000000 0.000000 0.000000
# 4 0.000000 0.000000 0.000000 0.034332 0.000000 0.000000
# 5 0.000000 0.000000 0.000000 0.000000 0.027822 0.000000
# 6 0.000000 0.000000 0.000000 0.000000 0.000000 0.053337
#
#
# Mechanical properties :
#
#
# Convention : Reuss Voigt Hill
#
# Bulk Modulus (GPa) = 39.77766 42.80371 41.29069
# Shear Modulus (GPa) = 29.22391 31.80231 30.51311
#
# Velocity S-wave (km/s) = 3.76361 3.92613 3.84573
# Velocity P-wave (km/s) = 6.17790 6.42647 6.30341
#
# Compressibility (1/GPa) = 0.02513974
#
# Stress axis : x y z
#
# Youngs Moduli (GPa) = 82.69064 67.88073 106.88732
#
# Poissons Ratio (x) = 0.03755 0.22060
# Poissons Ratio (y) = 0.04575 0.31033
# Poissons Ratio (z) = 0.17066 0.19708
#
# Static dielectric constant tensor:
#      x y z
#    x 1.787810 0.000000 0.000000 
#    y 0.000000 1.755610 0.000000 
#    z 0.000000 0.000000 1.707270 
# 
# From -- ./inp_files/29526.got.cif
#   From: 2010.05.17/outbox.cif.g08.bks.cpg/sg24_15_cif.got.tgz:29526.got - 2010.06.04 00:33:39.
