data_PCOD9333769
_publ_section_title
;
Structure prediction by ZEFSAII (Michael W. Deem and Ramdas Pophale) SiO2 
 PCOD9333769
Probable space group: I 21 21 21
;
_chemical_formula_sum "Si O2"
_cell_formula_units_Z 48
_cell_length_a 16.362534
_cell_length_b 9.528193
_cell_length_c 16.608793
_cell_angle_alpha 90.000000
_cell_angle_beta 90.000000
_cell_angle_gamma 90.000000
_cell_volume 2589.400216
_symmetry_space_group_name_H-M "I 21 21 21"
_symmetry_group_IT_number 24
_symmetry_cell_setting 'orthorhombic'
loop_
_space_group_symop_operation_xyz
x,y,z
-x,1/2-y,z
x,-y,1/2-z
1/2-x,y,-z
1/2+x,1/2+y,1/2+z
1/2-x,-y,1/2+z
1/2+x,1/2-y,-z
-x,1/2+y,1/2-z
loop_
_atom_site_type_symbol
_atom_site_label
_atom_site_fract_x
_atom_site_fract_y
_atom_site_fract_z
Si Si1 0.186726 0.444689 0.837067
Si Si2 0.636845 0.956591 0.610137
Si Si3 0.119820 0.355038 0.531231
Si Si4 0.654744 0.730885 0.473991
Si Si5 0.568747 0.438670 0.497884
Si Si6 0.476411 0.087705 0.679267
O O1 0.158913 0.500000 0.750000
O O2 0.284384 0.421307 0.837350
O O3 0.165172 0.570150 0.897193
O O4 0.152042 0.310664 0.887527
O O5 0.621557 0.833713 0.544704
O O6 0.655645 0.090593 0.553225
O O7 0.558215 0.997686 0.660651
O O8 0.119678 0.189101 0.538657
O O9 0.025372 0.409841 0.527338
O O10 0.750000 0.708785 0.500000
O O11 0.603740 0.588589 0.474381
O O12 0.570563 0.416908 0.594491
O O13 0.500000 0.250000 0.697440
O O14 0.433519 0.000000 0.750000
#
# Coordination Sequence:
#
# PCOD9333769 Si02
#       6
#     8   8   8   8   8   8
#     4  10  20  36  55  80 107 142 192 236 276 326
#     4   9  18  36  56  77 110 149 183 215 275 344
#     4   9  18  35  58  77 104 150 184 217 281 337
#     4   9  20  35  58  85 106 147 192 224 274 336
#     4  10  19  38  54  79 114 142 188 227 266 340
#     4  11  22  35  54  87 117 146 178 223 279 333
#
# _framework density 18.537112
#
# number of rings (size 3 to 8) (size 9 to 14) (size 15 to 20)
#    0.000    2.333    3.333    2.000    2.333    6.667 
#    0.000    4.167    0.000    0.000    0.000    0.000 
#    0.000    0.000    0.000    0.000    0.000    0.000 
#
# Total GULP energy -133709.142303 kJ/mol
# GULP energy per Si atom -5571.214263 kJ/mol
# Density = 1.849492 g / cm^3
# Si number density = 18.537112 Si / 1000 Ang^3
#
#
#
# Elastic Constant Matrix: (Units=GPa)
#
#
# Indices 1 2 3 4 5 6 
#
# 1 24.0861 35.4770 9.7581 0.0000 0.0000 0.0000
# 2 35.4770 146.5929 18.6623 0.0000 0.0000 0.0000
# 3 9.7581 18.6623 60.8589 0.0000 0.0000 0.0000
# 4 0.0000 0.0000 0.0000 15.2641 0.0000 0.0000
# 5 0.0000 0.0000 0.0000 0.0000 11.0097 0.0000
# 6 0.0000 0.0000 0.0000 0.0000 0.0000 20.2982
#
#
#
# Elastic Compliance Matrix: (Units=1/GPa)
#
#
# Indices 1 2 3 4 5 6 
#
# 1 0.066531 -0.015342 -0.005963 0.000000 0.000000 0.000000
# 2 -0.015342 0.010637 -0.000802 0.000000 0.000000 0.000000
# 3 -0.005963 -0.000802 0.017633 0.000000 0.000000 0.000000
# 4 0.000000 0.000000 0.000000 0.065513 0.000000 0.000000
# 5 0.000000 0.000000 0.000000 0.000000 0.090829 0.000000
# 6 0.000000 0.000000 0.000000 0.000000 0.000000 0.049265
#
#
# Mechanical properties :
#
#
# Convention : Reuss Voigt Hill
#
# Bulk Modulus (GPa) = 19.76766 39.92584 29.84675
# Shear Modulus (GPa) = 13.83182 20.49044 17.16113
#
# Velocity S-wave (km/s) = 2.73457 3.32832 3.04595
# Velocity P-wave (km/s) = 4.54505 6.02954 5.33914
#
# Compressibility (1/GPa) = 0.05058766
#
# Stress axis : x y z
#
# Youngs Moduli (GPa) = 15.03050 94.01475 56.71048
#
# Poissons Ratio (x) = 1.44239 0.33817
# Poissons Ratio (y) = 0.23060 0.04547
# Poissons Ratio (z) = 0.08963 0.07538
#
# Static dielectric constant tensor:
#      x y z
#    x 1.692830 0.000000 0.000000 
#    y 0.000000 1.653810 0.000000 
#    z 0.000000 0.000000 1.657820 
# 
# From -- ./inp_files/14161.got.cif
#   From: 2010.05.17/outbox.cif.g08.bks.cpg/sg24_8_cif.got.tgz:14161.got - 2010.06.04 00:33:39.
