data_PCOD9333217
_publ_section_title
;
Structure prediction by ZEFSAII (Michael W. Deem and Ramdas Pophale) SiO2 
 PCOD9333217
Probable space group: I 21 21 21
;
_chemical_formula_sum "Si O2"
_cell_formula_units_Z 40
_cell_length_a 5.470848
_cell_length_b 14.651657
_cell_length_c 22.853257
_cell_angle_alpha 90.000000
_cell_angle_beta 90.000000
_cell_angle_gamma 90.000000
_cell_volume 1831.848256
_symmetry_space_group_name_H-M "I 21 21 21"
_symmetry_group_IT_number 24
_symmetry_cell_setting 'orthorhombic'
loop_
_space_group_symop_operation_xyz
x,y,z
-x,1/2-y,z
x,-y,1/2-z
1/2-x,y,-z
1/2+x,1/2+y,1/2+z
1/2-x,-y,1/2+z
1/2+x,1/2-y,-z
-x,1/2+y,1/2-z
loop_
_atom_site_type_symbol
_atom_site_label
_atom_site_fract_x
_atom_site_fract_y
_atom_site_fract_z
Si Si1 0.203382 0.111030 0.814499
Si Si2 0.337456 0.588475 0.413191
Si Si3 0.755402 0.305313 0.307194
Si Si4 0.541393 0.544155 0.887195
Si Si5 0.750000 0.454998 0.000000
Si Si6 0.000000 0.750000 0.385827
O O1 0.189671 0.125710 0.745819
O O2 0.306010 0.202341 0.844092
O O3 0.952397 0.099586 0.848961
O O4 0.377095 0.029702 0.837616
O O5 0.533685 0.598411 0.465498
O O6 0.231033 0.485611 0.406780
O O7 0.131881 0.667057 0.419663
O O8 0.500000 0.250000 0.318159
O O9 0.865273 0.360903 0.362153
O O10 0.000000 0.250000 0.287299
O O11 0.671324 0.518697 0.947056
#
# Coordination Sequence:
#
# PCOD9333217 Si02
#       6
#     8   8   8   8   4   4
#     4  10  21  41  69  97 145 183 225 282 360 435
#     4  10  21  39  74  95 142 191 237 288 356 424
#     4  12  27  45  71 110 146 180 235 302 360 427
#     4  10  24  44  71  99 134 191 236 289 358 429
#     4  10  22  44  70  94 134 190 242 298 344 422
#     4  10  18  36  64 102 136 184 224 286 350 428
#
# _framework density 21.835871000000001
#
# number of rings (size 3 to 8) (size 9 to 14) (size 15 to 20)
#    0.000    1.600    1.000    3.000    8.400    0.000 
#    0.000    1.000  158.400    0.000    0.000    0.000 
#    0.000    0.000    0.000    0.000    0.000    0.000 
#
# Total GULP energy -111381.952091 kJ/mol
# GULP energy per Si atom -5569.097605 kJ/mol
# Density = 2.178617 g / cm^3
# Si number density = 21.835871 Si / 1000 Ang^3
#
#
#
# Elastic Constant Matrix: (Units=GPa)
#
#
# Indices 1 2 3 4 5 6 
#
# 1 119.2130 27.7695 33.6278 0.0000 0.0000 0.0000
# 2 27.7695 46.4079 26.6598 0.0000 0.0000 0.0000
# 3 33.6278 26.6598 103.0288 0.0000 0.0000 0.0000
# 4 0.0000 0.0000 0.0000 22.7187 0.0000 0.0000
# 5 0.0000 0.0000 0.0000 0.0000 22.2798 0.0000
# 6 0.0000 0.0000 0.0000 0.0000 0.0000 17.0242
#
#
#
# Elastic Compliance Matrix: (Units=1/GPa)
#
#
# Indices 1 2 3 4 5 6 
#
# 1 0.010097 -0.004873 -0.002035 0.000000 0.000000 0.000000
# 2 -0.004873 0.027662 -0.005567 0.000000 0.000000 0.000000
# 3 -0.002035 -0.005567 0.011811 0.000000 0.000000 0.000000
# 4 0.000000 0.000000 0.000000 0.044017 0.000000 0.000000
# 5 0.000000 0.000000 0.000000 0.000000 0.044884 0.000000
# 6 0.000000 0.000000 0.000000 0.000000 0.000000 0.058740
#
#
# Mechanical properties :
#
#
# Convention : Reuss Voigt Hill
#
# Bulk Modulus (GPa) = 40.61743 49.41821 45.01782
# Shear Modulus (GPa) = 21.70438 24.44404 23.07421
#
# Velocity S-wave (km/s) = 3.15616 3.34944 3.25424
# Velocity P-wave (km/s) = 5.65008 6.13507 5.89757
#
# Compressibility (1/GPa) = 0.02461997
#
# Stress axis : x y z
#
# Youngs Moduli (GPa) = 99.03457 36.15018 84.66863
#
# Poissons Ratio (x) = 0.17617 0.17228
# Poissons Ratio (y) = 0.48262 0.47138
# Poissons Ratio (z) = 0.20151 0.20126
#
# Static dielectric constant tensor:
#      x y z
#    x 1.904720 0.000000 0.000000 
#    y 0.000000 1.834610 0.000000 
#    z 0.000000 0.000000 1.774770 
# 
# From -- ./inp_files/34636.got.cif
#   From: 2010.05.17/outbox.cif.g08.bks.cpg/sg24_18_cif.got.tgz:34636.got - 2010.06.04 00:33:39.
