data_PCOD9333851
_publ_section_title
;
Structure prediction by ZEFSAII (Michael W. Deem and Ramdas Pophale) SiO2 
 PCOD9333851
Probable space group: I 21 21 21
;
_chemical_formula_sum "Si O2"
_cell_formula_units_Z 44
_cell_length_a 8.394368
_cell_length_b 13.380899
_cell_length_c 19.735799
_cell_angle_alpha 90.000000
_cell_angle_beta 90.000000
_cell_angle_gamma 90.000000
_cell_volume 2216.807644
_symmetry_space_group_name_H-M "I 21 21 21"
_symmetry_group_IT_number 24
_symmetry_cell_setting 'orthorhombic'
loop_
_space_group_symop_operation_xyz
x,y,z
-x,1/2-y,z
x,-y,1/2-z
1/2-x,y,-z
1/2+x,1/2+y,1/2+z
1/2-x,-y,1/2+z
1/2+x,1/2-y,-z
-x,1/2+y,1/2-z
loop_
_atom_site_type_symbol
_atom_site_label
_atom_site_fract_x
_atom_site_fract_y
_atom_site_fract_z
Si Si1 0.081761 0.587656 0.197182
Si Si2 0.282803 0.105966 0.272901
Si Si3 0.822489 0.065417 0.573811
Si Si4 0.673792 0.233217 0.814832
Si Si5 0.000000 0.250000 0.636574
Si Si6 0.124968 0.657550 0.562897
O O1 0.110369 0.500000 0.250000
O O2 0.180699 0.564549 0.130003
O O3 0.145561 0.681403 0.241354
O O4 0.889745 0.593664 0.190154
O O5 0.246213 0.160277 0.202205
O O6 0.392725 0.179044 0.315731
O O7 0.353049 0.000000 0.250000
O O8 0.750000 0.074823 0.500000
O O9 0.913539 0.167035 0.591508
O O10 0.922125 0.960468 0.570914
O O11 0.500000 0.250000 0.845808
O O12 0.783748 0.176678 0.866618
O O13 0.250000 0.662062 0.500000
O O14 0.000000 0.750000 0.554726
#
# Coordination Sequence:
#
# PCOD9333851 Si02
#       6
#     8   8   8   8   4   8
#     4  10  19  42  67  94 126 170 219 264 325 395
#     4  10  24  38  65 100 131 170 222 272 325 389
#     4  11  26  45  66  93 131 177 219 274 333 400
#     4  10  20  37  67  96 127 167 215 270 320 393
#     4  12  26  42  62  98 138 170 222 278 332 396
#     4  11  25  44  66  96 132 172 217 276 340 400
#
# _framework density 19.84836
#
# number of rings (size 3 to 8) (size 9 to 14) (size 15 to 20)
#    0.000    1.455    3.636    0.545    3.818    2.182 
#    0.000    0.909    0.000    0.000    0.000    0.000 
#    0.000    0.000    0.000    0.000    0.000    0.000 
#
# Total GULP energy -122603.017511 kJ/mol
# GULP energy per Si atom -5572.864432 kJ/mol
# Density = 1.980318 g / cm^3
# Si number density = 19.848360 Si / 1000 Ang^3
#
#
#
# Elastic Constant Matrix: (Units=GPa)
#
#
# Indices 1 2 3 4 5 6 
#
# 1 58.1070 62.0014 50.5012 0.0000 0.0000 0.0000
# 2 62.0014 191.7850 50.4792 0.0000 0.0000 0.0000
# 3 50.5012 50.4792 93.7156 0.0000 0.0000 0.0000
# 4 0.0000 0.0000 0.0000 33.8118 0.0000 0.0000
# 5 0.0000 0.0000 0.0000 0.0000 -3.5652 0.0000
# 6 0.0000 0.0000 0.0000 0.0000 0.0000 32.2473
#
#
#
# Elastic Compliance Matrix: (Units=1/GPa)
#
#
# Indices 1 2 3 4 5 6 
#
# 1 0.042489 -0.008983 -0.018058 0.000000 0.000000 0.000000
# 2 -0.008983 0.007975 0.000545 0.000000 0.000000 0.000000
# 3 -0.018058 0.000545 0.020108 0.000000 0.000000 0.000000
# 4 0.000000 0.000000 0.000000 0.029575 0.000000 0.000000
# 5 0.000000 0.000000 0.000000 0.000000 -0.280487 0.000000
# 6 0.000000 0.000000 0.000000 0.000000 0.000000 0.031010
#
#
# Mechanical properties :
#
#
# Convention : Reuss Voigt Hill
#
# Bulk Modulus (GPa) = 56.88157 74.39681 65.63919
# Shear Modulus (GPa) = -55.26142 24.54049 -15.36046
#
# Velocity S-wave (km/s) = -5.28226 3.52006 -2.78491
# Velocity P-wave (km/s) = 2.91251 7.35426 4.77506
#
# Compressibility (1/GPa) = 0.01758039
#
# Stress axis : x y z
#
# Youngs Moduli (GPa) = 23.53564 125.39528 49.73231
#
# Poissons Ratio (x) = 1.12644 0.89804
# Poissons Ratio (y) = 0.21142 -0.02712
# Poissons Ratio (z) = 0.42500 -0.06837
#
# Static dielectric constant tensor:
#      x y z
#    x 1.771590 0.000000 0.000000 
#    y 0.000000 1.803130 0.000000 
#    z 0.000000 0.000000 1.659730 
# 
# From -- ./inp_files/29423.got.cif
#   From: 2010.05.17/outbox.cif.g08.bks.cpg/sg24_15_cif.got.tgz:29423.got - 2010.06.04 00:33:39.
