data_PCOD9333225
_publ_section_title
;
Structure prediction by ZEFSAII (Michael W. Deem and Ramdas Pophale) SiO2 
 PCOD9333225
Probable space group: I 21 21 21
;
_chemical_formula_sum "Si O2"
_cell_formula_units_Z 52
_cell_length_a 8.838619
_cell_length_b 14.838012
_cell_length_c 20.040782
_cell_angle_alpha 90.000000
_cell_angle_beta 90.000000
_cell_angle_gamma 90.000000
_cell_volume 2628.299154
_symmetry_space_group_name_H-M "I 21 21 21"
_symmetry_group_IT_number 24
_symmetry_cell_setting 'orthorhombic'
loop_
_space_group_symop_operation_xyz
x,y,z
-x,1/2-y,z
x,-y,1/2-z
1/2-x,y,-z
1/2+x,1/2+y,1/2+z
1/2-x,-y,1/2+z
1/2+x,1/2-y,-z
-x,1/2+y,1/2-z
loop_
_atom_site_type_symbol
_atom_site_label
_atom_site_fract_x
_atom_site_fract_y
_atom_site_fract_z
Si Si1 0.000000 0.750000 0.340440
Si Si2 0.019351 0.000000 0.250000
Si Si3 0.484468 0.550078 0.318718
Si Si4 0.537715 0.151714 0.526394
Si Si5 0.800681 0.411942 0.130196
Si Si6 0.250000 0.970071 0.000000
Si Si7 0.776659 0.156519 0.252250
Si Si8 0.313333 0.385401 0.391017
O O1 0.924770 0.667667 0.381128
O O2 0.862204 0.769226 0.289719
O O3 0.906298 0.081952 0.265638
O O4 0.120412 0.026964 0.187039
O O5 0.530390 0.500000 0.250000
O O6 0.629155 0.605709 0.343953
O O7 0.348178 0.613756 0.295942
O O8 0.410593 0.473535 0.368024
O O9 0.500000 0.250000 0.555541
O O10 0.392507 0.094634 0.507933
O O11 0.614384 0.164908 0.453898
O O12 0.646943 0.097007 0.577064
O O13 0.764487 0.466795 0.063960
O O14 0.705092 0.174366 0.324422
#
# Coordination Sequence:
#
# PCOD9333225 Si02
#       8
#     4   4   8   8   8   4   8   8
#     4  10  26  42  62  98 128 164 216 282 330 386
#     4  10  18  36  66  88 130 160 204 268 318 392
#     4  10  19  39  67  92 120 163 220 265 312 391
#     4  11  24  40  59  95 135 172 210 264 317 404
#     4  11  23  42  64  98 128 172 223 268 329 400
#     4  12  24  40  72  92 128 182 220 260 336 398
#     4  10  20  39  64  93 122 160 211 268 328 380
#     4  10  20  40  61  89 128 169 209 256 324 385
#
# _framework density 19.784658
#
# number of rings (size 3 to 8) (size 9 to 14) (size 15 to 20)
#    0.000    1.538    4.615    1.846    3.231    0.615 
#   11.077    1.538    0.000    0.000    0.000    0.000 
#    0.000    0.000    0.000    0.000    0.000    0.000 
#
# Total GULP energy -144819.392894 kJ/mol
# GULP energy per Si atom -5569.976650 kJ/mol
# Density = 1.973963 g / cm^3
# Si number density = 19.784658 Si / 1000 Ang^3
#
#
#
# Elastic Constant Matrix: (Units=GPa)
#
#
# Indices 1 2 3 4 5 6 
#
# 1 124.2806 29.8062 35.7025 0.0000 0.0000 0.0000
# 2 29.8062 43.0956 21.4440 0.0000 0.0000 0.0000
# 3 35.7025 21.4440 75.2011 0.0000 0.0000 0.0000
# 4 0.0000 0.0000 0.0000 -35.0406 0.0000 0.0000
# 5 0.0000 0.0000 0.0000 0.0000 28.0453 0.0000
# 6 0.0000 0.0000 0.0000 0.0000 0.0000 33.5978
#
#
#
# Elastic Compliance Matrix: (Units=1/GPa)
#
#
# Indices 1 2 3 4 5 6 
#
# 1 0.010318 -0.005476 -0.003337 0.000000 0.000000 0.000000
# 2 -0.005476 0.029947 -0.005940 0.000000 0.000000 0.000000
# 3 -0.003337 -0.005940 0.016576 0.000000 0.000000 0.000000
# 4 0.000000 0.000000 0.000000 -0.028538 0.000000 0.000000
# 5 0.000000 0.000000 0.000000 0.000000 0.035657 0.000000
# 6 0.000000 0.000000 0.000000 0.000000 0.000000 0.029764
#
#
# Mechanical properties :
#
#
# Convention : Reuss Voigt Hill
#
# Bulk Modulus (GPa) = 36.58270 46.27586 41.42928
# Shear Modulus (GPa) = 37.78114 15.69546 26.73830
#
# Velocity S-wave (km/s) = 4.37466 2.81964 3.68022
# Velocity P-wave (km/s) = 6.63682 5.83447 6.24854
#
# Compressibility (1/GPa) = 0.02733532
#
# Stress axis : x y z
#
# Youngs Moduli (GPa) = 96.91543 33.39221 60.32866
#
# Poissons Ratio (x) = 0.18285 0.20133
# Poissons Ratio (y) = 0.53069 0.35835
# Poissons Ratio (z) = 0.32343 0.19835
#
# Static dielectric constant tensor:
#      x y z
#    x 1.820220 0.000000 0.000000 
#    y 0.000000 1.893440 0.000000 
#    z 0.000000 0.000000 1.706640 
# 
# From -- ./inp_files/32807.got.cif
#   From: 2010.05.17/outbox.cif.g08.bks.cpg/sg24_17_cif.got.tgz:32807.got - 2010.06.04 00:33:39.
