data_PCOD9333832
_publ_section_title
;
Structure prediction by ZEFSAII (Michael W. Deem and Ramdas Pophale) SiO2 
 PCOD9333832
Probable space group: I 21 21 21
;
_chemical_formula_sum "Si O2"
_cell_formula_units_Z 40
_cell_length_a 8.518623
_cell_length_b 12.793358
_cell_length_c 16.985460
_cell_angle_alpha 90.000000
_cell_angle_beta 90.000000
_cell_angle_gamma 90.000000
_cell_volume 1851.105898
_symmetry_space_group_name_H-M "I 21 21 21"
_symmetry_group_IT_number 24
_symmetry_cell_setting 'orthorhombic'
loop_
_space_group_symop_operation_xyz
x,y,z
-x,1/2-y,z
x,-y,1/2-z
1/2-x,y,-z
1/2+x,1/2+y,1/2+z
1/2-x,-y,1/2+z
1/2+x,1/2-y,-z
-x,1/2+y,1/2-z
loop_
_atom_site_type_symbol
_atom_site_label
_atom_site_fract_x
_atom_site_fract_y
_atom_site_fract_z
Si Si1 0.386835 0.432720 0.673487
Si Si2 0.933535 0.366817 0.475594
Si Si3 0.835322 0.730149 0.273442
Si Si4 0.536395 0.055356 0.358394
Si Si5 0.000000 0.250000 0.761341
Si Si6 0.278420 0.000000 0.250000
O O1 0.426252 0.500000 0.750000
O O2 0.509656 0.430244 0.601631
O O3 0.355016 0.312934 0.701620
O O4 0.215851 0.478565 0.650345
O O5 0.750000 0.363955 0.500000
O O6 0.000000 0.250000 0.465460
O O7 0.014428 0.414325 0.552216
O O8 0.663524 0.754462 0.308301
O O9 0.813431 0.610506 0.245158
O O10 0.000000 0.750000 0.318418
O O11 0.509744 0.153611 0.299775
O O12 0.394675 0.985077 0.325434
#
# Coordination Sequence:
#
# PCOD9333832 Si02
#       6
#     8   8   8   8   4   4
#     4  11  24  42  66 103 143 188 235 291 369 439
#     4  12  26  40  65 101 146 184 233 304 367 425
#     4  10  22  36  61  92 138 180 224 290 338 422
#     4  10  19  40  63  94 141 180 228 295 359 425
#     4   8  18  34  56  86 130 174 218 278 352 404
#     4  10  22  38  66 104 144 180 244 286 364 418
#
# _framework density 21.608705
#
# number of rings (size 3 to 8) (size 9 to 14) (size 15 to 20)
#    0.000    1.600    2.000    2.400   12.600    0.000 
#    0.000    0.000    0.000    0.000    0.000   16.800 
#    0.000    0.000    0.000    0.000    0.000    0.000 
#
# Total GULP energy -111451.014782 kJ/mol
# GULP energy per Si atom -5572.550739 kJ/mol
# Density = 2.155952 g / cm^3
# Si number density = 21.608705 Si / 1000 Ang^3
#
#
#
# Elastic Constant Matrix: (Units=GPa)
#
#
# Indices 1 2 3 4 5 6 
#
# 1 214.9882 45.2109 45.1192 0.0000 0.0000 0.0000
# 2 45.2109 95.3814 49.1294 0.0000 0.0000 0.0000
# 3 45.1192 49.1294 108.5061 0.0000 0.0000 0.0000
# 4 0.0000 0.0000 0.0000 25.8320 0.0000 0.0000
# 5 0.0000 0.0000 0.0000 0.0000 4.7213 0.0000
# 6 0.0000 0.0000 0.0000 0.0000 0.0000 23.1820
#
#
#
# Elastic Compliance Matrix: (Units=1/GPa)
#
#
# Indices 1 2 3 4 5 6 
#
# 1 0.005324 -0.001804 -0.001397 0.000000 0.000000 0.000000
# 2 -0.001804 0.014284 -0.005718 0.000000 0.000000 0.000000
# 3 -0.001397 -0.005718 0.012386 0.000000 0.000000 0.000000
# 4 0.000000 0.000000 0.000000 0.038712 0.000000 0.000000
# 5 0.000000 0.000000 0.000000 0.000000 0.211807 0.000000
# 6 0.000000 0.000000 0.000000 0.000000 0.000000 0.043137
#
#
# Mechanical properties :
#
#
# Convention : Reuss Voigt Hill
#
# Bulk Modulus (GPa) = 70.63640 77.53275 74.08458
# Shear Modulus (GPa) = 14.35932 29.37481 21.86706
#
# Velocity S-wave (km/s) = 2.58062 3.69100 3.18458
# Velocity P-wave (km/s) = 6.45285 7.35682 6.91961
#
# Compressibility (1/GPa) = 0.01415701
#
# Stress axis : x y z
#
# Youngs Moduli (GPa) = 187.82949 70.00687 80.73792
#
# Poissons Ratio (x) = 0.12629 0.11279
# Poissons Ratio (y) = 0.33884 0.46162
# Poissons Ratio (z) = 0.26240 0.40027
#
# Static dielectric constant tensor:
#      x y z
#    x 2.063020 0.000000 0.000000 
#    y 0.000000 1.889930 0.000000 
#    z 0.000000 0.000000 1.738070 
# 
# From -- ./inp_files/24549.got.cif
#   From: 2010.05.17/outbox.cif.g08.bks.cpg/sg24_13_cif.got.tgz:24549.got - 2010.06.04 00:33:39.
