data_PCOD9333659
_publ_section_title
;
Structure prediction by ZEFSAII (Michael W. Deem and Ramdas Pophale) SiO2 
 PCOD9333659
Probable space group: I 21 21 21
;
_chemical_formula_sum "Si O2"
_cell_formula_units_Z 36
_cell_length_a 14.953564
_cell_length_b 8.805286
_cell_length_c 15.238970
_cell_angle_alpha 90.000000
_cell_angle_beta 90.000000
_cell_angle_gamma 90.000000
_cell_volume 2006.521393
_symmetry_space_group_name_H-M "I 21 21 21"
_symmetry_group_IT_number 24
_symmetry_cell_setting 'orthorhombic'
loop_
_space_group_symop_operation_xyz
x,y,z
-x,1/2-y,z
x,-y,1/2-z
1/2-x,y,-z
1/2+x,1/2+y,1/2+z
1/2-x,-y,1/2+z
1/2+x,1/2-y,-z
-x,1/2+y,1/2-z
loop_
_atom_site_type_symbol
_atom_site_label
_atom_site_fract_x
_atom_site_fract_y
_atom_site_fract_z
Si Si1 0.410782 0.676134 0.320541
Si Si2 0.166407 0.552014 0.432723
Si Si3 0.259261 0.500000 0.250000
Si Si4 0.983977 0.075918 0.545898
Si Si5 0.147403 0.866117 0.510308
O O1 0.500000 0.750000 0.281729
O O2 0.329702 0.638982 0.256368
O O3 0.445930 0.526892 0.373572
O O4 0.370593 0.784296 0.396120
O O5 0.250000 0.544533 0.500000
O O6 0.200999 0.508252 0.337275
O O7 0.133458 0.727501 0.441278
O O8 0.090134 0.444028 0.470328
O O9 0.000000 0.250000 0.568507
O O10 0.074391 0.997672 0.509691
O O11 0.250000 0.916736 0.500000
#
# Coordination Sequence:
#
# PCOD9333659 Si02
#       5
#     8   8   4   8   8
#     4   9  19  34  57  85 110 148 194 235 290 348
#     4  10  19  36  57  84 112 151 194 231 284 352
#     4  12  18  34  64  82 114 148 196 238 282 352
#     4  10  20  35  57  84 116 149 186 244 295 336
#     4   9  16  36  59  83 108 150 199 228 283 349
#
# _framework density 17.941496999999998
#
# number of rings (size 3 to 8) (size 9 to 14) (size 15 to 20)
#    0.000    2.222    6.667    2.000    0.000    1.778 
#    0.000    2.222    0.000    2.667    0.000    0.000 
#    0.000    0.000    0.000    0.000    0.000    0.000 
#
# Total GULP energy -100311.609310 kJ/mol
# GULP energy per Si atom -5572.867184 kJ/mol
# Density = 1.790066 g / cm^3
# Si number density = 17.941497 Si / 1000 Ang^3
#
#
#
# Elastic Constant Matrix: (Units=GPa)
#
#
# Indices 1 2 3 4 5 6 
#
# 1 93.1667 49.6886 24.0477 0.0000 0.0000 0.0000
# 2 49.6886 77.4906 33.0342 0.0000 0.0000 0.0000
# 3 24.0477 33.0342 84.4996 0.0000 0.0000 0.0000
# 4 0.0000 0.0000 0.0000 8.8680 0.0000 0.0000
# 5 0.0000 0.0000 0.0000 0.0000 33.3803 0.0000
# 6 0.0000 0.0000 0.0000 0.0000 0.0000 30.1160
#
#
#
# Elastic Compliance Matrix: (Units=1/GPa)
#
#
# Indices 1 2 3 4 5 6 
#
# 1 0.016343 -0.010196 -0.000665 0.000000 0.000000 0.000000
# 2 -0.010196 0.021847 -0.005639 0.000000 0.000000 0.000000
# 3 -0.000665 -0.005639 0.014228 0.000000 0.000000 0.000000
# 4 0.000000 0.000000 0.000000 0.112764 0.000000 0.000000
# 5 0.000000 0.000000 0.000000 0.000000 0.029958 0.000000
# 6 0.000000 0.000000 0.000000 0.000000 0.000000 0.033205
#
#
# Mechanical properties :
#
#
# Convention : Reuss Voigt Hill
#
# Bulk Modulus (GPa) = 51.49950 52.07753 51.78852
# Shear Modulus (GPa) = 18.66945 24.36529 21.51737
#
# Velocity S-wave (km/s) = 3.22929 3.68916 3.46686
# Velocity P-wave (km/s) = 6.53230 6.87283 6.70473
#
# Compressibility (1/GPa) = 0.01941766
#
# Stress axis : x y z
#
# Youngs Moduli (GPa) = 61.18867 45.77385 70.28319
#
# Poissons Ratio (x) = 0.46671 0.04674
# Poissons Ratio (y) = 0.62387 0.39633
# Poissons Ratio (z) = 0.04069 0.25812
#
# Static dielectric constant tensor:
#      x y z
#    x 1.633780 0.000000 0.000000 
#    y 0.000000 1.647670 0.000000 
#    z 0.000000 0.000000 1.624680 
# 
# From -- ./inp_files/12159.got.cif
#   From: 2010.05.17/outbox.cif.g08.bks.cpg/sg24_7_cif.got.tgz:12159.got - 2010.06.04 00:33:39.
