data_PCOD9333616
_publ_section_title
;
Structure prediction by ZEFSAII (Michael W. Deem and Ramdas Pophale) SiO2 
 PCOD9333616
Probable space group: I 21 21 21
;
_chemical_formula_sum "Si O2"
_cell_formula_units_Z 44
_cell_length_a 18.389769
_cell_length_b 8.031677
_cell_length_c 12.785428
_cell_angle_alpha 90.000000
_cell_angle_beta 90.000000
_cell_angle_gamma 90.000000
_cell_volume 1888.416470
_symmetry_space_group_name_H-M "I 21 21 21"
_symmetry_group_IT_number 24
_symmetry_cell_setting 'orthorhombic'
loop_
_space_group_symop_operation_xyz
x,y,z
-x,1/2-y,z
x,-y,1/2-z
1/2-x,y,-z
1/2+x,1/2+y,1/2+z
1/2-x,-y,1/2+z
1/2+x,1/2-y,-z
-x,1/2+y,1/2-z
loop_
_atom_site_type_symbol
_atom_site_label
_atom_site_fract_x
_atom_site_fract_y
_atom_site_fract_z
Si Si1 0.601640 0.884711 0.037808
Si Si2 0.984938 0.000000 0.250000
Si Si3 0.182617 0.879716 0.579950
Si Si4 0.451394 0.010619 0.522048
Si Si5 0.202063 0.772681 0.802636
Si Si6 0.345117 0.629145 0.826609
O O1 0.653184 0.860921 0.135863
O O2 0.525972 0.982357 0.045170
O O3 0.580613 0.698489 0.992829
O O4 0.645769 0.953958 0.939203
O O5 0.925159 0.146584 0.275740
O O6 0.028102 0.980313 0.357098
O O7 0.250000 0.872858 0.500000
O O8 0.190170 0.759554 0.679006
O O9 0.107281 0.878270 0.516852
O O10 0.178464 0.055099 0.642677
O O11 0.288184 0.775436 0.829378
O O12 0.306344 0.500000 0.750000
#
# Coordination Sequence:
#
# PCOD9333616 Si02
#       6
#     8   4   8   8   8   8
#     4   9  17  32  59  82 108 151 189 229 280 341
#     4   8  18  32  58  88 112 142 178 238 298 324
#     4  10  21  34  57  87 115 147 190 238 283 334
#     4   9  17  33  56  86 113 146 188 234 281 343
#     4  10  19  35  59  82 113 152 189 230 281 343
#     4   9  18  33  55  89 112 139 186 235 282 336
#
# _framework density 23.299945999999998
#
# number of rings (size 3 to 8) (size 9 to 14) (size 15 to 20)
#    0.545    2.182    0.000    2.727    0.000    2.909 
#    0.000    1.818   16.000    2.182    0.000    0.000 
#    0.000    0.000    0.000    0.000    0.000    0.000 
#
# Total GULP energy -122640.492178 kJ/mol
# GULP energy per Si atom -5574.567826 kJ/mol
# Density = 2.324691 g / cm^3
# Si number density = 23.299946 Si / 1000 Ang^3
#
#
#
# Elastic Constant Matrix: (Units=GPa)
#
#
# Indices 1 2 3 4 5 6 
#
# 1 170.5094 18.5617 116.1108 0.0000 0.0000 0.0000
# 2 18.5617 29.1362 18.4315 0.0000 0.0000 0.0000
# 3 116.1108 18.4315 188.8190 0.0000 0.0000 0.0000
# 4 0.0000 0.0000 0.0000 25.1974 0.0000 0.0000
# 5 0.0000 0.0000 0.0000 0.0000 73.5900 0.0000
# 6 0.0000 0.0000 0.0000 0.0000 0.0000 10.6525
#
#
#
# Elastic Compliance Matrix: (Units=1/GPa)
#
#
# Indices 1 2 3 4 5 6 
#
# 1 0.010288 -0.002720 -0.006061 0.000000 0.000000 0.000000
# 2 -0.002720 0.037300 -0.001968 0.000000 0.000000 0.000000
# 3 -0.006061 -0.001968 0.009215 0.000000 0.000000 0.000000
# 4 0.000000 0.000000 0.000000 0.039687 0.000000 0.000000
# 5 0.000000 0.000000 0.000000 0.000000 0.013589 0.000000
# 6 0.000000 0.000000 0.000000 0.000000 0.000000 0.093875
#
#
# Mechanical properties :
#
#
# Convention : Reuss Voigt Hill
#
# Bulk Modulus (GPa) = 28.32518 77.18584 52.75551
# Shear Modulus (GPa) = 21.07742 37.57868 29.32805
#
# Velocity S-wave (km/s) = 3.01094 4.02035 3.55169
# Velocity P-wave (km/s) = 4.92654 7.39932 6.28573
#
# Compressibility (1/GPa) = 0.03530427
#
# Stress axis : x y z
#
# Youngs Moduli (GPa) = 97.19839 26.80995 108.51472
#
# Poissons Ratio (x) = 0.07293 0.65771
# Poissons Ratio (y) = 0.26439 0.21359
# Poissons Ratio (z) = 0.58912 0.05277
#
# Static dielectric constant tensor:
#      x y z
#    x 1.874300 0.000000 0.000000 
#    y 0.000000 2.120410 0.000000 
#    z 0.000000 0.000000 1.885030 
# 
# From -- ./inp_files/21462.got.cif
#   From: 2010.05.17/outbox.cif.g08.bks.cpg/sg24_11_cif.got.tgz:21462.got - 2010.06.04 00:33:39.
