data_PCOD9333588
_publ_section_title
;
Structure prediction by ZEFSAII (Michael W. Deem and Ramdas Pophale) SiO2 
 PCOD9333588
Probable space group: I 21 21 21
;
_chemical_formula_sum "Si O2"
_cell_formula_units_Z 64
_cell_length_a 7.818149
_cell_length_b 21.386408
_cell_length_c 20.206342
_cell_angle_alpha 90.000000
_cell_angle_beta 90.000000
_cell_angle_gamma 90.000000
_cell_volume 3378.543307
_symmetry_space_group_name_H-M "I 21 21 21"
_symmetry_group_IT_number 24
_symmetry_cell_setting 'orthorhombic'
loop_
_space_group_symop_operation_xyz
x,y,z
-x,1/2-y,z
x,-y,1/2-z
1/2-x,y,-z
1/2+x,1/2+y,1/2+z
1/2-x,-y,1/2+z
1/2+x,1/2-y,-z
-x,1/2+y,1/2-z
loop_
_atom_site_type_symbol
_atom_site_label
_atom_site_fract_x
_atom_site_fract_y
_atom_site_fract_z
Si Si1 0.048776 0.641520 0.426949
Si Si2 0.044293 0.560043 0.791205
Si Si3 0.543882 0.181581 0.786346
Si Si4 0.956117 0.181581 0.786346
Si Si5 0.451224 0.641520 0.426949
Si Si6 0.044293 0.560043 0.208795
Si Si7 0.453752 0.998028 0.926286
Si Si8 0.546248 0.498028 0.426286
O O1 0.975520 0.673862 0.361595
O O2 0.250000 0.656789 0.430022
O O3 0.974111 0.655444 0.500000
O O4 0.033296 0.566808 0.415582
O O5 0.979658 0.500000 0.750000
O O6 0.980972 0.624233 0.758628
O O7 0.250000 0.560156 0.785552
O O8 0.001320 0.548165 0.867446
O O9 0.500000 0.250000 0.760639
O O10 0.750000 0.176350 0.789626
O O11 0.480972 0.124233 0.741372
O O12 0.024480 0.173862 0.861595
O O13 0.000000 0.250000 0.760639
O O14 0.466703 0.566808 0.415581
O O15 0.979658 0.500000 0.250000
O O16 0.001320 0.548165 0.132554
O O17 0.250000 0.006614 0.925746
O O18 0.505673 0.976966 0.000000
#
# Coordination Sequence:
#
# PCOD9333588 Si02
#       8
#     8   8   8   8   8   8   8   8
#     4   9  17  32  52  72 101 143 181 209 245 300
#     4  10  19  35  56  77 102 136 178 216 253 307
#     4  10  21  35  51  75 105 138 175 215 257 306
#     4  10  21  35  51  75 105 138 175 215 257 306
#     4   9  17  32  52  72 101 143 181 209 245 300
#     4  10  19  35  56  77 102 136 178 216 253 307
#     4  10  20  32  50  80 110 133 166 216 267 307
#     4  10  20  32  50  80 110 133 166 216 267 307
#
# _framework density 18.943076000000001
#
# number of rings (size 3 to 8) (size 9 to 14) (size 15 to 20)
#    0.000    2.250    2.500    0.750    0.000    4.500 
#    0.000    0.000    0.000    0.750    0.000    0.000 
#    0.000    0.000    0.000    0.000    0.000    0.000 
#
# Total GULP energy -178548.939493 kJ/mol
# GULP energy per Si atom -5579.654359 kJ/mol
# Density = 1.889996 g / cm^3
# Si number density = 18.943076 Si / 1000 Ang^3
#
#
#
# Elastic Constant Matrix: (Units=GPa)
#
#
# Indices 1 2 3 4 5 6 
#
# 1 23.6094 -0.3101 -1.9551 0.0000 0.0000 0.0000
# 2 -0.3101 110.7216 66.2335 0.0000 0.0000 0.0000
# 3 -1.9551 66.2335 114.8934 0.0000 0.0000 0.0000
# 4 0.0000 0.0000 0.0000 23.3392 0.0000 0.0000
# 5 0.0000 0.0000 0.0000 0.0000 -131.3787 0.0000
# 6 0.0000 0.0000 0.0000 0.0000 0.0000 12.0267
#
#
#
# Elastic Compliance Matrix: (Units=1/GPa)
#
#
# Indices 1 2 3 4 5 6 
#
# 1 0.042432 -0.000478 0.000998 0.000000 0.000000 0.000000
# 2 -0.000478 0.013791 -0.007958 0.000000 0.000000 0.000000
# 3 0.000998 -0.007958 0.013308 0.000000 0.000000 0.000000
# 4 0.000000 0.000000 0.000000 0.042846 0.000000 0.000000
# 5 0.000000 0.000000 0.000000 0.000000 -0.007612 0.000000
# 6 0.000000 0.000000 0.000000 0.000000 0.000000 0.083149
#
#
# Mechanical properties :
#
#
# Convention : Reuss Voigt Hill
#
# Bulk Modulus (GPa) = 18.29676 41.90675 30.10176
# Shear Modulus (GPa) = 22.62335 -6.85215 7.88560
#
# Velocity S-wave (km/s) = 3.45959 -1.90397 2.04250
# Velocity P-wave (km/s) = 5.06341 4.16378 4.63547
#
# Compressibility (1/GPa) = 0.05465448
#
# Stress axis : x y z
#
# Youngs Moduli (GPa) = 23.56695 72.51117 75.13998
#
# Poissons Ratio (x) = 0.03465 -0.07496
# Poissons Ratio (y) = 0.01126 0.59799
# Poissons Ratio (z) = -0.02351 0.57707
#
# Static dielectric constant tensor:
#      x y z
#    x 1.697440 0.000000 0.000000 
#    y 0.000000 1.639890 0.000000 
#    z 0.000000 0.000000 1.689170 
# 
# From -- ./inp_files/14588.got.cif
#   From: 2010.05.17/outbox.cif.g08.bks.cpg/sg24_8_cif.got.tgz:14588.got - 2010.06.04 00:33:39.
