data_PCOD9333495
_publ_section_title
;
Structure prediction by ZEFSAII (Michael W. Deem and Ramdas Pophale) SiO2 
 PCOD9333495
Probable space group: I 21 21 21
;
_chemical_formula_sum "Si O2"
_cell_formula_units_Z 64
_cell_length_a 8.286496
_cell_length_b 11.057035
_cell_length_c 30.208494
_cell_angle_alpha 90.000000
_cell_angle_beta 90.000000
_cell_angle_gamma 90.000000
_cell_volume 2767.825359
_symmetry_space_group_name_H-M "I 21 21 21"
_symmetry_group_IT_number 24
_symmetry_cell_setting 'orthorhombic'
loop_
_space_group_symop_operation_xyz
x,y,z
-x,1/2-y,z
x,-y,1/2-z
1/2-x,y,-z
1/2+x,1/2+y,1/2+z
1/2-x,-y,1/2+z
1/2+x,1/2-y,-z
-x,1/2+y,1/2-z
loop_
_atom_site_type_symbol
_atom_site_label
_atom_site_fract_x
_atom_site_fract_y
_atom_site_fract_z
Si Si1 0.350618 0.572764 0.461614
Si Si2 0.950869 0.623001 0.623564
Si Si3 0.105450 0.423033 0.401238
Si Si4 0.862692 0.967987 0.703692
Si Si5 0.934880 0.622235 0.011853
Si Si6 0.810063 0.721880 0.266035
Si Si7 0.316999 0.295578 0.677622
Si Si8 0.901725 0.622246 0.352689
O O1 0.250000 0.643874 0.500000
O O2 0.463387 0.625567 0.423762
O O3 0.223566 0.500466 0.431640
O O4 0.461646 0.481372 0.488895
O O5 0.759341 0.616767 0.617886
O O6 0.000000 0.750000 0.644986
O O7 0.028480 0.531415 0.659475
O O8 0.210148 0.323565 0.374359
O O9 0.970561 0.379372 0.435690
O O10 0.017489 0.513707 0.366826
O O11 0.775646 0.838244 0.711218
O O12 0.950658 0.000000 0.750000
O O13 0.729599 0.074156 0.698715
O O14 0.000000 0.750000 0.994633
O O15 0.750000 0.608454 0.000000
O O16 0.742352 0.708350 0.215938
O O17 0.824285 0.618854 0.303221
O O18 0.000000 0.750000 0.259495
O O19 0.500000 0.250000 0.673855
O O20 0.000000 0.750000 0.357221
#
# Coordination Sequence:
#
# PCOD9333495 Si02
#       8
#     8   8   8   8   8   8   8   8
#     4  10  23  42  66  99 134 175 227 289 349 415
#     4  12  22  41  69  94 129 186 225 278 353 420
#     4  11  21  39  65  96 132 174 231 285 345 410
#     4  10  20  38  62  93 135 183 227 283 339 407
#     4  11  23  43  68  98 134 178 226 283 349 418
#     4   9  18  33  56  92 126 173 223 274 328 401
#     4  10  19  33  59  92 130 173 225 275 332 396
#     4  11  22  38  64  96 130 175 234 280 340 420
#
# _framework density 23.122845000000002
#
# number of rings (size 3 to 8) (size 9 to 14) (size 15 to 20)
#    0.000    1.500    2.500    4.500    0.000    1.000 
#    0.000    9.375    0.000    0.000    0.000    0.000 
#    0.000    0.000    0.000    0.000    0.000    0.000 
#
# Total GULP energy -178146.928867 kJ/mol
# GULP energy per Si atom -5567.091527 kJ/mol
# Density = 2.307022 g / cm^3
# Si number density = 23.122845 Si / 1000 Ang^3
#
#
#
# Elastic Constant Matrix: (Units=GPa)
#
#
# Indices 1 2 3 4 5 6 
#
# 1 83.7852 27.5372 48.0673 0.0000 0.0000 0.0000
# 2 27.5372 52.4877 30.2708 0.0000 0.0000 0.0000
# 3 48.0673 30.2708 168.1727 0.0000 0.0000 0.0000
# 4 0.0000 0.0000 0.0000 85.6857 0.0000 0.0000
# 5 0.0000 0.0000 0.0000 0.0000 14.2802 0.0000
# 6 0.0000 0.0000 0.0000 0.0000 0.0000 18.7389
#
#
#
# Elastic Compliance Matrix: (Units=1/GPa)
#
#
# Indices 1 2 3 4 5 6 
#
# 1 0.016009 -0.006427 -0.003419 0.000000 0.000000 0.000000
# 2 -0.006427 0.023839 -0.002454 0.000000 0.000000 0.000000
# 3 -0.003419 -0.002454 0.007365 0.000000 0.000000 0.000000
# 4 0.000000 0.000000 0.000000 0.011671 0.000000 0.000000
# 5 0.000000 0.000000 0.000000 0.000000 0.070027 0.000000
# 6 0.000000 0.000000 0.000000 0.000000 0.000000 0.053365
#
#
# Mechanical properties :
#
#
# Convention : Reuss Voigt Hill
#
# Bulk Modulus (GPa) = 44.22162 57.35512 50.78837
# Shear Modulus (GPa) = 23.31936 36.97899 30.14917
#
# Velocity S-wave (km/s) = 3.17913 4.00339 3.61483
# Velocity P-wave (km/s) = 5.71332 6.79911 6.27972
#
# Compressibility (1/GPa) = 0.02261338
#
# Stress axis : x y z
#
# Youngs Moduli (GPa) = 62.46458 41.94736 135.77451
#
# Poissons Ratio (x) = 0.26961 0.46419
# Poissons Ratio (y) = 0.40148 0.33319
# Poissons Ratio (z) = 0.21356 0.10294
#
# Static dielectric constant tensor:
#      x y z
#    x 1.914800 0.000000 0.000000 
#    y 0.000000 1.911140 0.000000 
#    z 0.000000 0.000000 1.977330 
# 
# From -- ./inp_files/38435.got.cif
#   From: 2010.05.17/outbox.cif.g08.bks.cpg/sg24_20_cif.got.tgz:38435.got - 2010.06.04 00:33:39.
