data_PCOD9333864
_publ_section_title
;
Structure prediction by ZEFSAII (Michael W. Deem and Ramdas Pophale) SiO2 
 PCOD9333864
Probable space group: I 21 21 21
;
_chemical_formula_sum "Si O2"
_cell_formula_units_Z 40
_cell_length_a 6.677059
_cell_length_b 14.041085
_cell_length_c 24.263043
_cell_angle_alpha 90.000000
_cell_angle_beta 90.000000
_cell_angle_gamma 90.000000
_cell_volume 2274.736782
_symmetry_space_group_name_H-M "I 21 21 21"
_symmetry_group_IT_number 24
_symmetry_cell_setting 'orthorhombic'
loop_
_space_group_symop_operation_xyz
x,y,z
-x,1/2-y,z
x,-y,1/2-z
1/2-x,y,-z
1/2+x,1/2+y,1/2+z
1/2-x,-y,1/2+z
1/2+x,1/2-y,-z
-x,1/2+y,1/2-z
loop_
_atom_site_type_symbol
_atom_site_label
_atom_site_fract_x
_atom_site_fract_y
_atom_site_fract_z
Si Si1 0.842428 0.380002 0.628953
Si Si2 0.512959 0.999233 0.839935
Si Si3 0.616002 0.153658 0.754632
Si Si4 0.000000 0.250000 0.726446
Si Si5 0.761919 0.928392 0.940996
Si Si6 0.000000 0.250000 0.424438
O O1 0.714513 0.473710 0.643660
O O2 0.919279 0.330837 0.684596
O O3 0.675538 0.305638 0.607411
O O4 0.022739 0.398185 0.585425
O O5 0.589608 0.917563 0.797063
O O6 0.650873 0.987894 0.893415
O O7 0.536014 0.097305 0.807399
O O8 0.500000 0.250000 0.741831
O O9 0.839676 0.192167 0.761554
O O10 0.622216 0.835156 0.952378
O O11 0.750000 0.979559 0.000000
#
# Coordination Sequence:
#
# PCOD9333864 Si02
#       6
#     8   8   8   4   8   4
#     4  11  19  36  55  80 120 158 190 239 295 352
#     4  10  23  39  56  85 122 152 203 250 293 366
#     4  11  22  38  58  87 117 157 195 252 305 356
#     4  12  18  33  62  82 118 156 193 234 302 356
#     4  11  23  35  55  83 119 161 197 241 297 359
#     4  10  20  29  50  82 116 152 195 232 276 366
#
# _framework density 17.584453
#
# number of rings (size 3 to 8) (size 9 to 14) (size 15 to 20)
#    0.000    1.200    6.000    1.200    4.200    4.000 
#    0.000    0.000    0.000    0.000    7.800    0.000 
#    0.000    0.000    0.000    0.000    0.000    0.000 
#
# Total GULP energy -111442.242645 kJ/mol
# GULP energy per Si atom -5572.112132 kJ/mol
# Density = 1.754443 g / cm^3
# Si number density = 17.584453 Si / 1000 Ang^3
#
#
#
# Elastic Constant Matrix: (Units=GPa)
#
#
# Indices 1 2 3 4 5 6 
#
# 1 87.8443 7.4261 14.5337 0.0000 0.0000 0.0000
# 2 7.4261 36.5129 12.9425 0.0000 0.0000 0.0000
# 3 14.5337 12.9425 85.4245 0.0000 0.0000 0.0000
# 4 0.0000 0.0000 0.0000 -14.8361 0.0000 0.0000
# 5 0.0000 0.0000 0.0000 0.0000 23.1681 0.0000
# 6 0.0000 0.0000 0.0000 0.0000 0.0000 16.5207
#
#
#
# Elastic Compliance Matrix: (Units=1/GPa)
#
#
# Indices 1 2 3 4 5 6 
#
# 1 0.011823 -0.001788 -0.001741 0.000000 0.000000 0.000000
# 2 -0.001788 0.029212 -0.004122 0.000000 0.000000 0.000000
# 3 -0.001741 -0.004122 0.012627 0.000000 0.000000 0.000000
# 4 0.000000 0.000000 0.000000 -0.067403 0.000000 0.000000
# 5 0.000000 0.000000 0.000000 0.000000 0.043163 0.000000
# 6 0.000000 0.000000 0.000000 0.000000 0.000000 0.060530
#
#
# Mechanical properties :
#
#
# Convention : Reuss Voigt Hill
#
# Bulk Modulus (GPa) = 26.06750 31.06515 28.56632
# Shear Modulus (GPa) = 42.35894 16.62917 29.49406
#
# Velocity S-wave (km/s) = 4.91336 3.07852 4.09990
# Velocity P-wave (km/s) = 6.85890 5.50826 6.22035
#
# Compressibility (1/GPa) = 0.03836194
#
# Stress axis : x y z
#
# Youngs Moduli (GPa) = 84.58181 34.23236 79.19625
#
# Poissons Ratio (x) = 0.06119 0.13785
# Poissons Ratio (y) = 0.15120 0.32643
# Poissons Ratio (z) = 0.14723 0.14110
#
# Static dielectric constant tensor:
#      x y z
#    x 1.740420 0.000000 0.000000 
#    y 0.000000 1.602080 0.000000 
#    z 0.000000 0.000000 1.617340 
# 
# From -- ./inp_files/3550.got.cif
#   From: 2010.05.17/outbox.cif.g08.bks.cpg/sg24_2_cif.got.tgz:3550.got - 2010.06.04 00:33:39.
