data_PCOD9333946
_publ_section_title
;
Structure prediction by ZEFSAII (Michael W. Deem and Ramdas Pophale) SiO2 
 PCOD9333946
Probable space group: I 21 21 21
;
_chemical_formula_sum "Si O2"
_cell_formula_units_Z 52
_cell_length_a 8.419534
_cell_length_b 13.246173
_cell_length_c 27.409438
_cell_angle_alpha 90.000000
_cell_angle_beta 90.000000
_cell_angle_gamma 90.000000
_cell_volume 3056.881536
_symmetry_space_group_name_H-M "I 21 21 21"
_symmetry_group_IT_number 24
_symmetry_cell_setting 'orthorhombic'
loop_
_space_group_symop_operation_xyz
x,y,z
-x,1/2-y,z
x,-y,1/2-z
1/2-x,y,-z
1/2+x,1/2+y,1/2+z
1/2-x,-y,1/2+z
1/2+x,1/2-y,-z
-x,1/2+y,1/2-z
loop_
_atom_site_type_symbol
_atom_site_label
_atom_site_fract_x
_atom_site_fract_y
_atom_site_fract_z
Si Si1 0.312544 0.371538 0.447802
Si Si2 0.692334 0.635951 0.053510
Si Si3 0.189283 0.461813 0.350709
Si Si4 0.321568 0.290490 0.290165
Si Si5 0.175374 0.896993 0.156499
Si Si6 0.636815 0.500000 0.750000
Si Si7 0.898614 0.158426 0.202105
O O1 0.250000 0.406033 0.500000
O O2 0.502557 0.369997 0.446018
O O3 0.258722 0.254406 0.441984
O O4 0.246307 0.439798 0.404871
O O5 0.758534 0.583689 0.102347
O O6 0.750000 0.600771 0.000000
O O7 0.305767 0.400322 0.314760
O O8 0.174286 0.577967 0.335174
O O9 0.013404 0.414008 0.345128
O O10 0.500000 0.250000 0.286602
O O11 0.228070 0.213599 0.325835
O O12 0.233214 0.297232 0.238515
O O13 0.231091 0.968652 0.201426
O O14 0.521549 0.592280 0.734858
O O15 0.000000 0.250000 0.180027
#
# Coordination Sequence:
#
# PCOD9333946 Si02
#       7
#     8   8   8   8   8   4   8
#     4  10  20  34  52  80 115 148 185 232 292 347
#     4  10  20  33  53  82 112 151 187 229 286 352
#     4  11  21  35  56  80 107 156 187 235 287 340
#     4  12  21  33  51  79 115 149 186 236 284 337
#     4  11  20  34  54  76 113 148 194 231 277 344
#     4  10  20  34  58  78 104 156 192 232 284 334
#     4  11  20  39  55  78 111 150 199 232 278 345
#
# _framework density 17.010798999999999
#
# number of rings (size 3 to 8) (size 9 to 14) (size 15 to 20)
#    0.000    1.231    6.154    2.308    0.000    1.231 
#    5.538    0.000    0.000    0.000    0.000    9.692 
#    0.000    0.000    0.000    0.000    0.000    0.000 
#
# Total GULP energy -145062.743180 kJ/mol
# GULP energy per Si atom -5579.336276 kJ/mol
# Density = 1.697208 g / cm^3
# Si number density = 17.010799 Si / 1000 Ang^3
#
#
#
# Elastic Constant Matrix: (Units=GPa)
#
#
# Indices 1 2 3 4 5 6 
#
# 1 49.9036 41.0428 39.4020 0.0000 0.0000 0.0000
# 2 41.0428 75.5674 42.4180 0.0000 0.0000 0.0000
# 3 39.4020 42.4180 153.7840 0.0000 0.0000 0.0000
# 4 0.0000 0.0000 0.0000 24.1812 0.0000 0.0000
# 5 0.0000 0.0000 0.0000 0.0000 29.2204 0.0000
# 6 0.0000 0.0000 0.0000 0.0000 0.0000 17.3948
#
#
#
# Elastic Compliance Matrix: (Units=1/GPa)
#
#
# Indices 1 2 3 4 5 6 
#
# 1 0.039136 -0.018490 -0.004927 0.000000 0.000000 0.000000
# 2 -0.018490 0.024393 -0.001991 0.000000 0.000000 0.000000
# 3 -0.004927 -0.001991 0.008314 0.000000 0.000000 0.000000
# 4 0.000000 0.000000 0.000000 0.041354 0.000000 0.000000
# 5 0.000000 0.000000 0.000000 0.000000 0.034223 0.000000
# 6 0.000000 0.000000 0.000000 0.000000 0.000000 0.057488
#
#
# Mechanical properties :
#
#
# Convention : Reuss Voigt Hill
#
# Bulk Modulus (GPa) = 47.55771 58.33118 52.94445
# Shear Modulus (GPa) = 19.03066 24.58545 21.80805
#
# Velocity S-wave (km/s) = 3.34839 3.80581 3.58440
# Velocity P-wave (km/s) = 6.55492 7.32649 6.95142
#
# Compressibility (1/GPa) = 0.02102708
#
# Stress axis : x y z
#
# Youngs Moduli (GPa) = 25.55200 40.99500 120.27618
#
# Poissons Ratio (x) = 0.75800 0.59262
# Poissons Ratio (y) = 0.47246 0.23946
# Poissons Ratio (z) = 0.12590 0.08162
#
# Static dielectric constant tensor:
#      x y z
#    x 1.587910 0.000000 0.000000 
#    y 0.000000 1.589470 0.000000 
#    z 0.000000 0.000000 1.598200 
# 
# From -- ./inp_files/18756.got.cif
#   From: 2010.05.17/outbox.cif.g08.bks.cpg/sg24_10_cif.got.tgz:18756.got - 2010.06.04 00:33:39.
