data_PCOD9333660
_publ_section_title
;
Structure prediction by ZEFSAII (Michael W. Deem and Ramdas Pophale) SiO2 
 PCOD9333660
Probable space group: I 21 21 21
;
_chemical_formula_sum "Si O2"
_cell_formula_units_Z 60
_cell_length_a 14.133686
_cell_length_b 21.348873
_cell_length_c 10.400950
_cell_angle_alpha 90.000000
_cell_angle_beta 90.000000
_cell_angle_gamma 90.000000
_cell_volume 3138.364633
_symmetry_space_group_name_H-M "I 21 21 21"
_symmetry_group_IT_number 24
_symmetry_cell_setting 'orthorhombic'
loop_
_space_group_symop_operation_xyz
x,y,z
-x,1/2-y,z
x,-y,1/2-z
1/2-x,y,-z
1/2+x,1/2+y,1/2+z
1/2-x,-y,1/2+z
1/2+x,1/2-y,-z
-x,1/2+y,1/2-z
loop_
_atom_site_type_symbol
_atom_site_label
_atom_site_fract_x
_atom_site_fract_y
_atom_site_fract_z
Si Si1 0.471213 0.933596 0.246418
Si Si2 0.768130 0.235341 0.208238
Si Si3 0.433922 0.693312 0.294555
Si Si4 0.432251 0.198230 0.657258
Si Si5 0.750000 0.660573 0.500000
Si Si6 0.587543 0.564507 0.534786
Si Si7 0.942675 0.161223 0.095791
Si Si8 0.361871 0.925994 0.982683
O O1 0.534095 0.872980 0.242491
O O2 0.414556 0.933372 0.379617
O O3 0.524698 0.000000 0.250000
O O4 0.403719 0.930229 0.125252
O O5 0.672677 0.203068 0.249662
O O6 0.832399 0.269011 0.313643
O O7 0.839049 0.184331 0.142351
O O8 0.728970 0.290254 0.113726
O O9 0.500000 0.750000 0.251362
O O10 0.446509 0.688214 0.450678
O O11 0.500000 0.250000 0.589728
O O12 0.485404 0.186267 0.794455
O O13 0.411462 0.132065 0.589787
O O14 0.668851 0.616040 0.559007
O O15 0.484898 0.590567 0.579793
O O16 0.614634 0.494620 0.578129
O O17 0.250000 0.917441 0.000000
#
# Coordination Sequence:
#
# PCOD9333660 Si02
#       8
#     8   8   8   8   4   8   8   8
#     4   9  22  40  57  77 117 152 197 245 290 342
#     4  11  20  33  60  94 120 151 194 247 308 355
#     4  11  20  33  61  92 114 149 200 254 298 348
#     4  10  23  39  57  82 126 156 190 245 301 362
#     4  12  18  30  54  94 124 140 178 246 298 354
#     4  10  21  36  59  88 117 151 191 249 296 358
#     4  10  19  36  57  88 124 152 185 243 307 353
#     4  11  24  41  57  84 116 166 201 234 303 378
#
# _framework density 19.118236
#
# number of rings (size 3 to 8) (size 9 to 14) (size 15 to 20)
#    0.000    1.600    3.333    2.800    3.733    1.067 
#    2.400    0.000    5.867    0.000    0.000    0.000 
#    0.000    0.000    0.000    0.000    0.000    0.000 
#
# Total GULP energy -167082.543631 kJ/mol
# GULP energy per Si atom -5569.418121 kJ/mol
# Density = 1.907472 g / cm^3
# Si number density = 19.118236 Si / 1000 Ang^3
#
#
#
# Elastic Constant Matrix: (Units=GPa)
#
#
# Indices 1 2 3 4 5 6 
#
# 1 116.5835 78.0188 15.2992 0.0000 0.0000 0.0000
# 2 78.0188 147.0764 26.6060 0.0000 0.0000 0.0000
# 3 15.2992 26.6060 33.2935 0.0000 -0.0001 0.0000
# 4 0.0000 0.0000 0.0000 15.0291 0.0000 0.0000
# 5 0.0000 0.0000 -0.0001 0.0000 19.6753 0.0000
# 6 0.0000 0.0000 0.0000 0.0000 0.0000 27.6943
#
#
#
# Elastic Compliance Matrix: (Units=1/GPa)
#
#
# Indices 1 2 3 4 5 6 
#
# 1 0.013307 -0.006959 -0.000554 0.000000 0.000000 0.000000
# 2 -0.006959 0.011587 -0.006062 0.000000 0.000000 0.000000
# 3 -0.000554 -0.006062 0.035135 0.000000 0.000000 0.000000
# 4 0.000000 0.000000 0.000000 0.066537 0.000000 0.000000
# 5 0.000000 0.000000 0.000000 0.000000 0.050825 0.000000
# 6 0.000000 0.000000 0.000000 0.000000 0.000000 0.036109
#
#
# Mechanical properties :
#
#
# Convention : Reuss Voigt Hill
#
# Bulk Modulus (GPa) = 30.41397 59.64460 45.02929
# Shear Modulus (GPa) = 19.87207 24.28170 22.07689
#
# Velocity S-wave (km/s) = 3.22752 3.56769 3.40186
# Velocity P-wave (km/s) = 5.46187 6.94526 6.24775
#
# Compressibility (1/GPa) = 0.03287963
#
# Stress axis : x y z
#
# Youngs Moduli (GPa) = 75.14803 86.30255 28.46184
#
# Poissons Ratio (x) = 0.60055 0.01577
# Poissons Ratio (y) = 0.52293 0.17254
# Poissons Ratio (z) = 0.04163 0.52317
#
# Static dielectric constant tensor:
#      x y z
#    x 1.667730 0.000000 0.000000 
#    y 0.000000 1.738120 0.000000 
#    z 0.000000 0.000000 1.697750 
# 
# From -- ./inp_files/21141.got.cif
#   From: 2010.05.17/outbox.cif.g08.bks.cpg/sg24_11_cif.got.tgz:21141.got - 2010.06.04 00:33:39.
