data_PCOD9333438
_publ_section_title
;
Structure prediction by ZEFSAII (Michael W. Deem and Ramdas Pophale) SiO2 
 PCOD9333438
Probable space group: I 21 21 21
;
_chemical_formula_sum "Si O2"
_cell_formula_units_Z 64
_cell_length_a 19.459197
_cell_length_b 27.095476
_cell_length_c 5.584559
_cell_angle_alpha 90.000000
_cell_angle_beta 90.000000
_cell_angle_gamma 90.000000
_cell_volume 2944.493387
_symmetry_space_group_name_H-M "I 21 21 21"
_symmetry_group_IT_number 24
_symmetry_cell_setting 'orthorhombic'
loop_
_space_group_symop_operation_xyz
x,y,z
-x,1/2-y,z
x,-y,1/2-z
1/2-x,y,-z
1/2+x,1/2+y,1/2+z
1/2-x,-y,1/2+z
1/2+x,1/2-y,-z
-x,1/2+y,1/2-z
loop_
_atom_site_type_symbol
_atom_site_label
_atom_site_fract_x
_atom_site_fract_y
_atom_site_fract_z
Si Si1 0.565609 0.052979 0.941447
Si Si2 0.899576 0.135250 0.739604
Si Si3 0.250895 0.681468 0.244885
Si Si4 0.941952 0.481265 0.503372
Si Si5 0.018048 0.876822 0.117975
Si Si6 0.579049 0.234159 0.025600
Si Si7 0.790144 0.926486 0.251361
Si Si8 0.577346 0.727779 0.963544
O O1 0.509145 0.093219 0.848691
O O2 0.632492 0.052310 0.769705
O O3 0.595709 0.079206 0.176163
O O4 0.519601 0.004986 0.990470
O O5 0.822252 0.151909 0.709719
O O6 0.949453 0.140806 0.516710
O O7 0.923689 0.176098 0.930005
O O8 0.250000 0.707504 0.500000
O O9 0.201655 0.633435 0.266866
O O10 0.250000 0.711432 0.000000
O O11 0.910062 0.500000 0.750000
O O12 0.947121 0.422500 0.520148
O O13 0.910863 0.500000 0.250000
O O14 0.066967 0.829339 0.111990
O O15 0.500000 0.250000 0.002828
O O16 0.606759 0.260076 0.270651
O O17 0.611937 0.246407 0.767912
O O18 0.750000 0.940612 0.500000
O O19 0.750000 0.938329 0.000000
O O20 0.500000 0.750000 0.984910
#
# Coordination Sequence:
#
# PCOD9333438 Si02
#       8
#     8   8   8   8   8   8   8   8
#     4  11  21  33  52  69  91 121 160 204 241 295
#     4  12  20  31  56  69  94 129 147 201 264 288
#     4  10  20  32  44  71  88 114 161 192 233 308
#     4  10  22  34  48  70  91 112 160 198 230 296
#     4  11  21  33  52  68  92 125 147 191 259 293
#     4  10  20  32  45  74  96 111 148 185 239 314
#     4  10  19  33  47  67  87 110 151 200 240 291
#     4  10  19  33  46  68  97 110 141 185 230 311
#
# _framework density 21.735488
#
# number of rings (size 3 to 8) (size 9 to 14) (size 15 to 20)
#    0.000    1.500    6.250    3.000    0.000    0.000 
#    0.000    0.000    0.000   14.250    0.000    0.000 
#    0.000    0.000    0.000    0.000    0.000    0.000 
#
# Total GULP energy -178341.234572 kJ/mol
# GULP energy per Si atom -5573.163580 kJ/mol
# Density = 2.168602 g / cm^3
# Si number density = 21.735488 Si / 1000 Ang^3
#
#
#
# Elastic Constant Matrix: (Units=GPa)
#
#
# Indices 1 2 3 4 5 6 
#
# 1 7.2755 -2.0041 2.1997 0.0000 0.0000 0.0000
# 2 -2.0041 104.8232 8.8604 0.0000 0.0000 0.0000
# 3 2.1997 8.8604 181.0035 0.0000 0.0000 0.0000
# 4 0.0000 0.0000 0.0000 24.1874 0.0000 0.0000
# 5 0.0000 0.0000 0.0000 0.0000 17.8748 0.0000
# 6 0.0000 0.0000 0.0000 0.0000 0.0000 11.4407
#
#
#
# Elastic Compliance Matrix: (Units=1/GPa)
#
#
# Indices 1 2 3 4 5 6 
#
# 1 0.138772 0.002807 -0.001824 0.000000 0.000000 0.000000
# 2 0.002807 0.009636 -0.000506 0.000000 0.000000 0.000000
# 3 -0.001824 -0.000506 0.005572 0.000000 0.000000 0.000000
# 4 0.000000 0.000000 0.000000 0.041344 0.000000 0.000000
# 5 0.000000 0.000000 0.000000 0.000000 0.055945 0.000000
# 6 0.000000 0.000000 0.000000 0.000000 0.000000 0.087407
#
#
# Mechanical properties :
#
#
# Convention : Reuss Voigt Hill
#
# Bulk Modulus (GPa) = 6.45433 34.57935 20.51684
# Shear Modulus (GPa) = 12.84143 29.63701 21.23922
#
# Velocity S-wave (km/s) = 2.43328 3.69661 3.12936
# Velocity P-wave (km/s) = 3.29703 5.84496 4.74521
#
# Compressibility (1/GPa) = 0.15493473
#
# Stress axis : x y z
#
# Youngs Moduli (GPa) = 7.20609 103.77429 179.47902
#
# Poissons Ratio (x) = -0.29132 0.32734
# Poissons Ratio (y) = -0.02023 0.09079
# Poissons Ratio (z) = 0.01314 0.05249
#
# Static dielectric constant tensor:
#      x y z
#    x 1.826740 0.000000 0.000000 
#    y 0.000000 1.848890 0.000000 
#    z 0.000000 0.000000 2.054840 
# 
# From -- ./inp_files/7365.got.cif
#   From: 2010.05.17/outbox.cif.g08.bks.cpg/sg24_4_cif.got.tgz:7365.got - 2010.06.04 00:33:39.
