data_PCOD9333960
_publ_section_title
;
Structure prediction by ZEFSAII (Michael W. Deem and Ramdas Pophale) SiO2 
 PCOD9333960
Probable space group: I 21 21 21
;
_chemical_formula_sum "Si O2"
_cell_formula_units_Z 48
_cell_length_a 13.926377
_cell_length_b 10.070237
_cell_length_c 13.454915
_cell_angle_alpha 90.000000
_cell_angle_beta 90.000000
_cell_angle_gamma 90.000000
_cell_volume 1886.943072
_symmetry_space_group_name_H-M "I 21 21 21"
_symmetry_group_IT_number 24
_symmetry_cell_setting 'orthorhombic'
loop_
_space_group_symop_operation_xyz
x,y,z
-x,1/2-y,z
x,-y,1/2-z
1/2-x,y,-z
1/2+x,1/2+y,1/2+z
1/2-x,-y,1/2+z
1/2+x,1/2-y,-z
-x,1/2+y,1/2-z
loop_
_atom_site_type_symbol
_atom_site_label
_atom_site_fract_x
_atom_site_fract_y
_atom_site_fract_z
Si Si1 0.497099 0.483438 0.455603
Si Si2 0.162264 0.091909 0.424490
Si Si3 0.401967 0.795264 0.316497
Si Si4 0.612919 0.949314 0.653967
Si Si5 0.807684 0.332470 0.210346
Si Si6 0.806221 0.024449 0.898224
O O1 0.572566 0.385502 0.503193
O O2 0.557538 0.592991 0.392968
O O3 0.448411 0.544312 0.554908
O O4 0.400910 0.433672 0.399830
O O5 0.250000 0.116802 0.500000
O O6 0.148135 0.166685 0.320636
O O7 0.172159 0.943643 0.374550
O O8 0.500000 0.750000 0.262431
O O9 0.306399 0.847814 0.264986
O O10 0.355578 0.662380 0.364990
O O11 0.653047 0.801984 0.663766
O O12 0.713073 0.035202 0.655761
O O13 0.555812 0.000000 0.750000
O O14 0.750000 0.050914 0.000000
#
# Coordination Sequence:
#
# PCOD9333960 Si02
#       6
#     8   8   8   8   8   8
#     4  10  20  33  58  90 117 155 209 254 309 367
#     4  11  23  39  61  91 126 165 203 255 323 376
#     4   9  17  31  59  89 115 149 204 256 301 352
#     4  10  22  39  59  89 125 159 205 259 314 366
#     4  10  23  39  60  91 127 161 206 262 316 369
#     4   8  17  31  53  81 110 147 195 249 300 340
#
# _framework density 25.437968999999999
#
# number of rings (size 3 to 8) (size 9 to 14) (size 15 to 20)
#    0.000    2.333    1.667    0.000   14.000    0.000 
#    0.000    7.500    0.000    0.000    0.000    0.000 
#    0.000    0.000    0.000    0.000    0.000    0.000 
#
# Total GULP energy -133639.983548 kJ/mol
# GULP energy per Si atom -5568.332648 kJ/mol
# Density = 2.538007 g / cm^3
# Si number density = 25.437969 Si / 1000 Ang^3
#
#
#
# Elastic Constant Matrix: (Units=GPa)
#
#
# Indices 1 2 3 4 5 6 
#
# 1 124.6817 7.5622 -5.5882 0.0000 0.0000 0.0000
# 2 7.5622 30.2902 0.3582 0.0000 0.0000 0.0000
# 3 -5.5882 0.3582 45.9460 0.0000 0.0000 0.0000
# 4 0.0000 0.0000 0.0000 20.0816 0.0000 0.0000
# 5 0.0000 0.0000 0.0000 0.0000 -59.5633 0.0000
# 6 0.0000 0.0000 0.0000 0.0000 0.0000 7.5569
#
#
#
# Elastic Compliance Matrix: (Units=1/GPa)
#
#
# Indices 1 2 3 4 5 6 
#
# 1 0.008191 -0.002057 0.001012 0.000000 0.000000 0.000000
# 2 -0.002057 0.033533 -0.000512 0.000000 0.000000 0.000000
# 3 0.001012 -0.000512 0.021892 0.000000 0.000000 0.000000
# 4 0.000000 0.000000 0.000000 0.049797 0.000000 0.000000
# 5 0.000000 0.000000 0.000000 0.000000 -0.016789 0.000000
# 6 0.000000 0.000000 0.000000 0.000000 0.000000 0.132330
#
#
# Mechanical properties :
#
#
# Convention : Reuss Voigt Hill
#
# Bulk Modulus (GPa) = 16.52797 22.84248 19.68522
# Shear Modulus (GPa) = 19.82288 6.85410 13.33849
#
# Velocity S-wave (km/s) = 2.79456 1.64325 2.29236
# Velocity P-wave (km/s) = 4.11390 3.54958 3.84212
#
# Compressibility (1/GPa) = 0.06050348
#
# Stress axis : x y z
#
# Youngs Moduli (GPa) = 122.09210 29.82093 45.67930
#
# Poissons Ratio (x) = 0.06134 -0.04624
# Poissons Ratio (y) = 0.25112 0.02337
# Poissons Ratio (z) = -0.12358 0.01526
#
# Static dielectric constant tensor:
#      x y z
#    x 2.170740 0.000000 0.000000 
#    y 0.000000 2.113580 0.000000 
#    z 0.000000 0.000000 2.145260 
# 
# From -- ./inp_files/26436.got.cif
#   From: 2010.05.17/outbox.cif.g08.bks.cpg/sg24_14_cif.got.tgz:26436.got - 2010.06.04 00:33:39.
