data_PCOD9333554
_publ_section_title
;
Structure prediction by ZEFSAII (Michael W. Deem and Ramdas Pophale) SiO2 
 PCOD9333554
Probable space group: I 21 21 21
;
_chemical_formula_sum "Si O2"
_cell_formula_units_Z 40
_cell_length_a 17.098023
_cell_length_b 13.316527
_cell_length_c 7.061720
_cell_angle_alpha 90.000000
_cell_angle_beta 90.000000
_cell_angle_gamma 90.000000
_cell_volume 1607.856792
_symmetry_space_group_name_H-M "I 21 21 21"
_symmetry_group_IT_number 24
_symmetry_cell_setting 'orthorhombic'
loop_
_space_group_symop_operation_xyz
x,y,z
-x,1/2-y,z
x,-y,1/2-z
1/2-x,y,-z
1/2+x,1/2+y,1/2+z
1/2-x,-y,1/2+z
1/2+x,1/2-y,-z
-x,1/2+y,1/2-z
loop_
_atom_site_type_symbol
_atom_site_label
_atom_site_fract_x
_atom_site_fract_y
_atom_site_fract_z
Si Si1 0.224955 0.114644 0.718207
Si Si2 0.838427 0.075219 0.072424
Si Si3 0.503971 0.470576 0.974566
Si Si4 0.069664 0.178562 0.602193
Si Si5 0.384974 0.197946 0.837374
O O1 0.250000 0.123235 0.500000
O O2 0.149108 0.185663 0.724560
O O3 0.302445 0.138645 0.836615
O O4 0.202446 0.000000 0.750000
O O5 0.864429 0.188571 0.114858
O O6 0.914663 0.038179 0.957962
O O7 0.835444 0.000000 0.250000
O O8 0.750000 0.076294 0.000000
O O9 0.502666 0.500000 0.750000
O O10 0.543798 0.562573 0.083845
O O11 0.552893 0.366713 0.959332
O O12 0.087172 0.204163 0.381771
O O13 0.000000 0.250000 0.666919
#
# Coordination Sequence:
#
# PCOD9333554 Si02
#       5
#     8   8   8   8   8
#     4  10  21  37  61  90 118 153 200 259 311 357
#     4  11  24  39  60  88 122 162 202 249 304 371
#     4   9  18  36  62  86 114 157 206 247 289 360
#     4  10  19  34  59  88 121 158 196 244 309 375
#     4  10  19  36  62  88 114 154 210 259 298 353
#
# _framework density 24.877838000000001
#
# number of rings (size 3 to 8) (size 9 to 14) (size 15 to 20)
#    0.000    2.000    0.000    7.200    0.000    6.400 
#    0.000    3.000    0.000    0.000    0.000    0.000 
#    0.000    0.000    0.000    0.000    0.000    0.000 
#
# Total GULP energy -111924.038908 kJ/mol
# GULP energy per Si atom -5596.201945 kJ/mol
# Density = 2.482121 g / cm^3
# Si number density = 24.877838 Si / 1000 Ang^3
#
#
#
# Elastic Constant Matrix: (Units=GPa)
#
#
# Indices 1 2 3 4 5 6 
#
# 1 236.6114 73.5613 50.3308 0.0000 0.0000 0.0000
# 2 73.5613 144.9003 41.3235 0.0000 0.0000 0.0000
# 3 50.3308 41.3235 60.3374 0.0000 0.0000 0.0000
# 4 0.0000 0.0000 0.0000 26.6473 0.0000 0.0000
# 5 0.0000 0.0000 0.0000 0.0000 36.8013 0.0000
# 6 0.0000 0.0000 0.0000 0.0000 0.0000 161.3096
#
#
#
# Elastic Compliance Matrix: (Units=1/GPa)
#
#
# Indices 1 2 3 4 5 6 
#
# 1 0.005509 -0.001847 -0.003330 0.000000 0.000000 0.000000
# 2 -0.001847 0.009196 -0.004757 0.000000 0.000000 0.000000
# 3 -0.003330 -0.004757 0.022610 0.000000 0.000000 0.000000
# 4 0.000000 0.000000 0.000000 0.037527 0.000000 0.000000
# 5 0.000000 0.000000 0.000000 0.000000 0.027173 0.000000
# 6 0.000000 0.000000 0.000000 0.000000 0.000000 0.006199
#
#
# Mechanical properties :
#
#
# Convention : Reuss Voigt Hill
#
# Bulk Modulus (GPa) = 57.32267 85.80890 71.56578
# Shear Modulus (GPa) = 37.34191 63.39388 50.36790
#
# Velocity S-wave (km/s) = 3.87849 5.05345 4.50445
# Velocity P-wave (km/s) = 6.56876 8.28353 7.47547
#
# Compressibility (1/GPa) = 0.01744510
#
# Stress axis : x y z
#
# Youngs Moduli (GPa) = 181.52203 108.74746 44.22894
#
# Poissons Ratio (x) = 0.20085 0.14730
# Poissons Ratio (y) = 0.33526 0.21041
# Poissons Ratio (z) = 0.60454 0.51733
#
# Static dielectric constant tensor:
#      x y z
#    x 2.014010 0.000000 0.000000 
#    y 0.000000 1.905230 0.000000 
#    z 0.000000 0.000000 1.468280 
# 
# From -- ./inp_files/13819.got.cif
#   From: 2010.05.17/outbox.cif.g08.bks.cpg/sg24_7_cif.got.tgz:13819.got - 2010.06.04 00:33:39.
