data_PCOD9333352
_publ_section_title
;
Structure prediction by ZEFSAII (Michael W. Deem and Ramdas Pophale) SiO2 
 PCOD9333352
Probable space group: I 21 21 21
;
_chemical_formula_sum "Si O2"
_cell_formula_units_Z 40
_cell_length_a 24.922887
_cell_length_b 15.926177
_cell_length_c 5.104506
_cell_angle_alpha 90.000000
_cell_angle_beta 90.000000
_cell_angle_gamma 90.000000
_cell_volume 2026.112729
_symmetry_space_group_name_H-M "I 21 21 21"
_symmetry_group_IT_number 24
_symmetry_cell_setting 'orthorhombic'
loop_
_space_group_symop_operation_xyz
x,y,z
-x,1/2-y,z
x,-y,1/2-z
1/2-x,y,-z
1/2+x,1/2+y,1/2+z
1/2-x,-y,1/2+z
1/2+x,1/2-y,-z
-x,1/2+y,1/2-z
loop_
_atom_site_type_symbol
_atom_site_label
_atom_site_fract_x
_atom_site_fract_y
_atom_site_fract_z
Si Si1 0.951983 0.314265 0.609533
Si Si2 0.666162 0.243271 0.393827
Si Si3 0.423995 0.088256 0.896965
Si Si4 0.314763 0.550639 0.000258
Si Si5 0.304960 0.841831 0.593671
O O1 0.895873 0.265942 0.641362
O O2 0.949293 0.347049 0.312175
O O3 0.000000 0.250000 0.655046
O O4 0.949946 0.390247 0.821461
O O5 0.671389 0.148019 0.483180
O O6 0.691782 0.303814 0.615061
O O7 0.691811 0.264748 0.113708
O O8 0.359737 0.104532 0.932258
O O9 0.430940 0.000000 0.750000
O O10 0.334876 0.500000 0.250000
O O11 0.334659 0.500000 0.750000
O O12 0.250000 0.547061 0.000000
O O13 0.250000 0.886548 0.500000
#
# Coordination Sequence:
#
# PCOD9333352 Si02
#       5
#     8   8   8   8   8
#     4  10  21  39  61  81 107 147 190 231 281 335
#     4  10  20  34  53  76 106 142 187 230 268 332
#     4  10  21  38  59  86 116 144 182 233 284 335
#     4  10  19  30  46  70 102 137 170 213 267 314
#     4  10  19  33  55  81 109 146 182 217 270 338
#
# _framework density 19.742236999999999
#
# number of rings (size 3 to 8) (size 9 to 14) (size 15 to 20)
#    0.000    2.000    0.000    4.200    0.000    1.600 
#    0.000    9.000    0.000    0.000    0.000    0.000 
#    0.000    0.000    0.000    0.000    0.000    0.000 
#
# Total GULP energy -111546.774571 kJ/mol
# GULP energy per Si atom -5577.338729 kJ/mol
# Density = 1.969730 g / cm^3
# Si number density = 19.742237 Si / 1000 Ang^3
#
#
#
# Elastic Constant Matrix: (Units=GPa)
#
#
# Indices 1 2 3 4 5 6 
#
# 1 83.9453 15.0270 30.8380 0.0000 0.0000 0.0000
# 2 15.0270 32.1093 -2.7689 0.0000 0.0000 0.0000
# 3 30.8380 -2.7689 104.4352 0.0000 0.0000 0.0000
# 4 0.0000 0.0000 0.0000 27.5088 0.0000 0.0000
# 5 0.0000 0.0000 0.0000 0.0000 15.6468 0.0000
# 6 0.0000 0.0000 0.0000 0.0000 0.0000 4.3768
#
#
#
# Elastic Compliance Matrix: (Units=1/GPa)
#
#
# Indices 1 2 3 4 5 6 
#
# 1 0.014925 -0.007382 -0.004603 0.000000 0.000000 0.000000
# 2 -0.007382 0.034866 0.003104 0.000000 0.000000 0.000000
# 3 -0.004603 0.003104 0.011017 0.000000 0.000000 0.000000
# 4 0.000000 0.000000 0.000000 0.036352 0.000000 0.000000
# 5 0.000000 0.000000 0.000000 0.000000 0.063911 0.000000
# 6 0.000000 0.000000 0.000000 0.000000 0.000000 0.228476
#
#
# Mechanical properties :
#
#
# Convention : Reuss Voigt Hill
#
# Bulk Modulus (GPa) = 23.23055 34.07578 28.65317
# Shear Modulus (GPa) = 11.85803 21.33274 16.59539
#
# Velocity S-wave (km/s) = 2.45346 3.29076 2.90246
# Velocity P-wave (km/s) = 4.45179 5.63353 5.07716
#
# Compressibility (1/GPa) = 0.04304677
#
# Stress axis : x y z
#
# Youngs Moduli (GPa) = 67.00279 28.68133 90.77106
#
# Poissons Ratio (x) = 0.21171 0.41780
# Poissons Ratio (y) = 0.49459 -0.28176
# Poissons Ratio (z) = 0.30840 -0.08903
#
# Static dielectric constant tensor:
#      x y z
#    x 1.708320 0.000000 0.000000 
#    y 0.000000 1.696170 0.000000 
#    z 0.000000 0.000000 1.693340 
# 
# From -- ./inp_files/6304.got.cif
#   From: 2010.05.17/outbox.cif.g08.bks.cpg/sg24_4_cif.got.tgz:6304.got - 2010.06.04 00:33:39.
