data_PCOD9333746
_publ_section_title
;
Structure prediction by ZEFSAII (Michael W. Deem and Ramdas Pophale) SiO2 
 PCOD9333746
Probable space group: I 21 21 21
;
_chemical_formula_sum "Si O2"
_cell_formula_units_Z 56
_cell_length_a 28.711428
_cell_length_b 15.904812
_cell_length_c 5.731383
_cell_angle_alpha 90.000000
_cell_angle_beta 90.000000
_cell_angle_gamma 90.000000
_cell_volume 2617.235271
_symmetry_space_group_name_H-M "I 21 21 21"
_symmetry_group_IT_number 24
_symmetry_cell_setting 'orthorhombic'
loop_
_space_group_symop_operation_xyz
x,y,z
-x,1/2-y,z
x,-y,1/2-z
1/2-x,y,-z
1/2+x,1/2+y,1/2+z
1/2-x,-y,1/2+z
1/2+x,1/2-y,-z
-x,1/2+y,1/2-z
loop_
_atom_site_type_symbol
_atom_site_label
_atom_site_fract_x
_atom_site_fract_y
_atom_site_fract_z
Si Si1 0.225673 0.500000 0.750000
Si Si2 0.176942 0.335318 0.565090
Si Si3 0.513354 0.650772 0.296197
Si Si4 0.369019 0.287096 0.842556
Si Si5 0.777796 0.500000 0.750000
Si Si6 0.457059 0.182904 0.698687
Si Si7 0.201690 0.184017 0.854988
Si Si8 0.409642 0.596068 0.290541
O O1 0.250000 0.516077 0.500000
O O2 0.198701 0.414351 0.691188
O O3 0.173816 0.332330 0.289590
O O4 0.201456 0.250439 0.644754
O O5 0.121936 0.345088 0.626012
O O6 0.500000 0.750000 0.306076
O O7 0.535341 0.633963 0.553216
O O8 0.464423 0.604457 0.261534
O O9 0.541392 0.637583 0.054331
O O10 0.408562 0.231930 0.719380
O O11 0.342133 0.219913 0.002676
O O12 0.396343 0.363721 0.962578
O O13 0.750000 0.492974 0.500000
O O14 0.804516 0.411801 0.774693
O O15 0.500000 0.250000 0.690804
O O16 0.250000 0.188130 0.000000
O O17 0.396174 0.500000 0.250000
#
# Coordination Sequence:
#
# PCOD9333746 Si02
#       8
#     4   8   8   8   4   8   8   8
#     4  12  30  46  66  94 143 204 245 306 364 410
#     4  11  25  43  68  97 142 184 247 294 348 422
#     4  10  19  37  64  88 125 164 223 276 346 396
#     4  11  24  41  71 102 136 189 236 295 354 429
#     4  10  24  46  78 108 139 174 231 292 362 440
#     4  10  19  37  65  93 124 168 227 275 345 409
#     4  10  25  44  72 108 136 181 231 296 362 432
#     4  11  23  41  62 101 134 184 239 294 340 412
#
# _framework density 21.396623000000002
#
# number of rings (size 3 to 8) (size 9 to 14) (size 15 to 20)
#    0.000    1.429    3.571    2.143   12.000    0.571 
#    0.000    0.000    1.571    1.714    0.000    0.000 
#    0.000    0.000    0.000    0.000    0.000    0.000 
#
# Total GULP energy -155938.082903 kJ/mol
# GULP energy per Si atom -5569.217247 kJ/mol
# Density = 2.134792 g / cm^3
# Si number density = 21.396623 Si / 1000 Ang^3
#
#
#
# Elastic Constant Matrix: (Units=GPa)
#
#
# Indices 1 2 3 4 5 6 
#
# 1 73.2374 41.6109 42.8707 0.0000 0.0000 0.0000
# 2 41.6109 129.8173 42.6276 0.0000 0.0000 0.0000
# 3 42.8707 42.6276 141.8816 0.0000 0.0000 0.0000
# 4 0.0000 0.0000 0.0000 14.9879 0.0000 0.0000
# 5 0.0000 0.0000 0.0000 0.0000 -86.8849 0.0000
# 6 0.0000 0.0000 0.0000 0.0000 0.0000 33.0902
#
#
#
# Elastic Compliance Matrix: (Units=1/GPa)
#
#
# Indices 1 2 3 4 5 6 
#
# 1 0.018787 -0.004613 -0.004291 0.000000 0.000000 0.000000
# 2 -0.004613 0.009679 -0.001514 0.000000 0.000000 0.000000
# 3 -0.004291 -0.001514 0.008800 0.000000 0.000000 0.000000
# 4 0.000000 0.000000 0.000000 0.066720 0.000000 0.000000
# 5 0.000000 0.000000 0.000000 0.000000 -0.011509 0.000000
# 6 0.000000 0.000000 0.000000 0.000000 0.000000 0.030220
#
#
# Mechanical properties :
#
#
# Convention : Reuss Voigt Hill
#
# Bulk Modulus (GPa) = 60.86518 66.57276 63.71897
# Shear Modulus (GPa) = 33.55517 6.76045 20.15781
#
# Velocity S-wave (km/s) = 3.96440 1.77945 3.07270
# Velocity P-wave (km/s) = 7.03301 5.95005 6.51408
#
# Compressibility (1/GPa) = 0.01642976
#
# Stress axis : x y z
#
# Youngs Moduli (GPa) = 53.22911 103.31730 113.64270
#
# Poissons Ratio (x) = 0.47659 0.48760
# Poissons Ratio (y) = 0.24554 0.17207
# Poissons Ratio (z) = 0.22839 0.15644
#
# Static dielectric constant tensor:
#      x y z
#    x 1.797410 0.000000 0.000000 
#    y 0.000000 1.751220 0.000000 
#    z 0.000000 0.000000 1.968970 
# 
# From -- ./inp_files/7762.got.cif
#   From: 2010.05.17/outbox.cif.g08.bks.cpg/sg24_4_cif.got.tgz:7762.got - 2010.06.04 00:33:39.
