data_PCOD9333228
_publ_section_title
;
Structure prediction by ZEFSAII (Michael W. Deem and Ramdas Pophale) SiO2 
 PCOD9333228
Probable space group: I 21 21 21
;
_chemical_formula_sum "Si O2"
_cell_formula_units_Z 64
_cell_length_a 17.519651
_cell_length_b 8.492492
_cell_length_c 20.620666
_cell_angle_alpha 90.000000
_cell_angle_beta 90.000000
_cell_angle_gamma 90.000000
_cell_volume 3068.056018
_symmetry_space_group_name_H-M "I 21 21 21"
_symmetry_group_IT_number 24
_symmetry_cell_setting 'orthorhombic'
loop_
_space_group_symop_operation_xyz
x,y,z
-x,1/2-y,z
x,-y,1/2-z
1/2-x,y,-z
1/2+x,1/2+y,1/2+z
1/2-x,-y,1/2+z
1/2+x,1/2-y,-z
-x,1/2+y,1/2-z
loop_
_atom_site_type_symbol
_atom_site_label
_atom_site_fract_x
_atom_site_fract_y
_atom_site_fract_z
Si Si1 0.316859 0.060173 0.676250
Si Si2 0.083896 0.819495 0.731089
Si Si3 0.659897 0.745782 0.008838
Si Si4 0.547711 0.410821 0.586552
Si Si5 0.858353 0.143765 0.890009
Si Si6 0.716072 0.321546 0.936896
Si Si7 0.184764 0.700690 0.847148
Si Si8 0.086903 0.416036 0.022491
O O1 0.404777 0.071641 0.652837
O O2 0.268918 0.221046 0.662153
O O3 0.308429 0.000000 0.750000
O O4 0.285248 0.930294 0.626069
O O5 0.115099 0.774149 0.660617
O O6 0.139696 0.746001 0.783530
O O7 0.000000 0.750000 0.736936
O O8 0.081015 0.000000 0.750000
O O9 0.648390 0.731638 0.086132
O O10 0.750000 0.744645 0.000000
O O11 0.612038 0.617875 0.968769
O O12 0.632123 0.916594 0.981963
O O13 0.500000 0.250000 0.590142
O O14 0.489516 0.545474 0.562657
O O15 0.782454 0.194811 0.927047
O O16 0.830442 0.984797 0.855179
O O17 0.922082 0.119422 0.945676
O O18 0.637719 0.224813 0.947402
O O19 0.750000 0.409377 0.000000
#
# Coordination Sequence:
#
# PCOD9333228 Si02
#       8
#     8   8   8   8   8   8   8   8
#     4  12  26  44  65  98 140 181 233 292 349 427
#     4  12  26  44  63  96 148 190 228 280 346 427
#     4  10  18  36  67  98 125 166 224 289 343 417
#     4  10  23  41  67  96 133 173 234 292 359 412
#     4  10  21  42  69 101 136 182 230 283 350 423
#     4  10  22  41  68  98 133 172 225 289 353 422
#     4  11  22  38  71  98 134 178 233 279 348 419
#     4   9  20  40  65  98 131 169 227 293 353 413
#
# _framework density 20.860113999999999
#
# number of rings (size 3 to 8) (size 9 to 14) (size 15 to 20)
#    0.000    1.500    1.250    4.875    3.500    4.000 
#    6.750    0.000    0.000    0.000    0.000    0.000 
#    0.000    0.000    0.000    0.000    0.000    0.000 
#
# Total GULP energy -178671.050830 kJ/mol
# GULP energy per Si atom -5583.470338 kJ/mol
# Density = 2.081264 g / cm^3
# Si number density = 20.860114 Si / 1000 Ang^3
#
#
#
# Elastic Constant Matrix: (Units=GPa)
#
#
# Indices 1 2 3 4 5 6 
#
# 1 110.4755 31.4201 35.1855 0.0000 0.0000 0.0000
# 2 31.4201 87.9710 37.4641 0.0000 0.0000 0.0000
# 3 35.1855 37.4641 117.7071 0.0000 0.0000 0.0000
# 4 0.0000 0.0000 0.0000 24.0357 0.0000 0.0000
# 5 0.0000 0.0000 0.0000 0.0000 22.8310 0.0000
# 6 0.0000 0.0000 0.0000 0.0000 0.0000 21.4716
#
#
#
# Elastic Compliance Matrix: (Units=1/GPa)
#
#
# Indices 1 2 3 4 5 6 
#
# 1 0.010573 -0.002811 -0.002266 0.000000 0.000000 0.000000
# 2 -0.002811 0.013897 -0.003583 0.000000 0.000000 0.000000
# 3 -0.002266 -0.003583 0.010313 0.000000 0.000000 0.000000
# 4 0.000000 0.000000 0.000000 0.041605 0.000000 0.000000
# 5 0.000000 0.000000 0.000000 0.000000 0.043800 0.000000
# 6 0.000000 0.000000 0.000000 0.000000 0.000000 0.046573
#
#
# Mechanical properties :
#
#
# Convention : Reuss Voigt Hill
#
# Bulk Modulus (GPa) = 57.26178 58.25480 57.75829
# Shear Modulus (GPa) = 26.32925 27.80658 27.06792
#
# Velocity S-wave (km/s) = 3.55657 3.65499 3.60612
# Velocity P-wave (km/s) = 6.66150 6.76749 6.71471
#
# Compressibility (1/GPa) = 0.01746366
#
# Stress axis : x y z
#
# Youngs Moduli (GPa) = 94.58080 71.95617 96.96213
#
# Poissons Ratio (x) = 0.20230 0.21969
# Poissons Ratio (y) = 0.26590 0.34740
# Poissons Ratio (z) = 0.21429 0.25781
#
# Static dielectric constant tensor:
#      x y z
#    x 1.767830 0.000000 0.000000 
#    y 0.000000 1.910760 0.000000 
#    z 0.000000 0.000000 1.760470 
# 
# From -- ./inp_files/33995.got.cif
#   From: 2010.05.17/outbox.cif.g08.bks.cpg/sg24_17_cif.got.tgz:33995.got - 2010.06.04 00:33:39.
