data_PCOD9333324
_publ_section_title
;
Structure prediction by ZEFSAII (Michael W. Deem and Ramdas Pophale) SiO2 
 PCOD9333324
Probable space group: I 21 21 21
;
_chemical_formula_sum "Si O2"
_cell_formula_units_Z 36
_cell_length_a 5.409661
_cell_length_b 17.092978
_cell_length_c 16.045985
_cell_angle_alpha 90.000000
_cell_angle_beta 90.000000
_cell_angle_gamma 90.000000
_cell_volume 1483.727568
_symmetry_space_group_name_H-M "I 21 21 21"
_symmetry_group_IT_number 24
_symmetry_cell_setting 'orthorhombic'
loop_
_space_group_symop_operation_xyz
x,y,z
-x,1/2-y,z
x,-y,1/2-z
1/2-x,y,-z
1/2+x,1/2+y,1/2+z
1/2-x,-y,1/2+z
1/2+x,1/2-y,-z
-x,1/2+y,1/2-z
loop_
_atom_site_type_symbol
_atom_site_label
_atom_site_fract_x
_atom_site_fract_y
_atom_site_fract_z
Si Si1 0.750000 0.444689 0.500000
Si Si2 0.884463 0.837156 0.249096
Si Si3 0.591748 0.581352 0.603284
Si Si4 0.119570 0.329557 0.586622
Si Si5 0.095726 0.334646 0.907177
O O1 0.574694 0.497879 0.559387
O O2 0.584535 0.392480 0.438820
O O3 0.812079 0.857590 0.155735
O O4 0.640888 0.832626 0.306724
O O5 0.000000 0.750000 0.253037
O O6 0.047950 0.901963 0.298365
O O7 0.374623 0.638519 0.568108
O O8 0.868897 0.607061 0.582014
O O9 0.250000 0.307900 0.500000
O O10 0.000000 0.250000 0.620748
O O11 0.000000 0.250000 0.933701
#
# Coordination Sequence:
#
# PCOD9333324 Si02
#       5
#     4   8   8   8   8
#     4  12  30  52  72 118 174 212 268 344 426 506
#     4  10  22  43  84 117 150 206 275 336 396 487
#     4  10  24  43  79 114 162 205 257 326 416 477
#     4  12  27  48  79 114 153 215 284 347 415 483
#     4  10  18  42  75 118 150 203 258 318 383 488
#
# _framework density 24.263214999999999
#
# number of rings (size 3 to 8) (size 9 to 14) (size 15 to 20)
#    1.333    0.000    3.333    2.000    3.111    0.000 
#    0.000   10.000    0.000    0.000    0.000    0.000 
#    0.000    0.000    0.000    0.000    0.000    0.000 
#
# Total GULP energy -100547.771956 kJ/mol
# GULP energy per Si atom -5585.987331 kJ/mol
# Density = 2.420799 g / cm^3
# Si number density = 24.263215 Si / 1000 Ang^3
#
#
#
# Elastic Constant Matrix: (Units=GPa)
#
#
# Indices 1 2 3 4 5 6 
#
# 1 121.3676 38.8572 47.2161 0.0000 0.0000 0.0000
# 2 38.8572 122.6798 45.7945 0.0000 0.0000 0.0000
# 3 47.2161 45.7945 131.0842 0.0000 0.0000 0.0000
# 4 0.0000 0.0000 0.0000 21.7544 0.0000 0.0000
# 5 0.0000 0.0000 0.0000 0.0000 61.8572 0.0000
# 6 0.0000 0.0000 0.0000 0.0000 0.0000 42.5237
#
#
#
# Elastic Compliance Matrix: (Units=1/GPa)
#
#
# Indices 1 2 3 4 5 6 
#
# 1 0.010033 -0.002103 -0.002879 0.000000 0.000000 0.000000
# 2 -0.002103 0.009815 -0.002671 0.000000 0.000000 0.000000
# 3 -0.002879 -0.002671 0.009599 0.000000 0.000000 0.000000
# 4 0.000000 0.000000 0.000000 0.045968 0.000000 0.000000
# 5 0.000000 0.000000 0.000000 0.000000 0.016166 0.000000
# 6 0.000000 0.000000 0.000000 0.000000 0.000000 0.023516
#
#
# Mechanical properties :
#
#
# Convention : Reuss Voigt Hill
#
# Bulk Modulus (GPa) = 70.72349 70.98525 70.85437
# Shear Modulus (GPa) = 37.00512 41.44464 39.22488
#
# Velocity S-wave (km/s) = 3.90956 4.13743 4.02511
# Velocity P-wave (km/s) = 7.04211 7.22110 7.13216
#
# Compressibility (1/GPa) = 0.01413957
#
# Stress axis : x y z
#
# Youngs Moduli (GPa) = 99.67303 101.88969 104.17845
#
# Poissons Ratio (x) = 0.21428 0.29994
# Poissons Ratio (y) = 0.20962 0.27828
# Poissons Ratio (z) = 0.28697 0.27217
#
# Static dielectric constant tensor:
#      x y z
#    x 1.993510 0.000000 0.000000 
#    y 0.000000 1.946790 0.000000 
#    z 0.000000 0.000000 2.100180 
# 
# From -- ./inp_files/32028.got.cif
#   From: 2010.05.17/outbox.cif.g08.bks.cpg/sg24_17_cif.got.tgz:32028.got - 2010.06.04 00:33:39.
