data_PCOD9333985
_publ_section_title
;
Structure prediction by ZEFSAII (Michael W. Deem and Ramdas Pophale) SiO2 
 PCOD9333985
Probable space group: I 21 21 21
;
_chemical_formula_sum "Si O2"
_cell_formula_units_Z 60
_cell_length_a 7.389143
_cell_length_b 14.281122
_cell_length_c 27.112793
_cell_angle_alpha 90.000000
_cell_angle_beta 90.000000
_cell_angle_gamma 90.000000
_cell_volume 2861.084332
_symmetry_space_group_name_H-M "I 21 21 21"
_symmetry_group_IT_number 24
_symmetry_cell_setting 'orthorhombic'
loop_
_space_group_symop_operation_xyz
x,y,z
-x,1/2-y,z
x,-y,1/2-z
1/2-x,y,-z
1/2+x,1/2+y,1/2+z
1/2-x,-y,1/2+z
1/2+x,1/2-y,-z
-x,1/2+y,1/2-z
loop_
_atom_site_type_symbol
_atom_site_label
_atom_site_fract_x
_atom_site_fract_y
_atom_site_fract_z
Si Si1 0.289521 0.904732 0.266947
Si Si2 0.785590 0.253151 0.842885
Si Si3 0.796548 0.093137 0.774878
Si Si4 0.606630 0.462434 0.543970
Si Si5 0.213236 0.772934 0.085245
Si Si6 0.750000 0.861809 0.000000
Si Si7 0.654764 0.674159 0.553366
Si Si8 0.219064 0.748170 0.194799
O O1 0.206702 0.835420 0.307904
O O2 0.492014 0.928896 0.285584
O O3 0.295002 0.842729 0.217942
O O4 0.196927 0.000000 0.250000
O O5 0.721499 0.151249 0.822354
O O6 0.759426 0.284034 0.899133
O O7 0.000000 0.250000 0.832664
O O8 0.785643 0.167715 0.730802
O O9 0.715877 0.000000 0.750000
O O10 0.750000 0.467668 0.500000
O O11 0.701732 0.385075 0.579199
O O12 0.415566 0.423806 0.521824
O O13 0.590393 0.567695 0.564735
O O14 0.275750 0.739903 0.138476
O O15 0.000000 0.750000 0.080083
O O16 0.307235 0.710374 0.043339
O O17 0.500000 0.750000 0.546668
O O18 0.750000 0.670458 0.500000
O O19 0.000000 0.750000 0.196233
#
# Coordination Sequence:
#
# PCOD9333985 Si02
#       8
#     8   8   8   8   8   4   8   8
#     4   9  19  36  60  85 117 157 201 250 305 376
#     4   9  19  39  62  86 123 160 201 259 319 370
#     4   9  19  40  59  86 119 156 206 250 304 382
#     4  10  22  41  63  91 122 167 215 258 319 388
#     4   9  19  37  58  88 124 155 200 258 320 382
#     4  10  20  42  66  86 132 170 202 266 330 380
#     4  11  25  43  63  88 122 161 216 266 314 382
#     4  10  20  34  53  85 121 152 192 257 309 366
#
# _framework density 20.971070000000001
#
# number of rings (size 3 to 8) (size 9 to 14) (size 15 to 20)
#    0.000    2.400    0.667    1.600    2.800    2.667 
#   12.000    1.333    0.000    0.000    0.000    0.000 
#    0.000    0.000    0.000    0.000    0.000    0.000 
#
# Total GULP energy -167051.370541 kJ/mol
# GULP energy per Si atom -5568.379018 kJ/mol
# Density = 2.092334 g / cm^3
# Si number density = 20.971070 Si / 1000 Ang^3
#
#
#
# Elastic Constant Matrix: (Units=GPa)
#
#
# Indices 1 2 3 4 5 6 
#
# 1 69.9650 5.6420 -9.7764 0.0000 0.0000 0.0000
# 2 5.6420 156.7659 26.0635 0.0000 0.0000 0.0000
# 3 -9.7764 26.0635 106.0892 0.0000 0.0000 0.0000
# 4 0.0000 0.0000 0.0000 3.1700 0.0000 0.0000
# 5 0.0000 0.0000 0.0000 0.0000 16.1455 0.0000
# 6 0.0000 0.0000 0.0000 0.0000 0.0000 -0.5606
#
#
#
# Elastic Compliance Matrix: (Units=1/GPa)
#
#
# Indices 1 2 3 4 5 6 
#
# 1 0.014570 -0.000779 0.001534 0.000000 0.000000 0.000000
# 2 -0.000779 0.006692 -0.001716 0.000000 0.000000 0.000000
# 3 0.001534 -0.001716 0.009989 0.000000 0.000000 0.000000
# 4 0.000000 0.000000 0.000000 0.315456 0.000000 -0.000001
# 5 0.000000 0.000000 0.000000 0.000000 0.061937 0.000000
# 6 0.000000 0.000000 0.000000 -0.000001 0.000000 -1.783669
#
#
# Mechanical properties :
#
#
# Convention : Reuss Voigt Hill
#
# Bulk Modulus (GPa) = 34.09609 41.85314 37.97461
# Shear Modulus (GPa) = -3.66750 24.47704 10.40477
#
# Velocity S-wave (km/s) = -1.32387 3.42011 2.22986
# Velocity P-wave (km/s) = 3.73592 5.96633 4.97766
#
# Compressibility (1/GPa) = 0.02932888
#
# Stress axis : x y z
#
# Youngs Moduli (GPa) = 68.63372 149.42592 100.11042
#
# Poissons Ratio (x) = 0.11647 -0.15359
# Poissons Ratio (y) = 0.05350 0.17178
# Poissons Ratio (z) = -0.10530 0.25641
#
# Static dielectric constant tensor:
#      x y z
#    x 1.712320 0.000000 0.000000 
#    y 0.000000 1.803470 0.000000 
#    z 0.000000 0.000000 2.497440 
# 
# From -- ./inp_files/36986.got.cif
#   From: 2010.05.17/outbox.cif.g08.bks.cpg/sg24_19_cif.got.tgz:36986.got - 2010.06.04 00:33:39.
