data_PCOD9333017
_publ_section_title
;
Structure prediction by ZEFSAII (Michael W. Deem and Ramdas Pophale) SiO2 
 PCOD9333017
Probable space group: I 21 21 21
;
_chemical_formula_sum "Si O2"
_cell_formula_units_Z 52
_cell_length_a 26.491056
_cell_length_b 16.274461
_cell_length_c 6.005223
_cell_angle_alpha 90.000000
_cell_angle_beta 90.000000
_cell_angle_gamma 90.000000
_cell_volume 2589.017726
_symmetry_space_group_name_H-M "I 21 21 21"
_symmetry_group_IT_number 24
_symmetry_cell_setting 'orthorhombic'
loop_
_space_group_symop_operation_xyz
x,y,z
-x,1/2-y,z
x,-y,1/2-z
1/2-x,y,-z
1/2+x,1/2+y,1/2+z
1/2-x,-y,1/2+z
1/2+x,1/2-y,-z
-x,1/2+y,1/2-z
loop_
_atom_site_type_symbol
_atom_site_label
_atom_site_fract_x
_atom_site_fract_y
_atom_site_fract_z
Si Si1 0.250000 0.333965 0.000000
Si Si2 0.586748 0.500000 0.750000
Si Si3 0.202560 0.216926 0.634287
Si Si4 0.883520 0.590321 0.857886
Si Si5 0.517617 0.581458 0.378578
Si Si6 0.151848 0.500000 0.750000
Si Si7 0.826145 0.874966 0.130602
Si Si8 0.421587 0.579668 0.606659
O O1 0.281367 0.272492 0.156846
O O2 0.213380 0.385370 0.164851
O O3 0.617487 0.431048 0.618652
O O4 0.551614 0.546882 0.577134
O O5 0.250000 0.178373 0.500000
O O6 0.160090 0.152659 0.701185
O O7 0.182332 0.284592 0.462123
O O8 0.875934 0.500000 0.750000
O O9 0.939948 0.620099 0.784457
O O10 0.497365 0.500000 0.250000
O O11 0.469497 0.623580 0.492971
O O12 0.179986 0.440434 0.572144
O O13 0.115255 0.553701 0.594090
O O14 0.883136 0.878541 0.221997
O O15 0.439913 0.500000 0.750000
#
# Coordination Sequence:
#
# PCOD9333017 Si02
#       8
#     4   4   8   8   8   4   8   8
#     4  10  22  44  68  78 118 172 208 252 330 382
#     4   8  16  32  54  84 122 148 194 246 300 354
#     4  10  22  42  63  85 123 169 205 259 320 374
#     4   9  20  35  59  96 120 160 208 258 304 377
#     4   9  16  29  55  88 120 156 199 245 304 365
#     4  10  20  36  62  92 120 148 214 264 294 366
#     4  10  22  37  66  86 120 164 212 256 317 376
#     4  10  18  31  59  89 117 159 206 252 301 365
#
# _framework density 20.084838999999999
#
# number of rings (size 3 to 8) (size 9 to 14) (size 15 to 20)
#    0.000    2.769    1.538    0.923    0.000    4.923 
#    2.769    0.000  121.846   13.846    0.000    0.000 
#    0.000    0.000    0.000    0.000    0.000    0.000 
#
# Total GULP energy -144764.426305 kJ/mol
# GULP energy per Si atom -5567.862550 kJ/mol
# Density = 2.003912 g / cm^3
# Si number density = 20.084839 Si / 1000 Ang^3
#
#
#
# Elastic Constant Matrix: (Units=GPa)
#
#
# Indices 1 2 3 4 5 6 
#
# 1 121.7922 44.2226 33.8877 0.0000 0.0000 0.0000
# 2 44.2226 38.3274 17.4684 0.0000 0.0000 0.0000
# 3 33.8877 17.4684 94.8092 0.0000 0.0000 0.0000
# 4 0.0000 0.0000 0.0000 15.6081 0.0000 0.0000
# 5 0.0000 0.0000 0.0000 0.0000 26.5171 0.0000
# 6 0.0000 0.0000 0.0000 0.0000 0.0000 -48.3093
#
#
#
# Elastic Compliance Matrix: (Units=1/GPa)
#
#
# Indices 1 2 3 4 5 6 
#
# 1 0.014578 -0.015770 -0.002305 0.000000 0.000000 0.000000
# 2 -0.015770 0.045542 -0.002754 0.000000 0.000000 0.000000
# 3 -0.002305 -0.002754 0.011879 0.000000 0.000000 0.000000
# 4 0.000000 0.000000 0.000000 0.064069 0.000000 0.000000
# 5 0.000000 0.000000 0.000000 0.000000 0.037711 0.000000
# 6 0.000000 0.000000 0.000000 0.000000 0.000000 -0.020700
#
#
# Mechanical properties :
#
#
# Convention : Reuss Voigt Hill
#
# Bulk Modulus (GPa) = 32.95957 49.56514 41.26235
# Shear Modulus (GPa) = 24.40794 9.38651 16.89722
#
# Velocity S-wave (km/s) = 3.48981 2.16416 2.90365
# Velocity P-wave (km/s) = 5.71701 5.56563 5.64183
#
# Compressibility (1/GPa) = 0.03034020
#
# Stress axis : x y z
#
# Youngs Moduli (GPa) = 68.59624 21.95789 84.18286
#
# Poissons Ratio (x) = 0.34627 0.19405
# Poissons Ratio (y) = 1.08175 0.23187
# Poissons Ratio (z) = 0.15812 0.06048
#
# Static dielectric constant tensor:
#      x y z
#    x 1.751130 0.000000 0.000000 
#    y 0.000000 1.709360 0.000000 
#    z 0.000000 0.000000 1.808570 
# 
# From -- ./inp_files/7247.got.cif
#   From: 2010.05.17/outbox.cif.g08.bks.cpg/sg24_4_cif.got.tgz:7247.got - 2010.06.04 00:33:39.
