data_PCOD9333007
_publ_section_title
;
Structure prediction by ZEFSAII (Michael W. Deem and Ramdas Pophale) SiO2 
 PCOD9333007
Probable space group: I 21 21 21
;
_chemical_formula_sum "Si O2"
_cell_formula_units_Z 64
_cell_length_a 28.636590
_cell_length_b 7.147695
_cell_length_c 12.804104
_cell_angle_alpha 90.000000
_cell_angle_beta 90.000000
_cell_angle_gamma 90.000000
_cell_volume 2620.815853
_symmetry_space_group_name_H-M "I 21 21 21"
_symmetry_group_IT_number 24
_symmetry_cell_setting 'orthorhombic'
loop_
_space_group_symop_operation_xyz
x,y,z
-x,1/2-y,z
x,-y,1/2-z
1/2-x,y,-z
1/2+x,1/2+y,1/2+z
1/2-x,-y,1/2+z
1/2+x,1/2-y,-z
-x,1/2+y,1/2-z
loop_
_atom_site_type_symbol
_atom_site_label
_atom_site_fract_x
_atom_site_fract_y
_atom_site_fract_z
Si Si1 0.920077 0.728385 0.825240
Si Si2 0.949002 0.838578 0.043827
Si Si3 0.100111 0.313598 0.074801
Si Si4 0.877365 0.774650 0.211968
Si Si5 0.951367 0.675071 0.611564
Si Si6 0.300990 0.341130 0.988926
Si Si7 0.321762 0.276772 0.230039
Si Si8 0.221368 0.727208 0.259619
O O1 0.928340 0.851130 0.926855
O O2 0.941570 0.792659 0.716084
O O3 0.947965 0.459531 0.643502
O O4 0.866286 0.694264 0.791081
O O5 0.000000 0.750000 0.045580
O O6 0.943626 0.047594 0.087627
O O7 0.912402 0.735325 0.119115
O O8 0.106590 0.191779 0.177520
O O9 0.148780 0.424189 0.047049
O O10 0.088287 0.195527 0.973839
O O11 0.823959 0.718407 0.194212
O O12 0.878050 0.000000 0.250000
O O13 0.000000 0.750000 0.570753
O O14 0.289094 0.225430 0.882138
O O15 0.250000 0.443951 0.000000
O O16 0.313863 0.259861 0.103913
O O17 0.326990 0.500000 0.250000
O O18 0.272236 0.208593 0.275471
O O19 0.223740 0.500000 0.250000
#
# Coordination Sequence:
#
# PCOD9333007 Si02
#       8
#     8   8   8   8   8   8   8   8
#     4  11  24  39  57  88 120 154 203 256 303 371
#     4  11  22  37  58  85 119 158 202 260 318 363
#     4  10  19  37  63  87 118 158 207 250 300 369
#     4   8  17  34  57  89 122 156 204 257 303 362
#     4  11  24  41  59  82 117 160 203 252 307 362
#     4   9  16  29  53  86 120 156 200 243 296 359
#     4  10  18  31  54  90 124 159 199 253 313 369
#     4   8  15  28  52  86 125 158 201 250 304 360
#
# _framework density 24.419878000000001
#
# number of rings (size 3 to 8) (size 9 to 14) (size 15 to 20)
#    0.000    2.250    1.250    2.625    0.000    1.500 
#    0.000    2.500    0.000    1.500    0.000    0.000 
#    0.000    0.000    0.000    0.000    0.000    0.000 
#
# Total GULP energy -178212.802637 kJ/mol
# GULP energy per Si atom -5569.150082 kJ/mol
# Density = 2.436430 g / cm^3
# Si number density = 24.419878 Si / 1000 Ang^3
#
#
#
# Elastic Constant Matrix: (Units=GPa)
#
#
# Indices 1 2 3 4 5 6 
#
# 1 205.0368 10.4762 60.8192 0.0000 0.0000 0.0000
# 2 10.4762 51.1617 -2.1060 0.0000 0.0000 0.0000
# 3 60.8192 -2.1060 100.1106 0.0000 0.0000 0.0000
# 4 0.0000 0.0000 0.0000 16.0268 0.0000 0.0000
# 5 0.0000 0.0000 0.0000 0.0000 37.5396 0.0000
# 6 0.0000 0.0000 0.0000 0.0000 0.0000 8.1371
#
#
#
# Elastic Compliance Matrix: (Units=1/GPa)
#
#
# Indices 1 2 3 4 5 6 
#
# 1 0.006047 -0.001391 -0.003703 0.000000 0.000000 0.000000
# 2 -0.001391 0.019883 0.001263 0.000000 0.000000 0.000000
# 3 -0.003703 0.001263 0.012265 0.000000 0.000000 0.000000
# 4 0.000000 0.000000 0.000000 0.062396 0.000000 0.000000
# 5 0.000000 0.000000 0.000000 0.000000 0.026639 0.000000
# 6 0.000000 0.000000 0.000000 0.000000 0.000000 0.122893
#
#
# Mechanical properties :
#
#
# Convention : Reuss Voigt Hill
#
# Bulk Modulus (GPa) = 32.75057 54.96532 43.85794
# Shear Modulus (GPa) = 18.65952 31.48203 25.07077
#
# Velocity S-wave (km/s) = 2.76726 3.59443 3.20762
# Velocity P-wave (km/s) = 4.86321 6.30745 5.63182
#
# Compressibility (1/GPa) = 0.03053382
#
# Stress axis : x y z
#
# Youngs Moduli (GPa) = 165.38438 50.29526 81.53309
#
# Poissons Ratio (x) = 0.06994 0.30189
# Poissons Ratio (y) = 0.22997 -0.10298
# Poissons Ratio (z) = 0.61236 -0.06353
#
# Static dielectric constant tensor:
#      x y z
#    x 1.998200 0.000000 0.000000 
#    y 0.000000 2.115860 0.000000 
#    z 0.000000 0.000000 2.060860 
# 
# From -- ./inp_files/23030.got.cif
#   From: 2010.05.17/outbox.cif.g08.bks.cpg/sg24_12_cif.got.tgz:23030.got - 2010.06.04 00:33:39.
