data_PCOD9333210
_publ_section_title
;
Structure prediction by ZEFSAII (Michael W. Deem and Ramdas Pophale) SiO2 
 PCOD9333210
Probable space group: I 21 21 21
;
_chemical_formula_sum "Si O2"
_cell_formula_units_Z 40
_cell_length_a 27.965819
_cell_length_b 8.437794
_cell_length_c 7.619580
_cell_angle_alpha 90.000000
_cell_angle_beta 90.000000
_cell_angle_gamma 90.000000
_cell_volume 1797.990919
_symmetry_space_group_name_H-M "I 21 21 21"
_symmetry_group_IT_number 24
_symmetry_cell_setting 'orthorhombic'
loop_
_space_group_symop_operation_xyz
x,y,z
-x,1/2-y,z
x,-y,1/2-z
1/2-x,y,-z
1/2+x,1/2+y,1/2+z
1/2-x,-y,1/2+z
1/2+x,1/2-y,-z
-x,1/2+y,1/2-z
loop_
_atom_site_type_symbol
_atom_site_label
_atom_site_fract_x
_atom_site_fract_y
_atom_site_fract_z
Si Si1 0.428213 0.000000 0.250000
Si Si2 0.630007 0.500000 0.750000
Si Si3 0.118087 0.476321 0.955211
Si Si4 0.654881 0.687741 0.057303
Si Si5 0.448430 0.219639 0.924970
Si Si6 0.787094 0.831400 0.650495
O O1 0.392226 0.122128 0.344845
O O2 0.454281 0.893069 0.399434
O O3 0.662892 0.435528 0.595741
O O4 0.592528 0.367181 0.814364
O O5 0.106829 0.500000 0.750000
O O6 0.139075 0.642171 0.020725
O O7 0.162977 0.358283 0.951409
O O8 0.073281 0.392353 0.037587
O O9 0.698088 0.713957 0.192459
O O10 0.500000 0.250000 0.841701
O O11 0.750000 0.789649 0.500000
O O12 0.775206 0.000000 0.750000
#
# Coordination Sequence:
#
# PCOD9333210 Si02
#       6
#     4   4   8   8   8   8
#     4  10  18  36  62  93 128 178 215 274 336 390
#     4  10  24  40  56  95 136 194 217 274 346 404
#     4   9  18  38  61  93 122 172 217 283 335 395
#     4   9  19  38  64  89 134 178 221 272 338 412
#     4  11  23  37  61  95 132 178 230 281 330 401
#     4   9  18  38  64  98 132 164 226 287 344 405
#
# _framework density 22.247053000000001
#
# number of rings (size 3 to 8) (size 9 to 14) (size 15 to 20)
#    0.000    2.800    4.000    0.000    1.400    2.400 
#    7.200    4.000    0.000    6.000    0.000    0.000 
#    0.000    0.000    0.000    0.000    0.000    0.000 
#
# Total GULP energy -111546.008304 kJ/mol
# GULP energy per Si atom -5577.300415 kJ/mol
# Density = 2.219642 g / cm^3
# Si number density = 22.247053 Si / 1000 Ang^3
#
#
#
# Elastic Constant Matrix: (Units=GPa)
#
#
# Indices 1 2 3 4 5 6 
#
# 1 82.3618 35.5244 54.9152 0.0000 0.0000 0.0000
# 2 35.5244 56.0714 35.2575 0.0000 0.0000 0.0000
# 3 54.9152 35.2575 70.2188 0.0000 0.0000 0.0000
# 4 0.0000 0.0000 0.0000 21.7969 0.0000 0.0000
# 5 0.0000 0.0000 0.0000 0.0000 10.7712 0.0000
# 6 0.0000 0.0000 0.0000 0.0000 0.0000 12.7930
#
#
#
# Elastic Compliance Matrix: (Units=1/GPa)
#
#
# Indices 1 2 3 4 5 6 
#
# 1 0.026478 -0.005487 -0.017952 0.000000 0.000000 0.000000
# 2 -0.005487 0.027200 -0.009366 0.000000 0.000000 0.000000
# 3 -0.017952 -0.009366 0.032984 0.000000 0.000000 0.000000
# 4 0.000000 0.000000 0.000000 0.045878 0.000000 0.000000
# 5 0.000000 0.000000 0.000000 0.000000 0.092840 0.000000
# 6 0.000000 0.000000 0.000000 0.000000 0.000000 0.078168
#
#
# Mechanical properties :
#
#
# Convention : Reuss Voigt Hill
#
# Bulk Modulus (GPa) = 47.50395 51.11625 49.31010
# Shear Modulus (GPa) = 13.29167 14.60257 13.94712
#
# Velocity S-wave (km/s) = 2.44695 2.56478 2.50655
# Velocity P-wave (km/s) = 5.42058 5.63891 5.53082
#
# Compressibility (1/GPa) = 0.02105088
#
# Stress axis : x y z
#
# Youngs Moduli (GPa) = 37.76729 36.76443 30.31795
#
# Poissons Ratio (x) = 0.20173 0.54427
# Poissons Ratio (y) = 0.20723 0.28397
# Poissons Ratio (z) = 0.67801 0.34435
#
# Static dielectric constant tensor:
#      x y z
#    x 1.792000 0.000000 0.000000 
#    y 0.000000 1.908330 0.000000 
#    z 0.000000 0.000000 1.871470 
# 
# From -- ./inp_files/16279.got.cif
#   From: 2010.05.17/outbox.cif.g08.bks.cpg/sg24_9_cif.got.tgz:16279.got - 2010.06.04 00:33:39.
