data_PCOD9333197
_publ_section_title
;
Structure prediction by ZEFSAII (Michael W. Deem and Ramdas Pophale) SiO2 
 PCOD9333197
Probable space group: I 21 21 21
;
_chemical_formula_sum "Si O2"
_cell_formula_units_Z 56
_cell_length_a 24.865865
_cell_length_b 8.913416
_cell_length_c 13.374069
_cell_angle_alpha 90.000000
_cell_angle_beta 90.000000
_cell_angle_gamma 90.000000
_cell_volume 2964.225964
_symmetry_space_group_name_H-M "I 21 21 21"
_symmetry_group_IT_number 24
_symmetry_cell_setting 'orthorhombic'
loop_
_space_group_symop_operation_xyz
x,y,z
-x,1/2-y,z
x,-y,1/2-z
1/2-x,y,-z
1/2+x,1/2+y,1/2+z
1/2-x,-y,1/2+z
1/2+x,1/2-y,-z
-x,1/2+y,1/2-z
loop_
_atom_site_type_symbol
_atom_site_label
_atom_site_fract_x
_atom_site_fract_y
_atom_site_fract_z
Si Si1 0.143976 0.675190 0.065024
Si Si2 0.750000 0.002911 0.000000
Si Si3 0.193378 0.974268 0.041066
Si Si4 0.651221 0.393417 0.162876
Si Si5 0.554866 0.843771 0.102354
Si Si6 0.057991 0.677249 0.660739
Si Si7 0.159433 0.500000 0.250000
Si Si8 0.739112 0.244533 0.835444
O O1 0.197549 0.594643 0.022217
O O2 0.161707 0.843057 0.096997
O O3 0.126962 0.562205 0.154530
O O4 0.099979 0.695574 0.978451
O O5 0.738398 0.118126 0.089465
O O6 0.207524 0.122133 0.106336
O O7 0.250000 0.912830 0.000000
O O8 0.164754 0.018143 0.937935
O O9 0.628263 0.500000 0.250000
O O10 0.608703 0.271478 0.125818
O O11 0.706875 0.322194 0.206810
O O12 0.500000 0.750000 0.085206
O O13 0.569552 0.826126 0.219558
O O14 0.550896 0.023299 0.101525
O O15 0.000000 0.750000 0.652121
O O16 0.198285 0.643222 0.271879
#
# Coordination Sequence:
#
# PCOD9333197 Si02
#       8
#     8   4   8   8   8   8   4   8
#     4  11  22  38  61  87 123 159 210 249 309 361
#     4  10  18  36  58  82 124 158 196 252 302 360
#     4  10  21  36  57  85 121 161 195 245 295 361
#     4  11  22  32  61  89 122 164 195 242 300 377
#     4  10  23  41  63  88 120 161 201 253 307 372
#     4  10  23  38  60  89 125 154 198 251 307 372
#     4  10  26  36  62  86 120 166 206 266 296 358
#     4  10  21  38  54  86 124 159 205 243 300 360
#
# _framework density 18.891947999999999
#
# number of rings (size 3 to 8) (size 9 to 14) (size 15 to 20)
#    0.000    1.714    2.857    1.714   12.000    3.429 
#    0.000    0.000    0.000    2.571    0.000    0.000 
#    0.000    0.000    0.000    0.000    0.000    0.000 
#
# Total GULP energy -155966.063974 kJ/mol
# GULP energy per Si atom -5570.216571 kJ/mol
# Density = 1.884895 g / cm^3
# Si number density = 18.891948 Si / 1000 Ang^3
#
#
#
# Elastic Constant Matrix: (Units=GPa)
#
#
# Indices 1 2 3 4 5 6 
#
# 1 57.5684 40.4315 33.3048 0.0000 0.0000 0.0000
# 2 40.4315 121.9712 35.6666 0.0000 0.0000 0.0000
# 3 33.3048 35.6666 35.7819 0.0000 0.0000 0.0000
# 4 0.0000 0.0000 0.0000 8.4115 0.0000 0.0000
# 5 0.0000 0.0000 0.0000 0.0000 19.8855 0.0000
# 6 0.0000 0.0000 0.0000 0.0000 0.0000 20.1373
#
#
#
# Elastic Compliance Matrix: (Units=1/GPa)
#
#
# Indices 1 2 3 4 5 6 
#
# 1 0.038515 -0.003224 -0.032635 0.000000 0.000000 0.000000
# 2 -0.003224 0.011841 -0.008802 0.000000 0.000000 0.000000
# 3 -0.032635 -0.008802 0.067097 0.000000 0.000000 0.000000
# 4 0.000000 0.000000 0.000000 0.118885 0.000000 0.000000
# 5 0.000000 0.000000 0.000000 0.000000 0.050288 0.000000
# 6 0.000000 0.000000 0.000000 0.000000 0.000000 0.049659
#
#
# Mechanical properties :
#
#
# Convention : Reuss Voigt Hill
#
# Bulk Modulus (GPa) = 35.54876 48.23635 41.89256
# Shear Modulus (GPa) = 11.49464 16.74810 14.12137
#
# Velocity S-wave (km/s) = 2.46934 2.98068 2.73698
# Velocity P-wave (km/s) = 5.19499 6.11834 5.67547
#
# Compressibility (1/GPa) = 0.02813037
#
# Stress axis : x y z
#
# Youngs Moduli (GPa) = 25.96372 84.44985 14.90379
#
# Poissons Ratio (x) = 0.27227 0.48639
# Poissons Ratio (y) = 0.08371 0.13119
# Poissons Ratio (z) = 0.84733 0.74335
#
# Static dielectric constant tensor:
#      x y z
#    x 1.434540 0.000000 0.000000 
#    y 0.000000 1.688440 0.000000 
#    z 0.000000 0.000000 1.690610 
# 
# From -- ./inp_files/15290.got.cif
#   From: 2010.05.17/outbox.cif.g08.bks.cpg/sg24_8_cif.got.tgz:15290.got - 2010.06.04 00:33:39.
