data_PCOD9333157
_publ_section_title
;
Structure prediction by ZEFSAII (Michael W. Deem and Ramdas Pophale) SiO2 
 PCOD9333157
Probable space group: I 21 21 21
;
_chemical_formula_sum "Si O2"
_cell_formula_units_Z 64
_cell_length_a 14.536798
_cell_length_b 20.308884
_cell_length_c 12.174442
_cell_angle_alpha 90.000000
_cell_angle_beta 90.000000
_cell_angle_gamma 90.000000
_cell_volume 3594.213571
_symmetry_space_group_name_H-M "I 21 21 21"
_symmetry_group_IT_number 24
_symmetry_cell_setting 'orthorhombic'
loop_
_space_group_symop_operation_xyz
x,y,z
-x,1/2-y,z
x,-y,1/2-z
1/2-x,y,-z
1/2+x,1/2+y,1/2+z
1/2-x,-y,1/2+z
1/2+x,1/2-y,-z
-x,1/2+y,1/2-z
loop_
_atom_site_type_symbol
_atom_site_label
_atom_site_fract_x
_atom_site_fract_y
_atom_site_fract_z
Si Si1 0.432788 0.424782 0.265083
Si Si2 0.893087 0.732168 1.000000
Si Si3 0.250000 0.387629 0.869575
Si Si4 0.432788 0.575218 0.765083
Si Si5 0.074370 0.809655 0.235803
Si Si6 0.425630 0.190345 0.264197
Si Si7 0.646556 0.884441 0.000000
Si Si8 0.750000 0.270034 0.128516
O O1 0.461162 0.500000 0.250000
O O2 0.342258 0.413533 0.189588
O O3 0.515350 0.374579 0.240332
O O4 0.403291 0.407938 0.389937
O O5 0.880802 0.693361 0.113382
O O6 0.848548 0.804577 1.000000
O O7 0.000000 0.750000 0.000000
O O8 0.880802 0.693361 0.886618
O O9 0.342258 0.413533 0.810412
O O10 0.250000 0.308800 0.854002
O O11 0.250000 0.402327 0.000000
O O12 0.461162 0.500000 0.750000
O O13 0.515350 0.625421 0.740332
O O14 0.403291 0.592062 0.889937
O O15 0.157725 0.798024 0.317875
O O16 0.000000 0.750000 0.242366
O O17 0.500000 0.250000 0.257634
O O18 0.342275 0.201976 0.182125
O O19 0.750000 0.910913 0.000000
O O20 0.750000 0.282874 0.000000
#
# Coordination Sequence:
#
# PCOD9333157 Si02
#       8
#     8   8   8   8   8   8   8   8
#     4  12  25  39  59  91 128 165 199 247 311 373
#     4  10  18  34  64  92 118 139 201 260 307 356
#     4  11  23  38  58  93 123 157 202 245 304 374
#     4  12  25  39  59  91 128 165 199 247 311 373
#     4  11  21  40  63  91 122 156 206 261 307 359
#     4  11  21  40  63  91 122 156 206 261 307 359
#     4  12  22  36  62  95 128 156 194 255 319 368
#     4  11  24  40  63  89 121 161 212 251 294 363
#
# _framework density 17.8064
#
# number of rings (size 3 to 8) (size 9 to 14) (size 15 to 20)
#    0.000    0.750    8.750    0.375    3.500    1.500 
#    0.000    0.625    0.000    0.000    0.000    0.000 
#    0.000    0.000    0.000    0.000    0.000    0.000 
#
# Total GULP energy -178723.799953 kJ/mol
# GULP energy per Si atom -5585.118749 kJ/mol
# Density = 1.776587 g / cm^3
# Si number density = 17.806400 Si / 1000 Ang^3
#
#
#
# Elastic Constant Matrix: (Units=GPa)
#
#
# Indices 1 2 3 4 5 6 
#
# 1 96.9151 63.3317 46.1509 0.0000 0.0000 0.0000
# 2 63.3317 136.1428 59.5913 0.0000 0.0000 0.0000
# 3 46.1509 59.5913 76.9459 0.0000 0.0000 0.0000
# 4 0.0000 0.0000 0.0000 3.1279 0.0000 0.0000
# 5 0.0000 0.0000 0.0000 0.0000 14.6730 0.0000
# 6 0.0000 0.0000 0.0000 0.0000 0.0000 -57.5852
#
#
#
# Elastic Compliance Matrix: (Units=1/GPa)
#
#
# Indices 1 2 3 4 5 6 
#
# 1 0.016454 -0.005044 -0.005962 0.000000 0.000000 0.000000
# 2 -0.005044 0.012659 -0.006778 0.000000 0.000000 0.000000
# 3 -0.005962 -0.006778 0.021821 0.000000 0.000000 0.000000
# 4 0.000000 0.000000 0.000000 0.319700 0.000000 0.000000
# 5 0.000000 0.000000 0.000000 0.000000 0.068153 0.000000
# 6 0.000000 0.000000 0.000000 0.000000 0.000000 -0.017366
#
#
# Mechanical properties :
#
#
# Convention : Reuss Voigt Hill
#
# Bulk Modulus (GPa) = 65.08356 72.01685 68.55020
# Shear Modulus (GPa) = 10.81989 1.43846 6.12918
#
# Velocity S-wave (km/s) = 2.46771 0.89977 1.85731
# Velocity P-wave (km/s) = 6.68950 6.45071 6.57119
#
# Compressibility (1/GPa) = 0.01536486
#
# Stress axis : x y z
#
# Youngs Moduli (GPa) = 60.77600 78.99737 45.82660
#
# Poissons Ratio (x) = 0.39850 0.27322
# Poissons Ratio (y) = 0.30658 0.31061
# Poissons Ratio (z) = 0.36235 0.53544
#
# Static dielectric constant tensor:
#      x y z
#    x 1.561430 0.000000 0.000000 
#    y 0.000000 1.607130 0.000000 
#    z 0.000000 0.000000 1.663690 
# 
# From -- ./inp_files/21079.got.cif
#   From: 2010.05.17/outbox.cif.g08.bks.cpg/sg24_11_cif.got.tgz:21079.got - 2010.06.04 00:33:39.
