data_PCOD9333919
_publ_section_title
;
Structure prediction by ZEFSAII (Michael W. Deem and Ramdas Pophale) SiO2 
 PCOD9333919
Probable space group: I 21 21 21
;
_chemical_formula_sum "Si O2"
_cell_formula_units_Z 40
_cell_length_a 10.754429
_cell_length_b 8.916320
_cell_length_c 19.512825
_cell_angle_alpha 90.000000
_cell_angle_beta 90.000000
_cell_angle_gamma 90.000000
_cell_volume 1871.083431
_symmetry_space_group_name_H-M "I 21 21 21"
_symmetry_group_IT_number 24
_symmetry_cell_setting 'orthorhombic'
loop_
_space_group_symop_operation_xyz
x,y,z
-x,1/2-y,z
x,-y,1/2-z
1/2-x,y,-z
1/2+x,1/2+y,1/2+z
1/2-x,-y,1/2+z
1/2+x,1/2-y,-z
-x,1/2+y,1/2-z
loop_
_atom_site_type_symbol
_atom_site_label
_atom_site_fract_x
_atom_site_fract_y
_atom_site_fract_z
Si Si1 0.304904 0.347409 0.422853
Si Si2 0.146034 0.779584 0.193955
Si Si3 0.773137 0.379689 0.165708
Si Si4 0.066218 0.025468 0.579049
Si Si5 0.374234 0.185273 0.971102
O O1 0.250000 0.358367 0.500000
O O2 0.199898 0.333730 0.363745
O O3 0.375592 0.189156 0.412015
O O4 0.417571 0.466196 0.413818
O O5 0.221834 0.781954 0.265762
O O6 0.000000 0.750000 0.204842
O O7 0.167133 0.954300 0.173755
O O8 0.638491 0.414228 0.131375
O O9 0.858754 0.303767 0.108872
O O10 0.112752 0.980253 0.502682
O O11 0.500000 0.250000 0.998495
O O12 0.250000 0.257265 0.000000
#
# Coordination Sequence:
#
# PCOD9333919 Si02
#       5
#     8   8   8   8   8
#     4  10  20  32  59  92 121 147 197 255 298 353
#     4  10  20  34  59  88 115 157 189 249 306 351
#     4   9  19  37  59  78 120 154 199 231 304 368
#     4   9  19  36  58  85 116 160 195 242 305 351
#     4  10  20  36  58  82 114 158 197 243 294 355
#
# _framework density 21.377987999999998
#
# number of rings (size 3 to 8) (size 9 to 14) (size 15 to 20)
#    0.000    2.400    0.000    3.600    5.600    0.800 
#    0.000    0.000   61.600    0.000    0.000    0.000 
#    0.000    0.000    0.000    0.000    0.000    0.000 
#
# Total GULP energy -111343.727568 kJ/mol
# GULP energy per Si atom -5567.186378 kJ/mol
# Density = 2.132933 g / cm^3
# Si number density = 21.377988 Si / 1000 Ang^3
#
#
#
# Elastic Constant Matrix: (Units=GPa)
#
#
# Indices 1 2 3 4 5 6 
#
# 1 154.5450 23.7260 53.6798 0.0000 0.0000 0.0000
# 2 23.7260 16.0501 10.8402 0.0000 0.0000 0.0000
# 3 53.6798 10.8402 140.6427 0.0000 0.0000 0.0000
# 4 0.0000 0.0000 0.0000 8.5233 0.0000 0.0000
# 5 0.0000 0.0000 0.0000 0.0000 3.8751 0.0000
# 6 0.0000 0.0000 0.0000 0.0000 0.0000 17.4273
#
#
#
# Elastic Compliance Matrix: (Units=1/GPa)
#
#
# Indices 1 2 3 4 5 6 
#
# 1 0.009188 -0.011829 -0.002595 0.000000 0.000000 0.000000
# 2 -0.011829 0.080956 -0.001725 0.000000 0.000000 0.000000
# 3 -0.002595 -0.001725 0.008234 0.000000 0.000000 0.000000
# 4 0.000000 0.000000 0.000000 0.117326 0.000000 0.000000
# 5 0.000000 0.000000 0.000000 0.000000 0.258060 0.000000
# 6 0.000000 0.000000 0.000000 0.000000 0.000000 0.057381
#
#
# Mechanical properties :
#
#
# Convention : Reuss Voigt Hill
#
# Bulk Modulus (GPa) = 15.13330 54.19220 34.66275
# Shear Modulus (GPa) = 8.54014 20.83124 14.68569
#
# Velocity S-wave (km/s) = 2.00087 3.12496 2.62382
# Velocity P-wave (km/s) = 3.52594 6.19880 5.04269
#
# Compressibility (1/GPa) = 0.06607943
#
# Stress axis : x y z
#
# Youngs Moduli (GPa) = 108.83697 12.35233 121.45299
#
# Poissons Ratio (x) = 0.14612 0.31518
# Poissons Ratio (y) = 1.28748 0.20948
# Poissons Ratio (z) = 0.28244 0.02131
#
# Static dielectric constant tensor:
#      x y z
#    x 1.685360 0.000000 0.000000 
#    y 0.000000 1.824770 0.000000 
#    z 0.000000 0.000000 1.805840 
# 
# From -- ./inp_files/11036.got.cif
#   From: 2010.05.17/outbox.cif.g08.bks.cpg/sg24_6_cif.got.tgz:11036.got - 2010.06.04 00:33:39.
