data_PCOD9333177
_publ_section_title
;
Structure prediction by ZEFSAII (Michael W. Deem and Ramdas Pophale) SiO2 
 PCOD9333177
Probable space group: I 21 21 21
;
_chemical_formula_sum "Si O2"
_cell_formula_units_Z 40
_cell_length_a 13.947980
_cell_length_b 10.497610
_cell_length_c 11.069801
_cell_angle_alpha 90.000000
_cell_angle_beta 90.000000
_cell_angle_gamma 90.000000
_cell_volume 1620.845292
_symmetry_space_group_name_H-M "I 21 21 21"
_symmetry_group_IT_number 24
_symmetry_cell_setting 'orthorhombic'
loop_
_space_group_symop_operation_xyz
x,y,z
-x,1/2-y,z
x,-y,1/2-z
1/2-x,y,-z
1/2+x,1/2+y,1/2+z
1/2-x,-y,1/2+z
1/2+x,1/2-y,-z
-x,1/2+y,1/2-z
loop_
_atom_site_type_symbol
_atom_site_label
_atom_site_fract_x
_atom_site_fract_y
_atom_site_fract_z
Si Si1 0.453025 0.915861 0.995980
Si Si2 0.147369 0.852965 0.757938
Si Si3 0.354752 0.536901 0.561398
Si Si4 0.683644 0.223971 0.622263
Si Si5 0.364587 0.185134 0.992590
O O1 0.419507 0.858840 0.124540
O O2 0.404112 0.048454 0.953216
O O3 0.562492 0.961506 0.013723
O O4 0.408323 0.812075 0.903629
O O5 0.244153 0.776475 0.779369
O O6 0.102761 0.805792 0.633179
O O7 0.177061 0.000000 0.750000
O O8 0.250000 0.550223 0.500000
O O9 0.341037 0.420467 0.654443
O O10 0.388684 0.683088 0.575596
O O11 0.750000 0.227016 0.500000
O O12 0.250000 0.170840 0.000000
#
# Coordination Sequence:
#
# PCOD9333177 Si02
#       5
#     8   8   8   8   8
#     4  10  18  35  60  84 113 153 200 239 281 346
#     4   9  18  35  62  93 113 147 201 244 289 344
#     4  10  21  36  53  81 122 155 183 232 296 346
#     4   9  18  35  57  82 115 151 192 239 289 350
#     4  10  20  37  61  88 120 152 189 242 297 350
#
# _framework density 24.67848
#
# number of rings (size 3 to 8) (size 9 to 14) (size 15 to 20)
#    0.000    2.400    0.000    4.200    0.000    0.000 
#    0.000   48.000    0.000   24.000    0.000    0.000 
#    0.000    0.000    0.000    0.000    0.000    0.000 
#
# Total GULP energy -111478.958839 kJ/mol
# GULP energy per Si atom -5573.947942 kJ/mol
# Density = 2.462231 g / cm^3
# Si number density = 24.678480 Si / 1000 Ang^3
#
#
#
# Elastic Constant Matrix: (Units=GPa)
#
#
# Indices 1 2 3 4 5 6 
#
# 1 120.6943 67.7697 15.3036 0.0000 0.0000 0.0000
# 2 67.7697 221.6207 46.0862 0.0000 0.0000 0.0000
# 3 15.3036 46.0862 40.1479 0.0000 0.0000 0.0000
# 4 0.0000 0.0000 0.0000 88.4957 0.0000 0.0000
# 5 0.0000 0.0000 0.0000 0.0000 4.2742 0.0000
# 6 0.0000 0.0000 0.0000 0.0000 0.0000 39.7056
#
#
#
# Elastic Compliance Matrix: (Units=1/GPa)
#
#
# Indices 1 2 3 4 5 6 
#
# 1 0.010008 -0.002978 -0.000396 0.000000 0.000000 0.000000
# 2 -0.002978 0.006813 -0.006686 0.000000 0.000000 0.000000
# 3 -0.000396 -0.006686 0.032734 0.000000 0.000000 0.000000
# 4 0.000000 0.000000 0.000000 0.011300 0.000000 0.000000
# 5 0.000000 0.000000 0.000000 0.000000 0.233963 0.000000
# 6 0.000000 0.000000 0.000000 0.000000 0.000000 0.025185
#
#
# Mechanical properties :
#
#
# Convention : Reuss Voigt Hill
#
# Bulk Modulus (GPa) = 33.97384 71.19797 52.58590
# Shear Modulus (GPa) = 14.28837 43.38200 28.83519
#
# Velocity S-wave (km/s) = 2.40881 4.19727 3.42195
# Velocity P-wave (km/s) = 4.64036 7.23894 6.08010
#
# Compressibility (1/GPa) = 0.02943442
#
# Stress axis : x y z
#
# Youngs Moduli (GPa) = 99.92291 146.77565 30.54957
#
# Poissons Ratio (x) = 0.43707 0.01211
# Poissons Ratio (y) = 0.29755 0.20425
# Poissons Ratio (z) = 0.03962 0.98131
#
# Static dielectric constant tensor:
#      x y z
#    x 1.935850 0.000000 0.000000 
#    y 0.000000 1.954260 0.000000 
#    z 0.000000 0.000000 1.990870 
# 
# From -- ./inp_files/26356.got.cif
#   From: 2010.05.17/outbox.cif.g08.bks.cpg/sg24_14_cif.got.tgz:26356.got - 2010.06.04 00:33:39.
