data_PCOD9333416
_publ_section_title
;
Structure prediction by ZEFSAII (Michael W. Deem and Ramdas Pophale) SiO2 
 PCOD9333416
Probable space group: I 21 21 21
;
_chemical_formula_sum "Si O2"
_cell_formula_units_Z 48
_cell_length_a 14.616293
_cell_length_b 17.930623
_cell_length_c 10.772788
_cell_angle_alpha 90.000000
_cell_angle_beta 90.000000
_cell_angle_gamma 90.000000
_cell_volume 2823.324086
_symmetry_space_group_name_H-M "I 21 21 21"
_symmetry_group_IT_number 24
_symmetry_cell_setting 'orthorhombic'
loop_
_space_group_symop_operation_xyz
x,y,z
-x,1/2-y,z
x,-y,1/2-z
1/2-x,y,-z
1/2+x,1/2+y,1/2+z
1/2-x,-y,1/2+z
1/2+x,1/2-y,-z
-x,1/2+y,1/2-z
loop_
_atom_site_type_symbol
_atom_site_label
_atom_site_fract_x
_atom_site_fract_y
_atom_site_fract_z
Si Si1 0.994485 0.644805 0.659821
Si Si2 0.095767 0.496726 0.885394
Si Si3 0.827981 0.199844 0.220722
Si Si4 0.250000 0.600048 0.500000
Si Si5 0.636227 0.750095 0.203286
Si Si6 0.000000 0.750000 0.430842
Si Si7 0.641433 0.855760 0.985233
O O1 0.915078 0.675752 0.750466
O O2 0.009786 0.557094 0.643865
O O3 0.085841 0.684891 0.715279
O O4 0.984077 0.680978 0.524348
O O5 0.142850 0.500000 0.750000
O O6 0.162934 0.450422 0.971749
O O7 0.085933 0.577322 0.948478
O O8 0.778977 0.148687 0.118017
O O9 0.744216 0.250267 0.270894
O O10 0.869346 0.155999 0.338953
O O11 0.910565 0.239968 0.151767
O O12 0.622947 0.779921 0.063128
O O13 0.750000 0.873655 0.000000
#
# Coordination Sequence:
#
# PCOD9333416 Si02
#       7
#     8   8   8   4   8   4   8
#     4  10  19  32  53  73 106 142 183 219 253 332
#     4  12  20  32  50  80 107 143 178 217 277 343
#     4  11  20  35  51  77 108 144 176 225 277 329
#     4  12  20  32  50  72 118 142 166 214 280 342
#     4   9  18  34  51  73 104 140 180 220 263 316
#     4  10  20  32  48  76 102 136 184 216 270 328
#     4  10  20  32  52  80 112 143 173 221 286 343
#
# _framework density 17.001235999999999
#
# number of rings (size 3 to 8) (size 9 to 14) (size 15 to 20)
#    0.000    1.667    5.833    2.000    0.000    1.333 
#    0.000    0.000    0.000    0.000    0.000    4.667 
#    0.000    0.000    0.000    0.000    0.000    0.000 
#
# Total GULP energy -133652.360698 kJ/mol
# GULP energy per Si atom -5568.848362 kJ/mol
# Density = 1.696254 g / cm^3
# Si number density = 17.001236 Si / 1000 Ang^3
#
#
#
# Elastic Constant Matrix: (Units=GPa)
#
#
# Indices 1 2 3 4 5 6 
#
# 1 57.7995 30.7779 19.1497 0.0000 0.0000 0.0000
# 2 30.7779 71.4547 35.0469 0.0000 0.0000 0.0000
# 3 19.1497 35.0469 113.8415 0.0000 0.0000 0.0000
# 4 0.0000 0.0000 0.0000 30.0365 0.0000 0.0000
# 5 0.0000 0.0000 0.0000 0.0000 23.4913 0.0000
# 6 0.0000 0.0000 0.0000 0.0000 0.0000 22.3847
#
#
#
# Elastic Compliance Matrix: (Units=1/GPa)
#
#
# Indices 1 2 3 4 5 6 
#
# 1 0.022537 -0.009244 -0.000945 0.000000 0.000000 0.000000
# 2 -0.009244 0.020275 -0.004687 0.000000 0.000000 0.000000
# 3 -0.000945 -0.004687 0.010386 0.000000 0.000000 0.000000
# 4 0.000000 0.000000 0.000000 0.033293 0.000000 0.000000
# 5 0.000000 0.000000 0.000000 0.000000 0.042569 0.000000
# 6 0.000000 0.000000 0.000000 0.000000 0.000000 0.044673
#
#
# Mechanical properties :
#
#
# Convention : Reuss Voigt Hill
#
# Bulk Modulus (GPa) = 42.65083 45.89385 44.27234
# Shear Modulus (GPa) = 23.66304 25.72391 24.69348
#
# Velocity S-wave (km/s) = 3.73479 3.89403 3.81524
# Velocity P-wave (km/s) = 6.61359 6.87539 6.74576
#
# Compressibility (1/GPa) = 0.02344620
#
# Stress axis : x y z
#
# Youngs Moduli (GPa) = 44.37245 49.32122 96.28280
#
# Poissons Ratio (x) = 0.45590 0.09101
# Poissons Ratio (y) = 0.41016 0.45128
# Poissons Ratio (z) = 0.04194 0.23117
#
# Static dielectric constant tensor:
#      x y z
#    x 1.583980 0.000000 0.000000 
#    y 0.000000 1.603030 0.000000 
#    z 0.000000 0.000000 1.615350 
# 
# From -- ./inp_files/13013.got.cif
#   From: 2010.05.17/outbox.cif.g08.bks.cpg/sg24_7_cif.got.tgz:13013.got - 2010.06.04 00:33:39.
