data_PCOD9333303
_publ_section_title
;
Structure prediction by ZEFSAII (Michael W. Deem and Ramdas Pophale) SiO2 
 PCOD9333303
Probable space group: I 21 21 21
;
_chemical_formula_sum "Si O2"
_cell_formula_units_Z 36
_cell_length_a 15.079460
_cell_length_b 9.091454
_cell_length_c 11.802198
_cell_angle_alpha 90.000000
_cell_angle_beta 90.000000
_cell_angle_gamma 90.000000
_cell_volume 1618.013093
_symmetry_space_group_name_H-M "I 21 21 21"
_symmetry_group_IT_number 24
_symmetry_cell_setting 'orthorhombic'
loop_
_space_group_symop_operation_xyz
x,y,z
-x,1/2-y,z
x,-y,1/2-z
1/2-x,y,-z
1/2+x,1/2+y,1/2+z
1/2-x,-y,1/2+z
1/2+x,1/2-y,-z
-x,1/2+y,1/2-z
loop_
_atom_site_type_symbol
_atom_site_label
_atom_site_fract_x
_atom_site_fract_y
_atom_site_fract_z
Si Si1 0.500000 0.750000 0.814425
Si Si2 0.750000 0.719692 0.000000
Si Si3 0.193498 0.673621 0.756324
Si Si4 0.653552 0.350749 0.829482
Si Si5 0.000000 0.750000 0.815786
Si Si6 0.066544 0.957925 0.006081
O O1 0.586512 0.751776 0.738954
O O2 0.494709 0.891827 0.894593
O O3 0.734664 0.798325 0.118763
O O4 0.840003 0.627896 0.008900
O O5 0.195801 0.500000 0.750000
O O6 0.252868 0.768397 0.669261
O O7 0.091514 0.726307 0.750728
O O8 0.663818 0.500000 0.750000
O O9 0.602602 0.387269 0.946956
O O10 0.018206 0.896898 0.893627
#
# Coordination Sequence:
#
# PCOD9333303 Si02
#       6
#     4   4   8   8   4   8
#     4   9  16  30  52  91 118 140 192 267 312 369
#     4  10  18  40  62  88 118 168 216 250 332 392
#     4  11  23  40  66  95 129 174 213 277 329 409
#     4  10  19  36  63  93 120 160 217 260 326 389
#     4   9  22  42  64  87 132 174 222 261 338 403
#     4   9  18  36  62  89 113 164 210 262 307 393
#
# _framework density 22.249510999999998
#
# number of rings (size 3 to 8) (size 9 to 14) (size 15 to 20)
#    0.000    2.222    4.444    0.000    0.000    3.556 
#    0.000    1.111    0.000    0.000    0.000    0.000 
#    0.000    0.000    0.000    0.000    0.000    0.000 
#
# Total GULP energy -100288.478599 kJ/mol
# GULP energy per Si atom -5571.582144 kJ/mol
# Density = 2.219887 g / cm^3
# Si number density = 22.249511 Si / 1000 Ang^3
#
#
#
# Elastic Constant Matrix: (Units=GPa)
#
#
# Indices 1 2 3 4 5 6 
#
# 1 154.3914 31.8371 12.5300 0.0000 0.0000 0.0000
# 2 31.8371 49.7013 9.6552 0.0000 0.0000 0.0000
# 3 12.5300 9.6552 27.9046 0.0000 0.0000 0.0000
# 4 0.0000 0.0000 0.0000 -163.8997 0.0000 0.0000
# 5 0.0000 0.0000 0.0000 0.0000 -1.8733 0.0000
# 6 0.0000 0.0000 0.0000 0.0000 0.0000 12.5405
#
#
#
# Elastic Compliance Matrix: (Units=1/GPa)
#
#
# Indices 1 2 3 4 5 6 
#
# 1 0.007550 -0.004479 -0.001840 0.000000 0.000000 0.000000
# 2 -0.004479 0.024227 -0.006372 0.000000 0.000000 0.000000
# 3 -0.001840 -0.006372 0.038867 0.000000 0.000000 0.000000
# 4 0.000000 0.000000 0.000000 -0.006101 0.000000 0.000000
# 5 0.000000 0.000000 0.000000 0.000000 -0.533831 0.000000
# 6 0.000000 0.000000 0.000000 0.000000 0.000000 0.079741
#
#
# Mechanical properties :
#
#
# Convention : Reuss Voigt Hill
#
# Bulk Modulus (GPa) = 22.09329 37.78245 29.93787
# Shear Modulus (GPa) = -14.32349 -18.78149 -16.55249
#
# Velocity S-wave (km/s) = -2.54001 -2.90854 -2.73050
# Velocity P-wave (km/s) = 1.16153 2.39554 1.88252
#
# Compressibility (1/GPa) = 0.04526262
#
# Stress axis : x y z
#
# Youngs Moduli (GPa) = 132.45070 41.27635 25.72851
#
# Poissons Ratio (x) = 0.18487 0.04735
# Poissons Ratio (y) = 0.59321 0.16393
# Poissons Ratio (z) = 0.24377 0.26300
#
# Static dielectric constant tensor:
#      x y z
#    x 2.005150 0.000000 0.000000 
#    y 0.000000 1.894490 0.000000 
#    z 0.000000 0.000000 1.934820 
# 
# From -- ./inp_files/26279.got.cif
#   From: 2010.05.17/outbox.cif.g08.bks.cpg/sg24_14_cif.got.tgz:26279.got - 2010.06.04 00:33:39.
