data_PCOD9333122
_publ_section_title
;
Structure prediction by ZEFSAII (Michael W. Deem and Ramdas Pophale) SiO2 
 PCOD9333122
Probable space group: I 21 21 21
;
_chemical_formula_sum "Si O2"
_cell_formula_units_Z 36
_cell_length_a 16.824362
_cell_length_b 9.778257
_cell_length_c 7.528388
_cell_angle_alpha 90.000000
_cell_angle_beta 90.000000
_cell_angle_gamma 90.000000
_cell_volume 1238.517209
_symmetry_space_group_name_H-M "I 21 21 21"
_symmetry_group_IT_number 24
_symmetry_cell_setting 'orthorhombic'
loop_
_space_group_symop_operation_xyz
x,y,z
-x,1/2-y,z
x,-y,1/2-z
1/2-x,y,-z
1/2+x,1/2+y,1/2+z
1/2-x,-y,1/2+z
1/2+x,1/2-y,-z
-x,1/2+y,1/2-z
loop_
_atom_site_type_symbol
_atom_site_label
_atom_site_fract_x
_atom_site_fract_y
_atom_site_fract_z
Si Si1 0.610601 0.842378 0.774568
Si Si2 0.553974 0.134600 0.111623
Si Si3 0.776064 0.187543 0.806119
Si Si4 0.074899 0.932755 0.054950
Si Si5 0.750000 0.457480 0.000000
O O1 0.587048 0.796125 0.573662
O O2 0.703761 0.849960 0.818479
O O3 0.576374 0.729499 0.905769
O O4 0.588020 0.000000 0.750000
O O5 0.500000 0.250000 0.196152
O O6 0.495694 0.005944 0.062097
O O7 0.635505 0.136036 0.224645
O O8 0.762597 0.349817 0.836652
O O9 0.750000 0.129739 0.000000
O O10 0.069050 0.000000 0.250000
O O11 0.165532 0.967627 0.001334
#
# Coordination Sequence:
#
# PCOD9333122 Si02
#       5
#     8   8   8   8   4
#     4  11  23  36  57  83 125 161 197 246 319 384
#     4  11  18  32  61  89 111 143 197 254 311 362
#     4   8  16  35  54  79 116 162 190 231 321 385
#     4  12  20  35  62  92 115 155 212 258 313 377
#     4  10  18  34  56  88 118 158 198 260 312 386
#
# _framework density 29.067018000000001
#
# number of rings (size 3 to 8) (size 9 to 14) (size 15 to 20)
#    0.667    0.889    6.667    0.667    0.000    0.000 
#    6.000    0.000    0.000    4.000    0.000    0.000 
#    0.000    0.000    0.000    0.000    0.000    0.000 
#
# Total GULP energy -100489.846375 kJ/mol
# GULP energy per Si atom -5582.769243 kJ/mol
# Density = 2.900086 g / cm^3
# Si number density = 29.067018 Si / 1000 Ang^3
#
#
#
# Elastic Constant Matrix: (Units=GPa)
#
#
# Indices 1 2 3 4 5 6 
#
# 1 358.3395 104.5262 40.0501 0.0000 0.0000 0.0000
# 2 104.5262 234.8495 37.5785 0.0000 0.0000 0.0000
# 3 40.0501 37.5785 86.1668 0.0000 0.0000 0.0000
# 4 0.0000 0.0000 0.0000 34.6837 0.0000 0.0000
# 5 0.0000 0.0000 0.0000 0.0000 33.5895 0.0000
# 6 0.0000 0.0000 0.0000 0.0000 0.0000 -15.0750
#
#
#
# Elastic Compliance Matrix: (Units=1/GPa)
#
#
# Indices 1 2 3 4 5 6 
#
# 1 0.003278 -0.001306 -0.000954 0.000000 0.000000 0.000000
# 2 -0.001306 0.005098 -0.001616 0.000000 0.000000 0.000000
# 3 -0.000954 -0.001616 0.012754 0.000000 0.000000 0.000000
# 4 0.000000 0.000000 0.000000 0.028832 0.000000 0.000000
# 5 0.000000 0.000000 0.000000 0.000000 0.029771 0.000000
# 6 0.000000 0.000000 0.000000 0.000000 0.000000 -0.066335
#
#
# Mechanical properties :
#
#
# Convention : Reuss Voigt Hill
#
# Bulk Modulus (GPa) = 74.75558 115.96282 95.35920
# Shear Modulus (GPa) = 195.23150 43.78636 119.50893
#
# Velocity S-wave (km/s) = 8.20438 3.88544 6.41905
# Velocity P-wave (km/s) = 10.74817 7.75309 9.37106
#
# Compressibility (1/GPa) = 0.01337693
#
# Stress axis : x y z
#
# Youngs Moduli (GPa) = 305.02966 196.15051 78.40909
#
# Poissons Ratio (x) = 0.25627 0.07480
# Poissons Ratio (y) = 0.39851 0.12672
# Poissons Ratio (z) = 0.29100 0.31700
#
# Static dielectric constant tensor:
#      x y z
#    x 2.257550 0.000000 0.000000 
#    y 0.000000 2.441200 0.000000 
#    z 0.000000 0.000000 2.448190 
# 
# From -- ./inp_files/26256.got.cif
#   From: 2010.05.17/outbox.cif.g08.bks.cpg/sg24_14_cif.got.tgz:26256.got - 2010.06.04 00:33:39.
