data_PCOD9333028
_publ_section_title
;
Structure prediction by ZEFSAII (Michael W. Deem and Ramdas Pophale) SiO2 
 PCOD9333028
Probable space group: I 21 21 21
;
_chemical_formula_sum "Si O2"
_cell_formula_units_Z 48
_cell_length_a 9.928380
_cell_length_b 11.138566
_cell_length_c 17.181322
_cell_angle_alpha 90.000000
_cell_angle_beta 90.000000
_cell_angle_gamma 90.000000
_cell_volume 1900.046592
_symmetry_space_group_name_H-M "I 21 21 21"
_symmetry_group_IT_number 24
_symmetry_cell_setting 'orthorhombic'
loop_
_space_group_symop_operation_xyz
x,y,z
-x,1/2-y,z
x,-y,1/2-z
1/2-x,y,-z
1/2+x,1/2+y,1/2+z
1/2-x,-y,1/2+z
1/2+x,1/2-y,-z
-x,1/2+y,1/2-z
loop_
_atom_site_type_symbol
_atom_site_label
_atom_site_fract_x
_atom_site_fract_y
_atom_site_fract_z
Si Si1 0.723369 0.957105 0.161625
Si Si2 0.696814 0.321293 0.830066
Si Si3 0.757395 0.305596 0.647631
Si Si4 0.028566 0.958970 0.104756
Si Si5 0.399227 0.653835 0.529436
Si Si6 0.945138 0.527139 0.656323
O O1 0.674525 0.823191 0.140571
O O2 0.599963 0.038880 0.131367
O O3 0.735167 0.000000 0.250000
O O4 0.877796 0.944998 0.135671
O O5 0.705205 0.300688 0.737901
O O6 0.609288 0.442096 0.843879
O O7 0.637403 0.214873 0.883924
O O8 0.847381 0.359698 0.855016
O O9 0.623506 0.344075 0.600155
O O10 0.863172 0.410206 0.628669
O O11 0.992360 0.035605 0.029088
O O12 0.500000 0.750000 0.493775
O O13 0.250000 0.633069 0.500000
O O14 0.950732 0.500000 0.750000
#
# Coordination Sequence:
#
# PCOD9333028 Si02
#       6
#     8   8   8   8   8   8
#     4  11  19  27  45  78 113 145 189 240 297 367
#     4   9  18  34  53  75 112 155 192 237 303 371
#     4  10  18  32  51  76 117 157 188 236 308 384
#     4  10  20  32  50  78 108 146 193 244 304 366
#     4  10  22  39  58  82 113 153 203 254 303 361
#     4   8  17  30  45  71 110 154 190 229 294 373
#
# _framework density 25.262540999999999
#
# number of rings (size 3 to 8) (size 9 to 14) (size 15 to 20)
#    0.000    2.333    0.000    4.500    0.000    4.000 
#    0.000    3.333    0.000    0.000    0.000   33.833 
#    0.000    0.000    0.000    0.000    0.000    0.167 
#
# Total GULP energy -133822.208310 kJ/mol
# GULP energy per Si atom -5575.925346 kJ/mol
# Density = 2.520504 g / cm^3
# Si number density = 25.262541 Si / 1000 Ang^3
#
#
#
# Elastic Constant Matrix: (Units=GPa)
#
#
# Indices 1 2 3 4 5 6 
#
# 1 176.7149 26.6075 16.4181 0.0000 0.0000 0.0000
# 2 26.6075 81.5391 4.4766 0.0000 0.0000 0.0000
# 3 16.4181 4.4766 35.0811 0.0000 0.0000 0.0000
# 4 0.0000 0.0000 0.0000 7.0064 0.0000 0.0000
# 5 0.0000 0.0000 0.0000 0.0000 3.1714 0.0000
# 6 0.0000 0.0000 0.0000 0.0000 0.0000 42.9229
#
#
#
# Elastic Compliance Matrix: (Units=1/GPa)
#
#
# Indices 1 2 3 4 5 6 
#
# 1 0.006188 -0.001873 -0.002657 0.000000 0.000000 0.000000
# 2 -0.001873 0.012918 -0.000772 0.000000 0.000000 0.000000
# 3 -0.002657 -0.000772 0.029847 0.000000 0.000000 0.000000
# 4 0.000000 0.000000 0.000000 0.142726 0.000000 0.000000
# 5 0.000000 0.000000 0.000000 0.000000 0.315313 0.000000
# 6 0.000000 0.000000 0.000000 0.000000 0.000000 0.023298
#
#
# Mechanical properties :
#
#
# Convention : Reuss Voigt Hill
#
# Bulk Modulus (GPa) = 26.07625 43.14884 34.61254
# Shear Modulus (GPa) = 9.03055 27.00903 18.01979
#
# Velocity S-wave (km/s) = 1.89273 3.27331 2.67367
# Velocity P-wave (km/s) = 3.88859 5.60387 4.82309
#
# Compressibility (1/GPa) = 0.03834908
#
# Stress axis : x y z
#
# Youngs Moduli (GPa) = 161.61024 77.41314 33.50388
#
# Poissons Ratio (x) = 0.14502 0.08901
# Poissons Ratio (y) = 0.30274 0.02585
# Poissons Ratio (z) = 0.42937 0.05974
#
# Static dielectric constant tensor:
#      x y z
#    x 2.018610 0.000000 0.000000 
#    y 0.000000 1.974350 0.000000 
#    z 0.000000 0.000000 2.173060 
# 
# From -- ./inp_files/11260.got.cif
#   From: 2010.05.17/outbox.cif.g08.bks.cpg/sg24_6_cif.got.tgz:11260.got - 2010.06.04 00:33:39.
