data_PCOD9333019
_publ_section_title
;
Structure prediction by ZEFSAII (Michael W. Deem and Ramdas Pophale) SiO2 
 PCOD9333019
Probable space group: I 21 21 21
;
_chemical_formula_sum "Si O2"
_cell_formula_units_Z 48
_cell_length_a 5.494212
_cell_length_b 17.713710
_cell_length_c 30.735925
_cell_angle_alpha 90.000000
_cell_angle_beta 90.000000
_cell_angle_gamma 90.000000
_cell_volume 2991.308680
_symmetry_space_group_name_H-M "I 21 21 21"
_symmetry_group_IT_number 24
_symmetry_cell_setting 'orthorhombic'
loop_
_space_group_symop_operation_xyz
x,y,z
-x,1/2-y,z
x,-y,1/2-z
1/2-x,y,-z
1/2+x,1/2+y,1/2+z
1/2-x,-y,1/2+z
1/2+x,1/2-y,-z
-x,1/2+y,1/2-z
loop_
_atom_site_type_symbol
_atom_site_label
_atom_site_fract_x
_atom_site_fract_y
_atom_site_fract_z
Si Si1 0.917751 0.333890 0.820191
Si Si2 0.245477 0.202946 0.272523
Si Si3 0.768631 0.534798 0.200378
Si Si4 0.251538 0.156750 0.913601
Si Si5 0.750968 0.171277 0.948565
Si Si6 0.271798 0.472337 0.199274
O O1 0.754869 0.325710 0.777464
O O2 0.774881 0.359826 0.862713
O O3 0.000000 0.250000 0.831183
O O4 0.150111 0.385217 0.806714
O O5 0.500000 0.250000 0.279106
O O6 0.226368 0.124906 0.298521
O O7 0.000000 0.250000 0.279559
O O8 0.757541 0.500000 0.250000
O O9 0.511714 0.511772 0.179872
O O10 0.013568 0.498710 0.181122
O O11 0.505552 0.129891 0.933583
O O12 0.251487 0.247237 0.924338
O O13 0.000515 0.130408 0.935637
O O14 0.750000 0.185947 0.000000
O O15 0.261937 0.500000 0.250000
#
# Coordination Sequence:
#
# PCOD9333019 Si02
#       6
#     8   8   8   8   8   8
#     4  11  22  32  46  68  93 110 148 204 245 279
#     4  11  23  32  49  66  84 110 143 197 244 279
#     4  10  19  35  45  60  81 111 150 167 228 308
#     4  10  19  29  42  64  82 108 142 183 232 274
#     4  10  18  32  45  59  84 116 144 174 233 298
#     4  10  20  34  46  59  82 122 145 176 233 307
#
# _framework density 16.046488
#
# number of rings (size 3 to 8) (size 9 to 14) (size 15 to 20)
#    0.000    1.667    5.000    3.500    9.333    1.333 
#    0.000    0.000    0.000    0.000    0.000    0.000 
#    0.000    0.000    0.000    0.000    0.000    0.000 
#
# Total GULP energy -133657.665969 kJ/mol
# GULP energy per Si atom -5569.069415 kJ/mol
# Density = 1.600997 g / cm^3
# Si number density = 16.046488 Si / 1000 Ang^3
#
#
#
# Elastic Constant Matrix: (Units=GPa)
#
#
# Indices 1 2 3 4 5 6 
#
# 1 156.0817 36.5939 14.9641 0.0000 0.0000 0.0000
# 2 36.5939 79.8041 18.8455 0.0000 0.0000 0.0000
# 3 14.9641 18.8455 32.1029 0.0000 0.0000 0.0000
# 4 0.0000 0.0000 0.0000 5.4198 0.0000 0.0000
# 5 0.0000 0.0000 0.0000 0.0000 15.6932 0.0000
# 6 0.0000 0.0000 0.0000 0.0000 0.0000 -71.8516
#
#
#
# Elastic Compliance Matrix: (Units=1/GPa)
#
#
# Indices 1 2 3 4 5 6 
#
# 1 0.007254 -0.002935 -0.001659 0.000000 0.000000 0.000000
# 2 -0.002935 0.015735 -0.007869 0.000000 0.000000 0.000000
# 3 -0.001659 -0.007869 0.036542 0.000000 0.000000 0.000000
# 4 0.000000 0.000000 0.000000 0.184508 0.000000 0.000000
# 5 0.000000 0.000000 0.000000 0.000000 0.063722 0.000000
# 6 0.000000 0.000000 0.000000 0.000000 0.000000 -0.013918
#
#
# Mechanical properties :
#
#
# Convention : Reuss Voigt Hill
#
# Bulk Modulus (GPa) = 28.89612 45.42175 37.15893
# Shear Modulus (GPa) = 15.13762 3.02461 9.08111
#
# Velocity S-wave (km/s) = 3.07475 1.37441 2.38150
# Velocity P-wave (km/s) = 5.53645 5.55756 5.54701
#
# Compressibility (1/GPa) = 0.03460672
#
# Stress axis : x y z
#
# Youngs Moduli (GPa) = 137.85602 63.55446 27.36564
#
# Poissons Ratio (x) = 0.18651 0.04539
# Poissons Ratio (y) = 0.40455 0.21533
# Poissons Ratio (z) = 0.22864 0.50010
#
# Static dielectric constant tensor:
#      x y z
#    x 1.650200 0.000000 0.000000 
#    y 0.000000 1.568940 0.000000 
#    z 0.000000 0.000000 1.526300 
# 
# From -- ./inp_files/4933.got.cif
#   From: 2010.05.17/outbox.cif.g08.bks.cpg/sg24_3_cif.got.tgz:4933.got - 2010.06.04 00:33:39.
