data_PCOD9333084
_publ_section_title
;
Structure prediction by ZEFSAII (Michael W. Deem and Ramdas Pophale) SiO2 
 PCOD9333084
Probable space group: I 21 21 21
;
_chemical_formula_sum "Si O2"
_cell_formula_units_Z 44
_cell_length_a 30.048593
_cell_length_b 13.565414
_cell_length_c 5.116424
_cell_angle_alpha 90.000000
_cell_angle_beta 90.000000
_cell_angle_gamma 90.000000
_cell_volume 2085.564958
_symmetry_space_group_name_H-M "I 21 21 21"
_symmetry_group_IT_number 24
_symmetry_cell_setting 'orthorhombic'
loop_
_space_group_symop_operation_xyz
x,y,z
-x,1/2-y,z
x,-y,1/2-z
1/2-x,y,-z
1/2+x,1/2+y,1/2+z
1/2-x,-y,1/2+z
1/2+x,1/2-y,-z
-x,1/2+y,1/2-z
loop_
_atom_site_type_symbol
_atom_site_label
_atom_site_fract_x
_atom_site_fract_y
_atom_site_fract_z
Si Si1 0.865792 0.000000 0.750000
Si Si2 0.200946 0.639733 0.583224
Si Si3 0.016522 0.929966 0.999106
Si Si4 0.883763 0.430533 0.504140
Si Si5 0.838252 0.767145 0.113720
Si Si6 0.922394 0.891743 0.107143
O O1 0.832309 0.952724 0.541671
O O2 0.899295 0.085204 0.668898
O O3 0.250000 0.606871 0.500000
O O4 0.190175 0.724994 0.376072
O O5 0.188058 0.675780 0.877835
O O6 0.006282 0.000000 0.750000
O O7 0.065795 0.887232 0.960630
O O8 0.973497 0.863538 0.062083
O O9 0.020588 0.000000 0.250000
O O10 0.882473 0.500000 0.250000
O O11 0.849705 0.341529 0.480055
O O12 0.875372 0.500000 0.750000
O O13 0.886202 0.814131 0.205280
O O14 0.921883 0.000000 0.250000
#
# Coordination Sequence:
#
# PCOD9333084 Si02
#       6
#     4   8   8   8   8   8
#     4  10  20  34  58  84 124 166 188 224 284 364
#     4  11  24  40  60  89 123 155 200 247 300 366
#     4   9  18  31  54  81 118 158 192 242 284 341
#     4  10  21  40  61  86 115 156 207 253 306 350
#     4  11  23  38  63  87 117 161 199 251 305 359
#     4  10  18  33  54  85 127 156 195 225 288 356
#
# _framework density 21.097401999999999
#
# number of rings (size 3 to 8) (size 9 to 14) (size 15 to 20)
#    0.000    1.818    2.727    1.636    0.000    3.636 
#    0.000    0.000    0.000   19.636    0.000    0.000 
#    0.000    0.000    0.000    0.000    0.000    0.000 
#
# Total GULP energy -122477.921776 kJ/mol
# GULP energy per Si atom -5567.178263 kJ/mol
# Density = 2.104938 g / cm^3
# Si number density = 21.097402 Si / 1000 Ang^3
#
#
#
# Elastic Constant Matrix: (Units=GPa)
#
#
# Indices 1 2 3 4 5 6 
#
# 1 59.0917 15.9041 11.7168 -0.0003 0.0000 -0.0001
# 2 15.9041 51.5514 16.8713 -0.0004 0.0001 -0.0001
# 3 11.7168 16.8713 106.9209 -0.0021 0.0008 -0.0003
# 4 -0.0003 -0.0004 -0.0021 23.6790 0.0004 -0.0002
# 5 0.0000 0.0001 0.0008 0.0004 25.4516 0.0001
# 6 -0.0001 -0.0001 -0.0003 -0.0002 0.0001 19.5385
#
#
#
# Elastic Compliance Matrix: (Units=1/GPa)
#
#
# Indices 1 2 3 4 5 6 
#
# 1 0.018599 -0.005347 -0.001194 0.000000 0.000000 0.000000
# 2 -0.005347 0.021992 -0.002884 0.000000 0.000000 0.000000
# 3 -0.001194 -0.002884 0.009939 0.000001 0.000000 0.000000
# 4 0.000000 0.000000 0.000001 0.042231 -0.000001 0.000000
# 5 0.000000 0.000000 0.000000 -0.000001 0.039290 0.000000
# 6 0.000000 0.000000 0.000000 0.000000 0.000000 0.051181
#
#
# Mechanical properties :
#
#
# Convention : Reuss Voigt Hill
#
# Bulk Modulus (GPa) = 31.56770 34.06093 32.81432
# Shear Modulus (GPa) = 23.51364 25.27193 24.39279
#
# Velocity S-wave (km/s) = 3.34208 3.46478 3.40398
# Velocity P-wave (km/s) = 5.46699 5.67326 5.57108
#
# Compressibility (1/GPa) = 0.03167795
#
# Stress axis : x y z
#
# Youngs Moduli (GPa) = 53.76690 45.47182 100.61683
#
# Poissons Ratio (x) = 0.24314 0.12018
# Poissons Ratio (y) = 0.28749 0.29020
# Poissons Ratio (z) = 0.06422 0.13115
#
# Static dielectric constant tensor:
#      x y z
#    x 1.807110 0.000000 0.000000 
#    y 0.000000 1.770190 0.000000 
#    z 0.000000 0.000000 1.807120 
# 
# From -- ./inp_files/7053.got.cif
#   From: 2010.05.17/outbox.cif.g08.bks.cpg/sg24_4_cif.got.tgz:7053.got - 2010.06.04 00:33:39.
