data_PCOD9333939
_publ_section_title
;
Structure prediction by ZEFSAII (Michael W. Deem and Ramdas Pophale) SiO2 
 PCOD9333939
Probable space group: I 21 21 21
;
_chemical_formula_sum "Si O2"
_cell_formula_units_Z 64
_cell_length_a 17.446794
_cell_length_b 13.452587
_cell_length_c 15.089194
_cell_angle_alpha 90.000000
_cell_angle_beta 90.000000
_cell_angle_gamma 90.000000
_cell_volume 3541.501947
_symmetry_space_group_name_H-M "I 21 21 21"
_symmetry_group_IT_number 24
_symmetry_cell_setting 'orthorhombic'
loop_
_space_group_symop_operation_xyz
x,y,z
-x,1/2-y,z
x,-y,1/2-z
1/2-x,y,-z
1/2+x,1/2+y,1/2+z
1/2-x,-y,1/2+z
1/2+x,1/2-y,-z
-x,1/2+y,1/2-z
loop_
_atom_site_type_symbol
_atom_site_label
_atom_site_fract_x
_atom_site_fract_y
_atom_site_fract_z
Si Si1 0.494136 0.500000 0.355760
Si Si2 0.810808 0.000000 0.855778
Si Si3 0.298674 0.281942 0.146990
Si Si4 0.431989 0.178260 0.465992
Si Si5 0.701326 0.218058 0.353010
Si Si6 0.196004 0.891010 0.412637
Si Si7 0.931989 0.321740 0.965992
Si Si8 0.196004 0.891010 0.087363
O O1 0.506289 0.500000 0.250000
O O2 0.402582 0.500000 0.371868
O O3 0.533083 0.404907 0.401195
O O4 0.533083 0.595093 0.401195
O O5 0.778918 0.106750 0.886256
O O6 0.798496 0.000000 0.750000
O O7 0.778918 0.893250 0.886256
O O8 0.322688 0.288447 0.250000
O O9 0.229992 0.202612 0.139468
O O10 0.368763 0.240139 0.089237
O O11 0.500000 0.250000 0.494750
O O12 0.368763 0.240138 0.410763
O O13 0.387919 0.129455 0.548528
O O14 0.770009 0.297388 0.360532
O O15 0.250000 0.895802 0.500000
O O16 0.112081 0.870545 0.451472
O O17 0.201173 0.000000 0.369084
O O18 0.000000 0.250000 0.994750
O O19 0.250000 0.895802 0.000000
#
# Coordination Sequence:
#
# PCOD9333939 Si02
#       8
#     8   8   8   8   8   8   8   8
#     4  11  20  30  48  78 111 140 167 206 262 318
#     4   9  18  32  48  75 111 135 162 210 261 312
#     4  10  20  33  52  77 104 138 175 215 260 309
#     4  11  20  33  52  76 107 138 172 211 263 314
#     4  10  20  33  52  77 104 138 175 215 260 309
#     4   9  19  35  50  71 104 140 175 214 256 302
#     4  11  20  33  52  76 107 138 172 211 263 314
#     4   9  19  35  50  71 104 140 175 214 256 302
#
# _framework density 18.071428000000001
#
# number of rings (size 3 to 8) (size 9 to 14) (size 15 to 20)
#    0.000    2.000    3.750    0.750    1.750    1.500 
#    0.000    6.875    0.000    0.750    0.000    0.000 
#    0.000    0.000    0.000    0.000    0.000    0.000 
#
# Total GULP energy -178359.294285 kJ/mol
# GULP energy per Si atom -5573.727946 kJ/mol
# Density = 1.803030 g / cm^3
# Si number density = 18.071428 Si / 1000 Ang^3
#
#
#
# Elastic Constant Matrix: (Units=GPa)
#
#
# Indices 1 2 3 4 5 6 
#
# 1 69.1383 43.2554 5.6309 0.0000 0.0000 0.0000
# 2 43.2554 178.6530 15.6038 0.0000 0.0000 0.0000
# 3 5.6309 15.6038 15.5594 0.0000 0.0000 0.0000
# 4 0.0000 0.0000 0.0000 55.1644 0.0000 0.0000
# 5 0.0000 0.0000 0.0000 0.0000 22.6452 0.0000
# 6 0.0000 0.0000 0.0000 0.0000 0.0000 25.7725
#
#
#
# Elastic Compliance Matrix: (Units=1/GPa)
#
#
# Indices 1 2 3 4 5 6 
#
# 1 0.017116 -0.003949 -0.002234 0.000000 0.000000 0.000000
# 2 -0.003949 0.007046 -0.005637 0.000000 0.000000 0.000000
# 3 -0.002234 -0.005637 0.070731 0.000000 0.000000 0.000000
# 4 0.000000 0.000000 0.000000 0.018128 0.000000 0.000000
# 5 0.000000 0.000000 0.000000 0.000000 0.044159 0.000000
# 6 0.000000 0.000000 0.000000 0.000000 0.000000 0.038801
#
#
# Mechanical properties :
#
#
# Convention : Reuss Voigt Hill
#
# Bulk Modulus (GPa) = 14.03434 43.59232 28.81333
# Shear Modulus (GPa) = 20.54457 33.97379 27.25918
#
# Velocity S-wave (km/s) = 3.37538 4.34057 3.88804
# Velocity P-wave (km/s) = 4.79310 7.02106 6.01120
#
# Compressibility (1/GPa) = 0.07125380
#
# Stress axis : x y z
#
# Youngs Moduli (GPa) = 58.42349 141.92599 14.13798
#
# Poissons Ratio (x) = 0.56048 0.03158
# Poissons Ratio (y) = 0.23072 0.07969
# Poissons Ratio (z) = 0.13052 0.80002
#
# Static dielectric constant tensor:
#      x y z
#    x 1.603920 0.000000 0.000000 
#    y 0.000000 1.688640 0.000000 
#    z 0.000000 0.000000 1.606580 
# 
# From -- ./inp_files/31246.got.cif
#   From: 2010.05.17/outbox.cif.g08.bks.cpg/sg24_16_cif.got.tgz:31246.got - 2010.06.04 00:33:39.
