data_PCOD9333724
_publ_section_title
;
Structure prediction by ZEFSAII (Michael W. Deem and Ramdas Pophale) SiO2 
 PCOD9333724
Probable space group: I 21 21 21
;
_chemical_formula_sum "Si O2"
_cell_formula_units_Z 60
_cell_length_a 22.081204
_cell_length_b 13.754472
_cell_length_c 11.311979
_cell_angle_alpha 90.000000
_cell_angle_beta 90.000000
_cell_angle_gamma 90.000000
_cell_volume 3435.621120
_symmetry_space_group_name_H-M "I 21 21 21"
_symmetry_group_IT_number 24
_symmetry_cell_setting 'orthorhombic'
loop_
_space_group_symop_operation_xyz
x,y,z
-x,1/2-y,z
x,-y,1/2-z
1/2-x,y,-z
1/2+x,1/2+y,1/2+z
1/2-x,-y,1/2+z
1/2+x,1/2-y,-z
-x,1/2+y,1/2-z
loop_
_atom_site_type_symbol
_atom_site_label
_atom_site_fract_x
_atom_site_fract_y
_atom_site_fract_z
Si Si1 0.675023 0.392260 0.302028
Si Si2 0.000000 0.250000 0.389741
Si Si3 0.973428 0.641350 0.471987
Si Si4 0.953143 0.338253 0.757039
Si Si5 0.109216 0.818391 0.258181
Si Si6 0.843573 0.544172 0.052257
Si Si7 0.981805 0.553582 0.966715
Si Si8 0.779833 0.660604 0.379441
O O1 0.659929 0.500000 0.250000
O O2 0.614985 0.326434 0.291561
O O3 0.689632 0.406910 0.439898
O O4 0.729138 0.353880 0.220657
O O5 0.061418 0.246268 0.312864
O O6 0.999882 0.151776 0.466170
O O7 0.944590 0.643508 0.603566
O O8 0.932500 0.628308 0.355635
O O9 0.014516 0.544440 0.487949
O O10 0.000000 0.750000 0.457680
O O11 0.981661 0.419965 0.671103
O O12 0.000000 0.250000 0.747155
O O13 0.143597 0.889210 0.166170
O O14 0.164548 0.774437 0.332783
O O15 0.809682 0.445060 0.087983
O O16 0.911626 0.532550 0.000714
O O17 0.750000 0.696915 0.500000
#
# Coordination Sequence:
#
# PCOD9333724 Si02
#       8
#     8   4   8   8   8   8   8   8
#     4  11  20  33  50  78 113 150 198 232 289 368
#     4  10  22  36  56  76 110 162 208 234 280 360
#     4  11  21  34  54  82 115 148 188 248 298 348
#     4  10  20  35  56  80 114 156 199 240 284 351
#     4  11  22  36  49  78 112 157 195 241 288 352
#     4  10  21  31  50  71 109 155 189 230 278 356
#     4  10  19  37  56  79 110 158 193 240 292 345
#     4  12  22  32  51  79 115 158 193 235 300 368
#
# _framework density 17.464092000000001
#
# number of rings (size 3 to 8) (size 9 to 14) (size 15 to 20)
#    0.000    1.333    4.000    4.000    1.867    0.000 
#    0.000    0.000    0.000    0.000    0.000    0.000 
#    0.000   19.200    0.267    0.000    0.000    0.000 
#
# Total GULP energy -167029.399575 kJ/mol
# GULP energy per Si atom -5567.646652 kJ/mol
# Density = 1.742434 g / cm^3
# Si number density = 17.464092 Si / 1000 Ang^3
#
#
#
# Elastic Constant Matrix: (Units=GPa)
#
#
# Indices 1 2 3 4 5 6 
#
# 1 75.8199 26.4630 32.8480 0.0000 0.0000 0.0000
# 2 26.4630 74.0112 33.9768 0.0000 0.0000 0.0000
# 3 32.8480 33.9768 136.1381 0.0000 0.0000 0.0000
# 4 0.0000 0.0000 0.0000 20.0602 0.0000 0.0000
# 5 0.0000 0.0000 0.0000 0.0000 26.9590 0.0000
# 6 0.0000 0.0000 0.0000 0.0000 0.0000 24.4192
#
#
#
# Elastic Compliance Matrix: (Units=1/GPa)
#
#
# Indices 1 2 3 4 5 6 
#
# 1 0.015923 -0.004438 -0.002734 0.000000 0.000000 0.000000
# 2 -0.004438 0.016497 -0.003046 0.000000 0.000000 0.000000
# 3 -0.002734 -0.003046 0.008766 0.000000 0.000000 0.000000
# 4 0.000000 0.000000 0.000000 0.049850 0.000000 0.000000
# 5 0.000000 0.000000 0.000000 0.000000 0.037093 0.000000
# 6 0.000000 0.000000 0.000000 0.000000 0.000000 0.040951
#
#
# Mechanical properties :
#
#
# Convention : Reuss Voigt Hill
#
# Bulk Modulus (GPa) = 48.19804 52.50498 50.35151
# Shear Modulus (GPa) = 25.45396 27.13310 26.29353
#
# Velocity S-wave (km/s) = 3.82187 3.94591 3.88439
# Velocity P-wave (km/s) = 6.86541 7.13373 7.00086
#
# Compressibility (1/GPa) = 0.02074773
#
# Stress axis : x y z
#
# Youngs Moduli (GPa) = 62.80339 60.61779 114.08326
#
# Poissons Ratio (x) = 0.26902 0.31194
# Poissons Ratio (y) = 0.27872 0.34754
# Poissons Ratio (z) = 0.17172 0.18467
#
# Static dielectric constant tensor:
#      x y z
#    x 1.645690 0.000000 0.000000 
#    y 0.000000 1.638780 0.000000 
#    z 0.000000 0.000000 1.665790 
# 
# From -- ./inp_files/22323.got.cif
#   From: 2010.05.17/outbox.cif.g08.bks.cpg/sg24_12_cif.got.tgz:22323.got - 2010.06.04 00:33:39.
