data_PCOD9333278
_publ_section_title
;
Structure prediction by ZEFSAII (Michael W. Deem and Ramdas Pophale) SiO2 
 PCOD9333278
Probable space group: I 21 21 21
;
_chemical_formula_sum "Si O2"
_cell_formula_units_Z 52
_cell_length_a 8.223059
_cell_length_b 16.111722
_cell_length_c 18.968050
_cell_angle_alpha 90.000000
_cell_angle_beta 90.000000
_cell_angle_gamma 90.000000
_cell_volume 2513.032191
_symmetry_space_group_name_H-M "I 21 21 21"
_symmetry_group_IT_number 24
_symmetry_cell_setting 'orthorhombic'
loop_
_space_group_symop_operation_xyz
x,y,z
-x,1/2-y,z
x,-y,1/2-z
1/2-x,y,-z
1/2+x,1/2+y,1/2+z
1/2-x,-y,1/2+z
1/2+x,1/2-y,-z
-x,1/2+y,1/2-z
loop_
_atom_site_type_symbol
_atom_site_label
_atom_site_fract_x
_atom_site_fract_y
_atom_site_fract_z
Si Si1 0.123021 0.826842 0.936514
Si Si2 0.620397 0.171685 0.061444
Si Si3 0.828520 0.069702 0.309023
Si Si4 0.939271 0.994112 0.897378
Si Si5 0.823719 0.793249 0.720449
Si Si6 0.123924 0.000000 0.750000
Si Si7 0.331974 0.154819 0.702103
O O1 0.228137 0.817106 0.865364
O O2 0.000000 0.750000 0.943242
O O3 0.026365 0.914054 0.930544
O O4 0.250000 0.828828 0.000000
O O5 0.500000 0.250000 0.055942
O O6 0.694435 0.177485 0.140319
O O7 0.545041 0.079012 0.059062
O O8 0.750000 0.178840 0.000000
O O9 0.747101 0.029767 0.378036
O O10 0.694982 0.131073 0.274507
O O11 0.990676 0.123322 0.320233
O O12 0.863776 0.000000 0.250000
O O13 0.020315 0.011619 0.820904
O O14 0.685164 0.728129 0.741731
O O15 0.000000 0.750000 0.727755
O O16 0.237867 0.078296 0.736827
#
# Coordination Sequence:
#
# PCOD9333278 Si02
#       7
#     8   8   8   8   8   4   8
#     4  11  27  47  69 101 136 183 229 283 347 424
#     4  11  25  43  62  91 128 176 223 271 327 400
#     4  12  22  39  65 105 134 165 220 292 330 403
#     4  11  22  43  70  93 137 179 222 279 351 406
#     4  11  22  42  67  95 130 178 221 270 341 405
#     4  10  18  38  66  98 128 164 222 276 328 410
#     4  11  23  39  68 102 134 171 221 280 344 398
#
# _framework density 20.692136000000001
#
# number of rings (size 3 to 8) (size 9 to 14) (size 15 to 20)
#    0.000    0.923    3.077    5.538    0.000    6.154 
#    0.000    0.000    0.000    0.000    0.000    0.000 
#    0.000    0.000    0.000    0.000    0.000    0.000 
#
# Total GULP energy -145419.345176 kJ/mol
# GULP energy per Si atom -5593.051738 kJ/mol
# Density = 2.064504 g / cm^3
# Si number density = 20.692136 Si / 1000 Ang^3
#
#
#
# Elastic Constant Matrix: (Units=GPa)
#
#
# Indices 1 2 3 4 5 6 
#
# 1 114.2749 60.5555 36.2310 0.0000 0.0000 0.0000
# 2 60.5555 140.7299 58.0150 0.0000 0.0000 0.0000
# 3 36.2310 58.0150 66.3939 0.0000 0.0000 0.0000
# 4 0.0000 0.0000 0.0000 18.7662 0.0000 0.0000
# 5 0.0000 0.0000 0.0000 0.0000 27.4643 0.0000
# 6 0.0000 0.0000 0.0000 0.0000 0.0000 37.4489
#
#
#
# Elastic Compliance Matrix: (Units=1/GPa)
#
#
# Indices 1 2 3 4 5 6 
#
# 1 0.011733 -0.003766 -0.003112 0.000000 0.000000 0.000000
# 2 -0.003766 0.012315 -0.008706 0.000000 0.000000 0.000000
# 3 -0.003112 -0.008706 0.024367 0.000000 0.000000 0.000000
# 4 0.000000 0.000000 0.000000 0.053287 0.000000 0.000000
# 5 0.000000 0.000000 0.000000 0.000000 0.036411 0.000000
# 6 0.000000 0.000000 0.000000 0.000000 0.000000 0.026703
#
#
# Mechanical properties :
#
#
# Convention : Reuss Voigt Hill
#
# Bulk Modulus (GPa) = 57.97920 70.11131 64.04525
# Shear Modulus (GPa) = 24.78508 27.84235 26.31372
#
# Velocity S-wave (km/s) = 3.46468 3.67216 3.56993
# Velocity P-wave (km/s) = 6.63974 7.20668 6.92901
#
# Compressibility (1/GPa) = 0.01724756
#
# Stress axis : x y z
#
# Youngs Moduli (GPa) = 85.22940 81.20042 41.03845
#
# Poissons Ratio (x) = 0.30577 0.12772
# Poissons Ratio (y) = 0.32095 0.35729
# Poissons Ratio (z) = 0.26525 0.70694
#
# Static dielectric constant tensor:
#      x y z
#    x 1.752610 0.000000 0.000000 
#    y 0.000000 1.781120 0.000000 
#    z 0.000000 0.000000 1.714280 
# 
# From -- ./inp_files/32782.got.cif
#   From: 2010.05.17/outbox.cif.g08.bks.cpg/sg24_17_cif.got.tgz:32782.got - 2010.06.04 00:33:39.
