data_PCOD9333582
_publ_section_title
;
Structure prediction by ZEFSAII (Michael W. Deem and Ramdas Pophale) SiO2 
 PCOD9333582
Probable space group: I 21 21 21
;
_chemical_formula_sum "Si O2"
_cell_formula_units_Z 44
_cell_length_a 9.028065
_cell_length_b 27.456981
_cell_length_c 7.800775
_cell_angle_alpha 90.000000
_cell_angle_beta 90.000000
_cell_angle_gamma 90.000000
_cell_volume 1933.682701
_symmetry_space_group_name_H-M "I 21 21 21"
_symmetry_group_IT_number 24
_symmetry_cell_setting 'orthorhombic'
loop_
_space_group_symop_operation_xyz
x,y,z
-x,1/2-y,z
x,-y,1/2-z
1/2-x,y,-z
1/2+x,1/2+y,1/2+z
1/2-x,-y,1/2+z
1/2+x,1/2-y,-z
-x,1/2+y,1/2-z
loop_
_atom_site_type_symbol
_atom_site_label
_atom_site_fract_x
_atom_site_fract_y
_atom_site_fract_z
Si Si1 0.172667 0.348897 0.319008
Si Si2 0.334313 0.050335 0.317151
Si Si3 0.234648 0.198697 0.697114
Si Si4 0.500000 0.750000 0.737704
Si Si5 0.908888 0.393325 0.186092
Si Si6 0.013776 0.639532 0.687535
O O1 0.250000 0.350993 0.500000
O O2 0.311737 0.351032 0.190609
O O3 0.068425 0.300572 0.315188
O O4 0.063890 0.393844 0.283202
O O5 0.250000 0.049303 0.500000
O O6 0.195412 0.060497 0.188094
O O7 0.457866 0.093253 0.300254
O O8 0.402111 0.000000 0.250000
O O9 0.250000 0.216360 0.500000
O O10 0.340712 0.229468 0.822763
O O11 0.305442 0.145095 0.712922
O O12 0.066442 0.188875 0.747077
O O13 0.949528 0.372612 0.999959
#
# Coordination Sequence:
#
# PCOD9333582 Si02
#       6
#     8   8   8   4   8   8
#     4  11  22  39  59  83 115 156 201 248 296 353
#     4  11  21  38  64  94 122 155 195 240 289 352
#     4  10  19  35  55  79 109 149 195 242 291 350
#     4  10  22  36  56  84 112 148 204 250 292 352
#     4  10  21  38  57  85 117 154 193 238 298 355
#     4  11  21  37  60  85 117 155 193 243 298 352
#
# _framework density 22.754511000000001
#
# number of rings (size 3 to 8) (size 9 to 14) (size 15 to 20)
#    0.000    1.455    0.000    9.818    0.000    0.727 
#    0.000   15.455    0.000    2.182    0.000    0.000 
#    0.000    0.000    0.000    0.000    0.000    0.000 
#
# Total GULP energy -122481.140814 kJ/mol
# GULP energy per Si atom -5567.324582 kJ/mol
# Density = 2.270272 g / cm^3
# Si number density = 22.754511 Si / 1000 Ang^3
#
#
#
# Elastic Constant Matrix: (Units=GPa)
#
#
# Indices 1 2 3 4 5 6 
#
# 1 127.2685 16.0979 15.8334 0.0005 -0.0005 0.0002
# 2 16.0979 60.2740 6.9232 0.0010 -0.0002 0.0001
# 3 15.8334 6.9232 104.7405 0.0068 0.0017 0.0008
# 4 0.0005 0.0010 0.0068 0.2266 -0.0004 -0.0006
# 5 -0.0005 -0.0002 0.0017 -0.0004 32.4668 0.0004
# 6 0.0002 0.0001 0.0008 -0.0006 0.0004 27.3215
#
#
#
# Elastic Compliance Matrix: (Units=1/GPa)
#
#
# Indices 1 2 3 4 5 6 
#
# 1 0.008258 -0.002078 -0.001111 0.000023 0.000000 0.000000
# 2 -0.002078 0.017241 -0.000825 -0.000046 0.000000 0.000000
# 3 -0.001111 -0.000825 0.009770 -0.000287 -0.000001 0.000000
# 4 0.000023 -0.000046 -0.000287 4.412574 0.000048 0.000099
# 5 0.000000 0.000000 -0.000001 0.000048 0.030801 0.000000
# 6 0.000000 0.000000 0.000000 0.000099 0.000000 0.036601
#
#
# Mechanical properties :
#
#
# Convention : Reuss Voigt Hill
#
# Bulk Modulus (GPa) = 36.71070 41.11023 38.91047
# Shear Modulus (GPa) = 1.10318 28.89822 15.00070
#
# Velocity S-wave (km/s) = 0.69704 3.56757 2.57035
# Velocity P-wave (km/s) = 4.10076 5.92251 5.09374
#
# Compressibility (1/GPa) = 0.02724002
#
# Stress axis : x y z
#
# Youngs Moduli (GPa) = 121.08772 58.00220 102.35478
#
# Poissons Ratio (x) = 0.12053 0.11372
# Poissons Ratio (y) = 0.25163 0.08449
# Poissons Ratio (z) = 0.13454 0.04788
#
# Static dielectric constant tensor:
#      x y z
#    x 1.908630 0.000000 0.000010 
#    y 0.000000 1.913890 0.000000 
#    z 0.000010 0.000000 1.989610 
# 
# From -- ./inp_files/9639.got.cif
#   From: 2010.05.17/outbox.cif.g08.bks.cpg/sg24_5_cif.got.tgz:9639.got - 2010.06.04 00:33:39.
