data_PCOD9333575
_publ_section_title
;
Structure prediction by ZEFSAII (Michael W. Deem and Ramdas Pophale) SiO2 
 PCOD9333575
Probable space group: I 21 21 21
;
_chemical_formula_sum "Si O2"
_cell_formula_units_Z 60
_cell_length_a 9.062478
_cell_length_b 23.303604
_cell_length_c 15.699693
_cell_angle_alpha 90.000000
_cell_angle_beta 90.000000
_cell_angle_gamma 90.000000
_cell_volume 3315.593023
_symmetry_space_group_name_H-M "I 21 21 21"
_symmetry_group_IT_number 24
_symmetry_cell_setting 'orthorhombic'
loop_
_space_group_symop_operation_xyz
x,y,z
-x,1/2-y,z
x,-y,1/2-z
1/2-x,y,-z
1/2+x,1/2+y,1/2+z
1/2-x,-y,1/2+z
1/2+x,1/2-y,-z
-x,1/2+y,1/2-z
loop_
_atom_site_type_symbol
_atom_site_label
_atom_site_fract_x
_atom_site_fract_y
_atom_site_fract_z
Si Si1 0.468297 0.078152 0.367883
Si Si2 0.750000 0.951885 0.500000
Si Si3 0.223841 0.635194 0.652438
Si Si4 0.299343 0.561260 0.800293
Si Si5 0.879565 0.636231 0.704909
Si Si6 0.995873 0.536703 0.043049
Si Si7 0.263318 0.018734 0.839185
Si Si8 0.825101 0.740490 0.588342
O O1 0.637929 0.070623 0.341435
O O2 0.393326 0.126121 0.306956
O O3 0.454267 0.082111 0.469900
O O4 0.383313 0.019763 0.343788
O O5 0.741784 0.911027 0.580593
O O6 0.608033 0.992368 0.498701
O O7 0.315365 0.613281 0.733591
O O8 0.246074 0.699360 0.618365
O O9 0.049237 0.630669 0.673727
O O10 0.300912 0.500000 0.750000
O O11 0.417085 0.561732 0.876005
O O12 0.782702 0.584397 0.667199
O O13 0.818461 0.694751 0.665149
O O14 0.862166 0.500456 0.082101
O O15 0.339104 0.000000 0.750000
O O16 0.750000 0.721233 0.500000
O O17 0.000000 0.750000 0.571949
#
# Coordination Sequence:
#
# PCOD9333575 Si02
#       8
#     8   4   8   8   8   8   8   8
#     4  10  19  35  52  75 109 149 186 224 280 340
#     4  12  20  30  50  78 118 144 174 220 292 334
#     4  10  20  34  54  77 112 150 183 234 279 343
#     4  11  18  32  51  77 113 146 181 226 281 341
#     4   9  20  37  56  74 107 152 191 224 279 339
#     4  12  21  31  52  86 112 143 189 227 281 340
#     4  10  21  34  51  79 111 142 178 227 279 336
#     4  10  21  38  57  82 107 149 197 232 282 342
#
# _framework density 18.096311
#
# number of rings (size 3 to 8) (size 9 to 14) (size 15 to 20)
#    0.000    1.600    3.333    3.600    0.000    3.200 
#    0.000    0.000    0.000    0.000    0.000   35.467 
#    0.000    0.000    0.000    0.000    0.000    0.000 
#
# Total GULP energy -167355.547460 kJ/mol
# GULP energy per Si atom -5578.518249 kJ/mol
# Density = 1.805512 g / cm^3
# Si number density = 18.096311 Si / 1000 Ang^3
#
#
#
# Elastic Constant Matrix: (Units=GPa)
#
#
# Indices 1 2 3 4 5 6 
#
# 1 35.5094 10.9894 27.7698 0.0000 0.0000 0.0000
# 2 10.9894 69.0404 43.8239 0.0000 0.0000 0.0000
# 3 27.7698 43.8239 146.5772 0.0001 0.0000 0.0000
# 4 0.0000 0.0000 0.0001 27.3016 0.0000 0.0000
# 5 0.0000 0.0000 0.0000 0.0000 32.2973 0.0000
# 6 0.0000 0.0000 0.0000 0.0000 0.0000 11.1753
#
#
#
# Elastic Compliance Matrix: (Units=1/GPa)
#
#
# Indices 1 2 3 4 5 6 
#
# 1 0.033201 -0.001595 -0.005813 0.000000 0.000000 0.000000
# 2 -0.001595 0.017954 -0.005066 0.000000 0.000000 0.000000
# 3 -0.005813 -0.005066 0.009438 0.000000 0.000000 0.000000
# 4 0.000000 0.000000 0.000000 0.036628 0.000000 0.000000
# 5 0.000000 0.000000 0.000000 0.000000 0.030962 0.000000
# 6 0.000000 0.000000 0.000000 0.000000 0.000000 0.089483
#
#
# Mechanical properties :
#
#
# Convention : Reuss Voigt Hill
#
# Bulk Modulus (GPa) = 28.05387 46.25482 37.15434
# Shear Modulus (GPa) = 19.64667 25.39110 22.51889
#
# Velocity S-wave (km/s) = 3.29853 3.74987 3.53142
# Velocity P-wave (km/s) = 5.48117 6.66067 6.09950
#
# Compressibility (1/GPa) = 0.03564570
#
# Stress axis : x y z
#
# Youngs Moduli (GPa) = 30.11925 55.69922 105.95168
#
# Poissons Ratio (x) = 0.08882 0.61594
# Poissons Ratio (y) = 0.04803 0.53672
# Poissons Ratio (z) = 0.17510 0.28215
#
# Static dielectric constant tensor:
#      x y z
#    x 1.644460 0.000000 0.000000 
#    y 0.000000 1.596270 0.000000 
#    z 0.000000 0.000000 1.923810 
# 
# From -- ./inp_files/25179.got.cif
#   From: 2010.05.17/outbox.cif.g08.bks.cpg/sg24_13_cif.got.tgz:25179.got - 2010.06.04 00:33:39.
