data_PCOD9333732
_publ_section_title
;
Structure prediction by ZEFSAII (Michael W. Deem and Ramdas Pophale) SiO2 
 PCOD9333732
Probable space group: I 21 21 21
;
_chemical_formula_sum "Si O2"
_cell_formula_units_Z 48
_cell_length_a 16.232679
_cell_length_b 7.993739
_cell_length_c 16.846371
_cell_angle_alpha 90.000000
_cell_angle_beta 90.000000
_cell_angle_gamma 90.000000
_cell_volume 2185.981718
_symmetry_space_group_name_H-M "I 21 21 21"
_symmetry_group_IT_number 24
_symmetry_cell_setting 'orthorhombic'
loop_
_space_group_symop_operation_xyz
x,y,z
-x,1/2-y,z
x,-y,1/2-z
1/2-x,y,-z
1/2+x,1/2+y,1/2+z
1/2-x,-y,1/2+z
1/2+x,1/2-y,-z
-x,1/2+y,1/2-z
loop_
_atom_site_type_symbol
_atom_site_label
_atom_site_fract_x
_atom_site_fract_y
_atom_site_fract_z
Si Si1 0.278990 0.318702 0.618992
Si Si2 0.088214 0.793810 0.239647
Si Si3 0.633284 0.728644 0.593045
Si Si4 0.362942 0.540708 0.026017
Si Si5 0.215233 0.031300 0.909493
Si Si6 0.037500 0.930890 0.538434
O O1 0.342866 0.308021 0.690597
O O2 0.334121 0.322318 0.538310
O O3 0.204014 0.446937 0.597035
O O4 0.233534 0.144303 0.628299
O O5 0.088567 0.715891 0.327999
O O6 0.000000 0.750000 0.202398
O O7 0.099139 0.000000 0.250000
O O8 0.722324 0.668164 0.623920
O O9 0.576839 0.586811 0.550357
O O10 0.644752 0.869755 0.525824
O O11 0.459389 0.552511 0.046361
O O12 0.118152 0.051211 0.908691
O O13 0.250000 0.028216 0.000000
O O14 0.000000 0.750000 0.556811
#
# Coordination Sequence:
#
# PCOD9333732 Si02
#       6
#     8   8   8   8   8   8
#     4  11  24  39  60  95 135 176 223 287 335 401
#     4  12  27  44  65 102 145 187 224 273 358 439
#     4  10  22  41  66  93 138 182 215 271 349 434
#     4  10  22  40  60  97 130 169 234 284 333 390
#     4  10  19  37  59  92 125 172 219 268 344 389
#     4   9  20  35  65  95 122 166 224 280 326 395
#
# _framework density 21.958099000000001
#
# number of rings (size 3 to 8) (size 9 to 14) (size 15 to 20)
#    0.000    1.667    3.333    1.500   16.333    0.667 
#    0.000    0.000    0.000    0.000    8.667    0.000 
#    0.000    0.000    0.000    0.000    0.000    0.000 
#
# Total GULP energy -133647.302883 kJ/mol
# GULP energy per Si atom -5568.637620 kJ/mol
# Density = 2.190812 g / cm^3
# Si number density = 21.958099 Si / 1000 Ang^3
#
#
#
# Elastic Constant Matrix: (Units=GPa)
#
#
# Indices 1 2 3 4 5 6 
#
# 1 231.9561 46.7260 40.2462 0.0000 0.0000 0.0000
# 2 46.7260 70.1907 10.8361 0.0000 0.0000 0.0000
# 3 40.2462 10.8361 49.9900 0.0000 0.0000 0.0000
# 4 0.0000 0.0000 0.0000 8.9200 0.0000 0.0000
# 5 0.0000 0.0000 0.0000 0.0000 30.6074 0.0000
# 6 0.0000 0.0000 0.0000 0.0000 0.0000 42.3635
#
#
#
# Elastic Compliance Matrix: (Units=1/GPa)
#
#
# Indices 1 2 3 4 5 6 
#
# 1 0.005610 -0.003142 -0.003835 0.000000 0.000000 0.000000
# 2 -0.003142 0.016500 -0.001047 0.000000 0.000000 0.000000
# 3 -0.003835 -0.001047 0.023318 0.000000 0.000000 0.000000
# 4 0.000000 0.000000 0.000000 0.112107 0.000000 0.000000
# 5 0.000000 0.000000 0.000000 0.000000 0.032672 0.000000
# 6 0.000000 0.000000 0.000000 0.000000 0.000000 0.023605
#
#
# Mechanical properties :
#
#
# Convention : Reuss Voigt Hill
#
# Bulk Modulus (GPa) = 34.03683 60.86149 47.44916
# Shear Modulus (GPa) = 20.86337 33.33341 27.09839
#
# Velocity S-wave (km/s) = 3.08579 3.90044 3.51678
# Velocity P-wave (km/s) = 5.31324 6.93266 6.17626
#
# Compressibility (1/GPa) = 0.02937994
#
# Stress axis : x y z
#
# Youngs Moduli (GPa) = 178.26735 60.60491 42.88444
#
# Poissons Ratio (x) = 0.19043 0.16446
# Poissons Ratio (y) = 0.56016 0.04490
# Poissons Ratio (z) = 0.68366 0.06345
#
# Static dielectric constant tensor:
#      x y z
#    x 1.939100 0.000000 0.000000 
#    y 0.000000 1.973370 0.000000 
#    z 0.000000 0.000000 1.820150 
# 
# From -- ./inp_files/30725.got.cif
#   From: 2010.05.17/outbox.cif.g08.bks.cpg/sg24_16_cif.got.tgz:30725.got - 2010.06.04 00:33:39.
