data_PCOD9333155
_publ_section_title
;
Structure prediction by ZEFSAII (Michael W. Deem and Ramdas Pophale) SiO2 
 PCOD9333155
Probable space group: I 21 21 21
;
_chemical_formula_sum "Si O2"
_cell_formula_units_Z 40
_cell_length_a 8.769724
_cell_length_b 8.850258
_cell_length_c 25.005549
_cell_angle_alpha 90.000000
_cell_angle_beta 90.000000
_cell_angle_gamma 90.000000
_cell_volume 1940.788682
_symmetry_space_group_name_H-M "I 21 21 21"
_symmetry_group_IT_number 24
_symmetry_cell_setting 'orthorhombic'
loop_
_space_group_symop_operation_xyz
x,y,z
-x,1/2-y,z
x,-y,1/2-z
1/2-x,y,-z
1/2+x,1/2+y,1/2+z
1/2-x,-y,1/2+z
1/2+x,1/2-y,-z
-x,1/2+y,1/2-z
loop_
_atom_site_type_symbol
_atom_site_label
_atom_site_fract_x
_atom_site_fract_y
_atom_site_fract_z
Si Si1 0.000000 0.250000 0.684275
Si Si2 0.723895 0.335815 0.120085
Si Si3 0.922420 0.006250 0.899383
Si Si4 0.750000 0.035898 0.000000
Si Si5 0.282554 0.205971 0.760002
Si Si6 0.956180 0.000000 0.250000
Si Si7 0.500000 0.250000 0.946166
O O1 0.863405 0.294930 0.723157
O O2 0.065129 0.383252 0.646949
O O3 0.662771 0.162957 0.115689
O O4 0.597345 0.440397 0.092137
O O5 0.742690 0.366622 0.182805
O O6 0.886346 0.345085 0.091360
O O7 0.827014 0.948461 0.950587
O O8 0.887976 0.144206 0.019743
O O9 0.416568 0.117804 0.728546
O O10 0.343252 0.375051 0.774819
#
# Coordination Sequence:
#
# PCOD9333155 Si02
#       7
#     4   8   8   4   8   4   4
#     4  12  24  38  61  90 125 164 202 236 292 366
#     4  10  20  35  60  89 115 151 199 243 299 355
#     4  10  22  38  57  85 115 153 200 249 299 349
#     4  10  20  38  60  86 118 148 198 262 302 344
#     4  11  22  38  59  89 128 162 196 245 291 361
#     4  10  22  36  54  82 126 168 192 228 296 342
#     4  10  18  34  63  92 113 146 198 260 308 344
#
# _framework density 20.610178999999999
#
# number of rings (size 3 to 8) (size 9 to 14) (size 15 to 20)
#    0.000    1.600    0.000    7.200    0.000    4.000 
#    0.000    2.000    0.000    0.000    0.000    0.000 
#    0.000    0.000    0.000    0.000    0.000    0.000 
#
# Total GULP energy -111358.553818 kJ/mol
# GULP energy per Si atom -5567.927691 kJ/mol
# Density = 2.056327 g / cm^3
# Si number density = 20.610179 Si / 1000 Ang^3
#
#
#
# Elastic Constant Matrix: (Units=GPa)
#
#
# Indices 1 2 3 4 5 6 
#
# 1 142.0917 18.9479 63.8783 0.0000 0.0000 0.0000
# 2 18.9479 42.5417 6.3508 0.0000 0.0000 0.0000
# 3 63.8783 6.3508 102.6835 0.0000 0.0000 0.0000
# 4 0.0000 0.0000 0.0000 -34.6517 0.0000 0.0000
# 5 0.0000 0.0000 0.0000 0.0000 2.5612 0.0000
# 6 0.0000 0.0000 0.0000 0.0000 0.0000 21.0477
#
#
#
# Elastic Compliance Matrix: (Units=1/GPa)
#
#
# Indices 1 2 3 4 5 6 
#
# 1 0.010307 -0.003668 -0.006185 0.000000 0.000000 0.000000
# 2 -0.003668 0.025030 0.000733 0.000000 0.000000 0.000000
# 3 -0.006185 0.000733 0.013541 0.000000 0.000000 0.000000
# 4 0.000000 0.000000 0.000000 -0.028859 0.000000 0.000000
# 5 0.000000 0.000000 0.000000 0.000000 0.390436 0.000000
# 6 0.000000 0.000000 0.000000 0.000000 0.000000 0.047511
#
#
# Mechanical properties :
#
#
# Convention : Reuss Voigt Hill
#
# Bulk Modulus (GPa) = 32.63695 51.74122 42.18909
# Shear Modulus (GPa) = 10.27920 11.00079 10.63999
#
# Velocity S-wave (km/s) = 2.23568 2.31282 2.27458
# Velocity P-wave (km/s) = 4.74701 5.68255 5.23572
#
# Compressibility (1/GPa) = 0.03064012
#
# Stress axis : x y z
#
# Youngs Moduli (GPa) = 97.01758 39.95149 73.84923
#
# Poissons Ratio (x) = 0.14652 0.45678
# Poissons Ratio (y) = 0.35581 -0.05416
# Poissons Ratio (z) = 0.60008 -0.02930
#
# Static dielectric constant tensor:
#      x y z
#    x 1.737440 0.000000 0.000000 
#    y 0.000000 1.807640 0.000000 
#    z 0.000000 0.000000 1.765510 
# 
# From -- ./inp_files/9362.got.cif
#   From: 2010.05.17/outbox.cif.g08.bks.cpg/sg24_5_cif.got.tgz:9362.got - 2010.06.04 00:33:39.
