data_PCOD9333043
_publ_section_title
;
Structure prediction by ZEFSAII (Michael W. Deem and Ramdas Pophale) SiO2 
 PCOD9333043
Probable space group: I 21 21 21
;
_chemical_formula_sum "Si O2"
_cell_formula_units_Z 52
_cell_length_a 14.569902
_cell_length_b 9.201830
_cell_length_c 22.525736
_cell_angle_alpha 90.000000
_cell_angle_beta 90.000000
_cell_angle_gamma 90.000000
_cell_volume 3020.020049
_symmetry_space_group_name_H-M "I 21 21 21"
_symmetry_group_IT_number 24
_symmetry_cell_setting 'orthorhombic'
loop_
_space_group_symop_operation_xyz
x,y,z
-x,1/2-y,z
x,-y,1/2-z
1/2-x,y,-z
1/2+x,1/2+y,1/2+z
1/2-x,-y,1/2+z
1/2+x,1/2-y,-z
-x,1/2+y,1/2-z
loop_
_atom_site_type_symbol
_atom_site_label
_atom_site_fract_x
_atom_site_fract_y
_atom_site_fract_z
Si Si1 0.749581 0.428434 0.929815
Si Si2 0.388139 0.258789 0.144314
Si Si3 0.364694 0.000000 0.750000
Si Si4 0.745944 0.016880 0.820813
Si Si5 0.086624 0.155044 0.730012
Si Si6 0.398059 0.771274 0.651951
Si Si7 0.746659 0.315162 0.651718
O O1 0.839626 0.350249 0.901563
O O2 0.665794 0.346695 0.897259
O O3 0.738856 0.595552 0.908895
O O4 0.750000 0.413377 0.000000
O O5 0.500000 0.250000 0.140406
O O6 0.334727 0.413663 0.144949
O O7 0.360917 0.206935 0.210897
O O8 0.411980 0.879870 0.708252
O O9 0.307876 0.904215 0.797352
O O10 0.660258 0.128105 0.829083
O O11 0.764834 0.000000 0.750000
O O12 0.724986 0.855524 0.845729
O O13 0.149840 0.162685 0.673729
O O14 0.000000 0.250000 0.719020
O O15 0.051847 0.000000 0.750000
O O16 0.500000 0.750000 0.627825
#
# Coordination Sequence:
#
# PCOD9333043 Si02
#       7
#     8   8   4   8   8   8   8
#     4  10  22  42  60  76 112 163 206 241 274 320
#     4  10  21  34  55  88 118 149 186 228 290 352
#     4  10  18  32  54  78 116 146 174 236 296 354
#     4  11  20  34  56  87 121 147 177 229 296 360
#     4  11  20  29  49  83 123 146 174 224 286 355
#     4  10  22  37  59  90 114 151 193 238 296 349
#     4  11  19  34  52  79 115 148 191 230 283 345
#
# _framework density 17.218427999999999
#
# number of rings (size 3 to 8) (size 9 to 14) (size 15 to 20)
#    0.000    1.538    5.385    0.923    5.385    0.615 
#    0.000    5.385    0.000    3.692    0.000    0.000 
#    0.000    0.000    0.000    0.000    0.000    0.000 
#
# Total GULP energy -144780.746565 kJ/mol
# GULP energy per Si atom -5568.490252 kJ/mol
# Density = 1.717924 g / cm^3
# Si number density = 17.218428 Si / 1000 Ang^3
#
#
#
# Elastic Constant Matrix: (Units=GPa)
#
#
# Indices 1 2 3 4 5 6 
#
# 1 86.8426 42.6998 27.3840 0.0000 0.0000 0.0000
# 2 42.6998 124.7627 17.1912 0.0000 0.0000 0.0000
# 3 27.3840 17.1912 85.5638 0.0000 0.0000 0.0000
# 4 0.0000 0.0000 0.0000 16.0064 0.0000 0.0000
# 5 0.0000 0.0000 0.0000 0.0000 13.5885 0.0000
# 6 0.0000 0.0000 0.0000 0.0000 0.0000 17.4091
#
#
#
# Elastic Compliance Matrix: (Units=1/GPa)
#
#
# Indices 1 2 3 4 5 6 
#
# 1 0.014999 -0.004599 -0.003876 0.000000 0.000000 0.000000
# 2 -0.004599 0.009654 -0.000468 0.000000 0.000000 0.000000
# 3 -0.003876 -0.000468 0.013022 0.000000 0.000000 0.000000
# 4 0.000000 0.000000 0.000000 0.062475 0.000000 0.000000
# 5 0.000000 0.000000 0.000000 0.000000 0.073592 0.000000
# 6 0.000000 0.000000 0.000000 0.000000 0.000000 0.057441
#
#
# Mechanical properties :
#
#
# Convention : Reuss Voigt Hill
#
# Bulk Modulus (GPa) = 50.53542 52.41323 51.47432
# Shear Modulus (GPa) = 19.55691 23.39374 21.47532
#
# Velocity S-wave (km/s) = 3.37384 3.68998 3.53544
# Velocity P-wave (km/s) = 6.67760 6.97573 6.82830
#
# Compressibility (1/GPa) = 0.01978810
#
# Stress axis : x y z
#
# Youngs Moduli (GPa) = 66.67226 103.58703 76.79497
#
# Poissons Ratio (x) = 0.47642 0.29767
# Poissons Ratio (y) = 0.30664 0.03591
# Poissons Ratio (z) = 0.25843 0.04844
#
# Static dielectric constant tensor:
#      x y z
#    x 1.605370 0.000000 0.000000 
#    y 0.000000 1.646580 0.000000 
#    z 0.000000 0.000000 1.551010 
# 
# From -- ./inp_files/25015.got.cif
#   From: 2010.05.17/outbox.cif.g08.bks.cpg/sg24_13_cif.got.tgz:25015.got - 2010.06.04 00:33:39.
