data_PCOD9333233
_publ_section_title
;
Structure prediction by ZEFSAII (Michael W. Deem and Ramdas Pophale) SiO2 
 PCOD9333233
Probable space group: I 21 21 21
;
_chemical_formula_sum "Si O2"
_cell_formula_units_Z 52
_cell_length_a 11.462305
_cell_length_b 26.128981
_cell_length_c 10.069914
_cell_angle_alpha 90.000000
_cell_angle_beta 90.000000
_cell_angle_gamma 90.000000
_cell_volume 3015.922623
_symmetry_space_group_name_H-M "I 21 21 21"
_symmetry_group_IT_number 24
_symmetry_cell_setting 'orthorhombic'
loop_
_space_group_symop_operation_xyz
x,y,z
-x,1/2-y,z
x,-y,1/2-z
1/2-x,y,-z
1/2+x,1/2+y,1/2+z
1/2-x,-y,1/2+z
1/2+x,1/2-y,-z
-x,1/2+y,1/2-z
loop_
_atom_site_type_symbol
_atom_site_label
_atom_site_fract_x
_atom_site_fract_y
_atom_site_fract_z
Si Si1 0.021116 0.873737 0.369531
Si Si2 0.708122 0.175504 0.853290
Si Si3 0.719650 0.546987 0.650858
Si Si4 0.311088 0.213903 0.781446
Si Si5 0.106826 0.141768 0.834334
Si Si6 0.432121 0.696549 0.170279
Si Si7 0.750000 0.759878 0.000000
O O1 0.092794 0.925696 0.344654
O O2 0.091645 0.828747 0.296360
O O3 0.034542 0.863334 0.528699
O O4 0.888752 0.866989 0.321997
O O5 0.652871 0.232424 0.846134
O O6 0.821516 0.182385 0.762041
O O7 0.750000 0.165002 0.000000
O O8 0.727283 0.500000 0.750000
O O9 0.750000 0.531288 0.500000
O O10 0.813304 0.591801 0.682744
O O11 0.196427 0.189235 0.849200
O O12 0.277223 0.226074 0.629059
O O13 0.026705 0.153789 0.707046
O O14 0.500000 0.750000 0.200588
O O15 0.365876 0.706648 0.031269
#
# Coordination Sequence:
#
# PCOD9333233 Si02
#       7
#     8   8   8   8   8   8   4
#     4  10  20  33  56  84 109 138 191 243 273 338
#     4  11  19  28  50  81 110 147 186 218 272 312
#     4   9  20  40  62  87 110 139 186 245 308 347
#     4  10  20  32  47  76 111 154 190 221 263 319
#     4  10  18  37  58  77 110 150 186 238 285 327
#     4  11  21  35  50  72 117 160 189 224 265 326
#     4  10  22  32  44  70 116 168 190 212 262 328
#
# _framework density 17.241821000000002
#
# number of rings (size 3 to 8) (size 9 to 14) (size 15 to 20)
#    0.000    1.846    4.615    2.769    0.000    2.462 
#    5.538    0.000    0.000    0.923    0.000    0.000 
#    0.000    0.000    0.000    0.000    0.000    0.000 
#
# Total GULP energy -144785.444887 kJ/mol
# GULP energy per Si atom -5568.670957 kJ/mol
# Density = 1.720258 g / cm^3
# Si number density = 17.241821 Si / 1000 Ang^3
#
#
#
# Elastic Constant Matrix: (Units=GPa)
#
#
# Indices 1 2 3 4 5 6 
#
# 1 93.8663 34.1442 35.6392 -0.0003 -0.0001 0.0000
# 2 34.1442 78.1336 40.9290 -0.0004 0.0001 0.0001
# 3 35.6392 40.9290 42.1025 -0.0019 0.0001 0.0003
# 4 -0.0003 -0.0004 -0.0019 21.6769 -0.0001 0.0001
# 5 -0.0001 0.0001 0.0001 -0.0001 29.0708 0.0000
# 6 0.0000 0.0001 0.0003 0.0001 0.0000 10.2269
#
#
#
# Elastic Compliance Matrix: (Units=1/GPa)
#
#
# Indices 1 2 3 4 5 6 
#
# 1 0.015701 0.000205 -0.013490 -0.000001 0.000000 0.000000
# 2 0.000205 0.026081 -0.025528 -0.000002 0.000000 0.000001
# 3 -0.013490 -0.025528 0.059988 0.000005 0.000000 -0.000002
# 4 -0.000001 -0.000002 0.000005 0.046132 0.000000 -0.000001
# 5 0.000000 0.000000 0.000000 0.000000 0.034399 0.000000
# 6 0.000000 0.000001 -0.000002 -0.000001 0.000000 0.097782
#
#
# Mechanical properties :
#
#
# Convention : Reuss Voigt Hill
#
# Bulk Modulus (GPa) = 41.41884 48.39190 44.90537
# Shear Modulus (GPa) = 13.67032 19.08758 16.37895
#
# Velocity S-wave (km/s) = 2.81883 3.33085 3.08548
# Velocity P-wave (km/s) = 5.88803 6.55135 6.22853
#
# Compressibility (1/GPa) = 0.02414360
#
# Stress axis : x y z
#
# Youngs Moduli (GPa) = 63.69154 38.34152 16.67012
#
# Poissons Ratio (x) = -0.00788 0.22488
# Poissons Ratio (y) = -0.01308 0.42556
# Poissons Ratio (z) = 0.85921 0.97879
#
# Static dielectric constant tensor:
#      x y z
#    x 1.655660 0.000000 0.000000 
#    y 0.000000 1.552980 0.000000 
#    z 0.000000 0.000000 1.609190 
# 
# From -- ./inp_files/11474.got.cif
#   From: 2010.05.17/outbox.cif.g08.bks.cpg/sg24_6_cif.got.tgz:11474.got - 2010.06.04 00:33:39.
