data_PCOD9333056
_publ_section_title
;
Structure prediction by ZEFSAII (Michael W. Deem and Ramdas Pophale) SiO2 
 PCOD9333056
Probable space group: I 21 21 21
;
_chemical_formula_sum "Si O2"
_cell_formula_units_Z 48
_cell_length_a 32.598622
_cell_length_b 8.498305
_cell_length_c 7.456577
_cell_angle_alpha 90.000000
_cell_angle_beta 90.000000
_cell_angle_gamma 90.000000
_cell_volume 2065.718137
_symmetry_space_group_name_H-M "I 21 21 21"
_symmetry_group_IT_number 24
_symmetry_cell_setting 'orthorhombic'
loop_
_space_group_symop_operation_xyz
x,y,z
-x,1/2-y,z
x,-y,1/2-z
1/2-x,y,-z
1/2+x,1/2+y,1/2+z
1/2-x,-y,1/2+z
1/2+x,1/2-y,-z
-x,1/2+y,1/2-z
loop_
_atom_site_type_symbol
_atom_site_label
_atom_site_fract_x
_atom_site_fract_y
_atom_site_fract_z
Si Si1 0.390958 0.282796 0.514885
Si Si2 0.250000 0.254366 0.500000
Si Si3 0.653964 0.703750 0.612761
Si Si4 0.500000 0.250000 0.953148
Si Si5 0.945357 0.000000 0.250000
Si Si6 0.928151 0.533257 0.467298
Si Si7 0.180678 0.470781 0.563549
Si Si8 0.774748 0.500000 0.250000
O O1 0.363793 0.221749 0.684444
O O2 0.418077 0.422469 0.595925
O O3 0.358280 0.361947 0.385326
O O4 0.418691 0.138352 0.452359
O O5 0.211775 0.363423 0.454817
O O6 0.246687 0.134025 0.664544
O O7 0.614125 0.630955 0.514927
O O8 0.693137 0.588050 0.616305
O O9 0.666774 0.873041 0.536980
O O10 0.472074 0.361867 0.831870
O O11 0.466866 0.131154 0.041062
O O12 0.935272 0.500000 0.250000
O O13 0.203402 0.500000 0.750000
#
# Coordination Sequence:
#
# PCOD9333056 Si02
#       8
#     8   4   8   4   4   8   8   4
#     4  11  19  39  60  87 123 171 212 249 317 383
#     4  12  30  44  64  96 124 162 208 276 330 380
#     4  11  20  42  68  84 124 174 208 252 315 390
#     4  12  18  26  48 102 138 150 200 278 324 356
#     4  12  18  29  56  88 134 162 210 258 326 359
#     4  10  18  32  56  91 129 161 201 255 323 366
#     4  12  27  42  64  95 126 163 217 268 317 385
#     4  12  26  45  68  90 126 170 210 262 328 391
#
# _framework density 23.236471999999999
#
# number of rings (size 3 to 8) (size 9 to 14) (size 15 to 20)
#    0.000    0.667   10.000    0.000    4.667    0.000 
#    0.000    0.000    0.000    0.000    0.000   23.333 
#    0.000    0.000    0.000    0.000    0.000    0.000 
#
# Total GULP energy -134070.909608 kJ/mol
# GULP energy per Si atom -5586.287900 kJ/mol
# Density = 2.318359 g / cm^3
# Si number density = 23.236472 Si / 1000 Ang^3
#
#
#
# Elastic Constant Matrix: (Units=GPa)
#
#
# Indices 1 2 3 4 5 6 
#
# 1 96.9083 59.7331 -1.9227 0.0000 0.0000 0.0000
# 2 59.7331 161.7634 12.1243 0.0000 0.0000 0.0000
# 3 -1.9227 12.1243 24.9164 0.0000 0.0000 0.0000
# 4 0.0000 0.0000 0.0000 20.7273 0.0000 0.0000
# 5 0.0000 0.0000 0.0000 0.0000 11.9270 0.0000
# 6 0.0000 0.0000 0.0000 0.0000 0.0000 54.6200
#
#
#
# Elastic Compliance Matrix: (Units=1/GPa)
#
#
# Indices 1 2 3 4 5 6 
#
# 1 0.013671 -0.005322 0.003644 0.000000 0.000000 0.000000
# 2 -0.005322 0.008487 -0.004541 0.000000 0.000000 0.000000
# 3 0.003644 -0.004541 0.042625 0.000000 0.000000 0.000000
# 4 0.000000 0.000000 0.000000 0.048246 0.000000 0.000000
# 5 0.000000 0.000000 0.000000 0.000000 0.083844 0.000000
# 6 0.000000 0.000000 0.000000 0.000000 0.000000 0.018308
#
#
# Mechanical properties :
#
#
# Convention : Reuss Voigt Hill
#
# Bulk Modulus (GPa) = 19.10279 47.05084 33.07681
# Shear Modulus (GPa) = 20.40268 31.69841 26.05055
#
# Velocity S-wave (km/s) = 2.96640 3.69747 3.35192
# Velocity P-wave (km/s) = 4.46896 6.20653 5.40798
#
# Compressibility (1/GPa) = 0.05234838
#
# Stress axis : x y z
#
# Youngs Moduli (GPa) = 73.14512 117.82428 23.46046
#
# Poissons Ratio (x) = 0.62700 -0.08550
# Poissons Ratio (y) = 0.38924 0.10652
# Poissons Ratio (z) = -0.26657 0.53498
#
# Static dielectric constant tensor:
#      x y z
#    x 1.875270 0.000000 0.000000 
#    y 0.000000 1.901700 0.000000 
#    z 0.000000 0.000000 1.917470 
# 
# From -- ./inp_files/16910.got.cif
#   From: 2010.05.17/outbox.cif.g08.bks.cpg/sg24_9_cif.got.tgz:16910.got - 2010.06.04 00:33:39.
