data_PCOD9333117
_publ_section_title
;
Structure prediction by ZEFSAII (Michael W. Deem and Ramdas Pophale) SiO2 
 PCOD9333117
Probable space group: I 21 21 21
;
_chemical_formula_sum "Si O2"
_cell_formula_units_Z 52
_cell_length_a 14.150222
_cell_length_b 7.520708
_cell_length_c 22.391073
_cell_angle_alpha 90.000000
_cell_angle_beta 90.000000
_cell_angle_gamma 90.000000
_cell_volume 2382.850998
_symmetry_space_group_name_H-M "I 21 21 21"
_symmetry_group_IT_number 24
_symmetry_cell_setting 'orthorhombic'
loop_
_space_group_symop_operation_xyz
x,y,z
-x,1/2-y,z
x,-y,1/2-z
1/2-x,y,-z
1/2+x,1/2+y,1/2+z
1/2-x,-y,1/2+z
1/2+x,1/2-y,-z
-x,1/2+y,1/2-z
loop_
_atom_site_type_symbol
_atom_site_label
_atom_site_fract_x
_atom_site_fract_y
_atom_site_fract_z
Si Si1 0.910630 0.337043 0.288614
Si Si2 0.895201 0.500000 0.750000
Si Si3 0.459654 0.447955 0.342262
Si Si4 0.762836 0.550375 0.933042
Si Si5 0.278375 0.704591 0.182702
Si Si6 0.530001 0.548741 0.464708
Si Si7 0.441864 0.935843 0.594829
O O1 0.871619 0.500000 0.250000
O O2 0.829922 0.191077 0.298787
O O3 0.947387 0.430064 0.349607
O O4 0.000000 0.250000 0.257198
O O5 0.828789 0.342865 0.727195
O O6 0.965618 0.558846 0.696359
O O7 0.500000 0.250000 0.329983
O O8 0.351099 0.457801 0.322156
O O9 0.466271 0.467615 0.413056
O O10 0.772964 0.697479 0.881792
O O11 0.863790 0.456098 0.938876
O O12 0.672905 0.424714 0.916724
O O13 0.750000 0.626497 0.000000
O O14 0.500000 0.750000 0.471208
O O15 0.524032 0.476896 0.532105
O O16 0.500000 0.750000 0.603848
#
# Coordination Sequence:
#
# PCOD9333117 Si02
#       7
#     8   4   8   8   8   8   8
#     4  11  23  42  64  84 113 158 211 258 304 347
#     4  10  18  34  56  84 120 154 182 234 294 360
#     4  10  20  35  58  86 118 148 194 233 288 368
#     4   9  17  34  58  80 108 156 194 223 294 363
#     4  10  20  39  59  84 117 154 196 240 297 362
#     4  10  19  34  56  88 121 150 186 238 303 361
#     4   9  20  38  60  83 114 154 198 250 300 357
#
# _framework density 21.822599
#
# number of rings (size 3 to 8) (size 9 to 14) (size 15 to 20)
#    0.000    2.154    3.846    0.462    0.000    2.462 
#    6.923    0.000    0.000    0.000    0.000    0.000 
#    0.000    0.000    0.000    0.000    0.000    0.000 
#
# Total GULP energy -144873.407184 kJ/mol
# GULP energy per Si atom -5572.054122 kJ/mol
# Density = 2.177293 g / cm^3
# Si number density = 21.822599 Si / 1000 Ang^3
#
#
#
# Elastic Constant Matrix: (Units=GPa)
#
#
# Indices 1 2 3 4 5 6 
#
# 1 113.5842 12.6516 20.1330 0.0000 0.0000 0.0000
# 2 12.6516 22.2873 8.4335 0.0000 0.0000 0.0000
# 3 20.1330 8.4335 100.3360 0.0000 0.0000 0.0000
# 4 0.0000 0.0000 0.0000 18.6991 0.0000 0.0000
# 5 0.0000 0.0000 0.0000 0.0000 39.2834 0.0000
# 6 0.0000 0.0000 0.0000 0.0000 0.0000 20.4976
#
#
#
# Elastic Compliance Matrix: (Units=1/GPa)
#
#
# Indices 1 2 3 4 5 6 
#
# 1 0.009617 -0.004885 -0.001519 0.000000 0.000000 0.000000
# 2 -0.004885 0.048823 -0.003124 0.000000 0.000000 0.000000
# 3 -0.001519 -0.003124 0.010534 0.000000 0.000000 0.000000
# 4 0.000000 0.000000 0.000000 0.053478 0.000000 0.000000
# 5 0.000000 0.000000 0.000000 0.000000 0.025456 0.000000
# 6 0.000000 0.000000 0.000000 0.000000 0.000000 0.048786
#
#
# Mechanical properties :
#
#
# Convention : Reuss Voigt Hill
#
# Bulk Modulus (GPa) = 20.03209 35.40484 27.71847
# Shear Modulus (GPa) = 21.51558 28.69534 25.10546
#
# Velocity S-wave (km/s) = 3.14336 3.63014 3.39548
# Velocity P-wave (km/s) = 4.73009 5.81633 5.30111
#
# Compressibility (1/GPa) = 0.04991989
#
# Stress axis : x y z
#
# Youngs Moduli (GPa) = 103.97831 20.48203 94.93156
#
# Poissons Ratio (x) = 0.10004 0.14422
# Poissons Ratio (y) = 0.50788 0.29653
# Poissons Ratio (z) = 0.15797 0.06398
#
# Static dielectric constant tensor:
#      x y z
#    x 1.841170 0.000000 0.000000 
#    y 0.000000 1.816290 0.000000 
#    z 0.000000 0.000000 1.865080 
# 
# From -- ./inp_files/33714.got.cif
#   From: 2010.05.17/outbox.cif.g08.bks.cpg/sg24_17_cif.got.tgz:33714.got - 2010.06.04 00:33:39.
