data_PCOD9333763
_publ_section_title
;
Structure prediction by ZEFSAII (Michael W. Deem and Ramdas Pophale) SiO2 
 PCOD9333763
Probable space group: I 21 21 21
;
_chemical_formula_sum "Si O2"
_cell_formula_units_Z 60
_cell_length_a 11.913251
_cell_length_b 18.548406
_cell_length_c 13.998836
_cell_angle_alpha 90.000000
_cell_angle_beta 90.000000
_cell_angle_gamma 90.000000
_cell_volume 3093.348217
_symmetry_space_group_name_H-M "I 21 21 21"
_symmetry_group_IT_number 24
_symmetry_cell_setting 'orthorhombic'
loop_
_space_group_symop_operation_xyz
x,y,z
-x,1/2-y,z
x,-y,1/2-z
1/2-x,y,-z
1/2+x,1/2+y,1/2+z
1/2-x,-y,1/2+z
1/2+x,1/2-y,-z
-x,1/2+y,1/2-z
loop_
_atom_site_type_symbol
_atom_site_label
_atom_site_fract_x
_atom_site_fract_y
_atom_site_fract_z
Si Si1 0.743348 0.002314 0.361315
Si Si2 0.337382 0.347193 0.076845
Si Si3 0.758652 0.362608 0.162471
Si Si4 0.130649 0.740881 0.762734
Si Si5 0.574206 0.379614 0.998026
Si Si6 0.990501 0.964524 0.066225
Si Si7 0.131455 0.000000 0.250000
Si Si8 0.365589 0.639247 0.058361
O O1 0.690012 0.930163 0.401510
O O2 0.766780 0.000000 0.250000
O O3 0.861767 0.014447 0.412555
O O4 0.660460 0.068423 0.379098
O O5 0.325064 0.310813 0.179160
O O6 0.459107 0.342869 0.029647
O O7 0.250000 0.317317 0.000000
O O8 0.709477 0.310468 0.244851
O O9 0.661162 0.369194 0.083820
O O10 0.790047 0.439299 0.205730
O O11 0.870392 0.346640 0.098367
O O12 0.126038 0.705056 0.867531
O O13 0.000000 0.750000 0.737560
O O14 0.548574 0.465745 0.983922
O O15 0.970405 0.889219 0.007462
O O16 0.054973 0.962351 0.167843
O O17 0.250000 0.651652 0.000000
#
# Coordination Sequence:
#
# PCOD9333763 Si02
#       8
#     8   8   8   8   8   8   4   8
#     4  11  18  34  63  98 127 155 206 266 330 395
#     4  12  22  36  67 101 126 164 203 270 346 394
#     4  10  24  43  62  91 129 173 219 273 330 403
#     4  12  26  42  61  89 130 178 220 266 331 403
#     4  10  20  40  64  94 131 160 212 273 335 400
#     4  10  19  37  68 100 124 160 213 280 339 390
#     4  10  22  42  70  92 126 172 226 284 332 402
#     4  10  22  40  62  90 131 169 213 272 324 397
#
# _framework density 19.396459
#
# number of rings (size 3 to 8) (size 9 to 14) (size 15 to 20)
#    0.000    1.333    6.000    0.400    1.867    1.067 
#    3.600    0.000    0.000    0.000    0.000    0.000 
#    0.000    0.000    0.000    0.000    0.000    0.000 
#
# Total GULP energy -167183.246414 kJ/mol
# GULP energy per Si atom -5572.774880 kJ/mol
# Density = 1.935231 g / cm^3
# Si number density = 19.396459 Si / 1000 Ang^3
#
#
#
# Elastic Constant Matrix: (Units=GPa)
#
#
# Indices 1 2 3 4 5 6 
#
# 1 80.3231 26.6451 18.6900 0.0000 0.0000 0.0000
# 2 26.6451 62.1381 36.7006 -0.0001 0.0000 0.0000
# 3 18.6900 36.7006 98.9272 -0.0003 0.0000 0.0000
# 4 0.0000 -0.0001 -0.0003 37.2015 0.0000 0.0000
# 5 0.0000 0.0000 0.0000 0.0000 9.3650 0.0000
# 6 0.0000 0.0000 0.0000 0.0000 0.0000 18.6749
#
#
#
# Elastic Compliance Matrix: (Units=1/GPa)
#
#
# Indices 1 2 3 4 5 6 
#
# 1 0.014538 -0.005906 -0.000556 0.000000 0.000000 0.000000
# 2 -0.005906 0.023008 -0.007420 0.000000 0.000000 0.000000
# 3 -0.000556 -0.007420 0.012966 0.000000 0.000000 0.000000
# 4 0.000000 0.000000 0.000000 0.026881 0.000000 0.000000
# 5 0.000000 0.000000 0.000000 0.000000 0.106781 0.000000
# 6 0.000000 0.000000 0.000000 0.000000 0.000000 0.053548
#
#
# Mechanical properties :
#
#
# Convention : Reuss Voigt Hill
#
# Bulk Modulus (GPa) = 43.95701 45.05109 44.50405
# Shear Modulus (GPa) = 18.31048 23.67179 20.99113
#
# Velocity S-wave (km/s) = 3.07581 3.49724 3.29327
# Velocity P-wave (km/s) = 5.94355 6.29162 6.12006
#
# Compressibility (1/GPa) = 0.02274950
#
# Stress axis : x y z
#
# Youngs Moduli (GPa) = 68.78465 43.46302 77.12422
#
# Poissons Ratio (x) = 0.25669 0.04286
# Poissons Ratio (y) = 0.40623 0.57225
# Poissons Ratio (z) = 0.03822 0.32249
#
# Static dielectric constant tensor:
#      x y z
#    x 1.669150 0.000000 0.000000 
#    y 0.000000 1.711010 0.000000 
#    z 0.000000 0.000000 1.727170 
# 
# From -- ./inp_files/25992.got.cif
#   From: 2010.05.17/outbox.cif.g08.bks.cpg/sg24_13_cif.got.tgz:25992.got - 2010.06.04 00:33:39.
