data_PCOD9333782
_publ_section_title
;
Structure prediction by ZEFSAII (Michael W. Deem and Ramdas Pophale) SiO2 
 PCOD9333782
Probable space group: I 21 21 21
;
_chemical_formula_sum "Si O2"
_cell_formula_units_Z 48
_cell_length_a 32.393701
_cell_length_b 7.961624
_cell_length_c 9.523904
_cell_angle_alpha 90.000000
_cell_angle_beta 90.000000
_cell_angle_gamma 90.000000
_cell_volume 2456.276436
_symmetry_space_group_name_H-M "I 21 21 21"
_symmetry_group_IT_number 24
_symmetry_cell_setting 'orthorhombic'
loop_
_space_group_symop_operation_xyz
x,y,z
-x,1/2-y,z
x,-y,1/2-z
1/2-x,y,-z
1/2+x,1/2+y,1/2+z
1/2-x,-y,1/2+z
1/2+x,1/2-y,-z
-x,1/2+y,1/2-z
loop_
_atom_site_type_symbol
_atom_site_label
_atom_site_fract_x
_atom_site_fract_y
_atom_site_fract_z
Si Si1 0.394538 0.682767 0.506229
Si Si2 0.680137 0.800723 0.710399
Si Si3 0.953000 0.699232 0.266204
Si Si4 0.250000 0.352548 0.000000
Si Si5 0.360827 0.818077 0.229173
Si Si6 0.301725 0.500000 0.250000
Si Si7 0.118385 0.709302 0.054688
O O1 0.356937 0.744064 0.604592
O O2 0.436458 0.730254 0.585256
O O3 0.390670 0.767245 0.355984
O O4 0.384336 0.484035 0.502985
O O5 0.720534 0.758333 0.615458
O O6 0.660294 0.741311 0.859260
O O7 0.684200 0.000000 0.750000
O O8 0.949214 0.500000 0.250000
O O9 0.920585 0.774808 0.155934
O O10 0.000000 0.750000 0.241343
O O11 0.277203 0.465252 0.105612
O O12 0.328033 0.667826 0.226119
O O13 0.341202 0.000000 0.250000
O O14 0.384212 0.821885 0.081923
#
# Coordination Sequence:
#
# PCOD9333782 Si02
#       7
#     8   8   8   4   8   4   8
#     4  10  19  38  62  87 121 162 211 256 316 381
#     4   9  17  32  56  86 113 160 211 246 313 381
#     4  11  22  38  61  95 129 166 209 261 313 378
#     4  12  20  34  64  90 120 172 212 268 326 384
#     4  12  23  40  63  93 123 166 219 267 321 388
#     4  12  24  40  64  86 130 168 216 274 328 380
#     4  10  20  38  63  88 121 169 209 261 320 387
#
# _framework density 19.541775000000001
#
# number of rings (size 3 to 8) (size 9 to 14) (size 15 to 20)
#    0.000    1.333    4.167    4.500    0.000    0.000 
#    0.000    1.667    0.000    0.000    0.000    0.000 
#    0.000    0.000    0.000    0.000    0.000    0.000 
#
# Total GULP energy -133662.667507 kJ/mol
# GULP energy per Si atom -5569.277813 kJ/mol
# Density = 1.949730 g / cm^3
# Si number density = 19.541775 Si / 1000 Ang^3
#
#
#
# Elastic Constant Matrix: (Units=GPa)
#
#
# Indices 1 2 3 4 5 6 
#
# 1 87.0957 18.8083 42.6721 0.0000 0.0000 0.0000
# 2 18.8083 71.5228 19.0674 0.0000 0.0000 0.0000
# 3 42.6721 19.0674 134.1085 0.0000 0.0000 0.0000
# 4 0.0000 0.0000 0.0000 14.0317 0.0000 0.0000
# 5 0.0000 0.0000 0.0000 0.0000 16.8903 0.0000
# 6 0.0000 0.0000 0.0000 0.0000 0.0000 -14.1274
#
#
#
# Elastic Compliance Matrix: (Units=1/GPa)
#
#
# Indices 1 2 3 4 5 6 
#
# 1 0.014053 -0.002602 -0.004102 0.000000 0.000000 0.000000
# 2 -0.002602 0.015014 -0.001307 0.000000 0.000000 0.000000
# 3 -0.004102 -0.001307 0.008948 0.000000 0.000000 0.000000
# 4 0.000000 0.000000 0.000000 0.071267 0.000000 0.000000
# 5 0.000000 0.000000 0.000000 0.000000 0.059206 0.000000
# 6 0.000000 0.000000 0.000000 0.000000 0.000000 -0.070784
#
#
# Mechanical properties :
#
#
# Convention : Reuss Voigt Hill
#
# Bulk Modulus (GPa) = 45.46704 50.42476 47.94590
# Shear Modulus (GPa) = 41.30333 17.50419 29.40376
#
# Velocity S-wave (km/s) = 4.60237 2.99612 3.88321
# Velocity P-wave (km/s) = 7.18049 6.15050 6.68536
#
# Compressibility (1/GPa) = 0.02199395
#
# Stress axis : x y z
#
# Youngs Moduli (GPa) = 71.15862 66.60368 111.76263
#
# Poissons Ratio (x) = 0.17331 0.45841
# Poissons Ratio (y) = 0.18516 0.14605
# Poissons Ratio (z) = 0.29186 0.08703
#
# Static dielectric constant tensor:
#      x y z
#    x 1.704490 0.000000 0.000000 
#    y 0.000000 1.717350 0.000000 
#    z 0.000000 0.000000 1.799510 
# 
# From -- ./inp_files/9825.got.cif
#   From: 2010.05.17/outbox.cif.g08.bks.cpg/sg24_5_cif.got.tgz:9825.got - 2010.06.04 00:33:39.
