data_PCOD9333766
_publ_section_title
;
Structure prediction by ZEFSAII (Michael W. Deem and Ramdas Pophale) SiO2 
 PCOD9333766
Probable space group: I 21 21 21
;
_chemical_formula_sum "Si O2"
_cell_formula_units_Z 56
_cell_length_a 22.564005
_cell_length_b 7.737654
_cell_length_c 14.486184
_cell_angle_alpha 90.000000
_cell_angle_beta 90.000000
_cell_angle_gamma 90.000000
_cell_volume 2529.178552
_symmetry_space_group_name_H-M "I 21 21 21"
_symmetry_group_IT_number 24
_symmetry_cell_setting 'orthorhombic'
loop_
_space_group_symop_operation_xyz
x,y,z
-x,1/2-y,z
x,-y,1/2-z
1/2-x,y,-z
1/2+x,1/2+y,1/2+z
1/2-x,-y,1/2+z
1/2+x,1/2-y,-z
-x,1/2+y,1/2-z
loop_
_atom_site_type_symbol
_atom_site_label
_atom_site_fract_x
_atom_site_fract_y
_atom_site_fract_z
Si Si1 0.437549 0.653832 0.186034
Si Si2 0.380815 0.128049 0.004348
Si Si3 0.750000 0.329003 0.500000
Si Si4 0.000000 0.750000 0.448227
Si Si5 0.705255 0.403570 0.842196
Si Si6 0.957567 0.916587 0.156243
Si Si7 0.326189 0.813892 0.298536
Si Si8 0.121692 0.284307 0.502491
O O1 0.500000 0.750000 0.171819
O O2 0.457055 0.500000 0.250000
O O3 0.379203 0.725956 0.240931
O O4 0.411707 0.621038 0.085017
O O5 0.441739 0.227902 0.007379
O O6 0.345872 0.168093 0.909205
O O7 0.345425 0.176189 0.095440
O O8 0.391980 0.921547 0.007802
O O9 0.735893 0.453859 0.587967
O O10 0.807854 0.213607 0.514389
O O11 0.005998 0.573998 0.390022
O O12 0.682180 0.500000 0.750000
O O13 0.755904 0.269946 0.806989
O O14 0.000000 0.750000 0.169852
O O15 0.934902 0.000000 0.250000
O O16 0.903850 0.857408 0.091740
O O17 0.323215 0.000000 0.250000
#
# Coordination Sequence:
#
# PCOD9333766 Si02
#       8
#     8   8   4   4   8   8   8   8
#     4  12  28  42  67 101 141 188 236 297 372 439
#     4  11  23  40  69 103 141 183 242 298 353 431
#     4  10  20  42  72 104 140 192 244 284 366 442
#     4  12  28  42  70 104 144 186 242 300 366 438
#     4  10  19  37  70 104 135 181 239 293 360 435
#     4  12  26  47  73 103 142 186 240 305 369 434
#     4  11  20  40  68 101 135 176 237 288 348 434
#     4  11  23  46  71 101 143 196 237 302 371 434
#
# _framework density 22.141577000000002
#
# number of rings (size 3 to 8) (size 9 to 14) (size 15 to 20)
#    0.000    0.857    6.429    1.714    3.000    2.857 
#    0.000    2.143    0.000    0.000    0.000    0.000 
#    0.000    0.000    0.000    0.000    0.000    0.000 
#
# Total GULP energy -156311.222697 kJ/mol
# GULP energy per Si atom -5582.543668 kJ/mol
# Density = 2.209118 g / cm^3
# Si number density = 22.141577 Si / 1000 Ang^3
#
#
#
# Elastic Constant Matrix: (Units=GPa)
#
#
# Indices 1 2 3 4 5 6 
#
# 1 141.3142 14.0695 39.0976 0.0000 0.0000 0.0000
# 2 14.0695 43.2996 4.3949 0.0000 0.0000 0.0000
# 3 39.0976 4.3949 93.3508 0.0000 0.0000 0.0000
# 4 0.0000 0.0000 0.0000 13.7242 0.0000 0.0000
# 5 0.0000 0.0000 0.0000 0.0000 30.1888 0.0000
# 6 0.0000 0.0000 0.0000 0.0000 0.0000 13.8644
#
#
#
# Elastic Compliance Matrix: (Units=1/GPa)
#
#
# Indices 1 2 3 4 5 6 
#
# 1 0.008233 -0.002336 -0.003338 0.000000 0.000000 0.000000
# 2 -0.002336 0.023869 -0.000145 0.000000 0.000000 0.000000
# 3 -0.003338 -0.000145 0.012117 0.000000 0.000000 0.000000
# 4 0.000000 0.000000 0.000000 0.072864 0.000000 0.000000
# 5 0.000000 0.000000 0.000000 0.000000 0.033125 0.000000
# 6 0.000000 0.000000 0.000000 0.000000 0.000000 0.072127
#
#
# Mechanical properties :
#
#
# Convention : Reuss Voigt Hill
#
# Bulk Modulus (GPa) = 30.69417 43.67651 37.18534
# Shear Modulus (GPa) = 20.42206 26.24900 23.33553
#
# Velocity S-wave (km/s) = 3.04030 3.44686 3.24994
# Velocity P-wave (km/s) = 5.12029 5.96740 5.56000
#
# Compressibility (1/GPa) = 0.03257947
#
# Stress axis : x y z
#
# Youngs Moduli (GPa) = 121.46899 41.89579 82.52760
#
# Poissons Ratio (x) = 0.09788 0.27548
# Poissons Ratio (y) = 0.28378 0.01199
# Poissons Ratio (z) = 0.40546 0.00609
#
# Static dielectric constant tensor:
#      x y z
#    x 1.884570 0.000000 0.000000 
#    y 0.000000 1.848760 0.000000 
#    z 0.000000 0.000000 1.808810 
# 
# From -- ./inp_files/27574.got.cif
#   From: 2010.05.17/outbox.cif.g08.bks.cpg/sg24_14_cif.got.tgz:27574.got - 2010.06.04 00:33:39.
