data_PCOD9333128
_publ_section_title
;
Structure prediction by ZEFSAII (Michael W. Deem and Ramdas Pophale) SiO2 
 PCOD9333128
Probable space group: I 21 21 21
;
_chemical_formula_sum "Si O2"
_cell_formula_units_Z 60
_cell_length_a 20.067170
_cell_length_b 8.006549
_cell_length_c 17.353368
_cell_angle_alpha 90.000000
_cell_angle_beta 90.000000
_cell_angle_gamma 90.000000
_cell_volume 2788.144464
_symmetry_space_group_name_H-M "I 21 21 21"
_symmetry_group_IT_number 24
_symmetry_cell_setting 'orthorhombic'
loop_
_space_group_symop_operation_xyz
x,y,z
-x,1/2-y,z
x,-y,1/2-z
1/2-x,y,-z
1/2+x,1/2+y,1/2+z
1/2-x,-y,1/2+z
1/2+x,1/2-y,-z
-x,1/2+y,1/2-z
loop_
_atom_site_type_symbol
_atom_site_label
_atom_site_fract_x
_atom_site_fract_y
_atom_site_fract_z
Si Si1 0.917440 0.114798 0.518877
Si Si2 0.719930 0.330539 0.214884
Si Si3 0.449186 0.003271 0.515716
Si Si4 0.165696 0.571700 0.121547
Si Si5 0.000000 0.250000 0.144047
Si Si6 0.198795 0.281173 0.620728
Si Si7 0.188001 0.097629 0.944706
Si Si8 0.640848 0.763056 0.726845
O O1 0.928509 0.300633 0.480829
O O2 0.880494 0.022697 0.449214
O O3 0.868794 0.140091 0.590020
O O4 0.986032 0.023144 0.539014
O O5 0.689267 0.500000 0.250000
O O6 0.708550 0.209053 0.286938
O O7 0.689672 0.290183 0.132189
O O8 0.799647 0.362294 0.204159
O O9 0.479925 0.907766 0.589536
O O10 0.383570 0.907367 0.486485
O O11 0.235870 0.629133 0.088965
O O12 0.170109 0.419324 0.179522
O O13 0.140156 0.715404 0.180728
O O14 0.065452 0.257800 0.197520
O O15 0.199964 0.090892 0.588577
O O16 0.250000 0.138913 0.000000
#
# Coordination Sequence:
#
# PCOD9333128 Si02
#       8
#     8   8   8   8   4   8   8   8
#     4  10  19  38  58  86 107 158 197 238 285 341
#     4   9  19  37  58  86 113 149 193 243 295 343
#     4  10  22  35  58  80 120 147 201 240 280 357
#     4  10  19  37  53  84 114 152 198 240 280 343
#     4  12  22  40  50  82 126 160 180 242 292 346
#     4   9  18  33  62  82 111 145 200 246 284 340
#     4  10  18  34  57  88 113 152 192 240 292 350
#     4  10  22  35  52  80 121 155 190 235 292 352
#
# _framework density 21.519689
#
# number of rings (size 3 to 8) (size 9 to 14) (size 15 to 20)
#    0.000    2.133    1.333    2.800    0.000    3.200 
#    4.800    0.000    0.000    8.000    0.000    0.000 
#    0.000    0.000    0.000    0.000    0.000    0.000 
#
# Total GULP energy -167086.491956 kJ/mol
# GULP energy per Si atom -5569.549732 kJ/mol
# Density = 2.147071 g / cm^3
# Si number density = 21.519689 Si / 1000 Ang^3
#
#
#
# Elastic Constant Matrix: (Units=GPa)
#
#
# Indices 1 2 3 4 5 6 
#
# 1 145.7814 13.5502 54.8836 0.0000 0.0000 0.0000
# 2 13.5502 19.1054 2.4587 0.0000 0.0000 0.0000
# 3 54.8836 2.4587 102.8314 0.0000 0.0000 0.0000
# 4 0.0000 0.0000 0.0000 14.6502 0.0000 0.0000
# 5 0.0000 0.0000 0.0000 0.0000 60.6607 0.0000
# 6 0.0000 0.0000 0.0000 0.0000 0.0000 15.7796
#
#
#
# Elastic Compliance Matrix: (Units=1/GPa)
#
#
# Indices 1 2 3 4 5 6 
#
# 1 0.009206 -0.005915 -0.004772 0.000000 0.000000 0.000000
# 2 -0.005915 0.056303 0.001811 0.000000 0.000000 0.000000
# 3 -0.004772 0.001811 0.012228 0.000000 0.000000 0.000000
# 4 0.000000 0.000000 0.000000 0.068258 0.000000 0.000000
# 5 0.000000 0.000000 0.000000 0.000000 0.016485 0.000000
# 6 0.000000 0.000000 0.000000 0.000000 0.000000 0.063373
#
#
# Mechanical properties :
#
#
# Convention : Reuss Voigt Hill
#
# Bulk Modulus (GPa) = 16.67082 45.50035 31.08558
# Shear Modulus (GPa) = 18.96804 31.33983 25.15393
#
# Velocity S-wave (km/s) = 2.97210 3.82033 3.42260
# Velocity P-wave (km/s) = 4.42057 6.37569 5.48593
#
# Compressibility (1/GPa) = 0.05998505
#
# Stress axis : x y z
#
# Youngs Moduli (GPa) = 108.62554 17.76093 81.77761
#
# Poissons Ratio (x) = 0.10506 0.39024
# Poissons Ratio (y) = 0.64252 -0.14808
# Poissons Ratio (z) = 0.51836 -0.03216
#
# Static dielectric constant tensor:
#      x y z
#    x 1.802570 0.000000 0.000000 
#    y 0.000000 1.890150 0.000000 
#    z 0.000000 0.000000 1.782240 
# 
# From -- ./inp_files/31213.got.cif
#   From: 2010.05.17/outbox.cif.g08.bks.cpg/sg24_16_cif.got.tgz:31213.got - 2010.06.04 00:33:39.
