data_PCOD9333982
_publ_section_title
;
Structure prediction by ZEFSAII (Michael W. Deem and Ramdas Pophale) SiO2 
 PCOD9333982
Probable space group: I 21 21 21
;
_chemical_formula_sum "Si O2"
_cell_formula_units_Z 64
_cell_length_a 9.649392
_cell_length_b 27.432007
_cell_length_c 13.264316
_cell_angle_alpha 90.000000
_cell_angle_beta 90.000000
_cell_angle_gamma 90.000000
_cell_volume 3511.093479
_symmetry_space_group_name_H-M "I 21 21 21"
_symmetry_group_IT_number 24
_symmetry_cell_setting 'orthorhombic'
loop_
_space_group_symop_operation_xyz
x,y,z
-x,1/2-y,z
x,-y,1/2-z
1/2-x,y,-z
1/2+x,1/2+y,1/2+z
1/2-x,-y,1/2+z
1/2+x,1/2-y,-z
-x,1/2+y,1/2-z
loop_
_atom_site_type_symbol
_atom_site_label
_atom_site_fract_x
_atom_site_fract_y
_atom_site_fract_z
Si Si1 0.086875 0.040361 0.674973
Si Si2 0.358656 0.765209 0.585872
Si Si3 0.471236 0.577723 0.572235
Si Si4 0.176214 0.863105 0.308716
Si Si5 0.661083 0.599414 0.911034
Si Si6 0.009835 0.115821 0.842371
Si Si7 0.412272 0.530525 0.983805
Si Si8 0.265839 0.335660 0.879703
O O1 0.222377 0.059623 0.618637
O O2 0.012589 0.079188 0.747827
O O3 0.978395 0.021425 0.593735
O O4 0.138957 0.000000 0.750000
O O5 0.500000 0.750000 0.531838
O O6 0.250000 0.777403 0.500000
O O7 0.386048 0.813364 0.649434
O O8 0.316101 0.718060 0.651740
O O9 0.611915 0.590905 0.631132
O O10 0.489837 0.592216 0.454001
O O11 0.426402 0.521146 0.575474
O O12 0.361952 0.615757 0.623430
O O13 0.146530 0.869693 0.190741
O O14 0.338732 0.860781 0.334115
O O15 0.515892 0.572712 0.939815
O O16 0.750000 0.625934 0.000000
O O17 0.881384 0.151986 0.832290
O O18 0.250000 0.543191 0.000000
O O19 0.250000 0.328633 0.000000
#
# Coordination Sequence:
#
# PCOD9333982 Si02
#       8
#     8   8   8   8   8   8   8   8
#     4  10  20  36  56  81 115 159 203 242 297 354
#     4  11  22  38  57  88 126 157 190 234 309 372
#     4  11  20  33  51  84 122 153 193 241 292 358
#     4  11  23  35  60  87 109 155 202 246 298 359
#     4   9  23  42  59  81 114 155 207 256 292 350
#     4  10  20  34  53  82 117 153 196 242 292 354
#     4  11  23  38  56  82 119 164 203 250 301 349
#     4   9  20  34  52  77 122 159 185 235 295 360
#
# _framework density 18.22794
#
# number of rings (size 3 to 8) (size 9 to 14) (size 15 to 20)
#    0.000    1.750    2.500    2.250    7.000    2.000 
#    0.000    0.000    0.000    0.000    9.750    0.000 
#    0.000    0.000    0.000    0.000    0.000    0.000 
#
# Total GULP energy -178194.079592 kJ/mol
# GULP energy per Si atom -5568.564987 kJ/mol
# Density = 1.818645 g / cm^3
# Si number density = 18.227940 Si / 1000 Ang^3
#
#
#
# Elastic Constant Matrix: (Units=GPa)
#
#
# Indices 1 2 3 4 5 6 
#
# 1 107.4322 30.0061 33.5492 0.0008 0.0000 -0.0034
# 2 30.0061 61.0221 21.5907 -0.0007 0.0000 0.0029
# 3 33.5492 21.5907 64.3530 -0.0062 0.0000 0.0284
# 4 0.0008 -0.0007 -0.0062 89.1266 0.0004 0.0537
# 5 0.0000 0.0000 0.0000 0.0004 12.2943 -0.0017
# 6 -0.0034 0.0029 0.0284 0.0537 -0.0017 -443.3482
#
#
#
# Elastic Compliance Matrix: (Units=1/GPa)
#
#
# Indices 1 2 3 4 5 6 
#
# 1 0.011990 -0.004180 -0.004848 0.000000 0.000000 0.000000
# 2 -0.004180 0.020052 -0.004548 0.000000 0.000000 0.000000
# 3 -0.004848 -0.004548 0.019593 0.000001 0.000000 0.000001
# 4 0.000000 0.000000 0.000001 0.011220 0.000000 0.000001
# 5 0.000000 0.000000 0.000000 0.000000 0.081339 0.000000
# 6 0.000000 0.000000 0.000001 0.000001 0.000000 -0.002256
#
#
# Mechanical properties :
#
#
# Convention : Reuss Voigt Hill
#
# Bulk Modulus (GPa) = 40.84744 44.78882 42.81813
# Shear Modulus (GPa) = 28.20843 -58.54136 -15.16647
#
# Velocity S-wave (km/s) = 3.93814 -5.67327 -2.88765
# Velocity P-wave (km/s) = 6.56784 4.27666 3.52468
#
# Compressibility (1/GPa) = 0.02448134
#
# Stress axis : x y z
#
# Youngs Moduli (GPa) = 83.40461 49.86944 51.03935
#
# Poissons Ratio (x) = 0.20847 0.24744
# Poissons Ratio (y) = 0.34866 0.23214
# Poissons Ratio (z) = 0.40435 0.22682
#
# Static dielectric constant tensor:
#      x y z
#    x 1.623710 0.000000 -0.000020 
#    y 0.000000 1.840250 -0.000020 
#    z -0.000020 -0.000020 1.772510 
# 
# From -- ./inp_files/18925.got.cif
#   From: 2010.05.17/outbox.cif.g08.bks.cpg/sg24_10_cif.got.tgz:18925.got - 2010.06.04 00:33:39.
