data_PCOD9333139
_publ_section_title
;
Structure prediction by ZEFSAII (Michael W. Deem and Ramdas Pophale) SiO2 
 PCOD9333139
Probable space group: I 21 21 21
;
_chemical_formula_sum "Si O2"
_cell_formula_units_Z 32
_cell_length_a 5.646633
_cell_length_b 8.871506
_cell_length_c 30.911143
_cell_angle_alpha 90.000000
_cell_angle_beta 90.000000
_cell_angle_gamma 90.000000
_cell_volume 1548.467080
_symmetry_space_group_name_H-M "I 21 21 21"
_symmetry_group_IT_number 24
_symmetry_cell_setting 'orthorhombic'
loop_
_space_group_symop_operation_xyz
x,y,z
-x,1/2-y,z
x,-y,1/2-z
1/2-x,y,-z
1/2+x,1/2+y,1/2+z
1/2-x,-y,1/2+z
1/2+x,1/2-y,-z
-x,1/2+y,1/2-z
loop_
_atom_site_type_symbol
_atom_site_label
_atom_site_fract_x
_atom_site_fract_y
_atom_site_fract_z
Si Si1 0.750000 0.653160 0.500000
Si Si2 0.662212 0.995277 0.169825
Si Si3 0.500000 0.250000 0.710044
Si Si4 0.687292 0.500000 0.250000
Si Si5 0.868381 0.588000 0.592327
Si Si6 0.000000 0.750000 0.352327
O O1 0.500000 0.750000 0.507541
O O2 0.803981 0.555225 0.542838
O O3 0.469909 0.010271 0.207346
O O4 0.829572 0.854850 0.181089
O O5 0.533420 0.986813 0.123082
O O6 0.808643 0.150680 0.172014
O O7 0.651242 0.357379 0.740605
O O8 0.630777 0.625716 0.618317
O O9 0.000000 0.750000 0.589864
#
# Coordination Sequence:
#
# PCOD9333139 Si02
#       6
#     4   8   4   4   8   4
#     4  10  18  34  60 100 148 182 222 276 354 412
#     4  11  25  41  63  94 132 176 222 273 337 401
#     4  12  28  45  62  88 130 176 226 276 332 401
#     4  12  28  46  64  90 128 172 228 278 332 406
#     4   9  19  34  58  93 138 173 215 269 338 401
#     4  10  20  39  62  94 134 164 214 274 332 391
#
# _framework density 20.665600999999999
#
# number of rings (size 3 to 8) (size 9 to 14) (size 15 to 20)
#    0.000    1.500    1.250    3.000    0.000   19.000 
#    0.000    0.000    0.000    0.000    0.000    0.000 
#  105.000    0.000    0.000    0.000    0.000    0.000 
#
# Total GULP energy -89375.682244 kJ/mol
# GULP energy per Si atom -5585.980140 kJ/mol
# Density = 2.061857 g / cm^3
# Si number density = 20.665601 Si / 1000 Ang^3
#
#
#
# Elastic Constant Matrix: (Units=GPa)
#
#
# Indices 1 2 3 4 5 6 
#
# 1 131.7551 54.8601 80.5680 0.0000 0.0000 0.0000
# 2 54.8601 85.6084 71.4247 0.0000 0.0000 0.0000
# 3 80.5680 71.4247 174.6147 0.0000 0.0000 0.0000
# 4 0.0000 0.0000 0.0000 5.6216 0.0000 0.0000
# 5 0.0000 0.0000 0.0000 0.0000 -7.3221 0.0000
# 6 0.0000 0.0000 0.0000 0.0000 0.0000 20.6294
#
#
#
# Elastic Compliance Matrix: (Units=1/GPa)
#
#
# Indices 1 2 3 4 5 6 
#
# 1 0.011618 -0.004513 -0.003515 0.000000 0.000000 0.000000
# 2 -0.004513 0.019486 -0.005888 0.000000 0.000000 0.000000
# 3 -0.003515 -0.005888 0.009757 0.000000 0.000000 0.000000
# 4 0.000000 0.000000 0.000000 0.177886 0.000000 0.000000
# 5 0.000000 0.000000 0.000000 0.000000 -0.136573 0.000000
# 6 0.000000 0.000000 0.000000 0.000000 0.000000 0.048474
#
#
# Mechanical properties :
#
#
# Convention : Reuss Voigt Hill
#
# Bulk Modulus (GPa) = 76.74935 89.52042 83.13488
# Shear Modulus (GPa) = 30.70819 16.12747 23.41783
#
# Velocity S-wave (km/s) = 3.85899 2.79660 3.36992
# Velocity P-wave (km/s) = 7.55481 7.33761 7.44700
#
# Compressibility (1/GPa) = 0.01302943
#
# Stress axis : x y z
#
# Youngs Moduli (GPa) = 86.07238 51.31972 102.48901
#
# Poissons Ratio (x) = 0.23160 0.36022
# Poissons Ratio (y) = 0.38843 0.60348
# Poissons Ratio (z) = 0.30252 0.30218
#
# Static dielectric constant tensor:
#      x y z
#    x 1.895150 0.000000 0.000000 
#    y 0.000000 1.744120 0.000000 
#    z 0.000000 0.000000 1.769760 
# 
# From -- ./inp_files/1239.got.cif
#   From: 2010.05.17/outbox.cif.g08.bks.cpg/sg24_1_cif.got.tgz:1239.got - 2010.06.04 00:33:39.
