data_PCOD9333170
_publ_section_title
;
Structure prediction by ZEFSAII (Michael W. Deem and Ramdas Pophale) SiO2 
 PCOD9333170
Probable space group: I 21 21 21
;
_chemical_formula_sum "Si O2"
_cell_formula_units_Z 40
_cell_length_a 8.187063
_cell_length_b 14.199263
_cell_length_c 14.074153
_cell_angle_alpha 90.000000
_cell_angle_beta 90.000000
_cell_angle_gamma 90.000000
_cell_volume 1636.123956
_symmetry_space_group_name_H-M "I 21 21 21"
_symmetry_group_IT_number 24
_symmetry_cell_setting 'orthorhombic'
loop_
_space_group_symop_operation_xyz
x,y,z
-x,1/2-y,z
x,-y,1/2-z
1/2-x,y,-z
1/2+x,1/2+y,1/2+z
1/2-x,-y,1/2+z
1/2+x,1/2-y,-z
-x,1/2+y,1/2-z
loop_
_atom_site_type_symbol
_atom_site_label
_atom_site_fract_x
_atom_site_fract_y
_atom_site_fract_z
Si Si1 0.426732 0.650452 0.958240
Si Si2 0.957386 0.885216 0.736210
Si Si3 0.737599 0.613958 0.612000
Si Si4 0.419815 0.612834 0.738701
Si Si5 0.642524 0.412320 0.416820
O O1 0.500000 0.750000 0.989297
O O2 0.449089 0.646706 0.846122
O O3 0.250000 0.651078 0.000000
O O4 0.497315 0.557749 0.012381
O O5 0.091006 0.854931 0.659118
O O6 0.052165 0.857376 0.833683
O O7 0.769283 0.856989 0.716918
O O8 0.950853 0.000000 0.750000
O O9 0.750000 0.636059 0.500000
O O10 0.570230 0.640305 0.668257
O O11 0.756587 0.499651 0.622113
O O12 0.418499 0.500000 0.750000
O O13 0.750000 0.365366 0.500000
#
# Coordination Sequence:
#
# PCOD9333170 Si02
#       5
#     8   8   8   8   8
#     4  12  25  41  63  98 140 180 215 266 345 424
#     4   9  18  31  52  83 119 162 209 259 315 383
#     4  10  20  34  56  90 122 159 213 274 326 369
#     4  11  21  38  62  89 126 172 220 271 326 391
#     4  10  18  35  56  84 130 168 209 263 324 400
#
# _framework density 24.448027
#
# number of rings (size 3 to 8) (size 9 to 14) (size 15 to 20)
#    0.000    1.600    2.000    6.000    0.000    0.800 
#    0.000    0.000    0.000    0.000    5.200    0.000 
#    0.000    0.000    0.000    0.000    0.000    0.000 
#
# Total GULP energy -111334.926851 kJ/mol
# GULP energy per Si atom -5566.746343 kJ/mol
# Density = 2.439238 g / cm^3
# Si number density = 24.448027 Si / 1000 Ang^3
#
#
#
# Elastic Constant Matrix: (Units=GPa)
#
#
# Indices 1 2 3 4 5 6 
#
# 1 188.0106 15.7793 104.7190 0.0000 0.0000 0.0000
# 2 15.7793 52.3484 3.2129 0.0000 0.0000 0.0000
# 3 104.7190 3.2129 210.0740 0.0000 0.0000 0.0000
# 4 0.0000 0.0000 0.0000 25.0164 0.0000 0.0000
# 5 0.0000 0.0000 0.0000 0.0000 39.5023 0.0000
# 6 0.0000 0.0000 0.0000 0.0000 0.0000 33.7279
#
#
#
# Elastic Compliance Matrix: (Units=1/GPa)
#
#
# Indices 1 2 3 4 5 6 
#
# 1 0.007578 -0.002054 -0.003746 0.000000 0.000000 0.000000
# 2 -0.002054 0.019678 0.000723 0.000000 0.000000 0.000000
# 3 -0.003746 0.000723 0.006616 0.000000 0.000000 0.000000
# 4 0.000000 0.000000 0.000000 0.039974 0.000000 0.000000
# 5 0.000000 0.000000 0.000000 0.000000 0.025315 0.000000
# 6 0.000000 0.000000 0.000000 0.000000 0.000000 0.029649
#
#
# Mechanical properties :
#
#
# Convention : Reuss Voigt Hill
#
# Bulk Modulus (GPa) = 42.16296 77.53950 59.85123
# Shear Modulus (GPa) = 34.04378 41.43077 37.73728
#
# Velocity S-wave (km/s) = 3.73566 4.12107 3.93309
# Velocity P-wave (km/s) = 5.99085 7.37762 6.72010
#
# Compressibility (1/GPa) = 0.02371750
#
# Stress axis : x y z
#
# Youngs Moduli (GPa) = 131.96625 50.81923 151.13779
#
# Poissons Ratio (x) = 0.10439 0.56616
# Poissons Ratio (y) = 0.27109 -0.10928
# Poissons Ratio (z) = 0.49434 -0.03674
#
# Static dielectric constant tensor:
#      x y z
#    x 2.101260 0.000000 0.000000 
#    y 0.000000 2.247530 0.000000 
#    z 0.000000 0.000000 2.013350 
# 
# From -- ./inp_files/24657.got.cif
#   From: 2010.05.17/outbox.cif.g08.bks.cpg/sg24_13_cif.got.tgz:24657.got - 2010.06.04 00:33:39.
