data_PCOD9333676
_publ_section_title
;
Structure prediction by ZEFSAII (Michael W. Deem and Ramdas Pophale) SiO2 
 PCOD9333676
Probable space group: I 21 21 21
;
_chemical_formula_sum "Si O2"
_cell_formula_units_Z 44
_cell_length_a 14.693499
_cell_length_b 5.065066
_cell_length_c 30.943254
_cell_angle_alpha 90.000000
_cell_angle_beta 90.000000
_cell_angle_gamma 90.000000
_cell_volume 2302.906570
_symmetry_space_group_name_H-M "I 21 21 21"
_symmetry_group_IT_number 24
_symmetry_cell_setting 'orthorhombic'
loop_
_space_group_symop_operation_xyz
x,y,z
-x,1/2-y,z
x,-y,1/2-z
1/2-x,y,-z
1/2+x,1/2+y,1/2+z
1/2-x,-y,1/2+z
1/2+x,1/2-y,-z
-x,1/2+y,1/2-z
loop_
_atom_site_type_symbol
_atom_site_label
_atom_site_fract_x
_atom_site_fract_y
_atom_site_fract_z
Si Si1 0.264691 0.137963 0.140906
Si Si2 0.090000 0.405031 0.437935
Si Si3 0.797560 0.398727 0.045611
Si Si4 0.647618 0.128434 0.657000
Si Si5 0.566047 0.501314 0.299568
Si Si6 0.500000 0.750000 0.775191
O O1 0.263462 0.160842 0.088419
O O2 0.229124 0.417404 0.158912
O O3 0.355671 0.040025 0.164679
O O4 0.188604 0.919175 0.151431
O O5 0.117177 0.695418 0.453679
O O6 0.090152 0.433000 0.386117
O O7 0.000000 0.250000 0.452366
O O8 0.170347 0.200733 0.449688
O O9 0.750000 0.361224 0.000000
O O10 0.579991 0.123360 0.696591
O O11 0.500000 0.750000 0.302179
O O12 0.603896 0.500000 0.250000
O O13 0.500000 0.250000 0.305827
O O14 0.539674 0.500000 0.750000
#
# Coordination Sequence:
#
# PCOD9333676 Si02
#       6
#     8   8   8   8   8   4
#     4  10  21  37  61  81 109 156 188 235 299 349
#     4  10  19  36  60  79 106 152 195 228 272 346
#     4  10  21  36  56  85 118 144 186 243 291 347
#     4  10  21  37  55  81 112 149 195 228 276 350
#     4  10  21  38  59  83 110 144 193 246 290 345
#     4  12  24  36  52  82 124 154 186 244 292 324
#
# _framework density 19.106290000000001
#
# number of rings (size 3 to 8) (size 9 to 14) (size 15 to 20)
#    0.000    1.818    0.909    3.273    0.000    2.182 
#    0.000    2.727    0.000    0.000    0.000    0.000 
#    0.000    0.000    0.000    0.000    0.000    0.000 
#
# Total GULP energy -122714.373638 kJ/mol
# GULP energy per Si atom -5577.926074 kJ/mol
# Density = 1.906280 g / cm^3
# Si number density = 19.106290 Si / 1000 Ang^3
#
#
#
# Elastic Constant Matrix: (Units=GPa)
#
#
# Indices 1 2 3 4 5 6 
#
# 1 53.2216 -2.7433 49.3681 0.0000 0.0000 0.0000
# 2 -2.7433 97.8451 17.1864 0.0000 0.0000 0.0000
# 3 49.3681 17.1864 102.5024 0.0000 0.0000 0.0000
# 4 0.0000 0.0000 0.0000 16.0533 0.0000 0.0000
# 5 0.0000 0.0000 0.0000 0.0000 8.3682 0.0000
# 6 0.0000 0.0000 0.0000 0.0000 0.0000 22.6781
#
#
#
# Elastic Compliance Matrix: (Units=1/GPa)
#
#
# Indices 1 2 3 4 5 6 
#
# 1 0.035504 0.004120 -0.017791 0.000000 0.000000 0.000000
# 2 0.004120 0.011009 -0.003830 0.000000 0.000000 0.000000
# 3 -0.017791 -0.003830 0.018967 0.000000 0.000000 0.000000
# 4 0.000000 0.000000 0.000000 0.062293 0.000000 0.000000
# 5 0.000000 0.000000 0.000000 0.000000 0.119500 0.000000
# 6 0.000000 0.000000 0.000000 0.000000 0.000000 0.044095
#
#
# Mechanical properties :
#
#
# Convention : Reuss Voigt Hill
#
# Bulk Modulus (GPa) = 32.81033 42.35462 37.58247
# Shear Modulus (GPa) = 14.85760 22.07044 18.46402
#
# Velocity S-wave (km/s) = 2.79162 3.40242 3.11204
# Velocity P-wave (km/s) = 5.25364 6.13607 5.71192
#
# Compressibility (1/GPa) = 0.03047821
#
# Stress axis : x y z
#
# Youngs Moduli (GPa) = 28.16549 90.83850 52.72407
#
# Poissons Ratio (x) = -0.37429 0.93800
# Poissons Ratio (y) = -0.11605 0.20195
# Poissons Ratio (z) = 0.50109 0.34794
#
# Static dielectric constant tensor:
#      x y z
#    x 1.660330 0.000000 0.000000 
#    y 0.000000 0.169400 0.000000 
#    z 0.000000 0.000000 1.681060 
# 
# From -- ./inp_files/38679.got.cif
#   From: 2010.05.17/outbox.cif.g08.bks.cpg/sg24_20_cif.got.tgz:38679.got - 2010.06.04 00:33:39.
