data_PCOD9333405
_publ_section_title
;
Structure prediction by ZEFSAII (Michael W. Deem and Ramdas Pophale) SiO2 
 PCOD9333405
Probable space group: I 21 21 21
;
_chemical_formula_sum "Si O2"
_cell_formula_units_Z 36
_cell_length_a 8.281978
_cell_length_b 13.096649
_cell_length_c 19.783082
_cell_angle_alpha 90.000000
_cell_angle_beta 90.000000
_cell_angle_gamma 90.000000
_cell_volume 2145.794916
_symmetry_space_group_name_H-M "I 21 21 21"
_symmetry_group_IT_number 24
_symmetry_cell_setting 'orthorhombic'
loop_
_space_group_symop_operation_xyz
x,y,z
-x,1/2-y,z
x,-y,1/2-z
1/2-x,y,-z
1/2+x,1/2+y,1/2+z
1/2-x,-y,1/2+z
1/2+x,1/2-y,-z
-x,1/2+y,1/2-z
loop_
_atom_site_type_symbol
_atom_site_label
_atom_site_fract_x
_atom_site_fract_y
_atom_site_fract_z
Si Si1 0.390742 0.943598 0.649048
Si Si2 0.025130 0.634483 0.215919
Si Si3 0.556467 0.636089 0.509835
Si Si4 0.317294 0.500000 0.250000
Si Si5 0.979061 0.627896 0.641406
O O1 0.483002 0.876226 0.704694
O O2 0.469871 0.932839 0.575433
O O3 0.207912 0.904053 0.648325
O O4 0.405860 0.058666 0.676062
O O5 0.200811 0.581756 0.211976
O O6 0.000000 0.750000 0.194330
O O7 0.500000 0.750000 0.526781
O O8 0.750000 0.638354 0.500000
O O9 0.478686 0.607391 0.437720
O O10 0.420287 0.562580 0.304851
O O11 0.000000 0.750000 0.652043
#
# Coordination Sequence:
#
# PCOD9333405 Si02
#       5
#     8   8   8   4   8
#     4   9  18  32  50  71  99 130 158 200 249 291
#     4  10  20  33  49  70  97 133 169 202 239 286
#     4   9  18  30  49  74 100 127 158 199 249 294
#     4  10  20  32  50  76  98 126 168 202 238 290
#     4  10  19  32  51  76 101 126 158 202 248 291
#
# _framework density 16.776999
#
# number of rings (size 3 to 8) (size 9 to 14) (size 15 to 20)
#    0.000    2.667    0.000    3.333    0.000    8.889 
#    0.000    0.000    0.000    9.333    0.000    0.000 
#    0.000    0.000    0.000    0.000    0.000    0.000 
#
# Total GULP energy -100260.454884 kJ/mol
# GULP energy per Si atom -5570.025271 kJ/mol
# Density = 1.673881 g / cm^3
# Si number density = 16.776999 Si / 1000 Ang^3
#
#
#
# Elastic Constant Matrix: (Units=GPa)
#
#
# Indices 1 2 3 4 5 6 
#
# 1 50.3679 36.5595 40.0760 0.0000 0.0000 0.0000
# 2 36.5595 128.1235 67.1783 0.0000 0.0000 0.0000
# 3 40.0760 67.1783 117.3302 0.0000 0.0000 0.0000
# 4 0.0000 0.0000 0.0000 13.4423 0.0000 0.0000
# 5 0.0000 0.0000 0.0000 0.0000 12.2078 0.0000
# 6 0.0000 0.0000 0.0000 0.0000 0.0000 18.7629
#
#
#
# Elastic Compliance Matrix: (Units=1/GPa)
#
#
# Indices 1 2 3 4 5 6 
#
# 1 0.028891 -0.004387 -0.007357 0.000000 0.000000 0.000000
# 2 -0.004387 0.011819 -0.005269 0.000000 0.000000 0.000000
# 3 -0.007357 -0.005269 0.014052 0.000000 0.000000 0.000000
# 4 0.000000 0.000000 0.000000 0.074392 0.000000 0.000000
# 5 0.000000 0.000000 0.000000 0.000000 0.081915 0.000000
# 6 0.000000 0.000000 0.000000 0.000000 0.000000 0.053297
#
#
# Mechanical properties :
#
#
# Convention : Reuss Voigt Hill
#
# Bulk Modulus (GPa) = 48.21916 64.82770 56.52343
# Shear Modulus (GPa) = 16.37708 19.01644 17.69676
#
# Velocity S-wave (km/s) = 3.12775 3.37038 3.25133
# Velocity P-wave (km/s) = 6.46896 7.33966 6.91802
#
# Compressibility (1/GPa) = 0.02073865
#
# Stress axis : x y z
#
# Youngs Moduli (GPa) = 34.61230 84.60732 71.16193
#
# Poissons Ratio (x) = 0.37115 0.52351
# Poissons Ratio (y) = 0.15184 0.37494
# Poissons Ratio (z) = 0.25463 0.44578
#
# Static dielectric constant tensor:
#      x y z
#    x 1.592050 0.000000 0.000000 
#    y 0.000000 1.555670 0.000000 
#    z 0.000000 0.000000 1.595310 
# 
# From -- ./inp_files/13934.got.cif
#   From: 2010.05.17/outbox.cif.g08.bks.cpg/sg24_7_cif.got.tgz:13934.got - 2010.06.04 00:33:39.
