data_PCOD9333354
_publ_section_title
;
Structure prediction by ZEFSAII (Michael W. Deem and Ramdas Pophale) SiO2 
 PCOD9333354
Probable space group: I 21 21 21
;
_chemical_formula_sum "Si O2"
_cell_formula_units_Z 48
_cell_length_a 18.976648
_cell_length_b 15.627193
_cell_length_c 9.296774
_cell_angle_alpha 90.000000
_cell_angle_beta 90.000000
_cell_angle_gamma 90.000000
_cell_volume 2756.974513
_symmetry_space_group_name_H-M "I 21 21 21"
_symmetry_group_IT_number 24
_symmetry_cell_setting 'orthorhombic'
loop_
_space_group_symop_operation_xyz
x,y,z
-x,1/2-y,z
x,-y,1/2-z
1/2-x,y,-z
1/2+x,1/2+y,1/2+z
1/2-x,-y,1/2+z
1/2+x,1/2-y,-z
-x,1/2+y,1/2-z
loop_
_atom_site_type_symbol
_atom_site_label
_atom_site_fract_x
_atom_site_fract_y
_atom_site_fract_z
Si Si1 0.550543 0.085665 0.156789
Si Si2 0.312105 0.694434 0.407424
Si Si3 0.417467 0.092700 0.327981
Si Si4 0.316945 0.873668 0.581788
Si Si5 0.230217 0.809836 0.835006
Si Si6 0.955590 0.488154 0.084383
O O1 0.617959 0.142396 0.124540
O O2 0.485784 0.129725 0.244961
O O3 0.567648 0.000000 0.250000
O O4 0.517252 0.056029 0.006131
O O5 0.250000 0.650328 0.500000
O O6 0.327344 0.782724 0.498228
O O7 0.279808 0.723022 0.254865
O O8 0.345091 0.143141 0.319304
O O9 0.407348 0.000000 0.250000
O O10 0.437430 0.073162 0.492951
O O11 0.250000 0.915440 0.500000
O O12 0.290278 0.859150 0.744107
O O13 0.386065 0.929457 0.575337
O O14 0.250000 0.800623 0.000000
O O15 0.973344 0.500000 0.250000
#
# Coordination Sequence:
#
# PCOD9333354 Si02
#       6
#     8   8   8   8   8   8
#     4   9  19  37  55  72  95 128 169 210 255 308
#     4   9  19  37  55  72  95 128 169 210 255 308
#     4   9  18  30  47  73 102 137 169 194 240 304
#     4   9  18  30  47  73 102 137 169 194 240 304
#     4  10  19  30  47  74 105 132 165 206 243 288
#     4  10  19  30  47  74 105 132 165 206 243 288
#
# _framework density 17.41039
#
# number of rings (size 3 to 8) (size 9 to 14) (size 15 to 20)
#    0.000    3.333    0.000    5.000    0.000    6.667 
#    0.000    8.333    0.000    8.000    0.000    0.000 
#    0.000    0.000    0.000    0.000    0.000    0.000 
#
# Total GULP energy -133699.332522 kJ/mol
# GULP energy per Si atom -5570.805522 kJ/mol
# Density = 1.737076 g / cm^3
# Si number density = 17.410390 Si / 1000 Ang^3
#
#
#
# Elastic Constant Matrix: (Units=GPa)
#
#
# Indices 1 2 3 4 5 6 
#
# 1 129.9229 44.1259 59.1158 0.0000 0.0000 0.0000
# 2 44.1259 19.2749 27.5086 0.0000 0.0000 0.0000
# 3 59.1158 27.5086 173.2805 0.0000 0.0000 0.0000
# 4 0.0000 0.0000 0.0000 5.5559 0.0000 0.0000
# 5 0.0000 0.0000 0.0000 0.0000 14.8648 0.0000
# 6 0.0000 0.0000 0.0000 0.0000 0.0000 39.9828
#
#
#
# Elastic Compliance Matrix: (Units=1/GPa)
#
#
# Indices 1 2 3 4 5 6 
#
# 1 0.034729 -0.080931 0.001000 0.000000 0.000000 0.000000
# 2 -0.080931 0.255681 -0.012980 0.000000 0.000000 0.000000
# 3 0.001000 -0.012980 0.007490 0.000000 0.000000 0.000000
# 4 0.000000 0.000000 0.000000 0.179989 0.000000 0.000000
# 5 0.000000 0.000000 0.000000 0.000000 0.067273 0.000000
# 6 0.000000 0.000000 0.000000 0.000000 0.000000 0.025011
#
#
# Mechanical properties :
#
#
# Convention : Reuss Voigt Hill
#
# Bulk Modulus (GPa) = 8.92236 64.88654 36.90445
# Shear Modulus (GPa) = 6.30236 24.86257 15.58247
#
# Velocity S-wave (km/s) = 1.90466 3.78303 2.99492
# Velocity P-wave (km/s) = 3.15798 7.51209 5.76213
#
# Compressibility (1/GPa) = 0.11207797
#
# Stress axis : x y z
#
# Youngs Moduli (GPa) = 28.79463 3.91113 133.50561
#
# Poissons Ratio (x) = 0.31653 -0.13352
# Poissons Ratio (y) = 2.33039 1.73284
# Poissons Ratio (z) = -0.02880 0.05076
#
# Static dielectric constant tensor:
#      x y z
#    x 1.591680 0.000000 0.000000 
#    y 0.000000 1.612010 0.000000 
#    z 0.000000 0.000000 1.619520 
# 
# From -- ./inp_files/14319.got.cif
#   From: 2010.05.17/outbox.cif.g08.bks.cpg/sg24_8_cif.got.tgz:14319.got - 2010.06.04 00:33:39.
