data_PCOD9333544
_publ_section_title
;
Structure prediction by ZEFSAII (Michael W. Deem and Ramdas Pophale) SiO2 
 PCOD9333544
Probable space group: I 21 21 21
;
_chemical_formula_sum "Si O2"
_cell_formula_units_Z 48
_cell_length_a 12.906386
_cell_length_b 8.134847
_cell_length_c 23.399576
_cell_angle_alpha 90.000000
_cell_angle_beta 90.000000
_cell_angle_gamma 90.000000
_cell_volume 2456.756009
_symmetry_space_group_name_H-M "I 21 21 21"
_symmetry_group_IT_number 24
_symmetry_cell_setting 'orthorhombic'
loop_
_space_group_symop_operation_xyz
x,y,z
-x,1/2-y,z
x,-y,1/2-z
1/2-x,y,-z
1/2+x,1/2+y,1/2+z
1/2-x,-y,1/2+z
1/2+x,1/2-y,-z
-x,1/2+y,1/2-z
loop_
_atom_site_type_symbol
_atom_site_label
_atom_site_fract_x
_atom_site_fract_y
_atom_site_fract_z
Si Si1 0.227857 0.750836 0.605867
Si Si2 0.500000 0.250000 0.092462
Si Si3 0.186269 0.408004 0.443228
Si Si4 0.616941 0.815975 0.828080
Si Si5 0.619648 0.794178 0.701901
Si Si6 0.982177 0.428167 0.513390
Si Si7 0.250000 0.006775 0.000000
O O1 0.108460 0.745128 0.625446
O O2 0.261312 0.577482 0.577758
O O3 0.306223 0.790098 0.656446
O O4 0.236595 0.881783 0.555798
O O5 0.500420 0.413112 0.052748
O O6 0.250000 0.359754 0.500000
O O7 0.181523 0.294558 0.386512
O O8 0.067531 0.437607 0.463056
O O9 0.500000 0.750000 0.837129
O O10 0.652352 0.748001 0.766538
O O11 0.621088 0.011575 0.813936
O O12 0.500000 0.750000 0.695900
O O13 0.863566 0.426801 0.492966
O O14 0.000000 0.250000 0.542365
#
# Coordination Sequence:
#
# PCOD9333544 Si02
#       7
#     8   4   8   8   8   8   4
#     4  10  19  34  58  83 114 157 194 254 292 360
#     4  10  20  40  54  82 124 156 206 238 294 360
#     4  11  19  34  56  83 117 157 191 240 302 357
#     4   9  19  35  52  84 114 149 190 241 300 360
#     4   9  19  34  58  84 112 144 197 244 302 354
#     4  11  23  36  55  83 124 159 199 244 298 361
#     4  10  22  34  52  88 120 158 206 240 300 362
#
# _framework density 19.537959000000001
#
# number of rings (size 3 to 8) (size 9 to 14) (size 15 to 20)
#    0.000    2.000    2.500    1.500    5.833    0.000 
#    0.000    0.000    0.000    0.000    4.333   16.333 
#    0.000    0.000    0.000    0.000    0.000    0.000 
#
# Total GULP energy -133786.621435 kJ/mol
# GULP energy per Si atom -5574.442560 kJ/mol
# Density = 1.949349 g / cm^3
# Si number density = 19.537959 Si / 1000 Ang^3
#
#
#
# Elastic Constant Matrix: (Units=GPa)
#
#
# Indices 1 2 3 4 5 6 
#
# 1 145.1260 16.3187 70.1111 0.0000 0.0000 0.0000
# 2 16.3187 49.6280 11.0560 0.0000 0.0000 0.0000
# 3 70.1111 11.0560 147.8116 0.0000 0.0000 0.0000
# 4 0.0000 0.0000 0.0000 7.3060 0.0000 0.0000
# 5 0.0000 0.0000 0.0000 0.0000 25.0986 0.0000
# 6 0.0000 0.0000 0.0000 0.0000 0.0000 15.5654
#
#
#
# Elastic Compliance Matrix: (Units=1/GPa)
#
#
# Indices 1 2 3 4 5 6 
#
# 1 0.009144 -0.002075 -0.004182 0.000000 0.000000 0.000000
# 2 -0.002075 0.020962 -0.000584 0.000000 0.000000 0.000000
# 3 -0.004182 -0.000584 0.008793 0.000000 0.000000 0.000000
# 4 0.000000 0.000000 0.000000 0.136873 0.000000 0.000000
# 5 0.000000 0.000000 0.000000 0.000000 0.039843 0.000000
# 6 0.000000 0.000000 0.000000 0.000000 0.000000 0.064245
#
#
# Mechanical properties :
#
#
# Convention : Reuss Voigt Hill
#
# Bulk Modulus (GPa) = 39.65514 59.72637 49.69075
# Shear Modulus (GPa) = 16.55912 25.93266 21.24589
#
# Velocity S-wave (km/s) = 2.91440 3.64716 3.30118
# Velocity P-wave (km/s) = 5.62721 6.95496 6.32602
#
# Compressibility (1/GPa) = 0.02521741
#
# Stress axis : x y z
#
# Youngs Moduli (GPa) = 109.35728 47.70473 113.73008
#
# Poissons Ratio (x) = 0.09899 0.47564
# Poissons Ratio (y) = 0.22693 0.06638
# Poissons Ratio (z) = 0.45735 0.02784
#
# Static dielectric constant tensor:
#      x y z
#    x 1.691280 0.000000 0.000000 
#    y 0.000000 1.751970 0.000000 
#    z 0.000000 0.000000 1.697090 
# 
# From -- ./inp_files/18644.got.cif
#   From: 2010.05.17/outbox.cif.g08.bks.cpg/sg24_10_cif.got.tgz:18644.got - 2010.06.04 00:33:39.
