data_PCOD9333265
_publ_section_title
;
Structure prediction by ZEFSAII (Michael W. Deem and Ramdas Pophale) SiO2 
 PCOD9333265
Probable space group: I 21 21 21
;
_chemical_formula_sum "Si O2"
_cell_formula_units_Z 32
_cell_length_a 6.205784
_cell_length_b 6.995633
_cell_length_c 29.157117
_cell_angle_alpha 90.000000
_cell_angle_beta 90.000000
_cell_angle_gamma 90.000000
_cell_volume 1265.809214
_symmetry_space_group_name_H-M "I 21 21 21"
_symmetry_group_IT_number 24
_symmetry_cell_setting 'orthorhombic'
loop_
_space_group_symop_operation_xyz
x,y,z
-x,1/2-y,z
x,-y,1/2-z
1/2-x,y,-z
1/2+x,1/2+y,1/2+z
1/2-x,-y,1/2+z
1/2+x,1/2-y,-z
-x,1/2+y,1/2-z
loop_
_atom_site_type_symbol
_atom_site_label
_atom_site_fract_x
_atom_site_fract_y
_atom_site_fract_z
Si Si1 0.372599 0.944146 0.042383
Si Si2 0.500000 0.250000 0.598792
Si Si3 0.153328 0.460840 0.870651
Si Si4 0.000000 0.750000 0.796786
Si Si5 0.657809 0.500000 0.750000
Si Si6 0.000000 0.750000 0.326976
O O1 0.500000 0.750000 0.026097
O O2 0.532612 0.038271 0.080027
O O3 0.169126 0.871264 0.070382
O O4 0.250000 0.048844 0.000000
O O5 0.353888 0.396157 0.625151
O O6 0.024323 0.566311 0.830297
O O7 0.277819 0.268956 0.855942
O O8 0.195104 0.818948 0.764721
O O9 0.521540 0.570220 0.706930
#
# Coordination Sequence:
#
# PCOD9333265 Si02
#       6
#     8   4   8   4   4   4
#     4  10  19  34  65 107 145 179 244 303 357 422
#     4  10  18  38  62 106 134 184 226 306 344 422
#     4  11  23  39  66 104 142 190 240 302 359 440
#     4  12  22  43  66 102 141 183 256 294 363 430
#     4  12  26  44  70 100 144 196 238 312 358 430
#     4  12  26  45  66 102 149 193 248 296 377 430
#
# _framework density 25.280270999999999
#
# number of rings (size 3 to 8) (size 9 to 14) (size 15 to 20)
#    0.000    1.000    5.000    4.500    0.000    0.000 
#    0.000    0.000    0.000    0.000    6.500   15.750 
#    0.000    0.000    0.000    0.000    0.000    0.000 
#
# Total GULP energy -89403.651202 kJ/mol
# GULP energy per Si atom -5587.728200 kJ/mol
# Density = 2.522273 g / cm^3
# Si number density = 25.280271 Si / 1000 Ang^3
#
#
#
# Elastic Constant Matrix: (Units=GPa)
#
#
# Indices 1 2 3 4 5 6 
#
# 1 112.0380 29.1622 74.6382 0.0000 0.0000 0.0000
# 2 29.1622 77.1909 44.2122 0.0000 0.0000 0.0000
# 3 74.6382 44.2122 158.0707 0.0000 0.0000 0.0000
# 4 0.0000 0.0000 0.0000 -12.8676 0.0000 0.0000
# 5 0.0000 0.0000 0.0000 0.0000 110.1147 0.0000
# 6 0.0000 0.0000 0.0000 0.0000 0.0000 55.5701
#
#
#
# Elastic Compliance Matrix: (Units=1/GPa)
#
#
# Indices 1 2 3 4 5 6 
#
# 1 0.013204 -0.001688 -0.005763 0.000000 0.000000 0.000000
# 2 -0.001688 0.015642 -0.003578 0.000000 0.000000 0.000000
# 3 -0.005763 -0.003578 0.010048 0.000000 0.000000 0.000000
# 4 0.000000 0.000000 0.000000 -0.077714 0.000000 0.000000
# 5 0.000000 0.000000 0.000000 0.000000 0.009081 0.000000
# 6 0.000000 0.000000 0.000000 0.000000 0.000000 0.017995
#
#
# Mechanical properties :
#
#
# Convention : Reuss Voigt Hill
#
# Bulk Modulus (GPa) = 59.39304 71.48053 65.43678
# Shear Modulus (GPa) = 313.96814 43.84923 178.90869
#
# Velocity S-wave (km/s) = 11.15637 4.16928 8.42162
# Velocity P-wave (km/s) = 13.76581 7.17731 10.97751
#
# Compressibility (1/GPa) = 0.01683699
#
# Stress axis : x y z
#
# Youngs Moduli (GPa) = 75.73605 63.93080 99.52192
#
# Poissons Ratio (x) = 0.10790 0.57350
# Poissons Ratio (y) = 0.12782 0.35610
# Poissons Ratio (z) = 0.43643 0.22875
#
# Static dielectric constant tensor:
#      x y z
#    x 2.309310 0.000000 0.000000 
#    y 0.000000 1.808090 0.000000 
#    z 0.000000 0.000000 1.965290 
# 
# From -- ./inp_files/1222.got.cif
#   From: 2010.05.17/outbox.cif.g08.bks.cpg/sg24_1_cif.got.tgz:1222.got - 2010.06.04 00:33:39.
