data_PCOD9333109
_publ_section_title
;
Structure prediction by ZEFSAII (Michael W. Deem and Ramdas Pophale) SiO2 
 PCOD9333109
Probable space group: I 21 21 21
;
_chemical_formula_sum "Si O2"
_cell_formula_units_Z 40
_cell_length_a 5.098263
_cell_length_b 13.617788
_cell_length_c 30.367164
_cell_angle_alpha 90.000000
_cell_angle_beta 90.000000
_cell_angle_gamma 90.000000
_cell_volume 2108.303060
_symmetry_space_group_name_H-M "I 21 21 21"
_symmetry_group_IT_number 24
_symmetry_cell_setting 'orthorhombic'
loop_
_space_group_symop_operation_xyz
x,y,z
-x,1/2-y,z
x,-y,1/2-z
1/2-x,y,-z
1/2+x,1/2+y,1/2+z
1/2-x,-y,1/2+z
1/2+x,1/2-y,-z
-x,1/2+y,1/2-z
loop_
_atom_site_type_symbol
_atom_site_label
_atom_site_fract_x
_atom_site_fract_y
_atom_site_fract_z
Si Si1 0.348095 0.645411 0.286190
Si Si2 0.114311 0.491786 0.863606
Si Si3 0.500000 0.750000 0.651909
Si Si4 0.863991 0.408323 0.092595
Si Si5 0.250000 0.181985 0.000000
Si Si6 0.747891 0.179420 0.312330
O O1 0.500000 0.750000 0.287735
O O2 0.467409 0.561694 0.317182
O O3 0.089082 0.667264 0.314143
O O4 0.280123 0.627579 0.235668
O O5 0.342684 0.437521 0.891858
O O6 0.230872 0.596096 0.849167
O O7 0.849345 0.487541 0.891916
O O8 0.303980 0.806313 0.619193
O O9 0.835559 0.382957 0.041685
O O10 0.500000 0.250000 0.011693
O O11 0.500000 0.250000 0.317149
O O12 0.000000 0.250000 0.312582
#
# Coordination Sequence:
#
# PCOD9333109 Si02
#       6
#     8   8   4   8   4   8
#     4  10  19  33  54  82 121 156 197 240 287 352
#     4  11  23  38  59  85 118 160 204 241 296 354
#     4  10  18  34  52  84 120 164 186 226 274 362
#     4  11  23  37  59  86 122 157 191 232 290 359
#     4  12  24  38  60  94 126 156 188 228 290 372
#     4  11  23  39  57  83 115 158 209 259 292 327
#
# _framework density 18.972604
#
# number of rings (size 3 to 8) (size 9 to 14) (size 15 to 20)
#    0.000    1.200    4.000    3.000    2.800    0.000 
#    0.000    4.000    0.000    0.000    0.000   14.000 
#    0.000    0.000    0.000    0.000    0.000    0.000 
#
# Total GULP energy -111447.373722 kJ/mol
# GULP energy per Si atom -5572.368686 kJ/mol
# Density = 1.892942 g / cm^3
# Si number density = 18.972604 Si / 1000 Ang^3
#
#
#
# Elastic Constant Matrix: (Units=GPa)
#
#
# Indices 1 2 3 4 5 6 
#
# 1 87.9889 11.6738 17.7169 0.0000 0.0000 0.0000
# 2 11.6738 49.9619 36.6618 0.0000 0.0000 0.0000
# 3 17.7169 36.6618 109.8914 0.0000 0.0000 0.0000
# 4 0.0000 0.0000 0.0000 20.7481 0.0000 0.0000
# 5 0.0000 0.0000 0.0000 0.0000 25.9368 0.0000
# 6 0.0000 0.0000 0.0000 0.0000 0.0000 19.7443
#
#
#
# Elastic Compliance Matrix: (Units=1/GPa)
#
#
# Indices 1 2 3 4 5 6 
#
# 1 0.011869 -0.001813 -0.001309 0.000000 0.000000 0.000000
# 2 -0.001813 0.026780 -0.008642 0.000000 0.000000 0.000000
# 3 -0.001309 -0.008642 0.012194 0.000000 0.000000 0.000000
# 4 0.000000 0.000000 0.000000 0.048197 0.000000 0.000000
# 5 0.000000 0.000000 0.000000 0.000000 0.038555 0.000000
# 6 0.000000 0.000000 0.000000 0.000000 0.000000 0.050647
#
#
# Mechanical properties :
#
#
# Convention : Reuss Voigt Hill
#
# Bulk Modulus (GPa) = 36.60863 42.21637 39.41250
# Shear Modulus (GPa) = 22.63710 25.40517 24.02114
#
# Velocity S-wave (km/s) = 3.45794 3.66327 3.56208
# Velocity P-wave (km/s) = 5.93974 6.33973 6.14300
#
# Compressibility (1/GPa) = 0.02731597
#
# Stress axis : x y z
#
# Youngs Moduli (GPa) = 84.25228 37.34072 82.00709
#
# Poissons Ratio (x) = 0.06770 0.10733
# Poissons Ratio (y) = 0.15274 0.70872
# Poissons Ratio (z) = 0.11026 0.32270
#
# Static dielectric constant tensor:
#      x y z
#    x 1.728390 0.000000 0.000000 
#    y 0.000000 1.694550 0.000000 
#    z 0.000000 0.000000 1.659260 
# 
# From -- ./inp_files/36354.got.cif
#   From: 2010.05.17/outbox.cif.g08.bks.cpg/sg24_19_cif.got.tgz:36354.got - 2010.06.04 00:33:39.
