data_PCOD9333875
_publ_section_title
;
Structure prediction by ZEFSAII (Michael W. Deem and Ramdas Pophale) SiO2 
 PCOD9333875
Probable space group: I 21 21 21
;
_chemical_formula_sum "Si O2"
_cell_formula_units_Z 56
_cell_length_a 13.999194
_cell_length_b 7.473334
_cell_length_c 27.908546
_cell_angle_alpha 90.000000
_cell_angle_beta 90.000000
_cell_angle_gamma 90.000000
_cell_volume 2919.810293
_symmetry_space_group_name_H-M "I 21 21 21"
_symmetry_group_IT_number 24
_symmetry_cell_setting 'orthorhombic'
loop_
_space_group_symop_operation_xyz
x,y,z
-x,1/2-y,z
x,-y,1/2-z
1/2-x,y,-z
1/2+x,1/2+y,1/2+z
1/2-x,-y,1/2+z
1/2+x,1/2-y,-z
-x,1/2+y,1/2-z
loop_
_atom_site_type_symbol
_atom_site_label
_atom_site_fract_x
_atom_site_fract_y
_atom_site_fract_z
Si Si1 0.235836 0.425239 0.101080
Si Si2 0.430836 0.028798 0.194807
Si Si3 0.854493 0.064864 0.804311
Si Si4 0.201257 0.082347 0.049944
Si Si5 0.152939 0.703072 0.032213
Si Si6 0.575031 0.974980 0.055582
Si Si7 0.382566 0.088459 0.401689
O O1 0.271457 0.451400 0.155829
O O2 0.176129 0.251125 0.083477
O O3 0.180478 0.597067 0.080220
O O4 0.337154 0.403357 0.072266
O O5 0.541935 0.975088 0.185967
O O6 0.393273 0.231535 0.189588
O O7 0.412746 0.000000 0.250000
O O8 0.376396 0.918849 0.155076
O O9 0.828371 0.000000 0.750000
O O10 0.130262 0.914021 0.039285
O O11 0.285730 0.983538 0.077706
O O12 0.250000 0.143385 0.000000
O O13 0.250000 0.703069 0.000000
O O14 0.081832 0.582093 0.000012
O O15 0.471654 0.024931 0.076298
O O16 0.599437 0.787815 0.081386
#
# Coordination Sequence:
#
# PCOD9333875 Si02
#       7
#     8   8   8   8   8   8   8
#     4  11  19  32  49  65  91 125 161 201 244 285
#     4  10  21  32  45  64  90 127 169 207 245 273
#     4  10  21  32  43  64  92 122 166 210 241 279
#     4  11  19  31  49  69  93 121 162 200 245 289
#     4   9  18  34  44  67  92 119 160 194 242 295
#     4  10  20  31  48  68  92 125 162 197 242 288
#     4  11  19  31  51  69  94 128 164 206 237 283
#
# _framework density 19.179328000000002
#
# number of rings (size 3 to 8) (size 9 to 14) (size 15 to 20)
#    0.000    1.714    7.143    1.286    2.000    1.714 
#    0.000    0.000    0.000    0.000    0.000    0.000 
#    0.000    0.000    0.000    6.429    0.000    0.429 
#
# Total GULP energy -155916.037484 kJ/mol
# GULP energy per Si atom -5568.429910 kJ/mol
# Density = 1.913568 g / cm^3
# Si number density = 19.179328 Si / 1000 Ang^3
#
#
#
# Elastic Constant Matrix: (Units=GPa)
#
#
# Indices 1 2 3 4 5 6 
#
# 1 21.0329 3.1140 16.9083 0.0000 0.0000 0.0000
# 2 3.1140 60.8936 26.8359 0.0000 0.0000 0.0000
# 3 16.9083 26.8359 147.8533 0.0000 0.0000 0.0000
# 4 0.0000 0.0000 0.0000 19.3990 0.0000 0.0000
# 5 0.0000 0.0000 0.0000 0.0000 120.1792 0.0000
# 6 0.0000 0.0000 0.0000 0.0000 0.0000 10.0808
#
#
#
# Elastic Compliance Matrix: (Units=1/GPa)
#
#
# Indices 1 2 3 4 5 6 
#
# 1 0.052358 -0.000042 -0.005980 0.000000 0.000000 0.000000
# 2 -0.000042 0.017850 -0.003235 0.000000 0.000000 0.000000
# 3 -0.005980 -0.003235 0.008034 0.000000 0.000000 0.000000
# 4 0.000000 0.000000 0.000000 0.051549 0.000000 0.000000
# 5 0.000000 0.000000 0.000000 0.000000 0.008321 0.000000
# 6 0.000000 0.000000 0.000000 0.000000 0.000000 0.099199
#
#
# Mechanical properties :
#
#
# Convention : Reuss Voigt Hill
#
# Bulk Modulus (GPa) = 16.74250 35.94401 26.34325
# Shear Modulus (GPa) = 18.13340 42.12658 30.12999
#
# Velocity S-wave (km/s) = 3.07818 4.69172 3.96784
# Velocity P-wave (km/s) = 4.62406 6.93768 5.89548
#
# Compressibility (1/GPa) = 0.05972824
#
# Stress axis : x y z
#
# Youngs Moduli (GPa) = 19.09928 56.02271 124.46356
#
# Poissons Ratio (x) = 0.00236 0.74428
# Poissons Ratio (y) = 0.00080 0.40264
# Poissons Ratio (z) = 0.11421 0.18123
#
# Static dielectric constant tensor:
#      x y z
#    x 1.737400 0.000000 0.000000 
#    y 0.000000 1.807560 0.000000 
#    z 0.000000 0.000000 1.697150 
# 
# From -- ./inp_files/35999.got.cif
#   From: 2010.05.17/outbox.cif.g08.bks.cpg/sg24_18_cif.got.tgz:35999.got - 2010.06.04 00:33:39.
