data_PCOD9333904
_publ_section_title
;
Structure prediction by ZEFSAII (Michael W. Deem and Ramdas Pophale) SiO2 
 PCOD9333904
Probable space group: I 21 21 21
;
_chemical_formula_sum "Si O2"
_cell_formula_units_Z 60
_cell_length_a 7.302939
_cell_length_b 12.918901
_cell_length_c 29.348309
_cell_angle_alpha 90.000000
_cell_angle_beta 90.000000
_cell_angle_gamma 90.000000
_cell_volume 2768.893975
_symmetry_space_group_name_H-M "I 21 21 21"
_symmetry_group_IT_number 24
_symmetry_cell_setting 'orthorhombic'
loop_
_space_group_symop_operation_xyz
x,y,z
-x,1/2-y,z
x,-y,1/2-z
1/2-x,y,-z
1/2+x,1/2+y,1/2+z
1/2-x,-y,1/2+z
1/2+x,1/2-y,-z
-x,1/2+y,1/2-z
loop_
_atom_site_type_symbol
_atom_site_label
_atom_site_fract_x
_atom_site_fract_y
_atom_site_fract_z
Si Si1 0.763032 0.841886 0.554102
Si Si2 0.278071 0.931951 0.788534
Si Si3 0.192586 0.885634 0.553203
Si Si4 0.715943 0.223310 0.553613
Si Si5 0.000000 0.750000 0.260403
Si Si6 0.339665 0.449159 0.796294
Si Si7 0.744040 0.587441 0.887471
Si Si8 0.831855 0.031903 0.390379
O O1 0.750000 0.848718 0.500000
O O2 0.717418 0.723993 0.566936
O O3 0.977030 0.865820 0.560802
O O4 0.647123 0.929085 0.579232
O O5 0.369991 0.825886 0.769617
O O6 0.178422 0.912542 0.836287
O O7 0.175247 0.000000 0.750000
O O8 0.451139 0.007804 0.798554
O O9 0.250000 0.904553 0.500000
O O10 0.231594 0.982594 0.584667
O O11 0.500000 0.250000 0.556042
O O12 0.750000 0.217573 0.500000
O O13 0.805140 0.318024 0.580996
O O14 0.768665 0.116649 0.578718
O O15 0.130740 0.673329 0.289462
O O16 0.263634 0.500000 0.750000
O O17 0.251323 0.490818 0.842660
O O18 0.523278 0.589628 0.880424
#
# Coordination Sequence:
#
# PCOD9333904 Si02
#       8
#     8   8   8   8   4   8   8   8
#     4  10  21  36  55  76 102 136 172 218 270 319
#     4   8  16  27  45  74 105 138 172 215 265 312
#     4  10  21  37  54  76 104 134 174 220 269 319
#     4  10  22  35  50  75 107 145 181 220 263 312
#     4   8  14  26  46  70 110 138 168 216 264 314
#     4   8  16  27  45  74 103 136 174 214 264 313
#     4  10  20  32  54  77 109 140 178 218 266 316
#     4  10  20  33  52  79 107 141 176 218 264 317
#
# _framework density 21.669304
#
# number of rings (size 3 to 8) (size 9 to 14) (size 15 to 20)
#    0.000    2.933    0.000    1.600    6.533    8.000 
#    0.000    0.000    0.000    0.800    0.000    0.000 
#    0.000    0.000    0.000    0.000    0.000    0.000 
#
# Total GULP energy -167157.083134 kJ/mol
# GULP energy per Si atom -5571.902771 kJ/mol
# Density = 2.161998 g / cm^3
# Si number density = 21.669304 Si / 1000 Ang^3
#
#
#
# Elastic Constant Matrix: (Units=GPa)
#
#
# Indices 1 2 3 4 5 6 
#
# 1 34.6142 5.4953 -4.1604 0.0000 0.0000 0.0000
# 2 5.4953 174.4585 114.4992 0.0000 0.0000 0.0000
# 3 -4.1604 114.4992 180.5269 0.0000 0.0000 0.0000
# 4 0.0000 0.0000 0.0000 13.3025 0.0000 0.0000
# 5 0.0000 0.0000 0.0000 0.0000 9.7979 0.0000
# 6 0.0000 0.0000 0.0000 0.0000 0.0000 117.1703
#
#
#
# Elastic Compliance Matrix: (Units=1/GPa)
#
#
# Indices 1 2 3 4 5 6 
#
# 1 0.029526 -0.002358 0.002176 0.000000 0.000000 0.000000
# 2 -0.002358 0.010008 -0.006402 0.000000 0.000000 0.000000
# 3 0.002176 -0.006402 0.009650 0.000000 0.000000 0.000000
# 4 0.000000 0.000000 0.000000 0.075174 0.000000 0.000000
# 5 0.000000 0.000000 0.000000 0.000000 0.102063 0.000000
# 6 0.000000 0.000000 0.000000 0.000000 0.000000 0.008535
#
#
# Mechanical properties :
#
#
# Convention : Reuss Voigt Hill
#
# Bulk Modulus (GPa) = 27.76568 69.02977 48.39772
# Shear Modulus (GPa) = 19.22131 46.30517 32.76324
#
# Velocity S-wave (km/s) = 2.98153 4.62768 3.89262
# Velocity P-wave (km/s) = 4.96930 7.77683 6.52583
#
# Compressibility (1/GPa) = 0.03601569
#
# Stress axis : x y z
#
# Youngs Moduli (GPa) = 33.86863 99.92053 103.62803
#
# Poissons Ratio (x) = 0.23564 -0.22552
# Poissons Ratio (y) = 0.07987 0.66342
# Poissons Ratio (z) = -0.07371 0.63968
#
# Static dielectric constant tensor:
#      x y z
#    x 1.923680 0.000000 0.000000 
#    y 0.000000 1.788040 0.000000 
#    z 0.000000 0.000000 1.832370 
# 
# From -- ./inp_files/38393.got.cif
#   From: 2010.05.17/outbox.cif.g08.bks.cpg/sg24_20_cif.got.tgz:38393.got - 2010.06.04 00:33:39.
