data_PCOD9333463
_publ_section_title
;
Structure prediction by ZEFSAII (Michael W. Deem and Ramdas Pophale) SiO2 
 PCOD9333463
Probable space group: I 21 21 21
;
_chemical_formula_sum "Si O2"
_cell_formula_units_Z 56
_cell_length_a 9.870880
_cell_length_b 21.642346
_cell_length_c 14.144493
_cell_angle_alpha 90.000000
_cell_angle_beta 90.000000
_cell_angle_gamma 90.000000
_cell_volume 3021.673899
_symmetry_space_group_name_H-M "I 21 21 21"
_symmetry_group_IT_number 24
_symmetry_cell_setting 'orthorhombic'
loop_
_space_group_symop_operation_xyz
x,y,z
-x,1/2-y,z
x,-y,1/2-z
1/2-x,y,-z
1/2+x,1/2+y,1/2+z
1/2-x,-y,1/2+z
1/2+x,1/2-y,-z
-x,1/2+y,1/2-z
loop_
_atom_site_type_symbol
_atom_site_label
_atom_site_fract_x
_atom_site_fract_y
_atom_site_fract_z
Si Si1 0.248837 0.407662 0.213041
Si Si2 0.393303 0.005134 0.483189
Si Si3 0.654720 0.564065 0.296405
Si Si4 0.667846 0.027278 0.403031
Si Si5 0.903371 0.301745 0.023445
Si Si6 0.440891 0.918961 0.654151
Si Si7 0.478206 0.680207 0.315116
O O1 0.280745 0.429367 0.319233
O O2 0.315540 0.458137 0.141111
O O3 0.324423 0.343401 0.193369
O O4 0.088437 0.409478 0.197337
O O5 0.250000 0.038134 0.500000
O O6 0.513926 0.040804 0.433068
O O7 0.356837 0.950041 0.408979
O O8 0.446237 0.976157 0.580787
O O9 0.605910 0.500000 0.250000
O O10 0.814420 0.571390 0.275851
O O11 0.570013 0.624911 0.271852
O O12 0.750000 0.030867 0.500000
O O13 0.976122 0.317805 0.924538
O O14 0.000000 0.250000 0.067884
O O15 0.750000 0.281410 0.000000
O O16 0.900765 0.359776 0.092034
O O17 0.500000 0.750000 0.278467
#
# Coordination Sequence:
#
# PCOD9333463 Si02
#       7
#     8   8   8   8   8   8   8
#     4  11  24  35  57  90 119 165 199 254 314 371
#     4  10  19  33  53  78 114 158 191 242 298 353
#     4  11  21  35  56  82 118 161 206 254 300 366
#     4  11  21  38  59  85 123 150 209 252 316 370
#     4  11  22  36  56  83 123 169 209 235 304 379
#     4  11  21  35  53  82 123 158 200 247 301 365
#     4  11  23  39  57  85 121 162 211 246 304 377
#
# _framework density 18.532775000000001
#
# number of rings (size 3 to 8) (size 9 to 14) (size 15 to 20)
#    0.000    1.143    5.714    1.286    6.000    0.000 
#    0.000    0.000    0.000    0.000    0.000   11.000 
#    0.000    0.000    0.000    0.000    0.000    0.000 
#
# Total GULP energy -156274.084430 kJ/mol
# GULP energy per Si atom -5581.217301 kJ/mol
# Density = 1.849059 g / cm^3
# Si number density = 18.532775 Si / 1000 Ang^3
#
#
#
# Elastic Constant Matrix: (Units=GPa)
#
#
# Indices 1 2 3 4 5 6 
#
# 1 147.9690 22.4565 35.4196 0.0000 0.0000 0.0000
# 2 22.4565 85.5459 18.3734 0.0001 0.0000 0.0000
# 3 35.4196 18.3734 67.0164 0.0001 0.0000 0.0000
# 4 0.0000 0.0001 0.0001 17.2407 0.0000 0.0000
# 5 0.0000 0.0000 0.0000 0.0000 17.6508 0.0000
# 6 0.0000 0.0000 0.0000 0.0000 0.0000 25.3132
#
#
#
# Elastic Compliance Matrix: (Units=1/GPa)
#
#
# Indices 1 2 3 4 5 6 
#
# 1 0.007860 -0.001244 -0.003813 0.000000 0.000000 0.000000
# 2 -0.001244 0.012618 -0.002802 0.000000 0.000000 0.000000
# 3 -0.003813 -0.002802 0.017705 0.000000 0.000000 0.000000
# 4 0.000000 0.000000 0.000000 0.058002 0.000000 0.000000
# 5 0.000000 0.000000 0.000000 0.000000 0.056655 0.000000
# 6 0.000000 0.000000 0.000000 0.000000 0.000000 0.039505
#
#
# Mechanical properties :
#
#
# Convention : Reuss Voigt Hill
#
# Bulk Modulus (GPa) = 44.51390 50.33672 47.42531
# Shear Modulus (GPa) = 23.19635 26.99304 25.09469
#
# Velocity S-wave (km/s) = 3.54169 3.82056 3.68376
# Velocity P-wave (km/s) = 6.38717 6.83243 6.61355
#
# Compressibility (1/GPa) = 0.02246489
#
# Stress axis : x y z
#
# Youngs Moduli (GPa) = 127.23109 79.25165 56.48105
#
# Poissons Ratio (x) = 0.09861 0.21536
# Poissons Ratio (y) = 0.15832 0.15825
# Poissons Ratio (z) = 0.48512 0.22204
#
# Static dielectric constant tensor:
#      x y z
#    x 1.713210 0.000000 0.000000 
#    y 0.000000 1.669000 0.000000 
#    z 0.000000 0.000000 1.653080 
# 
# From -- ./inp_files/25073.got.cif
#   From: 2010.05.17/outbox.cif.g08.bks.cpg/sg24_13_cif.got.tgz:25073.got - 2010.06.04 00:33:39.
