data_PCOD9333130
_publ_section_title
;
Structure prediction by ZEFSAII (Michael W. Deem and Ramdas Pophale) SiO2 
 PCOD9333130
Probable space group: I 21 21 21
;
_chemical_formula_sum "Si O2"
_cell_formula_units_Z 64
_cell_length_a 21.046712
_cell_length_b 9.811241
_cell_length_c 16.769480
_cell_angle_alpha 90.000000
_cell_angle_beta 90.000000
_cell_angle_gamma 90.000000
_cell_volume 3462.803102
_symmetry_space_group_name_H-M "I 21 21 21"
_symmetry_group_IT_number 24
_symmetry_cell_setting 'orthorhombic'
loop_
_space_group_symop_operation_xyz
x,y,z
-x,1/2-y,z
x,-y,1/2-z
1/2-x,y,-z
1/2+x,1/2+y,1/2+z
1/2-x,-y,1/2+z
1/2+x,1/2-y,-z
-x,1/2+y,1/2-z
loop_
_atom_site_type_symbol
_atom_site_label
_atom_site_fract_x
_atom_site_fract_y
_atom_site_fract_z
Si Si1 0.069712 0.318791 0.927168
Si Si2 0.757969 0.002579 0.094999
Si Si3 0.936184 0.165258 0.748360
Si Si4 0.639490 0.773624 0.587559
Si Si5 0.123680 0.398080 0.592840
Si Si6 0.040901 0.485573 0.154962
Si Si7 0.365407 0.703125 0.916314
Si Si8 0.607190 0.495887 0.654310
O O1 0.088855 0.290372 0.835412
O O2 0.072125 0.484812 0.930644
O O3 0.000000 0.250000 0.940903
O O4 0.120486 0.274919 0.994010
O O5 0.686601 0.979031 0.122747
O O6 0.803427 0.876126 0.116548
O O7 0.798872 0.137526 0.110456
O O8 0.750000 0.001778 0.000000
O O9 0.896760 0.189460 0.668343
O O10 0.000000 0.250000 0.738932
O O11 0.945860 0.000000 0.750000
O O12 0.644911 0.622212 0.618544
O O13 0.579869 0.852822 0.627673
O O14 0.136339 0.312998 0.512446
O O15 0.045729 0.500000 0.250000
O O16 0.075050 0.614637 0.114765
O O17 0.967108 0.481280 0.133243
O O18 0.370907 0.853840 0.882995
O O19 0.612115 0.500000 0.750000
#
# Coordination Sequence:
#
# PCOD9333130 Si02
#       8
#     8   8   8   8   8   8   8   8
#     4  10  18  34  58  86 115 147 189 244 295 349
#     4   9  18  38  63  80 110 147 200 245 278 344
#     4   9  20  36  57  86 122 151 183 246 304 354
#     4  11  20  35  61  82 114 157 200 241 288 352
#     4  10  19  39  63  86 114 152 197 240 291 353
#     4  10  19  34  54  79 113 155 194 235 283 342
#     4  10  20  35  56  82 112 151 197 239 286 357
#     4  11  23  36  51  83 125 152 186 244 299 339
#
# _framework density 18.482137000000002
#
# number of rings (size 3 to 8) (size 9 to 14) (size 15 to 20)
#    0.000    2.000    3.750    2.250    0.000    3.000 
#    4.500   13.125    0.000    0.750    0.000    0.000 
#    0.000    0.000    0.000    0.000    0.000    0.000 
#
# Total GULP energy -178325.553701 kJ/mol
# GULP energy per Si atom -5572.673553 kJ/mol
# Density = 1.844007 g / cm^3
# Si number density = 18.482137 Si / 1000 Ang^3
#
#
#
# Elastic Constant Matrix: (Units=GPa)
#
#
# Indices 1 2 3 4 5 6 
#
# 1 71.3981 28.4487 29.6665 0.0000 0.0000 0.0000
# 2 28.4487 107.3207 29.3039 0.0000 0.0000 0.0000
# 3 29.6665 29.3039 79.8053 0.0000 0.0000 0.0000
# 4 0.0000 0.0000 0.0000 22.4001 0.0000 0.0000
# 5 0.0000 0.0000 0.0000 0.0000 -23.4810 0.0000
# 6 0.0000 0.0000 0.0000 0.0000 0.0000 9.0440
#
#
#
# Elastic Compliance Matrix: (Units=1/GPa)
#
#
# Indices 1 2 3 4 5 6 
#
# 1 0.017489 -0.003180 -0.005334 0.000000 0.000000 0.000000
# 2 -0.003180 0.010934 -0.002833 0.000000 0.000000 0.000000
# 3 -0.005334 -0.002833 0.015554 0.000000 0.000000 0.000000
# 4 0.000000 0.000000 0.000000 0.044643 0.000000 0.000000
# 5 0.000000 0.000000 0.000000 0.000000 -0.042588 0.000000
# 6 0.000000 0.000000 0.000000 0.000000 0.000000 0.110570
#
#
# Mechanical properties :
#
#
# Convention : Reuss Voigt Hill
#
# Bulk Modulus (GPa) = 46.98351 48.15135 47.56743
# Shear Modulus (GPa) = 26.82554 12.99963 19.91258
#
# Velocity S-wave (km/s) = 3.81390 2.65497 3.28593
# Velocity P-wave (km/s) = 6.69856 5.95886 6.33950
#
# Compressibility (1/GPa) = 0.02128406
#
# Stress axis : x y z
#
# Youngs Moduli (GPa) = 57.17834 91.45550 64.29413
#
# Poissons Ratio (x) = 0.29080 0.34293
# Poissons Ratio (y) = 0.18181 0.18215
# Poissons Ratio (z) = 0.30498 0.25909
#
# Static dielectric constant tensor:
#      x y z
#    x 1.682160 0.000000 0.000000 
#    y 0.000000 1.629550 0.000000 
#    z 0.000000 0.000000 1.676780 
# 
# From -- ./inp_files/31401.got.cif
#   From: 2010.05.17/outbox.cif.g08.bks.cpg/sg24_16_cif.got.tgz:31401.got - 2010.06.04 00:33:39.
