data_PCOD9333906
_publ_section_title
;
Structure prediction by ZEFSAII (Michael W. Deem and Ramdas Pophale) SiO2 
 PCOD9333906
Probable space group: I 21 21 21
;
_chemical_formula_sum "Si O2"
_cell_formula_units_Z 60
_cell_length_a 10.973176
_cell_length_b 31.236923
_cell_length_c 9.631685
_cell_angle_alpha 90.000000
_cell_angle_beta 90.000000
_cell_angle_gamma 90.000000
_cell_volume 3301.435848
_symmetry_space_group_name_H-M "I 21 21 21"
_symmetry_group_IT_number 24
_symmetry_cell_setting 'orthorhombic'
loop_
_space_group_symop_operation_xyz
x,y,z
-x,1/2-y,z
x,-y,1/2-z
1/2-x,y,-z
1/2+x,1/2+y,1/2+z
1/2-x,-y,1/2+z
1/2+x,1/2-y,-z
-x,1/2+y,1/2-z
loop_
_atom_site_type_symbol
_atom_site_label
_atom_site_fract_x
_atom_site_fract_y
_atom_site_fract_z
Si Si1 0.431710 0.936496 0.059285
Si Si2 0.873036 0.997610 0.081808
Si Si3 0.890409 0.281702 0.681471
Si Si4 0.878668 0.379396 0.305244
Si Si5 0.043348 0.928296 0.437678
Si Si6 0.601896 0.622439 0.293000
Si Si7 0.389010 0.780769 0.844509
Si Si8 0.750000 0.494489 0.000000
O O1 0.470341 0.911291 0.196216
O O2 0.382210 0.899431 0.957587
O O3 0.329171 0.972484 0.092176
O O4 0.532944 0.961818 0.973030
O O5 0.926846 0.043088 0.030723
O O6 0.864388 0.000000 0.250000
O O7 0.750000 0.989238 0.000000
O O8 0.917074 0.328293 0.748608
O O9 0.891085 0.282915 0.513058
O O10 0.747970 0.268994 0.708913
O O11 0.000000 0.250000 0.724163
O O12 0.968986 0.405672 0.208890
O O13 0.744134 0.385103 0.241770
O O14 0.909285 0.329655 0.301155
O O15 0.074890 0.892457 0.551386
O O16 0.153266 0.963144 0.428432
O O17 0.500000 0.750000 0.800775
#
# Coordination Sequence:
#
# PCOD9333906 Si02
#       8
#     8   8   8   8   8   8   8   4
#     4  11  21  34  59  82 114 146 194 239 286 336
#     4  11  26  43  56  75 113 162 201 239 282 342
#     4   9  18  34  56  83 116 147 187 250 302 361
#     4  11  18  36  56  88 119 146 186 243 297 349
#     4  11  23  36  56  83 119 149 190 239 292 343
#     4  11  20  34  58  92 116 148 186 240 301 359
#     4   9  18  33  57  83 112 150 192 243 303 364
#     4  10  20  32  54  86 116 146 178 234 284 354
#
# _framework density 18.173911
#
# number of rings (size 3 to 8) (size 9 to 14) (size 15 to 20)
#    0.000    1.600    5.333    0.000    1.867    2.667 
#    0.000    3.333    0.000    0.000    0.000    0.000 
#    0.000    0.000    0.000    0.000    0.000    0.000 
#
# Total GULP energy -167177.714783 kJ/mol
# GULP energy per Si atom -5572.590493 kJ/mol
# Density = 1.813255 g / cm^3
# Si number density = 18.173911 Si / 1000 Ang^3
#
#
#
# Elastic Constant Matrix: (Units=GPa)
#
#
# Indices 1 2 3 4 5 6 
#
# 1 80.6687 53.3353 15.9238 0.0006 0.0001 0.0001
# 2 53.3353 114.6688 19.4407 0.0005 0.0000 0.0001
# 3 15.9238 19.4407 51.9826 0.0008 0.0002 -0.0008
# 4 0.0006 0.0005 0.0008 9.2063 -0.0002 -0.0002
# 5 0.0001 0.0000 0.0002 -0.0002 16.9999 0.0001
# 6 0.0001 0.0001 -0.0008 -0.0002 0.0001 24.0033
#
#
#
# Elastic Compliance Matrix: (Units=1/GPa)
#
#
# Indices 1 2 3 4 5 6 
#
# 1 0.018219 -0.008037 -0.002575 0.000000 0.000000 0.000000
# 2 -0.008037 0.012857 -0.002346 0.000000 0.000000 0.000000
# 3 -0.002575 -0.002346 0.020903 -0.000001 0.000000 0.000001
# 4 0.000000 0.000000 -0.000001 0.108621 0.000001 0.000001
# 5 0.000000 0.000000 0.000000 0.000001 0.058824 0.000000
# 6 0.000000 0.000000 0.000001 0.000001 0.000000 0.041661
#
#
# Mechanical properties :
#
#
# Convention : Reuss Voigt Hill
#
# Bulk Modulus (GPa) = 38.37035 47.19109 42.78072
# Shear Modulus (GPa) = 16.90964 20.61660 18.76312
#
# Velocity S-wave (km/s) = 3.05361 3.37175 3.21662
# Velocity P-wave (km/s) = 5.79581 6.41724 6.11443
#
# Compressibility (1/GPa) = 0.02606179
#
# Stress axis : x y z
#
# Youngs Moduli (GPa) = 54.88847 77.77896 47.83891
#
# Poissons Ratio (x) = 0.62514 0.12319
# Poissons Ratio (y) = 0.44116 0.11224
# Poissons Ratio (z) = 0.14134 0.18248
#
# Static dielectric constant tensor:
#      x y z
#    x 1.653680 0.000000 0.000000 
#    y 0.000000 1.612690 0.000000 
#    z 0.000000 0.000000 1.684420 
# 
# From -- ./inp_files/11612.got.cif
#   From: 2010.05.17/outbox.cif.g08.bks.cpg/sg24_6_cif.got.tgz:11612.got - 2010.06.04 00:33:39.
