data_PCOD9333049
_publ_section_title
;
Structure prediction by ZEFSAII (Michael W. Deem and Ramdas Pophale) SiO2 
 PCOD9333049
Probable space group: I 21 21 21
;
_chemical_formula_sum "Si O2"
_cell_formula_units_Z 48
_cell_length_a 11.033903
_cell_length_b 9.811136
_cell_length_c 23.117616
_cell_angle_alpha 90.000000
_cell_angle_beta 90.000000
_cell_angle_gamma 90.000000
_cell_volume 2502.600362
_symmetry_space_group_name_H-M "I 21 21 21"
_symmetry_group_IT_number 24
_symmetry_cell_setting 'orthorhombic'
loop_
_space_group_symop_operation_xyz
x,y,z
-x,1/2-y,z
x,-y,1/2-z
1/2-x,y,-z
1/2+x,1/2+y,1/2+z
1/2-x,-y,1/2+z
1/2+x,1/2-y,-z
-x,1/2+y,1/2-z
loop_
_atom_site_type_symbol
_atom_site_label
_atom_site_fract_x
_atom_site_fract_y
_atom_site_fract_z
Si Si1 0.867449 0.720616 0.219416
Si Si2 0.364328 0.246200 0.853717
Si Si3 0.646666 0.756407 0.951549
Si Si4 0.502162 0.586720 0.189534
Si Si5 0.762733 0.951130 0.150179
Si Si6 0.748559 0.527045 0.871105
O O1 0.874491 0.698719 0.287100
O O2 0.795219 0.858932 0.206071
O O3 0.815483 0.593257 0.185361
O O4 0.000000 0.750000 0.195682
O O5 0.500000 0.250000 0.878640
O O6 0.311020 0.396686 0.851830
O O7 0.281056 0.130358 0.881205
O O8 0.500000 0.750000 0.965444
O O9 0.674703 0.868961 0.902186
O O10 0.691498 0.614786 0.922843
O O11 0.750000 0.784575 0.000000
O O12 0.500000 0.750000 0.202683
O O13 0.510366 0.500000 0.250000
O O14 0.381774 0.550033 0.153792
O O15 0.612976 0.554360 0.146291
#
# Coordination Sequence:
#
# PCOD9333049 Si02
#       6
#     8   8   8   8   8   8
#     4  10  18  32  55  85 123 165 208 246 309 392
#     4  11  21  35  59  90 129 163 203 262 329 402
#     4  11  25  45  74  93 122 168 233 300 356 393
#     4  12  24  38  62  94 146 182 226 264 326 404
#     4  11  23  38  60  90 129 168 221 265 330 398
#     4  11  23  38  60  90 129 168 221 265 330 398
#
# _framework density 19.180049
#
# number of rings (size 3 to 8) (size 9 to 14) (size 15 to 20)
#    0.000    1.000    3.333    7.000    4.667    2.667 
#    0.000    0.833    0.000    0.000    0.000    0.000 
#    0.000    0.000    0.000    0.000    0.000    0.000 
#
# Total GULP energy -133820.370334 kJ/mol
# GULP energy per Si atom -5575.848764 kJ/mol
# Density = 1.913639 g / cm^3
# Si number density = 19.180049 Si / 1000 Ang^3
#
#
#
# Elastic Constant Matrix: (Units=GPa)
#
#
# Indices 1 2 3 4 5 6 
#
# 1 175.1946 34.9459 15.8254 0.0000 0.0000 0.0000
# 2 34.9459 138.1258 -2.4941 0.0000 0.0000 0.0000
# 3 15.8254 -2.4941 27.2295 0.0000 0.0000 0.0000
# 4 0.0000 0.0000 0.0000 8.7101 0.0000 0.0000
# 5 0.0000 0.0000 0.0000 0.0000 18.4863 0.0000
# 6 0.0000 0.0000 0.0000 0.0000 0.0000 27.0494
#
#
#
# Elastic Compliance Matrix: (Units=1/GPa)
#
#
# Indices 1 2 3 4 5 6 
#
# 1 0.006394 -0.001688 -0.003871 0.000000 0.000000 0.000000
# 2 -0.001688 0.007697 0.001686 0.000000 0.000000 0.000000
# 3 -0.003871 0.001686 0.039129 0.000000 0.000000 0.000000
# 4 0.000000 0.000000 0.000000 0.114810 0.000000 0.000000
# 5 0.000000 0.000000 0.000000 0.000000 0.054094 0.000000
# 6 0.000000 0.000000 0.000000 0.000000 0.000000 0.036969
#
#
# Mechanical properties :
#
#
# Convention : Reuss Voigt Hill
#
# Bulk Modulus (GPa) = 21.99002 48.56715 35.27859
# Shear Modulus (GPa) = 17.73067 30.33399 24.03233
#
# Velocity S-wave (km/s) = 3.04375 3.98117 3.54359
# Velocity P-wave (km/s) = 4.88287 6.81980 5.93094
#
# Compressibility (1/GPa) = 0.04547518
#
# Stress axis : x y z
#
# Youngs Moduli (GPa) = 156.39114 129.91754 25.55650
#
# Poissons Ratio (x) = 0.21925 0.09892
# Poissons Ratio (y) = 0.26393 -0.04308
# Poissons Ratio (z) = 0.60536 -0.21902
#
# Static dielectric constant tensor:
#      x y z
#    x 1.781460 0.000000 0.000000 
#    y 0.000000 1.742030 0.000000 
#    z 0.000000 0.000000 1.688750 
# 
# From -- ./inp_files/35546.got.cif
#   From: 2010.05.17/outbox.cif.g08.bks.cpg/sg24_18_cif.got.tgz:35546.got - 2010.06.04 00:33:39.
