data_PCOD9333533
_publ_section_title
;
Structure prediction by ZEFSAII (Michael W. Deem and Ramdas Pophale) SiO2 
 PCOD9333533
Probable space group: I 21 21 21
;
_chemical_formula_sum "Si O2"
_cell_formula_units_Z 48
_cell_length_a 9.718537
_cell_length_b 8.618147
_cell_length_c 31.952544
_cell_angle_alpha 90.000000
_cell_angle_beta 90.000000
_cell_angle_gamma 90.000000
_cell_volume 2676.210261
_symmetry_space_group_name_H-M "I 21 21 21"
_symmetry_group_IT_number 24
_symmetry_cell_setting 'orthorhombic'
loop_
_space_group_symop_operation_xyz
x,y,z
-x,1/2-y,z
x,-y,1/2-z
1/2-x,y,-z
1/2+x,1/2+y,1/2+z
1/2-x,-y,1/2+z
1/2+x,1/2-y,-z
-x,1/2+y,1/2-z
loop_
_atom_site_type_symbol
_atom_site_label
_atom_site_fract_x
_atom_site_fract_y
_atom_site_fract_z
Si Si1 0.724691 0.575788 0.630471
Si Si2 0.289942 0.446883 0.860664
Si Si3 0.518628 0.934983 0.108732
Si Si4 0.591005 0.092902 0.484627
Si Si5 0.997914 0.062438 0.429093
Si Si6 0.479985 0.935436 0.703744
O O1 0.717701 0.761919 0.632892
O O2 0.877352 0.516144 0.621980
O O3 0.630950 0.508588 0.593053
O O4 0.648807 0.524091 0.673517
O O5 0.370472 0.514231 0.900457
O O6 0.383372 0.490148 0.820860
O O7 0.138885 0.515697 0.860004
O O8 0.500000 0.750000 0.109753
O O9 0.570486 0.978273 0.061483
O O10 0.500000 0.250000 0.482009
O O11 0.750000 0.120996 0.500000
O O12 0.523528 0.003660 0.523717
O O13 0.000000 0.250000 0.429562
O O14 0.500000 0.750000 0.705816
O O15 0.465713 0.000000 0.750000
#
# Coordination Sequence:
#
# PCOD9333533 Si02
#       6
#     8   8   8   8   8   8
#     4  10  22  37  56  84 115 153 178 231 296 339
#     4  10  20  39  56  81 119 146 182 231 293 339
#     4  11  22  36  57  82 112 150 201 237 276 333
#     4  10  21  34  53  80 116 151 195 250 288 318
#     4  10  19  34  57  78 108 149 197 237 272 330
#     4   9  20  38  62  86 111 142 180 226 283 347
#
# _framework density 17.935811000000001
#
# number of rings (size 3 to 8) (size 9 to 14) (size 15 to 20)
#    0.000    2.000    1.667    3.000    7.000    4.000 
#    0.000    5.833    0.000    0.000    0.000    0.000 
#    0.000    0.000    0.000    0.000    0.000    0.000 
#
# Total GULP energy -133778.617902 kJ/mol
# GULP energy per Si atom -5574.109079 kJ/mol
# Density = 1.789499 g / cm^3
# Si number density = 17.935811 Si / 1000 Ang^3
#
#
#
# Elastic Constant Matrix: (Units=GPa)
#
#
# Indices 1 2 3 4 5 6 
#
# 1 164.0600 29.9783 65.2505 0.0000 0.0000 0.0000
# 2 29.9783 46.0394 26.6603 0.0000 0.0000 0.0000
# 3 65.2505 26.6603 133.7633 0.0000 0.0000 0.0000
# 4 0.0000 0.0000 0.0000 19.9031 0.0000 0.0000
# 5 0.0000 0.0000 0.0000 0.0000 11.4705 0.0000
# 6 0.0000 0.0000 0.0000 0.0000 0.0000 32.2984
#
#
#
# Elastic Compliance Matrix: (Units=1/GPa)
#
#
# Indices 1 2 3 4 5 6 
#
# 1 0.007990 -0.003330 -0.003234 0.000000 0.000000 0.000000
# 2 -0.003330 0.025942 -0.003546 0.000000 0.000000 0.000000
# 3 -0.003234 -0.003546 0.009760 0.000000 0.000000 0.000000
# 4 0.000000 0.000000 0.000000 0.050243 0.000000 0.000000
# 5 0.000000 0.000000 0.000000 0.000000 0.087180 0.000000
# 6 0.000000 0.000000 0.000000 0.000000 0.000000 0.030961
#
#
# Mechanical properties :
#
#
# Convention : Reuss Voigt Hill
#
# Bulk Modulus (GPa) = 42.60312 65.29345 53.94828
# Shear Modulus (GPa) = 20.82281 27.53265 24.17773
#
# Velocity S-wave (km/s) = 3.41099 3.92224 3.67551
# Velocity P-wave (km/s) = 6.27039 7.54950 6.93948
#
# Compressibility (1/GPa) = 0.02347246
#
# Stress axis : x y z
#
# Youngs Moduli (GPa) = 125.15644 38.54705 102.45718
#
# Poissons Ratio (x) = 0.12836 0.33133
# Poissons Ratio (y) = 0.41677 0.36333
# Poissons Ratio (z) = 0.40474 0.13669
#
# Static dielectric constant tensor:
#      x y z
#    x 1.620990 0.000000 0.000000 
#    y 0.000000 1.615600 0.000000 
#    z 0.000000 0.000000 1.624310 
# 
# From -- ./inp_files/9746.got.cif
#   From: 2010.05.17/outbox.cif.g08.bks.cpg/sg24_5_cif.got.tgz:9746.got - 2010.06.04 00:33:39.
