data_PCOD9333305
_publ_section_title
;
Structure prediction by ZEFSAII (Michael W. Deem and Ramdas Pophale) SiO2 
 PCOD9333305
Probable space group: I 21 21 21
;
_chemical_formula_sum "Si O2"
_cell_formula_units_Z 44
_cell_length_a 8.981715
_cell_length_b 16.518875
_cell_length_c 14.150035
_cell_angle_alpha 90.000000
_cell_angle_beta 90.000000
_cell_angle_gamma 90.000000
_cell_volume 2099.409950
_symmetry_space_group_name_H-M "I 21 21 21"
_symmetry_group_IT_number 24
_symmetry_cell_setting 'orthorhombic'
loop_
_space_group_symop_operation_xyz
x,y,z
-x,1/2-y,z
x,-y,1/2-z
1/2-x,y,-z
1/2+x,1/2+y,1/2+z
1/2-x,-y,1/2+z
1/2+x,1/2-y,-z
-x,1/2+y,1/2-z
loop_
_atom_site_type_symbol
_atom_site_label
_atom_site_fract_x
_atom_site_fract_y
_atom_site_fract_z
Si Si1 0.726448 0.000000 0.250000
Si Si2 0.618137 0.314761 0.262276
Si Si3 0.468369 0.545594 0.891922
Si Si4 0.650408 0.298917 0.592827
Si Si5 0.503315 0.039238 0.395947
Si Si6 0.727632 0.448863 0.846984
O O1 0.608858 0.980403 0.333729
O O2 0.839750 0.053107 0.313877
O O3 0.500000 0.250000 0.227309
O O4 0.740437 0.268375 0.325958
O O5 0.536413 0.380691 0.333177
O O6 0.707456 0.362105 0.181173
O O7 0.592515 0.613625 0.875052
O O8 0.557645 0.461005 0.878898
O O9 0.426849 0.557147 0.001838
O O10 0.500000 0.250000 0.575747
O O11 0.750000 0.305098 0.500000
O O12 0.348603 0.992847 0.412773
O O13 0.739150 0.500000 0.750000
#
# Coordination Sequence:
#
# PCOD9333305 Si02
#       6
#     4   8   8   8   8   8
#     4  12  24  36  58  96 128 158 214 284 312 378
#     4  11  22  39  62  92 136 174 207 270 344 405
#     4  12  22  40  63  91 130 174 221 267 324 401
#     4  12  24  36  56  90 135 177 207 254 331 422
#     4  11  22  39  64  93 125 169 218 272 327 386
#     4  10  18  40  63  83 120 176 223 253 312 397
#
# _framework density 20.958271
#
# number of rings (size 3 to 8) (size 9 to 14) (size 15 to 20)
#    0.000    0.727    9.091    1.636    2.545    0.000 
#    0.000    0.000    0.000    0.000    9.455    0.000 
#    0.000    0.000    0.000    0.000    0.000    0.000 
#
# Total GULP energy -122575.473708 kJ/mol
# GULP energy per Si atom -5571.612441 kJ/mol
# Density = 2.091057 g / cm^3
# Si number density = 20.958271 Si / 1000 Ang^3
#
#
#
# Elastic Constant Matrix: (Units=GPa)
#
#
# Indices 1 2 3 4 5 6 
#
# 1 117.1677 29.6891 22.2188 0.0000 0.0000 0.0000
# 2 29.6891 55.3583 14.7276 0.0000 0.0000 0.0000
# 3 22.2188 14.7276 59.8387 0.0000 0.0000 0.0000
# 4 0.0000 0.0000 0.0000 10.7743 0.0000 0.0000
# 5 0.0000 0.0000 0.0000 0.0000 43.2456 0.0000
# 6 0.0000 0.0000 0.0000 0.0000 0.0000 31.4946
#
#
#
# Elastic Compliance Matrix: (Units=1/GPa)
#
#
# Indices 1 2 3 4 5 6 
#
# 1 0.010248 -0.004798 -0.002624 0.000000 0.000000 0.000000
# 2 -0.004798 0.021576 -0.003529 0.000000 0.000000 0.000000
# 3 -0.002624 -0.003529 0.018555 0.000000 0.000000 0.000000
# 4 0.000000 0.000000 0.000000 0.092813 0.000000 0.000000
# 5 0.000000 0.000000 0.000000 0.000000 0.023124 0.000000
# 6 0.000000 0.000000 0.000000 0.000000 0.000000 0.031751
#
#
# Mechanical properties :
#
#
# Convention : Reuss Voigt Hill
#
# Bulk Modulus (GPa) = 35.11661 40.62620 37.87140
# Shear Modulus (GPa) = 21.79008 28.15150 24.97079
#
# Velocity S-wave (km/s) = 3.22792 3.66897 3.45549
# Velocity P-wave (km/s) = 5.53936 6.11350 5.83349
#
# Compressibility (1/GPa) = 0.02847655
#
# Stress axis : x y z
#
# Youngs Moduli (GPa) = 97.57801 46.34743 53.89506
#
# Poissons Ratio (x) = 0.22238 0.14144
# Poissons Ratio (y) = 0.46818 0.19018
# Poissons Ratio (z) = 0.25608 0.16355
#
# Static dielectric constant tensor:
#      x y z
#    x 1.816250 0.000000 0.000000 
#    y 0.000000 1.818220 0.000000 
#    z 0.000000 0.000000 1.784270 
# 
# From -- ./inp_files/12680.got.cif
#   From: 2010.05.17/outbox.cif.g08.bks.cpg/sg24_7_cif.got.tgz:12680.got - 2010.06.04 00:33:39.
