data_PCOD9333840
_publ_section_title
;
Structure prediction by ZEFSAII (Michael W. Deem and Ramdas Pophale) SiO2 
 PCOD9333840
Probable space group: I 21 21 21
;
_chemical_formula_sum "Si O2"
_cell_formula_units_Z 32
_cell_length_a 5.551370
_cell_length_b 12.687459
_cell_length_c 17.963925
_cell_angle_alpha 90.000000
_cell_angle_beta 90.000000
_cell_angle_gamma 90.000000
_cell_volume 1265.249164
_symmetry_space_group_name_H-M "I 21 21 21"
_symmetry_group_IT_number 24
_symmetry_cell_setting 'orthorhombic'
loop_
_space_group_symop_operation_xyz
x,y,z
-x,1/2-y,z
x,-y,1/2-z
1/2-x,y,-z
1/2+x,1/2+y,1/2+z
1/2-x,-y,1/2+z
1/2+x,1/2-y,-z
-x,1/2+y,1/2-z
loop_
_atom_site_type_symbol
_atom_site_label
_atom_site_fract_x
_atom_site_fract_y
_atom_site_fract_z
Si Si1 0.491957 0.573876 0.355116
Si Si2 0.670440 0.652494 0.207301
Si Si3 0.750000 0.811983 0.000000
Si Si4 0.421178 0.555063 0.877183
Si Si5 0.250000 0.051021 0.000000
O O1 0.627332 0.646984 0.295923
O O2 0.574069 0.458234 0.325491
O O3 0.204707 0.552062 0.347634
O O4 0.568718 0.603567 0.439510
O O5 0.500000 0.750000 0.183130
O O6 0.946742 0.634216 0.179927
O O7 0.500000 0.750000 0.991781
O O8 0.730319 0.882286 0.073007
O O9 0.599848 0.519000 0.942655
#
# Coordination Sequence:
#
# PCOD9333840 Si02
#       5
#     8   8   4   8   4
#     4  10  22  41  67 100 136 185 243 297 371 422
#     4  10  25  43  67  99 147 189 239 301 368 439
#     4  12  27  38  66 109 148 186 234 297 380 451
#     4  11  23  41  65 103 138 187 237 299 367 444
#     4  10  19  40  70  89 134 182 236 307 354 433
#
# _framework density 25.291460000000001
#
# number of rings (size 3 to 8) (size 9 to 14) (size 15 to 20)
#    0.000    1.500    2.500    0.750    7.000    8.000 
#    0.000    2.500    5.500    0.000    0.000    0.000 
#    0.000    0.000    0.000    0.000    0.000    0.000 
#
# Total GULP energy -89088.748974 kJ/mol
# GULP energy per Si atom -5568.046811 kJ/mol
# Density = 2.523390 g / cm^3
# Si number density = 25.291460 Si / 1000 Ang^3
#
#
#
# Elastic Constant Matrix: (Units=GPa)
#
#
# Indices 1 2 3 4 5 6 
#
# 1 83.4982 7.1670 61.6143 0.0000 0.0000 0.0000
# 2 7.1670 20.4474 18.2585 0.0000 0.0000 0.0000
# 3 61.6143 18.2585 194.2992 0.0000 0.0000 0.0000
# 4 0.0000 0.0000 0.0000 22.7163 0.0000 0.0000
# 5 0.0000 0.0000 0.0000 0.0000 34.2325 0.0000
# 6 0.0000 0.0000 0.0000 0.0000 0.0000 8.8224
#
#
#
# Elastic Compliance Matrix: (Units=1/GPa)
#
#
# Indices 1 2 3 4 5 6 
#
# 1 0.015660 -0.001151 -0.004858 0.000000 0.000000 0.000000
# 2 -0.001151 0.053470 -0.004660 0.000000 0.000000 0.000000
# 3 -0.004858 -0.004660 0.007125 0.000000 0.000000 0.000000
# 4 0.000000 0.000000 0.000000 0.044021 0.000000 0.000000
# 5 0.000000 0.000000 0.000000 0.000000 0.029212 0.000000
# 6 0.000000 0.000000 0.000000 0.000000 0.000000 0.113347
#
#
# Mechanical properties :
#
#
# Convention : Reuss Voigt Hill
#
# Bulk Modulus (GPa) = 18.20895 52.48047 35.34471
# Shear Modulus (GPa) = 16.53011 27.23459 21.88235
#
# Velocity S-wave (km/s) = 2.55930 3.28507 2.94463
# Velocity P-wave (km/s) = 3.99358 5.93163 5.05633
#
# Compressibility (1/GPa) = 0.05491806
#
# Stress axis : x y z
#
# Youngs Moduli (GPa) = 63.85841 18.70195 140.35134
#
# Poissons Ratio (x) = 0.02153 0.68178
# Poissons Ratio (y) = 0.07351 0.65398
# Poissons Ratio (z) = 0.31020 0.08714
#
# Static dielectric constant tensor:
#      x y z
#    x 2.507780 0.000000 0.000000 
#    y 0.000000 2.106910 0.000000 
#    z 0.000000 0.000000 2.011340 
# 
# From -- ./inp_files/28517.got.cif
#   From: 2010.05.17/outbox.cif.g08.bks.cpg/sg24_15_cif.got.tgz:28517.got - 2010.06.04 00:33:39.
