data_PCOD9333755
_publ_section_title
;
Structure prediction by ZEFSAII (Michael W. Deem and Ramdas Pophale) SiO2 
 PCOD9333755
Probable space group: I 21 21 21
;
_chemical_formula_sum "Si O2"
_cell_formula_units_Z 48
_cell_length_a 10.128172
_cell_length_b 8.594193
_cell_length_c 28.781653
_cell_angle_alpha 90.000000
_cell_angle_beta 90.000000
_cell_angle_gamma 90.000000
_cell_volume 2505.254803
_symmetry_space_group_name_H-M "I 21 21 21"
_symmetry_group_IT_number 24
_symmetry_cell_setting 'orthorhombic'
loop_
_space_group_symop_operation_xyz
x,y,z
-x,1/2-y,z
x,-y,1/2-z
1/2-x,y,-z
1/2+x,1/2+y,1/2+z
1/2-x,-y,1/2+z
1/2+x,1/2-y,-z
-x,1/2+y,1/2-z
loop_
_atom_site_type_symbol
_atom_site_label
_atom_site_fract_x
_atom_site_fract_y
_atom_site_fract_z
Si Si1 0.759161 0.450668 0.446857
Si Si2 0.405533 0.898332 0.796202
Si Si3 0.274819 0.423815 0.445286
Si Si4 0.519608 0.432105 0.110195
Si Si5 0.513222 0.061661 0.608381
Si Si6 0.596203 0.605179 0.203895
O O1 0.750000 0.494763 0.500000
O O2 0.726683 0.265389 0.443060
O O3 0.655971 0.541420 0.416181
O O4 0.904178 0.485685 0.428575
O O5 0.500000 0.750000 0.788885
O O6 0.468271 0.988864 0.840369
O O7 0.251450 0.855141 0.806470
O O8 0.406526 0.000000 0.750000
O O9 0.250000 0.463215 0.500000
O O10 0.407138 0.492161 0.422685
O O11 0.155350 0.478294 0.411902
O O12 0.500000 0.250000 0.117330
O O13 0.534829 0.517260 0.159547
O O14 0.500000 0.250000 0.610631
O O15 0.500000 0.750000 0.212382
O O16 0.596610 0.500000 0.250000
#
# Coordination Sequence:
#
# PCOD9333755 Si02
#       6
#     8   8   8   8   8   8
#     4  10  19  37  65  90 119 160 211 263 310 364
#     4  10  22  41  63  93 125 156 200 254 311 371
#     4  10  21  39  65  93 121 162 215 260 310 371
#     4  12  25  40  59  92 132 172 207 255 318 377
#     4   9  18  35  59  90 118 153 199 255 309 360
#     4  11  24  44  68  94 127 163 212 263 318 379
#
# _framework density 19.159727
#
# number of rings (size 3 to 8) (size 9 to 14) (size 15 to 20)
#    0.000    1.667    1.667    3.000    4.667    4.000 
#    6.000    0.833    0.000    0.000    0.000    0.000 
#    0.000    0.000    0.000    0.000    0.000    0.000 
#
# Total GULP energy -133964.900929 kJ/mol
# GULP energy per Si atom -5581.870872 kJ/mol
# Density = 1.911612 g / cm^3
# Si number density = 19.159727 Si / 1000 Ang^3
#
#
#
# Elastic Constant Matrix: (Units=GPa)
#
#
# Indices 1 2 3 4 5 6 
#
# 1 59.2347 13.6612 9.2802 0.0000 0.0000 0.0000
# 2 13.6612 43.1507 14.7534 0.0000 0.0000 0.0000
# 3 9.2802 14.7534 113.8025 0.0000 0.0000 0.0000
# 4 0.0000 0.0000 0.0000 8.3671 0.0000 0.0000
# 5 0.0000 0.0000 0.0000 0.0000 28.2985 0.0000
# 6 0.0000 0.0000 0.0000 0.0000 0.0000 35.9853
#
#
#
# Elastic Compliance Matrix: (Units=1/GPa)
#
#
# Indices 1 2 3 4 5 6 
#
# 1 0.018277 -0.005521 -0.000775 0.000000 0.000000 0.000000
# 2 -0.005521 0.025918 -0.002910 0.000000 0.000000 0.000000
# 3 -0.000775 -0.002910 0.009228 0.000000 0.000000 0.000000
# 4 0.000000 0.000000 0.000000 0.119515 0.000000 0.000000
# 5 0.000000 0.000000 0.000000 0.000000 0.035338 0.000000
# 6 0.000000 0.000000 0.000000 0.000000 0.000000 0.027789
#
#
# Mechanical properties :
#
#
# Convention : Reuss Voigt Hill
#
# Bulk Modulus (GPa) = 28.56304 32.39750 30.48027
# Shear Modulus (GPa) = 18.78674 26.42973 22.60823
#
# Velocity S-wave (km/s) = 3.13474 3.71811 3.43882
# Velocity P-wave (km/s) = 5.29550 5.94797 5.63120
#
# Compressibility (1/GPa) = 0.03501028
#
# Stress axis : x y z
#
# Youngs Moduli (GPa) = 54.71429 38.58393 108.37136
#
# Poissons Ratio (x) = 0.21304 0.08394
# Poissons Ratio (y) = 0.30210 0.31533
# Poissons Ratio (z) = 0.04238 0.11227
#
# Static dielectric constant tensor:
#      x y z
#    x 1.648730 0.000000 0.000000 
#    y 0.000000 1.876950 0.000000 
#    z 0.000000 0.000000 1.664140 
# 
# From -- ./inp_files/9727.got.cif
#   From: 2010.05.17/outbox.cif.g08.bks.cpg/sg24_5_cif.got.tgz:9727.got - 2010.06.04 00:33:39.
