data_PCOD9333058
_publ_section_title
;
Structure prediction by ZEFSAII (Michael W. Deem and Ramdas Pophale) SiO2 
 PCOD9333058
Probable space group: I 21 21 21
;
_chemical_formula_sum "Si O2"
_cell_formula_units_Z 36
_cell_length_a 6.883922
_cell_length_b 14.048262
_cell_length_c 14.361448
_cell_angle_alpha 90.000000
_cell_angle_beta 90.000000
_cell_angle_gamma 90.000000
_cell_volume 1388.854560
_symmetry_space_group_name_H-M "I 21 21 21"
_symmetry_group_IT_number 24
_symmetry_cell_setting 'orthorhombic'
loop_
_space_group_symop_operation_xyz
x,y,z
-x,1/2-y,z
x,-y,1/2-z
1/2-x,y,-z
1/2+x,1/2+y,1/2+z
1/2-x,-y,1/2+z
1/2+x,1/2-y,-z
-x,1/2+y,1/2-z
loop_
_atom_site_type_symbol
_atom_site_label
_atom_site_fract_x
_atom_site_fract_y
_atom_site_fract_z
Si Si1 0.516075 0.913613 0.318057
Si Si2 0.143896 0.162175 0.412118
Si Si3 0.976681 0.365180 0.016008
Si Si4 0.559893 0.638377 0.717806
Si Si5 0.000000 0.250000 0.699889
O O1 0.565378 0.917509 0.426453
O O2 0.285974 0.887763 0.305038
O O3 0.608107 0.823281 0.267583
O O4 0.559572 0.000000 0.250000
O O5 0.250000 0.111798 0.500000
O O6 0.040822 0.105831 0.326335
O O7 0.165650 0.205526 0.636911
O O8 0.000000 0.250000 0.439322
O O9 0.000000 0.250000 0.006247
O O10 0.750000 0.381662 0.000000
O O11 0.035303 0.393960 0.120363
O O12 0.500000 0.750000 0.722605
#
# Coordination Sequence:
#
# PCOD9333058 Si02
#       5
#     8   8   8   8   4
#     4  10  19  33  58  92 124 166 212 257 321 392
#     4  10  18  32  57  88 117 159 217 261 316 385
#     4   9  16  31  56  87 114 153 201 251 317 377
#     4   8  17  32  55  84 118 153 205 264 314 376
#     4  10  20  36  58  88 120 170 204 264 322 384
#
# _framework density 25.920639000000001
#
# number of rings (size 3 to 8) (size 9 to 14) (size 15 to 20)
#    0.000    2.667    2.222    0.000    0.000    0.000 
#    0.000   13.333    0.000   22.667    0.000    0.000 
#    0.000    0.000    0.000    0.000    0.000    0.000 
#
# Total GULP energy -100292.359547 kJ/mol
# GULP energy per Si atom -5571.797753 kJ/mol
# Density = 2.586164 g / cm^3
# Si number density = 25.920639 Si / 1000 Ang^3
#
#
#
# Elastic Constant Matrix: (Units=GPa)
#
#
# Indices 1 2 3 4 5 6 
#
# 1 105.6136 0.3007 22.0911 0.0000 0.0000 0.0000
# 2 0.3007 100.7060 68.0034 0.0000 0.0000 0.0000
# 3 22.0911 68.0034 299.3532 0.0000 0.0000 0.0000
# 4 0.0000 0.0000 0.0000 -193.1217 0.0000 0.0000
# 5 0.0000 0.0000 0.0000 0.0000 98.4826 0.0000
# 6 0.0000 0.0000 0.0000 0.0000 0.0000 12.7226
#
#
#
# Elastic Compliance Matrix: (Units=1/GPa)
#
#
# Indices 1 2 3 4 5 6 
#
# 1 0.009641 0.000533 -0.000833 0.000000 0.000000 0.000000
# 2 0.000533 0.011759 -0.002711 0.000000 0.000000 0.000000
# 3 -0.000833 -0.002711 0.004018 0.000000 0.000000 0.000000
# 4 0.000000 0.000000 0.000000 -0.005178 0.000000 0.000000
# 5 0.000000 0.000000 0.000000 0.000000 0.010154 0.000000
# 6 0.000000 0.000000 0.000000 0.000000 0.000000 0.078600
#
#
# Mechanical properties :
#
#
# Convention : Reuss Voigt Hill
#
# Bulk Modulus (GPa) = 51.55160 76.27368 63.91264
# Shear Modulus (GPa) = 41.15937 11.30187 26.23062
#
# Velocity S-wave (km/s) = 3.98917 2.09037 3.18458
# Velocity P-wave (km/s) = 6.41478 5.94272 6.18326
#
# Compressibility (1/GPa) = 0.01939804
#
# Stress axis : x y z
#
# Youngs Moduli (GPa) = 103.72229 85.04378 248.89641
#
# Poissons Ratio (x) = -0.04537 0.20725
# Poissons Ratio (y) = -0.05533 0.67465
# Poissons Ratio (z) = 0.08637 0.23052
#
# Static dielectric constant tensor:
#      x y z
#    x 2.127630 0.000000 0.000000 
#    y 0.000000 1.926840 0.000000 
#    z 0.000000 0.000000 2.131500 
# 
# From -- ./inp_files/19367.got.cif
#   From: 2010.05.17/outbox.cif.g08.bks.cpg/sg24_10_cif.got.tgz:19367.got - 2010.06.04 00:33:39.
