data_PCOD9333606
_publ_section_title
;
Structure prediction by ZEFSAII (Michael W. Deem and Ramdas Pophale) SiO2 
 PCOD9333606
Probable space group: I 21 21 21
;
_chemical_formula_sum "Si O2"
_cell_formula_units_Z 40
_cell_length_a 5.182631
_cell_length_b 12.839918
_cell_length_c 24.350049
_cell_angle_alpha 90.000000
_cell_angle_beta 90.000000
_cell_angle_gamma 90.000000
_cell_volume 1620.363225
_symmetry_space_group_name_H-M "I 21 21 21"
_symmetry_group_IT_number 24
_symmetry_cell_setting 'orthorhombic'
loop_
_space_group_symop_operation_xyz
x,y,z
-x,1/2-y,z
x,-y,1/2-z
1/2-x,y,-z
1/2+x,1/2+y,1/2+z
1/2-x,-y,1/2+z
1/2+x,1/2-y,-z
-x,1/2+y,1/2-z
loop_
_atom_site_type_symbol
_atom_site_label
_atom_site_fract_x
_atom_site_fract_y
_atom_site_fract_z
Si Si1 0.589090 0.142065 0.828224
Si Si2 0.913317 0.373054 0.783216
Si Si3 0.751442 0.322689 0.665031
Si Si4 0.796881 0.108262 0.941729
Si Si5 0.702147 0.467761 0.559675
O O1 0.500000 0.250000 0.800297
O O2 0.307277 0.091643 0.825811
O O3 0.714608 0.168632 0.887025
O O4 0.809309 0.078021 0.797607
O O5 0.806030 0.384175 0.722015
O O6 0.000000 0.250000 0.789381
O O7 0.500000 0.250000 0.671202
O O8 0.728168 0.391823 0.610808
O O9 0.000000 0.250000 0.658460
O O10 0.585169 0.015527 0.940892
O O11 0.750000 0.164090 0.000000
O O12 0.081476 0.059811 0.938712
O O13 0.750000 0.416056 0.500000
#
# Coordination Sequence:
#
# PCOD9333606 Si02
#       5
#     8   8   8   8   8
#     4  10  19  35  58  81 108 144 185 224 267 327
#     4   9  18  33  53  80 112 142 174 224 283 321
#     4  11  21  36  59  84 110 143 187 230 271 330
#     4  10  21  39  57  78 113 151 183 226 283 330
#     4  10  22  39  57  79 113 150 182 226 284 330
#
# _framework density 24.685822999999999
#
# number of rings (size 3 to 8) (size 9 to 14) (size 15 to 20)
#    0.000    2.000    0.000    5.400    0.000    0.800 
#    0.000   12.000    0.000    0.000    0.000    0.000 
#    0.000    0.000    0.000    0.000    0.000    0.000 
#
# Total GULP energy -111718.969052 kJ/mol
# GULP energy per Si atom -5585.948453 kJ/mol
# Density = 2.462964 g / cm^3
# Si number density = 24.685823 Si / 1000 Ang^3
#
#
#
# Elastic Constant Matrix: (Units=GPa)
#
#
# Indices 1 2 3 4 5 6 
#
# 1 191.8360 17.6358 46.2686 0.0000 0.0000 0.0000
# 2 17.6358 32.6853 27.2721 0.0000 0.0000 0.0000
# 3 46.2686 27.2721 187.4666 0.0000 0.0000 0.0000
# 4 0.0000 0.0000 0.0000 40.1881 0.0000 0.0000
# 5 0.0000 0.0000 0.0000 0.0000 38.6421 0.0000
# 6 0.0000 0.0000 0.0000 0.0000 0.0000 24.1492
#
#
#
# Elastic Compliance Matrix: (Units=1/GPa)
#
#
# Indices 1 2 3 4 5 6 
#
# 1 0.005673 -0.002154 -0.001087 0.000000 0.000000 0.000000
# 2 -0.002154 0.035640 -0.004653 0.000000 0.000000 0.000000
# 3 -0.001087 -0.004653 0.006279 0.000000 0.000000 0.000000
# 4 0.000000 0.000000 0.000000 0.024883 0.000000 0.000000
# 5 0.000000 0.000000 0.000000 0.000000 0.025878 0.000000
# 6 0.000000 0.000000 0.000000 0.000000 0.000000 0.041409
#
#
# Mechanical properties :
#
#
# Convention : Reuss Voigt Hill
#
# Bulk Modulus (GPa) = 31.44262 66.03787 48.74025
# Shear Modulus (GPa) = 30.09296 41.98332 36.03814
#
# Velocity S-wave (km/s) = 3.49526 4.12844 3.82497
# Velocity P-wave (km/s) = 5.39017 7.03809 6.26852
#
# Compressibility (1/GPa) = 0.03180397
#
# Stress axis : x y z
#
# Youngs Moduli (GPa) = 176.27567 28.05872 159.25035
#
# Poissons Ratio (x) = 0.06044 0.17307
# Poissons Ratio (y) = 0.37972 0.74100
# Poissons Ratio (z) = 0.19157 0.13056
#
# Static dielectric constant tensor:
#      x y z
#    x 2.063560 0.000000 0.000000 
#    y 0.000000 2.064910 0.000000 
#    z 0.000000 0.000000 2.015930 
# 
# From -- ./inp_files/34617.got.cif
#   From: 2010.05.17/outbox.cif.g08.bks.cpg/sg24_18_cif.got.tgz:34617.got - 2010.06.04 00:33:39.
