data_PCOD9333241
_publ_section_title
;
Structure prediction by ZEFSAII (Michael W. Deem and Ramdas Pophale) SiO2 
 PCOD9333241
Probable space group: I 21 21 21
;
_chemical_formula_sum "Si O2"
_cell_formula_units_Z 48
_cell_length_a 17.668933
_cell_length_b 14.663055
_cell_length_c 8.829097
_cell_angle_alpha 90.000000
_cell_angle_beta 90.000000
_cell_angle_gamma 90.000000
_cell_volume 2287.447186
_symmetry_space_group_name_H-M "I 21 21 21"
_symmetry_group_IT_number 24
_symmetry_cell_setting 'orthorhombic'
loop_
_space_group_symop_operation_xyz
x,y,z
-x,1/2-y,z
x,-y,1/2-z
1/2-x,y,-z
1/2+x,1/2+y,1/2+z
1/2-x,-y,1/2+z
1/2+x,1/2-y,-z
-x,1/2+y,1/2-z
loop_
_atom_site_type_symbol
_atom_site_label
_atom_site_fract_x
_atom_site_fract_y
_atom_site_fract_z
Si Si1 0.610526 0.620853 0.506481
Si Si2 0.194352 0.817453 0.116470
Si Si3 0.974961 0.655991 0.979326
Si Si4 0.051359 0.000000 0.750000
Si Si5 0.702118 0.500000 0.750000
Si Si6 0.176319 0.302270 0.081809
Si Si7 0.034664 0.604828 0.293936
O O1 0.599283 0.567909 0.352429
O O2 0.655227 0.553975 0.620682
O O3 0.648147 0.718098 0.478042
O O4 0.531961 0.636793 0.594723
O O5 0.187347 0.752844 0.261241
O O6 0.235920 0.912303 0.166239
O O7 0.250000 0.770319 0.000000
O O8 0.112098 0.840914 0.042619
O O9 0.988139 0.567892 0.872243
O O10 0.000000 0.750000 0.899447
O O11 0.026022 0.652584 0.131239
O O12 0.112290 0.374997 0.120744
O O13 0.250000 0.340728 0.000000
O O14 0.023405 0.500000 0.250000
#
# Coordination Sequence:
#
# PCOD9333241 Si02
#       7
#     8   8   8   4   4   8   8
#     4  11  20  39  66 100 133 168 227 290 336 418
#     4  11  23  39  61  93 137 180 214 271 350 439
#     4  12  23  44  69  98 137 190 227 286 362 417
#     4  12  24  37  64 110 137 156 234 294 342 409
#     4  10  18  37  62  90 129 176 218 252 356 415
#     4  11  26  42  67 100 135 183 234 285 363 429
#     4  12  20  46  77  93 127 189 246 289 339 428
#
# _framework density 20.984089999999998
#
# number of rings (size 3 to 8) (size 9 to 14) (size 15 to 20)
#    0.000    0.667    9.167    0.500    2.333    4.667 
#    0.000    0.833    1.833    0.000    0.000    0.000 
#    0.000    0.000    0.000    0.000    0.000    0.000 
#
# Total GULP energy -133956.310060 kJ/mol
# GULP energy per Si atom -5581.512919 kJ/mol
# Density = 2.093633 g / cm^3
# Si number density = 20.984090 Si / 1000 Ang^3
#
#
#
# Elastic Constant Matrix: (Units=GPa)
#
#
# Indices 1 2 3 4 5 6 
#
# 1 55.4612 -5.4558 15.2174 0.0000 0.0000 0.0000
# 2 -5.4558 37.3205 -5.3057 0.0000 0.0000 0.0000
# 3 15.2174 -5.3057 80.4831 0.0000 0.0000 0.0000
# 4 0.0000 0.0000 0.0000 19.3937 0.0000 0.0000
# 5 0.0000 0.0000 0.0000 0.0000 30.7149 0.0000
# 6 0.0000 0.0000 0.0000 0.0000 0.0000 13.8369
#
#
#
# Elastic Compliance Matrix: (Units=1/GPa)
#
#
# Indices 1 2 3 4 5 6 
#
# 1 0.019213 0.002314 -0.003480 0.000000 0.000000 0.000000
# 2 0.002314 0.027327 0.001364 0.000000 0.000000 0.000000
# 3 -0.003480 0.001364 0.013173 0.000000 0.000000 0.000000
# 4 0.000000 0.000000 0.000000 0.051563 0.000000 0.000000
# 5 0.000000 0.000000 0.000000 0.000000 0.032558 0.000000
# 6 0.000000 0.000000 0.000000 0.000000 0.000000 0.072271
#
#
# Mechanical properties :
#
#
# Convention : Reuss Voigt Hill
#
# Bulk Modulus (GPa) = 16.63654 20.24184 18.43919
# Shear Modulus (GPa) = 21.20935 24.04302 22.62619
#
# Velocity S-wave (km/s) = 3.18265 3.38860 3.28724
# Velocity P-wave (km/s) = 4.63153 4.99774 4.81812
#
# Compressibility (1/GPa) = 0.06010866
#
# Stress axis : x y z
#
# Youngs Moduli (GPa) = 52.04772 36.59371 75.91334
#
# Poissons Ratio (x) = -0.08468 0.26419
# Poissons Ratio (y) = -0.12044 -0.10354
# Poissons Ratio (z) = 0.18114 -0.04991
#
# Static dielectric constant tensor:
#      x y z
#    x 1.780570 0.000000 0.000000 
#    y 0.000000 1.772630 0.000000 
#    z 0.000000 0.000000 1.864730 
# 
# From -- ./inp_files/14231.got.cif
#   From: 2010.05.17/outbox.cif.g08.bks.cpg/sg24_8_cif.got.tgz:14231.got - 2010.06.04 00:33:39.
