data_PCOD9333901
_publ_section_title
;
Structure prediction by ZEFSAII (Michael W. Deem and Ramdas Pophale) SiO2 
 PCOD9333901
Probable space group: I 21 21 21
;
_chemical_formula_sum "Si O2"
_cell_formula_units_Z 32
_cell_length_a 9.038232
_cell_length_b 15.136722
_cell_length_c 9.916828
_cell_angle_alpha 90.000000
_cell_angle_beta 90.000000
_cell_angle_gamma 90.000000
_cell_volume 1356.713356
_symmetry_space_group_name_H-M "I 21 21 21"
_symmetry_group_IT_number 24
_symmetry_cell_setting 'orthorhombic'
loop_
_space_group_symop_operation_xyz
x,y,z
-x,1/2-y,z
x,-y,1/2-z
1/2-x,y,-z
1/2+x,1/2+y,1/2+z
1/2-x,-y,1/2+z
1/2+x,1/2-y,-z
-x,1/2+y,1/2-z
loop_
_atom_site_type_symbol
_atom_site_label
_atom_site_fract_x
_atom_site_fract_y
_atom_site_fract_z
Si Si1 0.208333 0.362322 0.757231
Si Si2 0.500000 0.750000 0.423796
Si Si3 0.557569 0.018772 0.433504
Si Si4 0.979210 0.394552 0.150689
Si Si5 0.781104 0.500000 0.750000
O O1 0.150457 0.440889 0.858218
O O2 0.138031 0.392350 0.615391
O O3 0.384371 0.356477 0.764113
O O4 0.133409 0.278204 0.826524
O O5 0.457754 0.829707 0.523558
O O6 0.538688 0.987233 0.585818
O O7 0.392987 0.018665 0.372020
O O8 0.826091 0.417923 0.220392
#
# Coordination Sequence:
#
# PCOD9333901 Si02
#       5
#     8   4   8   8   4
#     4   9  19  33  53  79 107 141 182 224 273 331
#     4  10  20  32  54  84 110 138 182 238 278 316
#     4   9  19  34  51  78 112 146 182 229 278 325
#     4  11  21  35  57  84 113 147 183 229 281 333
#     4  10  20  32  52  80 114 146 184 226 272 336
#
# _framework density 23.586411999999999
#
# number of rings (size 3 to 8) (size 9 to 14) (size 15 to 20)
#    0.000    2.500    0.000    5.250    0.000   12.000 
#    0.000    0.000    0.000    1.500    0.000   38.500 
#    0.000    0.000    0.000    0.000    0.000    0.000 
#
# Total GULP energy -89399.708178 kJ/mol
# GULP energy per Si atom -5587.481761 kJ/mol
# Density = 2.353273 g / cm^3
# Si number density = 23.586412 Si / 1000 Ang^3
#
#
#
# Elastic Constant Matrix: (Units=GPa)
#
#
# Indices 1 2 3 4 5 6 
#
# 1 206.6419 44.6323 41.8336 0.0001 0.0000 0.0000
# 2 44.6323 73.7632 21.6810 0.0000 0.0000 0.0000
# 3 41.8336 21.6810 37.8513 0.0001 -0.0001 0.0000
# 4 0.0001 0.0000 0.0001 57.5665 0.0000 0.0000
# 5 0.0000 0.0000 -0.0001 0.0000 38.6431 0.0000
# 6 0.0000 0.0000 0.0000 0.0000 0.0000 36.7949
#
#
#
# Elastic Compliance Matrix: (Units=1/GPa)
#
#
# Indices 1 2 3 4 5 6 
#
# 1 0.006517 -0.002196 -0.005945 0.000000 0.000000 0.000000
# 2 -0.002196 0.017041 -0.007334 0.000000 0.000000 0.000000
# 3 -0.005945 -0.007334 0.037191 0.000000 0.000000 0.000000
# 4 0.000000 0.000000 0.000000 0.017371 0.000000 0.000000
# 5 0.000000 0.000000 0.000000 0.000000 0.025878 0.000000
# 6 0.000000 0.000000 0.000000 0.000000 0.000000 0.027178
#
#
# Mechanical properties :
#
#
# Convention : Reuss Voigt Hill
#
# Bulk Modulus (GPa) = 33.55838 59.39448 46.47643
# Shear Modulus (GPa) = 29.05982 40.60819 34.83400
#
# Velocity S-wave (km/s) = 3.51388 4.15381 3.84717
# Velocity P-wave (km/s) = 5.54273 6.94564 6.28346
#
# Compressibility (1/GPa) = 0.02979881
#
# Stress axis : x y z
#
# Youngs Moduli (GPa) = 153.44202 58.68080 26.88855
#
# Poissons Ratio (x) = 0.12886 0.15985
# Poissons Ratio (y) = 0.33695 0.19721
# Poissons Ratio (z) = 0.91220 0.43038
#
# Static dielectric constant tensor:
#      x y z
#    x 1.894000 0.000000 0.000000 
#    y 0.000000 1.967000 0.000000 
#    z 0.000000 0.000000 1.950720 
# 
# From -- ./inp_files/18091.got.cif
#   From: 2010.05.17/outbox.cif.g08.bks.cpg/sg24_10_cif.got.tgz:18091.got - 2010.06.04 00:33:39.
