data_PCOD9333964
_publ_section_title
;
Structure prediction by ZEFSAII (Michael W. Deem and Ramdas Pophale) SiO2 
 PCOD9333964
Probable space group: I 21 21 21
;
_chemical_formula_sum "Si O2"
_cell_formula_units_Z 56
_cell_length_a 5.123940
_cell_length_b 34.810104
_cell_length_c 16.510493
_cell_angle_alpha 90.000000
_cell_angle_beta 90.000000
_cell_angle_gamma 90.000000
_cell_volume 2944.892174
_symmetry_space_group_name_H-M "I 21 21 21"
_symmetry_group_IT_number 24
_symmetry_cell_setting 'orthorhombic'
loop_
_space_group_symop_operation_xyz
x,y,z
-x,1/2-y,z
x,-y,1/2-z
1/2-x,y,-z
1/2+x,1/2+y,1/2+z
1/2-x,-y,1/2+z
1/2+x,1/2-y,-z
-x,1/2+y,1/2-z
loop_
_atom_site_type_symbol
_atom_site_label
_atom_site_fract_x
_atom_site_fract_y
_atom_site_fract_z
Si Si1 0.006229 0.372247 0.945467
Si Si2 0.209701 0.916495 0.703232
Si Si3 0.797010 0.955058 0.239169
Si Si4 0.818341 0.642835 0.845905
Si Si5 0.871446 0.291529 0.910175
Si Si6 0.329304 0.398507 0.590542
Si Si7 0.756746 0.723286 0.234638
O O1 0.924764 0.402467 0.878208
O O2 0.052160 0.329571 0.908002
O O3 0.250000 0.383185 0.000000
O O4 0.750000 0.368796 0.000000
O O5 0.499114 0.933733 0.700845
O O6 0.224668 0.879750 0.761658
O O7 0.004611 0.946044 0.742270
O O8 0.849377 0.934950 0.151687
O O9 0.844213 0.000000 0.250000
O O10 0.598662 0.625116 0.904726
O O11 0.783025 0.687428 0.825344
O O12 0.102603 0.629796 0.876155
O O13 0.703044 0.292478 0.827365
O O14 0.000000 0.250000 0.906122
O O15 0.750000 0.291767 0.000000
O O16 0.250000 0.410051 0.500000
O O17 0.500000 0.750000 0.233637
O O18 0.000000 0.750000 0.213249
#
# Coordination Sequence:
#
# PCOD9333964 Si02
#       7
#     8   8   8   8   8   8   8
#     4  11  22  35  54  78 115 160 203 243 283 339
#     4  10  20  38  57  83 116 154 198 234 286 351
#     4  10  21  38  64  90 119 150 184 235 295 356
#     4  10  20  38  59  85 115 151 195 245 293 345
#     4  10  20  34  50  78 114 157 203 247 296 330
#     4  10  21  38  65  90 115 146 193 240 289 353
#     4  11  22  35  56  82 115 154 201 249 297 351
#
# _framework density 19.015976999999999
#
# number of rings (size 3 to 8) (size 9 to 14) (size 15 to 20)
#    0.000    1.714    1.429    3.429    0.000    3.429 
#    0.000    2.143    0.000   10.286    0.000    0.000 
#    0.000    0.000    0.000    0.000    0.000    0.000 
#
# Total GULP energy -156128.251655 kJ/mol
# GULP energy per Si atom -5576.008988 kJ/mol
# Density = 1.897270 g / cm^3
# Si number density = 19.015977 Si / 1000 Ang^3
#
#
#
# Elastic Constant Matrix: (Units=GPa)
#
#
# Indices 1 2 3 4 5 6 
#
# 1 94.1867 24.4242 12.7835 0.0000 0.0000 0.0000
# 2 24.4242 104.0875 45.3914 0.0000 0.0000 0.0000
# 3 12.7835 45.3914 75.0532 0.0000 0.0000 0.0000
# 4 0.0000 0.0000 0.0000 29.1718 0.0000 0.0000
# 5 0.0000 0.0000 0.0000 0.0000 18.5323 0.0000
# 6 0.0000 0.0000 0.0000 0.0000 0.0000 17.0448
#
#
#
# Elastic Compliance Matrix: (Units=1/GPa)
#
#
# Indices 1 2 3 4 5 6 
#
# 1 0.011316 -0.002465 -0.000437 0.000000 0.000000 0.000000
# 2 -0.002465 0.013586 -0.007797 0.000000 0.000000 0.000000
# 3 -0.000437 -0.007797 0.018114 0.000000 0.000000 0.000000
# 4 0.000000 0.000000 0.000000 0.034280 0.000000 0.000000
# 5 0.000000 0.000000 0.000000 0.000000 0.053960 0.000000
# 6 0.000000 0.000000 0.000000 0.000000 0.000000 0.058669
#
#
# Mechanical properties :
#
#
# Convention : Reuss Voigt Hill
#
# Bulk Modulus (GPa) = 46.25632 48.72509 47.49070
# Shear Modulus (GPa) = 22.88059 25.66500 24.27280
#
# Velocity S-wave (km/s) = 3.47252 3.67775 3.57661
# Velocity P-wave (km/s) = 6.36048 6.61161 6.48726
#
# Compressibility (1/GPa) = 0.02161867
#
# Stress axis : x y z
#
# Youngs Moduli (GPa) = 88.37330 73.60682 55.20717
#
# Poissons Ratio (x) = 0.18143 0.02411
# Poissons Ratio (y) = 0.21782 0.43043
# Poissons Ratio (z) = 0.03859 0.57389
#
# Static dielectric constant tensor:
#      x y z
#    x 1.653850 0.000000 0.000000 
#    y 0.000000 1.714140 0.000000 
#    z 0.000000 0.000000 1.694340 
# 
# From -- ./inp_files/7738.got.cif
#   From: 2010.05.17/outbox.cif.g08.bks.cpg/sg24_4_cif.got.tgz:7738.got - 2010.06.04 00:33:39.
