data_PCOD9333178
_publ_section_title
;
Structure prediction by ZEFSAII (Michael W. Deem and Ramdas Pophale) SiO2 
 PCOD9333178
Probable space group: I 21 21 21
;
_chemical_formula_sum "Si O2"
_cell_formula_units_Z 64
_cell_length_a 16.913008
_cell_length_b 18.438903
_cell_length_c 8.768643
_cell_angle_alpha 90.000000
_cell_angle_beta 90.000000
_cell_angle_gamma 90.000000
_cell_volume 2734.565453
_symmetry_space_group_name_H-M "I 21 21 21"
_symmetry_group_IT_number 24
_symmetry_cell_setting 'orthorhombic'
loop_
_space_group_symop_operation_xyz
x,y,z
-x,1/2-y,z
x,-y,1/2-z
1/2-x,y,-z
1/2+x,1/2+y,1/2+z
1/2-x,-y,1/2+z
1/2+x,1/2-y,-z
-x,1/2+y,1/2-z
loop_
_atom_site_type_symbol
_atom_site_label
_atom_site_fract_x
_atom_site_fract_y
_atom_site_fract_z
Si Si1 0.802574 0.251307 0.357615
Si Si2 0.809766 0.216438 0.873049
Si Si3 0.925476 0.793370 0.377847
Si Si4 0.503110 0.585122 0.410944
Si Si5 0.562991 0.047277 0.602746
Si Si6 0.393538 0.103345 0.639775
Si Si7 0.658484 0.549882 0.526458
Si Si8 0.869652 0.079800 0.687343
O O1 0.750000 0.225833 0.500000
O O2 0.736944 0.273182 0.230181
O O3 0.862033 0.199726 0.258737
O O4 0.855524 0.320229 0.403950
O O5 0.827620 0.147745 0.766017
O O6 0.750000 0.186985 0.000000
O O7 0.880975 0.245343 0.977920
O O8 0.962860 0.860202 0.468857
O O9 0.000000 0.750000 0.317896
O O10 0.476033 0.510220 0.486819
O O11 0.597157 0.582985 0.405192
O O12 0.459159 0.592749 0.251095
O O13 0.489194 0.099626 0.638788
O O14 0.630377 0.080571 0.495466
O O15 0.587599 0.000000 0.750000
O O16 0.368568 0.084643 0.813072
O O17 0.358373 0.036466 0.542321
O O18 0.750000 0.562849 0.500000
O O19 0.843970 0.000000 0.750000
#
# Coordination Sequence:
#
# PCOD9333178 Si02
#       8
#     8   8   8   8   8   8   8   8
#     4  11  24  42  59  89 132 174 213 268 330 392
#     4   9  21  44  66  90 130 166 217 280 323 392
#     4  10  21  39  67  86 117 172 222 266 329 396
#     4   9  18  36  57  90 121 156 214 271 315 377
#     4  10  18  35  61  89 133 164 206 265 319 387
#     4  10  20  38  53  84 128 174 213 259 322 385
#     4  10  19  35  57  86 123 167 216 260 324 389
#     4   9  19  37  66  98 121 156 207 269 335 377
#
# _framework density 23.404084000000001
#
# number of rings (size 3 to 8) (size 9 to 14) (size 15 to 20)
#    0.000    2.250    2.500    1.125    0.000    3.500 
#   18.000    0.625    0.000    5.250    0.000    0.000 
#    0.000    0.000    0.000    0.000    0.000    0.000 
#
# Total GULP energy -178473.148426 kJ/mol
# GULP energy per Si atom -5577.285888 kJ/mol
# Density = 2.335082 g / cm^3
# Si number density = 23.404084 Si / 1000 Ang^3
#
#
#
# Elastic Constant Matrix: (Units=GPa)
#
#
# Indices 1 2 3 4 5 6 
#
# 1 74.0733 18.9070 45.3166 0.0000 0.0000 0.0000
# 2 18.9070 63.8971 30.8016 0.0000 0.0000 0.0000
# 3 45.3166 30.8016 127.9862 0.0000 0.0000 0.0000
# 4 0.0000 0.0000 0.0000 22.6260 0.0000 0.0000
# 5 0.0000 0.0000 0.0000 0.0000 34.4504 0.0000
# 6 0.0000 0.0000 0.0000 0.0000 0.0000 20.2259
#
#
#
# Elastic Compliance Matrix: (Units=1/GPa)
#
#
# Indices 1 2 3 4 5 6 
#
# 1 0.017576 -0.002490 -0.005624 0.000000 0.000000 0.000000
# 2 -0.002490 0.018057 -0.003464 0.000000 0.000000 0.000000
# 3 -0.005624 -0.003464 0.010638 0.000000 0.000000 0.000000
# 4 0.000000 0.000000 0.000000 0.044197 0.000000 0.000000
# 5 0.000000 0.000000 0.000000 0.000000 0.029027 0.000000
# 6 0.000000 0.000000 0.000000 0.000000 0.000000 0.049442
#
#
# Mechanical properties :
#
#
# Convention : Reuss Voigt Hill
#
# Bulk Modulus (GPa) = 43.26068 50.66742 46.96405
# Shear Modulus (GPa) = 25.02525 26.85589 25.94057
#
# Velocity S-wave (km/s) = 3.27351 3.39113 3.33284
# Velocity P-wave (km/s) = 5.72820 6.08515 5.90937
#
# Compressibility (1/GPa) = 0.02311568
#
# Stress axis : x y z
#
# Youngs Moduli (GPa) = 56.89452 55.38111 93.99922
#
# Poissons Ratio (x) = 0.13788 0.52867
# Poissons Ratio (y) = 0.14165 0.32562
# Poissons Ratio (z) = 0.31998 0.19184
#
# Static dielectric constant tensor:
#      x y z
#    x 1.948670 0.000000 0.000000 
#    y 0.000000 1.949930 0.000000 
#    z 0.000000 0.000000 1.916080 
# 
# From -- ./inp_files/14607.got.cif
#   From: 2010.05.17/outbox.cif.g08.bks.cpg/sg24_8_cif.got.tgz:14607.got - 2010.06.04 00:33:39.
