data_PCOD9333636
_publ_section_title
;
Structure prediction by ZEFSAII (Michael W. Deem and Ramdas Pophale) SiO2 
 PCOD9333636
Probable space group: I 21 21 21
;
_chemical_formula_sum "Si O2"
_cell_formula_units_Z 48
_cell_length_a 9.454385
_cell_length_b 15.169202
_cell_length_c 17.891954
_cell_angle_alpha 90.000000
_cell_angle_beta 90.000000
_cell_angle_gamma 90.000000
_cell_volume 2565.983097
_symmetry_space_group_name_H-M "I 21 21 21"
_symmetry_group_IT_number 24
_symmetry_cell_setting 'orthorhombic'
loop_
_space_group_symop_operation_xyz
x,y,z
-x,1/2-y,z
x,-y,1/2-z
1/2-x,y,-z
1/2+x,1/2+y,1/2+z
1/2-x,-y,1/2+z
1/2+x,1/2-y,-z
-x,1/2+y,1/2-z
loop_
_atom_site_type_symbol
_atom_site_label
_atom_site_fract_x
_atom_site_fract_y
_atom_site_fract_z
Si Si1 0.908990 0.172616 0.311198
Si Si2 0.657472 0.254913 0.219409
Si Si3 0.158875 0.648558 0.565078
Si Si4 0.359820 0.091018 0.796528
Si Si5 0.662378 0.036137 0.564146
Si Si6 0.909365 0.571324 0.472686
O O1 0.768473 0.210433 0.274579
O O2 0.865859 0.091835 0.362987
O O3 0.000000 0.250000 0.351030
O O4 0.013584 0.140777 0.245826
O O5 0.500000 0.250000 0.249789
O O6 0.656707 0.202880 0.140675
O O7 0.715493 0.353461 0.208448
O O8 0.250000 0.695390 0.500000
O O9 0.247358 0.555554 0.577970
O O10 0.004407 0.632513 0.527991
O O11 0.401205 0.091405 0.883984
O O12 0.344604 0.000000 0.750000
O O13 0.750000 0.085154 0.500000
O O14 0.510070 0.014014 0.528940
O O15 0.750000 0.561572 0.500000
#
# Coordination Sequence:
#
# PCOD9333636 Si02
#       6
#     8   8   8   8   8   8
#     4  10  21  40  64  84 118 166 213 257 303 386
#     4  11  24  39  54  95 129 156 207 259 321 371
#     4   9  20  36  59  88 125 164 198 250 320 385
#     4  11  22  40  66  90 125 174 215 248 306 395
#     4   9  19  39  61  88 115 158 213 250 317 378
#     4  10  19  35  60  90 120 158 200 258 308 366
#
# _framework density 18.70628
#
# number of rings (size 3 to 8) (size 9 to 14) (size 15 to 20)
#    0.000    2.333    1.667    3.000    0.000    2.000 
#    9.000    1.667    0.000    0.000    0.000    0.000 
#    0.000    0.000    0.000    0.000    0.000    0.000 
#
# Total GULP energy -133711.404219 kJ/mol
# GULP energy per Si atom -5571.308509 kJ/mol
# Density = 1.866370 g / cm^3
# Si number density = 18.706280 Si / 1000 Ang^3
#
#
#
# Elastic Constant Matrix: (Units=GPa)
#
#
# Indices 1 2 3 4 5 6 
#
# 1 173.7666 39.7913 35.7336 0.0000 0.0000 0.0000
# 2 39.7913 60.6350 17.2350 0.0000 0.0000 0.0000
# 3 35.7336 17.2350 57.8316 0.0000 0.0000 0.0000
# 4 0.0000 0.0000 0.0000 -30.8917 0.0000 0.0000
# 5 0.0000 0.0000 0.0000 0.0000 25.1653 0.0000
# 6 0.0000 0.0000 0.0000 0.0000 0.0000 13.5876
#
#
#
# Elastic Compliance Matrix: (Units=1/GPa)
#
#
# Indices 1 2 3 4 5 6 
#
# 1 0.007332 -0.003850 -0.003383 0.000000 0.000000 0.000000
# 2 -0.003850 0.020040 -0.003593 0.000000 0.000000 0.000000
# 3 -0.003383 -0.003593 0.020453 0.000000 0.000000 0.000000
# 4 0.000000 0.000000 0.000000 -0.032371 0.000000 0.000000
# 5 0.000000 0.000000 0.000000 0.000000 0.039737 0.000000
# 6 0.000000 0.000000 0.000000 0.000000 0.000000 0.073597
#
#
# Mechanical properties :
#
#
# Convention : Reuss Voigt Hill
#
# Bulk Modulus (GPa) = 38.20882 53.08366 45.64624
# Shear Modulus (GPa) = 31.41393 14.87046 23.14220
#
# Velocity S-wave (km/s) = 4.10240 2.82254 3.52111
# Velocity P-wave (km/s) = 6.55054 6.24991 6.40199
#
# Compressibility (1/GPa) = 0.02617197
#
# Stress axis : x y z
#
# Youngs Moduli (GPa) = 136.38499 49.89996 48.89283
#
# Poissons Ratio (x) = 0.19212 0.16541
# Poissons Ratio (y) = 0.52509 0.17569
# Poissons Ratio (z) = 0.46140 0.17931
#
# Static dielectric constant tensor:
#      x y z
#    x 1.663400 0.000000 0.000000 
#    y 0.000000 1.707590 0.000000 
#    z 0.000000 0.000000 1.656660 
# 
# From -- ./inp_files/14192.got.cif
#   From: 2010.05.17/outbox.cif.g08.bks.cpg/sg24_8_cif.got.tgz:14192.got - 2010.06.04 00:33:39.
