data_PCOD9333821
_publ_section_title
;
Structure prediction by ZEFSAII (Michael W. Deem and Ramdas Pophale) SiO2 
 PCOD9333821
Probable space group: I 21 21 21
;
_chemical_formula_sum "Si O2"
_cell_formula_units_Z 32
_cell_length_a 22.901389
_cell_length_b 8.761445
_cell_length_c 7.478678
_cell_angle_alpha 90.000000
_cell_angle_beta 90.000000
_cell_angle_gamma 90.000000
_cell_volume 1500.591208
_symmetry_space_group_name_H-M "I 21 21 21"
_symmetry_group_IT_number 24
_symmetry_cell_setting 'orthorhombic'
loop_
_space_group_symop_operation_xyz
x,y,z
-x,1/2-y,z
x,-y,1/2-z
1/2-x,y,-z
1/2+x,1/2+y,1/2+z
1/2-x,-y,1/2+z
1/2+x,1/2-y,-z
-x,1/2+y,1/2-z
loop_
_atom_site_type_symbol
_atom_site_label
_atom_site_fract_x
_atom_site_fract_y
_atom_site_fract_z
Si Si1 0.650182 0.677978 0.283450
Si Si2 0.607507 0.845734 0.922262
Si Si3 0.436753 0.304072 0.931413
Si Si4 0.262710 0.329700 0.704105
O O1 0.646837 0.500000 0.250000
O O2 0.612130 0.719805 0.453911
O O3 0.718138 0.724131 0.311411
O O4 0.623367 0.769392 0.111638
O O5 0.565794 0.763797 0.779857
O O6 0.667551 0.839134 0.803271
O O7 0.580195 0.015130 0.950213
O O8 0.500000 0.250000 0.999263
O O9 0.241721 0.500000 0.750000
O O10 0.250000 0.288942 0.500000
#
# Coordination Sequence:
#
# PCOD9333821 Si02
#       4
#     8   8   8   8
#     4  11  25  41  63 104 141 178 223 286 347 404
#     4  10  23  46  66  98 132 179 231 281 346 402
#     4  11  24  43  72  98 128 184 235 279 337 414
#     4  10  19  39  67  94 129 177 229 280 345 411
#
# _framework density 21.324928
#
# number of rings (size 3 to 8) (size 9 to 14) (size 15 to 20)
#    0.000    1.500    2.500    3.750    0.000    8.000 
#   13.500    0.000    0.000    0.000    0.000    0.000 
#    0.000    0.000    0.000    0.000    0.000    0.000 
#
# Total GULP energy -89117.633534 kJ/mol
# GULP energy per Si atom -5569.852096 kJ/mol
# Density = 2.127639 g / cm^3
# Si number density = 21.324928 Si / 1000 Ang^3
#
#
#
# Elastic Constant Matrix: (Units=GPa)
#
#
# Indices 1 2 3 4 5 6 
#
# 1 145.7191 47.9477 36.3649 0.0000 0.0000 0.0000
# 2 47.9477 107.1250 35.9059 0.0000 0.0000 0.0000
# 3 36.3649 35.9059 63.5187 0.0000 0.0000 0.0000
# 4 0.0000 0.0000 0.0000 22.9103 0.0000 0.0000
# 5 0.0000 0.0000 0.0000 0.0000 37.0487 0.0000
# 6 0.0000 0.0000 0.0000 0.0000 0.0000 15.3259
#
#
#
# Elastic Compliance Matrix: (Units=1/GPa)
#
#
# Indices 1 2 3 4 5 6 
#
# 1 0.008601 -0.002713 -0.003391 0.000000 0.000000 0.000000
# 2 -0.002713 0.012373 -0.005441 0.000000 0.000000 0.000000
# 3 -0.003391 -0.005441 0.020760 0.000000 0.000000 0.000000
# 4 0.000000 0.000000 0.000000 0.043648 0.000000 0.000000
# 5 0.000000 0.000000 0.000000 0.000000 0.026992 0.000000
# 6 0.000000 0.000000 0.000000 0.000000 0.000000 0.065249
#
#
# Mechanical properties :
#
#
# Convention : Reuss Voigt Hill
#
# Bulk Modulus (GPa) = 53.63360 61.86667 57.75013
# Shear Modulus (GPa) = 24.16297 28.13327 26.14812
#
# Velocity S-wave (km/s) = 3.36979 3.63611 3.50548
# Velocity P-wave (km/s) = 6.35184 6.83395 6.59730
#
# Compressibility (1/GPa) = 0.01864503
#
# Stress axis : x y z
#
# Youngs Moduli (GPa) = 116.25892 80.82100 48.16948
#
# Poissons Ratio (x) = 0.21931 0.16332
# Poissons Ratio (y) = 0.31547 0.26208
# Poissons Ratio (z) = 0.39418 0.43973
#
# Static dielectric constant tensor:
#      x y z
#    x 1.900480 0.000000 0.000000 
#    y 0.000000 1.744970 0.000000 
#    z 0.000000 0.000000 1.814220 
# 
# From -- ./inp_files/14772.got.cif
#   From: 2010.05.17/outbox.cif.g08.bks.cpg/sg24_8_cif.got.tgz:14772.got - 2010.06.04 00:33:39.
