data_PCOD9334415
_publ_section_title
;
Structure prediction by ZEFSAII (Michael W. Deem and Ramdas Pophale) SiO2 
 PCOD9334415
Probable space group: I 21 21 21
;
_chemical_formula_sum "Si O2"
_cell_formula_units_Z 48
_cell_length_a 9.102688
_cell_length_b 18.165477
_cell_length_c 14.424005
_cell_angle_alpha 90.000000
_cell_angle_beta 90.000000
_cell_angle_gamma 90.000000
_cell_volume 2385.076580
_symmetry_space_group_name_H-M "I 21 21 21"
_symmetry_group_IT_number 24
_symmetry_cell_setting 'orthorhombic'
loop_
_space_group_symop_operation_xyz
x,y,z
-x,1/2-y,z
x,-y,1/2-z
1/2-x,y,-z
1/2+x,1/2+y,1/2+z
1/2-x,-y,1/2+z
1/2+x,1/2-y,-z
-x,1/2+y,1/2-z
loop_
_atom_site_type_symbol
_atom_site_label
_atom_site_fract_x
_atom_site_fract_y
_atom_site_fract_z
Si Si1 0.582269 0.456675 0.983911
Si Si2 0.365898 0.195212 0.916529
Si Si3 0.825992 0.086035 0.899963
Si Si4 0.654390 0.796893 0.905458
Si Si5 0.603581 0.962266 0.845439
Si Si6 0.329609 0.270412 0.228825
O O1 0.573468 0.386834 0.915368
O O2 0.500140 0.521015 0.932582
O O3 0.750000 0.473909 0.000000
O O4 0.494633 0.430725 0.074747
O O5 0.500000 0.250000 0.932049
O O6 0.275336 0.215878 0.827237
O O7 0.250000 0.199551 0.000000
O O8 0.810850 0.151014 0.825353
O O9 0.749607 0.010923 0.866033
O O10 0.750000 0.105851 0.000000
O O11 0.500000 0.750000 0.915407
O O12 0.622834 0.875136 0.853723
O O13 0.770245 0.763412 0.832597
O O14 0.750000 0.806936 0.000000
O O15 0.547505 0.000000 0.750000
O O16 0.500000 0.250000 0.221688
#
# Coordination Sequence:
#
# PCOD9334415 Si02
#       6
#     8   8   8   8   8   8
#     4  10  21  36  61  97 135 163 204 273 353 400
#     4  11  20  33  58  96 140 172 202 257 336 415
#     4  10  20  38  65  95 130 174 213 263 342 416
#     4  12  28  49  71  95 130 182 239 286 337 396
#     4  11  23  45  71  94 126 177 231 281 336 417
#     4  12  23  38  63  96 136 175 224 273 330 409
#
# _framework density 20.125139000000001
#
# number of rings (size 3 to 8) (size 9 to 14) (size 15 to 20)
#    0.000    1.000    1.667    8.500    2.333    0.667 
#    0.000    2.500    0.000    0.000    0.000    0.000 
#    0.000    0.000    0.000    0.000    0.000    0.000 
#
# Total GULP energy -133922.558486 kJ/mol
# GULP energy per Si atom -5580.106604 kJ/mol
# Density = 2.007933 g / cm^3
# Si number density = 20.125139 Si / 1000 Ang^3
#
#
#
# Elastic Constant Matrix: (Units=GPa)
#
#
# Indices 1 2 3 4 5 6 
#
# 1 98.2750 16.8393 0.2595 0.0000 0.0000 0.0000
# 2 16.8393 66.0677 -1.6233 0.0000 0.0000 0.0000
# 3 0.2595 -1.6233 88.4315 0.0000 0.0000 0.0000
# 4 0.0000 0.0000 0.0000 35.2846 0.0000 0.0000
# 5 0.0000 0.0000 0.0000 0.0000 20.9138 0.0000
# 6 0.0000 0.0000 0.0000 0.0000 0.0000 33.5405
#
#
#
# Elastic Compliance Matrix: (Units=1/GPa)
#
#
# Indices 1 2 3 4 5 6 
#
# 1 0.010641 -0.002714 -0.000081 0.000000 0.000000 0.000000
# 2 -0.002714 0.015835 0.000299 0.000000 0.000000 0.000000
# 3 -0.000081 0.000299 0.011314 0.000000 0.000000 0.000000
# 4 0.000000 0.000000 0.000000 0.028341 0.000000 0.000000
# 5 0.000000 0.000000 0.000000 0.000000 0.047815 0.000000
# 6 0.000000 0.000000 0.000000 0.000000 0.000000 0.029815
#
#
# Mechanical properties :
#
#
# Convention : Reuss Voigt Hill
#
# Bulk Modulus (GPa) = 30.49081 31.52503 31.00792
# Shear Modulus (GPa) = 31.31142 33.76769 32.53956
#
# Velocity S-wave (km/s) = 3.94869 4.10064 4.02538
# Velocity P-wave (km/s) = 5.99775 6.17405 6.08654
#
# Compressibility (1/GPa) = 0.03279677
#
# Stress axis : x y z
#
# Youngs Moduli (GPa) = 93.97786 63.15085 88.38682
#
# Poissons Ratio (x) = 0.17140 0.00716
# Poissons Ratio (y) = 0.25507 -0.02640
# Poissons Ratio (z) = 0.00762 -0.01886
#
# Static dielectric constant tensor:
#      x y z
#    x 1.716880 0.000000 0.000000 
#    y 0.000000 1.765450 0.000000 
#    z 0.000000 0.000000 1.757690 
# 
# From -- ./inp_files/24778.got.cif
#   From: 2010.05.17/outbox.cif.g08.bks.cpg/sg24_13_cif.got.tgz:24778.got - 2010.06.04 00:33:39.
