data_PCOD9334891
_publ_section_title
;
Structure prediction by ZEFSAII (Michael W. Deem and Ramdas Pophale) SiO2 
 PCOD9334891
Probable space group: I 21 21 21
;
_chemical_formula_sum "Si O2"
_cell_formula_units_Z 60
_cell_length_a 12.918923
_cell_length_b 12.410278
_cell_length_c 18.438462
_cell_angle_alpha 90.000000
_cell_angle_beta 90.000000
_cell_angle_gamma 90.000000
_cell_volume 2956.191150
_symmetry_space_group_name_H-M "I 21 21 21"
_symmetry_group_IT_number 24
_symmetry_cell_setting 'orthorhombic'
loop_
_space_group_symop_operation_xyz
x,y,z
-x,1/2-y,z
x,-y,1/2-z
1/2-x,y,-z
1/2+x,1/2+y,1/2+z
1/2-x,-y,1/2+z
1/2+x,1/2-y,-z
-x,1/2+y,1/2-z
loop_
_atom_site_type_symbol
_atom_site_label
_atom_site_fract_x
_atom_site_fract_y
_atom_site_fract_z
Si Si1 0.694918 0.191494 0.845185
Si Si2 0.749208 0.800089 0.821119
Si Si3 0.531776 0.064513 0.033276
Si Si4 0.169766 0.468424 0.432375
Si Si5 0.552434 0.943199 0.172621
Si Si6 0.802948 0.366599 0.924359
Si Si7 0.000000 0.750000 0.428045
Si Si8 0.806960 0.558848 0.827577
O O1 0.705215 0.177612 0.759257
O O2 0.792127 0.262235 0.873628
O O3 0.596831 0.264485 0.872813
O O4 0.684482 0.074132 0.881811
O O5 0.687975 0.865212 0.882694
O O6 0.867027 0.845448 0.826916
O O7 0.750748 0.672359 0.830980
O O8 0.417185 0.094843 0.056681
O O9 0.582711 0.025489 0.107950
O O10 0.555863 0.169216 0.985160
O O11 0.558992 0.973534 0.973695
O O12 0.250000 0.473772 0.500000
O O13 0.430616 0.918551 0.161131
O O14 0.561965 0.000000 0.250000
O O15 0.760835 0.472355 0.883705
O O16 0.750000 0.341926 0.000000
O O17 0.799645 0.500000 0.750000
#
# Coordination Sequence:
#
# PCOD9334891 Si02
#       8
#     8   8   8   8   8   8   4   8
#     4  11  23  40  68  99 130 171 231 288 351 401
#     4  12  23  40  66  91 138 182 223 278 345 419
#     4  10  22  38  62  94 138 170 219 273 344 410
#     4  11  23  40  61  98 136 176 222 275 339 423
#     4  10  21  38  59  98 133 169 217 277 347 416
#     4  11  21  41  68  96 125 170 224 286 344 401
#     4  10  22  40  66  96 132 170 222 296 330 406
#     4  10  22  41  60  93 130 173 224 278 340 414
#
# _framework density 20.296388
#
# number of rings (size 3 to 8) (size 9 to 14) (size 15 to 20)
#    0.000    1.333    4.000    2.000    1.867    0.533 
#    0.000    1.333    5.867    0.000    0.000    0.000 
#    0.000    0.000    0.000    0.000    0.000    0.000 
#
# Total GULP energy -167087.409217 kJ/mol
# GULP energy per Si atom -5569.580307 kJ/mol
# Density = 2.025019 g / cm^3
# Si number density = 20.296388 Si / 1000 Ang^3
#
#
#
# Elastic Constant Matrix: (Units=GPa)
#
#
# Indices 1 2 3 4 5 6 
#
# 1 40.2033 20.6991 19.9827 0.0000 0.0000 0.0000
# 2 20.6991 109.7536 46.7989 0.0000 0.0000 0.0000
# 3 19.9827 46.7989 130.2601 0.0000 0.0000 0.0000
# 4 0.0000 0.0000 0.0000 31.9869 0.0000 0.0000
# 5 0.0000 0.0000 0.0000 0.0000 22.2151 0.0000
# 6 0.0000 0.0000 0.0000 0.0000 0.0000 17.7830
#
#
#
# Elastic Compliance Matrix: (Units=1/GPa)
#
#
# Indices 1 2 3 4 5 6 
#
# 1 0.028432 -0.004136 -0.002876 0.000000 0.000000 0.000000
# 2 -0.004136 0.011361 -0.003447 0.000000 0.000000 0.000000
# 3 -0.002876 -0.003447 0.009357 0.000000 0.000000 0.000000
# 4 0.000000 0.000000 0.000000 0.031263 0.000000 0.000000
# 5 0.000000 0.000000 0.000000 0.000000 0.045014 0.000000
# 6 0.000000 0.000000 0.000000 0.000000 0.000000 0.056233
#
#
# Mechanical properties :
#
#
# Convention : Reuss Voigt Hill
#
# Bulk Modulus (GPa) = 35.42059 50.57539 42.99799
# Shear Modulus (GPa) = 23.58603 27.24609 25.41606
#
# Velocity S-wave (km/s) = 3.41263 3.66787 3.54255
# Velocity P-wave (km/s) = 5.74609 6.55059 6.16148
#
# Compressibility (1/GPa) = 0.02823217
#
# Stress axis : x y z
#
# Youngs Moduli (GPa) = 35.17112 88.01814 106.87612
#
# Poissons Ratio (x) = 0.36405 0.30735
# Poissons Ratio (y) = 0.14547 0.36844
# Poissons Ratio (z) = 0.10114 0.30343
#
# Static dielectric constant tensor:
#      x y z
#    x 1.819580 0.000000 0.000000 
#    y 0.000000 1.758520 0.000000 
#    z 0.000000 0.000000 1.721160 
# 
# From -- ./inp_files/30863.got.cif
#   From: 2010.05.17/outbox.cif.g08.bks.cpg/sg24_16_cif.got.tgz:30863.got - 2010.06.04 00:33:39.
