data_PCOD9334620
_publ_section_title
;
Structure prediction by ZEFSAII (Michael W. Deem and Ramdas Pophale) SiO2 
 PCOD9334620
Probable space group: I 21 21 21
;
_chemical_formula_sum "Si O2"
_cell_formula_units_Z 64
_cell_length_a 7.975605
_cell_length_b 19.578074
_cell_length_c 18.275387
_cell_angle_alpha 90.000000
_cell_angle_beta 90.000000
_cell_angle_gamma 90.000000
_cell_volume 2853.646578
_symmetry_space_group_name_H-M "I 21 21 21"
_symmetry_group_IT_number 24
_symmetry_cell_setting 'orthorhombic'
loop_
_space_group_symop_operation_xyz
x,y,z
-x,1/2-y,z
x,-y,1/2-z
1/2-x,y,-z
1/2+x,1/2+y,1/2+z
1/2-x,-y,1/2+z
1/2+x,1/2-y,-z
-x,1/2+y,1/2-z
loop_
_atom_site_type_symbol
_atom_site_label
_atom_site_fract_x
_atom_site_fract_y
_atom_site_fract_z
Si Si1 0.822266 0.327410 0.266407
Si Si2 0.011064 0.012989 0.556367
Si Si3 0.787793 0.120233 0.627937
Si Si4 0.733969 0.103853 0.923577
Si Si5 0.780683 0.823470 0.273704
Si Si6 0.300503 0.768291 0.081436
Si Si7 0.005374 0.011228 0.392651
Si Si8 0.704678 0.538109 0.311148
O O1 0.758275 0.257083 0.230928
O O2 0.770205 0.316247 0.352450
O O3 0.740950 0.388648 0.221139
O O4 0.023359 0.333159 0.251674
O O5 0.945958 0.084404 0.589545
O O6 0.067776 0.027682 0.474199
O O7 0.132144 0.970511 0.608516
O O8 0.854459 0.960656 0.560037
O O9 0.825678 0.139047 0.711334
O O10 0.726208 0.191341 0.592326
O O11 0.640939 0.064529 0.624113
O O12 0.768430 0.147451 0.852070
O O13 0.560288 0.066405 0.903117
O O14 0.750000 0.144042 0.000000
O O15 0.500000 0.750000 0.087976
O O16 0.250000 0.792357 0.000000
O O17 0.131017 0.008982 0.325341
O O18 0.594310 0.500000 0.250000
#
# Coordination Sequence:
#
# PCOD9334620 Si02
#       8
#     8   8   8   8   8   8   8   8
#     4  10  24  43  64  99 130 175 225 277 331 405
#     4  10  23  38  62  95 131 164 215 279 339 396
#     4  10  22  41  69  98 127 174 225 268 336 407
#     4   9  19  37  64  92 124 168 219 270 325 396
#     4  10  20  40  71  91 129 174 228 273 328 407
#     4  11  26  45  70 100 144 183 227 281 344 416
#     4  10  20  41  62  91 128 168 217 270 332 404
#     4  12  25  39  61  91 130 166 216 273 340 399
#
# _framework density 22.427444000000001
#
# number of rings (size 3 to 8) (size 9 to 14) (size 15 to 20)
#    0.000    1.750    1.250    3.000    7.000    2.000 
#    2.250    1.250    0.000    0.000    0.000    0.000 
#    0.000    0.000    0.000    0.000    0.000    0.000 
#
# Total GULP energy -178506.423444 kJ/mol
# GULP energy per Si atom -5578.325733 kJ/mol
# Density = 2.237640 g / cm^3
# Si number density = 22.427444 Si / 1000 Ang^3
#
#
#
# Elastic Constant Matrix: (Units=GPa)
#
#
# Indices 1 2 3 4 5 6 
#
# 1 37.3608 10.0939 5.7741 0.0000 0.0000 0.0000
# 2 10.0939 98.9070 59.1916 0.0000 0.0000 0.0000
# 3 5.7741 59.1916 170.2470 0.0000 0.0000 0.0000
# 4 0.0000 0.0000 0.0000 20.3588 0.0000 0.0000
# 5 0.0000 0.0000 0.0000 0.0000 21.7537 0.0000
# 6 0.0000 0.0000 0.0000 0.0000 0.0000 1.5064
#
#
#
# Elastic Compliance Matrix: (Units=1/GPa)
#
#
# Indices 1 2 3 4 5 6 
#
# 1 0.027525 -0.002842 0.000054 0.000000 0.000000 0.000000
# 2 -0.002842 0.013060 -0.004444 0.000000 0.000000 0.000000
# 3 0.000054 -0.004444 0.007417 0.000000 0.000000 0.000000
# 4 0.000000 0.000000 0.000000 0.049119 0.000000 0.000000
# 5 0.000000 0.000000 0.000000 0.000000 0.045969 0.000000
# 6 0.000000 0.000000 0.000000 0.000000 0.000000 0.663841
#
#
# Mechanical properties :
#
#
# Convention : Reuss Voigt Hill
#
# Bulk Modulus (GPa) = 29.81553 50.73711 40.27632
# Shear Modulus (GPa) = 6.00546 24.15412 15.07979
#
# Velocity S-wave (km/s) = 1.63815 3.28531 2.59584
# Velocity P-wave (km/s) = 4.11110 6.08793 5.19442
#
# Compressibility (1/GPa) = 0.03353957
#
# Stress axis : x y z
#
# Youngs Moduli (GPa) = 36.33012 76.56780 134.82136
#
# Poissons Ratio (x) = 0.21758 -0.00734
# Poissons Ratio (y) = 0.10324 0.59921
# Poissons Ratio (z) = -0.00198 0.34030
#
# Static dielectric constant tensor:
#      x y z
#    x 1.982720 0.000000 0.000000 
#    y 0.000000 1.832670 0.000000 
#    z 0.000000 0.000000 1.877500 
# 
# From -- ./inp_files/29825.got.cif
#   From: 2010.05.17/outbox.cif.g08.bks.cpg/sg24_15_cif.got.tgz:29825.got - 2010.06.04 00:33:39.
