data_PCOD9334020
_publ_section_title
;
Structure prediction by ZEFSAII (Michael W. Deem and Ramdas Pophale) SiO2 
 PCOD9334020
Probable space group: I 21 21 21
;
_chemical_formula_sum "Si O2"
_cell_formula_units_Z 40
_cell_length_a 10.085999
_cell_length_b 26.521392
_cell_length_c 7.204146
_cell_angle_alpha 90.000000
_cell_angle_beta 90.000000
_cell_angle_gamma 90.000000
_cell_volume 1927.071112
_symmetry_space_group_name_H-M "I 21 21 21"
_symmetry_group_IT_number 24
_symmetry_cell_setting 'orthorhombic'
loop_
_space_group_symop_operation_xyz
x,y,z
-x,1/2-y,z
x,-y,1/2-z
1/2-x,y,-z
1/2+x,1/2+y,1/2+z
1/2-x,-y,1/2+z
1/2+x,1/2-y,-z
-x,1/2+y,1/2-z
loop_
_atom_site_type_symbol
_atom_site_label
_atom_site_fract_x
_atom_site_fract_y
_atom_site_fract_z
Si Si1 0.738286 0.055290 0.718382
Si Si2 0.588767 0.798559 0.516672
Si Si3 0.504809 0.107958 0.240449
Si Si4 0.984519 0.870683 0.186616
Si Si5 0.729234 0.440369 0.719126
O O1 0.750000 0.059649 0.500000
O O2 0.883040 0.065626 0.796714
O O3 0.639697 0.098960 0.770778
O O4 0.684338 0.000000 0.750000
O O5 0.500000 0.750000 0.467961
O O6 0.750000 0.791527 0.500000
O O7 0.542779 0.843499 0.379270
O O8 0.539580 0.816328 0.722778
O O9 0.511335 0.124439 0.460997
O O10 0.364820 0.081707 0.196770
O O11 0.110963 0.901683 0.259817
O O12 0.704299 0.500000 0.750000
O O13 0.750000 0.436819 0.500000
#
# Coordination Sequence:
#
# PCOD9334020 Si02
#       5
#     8   8   8   8   8
#     4  10  20  34  60  91 127 170 210 252 317 386
#     4  12  28  46  72  98 122 172 228 282 345 384
#     4  10  23  43  63  94 136 170 214 271 323 395
#     4  10  23  43  63  94 136 170 214 271 323 395
#     4  10  22  38  62  99 137 182 218 256 323 388
#
# _framework density 20.756889000000001
#
# number of rings (size 3 to 8) (size 9 to 14) (size 15 to 20)
#    0.000    1.600    2.000    1.200    8.400    0.800 
#    0.000    0.000    0.000    0.000    0.000    0.000 
#    0.000    0.000    0.000    0.000    0.000    0.000 
#
# Total GULP energy -111545.995587 kJ/mol
# GULP energy per Si atom -5577.299779 kJ/mol
# Density = 2.070965 g / cm^3
# Si number density = 20.756889 Si / 1000 Ang^3
#
#
#
# Elastic Constant Matrix: (Units=GPa)
#
#
# Indices 1 2 3 4 5 6 
#
# 1 101.9103 16.6932 -8.9809 0.0020 0.0018 0.0009
# 2 16.6932 94.5078 0.3172 0.0003 0.0011 0.0003
# 3 -8.9809 0.3172 67.7363 0.0024 0.0042 0.0007
# 4 0.0020 0.0003 0.0024 33.1367 0.0002 -0.0010
# 5 0.0018 0.0011 0.0042 0.0002 0.6675 0.0011
# 6 0.0009 0.0003 0.0007 -0.0010 0.0011 48.8650
#
#
#
# Elastic Compliance Matrix: (Units=1/GPa)
#
#
# Indices 1 2 3 4 5 6 
#
# 1 0.010230 -0.001811 0.001365 -0.000001 -0.000034 0.000000
# 2 -0.001811 0.010902 -0.000291 0.000000 -0.000011 0.000000
# 3 0.001365 -0.000291 0.014945 -0.000001 -0.000098 0.000000
# 4 -0.000001 0.000000 -0.000001 0.030178 -0.000010 0.000001
# 5 -0.000034 -0.000011 -0.000098 -0.000010 1.498179 -0.000033
# 6 0.000000 0.000000 0.000000 0.000001 -0.000033 0.020465
#
#
# Mechanical properties :
#
#
# Convention : Reuss Voigt Hill
#
# Bulk Modulus (GPa) = 28.90067 31.13483 30.01775
# Shear Modulus (GPa) = 3.12909 33.60884 18.36896
#
# Velocity S-wave (km/s) = 1.22913 4.02825 2.97805
# Velocity P-wave (km/s) = 3.99600 6.05542 5.13011
#
# Compressibility (1/GPa) = 0.03460128
#
# Stress axis : x y z
#
# Youngs Moduli (GPa) = 97.75608 91.72565 66.90994
#
# Poissons Ratio (x) = 0.16616 -0.09132
# Poissons Ratio (y) = 0.17708 0.01949
# Poissons Ratio (z) = -0.13342 0.02671
#
# Static dielectric constant tensor:
#      x y z
#    x 1.780010 0.000000 0.000000 
#    y 0.000000 1.702050 0.000000 
#    z 0.000000 0.000000 1.805740 
# 
# From -- ./inp_files/9301.got.cif
#   From: 2010.05.17/outbox.cif.g08.bks.cpg/sg24_5_cif.got.tgz:9301.got - 2010.06.04 00:33:39.
