data_PCOD9334756
_publ_section_title
;
Structure prediction by ZEFSAII (Michael W. Deem and Ramdas Pophale) SiO2 
 PCOD9334756
Probable space group: I 21 21 21
;
_chemical_formula_sum "Si O2"
_cell_formula_units_Z 60
_cell_length_a 16.898205
_cell_length_b 6.624231
_cell_length_c 25.116697
_cell_angle_alpha 90.000000
_cell_angle_beta 90.000000
_cell_angle_gamma 90.000000
_cell_volume 2811.503119
_symmetry_space_group_name_H-M "I 21 21 21"
_symmetry_group_IT_number 24
_symmetry_cell_setting 'orthorhombic'
loop_
_space_group_symop_operation_xyz
x,y,z
-x,1/2-y,z
x,-y,1/2-z
1/2-x,y,-z
1/2+x,1/2+y,1/2+z
1/2-x,-y,1/2+z
1/2+x,1/2-y,-z
-x,1/2+y,1/2-z
loop_
_atom_site_type_symbol
_atom_site_label
_atom_site_fract_x
_atom_site_fract_y
_atom_site_fract_z
Si Si1 0.000000 0.750000 0.186521
Si Si2 0.412145 0.175454 0.104523
Si Si3 0.342733 0.400084 0.385908
Si Si4 0.072199 0.372355 0.121825
Si Si5 0.328847 0.293093 0.573243
Si Si6 0.920164 0.333383 0.525180
Si Si7 0.326447 0.913609 0.193696
Si Si8 0.641471 0.517912 0.826566
O O1 0.919141 0.651384 0.209841
O O2 0.032153 0.552436 0.155652
O O3 0.500000 0.250000 0.118947
O O4 0.353433 0.364360 0.106359
O O5 0.374777 0.027435 0.147886
O O6 0.418489 0.058811 0.048239
O O7 0.262198 0.320081 0.412192
O O8 0.411278 0.304857 0.422268
O O9 0.340039 0.318788 0.325114
O O10 0.130479 0.488888 0.082515
O O11 0.116169 0.211574 0.160305
O O12 0.000000 0.250000 0.095380
O O13 0.350363 0.208917 0.515920
O O14 0.362638 0.134832 0.616494
O O15 0.000000 0.250000 0.497931
O O16 0.232513 0.961317 0.190480
O O17 0.354240 0.000000 0.250000
#
# Coordination Sequence:
#
# PCOD9334756 Si02
#       8
#     4   8   8   8   8   8   8   8
#     4   8  16  30  52  80 122 172 204 248 310 370
#     4  11  23  45  67  91 130 176 217 275 347 399
#     4  10  22  44  64  88 131 167 211 271 335 392
#     4   9  17  30  51  84 121 164 210 257 307 370
#     4  10  21  35  58  90 125 168 215 265 312 383
#     4  11  23  38  61  89 128 173 218 265 315 382
#     4  10  23  42  68  98 124 162 218 281 347 407
#     4   9  18  35  58  88 131 168 211 266 326 391
#
# _framework density 21.340896000000001
#
# number of rings (size 3 to 8) (size 9 to 14) (size 15 to 20)
#    0.000    2.133    1.333    1.200    5.600    1.600 
#    2.400    4.000    4.400    0.000    0.000    0.000 
#    0.000    0.000    0.000    0.000    0.000    0.000 
#
# Total GULP energy -167200.556935 kJ/mol
# GULP energy per Si atom -5573.351898 kJ/mol
# Density = 2.129232 g / cm^3
# Si number density = 21.340896 Si / 1000 Ang^3
#
#
#
# Elastic Constant Matrix: (Units=GPa)
#
#
# Indices 1 2 3 4 5 6 
#
# 1 75.5058 17.6576 9.8048 0.0000 0.0000 0.0000
# 2 17.6576 121.1196 29.4262 0.0000 0.0000 0.0000
# 3 9.8048 29.4262 77.9175 0.0000 0.0000 0.0000
# 4 0.0000 0.0000 0.0000 6.8294 0.0000 0.0000
# 5 0.0000 0.0000 0.0000 0.0000 83.0734 0.0000
# 6 0.0000 0.0000 0.0000 0.0000 0.0000 40.3677
#
#
#
# Elastic Compliance Matrix: (Units=1/GPa)
#
#
# Indices 1 2 3 4 5 6 
#
# 1 0.013793 -0.001750 -0.001075 0.000000 0.000000 0.000000
# 2 -0.001750 0.009312 -0.003297 0.000000 0.000000 0.000000
# 3 -0.001075 -0.003297 0.014214 0.000000 0.000000 0.000000
# 4 0.000000 0.000000 0.000000 0.146427 0.000000 0.000000
# 5 0.000000 0.000000 0.000000 0.000000 0.012038 0.000000
# 6 0.000000 0.000000 0.000000 0.000000 0.000000 0.024772
#
#
# Mechanical properties :
#
#
# Convention : Reuss Voigt Hill
#
# Bulk Modulus (GPa) = 39.87715 43.14668 41.51191
# Shear Modulus (GPa) = 20.73335 40.56438 30.64887
#
# Velocity S-wave (km/s) = 3.12032 4.36453 3.79378
# Velocity P-wave (km/s) = 5.63101 6.75726 6.21968
#
# Compressibility (1/GPa) = 0.02507702
#
# Stress axis : x y z
#
# Youngs Moduli (GPa) = 72.50185 107.38471 70.35139
#
# Poissons Ratio (x) = 0.18789 0.07562
# Poissons Ratio (y) = 0.12685 0.23193
# Poissons Ratio (z) = 0.07793 0.35401
#
# Static dielectric constant tensor:
#      x y z
#    x 1.820880 0.000000 0.000000 
#    y 0.000000 1.798050 0.000000 
#    z 0.000000 0.000000 1.788040 
# 
# From -- ./inp_files/37537.got.cif
#   From: 2010.05.17/outbox.cif.g08.bks.cpg/sg24_19_cif.got.tgz:37537.got - 2010.06.04 00:33:39.
