data_PCOD9334232
_publ_section_title
;
Structure prediction by ZEFSAII (Michael W. Deem and Ramdas Pophale) SiO2 
 PCOD9334232
Probable space group: I 21 21 21
;
_chemical_formula_sum "Si O2"
_cell_formula_units_Z 52
_cell_length_a 20.694310
_cell_length_b 5.256199
_cell_length_c 23.902254
_cell_angle_alpha 90.000000
_cell_angle_beta 90.000000
_cell_angle_gamma 90.000000
_cell_volume 2599.929711
_symmetry_space_group_name_H-M "I 21 21 21"
_symmetry_group_IT_number 24
_symmetry_cell_setting 'orthorhombic'
loop_
_space_group_symop_operation_xyz
x,y,z
-x,1/2-y,z
x,-y,1/2-z
1/2-x,y,-z
1/2+x,1/2+y,1/2+z
1/2-x,-y,1/2+z
1/2+x,1/2-y,-z
-x,1/2+y,1/2-z
loop_
_atom_site_type_symbol
_atom_site_label
_atom_site_fract_x
_atom_site_fract_y
_atom_site_fract_z
Si Si1 0.443942 0.551082 0.960898
Si Si2 0.321276 0.645028 0.025055
Si Si3 0.960071 0.013496 0.161021
Si Si4 0.500000 0.750000 0.435646
Si Si5 0.312101 0.490253 0.685062
Si Si6 0.257896 0.012893 0.182224
Si Si7 0.140146 0.141614 0.904709
O O1 0.500000 0.750000 0.949192
O O2 0.443921 0.398137 0.903200
O O3 0.372103 0.640798 0.973615
O O4 0.467131 0.438476 0.019780
O O5 0.335384 0.402969 0.065778
O O6 0.336913 0.906249 0.057056
O O7 0.250000 0.634198 0.000000
O O8 0.000000 0.250000 0.186844
O O9 0.888757 0.957501 0.183612
O O10 0.000000 0.750000 0.165200
O O11 0.561749 0.644990 0.402346
O O12 0.293142 0.500000 0.750000
O O13 0.290816 0.764093 0.662797
O O14 0.271723 0.254029 0.660939
O O15 0.325555 0.089821 0.154363
O O16 0.261822 0.000000 0.250000
#
# Coordination Sequence:
#
# PCOD9334232 Si02
#       7
#     8   8   8   4   8   8   8
#     4  10  20  37  55  78 123 162 194 237 294 364
#     4  11  24  38  57  93 122 157 205 254 293 355
#     4  11  23  36  57  85 115 161 205 248 290 350
#     4  10  20  40  58  84 120 158 198 230 302 364
#     4  10  22  41  62  86 119 157 199 254 309 356
#     4  10  22  41  64  90 119 155 199 250 311 361
#     4  11  23  39  65  87 121 163 198 246 305 358
#
# _framework density 20.000541999999999
#
# number of rings (size 3 to 8) (size 9 to 14) (size 15 to 20)
#    0.000    1.538    2.308    2.308    4.308    0.615 
#    0.000    0.000    0.000    6.462    0.000    0.000 
#    0.000    0.000    0.000    0.000    0.000    0.000 
#
# Total GULP energy -144878.592412 kJ/mol
# GULP energy per Si atom -5572.253554 kJ/mol
# Density = 1.995502 g / cm^3
# Si number density = 20.000542 Si / 1000 Ang^3
#
#
#
# Elastic Constant Matrix: (Units=GPa)
#
#
# Indices 1 2 3 4 5 6 
#
# 1 168.4746 46.1002 26.0784 0.0000 0.0000 0.0000
# 2 46.1002 119.3730 22.0862 0.0000 0.0000 0.0000
# 3 26.0784 22.0862 30.8883 0.0000 0.0000 0.0000
# 4 0.0000 0.0000 0.0000 16.8609 0.0000 0.0000
# 5 0.0000 0.0000 0.0000 0.0000 25.3639 0.0000
# 6 0.0000 0.0000 0.0000 0.0000 0.0000 28.6881
#
#
#
# Elastic Compliance Matrix: (Units=1/GPa)
#
#
# Indices 1 2 3 4 5 6 
#
# 1 0.007185 -0.001904 -0.004704 0.000000 0.000000 0.000000
# 2 -0.001904 0.010159 -0.005656 0.000000 0.000000 0.000000
# 3 -0.004704 -0.005656 0.040391 0.000000 0.000000 0.000000
# 4 0.000000 0.000000 0.000000 0.059309 0.000000 0.000000
# 5 0.000000 0.000000 0.000000 0.000000 0.039426 0.000000
# 6 0.000000 0.000000 0.000000 0.000000 0.000000 0.034858
#
#
# Mechanical properties :
#
#
# Convention : Reuss Voigt Hill
#
# Bulk Modulus (GPa) = 30.11602 56.36283 43.23943
# Shear Modulus (GPa) = 22.03360 29.14730 25.59045
#
# Velocity S-wave (km/s) = 3.32271 3.82163 3.58087
# Velocity P-wave (km/s) = 5.45993 6.90761 6.22599
#
# Compressibility (1/GPa) = 0.03320491
#
# Stress axis : x y z
#
# Youngs Moduli (GPa) = 139.18085 98.43444 24.75795
#
# Poissons Ratio (x) = 0.18745 0.11647
# Poissons Ratio (y) = 0.26504 0.14004
# Poissons Ratio (z) = 0.65477 0.55678
#
# Static dielectric constant tensor:
#      x y z
#    x 1.574070 0.000000 0.000000 
#    y 0.000000 1.774350 0.000000 
#    z 0.000000 0.000000 1.767950 
# 
# From -- ./inp_files/37517.got.cif
#   From: 2010.05.17/outbox.cif.g08.bks.cpg/sg24_19_cif.got.tgz:37517.got - 2010.06.04 00:33:39.
