data_PCOD9334247
_publ_section_title
;
Structure prediction by ZEFSAII (Michael W. Deem and Ramdas Pophale) SiO2 
 PCOD9334247
Probable space group: I 21 21 21
;
_chemical_formula_sum "Si O2"
_cell_formula_units_Z 44
_cell_length_a 16.692443
_cell_length_b 27.836434
_cell_length_c 5.053106
_cell_angle_alpha 90.000000
_cell_angle_beta 90.000000
_cell_angle_gamma 90.000000
_cell_volume 2347.966572
_symmetry_space_group_name_H-M "I 21 21 21"
_symmetry_group_IT_number 24
_symmetry_cell_setting 'orthorhombic'
loop_
_space_group_symop_operation_xyz
x,y,z
-x,1/2-y,z
x,-y,1/2-z
1/2-x,y,-z
1/2+x,1/2+y,1/2+z
1/2-x,-y,1/2+z
1/2+x,1/2-y,-z
-x,1/2+y,1/2-z
loop_
_atom_site_type_symbol
_atom_site_label
_atom_site_fract_x
_atom_site_fract_y
_atom_site_fract_z
Si Si1 0.905610 0.918337 0.523875
Si Si2 0.342264 0.686547 0.525301
Si Si3 0.157362 0.034473 0.500804
Si Si4 0.554876 0.204891 0.462116
Si Si5 0.493264 0.099721 0.513700
Si Si6 0.199533 0.500000 0.250000
O O1 0.852457 0.870139 0.540453
O O2 0.946812 0.926937 0.807184
O O3 0.853455 0.960443 0.399126
O O4 0.975150 0.907677 0.310698
O O5 0.250000 0.700362 0.500000
O O6 0.399146 0.712471 0.313216
O O7 0.378440 0.695499 0.814164
O O8 0.250000 0.050845 0.500000
O O9 0.094313 0.077467 0.509488
O O10 0.145423 0.000000 0.750000
O O11 0.143558 0.000000 0.250000
O O12 0.500000 0.250000 0.528548
O O13 0.502600 0.155993 0.445933
O O14 0.250000 0.478749 0.500000
#
# Coordination Sequence:
#
# PCOD9334247 Si02
#       6
#     8   8   8   8   8   4
#     4  10  22  35  55  81 110 151 188 225 269 326
#     4  10  20  37  59  82 112 149 189 226 280 343
#     4  10  21  36  56  81 111 148 187 235 284 334
#     4  10  21  38  60  85 114 144 187 242 288 339
#     4  10  21  37  57  82 109 149 188 229 282 343
#     4  12  24  36  50  78 118 150 186 232 274 312
#
# _framework density 18.739619999999999
#
# number of rings (size 3 to 8) (size 9 to 14) (size 15 to 20)
#    0.000    1.818    0.000    3.818    3.818    2.909 
#    0.000    1.818    0.000    2.182    0.000    0.000 
#    0.000    0.000    0.000    0.000    0.000    0.000 
#
# Total GULP energy -122881.850909 kJ/mol
# GULP energy per Si atom -5585.538678 kJ/mol
# Density = 1.869697 g / cm^3
# Si number density = 18.739620 Si / 1000 Ang^3
#
#
#
# Elastic Constant Matrix: (Units=GPa)
#
#
# Indices 1 2 3 4 5 6 
#
# 1 104.6840 52.5235 9.3589 -0.0004 0.0006 0.0007
# 2 52.5235 63.3504 1.3268 0.0024 0.0013 0.0036
# 3 9.3589 1.3268 87.2525 0.0691 -0.0025 0.0015
# 4 -0.0004 0.0024 0.0691 15.0729 0.0005 0.0023
# 5 0.0006 0.0013 -0.0025 0.0005 22.3550 -0.0014
# 6 0.0007 0.0036 0.0015 0.0023 -0.0014 14.9308
#
#
#
# Elastic Compliance Matrix: (Units=1/GPa)
#
#
# Indices 1 2 3 4 5 6 
#
# 1 0.016569 -0.013704 -0.001569 0.000010 0.000000 0.000003
# 2 -0.013704 0.027125 0.001057 -0.000010 -0.000001 -0.000006
# 3 -0.001569 0.001057 0.011613 -0.000053 0.000001 -0.000001
# 4 0.000010 -0.000010 -0.000053 0.066344 -0.000001 -0.000010
# 5 0.000000 -0.000001 0.000001 -0.000001 0.044733 0.000004
# 6 0.000003 -0.000006 -0.000001 -0.000010 0.000004 0.066976
#
#
# Mechanical properties :
#
#
# Convention : Reuss Voigt Hill
#
# Bulk Modulus (GPa) = 37.20789 42.41171 39.80980
# Shear Modulus (GPa) = 18.46727 23.27693 20.87210
#
# Velocity S-wave (km/s) = 3.14262 3.52820 3.34098
# Velocity P-wave (km/s) = 5.75034 6.26728 6.01437
#
# Compressibility (1/GPa) = 0.02687602
#
# Stress axis : x y z
#
# Youngs Moduli (GPa) = 60.35498 36.86621 86.10873
#
# Poissons Ratio (x) = 0.50522 0.13509
# Poissons Ratio (y) = 0.82711 -0.09106
# Poissons Ratio (z) = 0.09468 -0.03898
#
# Static dielectric constant tensor:
#      x y z
#    x 1.643430 0.000000 0.000000 
#    y 0.000000 1.631580 -0.000010 
#    z 0.000000 -0.000010 1.648500 
# 
# From -- ./inp_files/3701.got.cif
#   From: 2010.05.17/outbox.cif.g08.bks.cpg/sg24_2_cif.got.tgz:3701.got - 2010.06.04 00:33:39.
