data_PCOD9334021
_publ_section_title
;
Structure prediction by ZEFSAII (Michael W. Deem and Ramdas Pophale) SiO2 
 PCOD9334021
Probable space group: I 21 21 21
;
_chemical_formula_sum "Si O2"
_cell_formula_units_Z 60
_cell_length_a 5.140881
_cell_length_b 28.009486
_cell_length_c 17.329761
_cell_angle_alpha 90.000000
_cell_angle_beta 90.000000
_cell_angle_gamma 90.000000
_cell_volume 2495.371804
_symmetry_space_group_name_H-M "I 21 21 21"
_symmetry_group_IT_number 24
_symmetry_cell_setting 'orthorhombic'
loop_
_space_group_symop_operation_xyz
x,y,z
-x,1/2-y,z
x,-y,1/2-z
1/2-x,y,-z
1/2+x,1/2+y,1/2+z
1/2-x,-y,1/2+z
1/2+x,1/2-y,-z
-x,1/2+y,1/2-z
loop_
_atom_site_type_symbol
_atom_site_label
_atom_site_fract_x
_atom_site_fract_y
_atom_site_fract_z
Si Si1 0.000000 0.750000 0.946448
Si Si2 0.015784 0.540149 0.602620
Si Si3 0.473961 0.955510 0.696108
Si Si4 0.177630 0.436141 0.582168
Si Si5 0.843030 0.700730 0.158687
Si Si6 0.672434 0.603851 0.908848
Si Si7 0.123145 0.847404 0.318582
Si Si8 0.878347 0.146967 0.921861
O O1 0.425874 0.791972 0.112259
O O2 0.250000 0.741882 0.000000
O O3 0.219333 0.542487 0.675147
O O4 0.079851 0.489263 0.566272
O O5 0.076001 0.590297 0.562843
O O6 0.711131 0.538530 0.621268
O O7 0.385665 0.901397 0.716397
O O8 0.407787 0.000000 0.750000
O O9 0.250000 0.412684 0.500000
O O10 0.460542 0.434459 0.619302
O O11 0.953671 0.408417 0.627004
O O12 0.948947 0.654397 0.114261
O O13 0.824021 0.687584 0.247740
O O14 0.000000 0.750000 0.151190
O O15 0.750000 0.601157 0.000000
O O16 0.344035 0.839521 0.384015
O O17 0.840601 0.843330 0.357381
O O18 0.750000 0.167510 0.000000
#
# Coordination Sequence:
#
# PCOD9334021 Si02
#       8
#     4   8   8   8   8   8   8   8
#     4  12  28  50  78 110 136 182 240 284 348 416
#     4  10  20  34  60  91 128 177 231 269 330 400
#     4  10  21  37  55  89 133 179 220 277 327 410
#     4  10  21  37  57  90 128 174 219 279 322 389
#     4  12  29  48  75 101 137 185 226 307 349 414
#     4  10  24  41  61  90 132 175 231 275 338 395
#     4  10  25  41  68 106 137 179 239 280 367 419
#     4  10  21  43  70 102 140 182 230 293 341 433
#
# _framework density 24.044509999999999
#
# number of rings (size 3 to 8) (size 9 to 14) (size 15 to 20)
#    0.000    1.600    0.667    2.400    7.467    0.533 
#    0.000    4.000    0.000    1.600    0.000    0.000 
#    0.000    0.000    0.000    0.000    0.000    0.000 
#
# Total GULP energy -167345.409031 kJ/mol
# GULP energy per Si atom -5578.180301 kJ/mol
# Density = 2.398978 g / cm^3
# Si number density = 24.044510 Si / 1000 Ang^3
#
#
#
# Elastic Constant Matrix: (Units=GPa)
#
#
# Indices 1 2 3 4 5 6 
#
# 1 123.6159 24.2194 0.0001 0.0000 0.0000 0.0000
# 2 24.2194 60.4629 11.8313 0.0000 0.0000 0.0000
# 3 0.0001 11.8313 49.4575 0.0000 0.0000 0.0000
# 4 0.0000 0.0000 0.0000 28.8597 0.0000 0.0000
# 5 0.0000 0.0000 0.0000 0.0000 -9.2354 0.0000
# 6 0.0000 0.0000 0.0000 0.0000 0.0000 21.8612
#
#
#
# Elastic Compliance Matrix: (Units=1/GPa)
#
#
# Indices 1 2 3 4 5 6 
#
# 1 0.008815 -0.003705 0.000886 0.000000 0.000000 0.000000
# 2 -0.003705 0.018908 -0.004523 0.000000 0.000000 0.000000
# 3 0.000886 -0.004523 0.021301 0.000000 0.000000 0.000000
# 4 0.000000 0.000000 0.000000 0.034650 0.000000 0.000000
# 5 0.000000 0.000000 0.000000 0.000000 -0.108279 0.000000
# 6 0.000000 0.000000 0.000000 0.000000 0.000000 0.045743
#
#
# Mechanical properties :
#
#
# Convention : Reuss Voigt Hill
#
# Bulk Modulus (GPa) = 29.11908 33.95976 31.53942
# Shear Modulus (GPa) = 105.77692 21.46282 63.61987
#
# Velocity S-wave (km/s) = 6.63985 2.99093 5.14943
# Velocity P-wave (km/s) = 8.42142 5.10705 6.96427
#
# Compressibility (1/GPa) = 0.03434175
#
# Stress axis : x y z
#
# Youngs Moduli (GPa) = 113.43808 52.88746 46.94523
#
# Poissons Ratio (x) = 0.19592 -0.04160
# Poissons Ratio (y) = 0.42024 0.21234
# Poissons Ratio (z) = -0.10053 0.23922
#
# Static dielectric constant tensor:
#      x y z
#    x 2.048940 0.000000 0.000000 
#    y 0.000000 1.974870 0.000000 
#    z 0.000000 0.000000 2.008310 
# 
# From -- ./inp_files/28912.got.cif
#   From: 2010.05.17/outbox.cif.g08.bks.cpg/sg24_15_cif.got.tgz:28912.got - 2010.06.04 00:33:39.
