data_PCOD9334052
_publ_section_title
;
Structure prediction by ZEFSAII (Michael W. Deem and Ramdas Pophale) SiO2 
 PCOD9334052
Probable space group: I 21 21 21
;
_chemical_formula_sum "Si O2"
_cell_formula_units_Z 40
_cell_length_a 9.767263
_cell_length_b 12.410737
_cell_length_c 13.595925
_cell_angle_alpha 90.000000
_cell_angle_beta 90.000000
_cell_angle_gamma 90.000000
_cell_volume 1648.083512
_symmetry_space_group_name_H-M "I 21 21 21"
_symmetry_group_IT_number 24
_symmetry_cell_setting 'orthorhombic'
loop_
_space_group_symop_operation_xyz
x,y,z
-x,1/2-y,z
x,-y,1/2-z
1/2-x,y,-z
1/2+x,1/2+y,1/2+z
1/2-x,-y,1/2+z
1/2+x,1/2-y,-z
-x,1/2+y,1/2-z
loop_
_atom_site_type_symbol
_atom_site_label
_atom_site_fract_x
_atom_site_fract_y
_atom_site_fract_z
Si Si1 0.719221 0.034739 0.887140
Si Si2 0.271623 0.810933 0.102308
Si Si3 0.507854 0.532901 0.142294
Si Si4 0.085102 0.023275 0.072816
Si Si5 0.337924 0.233842 0.814616
O O1 0.844614 0.966859 0.844171
O O2 0.728317 0.161713 0.864415
O O3 0.750000 0.021417 0.000000
O O4 0.939566 0.004838 0.128271
O O5 0.223922 0.768162 0.206185
O O6 0.176351 0.917789 0.087607
O O7 0.425103 0.854034 0.114761
O O8 0.250000 0.747281 0.000000
O O9 0.565513 0.500000 0.250000
O O10 0.547533 0.462930 0.044035
O O11 0.164782 0.124583 0.120306
O O12 0.500000 0.250000 0.804773
#
# Coordination Sequence:
#
# PCOD9334052 Si02
#       5
#     8   8   8   8   8
#     4   9  20  36  56  85 114 142 184 236 285 331
#     4  10  21  38  58  80 110 150 191 229 276 338
#     4  10  20  35  55  84 116 144 179 230 290 336
#     4   9  19  37  59  80 108 150 197 230 265 338
#     4  10  20  36  60  85 110 148 192 235 280 333
#
# _framework density 24.270613999999998
#
# number of rings (size 3 to 8) (size 9 to 14) (size 15 to 20)
#    0.000    2.400    0.000    1.800    0.000    7.200 
#    0.000   12.000    0.000    0.000    0.000    0.000 
#    0.000    0.000    0.000    0.000    0.000    0.000 
#
# Total GULP energy -111651.532413 kJ/mol
# GULP energy per Si atom -5582.576621 kJ/mol
# Density = 2.421537 g / cm^3
# Si number density = 24.270614 Si / 1000 Ang^3
#
#
#
# Elastic Constant Matrix: (Units=GPa)
#
#
# Indices 1 2 3 4 5 6 
#
# 1 84.2471 23.1667 3.2298 0.0000 0.0000 0.0000
# 2 23.1667 63.4171 23.0776 0.0000 0.0000 0.0000
# 3 3.2298 23.0776 157.0607 0.0000 0.0000 0.0000
# 4 0.0000 0.0000 0.0000 30.4124 0.0000 0.0000
# 5 0.0000 0.0000 0.0000 0.0000 33.5174 0.0000
# 6 0.0000 0.0000 0.0000 0.0000 0.0000 -32.9501
#
#
#
# Elastic Compliance Matrix: (Units=1/GPa)
#
#
# Indices 1 2 3 4 5 6 
#
# 1 0.013227 -0.005000 0.000463 0.000000 0.000000 0.000000
# 2 -0.005000 0.018550 -0.002623 0.000000 0.000000 0.000000
# 3 0.000463 -0.002623 0.006743 0.000000 0.000000 0.000000
# 4 0.000000 0.000000 0.000000 0.032881 0.000000 0.000000
# 5 0.000000 0.000000 0.000000 0.000000 0.029835 0.000000
# 6 0.000000 0.000000 0.000000 0.000000 0.000000 -0.030349
#
#
# Mechanical properties :
#
#
# Convention : Reuss Voigt Hill
#
# Bulk Modulus (GPa) = 41.32421 44.85256 43.08838
# Shear Modulus (GPa) = 53.60527 23.21266 38.40897
#
# Velocity S-wave (km/s) = 4.70473 3.09594 3.98242
# Velocity P-wave (km/s) = 6.82466 5.59465 6.24004
#
# Compressibility (1/GPa) = 0.02419889
#
# Stress axis : x y z
#
# Youngs Moduli (GPa) = 75.60216 53.90918 148.30590
#
# Poissons Ratio (x) = 0.26957 -0.06862
# Poissons Ratio (y) = 0.37804 0.38897
# Poissons Ratio (z) = -0.03498 0.14139
#
# Static dielectric constant tensor:
#      x y z
#    x 1.964130 0.000000 0.000000 
#    y 0.000000 1.949910 0.000000 
#    z 0.000000 0.000000 2.028140 
# 
# From -- ./inp_files/29266.got.cif
#   From: 2010.05.17/outbox.cif.g08.bks.cpg/sg24_15_cif.got.tgz:29266.got - 2010.06.04 00:33:39.
