data_PCOD9334022
_publ_section_title
;
Structure prediction by ZEFSAII (Michael W. Deem and Ramdas Pophale) SiO2 
 PCOD9334022
Probable space group: I 21 21 21
;
_chemical_formula_sum "Si O2"
_cell_formula_units_Z 24
_cell_length_a 13.957730
_cell_length_b 5.028471
_cell_length_c 15.128158
_cell_angle_alpha 90.000000
_cell_angle_beta 90.000000
_cell_angle_gamma 90.000000
_cell_volume 1061.785511
_symmetry_space_group_name_H-M "I 21 21 21"
_symmetry_group_IT_number 24
_symmetry_cell_setting 'orthorhombic'
loop_
_space_group_symop_operation_xyz
x,y,z
-x,1/2-y,z
x,-y,1/2-z
1/2-x,y,-z
1/2+x,1/2+y,1/2+z
1/2-x,-y,1/2+z
1/2+x,1/2-y,-z
-x,1/2+y,1/2-z
loop_
_atom_site_type_symbol
_atom_site_label
_atom_site_fract_x
_atom_site_fract_y
_atom_site_fract_z
Si Si1 0.702562 0.141972 0.155517
Si Si2 0.000000 0.750000 0.685857
Si Si3 0.000000 0.750000 0.183809
Si Si4 0.801034 0.366601 0.409161
O O1 0.593012 0.190637 0.128098
O O2 0.758186 0.416290 0.157574
O O3 0.694213 0.000000 0.250000
O O4 0.758609 0.927140 0.099769
O O5 0.977702 0.500000 0.750000
O O6 0.023563 0.500000 0.250000
O O7 0.911857 0.665219 0.119466
O O8 0.750000 0.466145 0.500000
#
# Coordination Sequence:
#
# PCOD9334022 Si02
#       4
#     8   4   4   8
#     4  11  22  41  66  94 130 177 228 281 342 418
#     4  10  20  34  60  94 120 156 210 266 328 398
#     4  12  26  46  74 102 136 190 244 280 336 428
#     4  12  26  43  66 100 137 177 227 295 354 401
#
# _framework density 22.603437
#
# number of rings (size 3 to 8) (size 9 to 14) (size 15 to 20)
#    0.000    0.667    0.000   11.000    0.000    2.667 
#    0.000    0.000    0.000    0.000    0.000    0.000 
#    0.000    0.000    0.000    0.000    0.000    0.000 
#
# Total GULP energy -66956.918032 kJ/mol
# GULP energy per Si atom -5579.743169 kJ/mol
# Density = 2.255199 g / cm^3
# Si number density = 22.603437 Si / 1000 Ang^3
#
#
#
# Elastic Constant Matrix: (Units=GPa)
#
#
# Indices 1 2 3 4 5 6 
#
# 1 213.6696 44.8329 43.6215 0.0000 0.0000 0.0000
# 2 44.8329 102.2048 29.2279 0.0000 0.0000 0.0000
# 3 43.6215 29.2279 78.9130 0.0000 0.0000 0.0000
# 4 0.0000 0.0000 0.0000 9.6110 0.0000 0.0000
# 5 0.0000 0.0000 0.0000 0.0000 37.0495 0.0000
# 6 0.0000 0.0000 0.0000 0.0000 0.0000 58.3195
#
#
#
# Elastic Compliance Matrix: (Units=1/GPa)
#
#
# Indices 1 2 3 4 5 6 
#
# 1 0.005538 -0.001738 -0.002418 0.000000 0.000000 0.000000
# 2 -0.001738 0.011489 -0.003294 0.000000 0.000000 0.000000
# 3 -0.002418 -0.003294 0.015229 0.000000 0.000000 0.000000
# 4 0.000000 0.000000 0.000000 0.104048 0.000000 0.000000
# 5 0.000000 0.000000 0.000000 0.000000 0.026991 0.000000
# 6 0.000000 0.000000 0.000000 0.000000 0.000000 0.017147
#
#
# Mechanical properties :
#
#
# Convention : Reuss Voigt Hill
#
# Bulk Modulus (GPa) = 57.61860 70.01688 63.81774
# Shear Modulus (GPa) = 24.85986 39.46967 32.16477
#
# Velocity S-wave (km/s) = 3.31996 4.18327 3.77636
# Velocity P-wave (km/s) = 6.34371 7.37404 6.87819
#
# Compressibility (1/GPa) = 0.01735551
#
# Stress axis : x y z
#
# Youngs Moduli (GPa) = 180.55735 87.04113 65.66464
#
# Poissons Ratio (x) = 0.15128 0.15876
# Poissons Ratio (y) = 0.31382 0.21633
# Poissons Ratio (z) = 0.43655 0.28676
#
# Static dielectric constant tensor:
#      x y z
#    x 1.882930 0.000000 0.000000 
#    y 0.000000 1.802630 0.000000 
#    z 0.000000 0.000000 1.893210 
# 
# From -- ./inp_files/2859.got.cif
#   From: 2010.05.17/outbox.cif.g08.bks.cpg/sg24_2_cif.got.tgz:2859.got - 2010.06.04 00:33:39.
