data_PCOD9334579
_publ_section_title
;
Structure prediction by ZEFSAII (Michael W. Deem and Ramdas Pophale) SiO2 
 PCOD9334579
Probable space group: I 21 21 21
;
_chemical_formula_sum "Si O2"
_cell_formula_units_Z 40
_cell_length_a 12.787382
_cell_length_b 7.641068
_cell_length_c 20.856283
_cell_angle_alpha 90.000000
_cell_angle_beta 90.000000
_cell_angle_gamma 90.000000
_cell_volume 2037.851882
_symmetry_space_group_name_H-M "I 21 21 21"
_symmetry_group_IT_number 24
_symmetry_cell_setting 'orthorhombic'
loop_
_space_group_symop_operation_xyz
x,y,z
-x,1/2-y,z
x,-y,1/2-z
1/2-x,y,-z
1/2+x,1/2+y,1/2+z
1/2-x,-y,1/2+z
1/2+x,1/2-y,-z
-x,1/2+y,1/2-z
loop_
_atom_site_type_symbol
_atom_site_label
_atom_site_fract_x
_atom_site_fract_y
_atom_site_fract_z
Si Si1 0.750000 0.946331 0.500000
Si Si2 0.728416 0.212949 0.859385
Si Si3 0.500000 0.750000 0.620273
Si Si4 0.500000 0.250000 0.302730
Si Si5 0.331172 0.500000 0.250000
Si Si6 0.518747 0.950508 0.985233
Si Si7 0.573546 0.578601 0.385056
O O1 0.732469 0.842082 0.565757
O O2 0.639081 0.041907 0.490076
O O3 0.609373 0.259045 0.842544
O O4 0.812275 0.369083 0.860047
O O5 0.766053 0.056933 0.812612
O O6 0.494568 0.579965 0.574413
O O7 0.404679 0.332263 0.263303
O O8 0.535159 0.413170 0.345279
O O9 0.500000 0.750000 0.968683
O O10 0.441650 0.021774 0.040872
O O11 0.500000 0.750000 0.377270
#
# Coordination Sequence:
#
# PCOD9334579 Si02
#       7
#     4   8   4   4   4   8   8
#     4  10  20  40  66  92 132 168 210 280 326 390
#     4  11  23  43  69  92 134 174 221 273 332 392
#     4  10  24  46  61  90 135 184 218 276 322 386
#     4  12  24  40  67 100 135 164 214 266 348 396
#     4  12  24  42  66 100 132 176 216 278 326 410
#     4  11  21  36  65 100 132 172 218 268 332 393
#     4  12  20  40  66 101 130 171 211 264 333 395
#
# _framework density 19.628512000000001
#
# number of rings (size 3 to 8) (size 9 to 14) (size 15 to 20)
#    0.000    0.800    6.000    2.400    0.000    1.600 
#    3.600    2.000    2.200    0.000    0.000    0.000 
#    0.000    0.000    0.000    0.000    0.000    0.000 
#
# Total GULP energy -111633.108390 kJ/mol
# GULP energy per Si atom -5581.655419 kJ/mol
# Density = 1.958384 g / cm^3
# Si number density = 19.628512 Si / 1000 Ang^3
#
#
#
# Elastic Constant Matrix: (Units=GPa)
#
#
# Indices 1 2 3 4 5 6 
#
# 1 126.8721 38.9299 13.0381 0.0000 0.0000 0.0000
# 2 38.9299 130.5489 20.7844 0.0000 0.0000 0.0000
# 3 13.0381 20.7844 66.5642 0.0000 0.0000 0.0000
# 4 0.0000 0.0000 0.0000 14.2554 0.0000 0.0000
# 5 0.0000 0.0000 0.0000 0.0000 19.0142 0.0000
# 6 0.0000 0.0000 0.0000 0.0000 0.0000 19.7367
#
#
#
# Elastic Compliance Matrix: (Units=1/GPa)
#
#
# Indices 1 2 3 4 5 6 
#
# 1 0.008732 -0.002454 -0.000944 0.000000 0.000000 0.000000
# 2 -0.002454 0.008750 -0.002252 0.000000 0.000000 0.000000
# 3 -0.000944 -0.002252 0.015911 0.000000 0.000000 0.000000
# 4 0.000000 0.000000 0.000000 0.070149 0.000000 0.000000
# 5 0.000000 0.000000 0.000000 0.000000 0.052592 0.000000
# 6 0.000000 0.000000 0.000000 0.000000 0.000000 0.050667
#
#
# Mechanical properties :
#
#
# Convention : Reuss Voigt Hill
#
# Bulk Modulus (GPa) = 45.26052 52.16556 48.71304
# Shear Modulus (GPa) = 22.17644 27.35012 24.76328
#
# Velocity S-wave (km/s) = 3.36491 3.73686 3.55575
# Velocity P-wave (km/s) = 6.18105 6.72703 6.45981
#
# Compressibility (1/GPa) = 0.02209431
#
# Stress axis : x y z
#
# Youngs Moduli (GPa) = 114.52349 114.28467 62.84928
#
# Poissons Ratio (x) = 0.28040 0.05934
# Poissons Ratio (y) = 0.28099 0.14151
# Poissons Ratio (z) = 0.10814 0.25732
#
# Static dielectric constant tensor:
#      x y z
#    x 1.748880 0.000000 0.000000 
#    y 0.000000 1.653570 0.000000 
#    z 0.000000 0.000000 1.710270 
# 
# From -- ./inp_files/11096.got.cif
#   From: 2010.05.17/outbox.cif.g08.bks.cpg/sg24_6_cif.got.tgz:11096.got - 2010.06.04 00:33:39.
