data_PCOD9334586
_publ_section_title
;
Structure prediction by ZEFSAII (Michael W. Deem and Ramdas Pophale) SiO2 
 PCOD9334586
Probable space group: I 21 21 21
;
_chemical_formula_sum "Si O2"
_cell_formula_units_Z 40
_cell_length_a 24.388412
_cell_length_b 8.671106
_cell_length_c 8.737178
_cell_angle_alpha 90.000000
_cell_angle_beta 90.000000
_cell_angle_gamma 90.000000
_cell_volume 1847.690398
_symmetry_space_group_name_H-M "I 21 21 21"
_symmetry_group_IT_number 24
_symmetry_cell_setting 'orthorhombic'
loop_
_space_group_symop_operation_xyz
x,y,z
-x,1/2-y,z
x,-y,1/2-z
1/2-x,y,-z
1/2+x,1/2+y,1/2+z
1/2-x,-y,1/2+z
1/2+x,1/2-y,-z
-x,1/2+y,1/2-z
loop_
_atom_site_type_symbol
_atom_site_label
_atom_site_fract_x
_atom_site_fract_y
_atom_site_fract_z
Si Si1 0.609034 0.804100 0.514491
Si Si2 0.333128 0.719210 0.979490
Si Si3 0.817264 0.000000 0.250000
Si Si4 0.943980 0.317686 0.295926
Si Si5 0.697106 0.447360 0.075927
Si Si6 0.873229 0.000000 0.750000
O O1 0.562224 0.759092 0.629545
O O2 0.645083 0.660789 0.455460
O O3 0.647889 0.910913 0.620588
O O4 0.592184 0.899498 0.367256
O O5 0.293384 0.632054 0.857551
O O6 0.392932 0.753451 0.898429
O O7 0.340496 0.620684 0.137497
O O8 0.311371 0.890299 0.994678
O O9 0.942094 0.500000 0.250000
O O10 0.000000 0.250000 0.365045
O O11 0.704271 0.500000 0.250000
O O12 0.750000 0.368059 0.000000
#
# Coordination Sequence:
#
# PCOD9334586 Si02
#       6
#     8   8   4   8   8   4
#     4  10  21  43  64  92 132 170 214 277 325 390
#     4  10  21  43  64  92 132 170 214 277 325 390
#     4   8  20  34  67  86 118 170 202 250 335 370
#     4  11  24  39  69  99 131 173 223 262 329 402
#     4  12  26  42  67  95 129 180 230 273 335 396
#     4  10  20  40  67  86 124 174 204 264 341 384
#
# _framework density 21.64865
#
# number of rings (size 3 to 8) (size 9 to 14) (size 15 to 20)
#    0.000    1.600    4.000    0.000   14.000    0.000 
#    0.000    7.000    4.400    0.000    0.000    0.000 
#    0.000    0.000    0.000    0.000    0.000    0.000 
#
# Total GULP energy -111381.752943 kJ/mol
# GULP energy per Si atom -5569.087647 kJ/mol
# Density = 2.159938 g / cm^3
# Si number density = 21.648650 Si / 1000 Ang^3
#
#
#
# Elastic Constant Matrix: (Units=GPa)
#
#
# Indices 1 2 3 4 5 6 
#
# 1 81.3899 -2.4509 12.6868 0.0000 0.0000 0.0000
# 2 -2.4509 102.8293 24.0976 0.0000 0.0000 0.0000
# 3 12.6868 24.0976 105.2652 0.0000 0.0000 0.0000
# 4 0.0000 0.0000 0.0000 46.7587 0.0000 0.0000
# 5 0.0000 0.0000 0.0000 0.0000 17.4793 0.0000
# 6 0.0000 0.0000 0.0000 0.0000 0.0000 7.6380
#
#
#
# Elastic Compliance Matrix: (Units=1/GPa)
#
#
# Indices 1 2 3 4 5 6 
#
# 1 0.012568 0.000692 -0.001673 0.000000 0.000000 0.000000
# 2 0.000692 0.010314 -0.002445 0.000000 0.000000 0.000000
# 3 -0.001673 -0.002445 0.010261 0.000000 0.000000 0.000000
# 4 0.000000 0.000000 0.000000 0.021386 0.000000 0.000000
# 5 0.000000 0.000000 0.000000 0.000000 0.057211 0.000000
# 6 0.000000 0.000000 0.000000 0.000000 0.000000 0.130924
#
#
# Mechanical properties :
#
#
# Convention : Reuss Voigt Hill
#
# Bulk Modulus (GPa) = 38.03505 39.79457 38.91481
# Shear Modulus (GPa) = 19.35883 31.38526 25.37205
#
# Velocity S-wave (km/s) = 2.99361 3.81170 3.42715
# Velocity P-wave (km/s) = 5.43657 6.14768 5.80303
#
# Compressibility (1/GPa) = 0.02629154
#
# Stress axis : x y z
#
# Youngs Moduli (GPa) = 79.56611 96.95367 97.45577
#
# Poissons Ratio (x) = -0.06706 0.16305
# Poissons Ratio (y) = -0.05503 0.23823
# Poissons Ratio (z) = 0.13312 0.23700
#
# Static dielectric constant tensor:
#      x y z
#    x 1.772860 0.000000 0.000000 
#    y 0.000000 1.882310 0.000000 
#    z 0.000000 0.000000 1.760760 
# 
# From -- ./inp_files/9305.got.cif
#   From: 2010.05.17/outbox.cif.g08.bks.cpg/sg24_5_cif.got.tgz:9305.got - 2010.06.04 00:33:39.
