data_PCOD9334809
_publ_section_title
;
Structure prediction by ZEFSAII (Michael W. Deem and Ramdas Pophale) SiO2 
 PCOD9334809
Probable space group: I 21 21 21
;
_chemical_formula_sum "Si O2"
_cell_formula_units_Z 40
_cell_length_a 19.186067
_cell_length_b 15.101886
_cell_length_c 8.160083
_cell_angle_alpha 90.000000
_cell_angle_beta 90.000000
_cell_angle_gamma 90.000000
_cell_volume 2364.349749
_symmetry_space_group_name_H-M "I 21 21 21"
_symmetry_group_IT_number 24
_symmetry_cell_setting 'orthorhombic'
loop_
_space_group_symop_operation_xyz
x,y,z
-x,1/2-y,z
x,-y,1/2-z
1/2-x,y,-z
1/2+x,1/2+y,1/2+z
1/2-x,-y,1/2+z
1/2+x,1/2-y,-z
-x,1/2+y,1/2-z
loop_
_atom_site_type_symbol
_atom_site_label
_atom_site_fract_x
_atom_site_fract_y
_atom_site_fract_z
Si Si1 0.000000 0.250000 0.863214
Si Si2 0.250000 0.215347 0.500000
Si Si3 0.447664 0.086620 0.926129
Si Si4 0.401008 0.725512 0.069948
Si Si5 0.214343 0.096545 0.177607
Si Si6 0.487175 0.106051 0.562676
O O1 0.933216 0.226903 0.751246
O O2 0.974809 0.334787 0.962446
O O3 0.319154 0.269628 0.453937
O O4 0.231906 0.159954 0.332834
O O5 0.367453 0.095108 0.869290
O O6 0.488541 0.096552 0.756645
O O7 0.461327 0.989225 0.001021
O O8 0.434225 0.815244 0.989390
O O9 0.437767 0.640057 0.992722
O O10 0.233827 0.000000 0.250000
O O11 0.250000 0.114608 0.000000
#
# Coordination Sequence:
#
# PCOD9334809 Si02
#       6
#     4   4   8   8   8   8
#     4  10  22  34  60  90 112 146 210 252 292 366
#     4  12  22  40  58  82 130 158 202 250 314 376
#     4  11  19  37  57  84 113 153 197 252 295 356
#     4  10  21  37  54  84 113 158 192 245 299 359
#     4  12  23  35  55  90 125 162 193 238 315 385
#     4   9  19  35  57  77 113 153 194 230 306 348
#
# _framework density 16.91797
#
# number of rings (size 3 to 8) (size 9 to 14) (size 15 to 20)
#    0.000    1.600    5.000    2.400    0.000    3.200 
#    0.000    0.000    0.000    4.800    0.000    0.000 
#    0.000    0.000    0.000    0.000    0.000    0.000 
#
# Total GULP energy -111383.671691 kJ/mol
# GULP energy per Si atom -5569.183585 kJ/mol
# Density = 1.687946 g / cm^3
# Si number density = 16.917970 Si / 1000 Ang^3
#
#
#
# Elastic Constant Matrix: (Units=GPa)
#
#
# Indices 1 2 3 4 5 6 
#
# 1 141.0138 50.5265 45.2656 0.0000 0.0000 0.0000
# 2 50.5265 82.2070 46.9472 0.0000 0.0000 0.0000
# 3 45.2656 46.9472 102.3667 0.0000 0.0000 0.0000
# 4 0.0000 0.0000 0.0000 37.1641 0.0000 0.0000
# 5 0.0000 0.0000 0.0000 0.0000 22.9175 0.0000
# 6 0.0000 0.0000 0.0000 0.0000 0.0000 17.6738
#
#
#
# Elastic Compliance Matrix: (Units=1/GPa)
#
#
# Indices 1 2 3 4 5 6 
#
# 1 0.009399 -0.004611 -0.002041 0.000000 0.000000 0.000000
# 2 -0.004611 0.018743 -0.006557 0.000000 0.000000 0.000000
# 3 -0.002041 -0.006557 0.013679 0.000000 0.000000 0.000000
# 4 0.000000 0.000000 0.000000 0.026908 0.000000 0.000000
# 5 0.000000 0.000000 0.000000 0.000000 0.043635 0.000000
# 6 0.000000 0.000000 0.000000 0.000000 0.000000 0.056581
#
#
# Mechanical properties :
#
#
# Convention : Reuss Voigt Hill
#
# Bulk Modulus (GPa) = 64.92726 67.89623 66.41175
# Shear Modulus (GPa) = 24.93808 27.74098 26.33953
#
# Velocity S-wave (km/s) = 3.84351 4.05376 3.95003
# Velocity P-wave (km/s) = 7.62613 7.88228 7.75526
#
# Compressibility (1/GPa) = 0.01540185
#
# Stress axis : x y z
#
# Youngs Moduli (GPa) = 106.39457 53.35323 73.10665
#
# Poissons Ratio (x) = 0.24601 0.14924
# Poissons Ratio (y) = 0.49059 0.47936
# Poissons Ratio (z) = 0.21720 0.34983
#
# Static dielectric constant tensor:
#      x y z
#    x 1.578870 0.000000 0.000000 
#    y 0.000000 1.614790 0.000000 
#    z 0.000000 0.000000 1.614760 
# 
# From -- ./inp_files/14013.got.cif
#   From: 2010.05.17/outbox.cif.g08.bks.cpg/sg24_8_cif.got.tgz:14013.got - 2010.06.04 00:33:39.
