data_PCOD9334630
_publ_section_title
;
Structure prediction by ZEFSAII (Michael W. Deem and Ramdas Pophale) SiO2 
 PCOD9334630
Probable space group: I 21 21 21
;
_chemical_formula_sum "Si O2"
_cell_formula_units_Z 48
_cell_length_a 5.466172
_cell_length_b 14.127333
_cell_length_c 29.998213
_cell_angle_alpha 90.000000
_cell_angle_beta 90.000000
_cell_angle_gamma 90.000000
_cell_volume 2316.534966
_symmetry_space_group_name_H-M "I 21 21 21"
_symmetry_group_IT_number 24
_symmetry_cell_setting 'orthorhombic'
loop_
_space_group_symop_operation_xyz
x,y,z
-x,1/2-y,z
x,-y,1/2-z
1/2-x,y,-z
1/2+x,1/2+y,1/2+z
1/2-x,-y,1/2+z
1/2+x,1/2-y,-z
-x,1/2+y,1/2-z
loop_
_atom_site_type_symbol
_atom_site_label
_atom_site_fract_x
_atom_site_fract_y
_atom_site_fract_z
Si Si1 0.000000 0.250000 0.218453
Si Si2 0.243816 0.863717 0.212039
Si Si3 0.245587 0.283810 0.631936
Si Si4 0.627248 0.000000 0.250000
Si Si5 0.750000 0.188893 0.000000
Si Si6 0.500000 0.750000 0.339281
Si Si7 0.667030 0.154009 0.901805
Si Si8 0.410081 0.486825 0.659941
O O1 0.034163 0.162416 0.252465
O O2 0.251579 0.244682 0.190185
O O3 0.265420 0.773817 0.179345
O O4 0.162358 0.946497 0.179059
O O5 0.466735 0.906269 0.239434
O O6 0.500000 0.250000 0.610831
O O7 0.266917 0.395312 0.640573
O O8 0.000000 0.250000 0.608119
O O9 0.768052 0.981255 0.295909
O O10 0.500000 0.250000 0.005651
O O11 0.784740 0.134480 0.046439
O O12 0.420322 0.669054 0.374537
O O13 0.500000 0.250000 0.899688
O O14 0.546189 0.068175 0.875466
#
# Coordination Sequence:
#
# PCOD9334630 Si02
#       8
#     4   8   8   4   4   4   8   8
#     4  12  26  38  61  82 134 178 219 256 318 362
#     4  11  24  39  56  82 125 177 223 260 309 370
#     4  10  20  41  59  81 115 164 217 264 307 365
#     4  12  24  34  56  82 132 166 226 258 320 356
#     4  10  22  48  74  94 126 168 204 268 348 406
#     4  12  26  40  61  92 124 168 213 276 308 382
#     4  11  25  46  69  98 131 166 217 272 339 403
#     4  11  24  39  59  91 122 171 221 267 315 385
#
# _framework density 20.720600000000001
#
# number of rings (size 3 to 8) (size 9 to 14) (size 15 to 20)
#    0.000    1.000    5.833    1.500    8.167    1.333 
#    0.000    0.000    0.000    0.000    0.000    3.500 
#    0.000    0.000    0.000    0.000    0.000    0.000 
#
# Total GULP energy -133917.605248 kJ/mol
# GULP energy per Si atom -5579.900219 kJ/mol
# Density = 2.067344 g / cm^3
# Si number density = 20.720600 Si / 1000 Ang^3
#
#
#
# Elastic Constant Matrix: (Units=GPa)
#
#
# Indices 1 2 3 4 5 6 
#
# 1 118.7377 21.1727 33.0516 0.0000 0.0000 0.0000
# 2 21.1727 104.0268 54.9792 0.0000 0.0000 0.0000
# 3 33.0516 54.9792 131.0582 0.0000 0.0000 0.0000
# 4 0.0000 0.0000 0.0000 16.8533 0.0000 0.0000
# 5 0.0000 0.0000 0.0000 0.0000 6.8104 0.0000
# 6 0.0000 0.0000 0.0000 0.0000 0.0000 21.4426
#
#
#
# Elastic Compliance Matrix: (Units=1/GPa)
#
#
# Indices 1 2 3 4 5 6 
#
# 1 0.009112 -0.000822 -0.001953 0.000000 0.000000 0.000000
# 2 -0.000822 0.012426 -0.005005 0.000000 0.000000 0.000000
# 3 -0.001953 -0.005005 0.010222 0.000000 0.000000 0.000000
# 4 0.000000 0.000000 0.000000 0.059335 0.000000 0.000000
# 5 0.000000 0.000000 0.000000 0.000000 0.146835 0.000000
# 6 0.000000 0.000000 0.000000 0.000000 0.000000 0.046636
#
#
# Mechanical properties :
#
#
# Convention : Reuss Voigt Hill
#
# Bulk Modulus (GPa) = 61.73214 63.58107 62.65661
# Shear Modulus (GPa) = 16.36515 25.32920 20.84718
#
# Velocity S-wave (km/s) = 2.81339 3.50010 3.17536
# Velocity P-wave (km/s) = 6.35695 6.86191 6.61425
#
# Compressibility (1/GPa) = 0.01619902
#
# Stress axis : x y z
#
# Youngs Moduli (GPa) = 109.74283 80.47923 97.82442
#
# Poissons Ratio (x) = 0.06619 0.19105
# Poissons Ratio (y) = 0.09026 0.48963
# Poissons Ratio (z) = 0.21433 0.40281
#
# Static dielectric constant tensor:
#      x y z
#    x 1.882050 0.000000 0.000000 
#    y 0.000000 1.822520 0.000000 
#    z 0.000000 0.000000 1.715670 
# 
# From -- ./inp_files/37916.got.cif
#   From: 2010.05.17/outbox.cif.g08.bks.cpg/sg24_19_cif.got.tgz:37916.got - 2010.06.04 00:33:39.
