data_PCOD9334686
_publ_section_title
;
Structure prediction by ZEFSAII (Michael W. Deem and Ramdas Pophale) SiO2 
 PCOD9334686
Probable space group: I 21 21 21
;
_chemical_formula_sum "Si O2"
_cell_formula_units_Z 40
_cell_length_a 8.313004
_cell_length_b 8.670288
_cell_length_c 24.117830
_cell_angle_alpha 90.000000
_cell_angle_beta 90.000000
_cell_angle_gamma 90.000000
_cell_volume 1738.320063
_symmetry_space_group_name_H-M "I 21 21 21"
_symmetry_group_IT_number 24
_symmetry_cell_setting 'orthorhombic'
loop_
_space_group_symop_operation_xyz
x,y,z
-x,1/2-y,z
x,-y,1/2-z
1/2-x,y,-z
1/2+x,1/2+y,1/2+z
1/2-x,-y,1/2+z
1/2+x,1/2-y,-z
-x,1/2+y,1/2-z
loop_
_atom_site_type_symbol
_atom_site_label
_atom_site_fract_x
_atom_site_fract_y
_atom_site_fract_z
Si Si1 0.933813 0.927540 0.303498
Si Si2 0.000000 0.750000 0.063628
Si Si3 0.190018 0.199650 0.055293
Si Si4 0.245377 0.522170 0.080025
Si Si5 0.000000 0.250000 0.627952
Si Si6 0.778986 0.444107 0.355331
O O1 0.000000 0.750000 0.301774
O O2 0.845290 0.000000 0.250000
O O3 0.094923 0.029526 0.307686
O O4 0.837870 0.972562 0.360267
O O5 0.108105 0.607672 0.042263
O O6 0.133202 0.831188 0.101419
O O7 0.291012 0.357227 0.056363
O O8 0.000000 0.250000 0.055866
O O9 0.233524 0.100432 0.109265
O O10 0.250000 0.113049 0.000000
O O11 0.394836 0.632795 0.091236
O O12 0.882057 0.359880 0.662024
#
# Coordination Sequence:
#
# PCOD9334686 Si02
#       6
#     8   4   8   8   4   8
#     4  11  22  39  73  97 121 173 227 268 323 390
#     4   8  16  34  67  76 118 166 202 258 313 362
#     4  12  24  42  67  93 129 177 226 272 319 386
#     4  10  20  43  61  93 132 167 214 273 322 386
#     4  10  24  36  67  92 124 180 192 262 355 382
#     4  10  20  43  61  93 132 167 214 273 322 386
#
# _framework density 23.010724
#
# number of rings (size 3 to 8) (size 9 to 14) (size 15 to 20)
#    0.000    1.600    6.000    0.000   11.200    0.000 
#    0.000    7.000    0.000    0.000    0.000    0.000 
#    0.000    0.000    0.000    0.000    0.000    0.000 
#
# Total GULP energy -111425.423169 kJ/mol
# GULP energy per Si atom -5571.271158 kJ/mol
# Density = 2.295835 g / cm^3
# Si number density = 23.010724 Si / 1000 Ang^3
#
#
#
# Elastic Constant Matrix: (Units=GPa)
#
#
# Indices 1 2 3 4 5 6 
#
# 1 74.4121 22.9863 -6.9540 0.0000 0.0000 0.0000
# 2 22.9863 112.4217 -5.7788 0.0000 0.0000 0.0000
# 3 -6.9540 -5.7788 82.1949 0.0000 0.0000 0.0000
# 4 0.0000 0.0000 0.0000 43.7859 0.0000 0.0000
# 5 0.0000 0.0000 0.0000 0.0000 7.8012 0.0000
# 6 0.0000 0.0000 0.0000 0.0000 0.0000 44.6100
#
#
#
# Elastic Compliance Matrix: (Units=1/GPa)
#
#
# Indices 1 2 3 4 5 6 
#
# 1 0.014429 -0.002898 0.001017 0.000000 0.000000 0.000000
# 2 -0.002898 0.009509 0.000423 0.000000 0.000000 0.000000
# 3 0.001017 0.000423 0.012282 0.000000 0.000000 0.000000
# 4 0.000000 0.000000 0.000000 0.022838 0.000000 0.000000
# 5 0.000000 0.000000 0.000000 0.000000 0.128185 0.000000
# 6 0.000000 0.000000 0.000000 0.000000 0.000000 0.022416
#
#
# Mechanical properties :
#
#
# Convention : Reuss Voigt Hill
#
# Bulk Modulus (GPa) = 30.02534 32.17063 31.09799
# Shear Modulus (GPa) = 22.35362 36.49111 29.42236
#
# Velocity S-wave (km/s) = 3.12018 3.98657 3.57968
# Velocity P-wave (km/s) = 5.10465 5.93307 5.53438
#
# Compressibility (1/GPa) = 0.03330520
#
# Stress axis : x y z
#
# Youngs Moduli (GPa) = 69.30538 105.15950 81.41991
#
# Poissons Ratio (x) = 0.30474 -0.08280
# Poissons Ratio (y) = 0.20084 -0.03447
# Poissons Ratio (z) = -0.07048 -0.04452
#
# Static dielectric constant tensor:
#      x y z
#    x 1.700980 0.000000 0.000000 
#    y 0.000000 2.492090 0.000000 
#    z 0.000000 0.000000 1.869730 
# 
# From -- ./inp_files/9528.got.cif
#   From: 2010.05.17/outbox.cif.g08.bks.cpg/sg24_5_cif.got.tgz:9528.got - 2010.06.04 00:33:39.
