data_PCOD9334177
_publ_section_title
;
Structure prediction by ZEFSAII (Michael W. Deem and Ramdas Pophale) SiO2 
 PCOD9334177
Probable space group: I 21 21 21
;
_chemical_formula_sum "Si O2"
_cell_formula_units_Z 40
_cell_length_a 11.141078
_cell_length_b 5.573290
_cell_length_c 27.579370
_cell_angle_alpha 90.000000
_cell_angle_beta 90.000000
_cell_angle_gamma 90.000000
_cell_volume 1712.470890
_symmetry_space_group_name_H-M "I 21 21 21"
_symmetry_group_IT_number 24
_symmetry_cell_setting 'orthorhombic'
loop_
_space_group_symop_operation_xyz
x,y,z
-x,1/2-y,z
x,-y,1/2-z
1/2-x,y,-z
1/2+x,1/2+y,1/2+z
1/2-x,-y,1/2+z
1/2+x,1/2-y,-z
-x,1/2+y,1/2-z
loop_
_atom_site_type_symbol
_atom_site_label
_atom_site_fract_x
_atom_site_fract_y
_atom_site_fract_z
Si Si1 0.003091 0.000014 0.460426
Si Si2 0.243676 0.058932 0.594425
Si Si3 0.758581 0.944892 0.558214
Si Si4 0.000000 0.250000 0.219579
Si Si5 0.749642 0.606750 0.695582
Si Si6 0.500000 0.750000 0.280073
O O1 0.000000 0.250000 0.488535
O O2 0.124170 0.025759 0.429587
O O3 0.000000 0.750000 0.488918
O O4 0.883480 0.976196 0.427688
O O5 0.189354 0.798822 0.580345
O O6 0.249623 0.082506 0.652168
O O7 0.186905 0.300040 0.573062
O O8 0.750000 0.926940 0.500000
O O9 0.003047 0.500000 0.250000
O O10 0.875248 0.252624 0.190484
O O11 0.748156 0.500000 0.750000
O O12 0.873993 0.749694 0.691779
O O13 0.498904 0.500000 0.250000
#
# Coordination Sequence:
#
# PCOD9334177 Si02
#       6
#     8   8   8   4   8   4
#     4   8  16  31  51  79 110 152 195 238 309 374
#     4  10  21  36  61  89 125 161 213 256 325 385
#     4  10  20  36  60  86 117 164 213 260 317 386
#     4  10  22  38  58  96 135 164 219 270 320 370
#     4  10  23  42  66 100 133 180 216 273 322 400
#     4  10  22  42  68  88 125 180 227 260 326 390
#
# _framework density 23.358059000000001
#
# number of rings (size 3 to 8) (size 9 to 14) (size 15 to 20)
#    0.000    2.400    0.000    1.200    4.200    6.400 
#   14.400    0.000   19.800    0.000    0.000    0.000 
#    0.000    0.000    0.000    0.000    0.000    0.000 
#
# Total GULP energy -111340.238099 kJ/mol
# GULP energy per Si atom -5567.011905 kJ/mol
# Density = 2.330490 g / cm^3
# Si number density = 23.358059 Si / 1000 Ang^3
#
#
#
# Elastic Constant Matrix: (Units=GPa)
#
#
# Indices 1 2 3 4 5 6 
#
# 1 121.9413 -3.3798 4.6023 0.0000 0.0000 0.0000
# 2 -3.3798 226.2258 37.6864 0.0000 0.0000 0.0000
# 3 4.6023 37.6864 122.4642 0.0000 0.0000 0.0000
# 4 0.0000 0.0000 0.0000 31.2537 0.0000 0.0000
# 5 0.0000 0.0000 0.0000 0.0000 37.4704 0.0000
# 6 0.0000 0.0000 0.0000 0.0000 0.0000 -2.7262
#
#
#
# Elastic Compliance Matrix: (Units=1/GPa)
#
#
# Indices 1 2 3 4 5 6 
#
# 1 0.008220 0.000184 -0.000365 0.000000 0.000000 0.000000
# 2 0.000184 0.004663 -0.001442 0.000000 0.000000 0.000000
# 3 -0.000365 -0.001442 0.008623 0.000000 0.000000 0.000000
# 4 0.000000 0.000000 0.000000 0.031996 0.000000 0.000000
# 5 0.000000 0.000000 0.000000 0.000000 0.026688 0.000000
# 6 0.000000 0.000000 0.000000 0.000000 0.000000 -0.366805
#
#
# Mechanical properties :
#
#
# Convention : Reuss Voigt Hill
#
# Bulk Modulus (GPa) = 54.76880 60.93879 57.85380
# Shear Modulus (GPa) = -18.03224 41.98105 11.97440
#
# Velocity S-wave (km/s) = -2.78149 4.24404 2.26662
# Velocity P-wave (km/s) = 3.63082 7.08247 5.62780
#
# Compressibility (1/GPa) = 0.01825857
#
# Stress axis : x y z
#
# Youngs Moduli (GPa) = 121.66117 214.43947 115.96719
#
# Poissons Ratio (x) = -0.03939 0.04238
# Poissons Ratio (y) = -0.02235 0.16722
# Poissons Ratio (z) = 0.04446 0.30921
#
# Static dielectric constant tensor:
#      x y z
#    x 1.975690 0.000000 0.000000 
#    y 0.000000 2.274320 0.000000 
#    z 0.000000 0.000000 1.875190 
# 
# From -- ./inp_files/37068.got.cif
#   From: 2010.05.17/outbox.cif.g08.bks.cpg/sg24_19_cif.got.tgz:37068.got - 2010.06.04 00:33:39.
