data_PCOD9334860
_publ_section_title
;
Structure prediction by ZEFSAII (Michael W. Deem and Ramdas Pophale) SiO2 
 PCOD9334860
Probable space group: I 21 21 21
;
_chemical_formula_sum "Si O2"
_cell_formula_units_Z 60
_cell_length_a 11.242379
_cell_length_b 28.682250
_cell_length_c 8.482557
_cell_angle_alpha 90.000000
_cell_angle_beta 90.000000
_cell_angle_gamma 90.000000
_cell_volume 2735.257550
_symmetry_space_group_name_H-M "I 21 21 21"
_symmetry_group_IT_number 24
_symmetry_cell_setting 'orthorhombic'
loop_
_space_group_symop_operation_xyz
x,y,z
-x,1/2-y,z
x,-y,1/2-z
1/2-x,y,-z
1/2+x,1/2+y,1/2+z
1/2-x,-y,1/2+z
1/2+x,1/2-y,-z
-x,1/2+y,1/2-z
loop_
_atom_site_type_symbol
_atom_site_label
_atom_site_fract_x
_atom_site_fract_y
_atom_site_fract_z
Si Si1 0.868778 0.361861 0.573541
Si Si2 0.518860 0.549481 0.179853
Si Si3 0.706473 0.819485 0.679127
Si Si4 0.260105 0.421199 0.310615
Si Si5 0.502921 0.951931 0.800079
Si Si6 0.364252 0.763367 0.232614
Si Si7 0.750000 0.689092 0.500000
Si Si8 0.554425 0.352198 0.772841
O O1 0.750000 0.383837 0.500000
O O2 0.840465 0.310908 0.639421
O O3 0.946798 0.350523 0.418729
O O4 0.918414 0.399442 0.699121
O O5 0.564823 0.500000 0.250000
O O6 0.383706 0.555894 0.238950
O O7 0.513264 0.549025 0.988818
O O8 0.750000 0.815445 0.500000
O O9 0.751883 0.868861 0.746095
O O10 0.767585 0.778097 0.781211
O O11 0.563305 0.823760 0.678981
O O12 0.250000 0.418688 0.500000
O O13 0.143126 0.448951 0.259830
O O14 0.454141 0.907753 0.706435
O O15 0.446995 0.000000 0.750000
O O16 0.500000 0.750000 0.199688
O O17 0.347189 0.779521 0.412291
O O18 0.670937 0.663038 0.631460
#
# Coordination Sequence:
#
# PCOD9334860 Si02
#       8
#     8   8   8   8   8   8   4   8
#     4  11  24  47  64  92 131 174 227 279 328 398
#     4  10  21  37  64  92 127 167 219 273 323 390
#     4  11  23  42  67 102 139 172 218 272 333 406
#     4   9  19  37  60  97 136 172 208 266 328 392
#     4   9  19  37  63  95 132 165 217 265 325 396
#     4  12  26  42  67  98 133 173 221 272 330 405
#     4  12  24  44  66  92 136 176 218 274 336 388
#     4  10  24  45  68  94 137 180 217 280 337 393
#
# _framework density 21.935777999999999
#
# number of rings (size 3 to 8) (size 9 to 14) (size 15 to 20)
#    0.000    1.600    2.000    2.800    0.000    4.800 
#    0.000    3.333    2.933    0.000    0.000    0.000 
#    0.000    0.000    0.000    0.000    0.000    0.000 
#
# Total GULP energy -167212.848022 kJ/mol
# GULP energy per Si atom -5573.761601 kJ/mol
# Density = 2.188585 g / cm^3
# Si number density = 21.935778 Si / 1000 Ang^3
#
#
#
# Elastic Constant Matrix: (Units=GPa)
#
#
# Indices 1 2 3 4 5 6 
#
# 1 100.5875 47.8284 19.8495 0.0004 0.0001 -0.0004
# 2 47.8284 162.8650 27.0515 0.0002 0.0000 0.0000
# 3 19.8495 27.0515 29.3527 0.0037 -0.0003 -0.0013
# 4 0.0004 0.0002 0.0037 35.5677 -0.0008 -0.0001
# 5 0.0001 0.0000 -0.0003 -0.0008 16.1448 0.0005
# 6 -0.0004 0.0000 -0.0013 -0.0001 0.0005 0.2153
#
#
#
# Elastic Compliance Matrix: (Units=1/GPa)
#
#
# Indices 1 2 3 4 5 6 
#
# 1 0.012370 -0.002649 -0.005924 0.000000 0.000000 -0.000013
# 2 -0.002649 0.007817 -0.005413 0.000001 0.000000 -0.000035
# 3 -0.005924 -0.005413 0.043063 -0.000004 0.000001 0.000239
# 4 0.000000 0.000001 -0.000004 0.028115 0.000001 0.000008
# 5 0.000000 0.000000 0.000001 0.000001 0.061940 -0.000141
# 6 -0.000013 -0.000035 0.000239 0.000008 -0.000141 4.645730
#
#
# Mechanical properties :
#
#
# Convention : Reuss Voigt Hill
#
# Bulk Modulus (GPa) = 28.34572 53.58487 40.96530
# Shear Modulus (GPa) = 1.03332 23.59060 12.31196
#
# Velocity S-wave (km/s) = 0.68709 3.28295 2.37169
# Velocity P-wave (km/s) = 3.68506 6.23309 5.12011
#
# Compressibility (1/GPa) = 0.03527870
#
# Stress axis : x y z
#
# Youngs Moduli (GPa) = 80.84034 127.92650 23.22169
#
# Poissons Ratio (x) = 0.33884 0.13757
# Poissons Ratio (y) = 0.21412 0.12570
# Poissons Ratio (z) = 0.47890 0.69246
#
# Static dielectric constant tensor:
#      x y z
#    x 1.855180 0.000000 0.000000 
#    y 0.000000 1.856230 0.000000 
#    z 0.000000 0.000000 1.832140 
# 
# From -- ./inp_files/11532.got.cif
#   From: 2010.05.17/outbox.cif.g08.bks.cpg/sg24_6_cif.got.tgz:11532.got - 2010.06.04 00:33:39.
