data_PCOD9334728
_publ_section_title
;
Structure prediction by ZEFSAII (Michael W. Deem and Ramdas Pophale) SiO2 
 PCOD9334728
Probable space group: I 21 21 21
;
_chemical_formula_sum "Si O2"
_cell_formula_units_Z 52
_cell_length_a 7.643523
_cell_length_b 11.793884
_cell_length_c 27.792331
_cell_angle_alpha 90.000000
_cell_angle_beta 90.000000
_cell_angle_gamma 90.000000
_cell_volume 2505.390360
_symmetry_space_group_name_H-M "I 21 21 21"
_symmetry_group_IT_number 24
_symmetry_cell_setting 'orthorhombic'
loop_
_space_group_symop_operation_xyz
x,y,z
-x,1/2-y,z
x,-y,1/2-z
1/2-x,y,-z
1/2+x,1/2+y,1/2+z
1/2-x,-y,1/2+z
1/2+x,1/2-y,-z
-x,1/2+y,1/2-z
loop_
_atom_site_type_symbol
_atom_site_label
_atom_site_fract_x
_atom_site_fract_y
_atom_site_fract_z
Si Si1 0.243843 0.466914 0.204020
Si Si2 0.810439 0.284660 0.813300
Si Si3 0.634357 0.336820 0.634539
Si Si4 0.000000 0.250000 0.113550
Si Si5 0.879292 0.012429 0.095669
Si Si6 0.183927 0.313773 0.553941
Si Si7 0.584334 0.374586 0.286243
O O1 0.129239 0.500000 0.250000
O O2 0.266316 0.334161 0.211575
O O3 0.172498 0.483589 0.151602
O O4 0.422170 0.540262 0.205550
O O5 0.656077 0.300420 0.852027
O O6 0.837435 0.370660 0.768560
O O7 0.000000 0.250000 0.836316
O O8 0.500000 0.250000 0.661116
O O9 0.548832 0.432086 0.600034
O O10 0.718738 0.250588 0.596800
O O11 0.767669 0.388046 0.673152
O O12 0.924401 0.142909 0.083928
O O13 0.727369 0.946129 0.066587
O O14 0.250000 0.296168 0.500000
O O15 0.000000 0.250000 0.555270
O O16 0.500000 0.250000 0.293844
#
# Coordination Sequence:
#
# PCOD9334728 Si02
#       7
#     8   8   8   4   8   8   8
#     4  11  20  34  50  77 115 163 213 260 311 368
#     4  10  22  35  54  77 116 169 219 265 320 364
#     4  10  21  33  56  90 117 155 202 260 327 387
#     4  10  24  42  58  86 128 172 228 270 298 394
#     4  10  23  39  60  89 124 169 211 263 320 385
#     4  11  22  42  71 101 129 155 197 264 342 407
#     4  11  20  32  52  76 116 160 210 268 311 376
#
# _framework density 20.75525
#
# number of rings (size 3 to 8) (size 9 to 14) (size 15 to 20)
#    0.000    1.538    3.077    4.615    3.231    1.231 
#    0.000    0.000    0.000    2.769    0.000    0.000 
#    0.000    0.000    0.000    0.000    0.000    0.000 
#
# Total GULP energy -144761.150047 kJ/mol
# GULP energy per Si atom -5567.736540 kJ/mol
# Density = 2.070801 g / cm^3
# Si number density = 20.755250 Si / 1000 Ang^3
#
#
#
# Elastic Constant Matrix: (Units=GPa)
#
#
# Indices 1 2 3 4 5 6 
#
# 1 62.6233 18.3058 20.4993 0.0000 0.0000 0.0000
# 2 18.3058 109.1661 8.9746 0.0000 0.0000 0.0000
# 3 20.4993 8.9746 51.9487 0.0000 0.0000 0.0000
# 4 0.0000 0.0000 0.0000 5.7884 0.0000 0.0000
# 5 0.0000 0.0000 0.0000 0.0000 18.0754 0.0000
# 6 0.0000 0.0000 0.0000 0.0000 0.0000 28.6087
#
#
#
# Elastic Compliance Matrix: (Units=1/GPa)
#
#
# Indices 1 2 3 4 5 6 
#
# 1 0.019045 -0.002613 -0.007064 0.000000 0.000000 0.000000
# 2 -0.002613 0.009651 -0.000636 0.000000 0.000000 0.000000
# 3 -0.007064 -0.000636 0.022147 0.000000 0.000000 0.000000
# 4 0.000000 0.000000 0.000000 0.172760 0.000000 0.000000
# 5 0.000000 0.000000 0.000000 0.000000 0.055324 0.000000
# 6 0.000000 0.000000 0.000000 0.000000 0.000000 0.034954
#
#
# Mechanical properties :
#
#
# Convention : Reuss Voigt Hill
#
# Bulk Modulus (GPa) = 33.09410 35.47750 34.28580
# Shear Modulus (GPa) = 14.51049 22.22504 18.36777
#
# Velocity S-wave (km/s) = 2.64696 3.27588 2.97807
# Velocity P-wave (km/s) = 5.03204 5.60704 5.32730
#
# Compressibility (1/GPa) = 0.03021687
#
# Stress axis : x y z
#
# Youngs Moduli (GPa) = 52.50851 103.61838 45.15273
#
# Poissons Ratio (x) = 0.27074 0.31895
# Poissons Ratio (y) = 0.13720 0.02873
# Poissons Ratio (z) = 0.37090 0.06593
#
# Static dielectric constant tensor:
#      x y z
#    x 1.988550 0.000000 0.000000 
#    y 0.000000 1.986530 0.000000 
#    z 0.000000 0.000000 1.683810 
# 
# From -- ./inp_files/36887.got.cif
#   From: 2010.05.17/outbox.cif.g08.bks.cpg/sg24_19_cif.got.tgz:36887.got - 2010.06.04 00:33:39.
