data_PCOD9334082
_publ_section_title
;
Structure prediction by ZEFSAII (Michael W. Deem and Ramdas Pophale) SiO2 
 PCOD9334082
Probable space group: I 21 21 21
;
_chemical_formula_sum "Si O2"
_cell_formula_units_Z 56
_cell_length_a 19.806181
_cell_length_b 5.645225
_cell_length_c 23.232072
_cell_angle_alpha 90.000000
_cell_angle_beta 90.000000
_cell_angle_gamma 90.000000
_cell_volume 2597.586058
_symmetry_space_group_name_H-M "I 21 21 21"
_symmetry_group_IT_number 24
_symmetry_cell_setting 'orthorhombic'
loop_
_space_group_symop_operation_xyz
x,y,z
-x,1/2-y,z
x,-y,1/2-z
1/2-x,y,-z
1/2+x,1/2+y,1/2+z
1/2-x,-y,1/2+z
1/2+x,1/2-y,-z
-x,1/2+y,1/2-z
loop_
_atom_site_type_symbol
_atom_site_label
_atom_site_fract_x
_atom_site_fract_y
_atom_site_fract_z
Si Si1 0.060560 0.574741 0.519383
Si Si2 0.228709 0.957891 0.812859
Si Si3 0.729692 0.152995 0.893735
Si Si4 0.628662 0.750233 0.783832
Si Si5 0.845619 0.785147 0.912706
Si Si6 0.097860 0.675939 0.092580
Si Si7 0.667834 0.547390 0.516470
O O1 0.081118 0.384675 0.568508
O O2 0.052160 0.449733 0.456529
O O3 0.000000 0.750000 0.533396
O O4 0.124908 0.746849 0.512941
O O5 0.292364 0.779199 0.804717
O O6 0.171486 0.885432 0.858998
O O7 0.199127 0.000000 0.750000
O O8 0.265304 0.193715 0.836347
O O9 0.726818 0.339004 0.945985
O O10 0.795543 0.997544 0.898779
O O11 0.663120 0.996904 0.902154
O O12 0.614921 0.500000 0.750000
O O13 0.582012 0.773448 0.840931
O O14 0.622120 0.000000 0.750000
O O15 0.821656 0.663667 0.971804
O O16 0.121153 0.923324 0.065222
#
# Coordination Sequence:
#
# PCOD9334082 Si02
#       7
#     8   8   8   8   8   8   8
#     4  10  24  41  60  83 116 155 217 279 333 378
#     4  11  23  34  54  84 133 167 200 247 309 398
#     4  11  20  36  54  88 133 162 197 240 315 398
#     4  11  22  36  58  90 133 174 214 253 310 393
#     4  11  23  35  56  84 124 160 208 251 324 400
#     4  10  20  35  58  88 119 168 206 253 319 390
#     4  10  22  37  56  86 122 160 195 251 317 392
#
# _framework density 21.558475999999999
#
# number of rings (size 3 to 8) (size 9 to 14) (size 15 to 20)
#    0.000    1.429    2.857    2.571    2.000   16.000 
#    0.000    0.000    0.000    0.000    3.714    0.000 
#   60.000    0.000    0.000    0.000    0.000    0.000 
#
# Total GULP energy -156265.620201 kJ/mol
# GULP energy per Si atom -5580.915007 kJ/mol
# Density = 2.150941 g / cm^3
# Si number density = 21.558476 Si / 1000 Ang^3
#
#
#
# Elastic Constant Matrix: (Units=GPa)
#
#
# Indices 1 2 3 4 5 6 
#
# 1 57.2084 7.0994 19.8651 0.0000 0.0000 0.0000
# 2 7.0994 79.3816 24.9929 0.0000 0.0000 0.0000
# 3 19.8651 24.9929 129.9885 0.0000 0.0000 0.0000
# 4 0.0000 0.0000 0.0000 49.3773 0.0000 0.0000
# 5 0.0000 0.0000 0.0000 0.0000 2.4729 0.0000
# 6 0.0000 0.0000 0.0000 0.0000 0.0000 26.5177
#
#
#
# Elastic Compliance Matrix: (Units=1/GPa)
#
#
# Indices 1 2 3 4 5 6 
#
# 1 0.018509 -0.000814 -0.002672 0.000000 0.000000 0.000000
# 2 -0.000814 0.013445 -0.002461 0.000000 0.000000 0.000000
# 3 -0.002672 -0.002461 0.008574 0.000000 0.000000 0.000000
# 4 0.000000 0.000000 0.000000 0.020252 0.000000 0.000000
# 5 0.000000 0.000000 0.000000 0.000000 0.404390 0.000000
# 6 0.000000 0.000000 0.000000 0.000000 0.000000 0.037711
#
#
# Mechanical properties :
#
#
# Convention : Reuss Voigt Hill
#
# Bulk Modulus (GPa) = 34.92265 41.16592 38.04428
# Shear Modulus (GPa) = 9.53617 29.98163 19.75890
#
# Velocity S-wave (km/s) = 2.10547 3.73327 3.03070
# Velocity P-wave (km/s) = 4.70583 6.14162 5.47103
#
# Compressibility (1/GPa) = 0.02863471
#
# Stress axis : x y z
#
# Youngs Moduli (GPa) = 54.02829 74.37759 116.62560
#
# Poissons Ratio (x) = 0.06055 0.31163
# Poissons Ratio (y) = 0.04398 0.28698
# Poissons Ratio (z) = 0.14437 0.18302
#
# Static dielectric constant tensor:
#      x y z
#    x 1.823690 0.000000 0.000000 
#    y 0.000000 1.815280 0.000000 
#    z 0.000000 0.000000 1.845920 
# 
# From -- ./inp_files/34251.got.cif
#   From: 2010.05.17/outbox.cif.g08.bks.cpg/sg24_18_cif.got.tgz:34251.got - 2010.06.04 00:33:39.
