data_PCOD9334458
_publ_section_title
;
Structure prediction by ZEFSAII (Michael W. Deem and Ramdas Pophale) SiO2 
 PCOD9334458
Probable space group: I 21 21 21
;
_chemical_formula_sum "Si O2"
_cell_formula_units_Z 44
_cell_length_a 16.136622
_cell_length_b 9.441360
_cell_length_c 14.252675
_cell_angle_alpha 90.000000
_cell_angle_beta 90.000000
_cell_angle_gamma 90.000000
_cell_volume 2171.418660
_symmetry_space_group_name_H-M "I 21 21 21"
_symmetry_group_IT_number 24
_symmetry_cell_setting 'orthorhombic'
loop_
_space_group_symop_operation_xyz
x,y,z
-x,1/2-y,z
x,-y,1/2-z
1/2-x,y,-z
1/2+x,1/2+y,1/2+z
1/2-x,-y,1/2+z
1/2+x,1/2-y,-z
-x,1/2+y,1/2-z
loop_
_atom_site_type_symbol
_atom_site_label
_atom_site_fract_x
_atom_site_fract_y
_atom_site_fract_z
Si Si1 0.361843 0.220740 0.135978
Si Si2 0.409916 0.264854 0.584442
Si Si3 0.666020 0.443072 0.451223
Si Si4 0.764706 0.765597 0.813056
Si Si5 0.975610 0.500000 0.750000
Si Si6 0.395402 0.463380 0.407417
O O1 0.284628 0.260974 0.203189
O O2 0.393935 0.367074 0.094364
O O3 0.339169 0.109304 0.056079
O O4 0.426421 0.125542 0.196649
O O5 0.500000 0.250000 0.630751
O O6 0.403187 0.130638 0.513157
O O7 0.330974 0.263777 0.654335
O O8 0.404240 0.394852 0.510171
O O9 0.750000 0.396710 0.500000
O O10 0.682620 0.370047 0.351574
O O11 0.811738 0.896689 0.862572
O O12 0.032906 0.429362 0.668895
#
# Coordination Sequence:
#
# PCOD9334458 Si02
#       6
#     8   8   8   8   4   8
#     4  12  21  35  59  90 123 153 193 247 303 355
#     4  10  22  39  61  83 118 161 208 242 291 360
#     4   9  19  34  57  85 115 156 194 243 301 355
#     4  10  20  39  55  82 121 161 198 240 299 361
#     4  12  22  32  56  92 124 146 184 252 306 364
#     4  11  23  34  54  88 123 151 190 242 302 355
#
# _framework density 20.263251
#
# number of rings (size 3 to 8) (size 9 to 14) (size 15 to 20)
#    0.000    1.455    3.636    3.273    2.545    1.455 
#    0.000    0.000    0.000    8.727    0.000    0.000 
#    0.000    0.000    0.000    0.000    0.000    0.000 
#
# Total GULP energy -122608.444272 kJ/mol
# GULP energy per Si atom -5573.111103 kJ/mol
# Density = 2.021713 g / cm^3
# Si number density = 20.263251 Si / 1000 Ang^3
#
#
#
# Elastic Constant Matrix: (Units=GPa)
#
#
# Indices 1 2 3 4 5 6 
#
# 1 123.2307 19.2375 17.6329 0.0000 0.0000 0.0000
# 2 19.2375 122.6596 4.3462 0.0000 0.0000 0.0000
# 3 17.6329 4.3462 32.5901 0.0000 0.0000 0.0000
# 4 0.0000 0.0000 0.0000 14.3658 0.0000 0.0000
# 5 0.0000 0.0000 0.0000 0.0000 21.8937 0.0000
# 6 0.0000 0.0000 0.0000 0.0000 0.0000 21.2456
#
#
#
# Elastic Compliance Matrix: (Units=1/GPa)
#
#
# Indices 1 2 3 4 5 6 
#
# 1 0.008980 -0.001242 -0.004693 0.000000 0.000000 0.000000
# 2 -0.001242 0.008363 -0.000443 0.000000 0.000000 0.000000
# 3 -0.004693 -0.000443 0.033282 0.000000 0.000000 0.000000
# 4 0.000000 0.000000 0.000000 0.069610 0.000000 0.000000
# 5 0.000000 0.000000 0.000000 0.000000 0.045675 0.000000
# 6 0.000000 0.000000 0.000000 0.000000 0.000000 0.047069
#
#
# Mechanical properties :
#
#
# Convention : Reuss Voigt Hill
#
# Bulk Modulus (GPa) = 26.40690 40.10151 33.25420
# Shear Modulus (GPa) = 20.97670 27.31860 24.14765
#
# Velocity S-wave (km/s) = 3.22096 3.67575 3.45584
# Velocity P-wave (km/s) = 5.18584 6.15208 5.68951
#
# Compressibility (1/GPa) = 0.03786889
#
# Stress axis : x y z
#
# Youngs Moduli (GPa) = 111.35480 119.57197 30.04583
#
# Poissons Ratio (x) = 0.14853 0.14101
# Poissons Ratio (y) = 0.13832 0.01332
# Poissons Ratio (z) = 0.52260 0.05300
#
# Static dielectric constant tensor:
#      x y z
#    x 1.787080 0.000000 0.000000 
#    y 0.000000 1.740320 0.000000 
#    z 0.000000 0.000000 1.768890 
# 
# From -- ./inp_files/12674.got.cif
#   From: 2010.05.17/outbox.cif.g08.bks.cpg/sg24_7_cif.got.tgz:12674.got - 2010.06.04 00:33:39.
