data_PCOD9334263
_publ_section_title
;
Structure prediction by ZEFSAII (Michael W. Deem and Ramdas Pophale) SiO2 
 PCOD9334263
Probable space group: I 21 21 21
;
_chemical_formula_sum "Si O2"
_cell_formula_units_Z 64
_cell_length_a 8.810554
_cell_length_b 14.635198
_cell_length_c 23.553023
_cell_angle_alpha 90.000000
_cell_angle_beta 90.000000
_cell_angle_gamma 90.000000
_cell_volume 3037.025762
_symmetry_space_group_name_H-M "I 21 21 21"
_symmetry_group_IT_number 24
_symmetry_cell_setting 'orthorhombic'
loop_
_space_group_symop_operation_xyz
x,y,z
-x,1/2-y,z
x,-y,1/2-z
1/2-x,y,-z
1/2+x,1/2+y,1/2+z
1/2-x,-y,1/2+z
1/2+x,1/2-y,-z
-x,1/2+y,1/2-z
loop_
_atom_site_type_symbol
_atom_site_label
_atom_site_fract_x
_atom_site_fract_y
_atom_site_fract_z
Si Si1 0.875483 0.513606 0.573039
Si Si2 0.782434 0.332265 0.215408
Si Si3 0.277759 0.656049 0.643657
Si Si4 0.598947 0.168244 0.033570
Si Si5 0.565562 0.461440 0.872949
Si Si6 0.998348 0.058833 0.806453
Si Si7 0.118313 0.831767 0.154526
Si Si8 0.350501 0.809621 0.052893
O O1 0.700531 0.545591 0.580331
O O2 0.935736 0.506992 0.638262
O O3 0.888780 0.416272 0.543340
O O4 0.983961 0.586000 0.543647
O O5 0.826894 0.238325 0.184358
O O6 0.869033 0.414801 0.184128
O O7 0.605726 0.353404 0.203342
O O8 0.819124 0.333579 0.281520
O O9 0.168014 0.696516 0.594920
O O10 0.414477 0.597428 0.616252
O O11 0.172076 0.588202 0.679762
O O12 0.500000 0.250000 0.007839
O O13 0.750000 0.143778 0.000000
O O14 0.546986 0.569487 0.861853
O O15 0.009304 0.000000 0.750000
O O16 0.251299 0.811319 0.109863
O O17 0.000000 0.750000 0.150075
O O18 0.500000 0.750000 0.058631
O O19 0.250000 0.776555 0.000000
#
# Coordination Sequence:
#
# PCOD9334263 Si02
#       8
#     8   8   8   8   8   8   8   8
#     4   9  22  43  65  89 122 165 209 252 313 376
#     4  11  21  37  61  89 127 169 204 248 311 376
#     4  11  23  38  61  93 125 165 209 255 311 372
#     4  11  25  42  64  95 128 163 206 254 303 371
#     4  10  21  39  62  89 126 163 204 259 313 368
#     4  10  20  37  60  89 127 165 205 256 310 371
#     4  11  24  40  62  93 125 164 213 262 317 378
#     4  11  25  44  66  89 119 160 207 266 323 374
#
# _framework density 21.073249000000001
#
# number of rings (size 3 to 8) (size 9 to 14) (size 15 to 20)
#    0.000    1.500    0.000    6.750    0.000   11.000 
#    0.000    0.000    0.000    0.000    0.000    0.000 
#    0.000    0.000    0.000    0.000    0.000    0.000 
#
# Total GULP energy -178924.116585 kJ/mol
# GULP energy per Si atom -5591.378643 kJ/mol
# Density = 2.102529 g / cm^3
# Si number density = 21.073249 Si / 1000 Ang^3
#
#
#
# Elastic Constant Matrix: (Units=GPa)
#
#
# Indices 1 2 3 4 5 6 
#
# 1 128.0997 70.0184 20.8642 0.0000 0.0000 0.0000
# 2 70.0184 89.1113 31.8420 0.0000 0.0000 0.0000
# 3 20.8642 31.8420 58.3796 0.0000 0.0000 0.0000
# 4 0.0000 0.0000 0.0000 6.1628 0.0000 0.0000
# 5 0.0000 0.0000 0.0000 0.0000 22.7173 0.0000
# 6 0.0000 0.0000 0.0000 0.0000 0.0000 36.8013
#
#
#
# Elastic Compliance Matrix: (Units=1/GPa)
#
#
# Indices 1 2 3 4 5 6 
#
# 1 0.013752 -0.011240 0.001216 0.000000 0.000000 0.000000
# 2 -0.011240 0.023125 -0.008596 0.000000 0.000000 0.000000
# 3 0.001216 -0.008596 0.021383 0.000000 0.000000 0.000000
# 4 0.000000 0.000000 0.000000 0.162263 0.000000 0.000000
# 5 0.000000 0.000000 0.000000 0.000000 0.044019 0.000000
# 6 0.000000 0.000000 0.000000 0.000000 0.000000 0.027173
#
#
# Mechanical properties :
#
#
# Convention : Reuss Voigt Hill
#
# Bulk Modulus (GPa) = 47.57382 57.89334 52.73358
# Shear Modulus (GPa) = 14.88255 23.32735 19.10495
#
# Velocity S-wave (km/s) = 2.66038 3.33072 3.01424
# Velocity P-wave (km/s) = 5.66227 6.50566 6.09856
#
# Compressibility (1/GPa) = 0.02101996
#
# Stress axis : x y z
#
# Youngs Moduli (GPa) = 72.71586 43.24246 46.76528
#
# Poissons Ratio (x) = 0.48605 -0.05686
# Poissons Ratio (y) = 0.81733 0.40200
# Poissons Ratio (z) = -0.08841 0.37172
#
# Static dielectric constant tensor:
#      x y z
#    x 1.778450 0.000000 0.000000 
#    y 0.000000 1.757820 0.000000 
#    z 0.000000 0.000000 1.772740 
# 
# From -- ./inp_files/35292.got.cif
#   From: 2010.05.17/outbox.cif.g08.bks.cpg/sg24_18_cif.got.tgz:35292.got - 2010.06.04 00:33:39.
