data_PCOD9334011
_publ_section_title
;
Structure prediction by ZEFSAII (Michael W. Deem and Ramdas Pophale) SiO2 
 PCOD9334011
Probable space group: I 21 21 21
;
_chemical_formula_sum "Si O2"
_cell_formula_units_Z 36
_cell_length_a 7.285022
_cell_length_b 25.898274
_cell_length_c 7.893565
_cell_angle_alpha 90.000000
_cell_angle_beta 90.000000
_cell_angle_gamma 90.000000
_cell_volume 1489.274929
_symmetry_space_group_name_H-M "I 21 21 21"
_symmetry_group_IT_number 24
_symmetry_cell_setting 'orthorhombic'
loop_
_space_group_symop_operation_xyz
x,y,z
-x,1/2-y,z
x,-y,1/2-z
1/2-x,y,-z
1/2+x,1/2+y,1/2+z
1/2-x,-y,1/2+z
1/2+x,1/2-y,-z
-x,1/2+y,1/2-z
loop_
_atom_site_type_symbol
_atom_site_label
_atom_site_fract_x
_atom_site_fract_y
_atom_site_fract_z
Si Si1 0.628298 0.046462 0.155899
Si Si2 0.986355 0.139089 0.599169
Si Si3 0.250000 0.038917 0.000000
Si Si4 0.750000 0.297565 0.000000
Si Si5 0.112068 0.125024 0.244043
Si Si6 0.500000 0.250000 0.274539
O O1 0.594355 0.094725 0.279479
O O2 0.438409 0.019325 0.085690
O O3 0.730240 0.000000 0.250000
O O4 0.750000 0.065170 0.000000
O O5 0.972842 0.125152 0.400186
O O6 0.196772 0.139108 0.664917
O O7 0.937540 0.199255 0.623536
O O8 0.156723 0.071893 0.151316
O O9 0.596777 0.334440 0.911054
O O10 0.835850 0.264695 0.851605
#
# Coordination Sequence:
#
# PCOD9334011 Si02
#       6
#     8   8   4   4   8   4
#     4  11  26  44  67  98 138 177 229 290 340 417
#     4   9  19  37  62  91 129 171 221 277 344 404
#     4   9  20  42  72  96 124 180 226 271 360 402
#     4   9  18  32  56  86 128 166 208 275 334 396
#     4   8  16  36  62  89 124 165 214 278 328 405
#     4  10  20  34  58  92 124 170 220 276 330 418
#
# _framework density 24.172837000000001
#
# number of rings (size 3 to 8) (size 9 to 14) (size 15 to 20)
#    0.000    2.667    0.000    1.333    1.556    7.111 
#    0.000    0.000    9.778    0.000    0.000    0.000 
#    0.000    0.000    0.000    0.000    0.000    0.000 
#
# Total GULP energy -100342.676017 kJ/mol
# GULP energy per Si atom -5574.593112 kJ/mol
# Density = 2.411782 g / cm^3
# Si number density = 24.172837 Si / 1000 Ang^3
#
#
#
# Elastic Constant Matrix: (Units=GPa)
#
#
# Indices 1 2 3 4 5 6 
#
# 1 59.9319 12.0208 18.8033 0.0001 -0.0001 -0.0001
# 2 12.0208 93.8029 59.6004 -0.0001 -0.0001 -0.0001
# 3 18.8033 59.6004 171.1077 0.0017 0.0007 -0.0015
# 4 0.0001 -0.0001 0.0017 0.1270 0.0001 -0.0005
# 5 -0.0001 -0.0001 0.0007 0.0001 46.6918 -0.0001
# 6 -0.0001 -0.0001 -0.0015 -0.0005 -0.0001 8.2914
#
#
#
# Elastic Compliance Matrix: (Units=1/GPa)
#
#
# Indices 1 2 3 4 5 6 
#
# 1 0.017405 -0.001304 -0.001459 0.000006 0.000000 0.000000
# 2 -0.001304 0.013788 -0.004659 0.000078 0.000000 -0.000001
# 3 -0.001459 -0.004659 0.007628 -0.000106 0.000000 0.000001
# 4 0.000006 0.000078 -0.000106 7.872842 -0.000017 0.000453
# 5 0.000000 0.000000 0.000000 -0.000017 0.021417 0.000000
# 6 0.000000 -0.000001 0.000001 0.000453 0.000000 0.120607
#
#
# Mechanical properties :
#
#
# Convention : Reuss Voigt Hill
#
# Bulk Modulus (GPa) = 41.70643 56.18794 48.94718
# Shear Modulus (GPa) = 0.61908 26.64992 13.63450
#
# Velocity S-wave (km/s) = 0.50662 3.32395 2.37753
# Velocity P-wave (km/s) = 4.19918 6.16654 5.27538
#
# Compressibility (1/GPa) = 0.02397712
#
# Stress axis : x y z
#
# Youngs Moduli (GPa) = 57.45580 72.52553 131.10380
#
# Poissons Ratio (x) = 0.09455 0.19122
# Poissons Ratio (y) = 0.07490 0.61087
# Poissons Ratio (z) = 0.08380 0.33793
#
# Static dielectric constant tensor:
#      x y z
#    x 2.088520 0.000000 0.000000 
#    y 0.000000 1.914290 0.000000 
#    z 0.000000 0.000000 2.224900 
# 
# From -- ./inp_files/9444.got.cif
#   From: 2010.05.17/outbox.cif.g08.bks.cpg/sg24_5_cif.got.tgz:9444.got - 2010.06.04 00:33:39.
