data_PCOD9334237
_publ_section_title
;
Structure prediction by ZEFSAII (Michael W. Deem and Ramdas Pophale) SiO2 
 PCOD9334237
Probable space group: I 21 21 21
;
_chemical_formula_sum "Si O2"
_cell_formula_units_Z 40
_cell_length_a 15.324967
_cell_length_b 5.090120
_cell_length_c 25.357153
_cell_angle_alpha 90.000000
_cell_angle_beta 90.000000
_cell_angle_gamma 90.000000
_cell_volume 1978.008074
_symmetry_space_group_name_H-M "I 21 21 21"
_symmetry_group_IT_number 24
_symmetry_cell_setting 'orthorhombic'
loop_
_space_group_symop_operation_xyz
x,y,z
-x,1/2-y,z
x,-y,1/2-z
1/2-x,y,-z
1/2+x,1/2+y,1/2+z
1/2-x,-y,1/2+z
1/2+x,1/2-y,-z
-x,1/2+y,1/2-z
loop_
_atom_site_type_symbol
_atom_site_label
_atom_site_fract_x
_atom_site_fract_y
_atom_site_fract_z
Si Si1 0.758043 0.389406 0.868716
Si Si2 0.558545 0.500999 0.313463
Si Si3 0.734101 0.094546 0.560945
Si Si4 0.946888 0.013696 0.409973
Si Si5 0.401725 0.633288 0.696181
O O1 0.844816 0.476726 0.837552
O O2 0.733620 0.632586 0.906811
O O3 0.675218 0.313692 0.830132
O O4 0.781685 0.129844 0.903925
O O5 0.500000 0.250000 0.328730
O O6 0.568097 0.500000 0.250000
O O7 0.500000 0.750000 0.328522
O O8 0.750000 0.149125 0.500000
O O9 0.638842 0.965144 0.558276
O O10 0.000000 0.250000 0.433285
O O11 0.917863 0.078423 0.350146
O O12 0.000000 0.750000 0.406254
O O13 0.500000 0.750000 0.706352
O O14 0.371112 0.500000 0.750000
#
# Coordination Sequence:
#
# PCOD9334237 Si02
#       5
#     8   8   8   8   8
#     4  11  24  41  65  93 126 165 210 260 310 371
#     4  10  22  41  64  91 126 165 205 254 315 377
#     4  11  23  42  64  88 120 162 210 263 317 362
#     4  10  20  37  57  83 120 159 200 245 298 363
#     4  10  21  35  58  93 132 169 203 242 296 371
#
# _framework density 20.222365
#
# number of rings (size 3 to 8) (size 9 to 14) (size 15 to 20)
#    0.000    1.600    0.000    6.000    0.000    8.000 
#    0.000    6.000    0.000    1.200    0.000    0.000 
#    0.000    0.000    0.000    0.000    0.000    0.000 
#
# Total GULP energy -111412.841098 kJ/mol
# GULP energy per Si atom -5570.642055 kJ/mol
# Density = 2.017634 g / cm^3
# Si number density = 20.222365 Si / 1000 Ang^3
#
#
#
# Elastic Constant Matrix: (Units=GPa)
#
#
# Indices 1 2 3 4 5 6 
#
# 1 136.0365 45.1873 61.5857 0.0000 0.0000 0.0000
# 2 45.1873 133.7573 54.4025 0.0000 0.0000 0.0000
# 3 61.5857 54.4025 110.5038 0.0000 0.0000 0.0000
# 4 0.0000 0.0000 0.0000 20.9842 0.0000 0.0000
# 5 0.0000 0.0000 0.0000 0.0000 14.1644 0.0000
# 6 0.0000 0.0000 0.0000 0.0000 0.0000 28.9368
#
#
#
# Elastic Compliance Matrix: (Units=1/GPa)
#
#
# Indices 1 2 3 4 5 6 
#
# 1 0.010035 -0.001395 -0.004906 0.000000 0.000000 0.000000
# 2 -0.001395 0.009542 -0.003920 0.000000 0.000000 0.000000
# 3 -0.004906 -0.003920 0.013714 0.000000 0.000000 0.000000
# 4 0.000000 0.000000 0.000000 0.047655 0.000000 0.000000
# 5 0.000000 0.000000 0.000000 0.000000 0.070600 0.000000
# 6 0.000000 0.000000 0.000000 0.000000 0.000000 0.034558
#
#
# Mechanical properties :
#
#
# Convention : Reuss Voigt Hill
#
# Bulk Modulus (GPa) = 77.82994 78.07207 77.95101
# Shear Modulus (GPa) = 23.71591 27.42523 25.57057
#
# Velocity S-wave (km/s) = 3.42827 3.68663 3.55980
# Velocity P-wave (km/s) = 7.36487 7.53739 7.45163
#
# Compressibility (1/GPa) = 0.01284853
#
# Stress axis : x y z
#
# Youngs Moduli (GPa) = 99.64728 104.80090 72.91927
#
# Poissons Ratio (x) = 0.14617 0.35776
# Poissons Ratio (y) = 0.13899 0.28586
# Poissons Ratio (z) = 0.48889 0.41085
#
# Static dielectric constant tensor:
#      x y z
#    x 1.747410 0.000000 0.000000 
#    y 0.000000 1.727320 0.000000 
#    z 0.000000 0.000000 1.796330 
# 
# From -- ./inp_files/35730.got.cif
#   From: 2010.05.17/outbox.cif.g08.bks.cpg/sg24_18_cif.got.tgz:35730.got - 2010.06.04 00:33:39.
