data_PCOD9334107
_publ_section_title
;
Structure prediction by ZEFSAII (Michael W. Deem and Ramdas Pophale) SiO2 
 PCOD9334107
Probable space group: I 21 21 21
;
_chemical_formula_sum "Si O2"
_cell_formula_units_Z 60
_cell_length_a 12.808165
_cell_length_b 18.389484
_cell_length_c 12.472778
_cell_angle_alpha 90.000000
_cell_angle_beta 90.000000
_cell_angle_gamma 90.000000
_cell_volume 2937.782568
_symmetry_space_group_name_H-M "I 21 21 21"
_symmetry_group_IT_number 24
_symmetry_cell_setting 'orthorhombic'
loop_
_space_group_symop_operation_xyz
x,y,z
-x,1/2-y,z
x,-y,1/2-z
1/2-x,y,-z
1/2+x,1/2+y,1/2+z
1/2-x,-y,1/2+z
1/2+x,1/2-y,-z
-x,1/2+y,1/2-z
loop_
_atom_site_type_symbol
_atom_site_label
_atom_site_fract_x
_atom_site_fract_y
_atom_site_fract_z
Si Si1 0.536675 0.933787 0.821703
Si Si2 0.632577 0.971802 0.497611
Si Si3 0.181231 0.756497 0.605427
Si Si4 0.750000 0.259191 0.500000
Si Si5 0.292945 0.323886 0.716568
Si Si6 0.040213 0.827809 0.007063
Si Si7 0.998335 0.634874 0.611427
Si Si8 0.087607 0.591861 0.824882
O O1 0.603572 0.871055 0.761745
O O2 0.460852 0.888902 0.900752
O O3 0.493624 0.000000 0.750000
O O4 0.616756 0.975463 0.901643
O O5 0.750000 0.940650 0.500000
O O6 0.539204 0.914249 0.486717
O O7 0.616289 0.020899 0.392039
O O8 0.250000 0.747786 0.500000
O O9 0.261011 0.740029 0.702416
O O10 0.086836 0.698052 0.614333
O O11 0.116456 0.831513 0.603844
O O12 0.710862 0.208758 0.596987
O O13 0.654702 0.309917 0.463769
O O14 0.196588 0.379247 0.719967
O O15 0.000000 0.750000 0.049572
O O16 0.963583 0.853454 0.912161
O O17 0.010172 0.592173 0.724051
#
# Coordination Sequence:
#
# PCOD9334107 Si02
#       8
#     8   8   8   4   8   8   8   8
#     4  11  25  39  58  97 135 169 202 264 349 402
#     4  11  21  35  60  92 126 163 200 266 337 398
#     4  10  23  40  57  89 122 174 225 257 317 389
#     4  12  20  38  66  98 122 166 226 284 334 386
#     4  11  20  35  66  95 127 162 212 277 336 387
#     4  11  21  38  64  95 132 161 219 276 331 395
#     4  10  22  37  60  90 124 167 214 270 318 390
#     4  10  20  35  61  94 124 155 209 273 332 389
#
# _framework density 20.423568
#
# number of rings (size 3 to 8) (size 9 to 14) (size 15 to 20)
#    0.000    1.333    4.000    2.400    7.467    0.000 
#    2.400    0.000    5.867    0.000    0.000    0.000 
#    0.000    0.000    0.000    0.000    0.000    0.000 
#
# Total GULP energy -167308.415895 kJ/mol
# GULP energy per Si atom -5576.947197 kJ/mol
# Density = 2.037708 g / cm^3
# Si number density = 20.423568 Si / 1000 Ang^3
#
#
#
# Elastic Constant Matrix: (Units=GPa)
#
#
# Indices 1 2 3 4 5 6 
#
# 1 30.3862 18.7402 0.9482 0.0000 0.0000 0.0000
# 2 18.7402 71.0335 21.7244 0.0000 0.0000 0.0000
# 3 0.9482 21.7244 78.6553 -0.0001 0.0000 0.0000
# 4 0.0000 0.0000 -0.0001 27.2338 0.0000 0.0000
# 5 0.0000 0.0000 0.0000 0.0000 10.9681 0.0000
# 6 0.0000 0.0000 0.0000 0.0000 0.0000 28.9526
#
#
#
# Elastic Compliance Matrix: (Units=1/GPa)
#
#
# Indices 1 2 3 4 5 6 
#
# 1 0.039802 -0.011309 0.002644 0.000000 0.000000 0.000000
# 2 -0.011309 0.018590 -0.004998 0.000000 0.000000 0.000000
# 3 0.002644 -0.004998 0.014062 0.000000 0.000000 0.000000
# 4 0.000000 0.000000 0.000000 0.036719 0.000000 0.000000
# 5 0.000000 0.000000 0.000000 0.000000 0.091174 0.000000
# 6 0.000000 0.000000 0.000000 0.000000 0.000000 0.034539
#
#
# Mechanical properties :
#
#
# Convention : Reuss Voigt Hill
#
# Bulk Modulus (GPa) = 22.15962 29.21117 25.68539
# Shear Modulus (GPa) = 18.03390 22.67506 20.35448
#
# Velocity S-wave (km/s) = 2.97475 3.33564 3.16035
# Velocity P-wave (km/s) = 4.76155 5.40084 5.09124
#
# Compressibility (1/GPa) = 0.04512713
#
# Stress axis : x y z
#
# Youngs Moduli (GPa) = 25.12440 53.79220 71.11208
#
# Poissons Ratio (x) = 0.60834 -0.18800
# Poissons Ratio (y) = 0.28414 0.35543
# Poissons Ratio (z) = -0.06642 0.26886
#
# Static dielectric constant tensor:
#      x y z
#    x 1.730010 0.000000 0.000000 
#    y 0.000000 1.781790 0.000000 
#    z 0.000000 0.000000 1.764440 
# 
# From -- ./inp_files/21029.got.cif
#   From: 2010.05.17/outbox.cif.g08.bks.cpg/sg24_11_cif.got.tgz:21029.got - 2010.06.04 00:33:39.
