data_PCOD9334601
_publ_section_title
;
Structure prediction by ZEFSAII (Michael W. Deem and Ramdas Pophale) SiO2 
 PCOD9334601
Probable space group: I 21 21 21
;
_chemical_formula_sum "Si O2"
_cell_formula_units_Z 60
_cell_length_a 6.147000
_cell_length_b 18.261193
_cell_length_c 25.189246
_cell_angle_alpha 90.000000
_cell_angle_beta 90.000000
_cell_angle_gamma 90.000000
_cell_volume 2827.531992
_symmetry_space_group_name_H-M "I 21 21 21"
_symmetry_group_IT_number 24
_symmetry_cell_setting 'orthorhombic'
loop_
_space_group_symop_operation_xyz
x,y,z
-x,1/2-y,z
x,-y,1/2-z
1/2-x,y,-z
1/2+x,1/2+y,1/2+z
1/2-x,-y,1/2+z
1/2+x,1/2-y,-z
-x,1/2+y,1/2-z
loop_
_atom_site_type_symbol
_atom_site_label
_atom_site_fract_x
_atom_site_fract_y
_atom_site_fract_z
Si Si1 0.011376 0.661441 0.091092
Si Si2 0.250000 0.581319 0.000000
Si Si3 0.167291 0.472739 0.907199
Si Si4 0.328620 0.689064 0.713147
Si Si5 0.029025 0.831269 0.622107
Si Si6 0.072981 0.931213 0.336161
Si Si7 0.131369 0.317731 0.676447
Si Si8 0.325544 0.933463 0.158752
O O1 0.081303 0.630425 0.033735
O O2 0.207539 0.648752 0.133114
O O3 0.000000 0.750000 0.089228
O O4 0.806352 0.616974 0.115797
O O5 0.344735 0.525862 0.043088
O O6 0.075349 0.391752 0.916204
O O7 0.404931 0.458082 0.882083
O O8 0.008038 0.513574 0.866338
O O9 0.500000 0.750000 0.693871
O O10 0.122813 0.678650 0.674616
O O11 0.447426 0.611558 0.709616
O O12 0.259295 0.709012 0.772262
O O13 0.000000 0.750000 0.598173
O O14 0.253947 0.871368 0.640158
O O15 0.170930 0.006923 0.315811
O O16 0.000000 0.250000 0.652102
O O17 0.954278 0.376797 0.694940
#
# Coordination Sequence:
#
# PCOD9334601 Si02
#       8
#     8   4   8   8   8   8   8   8
#     4  12  26  45  69  99 132 178 228 301 349 412
#     4  12  24  46  70  96 130 172 242 280 352 418
#     4  10  23  41  68  98 132 176 221 290 347 414
#     4  11  23  39  68 103 135 180 234 275 333 420
#     4  10  20  40  69 100 134 179 224 274 341 418
#     4  10  21  43  68 100 137 175 226 278 352 402
#     4  12  25  42  67  96 139 182 228 278 350 413
#     4  11  22  45  67  92 137 177 222 283 357 407
#
# _framework density 21.219918
#
# number of rings (size 3 to 8) (size 9 to 14) (size 15 to 20)
#    0.000    1.067    5.333    0.800    0.000    2.133 
#    0.000   16.000    2.933    0.000    0.000    0.000 
#    0.000    0.000    0.000    0.000    0.000    0.000 
#
# Total GULP energy -167255.695503 kJ/mol
# GULP energy per Si atom -5575.189850 kJ/mol
# Density = 2.117162 g / cm^3
# Si number density = 21.219918 Si / 1000 Ang^3
#
#
#
# Elastic Constant Matrix: (Units=GPa)
#
#
# Indices 1 2 3 4 5 6 
#
# 1 94.3206 50.7853 16.9239 0.0000 0.0000 0.0000
# 2 50.7853 165.2310 8.5332 0.0000 0.0000 0.0000
# 3 16.9239 8.5332 40.0126 0.0000 0.0000 0.0000
# 4 0.0000 0.0000 0.0000 26.6455 0.0000 0.0000
# 5 0.0000 0.0000 0.0000 0.0000 17.3236 0.0000
# 6 0.0000 0.0000 0.0000 0.0000 0.0000 62.6581
#
#
#
# Elastic Compliance Matrix: (Units=1/GPa)
#
#
# Indices 1 2 3 4 5 6 
#
# 1 0.013598 -0.003926 -0.004914 0.000000 0.000000 0.000000
# 2 -0.003926 0.007253 0.000114 0.000000 0.000000 0.000000
# 3 -0.004914 0.000114 0.027046 0.000000 0.000000 0.000000
# 4 0.000000 0.000000 0.000000 0.037530 0.000000 0.000000
# 5 0.000000 0.000000 0.000000 0.000000 0.057725 0.000000
# 6 0.000000 0.000000 0.000000 0.000000 0.000000 0.015960
#
#
# Mechanical properties :
#
#
# Convention : Reuss Voigt Hill
#
# Bulk Modulus (GPa) = 32.84647 50.22766 41.53707
# Shear Modulus (GPa) = 26.77934 36.21357 31.49646
#
# Velocity S-wave (km/s) = 3.55631 4.13556 3.85682
# Velocity P-wave (km/s) = 5.68997 6.82094 6.28097
#
# Compressibility (1/GPa) = 0.03044467
#
# Stress axis : x y z
#
# Youngs Moduli (GPa) = 73.54289 137.87748 36.97354
#
# Poissons Ratio (x) = 0.54124 0.18169
# Poissons Ratio (y) = 0.28870 -0.00420
# Poissons Ratio (z) = 0.36140 -0.01566
#
# Static dielectric constant tensor:
#      x y z
#    x 1.842240 0.000000 0.000000 
#    y 0.000000 1.811720 0.000000 
#    z 0.000000 0.000000 1.725370 
# 
# From -- ./inp_files/36583.got.cif
#   From: 2010.05.17/outbox.cif.g08.bks.cpg/sg24_19_cif.got.tgz:36583.got - 2010.06.04 00:33:39.
