data_PCOD9334900
_publ_section_title
;
Structure prediction by ZEFSAII (Michael W. Deem and Ramdas Pophale) SiO2 
 PCOD9334900
Probable space group: I 21 21 21
;
_chemical_formula_sum "Si O2"
_cell_formula_units_Z 32
_cell_length_a 35.530210
_cell_length_b 4.806141
_cell_length_c 8.347026
_cell_angle_alpha 90.000000
_cell_angle_beta 90.000000
_cell_angle_gamma 90.000000
_cell_volume 1425.364862
_symmetry_space_group_name_H-M "I 21 21 21"
_symmetry_group_IT_number 24
_symmetry_cell_setting 'orthorhombic'
loop_
_space_group_symop_operation_xyz
x,y,z
-x,1/2-y,z
x,-y,1/2-z
1/2-x,y,-z
1/2+x,1/2+y,1/2+z
1/2-x,-y,1/2+z
1/2+x,1/2-y,-z
-x,1/2+y,1/2-z
loop_
_atom_site_type_symbol
_atom_site_label
_atom_site_fract_x
_atom_site_fract_y
_atom_site_fract_z
Si Si1 0.038694 0.241027 0.633222
Si Si2 0.604253 0.545252 0.567975
Si Si3 0.776811 0.767230 0.856523
Si Si4 0.156242 0.446526 0.434655
O O1 0.049894 0.500000 0.750000
O O2 0.073584 0.099075 0.543784
O O3 0.000000 0.250000 0.526641
O O4 0.025035 0.000000 0.750000
O O5 0.590588 0.500000 0.750000
O O6 0.619595 0.855581 0.535467
O O7 0.642090 0.368157 0.556218
O O8 0.787775 0.500000 0.750000
O O9 0.756102 0.000000 0.750000
O O10 0.750000 0.668308 0.000000
O O11 0.810747 0.946014 0.936581
O O12 0.167310 0.500000 0.250000
#
# Coordination Sequence:
#
# PCOD9334900 Si02
#       4
#     8   8   8   8
#     4  10  21  38  60  89 128 171 214 265 322 379
#     4  10  21  39  63  92 125 166 213 263 319 378
#     4  12  26  44  68  98 131 170 215 263 322 383
#     4  10  22  41  65  93 129 167 210 265 321 378
#
# _framework density 22.450392000000001
#
# number of rings (size 3 to 8) (size 9 to 14) (size 15 to 20)
#    0.000    1.500    0.000    4.500    0.000    7.000 
#    0.000    7.500    0.000    0.000    0.000    0.000 
#    0.000    0.000    0.000    0.000    0.000    0.000 
#
# Total GULP energy -89095.733291 kJ/mol
# GULP energy per Si atom -5568.483331 kJ/mol
# Density = 2.239929 g / cm^3
# Si number density = 22.450392 Si / 1000 Ang^3
#
#
#
# Elastic Constant Matrix: (Units=GPa)
#
#
# Indices 1 2 3 4 5 6 
#
# 1 81.6355 6.7429 54.5959 0.0000 0.0000 0.0000
# 2 6.7429 106.0109 27.9586 0.0000 0.0000 0.0000
# 3 54.5959 27.9586 91.2875 0.0000 0.0000 0.0000
# 4 0.0000 0.0000 0.0000 35.6717 0.0000 0.0000
# 5 0.0000 0.0000 0.0000 0.0000 -7.4402 0.0000
# 6 0.0000 0.0000 0.0000 0.0000 0.0000 13.8359
#
#
#
# Elastic Compliance Matrix: (Units=1/GPa)
#
#
# Indices 1 2 3 4 5 6 
#
# 1 0.020850 0.002135 -0.013123 0.000000 0.000000 0.000000
# 2 0.002135 0.010480 -0.004487 0.000000 0.000000 0.000000
# 3 -0.013123 -0.004487 0.020177 0.000000 0.000000 0.000000
# 4 0.000000 0.000000 0.000000 0.028033 0.000000 0.000000
# 5 0.000000 0.000000 0.000000 0.000000 -0.134406 0.000000
# 6 0.000000 0.000000 0.000000 0.000000 0.000000 0.072276
#
#
# Mechanical properties :
#
#
# Convention : Reuss Voigt Hill
#
# Bulk Modulus (GPa) = 48.64486 50.83654 49.74070
# Shear Modulus (GPa) = 90.55740 21.05593 55.80667
#
# Velocity S-wave (km/s) = 6.35801 3.06582 4.99117
# Velocity P-wave (km/s) = 8.69562 5.93510 7.44443
#
# Compressibility (1/GPa) = 0.02055716
#
# Stress axis : x y z
#
# Youngs Moduli (GPa) = 47.96184 95.41547 49.56082
#
# Poissons Ratio (x) = -0.20370 0.65041
# Poissons Ratio (y) = -0.10239 0.22236
# Poissons Ratio (z) = 0.62943 0.42810
#
# Static dielectric constant tensor:
#      x y z
#    x 1.909710 0.000000 0.000000 
#    y 0.000000 1.861200 0.000000 
#    z 0.000000 0.000000 1.947770 
# 
# From -- ./inp_files/16633.got.cif
#   From: 2010.05.17/outbox.cif.g08.bks.cpg/sg24_9_cif.got.tgz:16633.got - 2010.06.04 00:33:39.
