data_PCOD9334725
_publ_section_title
;
Structure prediction by ZEFSAII (Michael W. Deem and Ramdas Pophale) SiO2 
 PCOD9334725
Probable space group: I 21 21 21
;
_chemical_formula_sum "Si O2"
_cell_formula_units_Z 48
_cell_length_a 26.306357
_cell_length_b 20.083449
_cell_length_c 5.121547
_cell_angle_alpha 90.000000
_cell_angle_beta 90.000000
_cell_angle_gamma 90.000000
_cell_volume 2705.827896
_symmetry_space_group_name_H-M "I 21 21 21"
_symmetry_group_IT_number 24
_symmetry_cell_setting 'orthorhombic'
loop_
_space_group_symop_operation_xyz
x,y,z
-x,1/2-y,z
x,-y,1/2-z
1/2-x,y,-z
1/2+x,1/2+y,1/2+z
1/2-x,-y,1/2+z
1/2+x,1/2-y,-z
-x,1/2+y,1/2-z
loop_
_atom_site_type_symbol
_atom_site_label
_atom_site_fract_x
_atom_site_fract_y
_atom_site_fract_z
Si Si1 0.546262 0.803328 0.254585
Si Si2 0.519787 0.428497 0.135479
Si Si3 0.299416 0.922923 0.821473
Si Si4 0.084044 0.105562 0.368587
Si Si5 0.397143 0.259720 0.742884
Si Si6 0.216998 0.223108 0.236010
O O1 0.500000 0.750000 0.249560
O O2 0.524435 0.873769 0.352619
O O3 0.586618 0.779020 0.467332
O O4 0.572713 0.803080 0.971469
O O5 0.503165 0.500000 0.250000
O O6 0.559176 0.403387 0.352135
O O7 0.550141 0.428395 0.860184
O O8 0.358411 0.920352 0.903313
O O9 0.296774 0.854163 0.654382
O O10 0.292492 0.000000 0.750000
O O11 0.250000 0.912483 0.000000
O O12 0.085676 0.183535 0.302666
O O13 0.336413 0.259288 0.715691
O O14 0.250000 0.224571 0.500000
O O15 0.250000 0.251528 0.000000
#
# Coordination Sequence:
#
# PCOD9334725 Si02
#       6
#     8   8   8   8   8   8
#     4  12  21  37  59  80 110 142 187 227 267 325
#     4  12  24  37  55  80 111 142 180 225 275 322
#     4  10  21  33  49  69 100 141 188 227 269 308
#     4  11  22  38  54  75 105 145 188 231 270 315
#     4  11  21  36  59  83 104 145 188 224 266 323
#     4  10  21  36  53  76 108 137 173 227 272 310
#
# _framework density 17.739485999999999
#
# number of rings (size 3 to 8) (size 9 to 14) (size 15 to 20)
#    0.000    1.000    3.333    4.500    0.000    8.667 
#    0.000    0.000    0.000    0.000    0.000    0.000 
#    0.000   13.333    0.000    0.000    0.000    0.000 
#
# Total GULP energy -133769.866300 kJ/mol
# GULP energy per Si atom -5573.744429 kJ/mol
# Density = 1.769911 g / cm^3
# Si number density = 17.739486 Si / 1000 Ang^3
#
#
#
# Elastic Constant Matrix: (Units=GPa)
#
#
# Indices 1 2 3 4 5 6 
#
# 1 90.0750 23.0931 16.6441 0.0000 0.0000 0.0000
# 2 23.0931 50.9308 -13.8663 0.0000 0.0000 0.0000
# 3 16.6441 -13.8663 65.2282 0.0000 0.0000 0.0000
# 4 0.0000 0.0000 0.0000 18.0121 0.0000 0.0000
# 5 0.0000 0.0000 0.0000 0.0000 15.1170 0.0000
# 6 0.0000 0.0000 0.0000 0.0000 0.0000 -35.6714
#
#
#
# Elastic Compliance Matrix: (Units=1/GPa)
#
#
# Indices 1 2 3 4 5 6 
#
# 1 0.014075 -0.007812 -0.005252 0.000000 0.000000 0.000000
# 2 -0.007812 0.025176 0.007345 0.000000 0.000000 0.000000
# 3 -0.005252 0.007345 0.018232 0.000000 0.000000 0.000000
# 4 0.000000 0.000000 0.000000 0.055518 0.000000 0.000000
# 5 0.000000 0.000000 0.000000 0.000000 0.066151 0.000000
# 6 0.000000 0.000000 0.000000 0.000000 0.000000 -0.028034
#
#
# Mechanical properties :
#
#
# Convention : Reuss Voigt Hill
#
# Bulk Modulus (GPa) = 21.71714 28.66397 25.19056
# Shear Modulus (GPa) = 28.10479 11.51574 19.81027
#
# Velocity S-wave (km/s) = 3.98465 2.55062 3.34538
# Velocity P-wave (km/s) = 5.78263 4.98674 5.39937
#
# Compressibility (1/GPa) = 0.04604657
#
# Stress axis : x y z
#
# Youngs Moduli (GPa) = 71.04722 39.71972 54.84725
#
# Poissons Ratio (x) = 0.31029 0.28807
# Poissons Ratio (y) = 0.55501 -0.40287
# Poissons Ratio (z) = 0.37315 -0.29176
#
# Static dielectric constant tensor:
#      x y z
#    x 1.495390 0.000000 0.000000 
#    y 0.000000 1.657050 0.000000 
#    z 0.000000 0.000000 1.630000 
# 
# From -- ./inp_files/5623.got.cif
#   From: 2010.05.17/outbox.cif.g08.bks.cpg/sg24_3_cif.got.tgz:5623.got - 2010.06.04 00:33:39.
