data_PCOD9334312
_publ_section_title
;
Structure prediction by ZEFSAII (Michael W. Deem and Ramdas Pophale) SiO2 
 PCOD9334312
Probable space group: I 21 21 21
;
_chemical_formula_sum "Si O2"
_cell_formula_units_Z 64
_cell_length_a 12.640940
_cell_length_b 29.918818
_cell_length_c 7.524317
_cell_angle_alpha 90.000000
_cell_angle_beta 90.000000
_cell_angle_gamma 90.000000
_cell_volume 2845.711612
_symmetry_space_group_name_H-M "I 21 21 21"
_symmetry_group_IT_number 24
_symmetry_cell_setting 'orthorhombic'
loop_
_space_group_symop_operation_xyz
x,y,z
-x,1/2-y,z
x,-y,1/2-z
1/2-x,y,-z
1/2+x,1/2+y,1/2+z
1/2-x,-y,1/2+z
1/2+x,1/2-y,-z
-x,1/2+y,1/2-z
loop_
_atom_site_type_symbol
_atom_site_label
_atom_site_fract_x
_atom_site_fract_y
_atom_site_fract_z
Si Si1 0.439474 0.551137 0.743416
Si Si2 0.849270 0.458092 0.382483
Si Si3 0.229289 0.201860 0.287716
Si Si4 0.513541 0.897858 0.400414
Si Si5 0.729272 0.893711 0.212055
Si Si6 0.998731 0.301500 0.106739
Si Si7 0.278614 0.702037 0.791158
Si Si8 0.709290 0.390968 0.191595
O O1 0.404605 0.500000 0.750000
O O2 0.526144 0.555235 0.902394
O O3 0.497821 0.568505 0.566450
O O4 0.333155 0.580120 0.730067
O O5 0.862107 0.500000 0.250000
O O6 0.750000 0.475348 0.500000
O O7 0.795587 0.412020 0.318543
O O8 0.250000 0.199841 0.500000
O O9 0.262281 0.250782 0.220908
O O10 0.293494 0.162115 0.202936
O O11 0.108632 0.194734 0.223230
O O12 0.618197 0.909990 0.288904
O O13 0.509733 0.846336 0.482105
O O14 0.409881 0.906025 0.281306
O O15 0.730132 0.842929 0.282079
O O16 0.750000 0.892891 0.000000
O O17 0.097694 0.301322 0.243869
O O18 0.000000 0.250000 0.027665
O O19 0.250000 0.702802 0.000000
O O20 0.750000 0.404674 0.000000
#
# Coordination Sequence:
#
# PCOD9334312 Si02
#       8
#     8   8   8   8   8   8   8   8
#     4  11  25  46  71 100 137 182 232 286 355 422
#     4  11  25  44  73 102 137 177 220 281 354 428
#     4  10  21  38  63  97 137 183 226 287 345 414
#     4  12  25  44  68  98 140 183 226 295 351 417
#     4  11  26  45  68  98 133 183 241 289 345 417
#     4  10  20  37  65  99 136 185 234 288 355 422
#     4   9  20  39  62  91 136 181 231 280 339 414
#     4  12  23  41  65 101 138 170 227 283 347 422
#
# _framework density 22.489979999999999
#
# number of rings (size 3 to 8) (size 9 to 14) (size 15 to 20)
#    0.000    1.250    3.750    1.125    3.500    4.000 
#    0.000    1.875    0.000    0.000    0.000    0.000 
#    0.000    0.000    0.000    0.000    0.000    0.000 
#
# Total GULP energy -178205.730372 kJ/mol
# GULP energy per Si atom -5568.929074 kJ/mol
# Density = 2.243879 g / cm^3
# Si number density = 22.489980 Si / 1000 Ang^3
#
#
#
# Elastic Constant Matrix: (Units=GPa)
#
#
# Indices 1 2 3 4 5 6 
#
# 1 140.4368 11.4288 19.8064 -0.0113 0.0061 -0.0034
# 2 11.4288 93.8400 0.3125 -0.0028 0.0025 -0.0003
# 3 19.8064 0.3125 45.0126 -0.0419 0.0265 -0.0226
# 4 -0.0113 -0.0028 -0.0419 -8.2760 0.0103 -0.0032
# 5 0.0061 0.0025 0.0265 0.0103 25.4271 0.0049
# 6 -0.0034 -0.0003 -0.0226 -0.0032 0.0049 -31.7947
#
#
#
# Elastic Compliance Matrix: (Units=1/GPa)
#
#
# Indices 1 2 3 4 5 6 
#
# 1 0.007671 -0.000923 -0.003369 0.000007 0.000002 0.000002
# 2 -0.000923 0.010768 0.000331 -0.000004 -0.000001 0.000000
# 3 -0.003369 0.000331 0.023696 -0.000115 -0.000024 -0.000016
# 4 0.000007 -0.000004 -0.000115 -0.120831 0.000049 0.000012
# 5 0.000002 -0.000001 -0.000024 0.000049 0.039328 0.000006
# 6 0.000002 0.000000 -0.000016 0.000012 0.000006 -0.031452
#
#
# Mechanical properties :
#
#
# Convention : Reuss Voigt Hill
#
# Bulk Modulus (GPa) = 29.22820 38.04274 33.63547
# Shear Modulus (GPa) = -97.09786 13.58741 -41.75523
#
# Velocity S-wave (km/s) = -6.57781 2.46062 -4.31352
# Velocity P-wave (km/s) = 6.68325 5.00250 3.13375
#
# Compressibility (1/GPa) = 0.03421353
#
# Stress axis : x y z
#
# Youngs Moduli (GPa) = 130.36294 92.86992 42.20122
#
# Poissons Ratio (x) = 0.08572 0.14217
# Poissons Ratio (y) = 0.12033 -0.01398
# Poissons Ratio (z) = 0.43918 -0.03078
#
# Static dielectric constant tensor:
#      x y z
#    x 1.900120 0.000000 -0.000010 
#    y 0.000000 1.855770 0.000000 
#    z -0.000010 0.000000 1.922630 
# 
# From -- ./inp_files/11652.got.cif
#   From: 2010.05.17/outbox.cif.g08.bks.cpg/sg24_6_cif.got.tgz:11652.got - 2010.06.04 00:33:39.
