data_PCOD9334369
_publ_section_title
;
Structure prediction by ZEFSAII (Michael W. Deem and Ramdas Pophale) SiO2 
 PCOD9334369
Probable space group: I 21 21 21
;
_chemical_formula_sum "Si O2"
_cell_formula_units_Z 64
_cell_length_a 18.795441
_cell_length_b 19.630518
_cell_length_c 9.196504
_cell_angle_alpha 90.000000
_cell_angle_beta 90.000000
_cell_angle_gamma 90.000000
_cell_volume 3393.181135
_symmetry_space_group_name_H-M "I 21 21 21"
_symmetry_group_IT_number 24
_symmetry_cell_setting 'orthorhombic'
loop_
_space_group_symop_operation_xyz
x,y,z
-x,1/2-y,z
x,-y,1/2-z
1/2-x,y,-z
1/2+x,1/2+y,1/2+z
1/2-x,-y,1/2+z
1/2+x,1/2-y,-z
-x,1/2+y,1/2-z
loop_
_atom_site_type_symbol
_atom_site_label
_atom_site_fract_x
_atom_site_fract_y
_atom_site_fract_z
Si Si1 0.289106 0.342301 0.654259
Si Si2 0.070887 0.079171 0.795842
Si Si3 0.954615 0.685795 0.958820
Si Si4 0.801272 0.053371 0.120607
Si Si5 0.237917 0.073272 0.828843
Si Si6 0.195235 0.185740 0.372664
Si Si7 0.552585 0.095810 0.637543
Si Si8 0.043579 0.446160 0.039256
O O1 0.250000 0.352808 0.500000
O O2 0.262560 0.385369 0.793463
O O3 0.288062 0.261781 0.684594
O O4 0.368601 0.372723 0.639160
O O5 0.050698 0.130803 0.668727
O O6 0.154526 0.093980 0.821083
O O7 0.067672 0.000000 0.750000
O O8 0.013607 0.083302 0.927316
O O9 0.000000 0.750000 0.903275
O O10 0.879090 0.694200 0.039875
O O11 0.003380 0.654590 0.082273
O O12 0.873050 0.075189 0.036258
O O13 0.820100 0.000000 0.250000
O O14 0.750000 0.021946 0.000000
O O15 0.289997 0.128597 0.750748
O O16 0.247048 0.000000 0.750000
O O17 0.250000 0.065459 0.000000
O O18 0.250000 0.166737 0.500000
O O19 0.525602 0.074615 0.796331
O O20 0.546731 0.028649 0.537060
#
# Coordination Sequence:
#
# PCOD9334369 Si02
#       8
#     8   8   8   8   8   8   8   8
#     4  10  21  39  63  91 127 175 219 263 324 399
#     4  11  24  42  64  96 132 167 218 278 334 396
#     4  12  24  42  67  98 130 171 221 269 332 403
#     4  11  22  37  60  95 131 168 224 274 324 394
#     4  11  26  44  67  99 130 169 223 279 339 401
#     4  11  23  44  67  89 131 170 212 271 331 401
#     4  10  20  38  62  93 125 163 219 260 322 393
#     4  10  21  39  61  90 129 165 209 273 322 389
#
# _framework density 18.861357000000002
#
# number of rings (size 3 to 8) (size 9 to 14) (size 15 to 20)
#    0.000    1.250    6.250    0.750    3.500    2.000 
#    0.000    3.125    0.000    0.000    0.000    0.000 
#    0.000    0.000    0.000    0.000    0.000    0.000 
#
# Total GULP energy -178219.726747 kJ/mol
# GULP energy per Si atom -5569.366461 kJ/mol
# Density = 1.881843 g / cm^3
# Si number density = 18.861357 Si / 1000 Ang^3
#
#
#
# Elastic Constant Matrix: (Units=GPa)
#
#
# Indices 1 2 3 4 5 6 
#
# 1 80.1205 19.1914 44.3919 0.0000 0.0000 0.0000
# 2 19.1914 93.0510 40.1072 0.0000 0.0000 0.0000
# 3 44.3919 40.1072 82.4230 0.0000 0.0000 0.0000
# 4 0.0000 0.0000 0.0000 31.6207 0.0000 0.0000
# 5 0.0000 0.0000 0.0000 0.0000 27.1041 0.0000
# 6 0.0000 0.0000 0.0000 0.0000 0.0000 24.1395
#
#
#
# Elastic Compliance Matrix: (Units=1/GPa)
#
#
# Indices 1 2 3 4 5 6 
#
# 1 0.017815 0.000584 -0.009879 0.000000 0.000000 0.000000
# 2 0.000584 0.013618 -0.006941 0.000000 0.000000 0.000000
# 3 -0.009879 -0.006941 0.020831 0.000000 0.000000 0.000000
# 4 0.000000 0.000000 0.000000 0.031625 0.000000 0.000000
# 5 0.000000 0.000000 0.000000 0.000000 0.036895 0.000000
# 6 0.000000 0.000000 0.000000 0.000000 0.000000 0.041426
#
#
# Mechanical properties :
#
#
# Convention : Reuss Voigt Hill
#
# Bulk Modulus (GPa) = 50.52696 51.44173 50.98435
# Shear Modulus (GPa) = 24.84115 26.69980 25.77047
#
# Velocity S-wave (km/s) = 3.63304 3.76650 3.70037
# Velocity P-wave (km/s) = 6.66674 6.80060 6.73400
#
# Compressibility (1/GPa) = 0.01979141
#
# Stress axis : x y z
#
# Youngs Moduli (GPa) = 56.13265 73.43139 48.00591
#
# Poissons Ratio (x) = -0.04287 0.47425
# Poissons Ratio (y) = -0.03277 0.33321
# Poissons Ratio (z) = 0.55453 0.50969
#
# Static dielectric constant tensor:
#      x y z
#    x 1.746130 0.000000 0.000000 
#    y 0.000000 1.682010 0.000000 
#    z 0.000000 0.000000 1.666510 
# 
# From -- ./inp_files/14594.got.cif
#   From: 2010.05.17/outbox.cif.g08.bks.cpg/sg24_8_cif.got.tgz:14594.got - 2010.06.04 00:33:39.
