data_PCOD9334563
_publ_section_title
;
Structure prediction by ZEFSAII (Michael W. Deem and Ramdas Pophale) SiO2 
 PCOD9334563
Probable space group: I 21 21 21
;
_chemical_formula_sum "Si O2"
_cell_formula_units_Z 40
_cell_length_a 22.719486
_cell_length_b 7.890660
_cell_length_c 11.182187
_cell_angle_alpha 90.000000
_cell_angle_beta 90.000000
_cell_angle_gamma 90.000000
_cell_volume 2004.650114
_symmetry_space_group_name_H-M "I 21 21 21"
_symmetry_group_IT_number 24
_symmetry_cell_setting 'orthorhombic'
loop_
_space_group_symop_operation_xyz
x,y,z
-x,1/2-y,z
x,-y,1/2-z
1/2-x,y,-z
1/2+x,1/2+y,1/2+z
1/2-x,-y,1/2+z
1/2+x,1/2-y,-z
-x,1/2+y,1/2-z
loop_
_atom_site_type_symbol
_atom_site_label
_atom_site_fract_x
_atom_site_fract_y
_atom_site_fract_z
Si Si1 0.750000 0.360681 0.500000
Si Si2 0.229250 0.699933 0.745316
Si Si3 0.545340 0.617993 0.506040
Si Si4 0.500000 0.750000 0.058244
Si Si5 0.169260 0.902579 0.375566
Si Si6 0.907129 0.793675 0.736345
O O1 0.744397 0.259947 0.378447
O O2 0.806247 0.477617 0.479865
O O3 0.231029 0.500000 0.750000
O O4 0.278402 0.769276 0.653468
O O5 0.161690 0.754186 0.723627
O O6 0.500000 0.750000 0.559934
O O7 0.513777 0.431462 0.506163
O O8 0.604863 0.641239 0.580898
O O9 0.561062 0.694272 0.372994
O O10 0.557489 0.749595 0.143786
O O11 0.164078 0.000000 0.250000
O O12 0.909052 0.000000 0.750000
#
# Coordination Sequence:
#
# PCOD9334563 Si02
#       6
#     4   8   8   4   8   8
#     4  10  20  40  64  92 126 176 212 266 342 382
#     4  10  23  39  67 101 133 175 227 282 338 416
#     4  12  24  42  65  94 133 180 220 281 343 396
#     4  12  22  40  64 100 134 174 226 274 336 414
#     4  10  23  45  64  93 132 177 226 274 335 412
#     4  11  20  37  63  98 137 168 217 278 340 404
#
# _framework density 19.953607000000002
#
# number of rings (size 3 to 8) (size 9 to 14) (size 15 to 20)
#    0.000    1.200    3.000    3.000    0.000    7.200 
#    9.000    0.000    0.000    0.000    0.000    0.000 
#    0.000    0.000    0.000    0.000    0.000    0.000 
#
# Total GULP energy -111369.114590 kJ/mol
# GULP energy per Si atom -5568.455730 kJ/mol
# Density = 1.990819 g / cm^3
# Si number density = 19.953607 Si / 1000 Ang^3
#
#
#
# Elastic Constant Matrix: (Units=GPa)
#
#
# Indices 1 2 3 4 5 6 
#
# 1 175.2514 67.1888 26.5267 0.0000 0.0000 0.0000
# 2 67.1888 102.7091 32.1051 0.0000 0.0000 0.0000
# 3 26.5267 32.1051 40.5276 0.0000 0.0000 0.0000
# 4 0.0000 0.0000 0.0000 -1.8947 0.0000 0.0000
# 5 0.0000 0.0000 0.0000 0.0000 24.5409 0.0000
# 6 0.0000 0.0000 0.0000 0.0000 0.0000 39.3920
#
#
#
# Elastic Compliance Matrix: (Units=1/GPa)
#
#
# Indices 1 2 3 4 5 6 
#
# 1 0.007675 -0.004586 -0.001391 0.000000 0.000000 0.000000
# 2 -0.004586 0.015681 -0.009420 0.000000 0.000000 0.000000
# 3 -0.001391 -0.009420 0.033047 0.000000 0.000000 0.000000
# 4 0.000000 0.000000 0.000000 -0.527798 0.000000 0.000000
# 5 0.000000 0.000000 0.000000 0.000000 0.040748 0.000000
# 6 0.000000 0.000000 0.000000 0.000000 0.000000 0.025386
#
#
# Mechanical properties :
#
#
# Convention : Reuss Voigt Hill
#
# Bulk Modulus (GPa) = 39.04836 63.34770 51.19803
# Shear Modulus (GPa) = -13.66379 25.25213 5.79417
#
# Velocity S-wave (km/s) = -2.61967 3.56131 1.70591
# Velocity P-wave (km/s) = 3.23448 6.98047 5.44007
#
# Compressibility (1/GPa) = 0.02560927
#
# Stress axis : x y z
#
# Youngs Moduli (GPa) = 130.29779 63.77211 30.25957
#
# Poissons Ratio (x) = 0.29245 0.04208
# Poissons Ratio (y) = 0.59753 0.28506
# Poissons Ratio (z) = 0.18118 0.60076
#
# Static dielectric constant tensor:
#      x y z
#    x 2.903340 0.000000 0.000000 
#    y 0.000000 1.775460 0.000000 
#    z 0.000000 0.000000 1.708500 
# 
# From -- ./inp_files/11076.got.cif
#   From: 2010.05.17/outbox.cif.g08.bks.cpg/sg24_6_cif.got.tgz:11076.got - 2010.06.04 00:33:39.
