data_PCOD9334779
_publ_section_title
;
Structure prediction by ZEFSAII (Michael W. Deem and Ramdas Pophale) SiO2 
 PCOD9334779
Probable space group: I 21 21 21
;
_chemical_formula_sum "Si O2"
_cell_formula_units_Z 56
_cell_length_a 21.244350
_cell_length_b 26.499130
_cell_length_c 5.135072
_cell_angle_alpha 90.000000
_cell_angle_beta 90.000000
_cell_angle_gamma 90.000000
_cell_volume 2890.823662
_symmetry_space_group_name_H-M "I 21 21 21"
_symmetry_group_IT_number 24
_symmetry_cell_setting 'orthorhombic'
loop_
_space_group_symop_operation_xyz
x,y,z
-x,1/2-y,z
x,-y,1/2-z
1/2-x,y,-z
1/2+x,1/2+y,1/2+z
1/2-x,-y,1/2+z
1/2+x,1/2-y,-z
-x,1/2+y,1/2-z
loop_
_atom_site_type_symbol
_atom_site_label
_atom_site_fract_x
_atom_site_fract_y
_atom_site_fract_z
Si Si1 0.466579 0.965166 0.997211
Si Si2 0.250000 0.032634 0.500000
Si Si3 0.825963 0.210473 0.012923
Si Si4 0.324262 0.173980 0.925304
Si Si5 0.387130 0.549802 0.066294
Si Si6 0.792392 0.000000 0.250000
Si Si7 0.326150 0.650992 0.020683
Si Si8 0.858588 0.388145 0.583190
O O1 0.540199 0.950220 0.990728
O O2 0.423273 0.916193 0.015432
O O3 0.456572 0.000000 0.250000
O O4 0.451721 0.000000 0.750000
O O5 0.193397 0.067669 0.598277
O O6 0.229372 0.000000 0.250000
O O7 0.843974 0.267585 0.079897
O O8 0.846038 0.170364 0.234240
O O9 0.750000 0.209031 0.000000
O O10 0.842637 0.195807 0.719810
O O11 0.336436 0.148325 0.648594
O O12 0.250000 0.171595 0.000000
O O13 0.359669 0.142430 0.148494
O O14 0.378338 0.500000 0.250000
O O15 0.340688 0.543807 0.819644
O O16 0.361034 0.603458 0.155541
O O17 0.750000 0.989943 0.500000
O O18 0.250000 0.641800 0.000000
#
# Coordination Sequence:
#
# PCOD9334779 Si02
#       8
#     8   4   8   8   8   4   8   8
#     4  11  24  43  60  82 122 170 209 236 292 363
#     4  12  22  34  52  86 124 146 186 248 312 342
#     4   9  20  36  58  85 119 154 184 250 308 368
#     4  11  20  38  61  90 119 148 206 251 310 362
#     4  11  25  41  63  88 125 166 207 244 290 367
#     4  12  24  38  60  92 120 152 196 252 296 328
#     4  10  21  36  57  88 118 150 192 239 314 354
#     4  12  22  37  61  88 118 160 202 253 296 362
#
# _framework density 19.371642000000001
#
# number of rings (size 3 to 8) (size 9 to 14) (size 15 to 20)
#    0.000    1.143    2.857    3.857    2.000    2.857 
#    0.000    0.000    0.000    5.143    0.000    0.000 
#    0.000    0.000    0.000    0.000    0.000    0.000 
#
# Total GULP energy -156261.390759 kJ/mol
# GULP energy per Si atom -5580.763956 kJ/mol
# Density = 1.932755 g / cm^3
# Si number density = 19.371642 Si / 1000 Ang^3
#
#
#
# Elastic Constant Matrix: (Units=GPa)
#
#
# Indices 1 2 3 4 5 6 
#
# 1 70.5855 16.5933 -2.7642 0.0000 0.0000 0.0000
# 2 16.5933 91.6444 13.2619 0.0000 0.0000 0.0000
# 3 -2.7642 13.2619 85.6035 0.0000 0.0000 0.0000
# 4 0.0000 0.0000 0.0000 27.1113 0.0000 0.0000
# 5 0.0000 0.0000 0.0000 0.0000 -23.0018 0.0000
# 6 0.0000 0.0000 0.0000 0.0000 0.0000 22.3367
#
#
#
# Elastic Compliance Matrix: (Units=1/GPa)
#
#
# Indices 1 2 3 4 5 6 
#
# 1 0.014867 -0.002825 0.000918 0.000000 0.000000 0.000000
# 2 -0.002825 0.011699 -0.001904 0.000000 0.000000 0.000000
# 3 0.000918 -0.001904 0.012006 0.000000 0.000000 0.000000
# 4 0.000000 0.000000 0.000000 0.036885 0.000000 0.000000
# 5 0.000000 0.000000 0.000000 0.000000 -0.043475 0.000000
# 6 0.000000 0.000000 0.000000 0.000000 0.000000 0.044769
#
#
# Mechanical properties :
#
#
# Convention : Reuss Voigt Hill
#
# Bulk Modulus (GPa) = 32.30920 33.55729 32.93324
# Shear Modulus (GPa) = 52.80392 20.00539 36.40465
#
# Velocity S-wave (km/s) = 5.22662 3.21707 4.33976
# Velocity P-wave (km/s) = 7.28959 5.58211 6.49223
#
# Compressibility (1/GPa) = 0.03095094
#
# Stress axis : x y z
#
# Youngs Moduli (GPa) = 67.26227 85.47988 83.28960
#
# Poissons Ratio (x) = 0.24145 -0.07643
# Poissons Ratio (y) = 0.18999 0.15855
# Poissons Ratio (z) = -0.06173 0.16272
#
# Static dielectric constant tensor:
#      x y z
#    x 1.669860 0.000000 0.000000 
#    y 0.000000 1.740540 0.000000 
#    z 0.000000 0.000000 1.703670 
# 
# From -- ./inp_files/5811.got.cif
#   From: 2010.05.17/outbox.cif.g08.bks.cpg/sg24_3_cif.got.tgz:5811.got - 2010.06.04 00:33:39.
