data_PCOD9334930
_publ_section_title
;
Structure prediction by ZEFSAII (Michael W. Deem and Ramdas Pophale) SiO2 
 PCOD9334930
Probable space group: I 21 21 21
;
_chemical_formula_sum "Si O2"
_cell_formula_units_Z 64
_cell_length_a 9.534681
_cell_length_b 11.264888
_cell_length_c 31.252666
_cell_angle_alpha 90.000000
_cell_angle_beta 90.000000
_cell_angle_gamma 90.000000
_cell_volume 3356.758647
_symmetry_space_group_name_H-M "I 21 21 21"
_symmetry_group_IT_number 24
_symmetry_cell_setting 'orthorhombic'
loop_
_space_group_symop_operation_xyz
x,y,z
-x,1/2-y,z
x,-y,1/2-z
1/2-x,y,-z
1/2+x,1/2+y,1/2+z
1/2-x,-y,1/2+z
1/2+x,1/2-y,-z
-x,1/2+y,1/2-z
loop_
_atom_site_type_symbol
_atom_site_label
_atom_site_fract_x
_atom_site_fract_y
_atom_site_fract_z
Si Si1 0.210068 0.479955 0.859353
Si Si2 0.341863 0.412551 0.041552
Si Si3 0.340645 0.874389 0.460551
Si Si4 0.063736 0.877366 0.838883
Si Si5 0.666750 0.745619 0.685020
Si Si6 0.980852 0.877492 0.148891
Si Si7 0.802142 0.627671 0.227938
Si Si8 0.210750 0.033310 0.123681
O O1 0.206759 0.455864 0.910985
O O2 0.258904 0.360103 0.835233
O O3 0.321336 0.582626 0.846599
O O4 0.059091 0.525342 0.842953
O O5 0.344902 0.268832 0.039077
O O6 0.508150 0.436908 0.038550
O O7 0.250000 0.452699 0.000000
O O8 0.250000 0.916651 0.500000
O O9 0.256792 0.901914 0.418131
O O10 0.150027 0.867410 0.794528
O O11 0.000000 0.750000 0.849693
O O12 0.186323 0.922435 0.869964
O O13 0.500000 0.750000 0.676116
O O14 0.685039 0.727898 0.735797
O O15 0.724693 0.626590 0.662424
O O16 0.000000 0.750000 0.127463
O O17 0.074570 0.866907 0.192293
O O18 0.054655 0.983318 0.123181
O O19 0.819180 0.500000 0.250000
#
# Coordination Sequence:
#
# PCOD9334930 Si02
#       8
#     8   8   8   8   8   8   8   8
#     4  12  23  41  70  99 130 176 221 271 341 395
#     4  10  22  37  62 102 137 162 206 270 329 409
#     4  10  21  38  63  95 135 167 193 259 345 403
#     4  11  25  43  63  89 129 180 221 266 330 389
#     4  12  23  40  68  99 127 172 220 283 328 391
#     4  11  24  41  64  87 125 180 226 267 315 391
#     4  11  22  44  62  89 133 167 219 278 329 383
#     4  11  21  42  65  90 131 169 214 264 331 391
#
# _framework density 19.066012000000001
#
# number of rings (size 3 to 8) (size 9 to 14) (size 15 to 20)
#    0.000    1.000    6.250    1.875    1.750    1.500 
#    0.000    1.875    0.000    4.500    0.000    0.000 
#    0.000    0.000    0.000    0.000    0.000    0.000 
#
# Total GULP energy -178476.580910 kJ/mol
# GULP energy per Si atom -5577.393153 kJ/mol
# Density = 1.902262 g / cm^3
# Si number density = 19.066012 Si / 1000 Ang^3
#
#
#
# Elastic Constant Matrix: (Units=GPa)
#
#
# Indices 1 2 3 4 5 6 
#
# 1 87.5857 8.3636 51.5263 0.0000 0.0000 0.0000
# 2 8.3636 52.5440 5.2602 0.0000 0.0000 0.0000
# 3 51.5263 5.2602 107.8595 0.0000 0.0000 0.0000
# 4 0.0000 0.0000 0.0000 22.4251 0.0000 0.0000
# 5 0.0000 0.0000 0.0000 0.0000 25.7127 0.0000
# 6 0.0000 0.0000 0.0000 0.0000 0.0000 52.4734
#
#
#
# Elastic Compliance Matrix: (Units=1/GPa)
#
#
# Indices 1 2 3 4 5 6 
#
# 1 0.016047 -0.001796 -0.007578 0.000000 0.000000 0.000000
# 2 -0.001796 0.019326 -0.000085 0.000000 0.000000 0.000000
# 3 -0.007578 -0.000085 0.012896 0.000000 0.000000 0.000000
# 4 0.000000 0.000000 0.000000 0.044593 0.000000 0.000000
# 5 0.000000 0.000000 0.000000 0.000000 0.038891 0.000000
# 6 0.000000 0.000000 0.000000 0.000000 0.000000 0.019057
#
#
# Mechanical properties :
#
#
# Convention : Reuss Voigt Hill
#
# Bulk Modulus (GPa) = 34.06992 42.03217 38.05105
# Shear Modulus (GPa) = 27.85331 32.31151 30.08241
#
# Velocity S-wave (km/s) = 3.82630 4.12116 3.97647
# Velocity P-wave (km/s) = 6.11793 6.68870 6.40967
#
# Compressibility (1/GPa) = 0.02935141
#
# Stress axis : x y z
#
# Youngs Moduli (GPa) = 62.31601 51.74388 77.54450
#
# Poissons Ratio (x) = 0.09291 0.58767
# Poissons Ratio (y) = 0.11190 0.00657
# Poissons Ratio (z) = 0.47226 0.00438
#
# Static dielectric constant tensor:
#      x y z
#    x 1.674690 0.000000 0.000000 
#    y 0.000000 1.669140 0.000000 
#    z 0.000000 0.000000 1.592130 
# 
# From -- ./inp_files/18918.got.cif
#   From: 2010.05.17/outbox.cif.g08.bks.cpg/sg24_10_cif.got.tgz:18918.got - 2010.06.04 00:33:39.
