data_PCOD9334078
_publ_section_title
;
Structure prediction by ZEFSAII (Michael W. Deem and Ramdas Pophale) SiO2 
 PCOD9334078
Probable space group: I 21 21 21
;
_chemical_formula_sum "Si O2"
_cell_formula_units_Z 64
_cell_length_a 9.333348
_cell_length_b 20.649224
_cell_length_c 17.556737
_cell_angle_alpha 90.000000
_cell_angle_beta 90.000000
_cell_angle_gamma 90.000000
_cell_volume 3383.646604
_symmetry_space_group_name_H-M "I 21 21 21"
_symmetry_group_IT_number 24
_symmetry_cell_setting 'orthorhombic'
loop_
_space_group_symop_operation_xyz
x,y,z
-x,1/2-y,z
x,-y,1/2-z
1/2-x,y,-z
1/2+x,1/2+y,1/2+z
1/2-x,-y,1/2+z
1/2+x,1/2-y,-z
-x,1/2+y,1/2-z
loop_
_atom_site_type_symbol
_atom_site_label
_atom_site_fract_x
_atom_site_fract_y
_atom_site_fract_z
Si Si1 0.088638 0.183603 0.033994
Si Si2 0.671138 0.506867 0.330606
Si Si3 0.565470 0.394662 0.812826
Si Si4 0.198450 0.114180 0.414637
Si Si5 0.044984 0.441967 0.954874
Si Si6 0.328500 0.740912 0.921786
Si Si7 0.335344 0.484104 0.890040
Si Si8 0.406943 0.619701 0.842914
O O1 0.090966 0.159076 0.121979
O O2 0.000000 0.250000 0.028048
O O3 0.250000 0.189022 0.000000
O O4 0.004345 0.127090 0.988004
O O5 0.590356 0.500000 0.250000
O O6 0.796099 0.558863 0.312585
O O7 0.736664 0.438889 0.358420
O O8 0.578845 0.531904 0.400908
O O9 0.438527 0.441797 0.838810
O O10 0.505768 0.370596 0.731846
O O11 0.250000 0.100783 0.500000
O O12 0.233480 0.189370 0.396988
O O13 0.027363 0.110688 0.408122
O O14 0.190066 0.445160 0.906109
O O15 0.083581 0.486056 0.028071
O O16 0.500000 0.750000 0.934410
O O17 0.316589 0.683408 0.861136
O O18 0.250000 0.722708 0.000000
O O19 0.316948 0.553762 0.850536
#
# Coordination Sequence:
#
# PCOD9334078 Si02
#       8
#     8   8   8   8   8   8   8   8
#     4  11  25  43  70  97 127 169 217 271 323 391
#     4  12  21  37  62  94 126 159 210 263 318 378
#     4  11  22  39  63  97 127 162 211 265 319 387
#     4  10  20  35  58  86 117 161 205 260 304 358
#     4  10  24  40  62  96 127 158 217 263 319 381
#     4   9  21  38  59  85 120 163 213 263 305 375
#     4  10  21  38  62  91 127 166 206 264 317 381
#     4  11  20  37  63  90 127 163 211 260 320 383
#
# _framework density 18.914504999999998
#
# number of rings (size 3 to 8) (size 9 to 14) (size 15 to 20)
#    0.000    1.500    3.750    1.125    7.000    2.500 
#    0.000    0.000    0.000    0.000    0.000    0.000 
#    0.000    0.000    0.000    0.000    0.000    0.000 
#
# Total GULP energy -178407.339863 kJ/mol
# GULP energy per Si atom -5575.229371 kJ/mol
# Density = 1.887145 g / cm^3
# Si number density = 18.914505 Si / 1000 Ang^3
#
#
#
# Elastic Constant Matrix: (Units=GPa)
#
#
# Indices 1 2 3 4 5 6 
#
# 1 57.4696 44.1551 32.7962 0.0000 0.0000 0.0000
# 2 44.1551 98.3379 63.6444 0.0000 0.0000 0.0000
# 3 32.7962 63.6444 75.1300 0.0000 0.0000 0.0000
# 4 0.0000 0.0000 0.0000 13.4993 0.0000 0.0000
# 5 0.0000 0.0000 0.0000 0.0000 9.7450 0.0000
# 6 0.0000 0.0000 0.0000 0.0000 0.0000 26.3187
#
#
#
# Elastic Compliance Matrix: (Units=1/GPa)
#
#
# Indices 1 2 3 4 5 6 
#
# 1 0.026940 -0.009929 -0.003349 0.000000 0.000000 0.000000
# 2 -0.009929 0.026170 -0.017835 0.000000 0.000000 0.000000
# 3 -0.003349 -0.017835 0.029881 0.000000 0.000000 0.000000
# 4 0.000000 0.000000 0.000000 0.074078 0.000000 0.000000
# 5 0.000000 0.000000 0.000000 0.000000 0.102616 0.000000
# 6 0.000000 0.000000 0.000000 0.000000 0.000000 0.037996
#
#
# Mechanical properties :
#
#
# Convention : Reuss Voigt Hill
#
# Bulk Modulus (GPa) = 48.15816 56.90323 52.53070
# Shear Modulus (GPa) = 13.63030 15.93539 14.78285
#
# Velocity S-wave (km/s) = 2.68736 2.90573 2.79868
# Velocity P-wave (km/s) = 5.92836 6.43486 6.18680
#
# Compressibility (1/GPa) = 0.02076491
#
# Stress axis : x y z
#
# Youngs Moduli (GPa) = 37.11892 38.21132 33.46638
#
# Poissons Ratio (x) = 0.37941 0.11208
# Poissons Ratio (y) = 0.36856 0.59688
# Poissons Ratio (z) = 0.12431 0.68150
#
# Static dielectric constant tensor:
#      x y z
#    x 1.656080 0.000000 0.000000 
#    y 0.000000 1.689170 0.000000 
#    z 0.000000 0.000000 1.705110 
# 
# From -- ./inp_files/29842.got.cif
#   From: 2010.05.17/outbox.cif.g08.bks.cpg/sg24_15_cif.got.tgz:29842.got - 2010.06.04 00:33:39.
