data_PCOD9334396
_publ_section_title
;
Structure prediction by ZEFSAII (Michael W. Deem and Ramdas Pophale) SiO2 
 PCOD9334396
Probable space group: I 21 21 21
;
_chemical_formula_sum "Si O2"
_cell_formula_units_Z 64
_cell_length_a 17.577836
_cell_length_b 20.508176
_cell_length_c 9.769812
_cell_angle_alpha 90.000000
_cell_angle_beta 90.000000
_cell_angle_gamma 90.000000
_cell_volume 3521.913220
_symmetry_space_group_name_H-M "I 21 21 21"
_symmetry_group_IT_number 24
_symmetry_cell_setting 'orthorhombic'
loop_
_space_group_symop_operation_xyz
x,y,z
-x,1/2-y,z
x,-y,1/2-z
1/2-x,y,-z
1/2+x,1/2+y,1/2+z
1/2-x,-y,1/2+z
1/2+x,1/2-y,-z
-x,1/2+y,1/2-z
loop_
_atom_site_type_symbol
_atom_site_label
_atom_site_fract_x
_atom_site_fract_y
_atom_site_fract_z
Si Si1 0.692324 0.309076 0.177059
Si Si2 0.917783 0.128474 0.975229
Si Si3 0.838630 0.147159 0.454286
Si Si4 0.654055 0.228209 0.823004
Si Si5 0.720183 0.437611 0.844855
Si Si6 0.412498 0.849000 0.581373
Si Si7 0.078915 0.288830 0.700099
Si Si8 0.171174 0.502599 0.416763
O O1 0.765293 0.263237 0.154672
O O2 0.728155 0.378845 0.215360
O O3 0.641006 0.267885 0.277899
O O4 0.638279 0.324845 0.048009
O O5 0.917856 0.155162 0.818791
O O6 0.866298 0.181380 0.052611
O O7 0.003496 0.134791 0.032464
O O8 0.884121 0.058481 0.021495
O O9 0.750000 0.153908 0.500000
O O10 0.845170 0.183736 0.310464
O O11 0.897636 0.178144 0.559439
O O12 0.855861 0.070502 0.447612
O O13 0.592821 0.286970 0.818227
O O14 0.724578 0.500000 0.750000
O O15 0.634769 0.409123 0.857232
O O16 0.750000 0.449765 0.000000
O O17 0.000000 0.250000 0.705469
O O18 0.181407 0.500000 0.250000
O O19 0.250000 0.512518 0.500000
#
# Coordination Sequence:
#
# PCOD9334396 Si02
#       8
#     8   8   8   8   8   8   8   8
#     4  10  20  38  64  93 122 160 213 262 305 381
#     4  12  24  38  70  91 127 174 212 264 317 390
#     4  11  25  43  62  92 136 163 210 275 322 376
#     4  11  20  38  67  93 122 167 210 267 320 366
#     4   9  20  40  64  88 125 163 210 264 307 380
#     4  10  21  39  64  99 125 158 220 260 317 386
#     4  12  24  41  66  99 130 163 212 266 327 385
#     4  11  27  45  64  95 127 175 226 265 320 391
#
# _framework density 18.171941
#
# number of rings (size 3 to 8) (size 9 to 14) (size 15 to 20)
#    0.000    1.250    5.000    1.500    5.250    1.500 
#    4.500    2.500    0.000    0.000    0.000    0.000 
#    0.000    0.000    0.000    0.000    0.000    0.000 
#
# Total GULP energy -178446.230159 kJ/mol
# GULP energy per Si atom -5576.444692 kJ/mol
# Density = 1.813058 g / cm^3
# Si number density = 18.171941 Si / 1000 Ang^3
#
#
#
# Elastic Constant Matrix: (Units=GPa)
#
#
# Indices 1 2 3 4 5 6 
#
# 1 83.7037 60.1678 24.4792 0.0000 0.0000 0.0000
# 2 60.1678 136.7420 32.3205 0.0000 0.0000 0.0000
# 3 24.4792 32.3205 45.7439 0.0000 0.0000 0.0000
# 4 0.0000 0.0000 0.0000 30.0122 0.0000 0.0000
# 5 0.0000 0.0000 0.0000 0.0000 21.6516 0.0000
# 6 0.0000 0.0000 0.0000 0.0000 0.0000 10.6754
#
#
#
# Elastic Compliance Matrix: (Units=1/GPa)
#
#
# Indices 1 2 3 4 5 6 
#
# 1 0.018359 -0.006910 -0.004942 0.000000 0.000000 0.000000
# 2 -0.006910 0.011380 -0.004343 0.000000 0.000000 0.000000
# 3 -0.004942 -0.004343 0.027574 0.000000 0.000000 0.000000
# 4 0.000000 0.000000 0.000000 0.033320 0.000000 0.000000
# 5 0.000000 0.000000 0.000000 0.000000 0.046186 0.000000
# 6 0.000000 0.000000 0.000000 0.000000 0.000000 0.093673
#
#
# Mechanical properties :
#
#
# Convention : Reuss Voigt Hill
#
# Bulk Modulus (GPa) = 40.12364 55.56939 47.84652
# Shear Modulus (GPa) = 18.43722 22.41599 20.42661
#
# Velocity S-wave (km/s) = 3.18873 3.51600 3.35636
# Velocity P-wave (km/s) = 5.97372 6.86507 6.43485
#
# Compressibility (1/GPa) = 0.02492296
#
# Stress axis : x y z
#
# Youngs Moduli (GPa) = 54.46785 87.87332 36.26600
#
# Poissons Ratio (x) = 0.60722 0.17924
# Poissons Ratio (y) = 0.37638 0.15749
# Poissons Ratio (z) = 0.26920 0.38161
#
# Static dielectric constant tensor:
#      x y z
#    x 1.641690 0.000000 0.000000 
#    y 0.000000 1.630550 0.000000 
#    z 0.000000 0.000000 1.736100 
# 
# From -- ./inp_files/14611.got.cif
#   From: 2010.05.17/outbox.cif.g08.bks.cpg/sg24_8_cif.got.tgz:14611.got - 2010.06.04 00:33:39.
