data_PCOD9334397
_publ_section_title
;
Structure prediction by ZEFSAII (Michael W. Deem and Ramdas Pophale) SiO2 
 PCOD9334397
Probable space group: I 21 21 21
;
_chemical_formula_sum "Si O2"
_cell_formula_units_Z 60
_cell_length_a 13.549552
_cell_length_b 7.576111
_cell_length_c 25.940267
_cell_angle_alpha 90.000000
_cell_angle_beta 90.000000
_cell_angle_gamma 90.000000
_cell_volume 2662.843892
_symmetry_space_group_name_H-M "I 21 21 21"
_symmetry_group_IT_number 24
_symmetry_cell_setting 'orthorhombic'
loop_
_space_group_symop_operation_xyz
x,y,z
-x,1/2-y,z
x,-y,1/2-z
1/2-x,y,-z
1/2+x,1/2+y,1/2+z
1/2-x,-y,1/2+z
1/2+x,1/2-y,-z
-x,1/2+y,1/2-z
loop_
_atom_site_type_symbol
_atom_site_label
_atom_site_fract_x
_atom_site_fract_y
_atom_site_fract_z
Si Si1 0.596528 0.838785 0.784419
Si Si2 0.301099 0.000000 0.750000
Si Si3 0.512850 0.065802 0.481665
Si Si4 0.165713 0.899054 0.456556
Si Si5 0.779551 0.000906 0.849151
Si Si6 0.820758 0.001600 0.048135
Si Si7 0.788398 0.433001 0.858384
Si Si8 0.487817 0.448500 0.126209
O O1 0.500000 0.750000 0.812823
O O2 0.636938 0.679751 0.749535
O O3 0.558844 0.000000 0.750000
O O4 0.693954 0.921976 0.812523
O O5 0.240539 0.992747 0.802931
O O6 0.500000 0.250000 0.452598
O O7 0.423226 0.987316 0.513331
O O8 0.591498 0.111545 0.525795
O O9 0.543592 0.938634 0.434524
O O10 0.250000 0.894710 0.500000
O O11 0.137668 0.697827 0.441767
O O12 0.212329 0.979529 0.404453
O O13 0.740497 0.934979 0.904237
O O14 0.782521 0.217055 0.852783
O O15 0.896709 0.957954 0.844262
O O16 0.750000 0.018909 0.000000
O O17 0.897503 0.504133 0.872586
O O18 0.500000 0.250000 0.147404
#
# Coordination Sequence:
#
# PCOD9334397 Si02
#       8
#     8   4   8   8   8   8   8   8
#     4  12  26  50  78 103 139 181 240 298 369 430
#     4  12  26  46  74 104 144 186 232 304 358 426
#     4  12  24  35  57  95 143 182 227 284 350 421
#     4  10  20  39  66  91 126 180 235 281 333 424
#     4  10  22  42  73 103 137 178 235 298 354 437
#     4  10  20  38  64  93 131 176 225 278 341 412
#     4  10  22  42  70 104 138 184 238 294 366 426
#     4  10  20  42  69  98 140 187 233 284 356 432
#
# _framework density 22.532301
#
# number of rings (size 3 to 8) (size 9 to 14) (size 15 to 20)
#    0.000    1.333    4.667    1.200    0.000    4.267 
#    1.200    1.333    0.000    0.000    0.000    0.000 
#    0.000    0.000    0.000    0.000    0.000    0.000 
#
# Total GULP energy -167118.602474 kJ/mol
# GULP energy per Si atom -5570.620082 kJ/mol
# Density = 2.248102 g / cm^3
# Si number density = 22.532301 Si / 1000 Ang^3
#
#
#
# Elastic Constant Matrix: (Units=GPa)
#
#
# Indices 1 2 3 4 5 6 
#
# 1 135.1889 20.1750 31.0896 0.0000 0.0000 0.0000
# 2 20.1750 68.7722 1.3915 0.0000 0.0000 0.0000
# 3 31.0896 1.3915 86.5387 0.0000 0.0000 0.0000
# 4 0.0000 0.0000 0.0000 19.6270 0.0000 0.0000
# 5 0.0000 0.0000 0.0000 0.0000 30.6994 0.0000
# 6 0.0000 0.0000 0.0000 0.0000 0.0000 -4.8667
#
#
#
# Elastic Compliance Matrix: (Units=1/GPa)
#
#
# Indices 1 2 3 4 5 6 
#
# 1 0.008447 -0.002417 -0.002996 0.000000 0.000000 0.000000
# 2 -0.002417 0.015237 0.000623 0.000000 0.000000 0.000000
# 3 -0.002996 0.000623 0.012622 0.000000 0.000000 0.000000
# 4 0.000000 0.000000 0.000000 0.050950 0.000000 0.000000
# 5 0.000000 0.000000 0.000000 0.000000 0.032574 0.000000
# 6 0.000000 0.000000 0.000000 0.000000 0.000000 -0.205478
#
#
# Mechanical properties :
#
#
# Convention : Reuss Voigt Hill
#
# Bulk Modulus (GPa) = 37.41589 43.97911 40.69750
# Shear Modulus (GPa) = -74.44839 24.94820 -24.75010
#
# Velocity S-wave (km/s) = -5.75434 3.33110 -3.31785
# Velocity P-wave (km/s) = 5.24485 5.86136 1.85029
#
# Compressibility (1/GPa) = 0.02672661
#
# Stress axis : x y z
#
# Youngs Moduli (GPa) = 118.38908 65.62846 79.22851
#
# Poissons Ratio (x) = 0.15864 0.23734
# Poissons Ratio (y) = 0.28618 -0.04939
# Poissons Ratio (z) = 0.35466 -0.04091
#
# Static dielectric constant tensor:
#      x y z
#    x 1.679230 0.000000 0.000000 
#    y 0.000000 1.912230 0.000000 
#    z 0.000000 0.000000 1.822850 
# 
# From -- ./inp_files/37229.got.cif
#   From: 2010.05.17/outbox.cif.g08.bks.cpg/sg24_19_cif.got.tgz:37229.got - 2010.06.04 00:33:39.
