data_PCOD9334858
_publ_section_title
;
Structure prediction by ZEFSAII (Michael W. Deem and Ramdas Pophale) SiO2 
 PCOD9334858
Probable space group: I 21 21 21
;
_chemical_formula_sum "Si O2"
_cell_formula_units_Z 48
_cell_length_a 23.563432
_cell_length_b 9.889119
_cell_length_c 9.487280
_cell_angle_alpha 90.000000
_cell_angle_beta 90.000000
_cell_angle_gamma 90.000000
_cell_volume 2210.741005
_symmetry_space_group_name_H-M "I 21 21 21"
_symmetry_group_IT_number 24
_symmetry_cell_setting 'orthorhombic'
loop_
_space_group_symop_operation_xyz
x,y,z
-x,1/2-y,z
x,-y,1/2-z
1/2-x,y,-z
1/2+x,1/2+y,1/2+z
1/2-x,-y,1/2+z
1/2+x,1/2-y,-z
-x,1/2+y,1/2-z
loop_
_atom_site_type_symbol
_atom_site_label
_atom_site_fract_x
_atom_site_fract_y
_atom_site_fract_z
Si Si1 0.328124 0.697194 0.258619
Si Si2 0.750000 0.218326 0.000000
Si Si3 0.549797 0.339124 0.730897
Si Si4 0.324245 0.158787 0.753593
Si Si5 0.129898 0.000000 0.750000
Si Si6 0.526394 0.383152 0.412278
Si Si7 0.568191 0.000000 0.250000
Si Si8 0.750000 0.227528 0.500000
O O1 0.293569 0.645168 0.394790
O O2 0.334648 0.861919 0.273776
O O3 0.389122 0.627103 0.254255
O O4 0.292919 0.665076 0.116390
O O5 0.787482 0.300459 0.111774
O O6 0.500000 0.250000 0.798084
O O7 0.542816 0.500000 0.750000
O O8 0.612021 0.286401 0.770040
O O9 0.543764 0.328260 0.563419
O O10 0.292859 0.198026 0.608457
O O11 0.330757 0.000000 0.750000
O O12 0.084498 0.956317 0.867863
O O13 0.500000 0.250000 0.334419
O O14 0.474830 0.487095 0.383148
#
# Coordination Sequence:
#
# PCOD9334858 Si02
#       8
#     8   4   8   8   4   8   4   4
#     4  11  25  40  67  95 129 174 214 279 326 396
#     4  10  25  39  60 100 130 166 218 276 322 386
#     4  10  23  40  63  91 129 169 212 264 330 395
#     4  10  21  37  63  94 131 165 214 265 328 388
#     4  11  22  36  68  94 122 158 217 266 326 378
#     4  10  21  41  63  96 126 168 213 267 331 397
#     4  11  24  44  66  90 130 172 221 264 330 406
#     4  10  23  39  64  94 126 176 214 264 338 390
#
# _framework density 21.712178000000002
#
# number of rings (size 3 to 8) (size 9 to 14) (size 15 to 20)
#    0.000    1.667    1.667    1.500   14.000    2.000 
#    0.000    0.000    7.333    0.000    0.000    0.000 
#    0.000    0.000    0.000    0.000    0.000    0.000 
#
# Total GULP energy -133618.958814 kJ/mol
# GULP energy per Si atom -5567.456617 kJ/mol
# Density = 2.166276 g / cm^3
# Si number density = 21.712178 Si / 1000 Ang^3
#
#
#
# Elastic Constant Matrix: (Units=GPa)
#
#
# Indices 1 2 3 4 5 6 
#
# 1 180.2139 38.7995 47.2360 0.0000 0.0000 0.0000
# 2 38.7995 89.2004 6.4079 0.0000 0.0000 0.0000
# 3 47.2360 6.4079 91.7639 0.0000 0.0000 0.0000
# 4 0.0000 0.0000 0.0000 0.3533 0.0000 0.0000
# 5 0.0000 0.0000 0.0000 0.0000 -5.2425 0.0000
# 6 0.0000 0.0000 0.0000 0.0000 0.0000 -58.2396
#
#
#
# Elastic Compliance Matrix: (Units=1/GPa)
#
#
# Indices 1 2 3 4 5 6 
#
# 1 0.007057 -0.002823 -0.003436 0.000000 0.000000 0.000000
# 2 -0.002823 0.012396 0.000587 0.000000 0.000000 0.000000
# 3 -0.003436 0.000587 0.012625 0.000000 0.000000 0.000000
# 4 0.000000 0.000000 0.000000 2.830457 0.000000 0.000000
# 5 0.000000 0.000000 0.000000 0.000000 -0.190750 0.000000
# 6 0.000000 0.000000 0.000000 0.000000 0.000000 -0.017170
#
#
# Mechanical properties :
#
#
# Convention : Reuss Voigt Hill
#
# Bulk Modulus (GPa) = 48.22410 60.67388 54.44899
# Shear Modulus (GPa) = 1.87065 5.28991 3.58028
#
# Velocity S-wave (km/s) = 0.92921 1.56258 1.28552
# Velocity P-wave (km/s) = 4.83840 5.59114 5.22833
#
# Compressibility (1/GPa) = 0.02073652
#
# Stress axis : x y z
#
# Youngs Moduli (GPa) = 141.69861 80.66873 79.20777
#
# Poissons Ratio (x) = 0.22772 0.27213
# Poissons Ratio (y) = 0.40000 -0.04653
# Poissons Ratio (z) = 0.48682 -0.04739
#
# Static dielectric constant tensor:
#      x y z
#    x 1.828750 0.000000 0.000000 
#    y 0.000000 1.989680 0.000000 
#    z 0.000000 0.000000 1.811610 
# 
# From -- ./inp_files/15895.got.cif
#   From: 2010.05.17/outbox.cif.g08.bks.cpg/sg24_8_cif.got.tgz:15895.got - 2010.06.04 00:33:39.
