data_PCOD9334938
_publ_section_title
;
Structure prediction by ZEFSAII (Michael W. Deem and Ramdas Pophale) SiO2 
 PCOD9334938
Probable space group: I 21 21 21
;
_chemical_formula_sum "Si O2"
_cell_formula_units_Z 60
_cell_length_a 8.765976
_cell_length_b 27.626667
_cell_length_c 12.009905
_cell_angle_alpha 90.000000
_cell_angle_beta 90.000000
_cell_angle_gamma 90.000000
_cell_volume 2908.495139
_symmetry_space_group_name_H-M "I 21 21 21"
_symmetry_group_IT_number 24
_symmetry_cell_setting 'orthorhombic'
loop_
_space_group_symop_operation_xyz
x,y,z
-x,1/2-y,z
x,-y,1/2-z
1/2-x,y,-z
1/2+x,1/2+y,1/2+z
1/2-x,-y,1/2+z
1/2+x,1/2-y,-z
-x,1/2+y,1/2-z
loop_
_atom_site_type_symbol
_atom_site_label
_atom_site_fract_x
_atom_site_fract_y
_atom_site_fract_z
Si Si1 0.927969 0.104290 0.008079
Si Si2 0.931679 0.640042 0.110619
Si Si3 0.750000 0.664424 0.500000
Si Si4 0.067565 0.552822 0.724217
Si Si5 0.004440 0.855299 0.857520
Si Si6 0.280714 0.202979 0.240526
Si Si7 0.924416 0.055410 0.250128
Si Si8 0.282686 0.294079 0.619120
O O1 0.931049 0.066113 0.906204
O O2 0.085524 0.135685 0.996358
O O3 0.750000 0.125528 0.000000
O O4 0.942017 0.079498 0.128552
O O5 0.995191 0.589913 0.160010
O O6 0.052199 0.683443 0.125819
O O7 0.798358 0.659398 0.189497
O O8 0.916745 0.638287 0.977434
O O9 0.749284 0.695568 0.612152
O O10 0.003104 0.500000 0.750000
O O11 0.983810 0.595924 0.787715
O O12 0.241901 0.553471 0.768869
O O13 0.829474 0.840193 0.880706
O O14 0.049874 0.809663 0.780350
O O15 0.235692 0.254846 0.285736
O O16 0.980742 0.000000 0.250000
O O17 0.250000 0.268603 0.500000
#
# Coordination Sequence:
#
# PCOD9334938 Si02
#       8
#     8   8   4   8   8   8   8   8
#     4  10  22  44  65  94 135 182 213 271 328 382
#     4  11  22  39  64  94 126 163 208 266 323 384
#     4  12  24  44  68  94 130 182 218 266 328 384
#     4  10  21  38  65  96 127 167 216 266 320 385
#     4  11  22  39  64  94 126 163 208 266 323 384
#     4  12  24  42  62  91 131 163 214 263 323 393
#     4  10  21  38  65  96 127 167 216 266 320 385
#     4  10  22  42  67  93 124 165 212 268 331 387
#
# _framework density 20.629224000000001
#
# number of rings (size 3 to 8) (size 9 to 14) (size 15 to 20)
#    0.000    1.333    4.000    2.000    1.867    2.133 
#    0.000    6.667    0.000    0.000    0.000    0.000 
#    0.000    0.000    0.000    0.000    0.000    0.000 
#
# Total GULP energy -167275.068151 kJ/mol
# GULP energy per Si atom -5575.835605 kJ/mol
# Density = 2.058227 g / cm^3
# Si number density = 20.629224 Si / 1000 Ang^3
#
#
#
# Elastic Constant Matrix: (Units=GPa)
#
#
# Indices 1 2 3 4 5 6 
#
# 1 59.0488 16.7199 15.7258 0.0000 0.0000 0.0000
# 2 16.7199 104.2983 52.3293 -0.0001 -0.0001 0.0000
# 3 15.7258 52.3293 142.4674 -0.0006 -0.0005 -0.0002
# 4 0.0000 -0.0001 -0.0006 18.1570 -0.0001 0.0000
# 5 0.0000 -0.0001 -0.0005 -0.0001 25.7923 -0.0001
# 6 0.0000 0.0000 -0.0002 0.0000 -0.0001 13.9208
#
#
#
# Elastic Compliance Matrix: (Units=1/GPa)
#
#
# Indices 1 2 3 4 5 6 
#
# 1 0.017887 -0.002301 -0.001129 0.000000 0.000000 0.000000
# 2 -0.002301 0.012050 -0.004172 0.000000 0.000000 0.000000
# 3 -0.001129 -0.004172 0.008676 0.000000 0.000000 0.000000
# 4 0.000000 0.000000 0.000000 0.055075 0.000000 0.000000
# 5 0.000000 0.000000 0.000000 0.000000 0.038771 0.000000
# 6 0.000000 0.000000 0.000000 0.000000 0.000000 0.071835
#
#
# Mechanical properties :
#
#
# Convention : Reuss Voigt Hill
#
# Bulk Modulus (GPa) = 42.71847 52.81828 47.76838
# Shear Modulus (GPa) = 21.99710 26.30999 24.15354
#
# Velocity S-wave (km/s) = 3.26898 3.57511 3.42547
# Velocity P-wave (km/s) = 5.91616 6.53461 6.23306
#
# Compressibility (1/GPa) = 0.02340908
#
# Stress axis : x y z
#
# Youngs Moduli (GPa) = 55.90527 82.98773 115.25736
#
# Poissons Ratio (x) = 0.19095 0.13016
# Poissons Ratio (y) = 0.12863 0.48086
# Poissons Ratio (z) = 0.06313 0.34623
#
# Static dielectric constant tensor:
#      x y z
#    x 1.868730 0.000000 0.000000 
#    y 0.000000 1.700650 0.000000 
#    z 0.000000 0.000000 1.722870 
# 
# From -- ./inp_files/18823.got.cif
#   From: 2010.05.17/outbox.cif.g08.bks.cpg/sg24_10_cif.got.tgz:18823.got - 2010.06.04 00:33:39.
