data_PCOD9334691
_publ_section_title
;
Structure prediction by ZEFSAII (Michael W. Deem and Ramdas Pophale) SiO2 
 PCOD9334691
Probable space group: I 21 21 21
;
_chemical_formula_sum "Si O2"
_cell_formula_units_Z 32
_cell_length_a 21.712738
_cell_length_b 8.171252
_cell_length_c 7.862861
_cell_angle_alpha 90.000000
_cell_angle_beta 90.000000
_cell_angle_gamma 90.000000
_cell_volume 1395.030794
_symmetry_space_group_name_H-M "I 21 21 21"
_symmetry_group_IT_number 24
_symmetry_cell_setting 'orthorhombic'
loop_
_space_group_symop_operation_xyz
x,y,z
-x,1/2-y,z
x,-y,1/2-z
1/2-x,y,-z
1/2+x,1/2+y,1/2+z
1/2-x,-y,1/2+z
1/2+x,1/2-y,-z
-x,1/2+y,1/2-z
loop_
_atom_site_type_symbol
_atom_site_label
_atom_site_fract_x
_atom_site_fract_y
_atom_site_fract_z
Si Si1 0.124070 0.663439 0.358872
Si Si2 0.970690 0.010275 0.554231
Si Si3 0.684773 0.500000 0.250000
Si Si4 0.750000 0.741656 0.500000
Si Si5 0.094735 0.850506 0.036971
O O1 0.116547 0.500000 0.250000
O O2 0.068652 0.645688 0.492946
O O3 0.189704 0.659250 0.448413
O O4 0.120550 0.810460 0.224299
O O5 0.929238 0.174394 0.533765
O O6 0.033318 0.040547 0.452739
O O7 0.988097 0.000000 0.750000
O O8 0.727787 0.632520 0.341439
O O9 0.642479 0.426258 0.401948
#
# Coordination Sequence:
#
# PCOD9334691 Si02
#       5
#     8   8   4   4   8
#     4  10  24  45  66 101 132 177 227 278 337 400
#     4  10  20  43  68  99 135 174 222 279 344 406
#     4  12  24  44  66  98 136 176 230 274 342 410
#     4  12  26  44  68  94 134 184 224 274 326 414
#     4  10  22  42  65 102 134 174 219 283 346 401
#
# _framework density 22.938564
#
# number of rings (size 3 to 8) (size 9 to 14) (size 15 to 20)
#    0.000    1.500    1.250    3.000    0.000    5.000 
#   27.000    0.000    0.000    0.000    0.000    0.000 
#    0.000    0.000    0.000    0.000    0.000    0.000 
#
# Total GULP energy -89540.022829 kJ/mol
# GULP energy per Si atom -5596.251427 kJ/mol
# Density = 2.288635 g / cm^3
# Si number density = 22.938564 Si / 1000 Ang^3
#
#
#
# Elastic Constant Matrix: (Units=GPa)
#
#
# Indices 1 2 3 4 5 6 
#
# 1 115.0281 6.4478 41.5294 0.0000 0.0000 0.0000
# 2 6.4478 46.3335 7.7692 0.0000 0.0000 0.0000
# 3 41.5294 7.7692 112.0248 0.0000 0.0000 0.0000
# 4 0.0000 0.0000 0.0000 12.9046 0.0000 0.0000
# 5 0.0000 0.0000 0.0000 0.0000 41.4174 0.0000
# 6 0.0000 0.0000 0.0000 0.0000 0.0000 -63.7948
#
#
#
# Elastic Compliance Matrix: (Units=1/GPa)
#
#
# Indices 1 2 3 4 5 6 
#
# 1 0.010065 -0.000784 -0.003677 0.000000 0.000000 0.000000
# 2 -0.000784 0.021898 -0.001228 0.000000 0.000000 0.000000
# 3 -0.003677 -0.001228 0.010375 0.000000 0.000000 0.000000
# 4 0.000000 0.000000 0.000000 0.077492 0.000000 0.000000
# 5 0.000000 0.000000 0.000000 0.000000 0.024144 0.000000
# 6 0.000000 0.000000 0.000000 0.000000 0.000000 -0.015675
#
#
# Mechanical properties :
#
#
# Convention : Reuss Voigt Hill
#
# Bulk Modulus (GPa) = 32.30017 42.76435 37.53226
# Shear Modulus (GPa) = 33.33419 12.61479 22.97449
#
# Velocity S-wave (km/s) = 3.81621 2.34762 3.16819
# Velocity P-wave (km/s) = 5.79049 5.10215 5.45718
#
# Compressibility (1/GPa) = 0.03095959
#
# Stress axis : x y z
#
# Youngs Moduli (GPa) = 99.35452 45.66691 96.38712
#
# Poissons Ratio (x) = 0.03581 0.35440
# Poissons Ratio (y) = 0.07790 0.11836
# Poissons Ratio (z) = 0.36531 0.05608
#
# Static dielectric constant tensor:
#      x y z
#    x 1.793450 0.000000 0.000000 
#    y 0.000000 1.909650 0.000000 
#    z 0.000000 0.000000 1.910990 
# 
# From -- ./inp_files/8983.got.cif
#   From: 2010.05.17/outbox.cif.g08.bks.cpg/sg24_5_cif.got.tgz:8983.got - 2010.06.04 00:33:39.
