data_PCOD9334442
_publ_section_title
;
Structure prediction by ZEFSAII (Michael W. Deem and Ramdas Pophale) SiO2 
 PCOD9334442
Probable space group: I 21 21 21
;
_chemical_formula_sum "Si O2"
_cell_formula_units_Z 32
_cell_length_a 7.466876
_cell_length_b 14.046271
_cell_length_c 13.744083
_cell_angle_alpha 90.000000
_cell_angle_beta 90.000000
_cell_angle_gamma 90.000000
_cell_volume 1441.503667
_symmetry_space_group_name_H-M "I 21 21 21"
_symmetry_group_IT_number 24
_symmetry_cell_setting 'orthorhombic'
loop_
_space_group_symop_operation_xyz
x,y,z
-x,1/2-y,z
x,-y,1/2-z
1/2-x,y,-z
1/2+x,1/2+y,1/2+z
1/2-x,-y,1/2+z
1/2+x,1/2-y,-z
-x,1/2+y,1/2-z
loop_
_atom_site_type_symbol
_atom_site_label
_atom_site_fract_x
_atom_site_fract_y
_atom_site_fract_z
Si Si1 0.907111 0.453114 0.578026
Si Si2 0.797581 0.283347 0.691631
Si Si3 0.956405 0.851958 0.530017
Si Si4 0.250000 0.666627 0.000000
Si Si5 0.000000 0.250000 0.153365
O O1 0.750000 0.458447 0.500000
O O2 0.823136 0.395104 0.667900
O O3 0.977378 0.560028 0.591828
O O4 0.076920 0.396082 0.530663
O O5 0.721645 0.234246 0.593007
O O6 0.670423 0.247913 0.777171
O O7 0.000000 0.250000 0.704043
O O8 0.750000 0.861151 0.500000
O O9 0.000000 0.750000 0.576651
O O10 0.039674 0.836952 0.421619
#
# Coordination Sequence:
#
# PCOD9334442 Si02
#       5
#     8   8   8   4   4
#     4  11  20  37  70  97 129 182 231 274 362 424
#     4  10  21  39  68 101 139 176 225 294 346 421
#     4  10  23  44  71  93 136 186 236 291 355 433
#     4  10  20  38  68  96 140 182 224 284 360 436
#     4  10  24  44  70 100 140 174 242 296 336 416
#
# _framework density 22.19904
#
# number of rings (size 3 to 8) (size 9 to 14) (size 15 to 20)
#    0.750    1.000    2.500    2.250    1.750    1.000 
#    0.000    5.000    5.500    0.000    0.000    0.000 
#    0.000    0.000    0.000    0.000    0.000    0.000 
#
# Total GULP energy -89278.869698 kJ/mol
# GULP energy per Si atom -5579.929356 kJ/mol
# Density = 2.214851 g / cm^3
# Si number density = 22.199040 Si / 1000 Ang^3
#
#
#
# Elastic Constant Matrix: (Units=GPa)
#
#
# Indices 1 2 3 4 5 6 
#
# 1 73.3908 13.2299 -6.6346 0.0000 0.0000 0.0000
# 2 13.2299 155.3659 14.4704 0.0000 0.0000 0.0000
# 3 -6.6346 14.4704 85.8976 0.0000 0.0000 0.0000
# 4 0.0000 0.0000 0.0000 52.2538 0.0000 0.0000
# 5 0.0000 0.0000 0.0000 0.0000 36.4235 0.0000
# 6 0.0000 0.0000 0.0000 0.0000 0.0000 28.7746
#
#
#
# Elastic Compliance Matrix: (Units=1/GPa)
#
#
# Indices 1 2 3 4 5 6 
#
# 1 0.013980 -0.001312 0.001301 0.000000 0.000000 0.000000
# 2 -0.001312 0.006662 -0.001224 0.000000 0.000000 0.000000
# 3 0.001301 -0.001224 0.011948 0.000000 0.000000 0.000000
# 4 0.000000 0.000000 0.000000 0.019137 0.000000 0.000000
# 5 0.000000 0.000000 0.000000 0.000000 0.027455 0.000000
# 6 0.000000 0.000000 0.000000 0.000000 0.000000 0.034753
#
#
# Mechanical properties :
#
#
# Convention : Reuss Voigt Hill
#
# Bulk Modulus (GPa) = 33.19918 39.64286 36.42102
# Shear Modulus (GPa) = 39.54305 43.06295 41.30300
#
# Velocity S-wave (km/s) = 4.22512 4.40916 4.31812
# Velocity P-wave (km/s) = 6.22815 6.61949 6.42680
#
# Compressibility (1/GPa) = 0.03012123
#
# Stress axis : x y z
#
# Youngs Moduli (GPa) = 71.53232 150.10357 83.69343
#
# Poissons Ratio (x) = 0.19687 -0.10886
# Poissons Ratio (y) = 0.09382 0.10241
# Poissons Ratio (z) = -0.09304 0.18367
#
# Static dielectric constant tensor:
#      x y z
#    x 1.807930 0.000000 0.000000 
#    y 0.000000 1.879390 0.000000 
#    z 0.000000 0.000000 1.823610 
# 
# From -- ./inp_files/24437.got.cif
#   From: 2010.05.17/outbox.cif.g08.bks.cpg/sg24_13_cif.got.tgz:24437.got - 2010.06.04 00:33:39.
