data_PCOD9334122
_publ_section_title
;
Structure prediction by ZEFSAII (Michael W. Deem and Ramdas Pophale) SiO2 
 PCOD9334122
Probable space group: I 21 21 21
;
_chemical_formula_sum "Si O2"
_cell_formula_units_Z 48
_cell_length_a 14.669536
_cell_length_b 5.264252
_cell_length_c 26.939459
_cell_angle_alpha 90.000000
_cell_angle_beta 90.000000
_cell_angle_gamma 90.000000
_cell_volume 2080.376398
_symmetry_space_group_name_H-M "I 21 21 21"
_symmetry_group_IT_number 24
_symmetry_cell_setting 'orthorhombic'
loop_
_space_group_symop_operation_xyz
x,y,z
-x,1/2-y,z
x,-y,1/2-z
1/2-x,y,-z
1/2+x,1/2+y,1/2+z
1/2-x,-y,1/2+z
1/2+x,1/2-y,-z
-x,1/2+y,1/2-z
loop_
_atom_site_type_symbol
_atom_site_label
_atom_site_fract_x
_atom_site_fract_y
_atom_site_fract_z
Si Si1 0.597135 0.741934 0.413935
Si Si2 0.274018 0.391872 0.458685
Si Si3 0.753333 0.616860 0.862752
Si Si4 0.898403 0.751701 0.783819
Si Si5 0.941077 0.511852 0.373294
Si Si6 0.585568 0.434072 0.515201
O O1 0.500000 0.750000 0.386569
O O2 0.679218 0.596864 0.386204
O O3 0.580134 0.596704 0.465670
O O4 0.633224 0.014566 0.430247
O O5 0.250000 0.618117 0.500000
O O6 0.225963 0.304613 0.407873
O O7 0.324312 0.236917 0.506326
O O8 0.815548 0.749683 0.822076
O O9 0.655933 0.511562 0.845673
O O10 0.891434 0.500000 0.750000
O O11 0.000000 0.750000 0.807509
O O12 0.893424 0.000000 0.750000
O O13 0.914626 0.569136 0.431517
O O14 0.000000 0.750000 0.355684
O O15 0.000000 0.250000 0.370998
O O16 0.500000 0.250000 0.517106
#
# Coordination Sequence:
#
# PCOD9334122 Si02
#       6
#     8   8   8   8   8   8
#     4  11  24  34  59  92 137 185 237 295 352 416
#     4  11  23  37  57  92 143 186 243 287 346 421
#     4  11  27  41  69 101 139 187 240 298 363 433
#     4  10  25  48  77 110 146 182 227 292 372 453
#     4  11  26  43  66  95 135 187 242 291 340 405
#     4  10  20  36  50  82 128 187 236 280 337 404
#
# _framework density 23.072748000000001
#
# number of rings (size 3 to 8) (size 9 to 14) (size 15 to 20)
#    0.000    1.333    3.333    0.500   11.667    0.667 
#    0.000    0.000    0.000    2.000    0.000    0.000 
#    0.000    0.000    0.000    0.000    0.000    0.000 
#
# Total GULP energy -133852.935017 kJ/mol
# GULP energy per Si atom -5577.205626 kJ/mol
# Density = 2.302023 g / cm^3
# Si number density = 23.072748 Si / 1000 Ang^3
#
#
#
# Elastic Constant Matrix: (Units=GPa)
#
#
# Indices 1 2 3 4 5 6 
#
# 1 194.1140 30.2553 43.6297 0.0000 0.0000 0.0000
# 2 30.2553 74.8102 28.4359 0.0000 0.0000 0.0000
# 3 43.6297 28.4359 58.3791 0.0000 0.0000 0.0000
# 4 0.0000 0.0000 0.0000 26.3100 0.0000 0.0000
# 5 0.0000 0.0000 0.0000 0.0000 33.0125 0.0000
# 6 0.0000 0.0000 0.0000 0.0000 0.0000 38.0837
#
#
#
# Elastic Compliance Matrix: (Units=1/GPa)
#
#
# Indices 1 2 3 4 5 6 
#
# 1 0.006243 -0.000922 -0.004217 0.000000 0.000000 0.000000
# 2 -0.000922 0.016541 -0.007368 0.000000 0.000000 0.000000
# 3 -0.004217 -0.007368 0.023869 0.000000 0.000000 0.000000
# 4 0.000000 0.000000 0.000000 0.038008 0.000000 0.000000
# 5 0.000000 0.000000 0.000000 0.000000 0.030292 0.000000
# 6 0.000000 0.000000 0.000000 0.000000 0.000000 0.026258
#
#
# Mechanical properties :
#
#
# Convention : Reuss Voigt Hill
#
# Bulk Modulus (GPa) = 46.20994 59.10500 52.65747
# Shear Modulus (GPa) = 28.82890 34.48007 31.65449
#
# Velocity S-wave (km/s) = 3.53863 3.86995 3.70799
# Velocity P-wave (km/s) = 6.06360 6.75582 6.41905
#
# Compressibility (1/GPa) = 0.02164037
#
# Stress axis : x y z
#
# Youngs Moduli (GPa) = 160.17757 60.45740 41.89467
#
# Poissons Ratio (x) = 0.05575 0.17665
# Poissons Ratio (y) = 0.14770 0.30866
# Poissons Ratio (z) = 0.67541 0.44543
#
# Static dielectric constant tensor:
#      x y z
#    x 1.801660 0.000000 0.000000 
#    y 0.000000 2.022370 0.000000 
#    z 0.000000 0.000000 1.838190 
# 
# From -- ./inp_files/3773.got.cif
#   From: 2010.05.17/outbox.cif.g08.bks.cpg/sg24_2_cif.got.tgz:3773.got - 2010.06.04 00:33:39.
