data_PCOD9334590
_publ_section_title
;
Structure prediction by ZEFSAII (Michael W. Deem and Ramdas Pophale) SiO2 
 PCOD9334590
Probable space group: I 21 21 21
;
_chemical_formula_sum "Si O2"
_cell_formula_units_Z 48
_cell_length_a 18.692250
_cell_length_b 8.059533
_cell_length_c 13.141966
_cell_angle_alpha 90.000000
_cell_angle_beta 90.000000
_cell_angle_gamma 90.000000
_cell_volume 1979.847767
_symmetry_space_group_name_H-M "I 21 21 21"
_symmetry_group_IT_number 24
_symmetry_cell_setting 'orthorhombic'
loop_
_space_group_symop_operation_xyz
x,y,z
-x,1/2-y,z
x,-y,1/2-z
1/2-x,y,-z
1/2+x,1/2+y,1/2+z
1/2-x,-y,1/2+z
1/2+x,1/2-y,-z
-x,1/2+y,1/2-z
loop_
_atom_site_type_symbol
_atom_site_label
_atom_site_fract_x
_atom_site_fract_y
_atom_site_fract_z
Si Si1 0.434450 0.000000 0.750000
Si Si2 0.940581 0.648045 0.457458
Si Si3 0.682197 0.822090 0.445683
Si Si4 0.918790 0.706713 0.941349
Si Si5 0.714741 0.543951 0.134778
Si Si6 0.339344 0.261963 0.631544
Si Si7 0.727535 0.000000 0.250000
O O1 0.469904 0.915597 0.651750
O O2 0.389743 0.844410 0.794099
O O3 0.875228 0.777406 0.466119
O O4 0.925957 0.476205 0.511573
O O5 0.000000 0.750000 0.516681
O O6 0.750000 0.902826 0.500000
O O7 0.699584 0.635355 0.410644
O O8 0.677254 0.922228 0.339279
O O9 0.852567 0.672130 0.865461
O O10 0.000000 0.750000 0.907890
O O11 0.887762 0.819729 0.034989
O O12 0.733883 0.500000 0.250000
O O13 0.785388 0.624278 0.087420
O O14 0.284968 0.378079 0.693549
#
# Coordination Sequence:
#
# PCOD9334590 Si02
#       7
#     4   8   8   8   8   8   4
#     4  10  20  40  67  98 129 178 232 280 346 426
#     4  10  23  42  67  94 135 182 224 280 347 415
#     4  11  23  43  66  99 137 174 226 292 345 418
#     4  10  24  41  63  96 134 181 225 277 354 419
#     4  11  20  42  72  92 127 178 238 286 335 413
#     4  11  21  39  65  98 131 174 230 285 341 410
#     4  12  24  38  67 106 135 174 226 292 358 398
#
# _framework density 24.244288999999998
#
# number of rings (size 3 to 8) (size 9 to 14) (size 15 to 20)
#    0.000    1.333    2.500    4.500    0.000    8.000 
#    0.000    5.000    3.667    0.000    0.000    0.000 
#    0.000    0.000    0.000    0.000    0.000    0.000 
#
# Total GULP energy -133676.766505 kJ/mol
# GULP energy per Si atom -5569.865271 kJ/mol
# Density = 2.418911 g / cm^3
# Si number density = 24.244289 Si / 1000 Ang^3
#
#
#
# Elastic Constant Matrix: (Units=GPa)
#
#
# Indices 1 2 3 4 5 6 
#
# 1 72.2083 -2.5417 -12.2096 0.0000 0.0000 0.0000
# 2 -2.5417 83.2065 7.3828 0.0000 0.0000 0.0000
# 3 -12.2096 7.3828 59.2664 0.0000 0.0000 0.0000
# 4 0.0000 0.0000 0.0000 16.9291 0.0000 0.0000
# 5 0.0000 0.0000 0.0000 0.0000 8.4883 0.0000
# 6 0.0000 0.0000 0.0000 0.0000 0.0000 34.4240
#
#
#
# Elastic Compliance Matrix: (Units=1/GPa)
#
#
# Indices 1 2 3 4 5 6 
#
# 1 0.014351 0.000178 0.002934 0.000000 0.000000 0.000000
# 2 0.000178 0.012155 -0.001477 0.000000 0.000000 0.000000
# 3 0.002934 -0.001477 0.017662 0.000000 0.000000 0.000000
# 4 0.000000 0.000000 0.000000 0.059070 0.000000 0.000000
# 5 0.000000 0.000000 0.000000 0.000000 0.117809 0.000000
# 6 0.000000 0.000000 0.000000 0.000000 0.000000 0.029050
#
#
# Mechanical properties :
#
#
# Convention : Reuss Voigt Hill
#
# Bulk Modulus (GPa) = 21.08039 22.21603 21.64821
# Shear Modulus (GPa) = 19.03755 26.77159 22.90457
#
# Velocity S-wave (km/s) = 2.80525 3.32662 3.07700
# Velocity P-wave (km/s) = 4.38252 4.89270 4.64462
#
# Compressibility (1/GPa) = 0.04743745
#
# Stress axis : x y z
#
# Youngs Moduli (GPa) = 69.68030 82.27192 56.62027
#
# Poissons Ratio (x) = -0.01465 -0.16614
# Poissons Ratio (y) = -0.01240 0.08365
# Poissons Ratio (z) = -0.20447 0.12155
#
# Static dielectric constant tensor:
#      x y z
#    x 2.084130 0.000000 0.000000 
#    y 0.000000 1.964400 0.000000 
#    z 0.000000 0.000000 1.999070 
# 
# From -- ./inp_files/27448.got.cif
#   From: 2010.05.17/outbox.cif.g08.bks.cpg/sg24_14_cif.got.tgz:27448.got - 2010.06.04 00:33:39.
