data_PCOD9334171
_publ_section_title
;
Structure prediction by ZEFSAII (Michael W. Deem and Ramdas Pophale) SiO2 
 PCOD9334171
Probable space group: I 21 21 21
;
_chemical_formula_sum "Si O2"
_cell_formula_units_Z 36
_cell_length_a 6.875433
_cell_length_b 14.470608
_cell_length_c 14.411681
_cell_angle_alpha 90.000000
_cell_angle_beta 90.000000
_cell_angle_gamma 90.000000
_cell_volume 1433.842582
_symmetry_space_group_name_H-M "I 21 21 21"
_symmetry_group_IT_number 24
_symmetry_cell_setting 'orthorhombic'
loop_
_space_group_symop_operation_xyz
x,y,z
-x,1/2-y,z
x,-y,1/2-z
1/2-x,y,-z
1/2+x,1/2+y,1/2+z
1/2-x,-y,1/2+z
1/2+x,1/2-y,-z
-x,1/2+y,1/2-z
loop_
_atom_site_type_symbol
_atom_site_label
_atom_site_fract_x
_atom_site_fract_y
_atom_site_fract_z
Si Si1 0.468200 0.913460 0.185850
Si Si2 0.000000 0.250000 0.814285
Si Si3 0.435644 0.401252 0.707093
Si Si4 0.969749 0.040203 0.480946
Si Si5 0.389643 0.334105 0.897837
O O1 0.399740 0.822960 0.242359
O O2 0.703192 0.900954 0.191010
O O3 0.418164 0.000000 0.250000
O O4 0.426359 0.942037 0.078891
O O5 0.163257 0.306107 0.875434
O O6 0.480975 0.500000 0.750000
O O7 0.533632 0.398014 0.607118
O O8 0.478048 0.340593 0.795062
O O9 0.750000 0.071037 0.500000
O O10 0.940244 0.932330 0.447919
O O11 0.500000 0.250000 0.945621
#
# Coordination Sequence:
#
# PCOD9334171 Si02
#       5
#     8   4   8   8   8
#     4   9  17  33  58  85 124 167 204 259 324 383
#     4  10  20  38  64  92 126 160 218 268 322 378
#     4   7  13  28  53  77 110 153 199 239 299 371
#     4   9  16  33  59  87 116 167 210 244 315 396
#     4  10  20  36  59  92 123 160 203 266 322 379
#
# _framework density 25.107358999999999
#
# number of rings (size 3 to 8) (size 9 to 14) (size 15 to 20)
#    0.000    3.111    0.000    4.000    0.000    0.000 
#   10.000    3.333    0.000   10.667    0.000    0.000 
#    0.000    0.000    0.000    0.000    0.000    0.000 
#
# Total GULP energy -100215.463432 kJ/mol
# GULP energy per Si atom -5567.525746 kJ/mol
# Density = 2.505021 g / cm^3
# Si number density = 25.107359 Si / 1000 Ang^3
#
#
#
# Elastic Constant Matrix: (Units=GPa)
#
#
# Indices 1 2 3 4 5 6 
#
# 1 118.7773 -0.2272 35.2991 0.0000 0.0000 0.0000
# 2 -0.2272 109.1233 44.0334 0.0000 0.0000 0.0000
# 3 35.2991 44.0334 192.1512 0.0000 0.0000 0.0000
# 4 0.0000 0.0000 0.0000 41.7160 0.0000 0.0000
# 5 0.0000 0.0000 0.0000 0.0000 -3.7175 0.0000
# 6 0.0000 0.0000 0.0000 0.0000 0.0000 14.0004
#
#
#
# Elastic Compliance Matrix: (Units=1/GPa)
#
#
# Indices 1 2 3 4 5 6 
#
# 1 0.008961 0.000753 -0.001819 0.000000 0.000000 0.000000
# 2 0.000753 0.010161 -0.002467 0.000000 0.000000 0.000000
# 3 -0.001819 -0.002467 0.006104 0.000000 0.000000 0.000000
# 4 0.000000 0.000000 0.000000 0.023972 0.000000 0.000000
# 5 0.000000 0.000000 0.000000 0.000000 -0.268995 0.000000
# 6 0.000000 0.000000 0.000000 0.000000 0.000000 0.071427
#
#
# Mechanical properties :
#
#
# Convention : Reuss Voigt Hill
#
# Bulk Modulus (GPa) = 55.06655 64.25140 59.65898
# Shear Modulus (GPa) = -36.96787 33.12953 -1.91917
#
# Velocity S-wave (km/s) = -3.84134 3.63645 -0.87524
# Velocity P-wave (km/s) = 1.51840 6.57860 4.77407
#
# Compressibility (1/GPa) = 0.01815984
#
# Stress axis : x y z
#
# Youngs Moduli (GPa) = 111.59429 98.41667 163.83780
#
# Poissons Ratio (x) = -0.07406 0.29796
# Poissons Ratio (y) = -0.08398 0.40414
# Poissons Ratio (z) = 0.20295 0.24277
#
# Static dielectric constant tensor:
#      x y z
#    x 2.027230 0.000000 0.000000 
#    y 0.000000 2.004260 0.000000 
#    z 0.000000 0.000000 2.059100 
# 
# From -- ./inp_files/24457.got.cif
#   From: 2010.05.17/outbox.cif.g08.bks.cpg/sg24_13_cif.got.tgz:24457.got - 2010.06.04 00:33:39.
