data_PCOD9334509
_publ_section_title
;
Structure prediction by ZEFSAII (Michael W. Deem and Ramdas Pophale) SiO2 
 PCOD9334509
Probable space group: I 21 21 21
;
_chemical_formula_sum "Si O2"
_cell_formula_units_Z 48
_cell_length_a 7.539127
_cell_length_b 32.527106
_cell_length_c 8.535066
_cell_angle_alpha 90.000000
_cell_angle_beta 90.000000
_cell_angle_gamma 90.000000
_cell_volume 2093.019950
_symmetry_space_group_name_H-M "I 21 21 21"
_symmetry_group_IT_number 24
_symmetry_cell_setting 'orthorhombic'
loop_
_space_group_symop_operation_xyz
x,y,z
-x,1/2-y,z
x,-y,1/2-z
1/2-x,y,-z
1/2+x,1/2+y,1/2+z
1/2-x,-y,1/2+z
1/2+x,1/2-y,-z
-x,1/2+y,1/2-z
loop_
_atom_site_type_symbol
_atom_site_label
_atom_site_fract_x
_atom_site_fract_y
_atom_site_fract_z
Si Si1 0.380170 0.717188 0.175746
Si Si2 0.549747 0.592628 0.434532
Si Si3 0.546154 0.578614 0.059235
Si Si4 0.042068 0.314465 0.987657
Si Si5 0.000000 0.250000 0.233416
Si Si6 0.750000 0.138977 0.500000
Si Si7 0.452889 0.008001 0.936433
O O1 0.500000 0.750000 0.083182
O O2 0.504777 0.706928 0.324712
O O3 0.186265 0.736740 0.192609
O O4 0.331995 0.671185 0.121622
O O5 0.750000 0.594381 0.500000
O O6 0.542374 0.587179 0.245940
O O7 0.474901 0.636785 0.483244
O O8 0.467096 0.551928 0.515033
O O9 0.416141 0.609373 0.965597
O O10 0.750000 0.582089 0.000000
O O11 0.477855 0.532519 0.023840
O O12 0.250000 0.304705 0.000000
O O13 0.951579 0.289987 0.127068
O O14 0.454423 0.000000 0.750000
O O15 0.250000 0.010140 0.000000
#
# Coordination Sequence:
#
# PCOD9334509 Si02
#       7
#     8   8   8   8   4   4   8
#     4  11  25  44  66  95 136 173 227 284 344 412
#     4  11  22  39  70 106 133 183 233 284 348 418
#     4  11  24  46  70  98 144 185 228 294 341 411
#     4  10  22  40  64  97 132 168 226 283 339 411
#     4  10  24  42  70  94 128 180 220 288 352 414
#     4  12  28  46  66 104 134 182 242 276 352 426
#     4  10  20  39  67 101 138 185 232 276 347 414
#
# _framework density 22.93337
#
# number of rings (size 3 to 8) (size 9 to 14) (size 15 to 20)
#    0.000    1.333    2.500    4.500    3.500    6.667 
#    1.500    0.000    0.000    0.000    0.000    0.000 
#    0.000    0.000    0.000    0.000    0.000    0.000 
#
# Total GULP energy -133854.667250 kJ/mol
# GULP energy per Si atom -5577.277802 kJ/mol
# Density = 2.288117 g / cm^3
# Si number density = 22.933370 Si / 1000 Ang^3
#
#
#
# Elastic Constant Matrix: (Units=GPa)
#
#
# Indices 1 2 3 4 5 6 
#
# 1 82.0098 45.7188 7.4103 0.0001 0.0000 0.0000
# 2 45.7188 211.7690 34.0424 0.0001 0.0003 0.0002
# 3 7.4103 34.0424 64.8688 0.0008 0.0000 -0.0009
# 4 0.0001 0.0001 0.0008 12.9325 0.0002 -0.0012
# 5 0.0000 0.0003 0.0000 0.0002 4.2087 -0.0003
# 6 0.0000 0.0002 -0.0009 -0.0012 -0.0003 -19.8581
#
#
#
# Elastic Compliance Matrix: (Units=1/GPa)
#
#
# Indices 1 2 3 4 5 6 
#
# 1 0.013862 -0.002990 -0.000014 0.000000 0.000000 0.000000
# 2 -0.002990 0.005802 -0.002703 0.000000 0.000000 0.000000
# 3 -0.000014 -0.002703 0.016836 -0.000001 0.000000 -0.000001
# 4 0.000000 0.000000 -0.000001 0.077324 -0.000004 -0.000005
# 5 0.000000 0.000000 0.000000 -0.000004 0.237602 -0.000004
# 6 0.000000 0.000000 -0.000001 -0.000005 -0.000004 -0.050357
#
#
# Mechanical properties :
#
#
# Convention : Reuss Voigt Hill
#
# Bulk Modulus (GPa) = 39.86534 59.22117 49.54325
# Shear Modulus (GPa) = 15.58376 17.55503 16.56940
#
# Velocity S-wave (km/s) = 2.60959 2.76973 2.69086
# Velocity P-wave (km/s) = 5.14790 6.00897 5.59502
#
# Compressibility (1/GPa) = 0.02508445
#
# Stress axis : x y z
#
# Youngs Moduli (GPa) = 72.13952 172.34559 59.39633
#
# Poissons Ratio (x) = 0.51538 0.00084
# Poissons Ratio (y) = 0.21573 0.16057
# Poissons Ratio (z) = 0.00102 0.46591
#
# Static dielectric constant tensor:
#      x y z
#    x 1.907370 0.000000 0.000000 
#    y 0.000000 1.871120 0.000000 
#    z 0.000000 0.000000 2.099530 
# 
# From -- ./inp_files/9822.got.cif
#   From: 2010.05.17/outbox.cif.g08.bks.cpg/sg24_5_cif.got.tgz:9822.got - 2010.06.04 00:33:39.
