data_PCOD9334910
_publ_section_title
;
Structure prediction by ZEFSAII (Michael W. Deem and Ramdas Pophale) SiO2 
 PCOD9334910
Probable space group: I 21 21 21
;
_chemical_formula_sum "Si O2"
_cell_formula_units_Z 52
_cell_length_a 7.899056
_cell_length_b 10.634328
_cell_length_c 28.089876
_cell_angle_alpha 90.000000
_cell_angle_beta 90.000000
_cell_angle_gamma 90.000000
_cell_volume 2359.581955
_symmetry_space_group_name_H-M "I 21 21 21"
_symmetry_group_IT_number 24
_symmetry_cell_setting 'orthorhombic'
loop_
_space_group_symop_operation_xyz
x,y,z
-x,1/2-y,z
x,-y,1/2-z
1/2-x,y,-z
1/2+x,1/2+y,1/2+z
1/2-x,-y,1/2+z
1/2+x,1/2-y,-z
-x,1/2+y,1/2-z
loop_
_atom_site_type_symbol
_atom_site_label
_atom_site_fract_x
_atom_site_fract_y
_atom_site_fract_z
Si Si1 0.292123 0.247722 0.887153
Si Si2 0.698900 0.486572 0.948198
Si Si3 0.203013 0.233873 0.402783
Si Si4 0.791865 0.998503 0.443662
Si Si5 0.868528 0.635518 0.807835
Si Si6 0.700705 0.752130 0.721922
Si Si7 0.891678 0.000000 0.750000
O O1 0.500000 0.250000 0.888080
O O2 0.236984 0.118276 0.911783
O O3 0.234503 0.372003 0.916076
O O4 0.238929 0.243072 0.832298
O O5 0.761603 0.628921 0.940548
O O6 0.496535 0.494916 0.942232
O O7 0.750000 0.441754 0.000000
O O8 0.268458 0.373307 0.416755
O O9 0.255636 0.164726 0.353641
O O10 0.000000 0.250000 0.402203
O O11 0.750000 0.000042 0.500000
O O12 0.760633 0.649489 0.759755
O O13 0.000000 0.750000 0.809260
O O14 0.990829 0.518501 0.796874
O O15 0.500000 0.750000 0.720898
O O16 0.773898 0.881050 0.742489
#
# Coordination Sequence:
#
# PCOD9334910 Si02
#       7
#     8   8   8   8   8   8   4
#     4   9  20  38  62  88 122 160 213 265 313 382
#     4  10  21  39  59  90 123 159 215 270 323 390
#     4  10  22  39  64  90 123 171 223 261 318 395
#     4  10  21  38  61  89 122 163 213 271 322 387
#     4  10  23  40  60  93 133 165 206 269 323 380
#     4  10  22  42  66  94 126 177 224 262 321 400
#     4  10  24  42  62  94 142 158 216 272 334 386
#
# _framework density 22.037803
#
# number of rings (size 3 to 8) (size 9 to 14) (size 15 to 20)
#    0.000    2.154    0.000    1.385    6.462    1.846 
#    2.769    0.000    0.000    0.000    0.000    0.000 
#    0.000    0.000    0.000    0.000    0.000    0.000 
#
# Total GULP energy -145018.800529 kJ/mol
# GULP energy per Si atom -5577.646174 kJ/mol
# Density = 2.198764 g / cm^3
# Si number density = 22.037803 Si / 1000 Ang^3
#
#
#
# Elastic Constant Matrix: (Units=GPa)
#
#
# Indices 1 2 3 4 5 6 
#
# 1 22.2617 24.7531 5.6491 0.0000 0.0000 0.0000
# 2 24.7531 119.1845 42.8842 0.0000 0.0000 0.0000
# 3 5.6491 42.8842 130.2916 0.0000 0.0000 0.0000
# 4 0.0000 0.0000 0.0000 29.5320 0.0000 0.0000
# 5 0.0000 0.0000 0.0000 0.0000 26.7135 0.0000
# 6 0.0000 0.0000 0.0000 0.0000 0.0000 10.6516
#
#
#
# Elastic Compliance Matrix: (Units=1/GPa)
#
#
# Indices 1 2 3 4 5 6 
#
# 1 0.058725 -0.012796 0.001665 0.000000 0.000000 0.000000
# 2 -0.012796 0.012306 -0.003495 0.000000 0.000000 0.000000
# 3 0.001665 -0.003495 0.008753 0.000000 0.000000 0.000000
# 4 0.000000 0.000000 0.000000 0.033862 0.000000 0.000000
# 5 0.000000 0.000000 0.000000 0.000000 0.037434 0.000000
# 6 0.000000 0.000000 0.000000 0.000000 0.000000 0.093882
#
#
# Mechanical properties :
#
#
# Convention : Reuss Voigt Hill
#
# Bulk Modulus (GPa) = 19.78915 46.47894 33.13404
# Shear Modulus (GPa) = 17.17870 26.60953 21.89412
#
# Velocity S-wave (km/s) = 2.79500 3.47861 3.15537
# Velocity P-wave (km/s) = 4.40627 6.10497 5.32380
#
# Compressibility (1/GPa) = 0.05053274
#
# Stress axis : x y z
#
# Youngs Moduli (GPa) = 17.02843 81.26399 114.24148
#
# Poissons Ratio (x) = 1.03983 -0.19026
# Poissons Ratio (y) = 0.21789 0.39933
# Poissons Ratio (z) = -0.02836 0.28406
#
# Static dielectric constant tensor:
#      x y z
#    x 1.836250 0.000000 0.000000 
#    y 0.000000 1.816840 0.000000 
#    z 0.000000 0.000000 1.864900 
# 
# From -- ./inp_files/36878.got.cif
#   From: 2010.05.17/outbox.cif.g08.bks.cpg/sg24_19_cif.got.tgz:36878.got - 2010.06.04 00:33:39.
