data_PCOD9334253
_publ_section_title
;
Structure prediction by ZEFSAII (Michael W. Deem and Ramdas Pophale) SiO2 
 PCOD9334253
Probable space group: I 21 21 21
;
_chemical_formula_sum "Si O2"
_cell_formula_units_Z 40
_cell_length_a 12.908990
_cell_length_b 23.872252
_cell_length_c 5.964037
_cell_angle_alpha 90.000000
_cell_angle_beta 90.000000
_cell_angle_gamma 90.000000
_cell_volume 1837.917376
_symmetry_space_group_name_H-M "I 21 21 21"
_symmetry_group_IT_number 24
_symmetry_cell_setting 'orthorhombic'
loop_
_space_group_symop_operation_xyz
x,y,z
-x,1/2-y,z
x,-y,1/2-z
1/2-x,y,-z
1/2+x,1/2+y,1/2+z
1/2-x,-y,1/2+z
1/2+x,1/2-y,-z
-x,1/2+y,1/2-z
loop_
_atom_site_type_symbol
_atom_site_label
_atom_site_fract_x
_atom_site_fract_y
_atom_site_fract_z
Si Si1 0.154540 0.584821 0.882467
Si Si2 0.652284 0.807654 0.377596
Si Si3 0.348240 0.946223 0.879070
Si Si4 0.500000 0.250000 0.454182
Si Si5 0.004559 0.642288 0.244010
Si Si6 0.499791 0.000000 0.250000
O O1 0.197437 0.638681 0.753424
O O2 0.081839 0.550322 0.712670
O O3 0.250000 0.553069 0.000000
O O4 0.082954 0.608679 0.081496
O O5 0.750000 0.780345 0.500000
O O6 0.594867 0.768140 0.202830
O O7 0.565162 0.832763 0.544038
O O8 0.410453 0.901582 0.727644
O O9 0.304839 0.000000 0.750000
O O10 0.250000 0.918553 0.000000
O O11 0.428271 0.975379 0.053902
O O12 0.469851 0.196890 0.604643
#
# Coordination Sequence:
#
# PCOD9334253 Si02
#       6
#     8   8   8   4   8   4
#     4  10  20  37  59  92 125 161 206 265 330 395
#     4  11  21  40  67  89 123 173 211 269 344 395
#     4  11  22  42  67  93 131 182 224 271 329 390
#     4  10  24  42  62  92 132 166 222 280 338 400
#     4  10  22  42  63  92 129 166 220 281 326 401
#     4  10  22  38  60  90 134 166 214 268 314 390
#
# _framework density 21.763766
#
# number of rings (size 3 to 8) (size 9 to 14) (size 15 to 20)
#    0.000    1.600    3.000    1.800    0.000    0.800 
#   14.400    0.000    0.000    0.000    0.000    0.000 
#    0.000    0.000    0.000    0.000    0.000    0.000 
#
# Total GULP energy -111580.702455 kJ/mol
# GULP energy per Si atom -5579.035123 kJ/mol
# Density = 2.171423 g / cm^3
# Si number density = 21.763766 Si / 1000 Ang^3
#
#
#
# Elastic Constant Matrix: (Units=GPa)
#
#
# Indices 1 2 3 4 5 6 
#
# 1 87.0141 36.9114 17.5796 0.0003 -0.0013 0.0013
# 2 36.9114 67.1005 11.5899 -0.0068 0.0088 -0.0082
# 3 17.5796 11.5899 50.5545 0.0011 0.0190 -0.0146
# 4 0.0003 -0.0068 0.0011 18.9840 0.0129 -0.0106
# 5 -0.0013 0.0088 0.0190 0.0129 31.4979 -0.0032
# 6 0.0013 -0.0082 -0.0146 -0.0106 -0.0032 19.3570
#
#
#
# Elastic Compliance Matrix: (Units=1/GPa)
#
#
# Indices 1 2 3 4 5 6 
#
# 1 0.015595 -0.007957 -0.003599 -0.000003 0.000005 -0.000007
# 2 -0.007957 0.019577 -0.001721 0.000007 -0.000005 0.000008
# 3 -0.003599 -0.001721 0.021427 -0.000002 -0.000013 0.000016
# 4 -0.000003 0.000007 -0.000002 0.052676 -0.000022 0.000029
# 5 0.000005 -0.000005 -0.000013 -0.000022 0.031748 0.000005
# 6 -0.000007 0.000008 0.000016 0.000029 0.000005 0.051661
#
#
# Mechanical properties :
#
#
# Convention : Reuss Voigt Hill
#
# Bulk Modulus (GPa) = 33.28350 37.42565 35.35457
# Shear Modulus (GPa) = 21.80999 23.20700 22.50849
#
# Velocity S-wave (km/s) = 3.16907 3.26899 3.21942
# Velocity P-wave (km/s) = 5.35882 5.61088 5.48630
#
# Compressibility (1/GPa) = 0.03004492
#
# Stress axis : x y z
#
# Youngs Moduli (GPa) = 64.12392 51.07928 46.67090
#
# Poissons Ratio (x) = 0.40644 0.16795
# Poissons Ratio (y) = 0.51023 0.08033
# Poissons Ratio (z) = 0.23076 0.08792
#
# Static dielectric constant tensor:
#      x y z
#    x 1.794790 0.000000 0.000000 
#    y 0.000000 1.789060 -0.000010 
#    z 0.000000 -0.000010 1.829590 
# 
# From -- ./inp_files/2490.got.cif
#   From: 2010.05.17/outbox.cif.g08.bks.cpg/sg24_2_cif.got.tgz:2490.got - 2010.06.04 00:33:39.
