data_PCOD9334871
_publ_section_title
;
Structure prediction by ZEFSAII (Michael W. Deem and Ramdas Pophale) SiO2 
 PCOD9334871
Probable space group: I 21 21 21
;
_chemical_formula_sum "Si O2"
_cell_formula_units_Z 40
_cell_length_a 5.338628
_cell_length_b 18.018070
_cell_length_c 17.427296
_cell_angle_alpha 90.000000
_cell_angle_beta 90.000000
_cell_angle_gamma 90.000000
_cell_volume 1676.362501
_symmetry_space_group_name_H-M "I 21 21 21"
_symmetry_group_IT_number 24
_symmetry_cell_setting 'orthorhombic'
loop_
_space_group_symop_operation_xyz
x,y,z
-x,1/2-y,z
x,-y,1/2-z
1/2-x,y,-z
1/2+x,1/2+y,1/2+z
1/2-x,-y,1/2+z
1/2+x,1/2-y,-z
-x,1/2+y,1/2-z
loop_
_atom_site_type_symbol
_atom_site_label
_atom_site_fract_x
_atom_site_fract_y
_atom_site_fract_z
Si Si1 0.762257 0.892725 0.684234
Si Si2 0.000000 0.750000 0.454721
Si Si3 0.500000 0.750000 0.289569
Si Si4 0.989674 0.584471 0.451259
Si Si5 0.619330 0.353814 0.690153
Si Si6 0.000000 0.750000 0.050517
Si Si7 0.653727 0.500000 0.250000
O O1 0.870017 0.812746 0.657660
O O2 0.569200 0.940333 0.633462
O O3 0.636186 0.865679 0.762726
O O4 0.986960 0.948253 0.695791
O O5 0.250000 0.730232 0.500000
O O6 0.925062 0.669262 0.423930
O O7 0.301671 0.796275 0.236918
O O8 0.250000 0.576890 0.500000
O O9 0.750000 0.558348 0.500000
O O10 0.564501 0.318385 0.607803
O O11 0.728646 0.436207 0.696236
O O12 0.750000 0.763963 0.000000
#
# Coordination Sequence:
#
# PCOD9334871 Si02
#       7
#     8   4   4   8   8   4   4
#     4  11  23  41  74 101 146 205 257 324 383 480
#     4   8  16  30  46  79 121 160 198 258 328 396
#     4  10  21  37  74 111 143 186 262 320 385 461
#     4  10  23  38  60  96 140 182 235 295 363 435
#     4  11  23  47  75 114 151 202 268 334 408 502
#     4  12  27  47  86 128 166 202 268 358 439 491
#     4  10  26  44  78 104 152 206 280 322 408 486
#
# _framework density 23.861187999999999
#
# number of rings (size 3 to 8) (size 9 to 14) (size 15 to 20)
#    0.000    1.600    2.000    1.200   11.200    3.200 
#    0.000    0.000    8.800    0.000    0.000    1.400 
#    0.000    0.000    0.000    0.000    0.000    0.000 
#
# Total GULP energy -111420.710845 kJ/mol
# GULP energy per Si atom -5571.035542 kJ/mol
# Density = 2.380688 g / cm^3
# Si number density = 23.861188 Si / 1000 Ang^3
#
#
#
# Elastic Constant Matrix: (Units=GPa)
#
#
# Indices 1 2 3 4 5 6 
#
# 1 146.0162 65.0385 62.1198 0.0000 0.0000 0.0000
# 2 65.0385 165.0536 47.5248 0.0000 0.0000 0.0000
# 3 62.1198 47.5248 124.3656 0.0000 0.0000 0.0000
# 4 0.0000 0.0000 0.0000 67.6485 0.0000 0.0000
# 5 0.0000 0.0000 0.0000 0.0000 -56.8809 0.0000
# 6 0.0000 0.0000 0.0000 0.0000 0.0000 14.2169
#
#
#
# Elastic Compliance Matrix: (Units=1/GPa)
#
#
# Indices 1 2 3 4 5 6 
#
# 1 0.009673 -0.002720 -0.003792 0.000000 0.000000 0.000000
# 2 -0.002720 0.007572 -0.001535 0.000000 0.000000 0.000000
# 3 -0.003792 -0.001535 0.010522 0.000000 0.000000 0.000000
# 4 0.000000 0.000000 0.000000 0.014782 0.000000 0.000000
# 5 0.000000 0.000000 0.000000 0.000000 -0.017581 0.000000
# 6 0.000000 0.000000 0.000000 0.000000 0.000000 0.070339
#
#
# Mechanical properties :
#
#
# Convention : Reuss Voigt Hill
#
# Bulk Modulus (GPa) = 85.66993 87.20019 86.43506
# Shear Modulus (GPa) = 43.36740 22.38038 32.87389
#
# Velocity S-wave (km/s) = 4.26782 3.06590 3.71578
# Velocity P-wave (km/s) = 7.76319 7.01122 7.39677
#
# Compressibility (1/GPa) = 0.01167271
#
# Stress axis : x y z
#
# Youngs Moduli (GPa) = 103.37585 132.05875 95.04083
#
# Poissons Ratio (x) = 0.35917 0.36044
# Poissons Ratio (y) = 0.28116 0.14591
# Poissons Ratio (z) = 0.39205 0.20274
#
# Static dielectric constant tensor:
#      x y z
#    x 1.688490 0.000000 0.000000 
#    y 0.000000 2.120280 0.000000 
#    z 0.000000 0.000000 2.022690 
# 
# From -- ./inp_files/28641.got.cif
#   From: 2010.05.17/outbox.cif.g08.bks.cpg/sg24_15_cif.got.tgz:28641.got - 2010.06.04 00:33:39.
