data_PCOD9334946
_publ_section_title
;
Structure prediction by ZEFSAII (Michael W. Deem and Ramdas Pophale) SiO2 
 PCOD9334946
Probable space group: I 21 21 21
;
_chemical_formula_sum "Si O2"
_cell_formula_units_Z 44
_cell_length_a 17.485548
_cell_length_b 7.993556
_cell_length_c 12.521323
_cell_angle_alpha 90.000000
_cell_angle_beta 90.000000
_cell_angle_gamma 90.000000
_cell_volume 1750.126691
_symmetry_space_group_name_H-M "I 21 21 21"
_symmetry_group_IT_number 24
_symmetry_cell_setting 'orthorhombic'
loop_
_space_group_symop_operation_xyz
x,y,z
-x,1/2-y,z
x,-y,1/2-z
1/2-x,y,-z
1/2+x,1/2+y,1/2+z
1/2-x,-y,1/2+z
1/2+x,1/2-y,-z
-x,1/2+y,1/2-z
loop_
_atom_site_type_symbol
_atom_site_label
_atom_site_fract_x
_atom_site_fract_y
_atom_site_fract_z
Si Si1 0.386813 0.114942 0.604041
Si Si2 0.193891 0.311478 0.800847
Si Si3 0.875490 0.755402 0.320768
Si Si4 0.105227 0.708287 0.896171
Si Si5 0.427878 0.631229 0.465986
Si Si6 0.250000 0.241351 0.500000
O O1 0.404615 0.245899 0.698397
O O2 0.419497 0.164528 0.488915
O O3 0.294782 0.130350 0.585028
O O4 0.401214 0.926112 0.635443
O O5 0.193913 0.500000 0.750000
O O6 0.282974 0.266037 0.813507
O O7 0.136315 0.221735 0.714840
O O8 0.148249 0.293205 0.911074
O O9 0.908895 0.884533 0.407295
O O10 0.057644 0.539587 0.899097
O O11 0.185181 0.647376 0.950445
O O12 0.500000 0.750000 0.453084
#
# Coordination Sequence:
#
# PCOD9334946 Si02
#       6
#     8   8   8   8   8   4
#     4   9  20  35  61  98 128 155 204 277 337 388
#     4  10  21  38  68  94 122 169 225 280 332 391
#     4  11  21  37  64  96 128 157 217 277 328 389
#     4   9  19  40  64  89 128 165 213 265 334 401
#     4  11  26  40  57  90 133 172 217 270 322 400
#     4   8  16  34  62  94 122 148 212 254 340 380
#
# _framework density 25.141038000000002
#
# number of rings (size 3 to 8) (size 9 to 14) (size 15 to 20)
#    1.091    1.091    1.818    0.545   10.182    0.000 
#    0.000   10.000    0.000    0.000    0.000    0.000 
#    0.000    0.000    0.000    0.000    0.000    0.000 
#
# Total GULP energy -122538.394268 kJ/mol
# GULP energy per Si atom -5569.927012 kJ/mol
# Density = 2.508382 g / cm^3
# Si number density = 25.141038 Si / 1000 Ang^3
#
#
#
# Elastic Constant Matrix: (Units=GPa)
#
#
# Indices 1 2 3 4 5 6 
#
# 1 111.8540 8.9311 8.6157 0.0000 0.0000 0.0000
# 2 8.9311 50.8446 19.4467 0.0000 0.0000 0.0000
# 3 8.6157 19.4467 89.9445 0.0000 0.0000 0.0000
# 4 0.0000 0.0000 0.0000 27.4413 0.0000 0.0000
# 5 0.0000 0.0000 0.0000 0.0000 -21.1229 0.0000
# 6 0.0000 0.0000 0.0000 0.0000 0.0000 27.4813
#
#
#
# Elastic Compliance Matrix: (Units=1/GPa)
#
#
# Indices 1 2 3 4 5 6 
#
# 1 0.009094 -0.001378 -0.000573 0.000000 0.000000 0.000000
# 2 -0.001378 0.021650 -0.004549 0.000000 0.000000 0.000000
# 3 -0.000573 -0.004549 0.012156 0.000000 0.000000 0.000000
# 4 0.000000 0.000000 0.000000 0.036441 0.000000 0.000000
# 5 0.000000 0.000000 0.000000 0.000000 -0.047342 0.000000
# 6 0.000000 0.000000 0.000000 0.000000 0.000000 0.036388
#
#
# Mechanical properties :
#
#
# Convention : Reuss Voigt Hill
#
# Bulk Modulus (GPa) = 33.44482 36.29225 34.86854
# Shear Modulus (GPa) = 54.73137 21.13659 37.93398
#
# Velocity S-wave (km/s) = 4.67087 2.90266 3.88860
# Velocity P-wave (km/s) = 6.51315 5.06959 5.83617
#
# Compressibility (1/GPa) = 0.02989999
#
# Stress axis : x y z
#
# Youngs Moduli (GPa) = 109.95749 46.19007 82.26147
#
# Poissons Ratio (x) = 0.06366 0.04715
# Poissons Ratio (y) = 0.15155 0.37419
# Poissons Ratio (z) = 0.06302 0.21011
#
# Static dielectric constant tensor:
#      x y z
#    x 2.011920 0.000000 0.000000 
#    y 0.000000 2.071650 0.000000 
#    z 0.000000 0.000000 2.140470 
# 
# From -- ./inp_files/26966.got.cif
#   From: 2010.05.17/outbox.cif.g08.bks.cpg/sg24_14_cif.got.tgz:26966.got - 2010.06.04 00:33:39.
