data_PCOD9334143
_publ_section_title
;
Structure prediction by ZEFSAII (Michael W. Deem and Ramdas Pophale) SiO2 
 PCOD9334143
Probable space group: I 21 21 21
;
_chemical_formula_sum "Si O2"
_cell_formula_units_Z 48
_cell_length_a 18.956917
_cell_length_b 16.601267
_cell_length_c 8.492088
_cell_angle_alpha 90.000000
_cell_angle_beta 90.000000
_cell_angle_gamma 90.000000
_cell_volume 2672.535169
_symmetry_space_group_name_H-M "I 21 21 21"
_symmetry_group_IT_number 24
_symmetry_cell_setting 'orthorhombic'
loop_
_space_group_symop_operation_xyz
x,y,z
-x,1/2-y,z
x,-y,1/2-z
1/2-x,y,-z
1/2+x,1/2+y,1/2+z
1/2-x,-y,1/2+z
1/2+x,1/2-y,-z
-x,1/2+y,1/2-z
loop_
_atom_site_type_symbol
_atom_site_label
_atom_site_fract_x
_atom_site_fract_y
_atom_site_fract_z
Si Si1 0.722688 0.000000 0.750000
Si Si2 0.368736 0.369983 0.566335
Si Si3 0.980900 0.594262 0.228011
Si Si4 0.957129 0.180816 0.985031
Si Si5 0.634895 0.715505 0.732579
Si Si6 0.829383 0.864321 0.699668
Si Si7 0.750000 0.728373 0.500000
O O1 0.673600 0.054616 0.639402
O O2 0.775150 0.063725 0.829828
O O3 0.451128 0.384745 0.616821
O O4 0.343238 0.286644 0.648137
O O5 0.348316 0.362277 0.383954
O O6 0.969134 0.500000 0.250000
O O7 0.912402 0.647505 0.184526
O O8 0.997471 0.623689 0.405446
O O9 0.903840 0.127633 0.886762
O O10 0.000000 0.250000 0.891624
O O11 0.914129 0.234080 0.111745
O O12 0.697291 0.683562 0.619781
O O13 0.794727 0.785862 0.618299
#
# Coordination Sequence:
#
# PCOD9334143 Si02
#       7
#     4   8   8   8   8   8   4
#     4  12  24  32  48  86 126 144 178 226 286 340
#     4  11  22  36  54  80 117 151 186 227 281 343
#     4  10  20  36  58  79 109 149 192 236 281 340
#     4   8  18  36  53  76 111 148 185 223 281 343
#     4   9  19  36  57  79 105 147 188 229 284 345
#     4  11  24  32  56  82 115 155 184 230 276 348
#     4  10  20  38  56  80 112 146 192 226 290 344
#
# _framework density 17.960474999999999
#
# number of rings (size 3 to 8) (size 9 to 14) (size 15 to 20)
#    0.000    2.000    2.500    2.000    4.667    1.333 
#    0.000    0.000    0.000    2.000    0.000    0.000 
#    0.000    0.000    0.000    0.000    0.000    0.000 
#
# Total GULP energy -133625.199579 kJ/mol
# GULP energy per Si atom -5567.716649 kJ/mol
# Density = 1.791960 g / cm^3
# Si number density = 17.960475 Si / 1000 Ang^3
#
#
#
# Elastic Constant Matrix: (Units=GPa)
#
#
# Indices 1 2 3 4 5 6 
#
# 1 69.7289 38.0510 35.1177 0.0000 0.0000 0.0000
# 2 38.0510 62.3593 39.1411 0.0000 0.0000 0.0000
# 3 35.1177 39.1411 94.7141 0.0000 0.0000 0.0000
# 4 0.0000 0.0000 0.0000 12.7173 0.0000 0.0000
# 5 0.0000 0.0000 0.0000 0.0000 25.9297 0.0000
# 6 0.0000 0.0000 0.0000 0.0000 0.0000 33.6752
#
#
#
# Elastic Compliance Matrix: (Units=1/GPa)
#
#
# Indices 1 2 3 4 5 6 
#
# 1 0.022366 -0.011399 -0.003582 0.000000 0.000000 0.000000
# 2 -0.011399 0.027462 -0.007122 0.000000 0.000000 0.000000
# 3 -0.003582 -0.007122 0.014830 0.000000 0.000000 0.000000
# 4 0.000000 0.000000 0.000000 0.078633 0.000000 0.000000
# 5 0.000000 0.000000 0.000000 0.000000 0.038566 0.000000
# 6 0.000000 0.000000 0.000000 0.000000 0.000000 0.029695
#
#
# Mechanical properties :
#
#
# Convention : Reuss Voigt Hill
#
# Bulk Modulus (GPa) = 48.89816 50.15799 49.52808
# Shear Modulus (GPa) = 19.04213 22.09727 20.56970
#
# Velocity S-wave (km/s) = 3.25964 3.51141 3.38786
# Velocity P-wave (km/s) = 6.43829 6.66539 6.55282
#
# Compressibility (1/GPa) = 0.02045067
#
# Stress axis : x y z
#
# Youngs Moduli (GPa) = 44.71142 36.41374 67.43294
#
# Poissons Ratio (x) = 0.41508 0.24154
# Poissons Ratio (y) = 0.50967 0.48028
# Poissons Ratio (z) = 0.16015 0.25935
#
# Static dielectric constant tensor:
#      x y z
#    x 1.712880 0.000000 0.000000 
#    y 0.000000 1.628440 0.000000 
#    z 0.000000 0.000000 1.635440 
# 
# From -- ./inp_files/15328.got.cif
#   From: 2010.05.17/outbox.cif.g08.bks.cpg/sg24_8_cif.got.tgz:15328.got - 2010.06.04 00:33:39.
