data_PCOD9334545
_publ_section_title
;
Structure prediction by ZEFSAII (Michael W. Deem and Ramdas Pophale) SiO2 
 PCOD9334545
Probable space group: I 21 21 21
;
_chemical_formula_sum "Si O2"
_cell_formula_units_Z 36
_cell_length_a 7.617833
_cell_length_b 8.186904
_cell_length_c 30.056388
_cell_angle_alpha 90.000000
_cell_angle_beta 90.000000
_cell_angle_gamma 90.000000
_cell_volume 1874.510744
_symmetry_space_group_name_H-M "I 21 21 21"
_symmetry_group_IT_number 24
_symmetry_cell_setting 'orthorhombic'
loop_
_space_group_symop_operation_xyz
x,y,z
-x,1/2-y,z
x,-y,1/2-z
1/2-x,y,-z
1/2+x,1/2+y,1/2+z
1/2-x,-y,1/2+z
1/2+x,1/2-y,-z
-x,1/2+y,1/2-z
loop_
_atom_site_type_symbol
_atom_site_label
_atom_site_fract_x
_atom_site_fract_y
_atom_site_fract_z
Si Si1 0.000000 0.750000 0.667598
Si Si2 0.851677 0.393875 0.205720
Si Si3 0.106641 0.997579 0.389936
Si Si4 0.773223 0.152620 0.908044
Si Si5 0.000000 0.750000 0.047324
Si Si6 0.750000 0.999325 0.000000
O O1 0.159234 0.815372 0.697571
O O2 0.089686 0.624859 0.631986
O O3 0.865064 0.500000 0.250000
O O4 0.872633 0.510517 0.162727
O O5 0.000000 0.250000 0.203855
O O6 0.222593 0.843907 0.405479
O O7 0.905177 0.943437 0.397301
O O8 0.134281 0.155894 0.419883
O O9 0.819507 0.103997 0.958193
O O10 0.096110 0.616942 0.017582
#
# Coordination Sequence:
#
# PCOD9334545 Si02
#       6
#     4   8   8   8   4   4
#     4  10  20  40  60  95 118 159 214 264 312 384
#     4  11  23  41  66  92 123 167 217 266 327 394
#     4   9  18  39  57  81 117 166 195 251 318 379
#     4   9  18  36  61  79 120 163 210 246 301 387
#     4  10  22  34  56  87 130 149 206 266 316 362
#     4  10  22  36  54  90 118 166 212 258 304 382
#
# _framework density 19.205012
#
# number of rings (size 3 to 8) (size 9 to 14) (size 15 to 20)
#    0.000    2.222    4.444    0.000    1.556    8.889 
#    0.000    0.000    0.000    0.000    0.000    0.000 
#    0.000    0.000    0.000    0.000    0.000    0.000 
#
# Total GULP energy -100282.766542 kJ/mol
# GULP energy per Si atom -5571.264808 kJ/mol
# Density = 1.916130 g / cm^3
# Si number density = 19.205012 Si / 1000 Ang^3
#
#
#
# Elastic Constant Matrix: (Units=GPa)
#
#
# Indices 1 2 3 4 5 6 
#
# 1 91.7159 13.7094 25.9966 0.0000 0.0000 0.0000
# 2 13.7094 47.6045 56.6285 0.0000 0.0000 0.0000
# 3 25.9966 56.6285 165.8862 0.0000 0.0000 0.0000
# 4 0.0000 0.0000 0.0000 32.8003 0.0000 0.0000
# 5 0.0000 0.0000 0.0000 0.0000 18.6395 0.0000
# 6 0.0000 0.0000 0.0000 0.0000 0.0000 11.1058
#
#
#
# Elastic Compliance Matrix: (Units=1/GPa)
#
#
# Indices 1 2 3 4 5 6 
#
# 1 0.011519 -0.001970 -0.001133 0.000000 0.000000 0.000000
# 2 -0.001970 0.035706 -0.011880 0.000000 0.000000 0.000000
# 3 -0.001133 -0.011880 0.010261 0.000000 0.000000 0.000000
# 4 0.000000 0.000000 0.000000 0.030488 0.000000 0.000000
# 5 0.000000 0.000000 0.000000 0.000000 0.053649 0.000000
# 6 0.000000 0.000000 0.000000 0.000000 0.000000 0.090043
#
#
# Mechanical properties :
#
#
# Convention : Reuss Voigt Hill
#
# Bulk Modulus (GPa) = 36.33653 55.31951 45.82802
# Shear Modulus (GPa) = 18.46346 26.43392 22.44869
#
# Velocity S-wave (km/s) = 3.10399 3.71402 3.42262
# Velocity P-wave (km/s) = 5.63984 6.87453 6.28756
#
# Compressibility (1/GPa) = 0.02752051
#
# Stress axis : x y z
#
# Youngs Moduli (GPa) = 86.81505 28.00648 97.45357
#
# Poissons Ratio (x) = 0.05517 0.11039
# Poissons Ratio (y) = 0.17101 1.15777
# Poissons Ratio (z) = 0.09834 0.33272
#
# Static dielectric constant tensor:
#      x y z
#    x 1.716780 0.000000 0.000000 
#    y 0.000000 1.689360 0.000000 
#    z 0.000000 0.000000 1.690060 
# 
# From -- ./inp_files/9442.got.cif
#   From: 2010.05.17/outbox.cif.g08.bks.cpg/sg24_5_cif.got.tgz:9442.got - 2010.06.04 00:33:39.
