data_PCOD9334979
_publ_section_title
;
Structure prediction by ZEFSAII (Michael W. Deem and Ramdas Pophale) SiO2 
 PCOD9334979
Probable space group: I 21 21 21
;
_chemical_formula_sum "Si O2"
_cell_formula_units_Z 28
_cell_length_a 7.260366
_cell_length_b 32.572402
_cell_length_c 5.069751
_cell_angle_alpha 90.000000
_cell_angle_beta 90.000000
_cell_angle_gamma 90.000000
_cell_volume 1198.933044
_symmetry_space_group_name_H-M "I 21 21 21"
_symmetry_group_IT_number 24
_symmetry_cell_setting 'orthorhombic'
loop_
_space_group_symop_operation_xyz
x,y,z
-x,1/2-y,z
x,-y,1/2-z
1/2-x,y,-z
1/2+x,1/2+y,1/2+z
1/2-x,-y,1/2+z
1/2+x,1/2-y,-z
-x,1/2+y,1/2-z
loop_
_atom_site_type_symbol
_atom_site_label
_atom_site_fract_x
_atom_site_fract_y
_atom_site_fract_z
Si Si1 0.128213 0.000000 0.250000
Si Si2 0.378387 0.711014 0.248393
Si Si3 0.526253 0.128111 0.029729
Si Si4 0.030348 0.583359 0.029462
O O1 0.250000 0.987182 0.500000
O O2 0.015549 0.038844 0.357411
O O3 0.500000 0.750000 0.172867
O O4 0.250000 0.721587 0.500000
O O5 0.502362 0.672880 0.347491
O O6 0.250000 0.698673 0.000000
O O7 0.460561 0.094302 0.239147
O O8 0.750000 0.126018 0.000000
O O9 0.460212 0.117007 0.739216
O O10 0.250000 0.586218 0.000000
#
# Coordination Sequence:
#
# PCOD9334979 Si02
#       4
#     4   8   8   8
#     4  12  26  42  58  90 132 158 182 246 322 362
#     4  11  22  39  61  90 124 159 197 246 300 354
#     4   9  18  36  62  86 112 150 202 250 284 331
#     4  10  21  39  63  85 108 155 210 243 277 349
#
# _framework density 23.354099999999999
#
# number of rings (size 3 to 8) (size 9 to 14) (size 15 to 20)
#    0.000    1.714    0.000    6.857    0.000    4.571 
#    0.000    8.571    0.000    0.000    0.000    0.000 
#    0.000    0.000    0.000    0.000    0.000    0.000 
#
# Total GULP energy -78268.613095 kJ/mol
# GULP energy per Si atom -5590.615221 kJ/mol
# Density = 2.330095 g / cm^3
# Si number density = 23.354100 Si / 1000 Ang^3
#
#
#
# Elastic Constant Matrix: (Units=GPa)
#
#
# Indices 1 2 3 4 5 6 
#
# 1 55.0825 18.6730 24.8618 0.0023 0.0006 0.0041
# 2 18.6730 152.1194 45.6909 0.0301 -0.0016 0.0097
# 3 24.8618 45.6909 135.2165 0.0456 -0.0122 -0.0043
# 4 0.0023 0.0301 0.0456 40.1953 0.0027 0.0006
# 5 0.0006 -0.0016 -0.0122 0.0027 13.0486 0.0118
# 6 0.0041 0.0097 -0.0043 0.0006 0.0118 8.1280
#
#
#
# Elastic Compliance Matrix: (Units=1/GPa)
#
#
# Indices 1 2 3 4 5 6 
#
# 1 0.020105 -0.001511 -0.003186 0.000004 -0.000004 -0.000010
# 2 -0.001511 0.007430 -0.002233 -0.000003 -0.000001 -0.000009
# 3 -0.003186 -0.002233 0.008736 -0.000008 0.000008 0.000009
# 4 0.000004 -0.000003 -0.000008 0.024879 -0.000005 -0.000002
# 5 -0.000004 -0.000001 0.000008 -0.000005 0.076637 -0.000111
# 6 -0.000010 -0.000009 0.000009 -0.000002 -0.000111 0.123031
#
#
# Mechanical properties :
#
#
# Convention : Reuss Voigt Hill
#
# Bulk Modulus (GPa) = 44.62098 57.87441 51.24770
# Shear Modulus (GPa) = 17.72126 29.15391 23.43758
#
# Velocity S-wave (km/s) = 2.75763 3.53702 3.17136
# Velocity P-wave (km/s) = 5.41176 6.44327 5.94991
#
# Compressibility (1/GPa) = 0.02241098
#
# Stress axis : x y z
#
# Youngs Moduli (GPa) = 49.73923 134.59114 114.47086
#
# Poissons Ratio (x) = 0.20336 0.36471
# Poissons Ratio (y) = 0.07515 0.25559
# Poissons Ratio (z) = 0.15847 0.30052
#
# Static dielectric constant tensor:
#      x y z
#    x 1.897550 0.000000 0.000000 
#    y 0.000000 1.890340 0.000000 
#    z 0.000000 0.000000 1.849570 
# 
# From -- ./inp_files/1009.got.cif
#   From: 2010.05.17/outbox.cif.g08.bks.cpg/sg24_1_cif.got.tgz:1009.got - 2010.06.04 00:33:39.
