data_PCOD9334837
_publ_section_title
;
Structure prediction by ZEFSAII (Michael W. Deem and Ramdas Pophale) SiO2 
 PCOD9334837
Probable space group: I 21 21 21
;
_chemical_formula_sum "Si O2"
_cell_formula_units_Z 64
_cell_length_a 15.370827
_cell_length_b 22.143674
_cell_length_c 9.316892
_cell_angle_alpha 90.000000
_cell_angle_beta 90.000000
_cell_angle_gamma 90.000000
_cell_volume 3171.158687
_symmetry_space_group_name_H-M "I 21 21 21"
_symmetry_group_IT_number 24
_symmetry_cell_setting 'orthorhombic'
loop_
_space_group_symop_operation_xyz
x,y,z
-x,1/2-y,z
x,-y,1/2-z
1/2-x,y,-z
1/2+x,1/2+y,1/2+z
1/2-x,-y,1/2+z
1/2+x,1/2-y,-z
-x,1/2+y,1/2-z
loop_
_atom_site_type_symbol
_atom_site_label
_atom_site_fract_x
_atom_site_fract_y
_atom_site_fract_z
Si Si1 0.563500 0.872109 0.150671
Si Si2 0.998940 0.431779 0.937515
Si Si3 0.823208 0.533746 0.399070
Si Si4 0.560387 0.696096 0.931300
Si Si5 0.694216 0.667717 0.693306
Si Si6 0.161646 0.485912 0.582237
Si Si7 0.642005 0.255630 0.290550
Si Si8 0.445052 0.195548 0.021245
O O1 0.511758 0.913713 0.268302
O O2 0.499147 0.847195 0.028826
O O3 0.632307 0.916513 0.076403
O O4 0.616223 0.815371 0.222169
O O5 0.080811 0.473507 0.971981
O O6 0.908672 0.458553 0.999695
O O7 0.997000 0.365408 0.006341
O O8 0.843121 0.500000 0.250000
O O9 0.750000 0.503641 0.500000
O O10 0.782845 0.598798 0.347970
O O11 0.500000 0.750000 0.872428
O O12 0.624209 0.727730 0.045619
O O13 0.617653 0.664398 0.811583
O O14 0.766378 0.714786 0.746936
O O15 0.648120 0.692934 0.551814
O O16 0.174673 0.500000 0.750000
O O17 0.250000 0.498265 0.500000
O O18 0.574456 0.291814 0.188416
O O19 0.500000 0.250000 0.963393
#
# Coordination Sequence:
#
# PCOD9334837 Si02
#       8
#     8   8   8   8   8   8   8   8
#     4  10  21  40  70  94 126 185 225 267 340 408
#     4  10  21  44  69  94 130 178 225 278 340 408
#     4  11  27  46  68 101 136 178 236 285 351 418
#     4  10  21  37  60  94 132 171 219 259 331 407
#     4  11  24  38  59  99 136 164 218 282 340 392
#     4  10  24  45  66  96 132 172 230 279 331 405
#     4  11  20  39  65  92 130 174 217 267 331 403
#     4  11  19  39  64  90 125 168 217 273 331 404
#
# _framework density 20.181898
#
# number of rings (size 3 to 8) (size 9 to 14) (size 15 to 20)
#    0.000    1.500    2.500    3.000    1.750    5.000 
#    6.750    0.000    0.000    0.000    0.000    0.000 
#    0.000    0.000    0.000    0.000    0.000    0.000 
#
# Total GULP energy -178401.696886 kJ/mol
# GULP energy per Si atom -5575.053028 kJ/mol
# Density = 2.013596 g / cm^3
# Si number density = 20.181898 Si / 1000 Ang^3
#
#
#
# Elastic Constant Matrix: (Units=GPa)
#
#
# Indices 1 2 3 4 5 6 
#
# 1 116.7592 53.9931 34.3072 0.0000 0.0000 0.0000
# 2 53.9931 82.2981 12.2933 0.0000 0.0000 0.0000
# 3 34.3072 12.2933 79.4675 0.0000 0.0000 0.0000
# 4 0.0000 0.0000 0.0000 3.5642 0.0000 0.0000
# 5 0.0000 0.0000 0.0000 0.0000 39.0353 0.0000
# 6 0.0000 0.0000 0.0000 0.0000 0.0000 27.8981
#
#
#
# Elastic Compliance Matrix: (Units=1/GPa)
#
#
# Indices 1 2 3 4 5 6 
#
# 1 0.013800 -0.008357 -0.004665 0.000000 0.000000 0.000000
# 2 -0.008357 0.017499 0.000901 0.000000 0.000000 0.000000
# 3 -0.004665 0.000901 0.014458 0.000000 0.000000 0.000000
# 4 0.000000 0.000000 0.000000 0.280566 0.000000 0.000000
# 5 0.000000 0.000000 0.000000 0.000000 0.025618 0.000000
# 6 0.000000 0.000000 0.000000 0.000000 0.000000 0.035845
#
#
# Mechanical properties :
#
#
# Convention : Reuss Voigt Hill
#
# Bulk Modulus (GPa) = 46.47846 53.30133 49.88989
# Shear Modulus (GPa) = 11.92751 25.96161 18.94456
#
# Velocity S-wave (km/s) = 2.43369 3.59051 3.06713
# Velocity P-wave (km/s) = 5.56569 6.60733 6.10875
#
# Compressibility (1/GPa) = 0.02151534
#
# Stress axis : x y z
#
# Youngs Moduli (GPa) = 72.46545 57.14619 69.16456
#
# Poissons Ratio (x) = 0.47755 0.32264
# Poissons Ratio (y) = 0.60557 -0.06230
# Poissons Ratio (z) = 0.33803 -0.05147
#
# Static dielectric constant tensor:
#      x y z
#    x 1.737200 0.000000 0.000000 
#    y 0.000000 1.744470 0.000000 
#    z 0.000000 0.000000 1.729050 
# 
# From -- ./inp_files/13370.got.cif
#   From: 2010.05.17/outbox.cif.g08.bks.cpg/sg24_7_cif.got.tgz:13370.got - 2010.06.04 00:33:39.
