data_PCOD9334032
_publ_section_title
;
Structure prediction by ZEFSAII (Michael W. Deem and Ramdas Pophale) SiO2 
 PCOD9334032
Probable space group: I 21 21 21
;
_chemical_formula_sum "Si O2"
_cell_formula_units_Z 44
_cell_length_a 21.939154
_cell_length_b 11.243502
_cell_length_c 9.564694
_cell_angle_alpha 90.000000
_cell_angle_beta 90.000000
_cell_angle_gamma 90.000000
_cell_volume 2359.351016
_symmetry_space_group_name_H-M "I 21 21 21"
_symmetry_group_IT_number 24
_symmetry_cell_setting 'orthorhombic'
loop_
_space_group_symop_operation_xyz
x,y,z
-x,1/2-y,z
x,-y,1/2-z
1/2-x,y,-z
1/2+x,1/2+y,1/2+z
1/2-x,-y,1/2+z
1/2+x,1/2-y,-z
-x,1/2+y,1/2-z
loop_
_atom_site_type_symbol
_atom_site_label
_atom_site_fract_x
_atom_site_fract_y
_atom_site_fract_z
Si Si1 0.250000 0.352838 0.500000
Si Si2 0.084622 0.866371 0.718555
Si Si3 0.177153 0.918818 0.499163
Si Si4 0.300886 0.500000 0.750000
Si Si5 0.000000 0.750000 0.489515
Si Si6 0.113662 0.720359 0.307909
Si Si7 0.869381 0.690996 0.004427
O O1 0.260793 0.436993 0.632419
O O2 0.308665 0.269023 0.483197
O O3 0.151623 0.871182 0.647665
O O4 0.039833 0.826043 0.597025
O O5 0.066451 0.000000 0.750000
O O6 0.089288 0.798550 0.865429
O O7 0.250000 0.921790 0.500000
O O8 0.149762 0.828946 0.383622
O O9 0.150271 0.052135 0.481108
O O10 0.343854 0.604366 0.689999
O O11 0.948929 0.806259 0.389205
O O12 0.102116 0.761602 0.148570
#
# Coordination Sequence:
#
# PCOD9334032 Si02
#       7
#     4   8   8   4   4   8   8
#     4  10  22  38  60  86 132 156 194 244 300 388
#     4   9  21  38  59  90 116 150 197 249 304 353
#     4  10  20  34  64  94 124 151 188 249 312 361
#     4  10  24  40  56  90 124 168 200 232 306 380
#     4  10  22  46  58  80 118 158 214 254 290 352
#     4  10  23  40  60  87 120 165 205 245 301 363
#     4  10  20  37  60  97 116 152 197 253 311 359
#
# _framework density 18.649194999999999
#
# number of rings (size 3 to 8) (size 9 to 14) (size 15 to 20)
#    0.000    2.182    0.909    0.545    6.364    3.636 
#   16.364    0.000    0.000    0.000    0.000    0.000 
#    0.000    0.000    0.000    0.000    0.000    0.000 
#
# Total GULP energy -122657.670447 kJ/mol
# GULP energy per Si atom -5575.348657 kJ/mol
# Density = 1.860675 g / cm^3
# Si number density = 18.649195 Si / 1000 Ang^3
#
#
#
# Elastic Constant Matrix: (Units=GPa)
#
#
# Indices 1 2 3 4 5 6 
#
# 1 79.6720 24.3518 45.0938 0.0000 0.0000 0.0000
# 2 24.3518 87.3467 51.2050 0.0000 0.0000 0.0000
# 3 45.0938 51.2050 135.4729 0.0000 0.0000 0.0000
# 4 0.0000 0.0000 0.0000 26.5796 0.0000 0.0000
# 5 0.0000 0.0000 0.0000 0.0000 25.4413 0.0000
# 6 0.0000 0.0000 0.0000 0.0000 0.0000 -20.2198
#
#
#
# Elastic Compliance Matrix: (Units=1/GPa)
#
#
# Indices 1 2 3 4 5 6 
#
# 1 0.015655 -0.001683 -0.004575 0.000000 0.000000 0.000000
# 2 -0.001683 0.014888 -0.005067 0.000000 0.000000 0.000000
# 3 -0.004575 -0.005067 0.010820 0.000000 0.000000 0.000000
# 4 0.000000 0.000000 0.000000 0.037623 0.000000 0.000000
# 5 0.000000 0.000000 0.000000 0.000000 0.039306 0.000000
# 6 0.000000 0.000000 0.000000 0.000000 0.000000 -0.049456
#
#
# Mechanical properties :
#
#
# Convention : Reuss Voigt Hill
#
# Bulk Modulus (GPa) = 53.43776 60.42142 56.92959
# Shear Modulus (GPa) = 51.16485 18.48296 34.82391
#
# Velocity S-wave (km/s) = 5.24357 3.15157 4.32593
# Velocity P-wave (km/s) = 8.08557 6.76110 7.45281
#
# Compressibility (1/GPa) = 0.01871336
#
# Stress axis : x y z
#
# Youngs Moduli (GPa) = 63.87665 67.16681 92.42396
#
# Poissons Ratio (x) = 0.11301 0.42284
# Poissons Ratio (y) = 0.10748 0.46834
# Poissons Ratio (z) = 0.29224 0.34035
#
# Static dielectric constant tensor:
#      x y z
#    x 1.688090 0.000000 0.000000 
#    y 0.000000 1.632130 0.000000 
#    z 0.000000 0.000000 1.682600 
# 
# From -- ./inp_files/15801.got.cif
#   From: 2010.05.17/outbox.cif.g08.bks.cpg/sg24_8_cif.got.tgz:15801.got - 2010.06.04 00:33:39.
