data_PCOD9334578
_publ_section_title
;
Structure prediction by ZEFSAII (Michael W. Deem and Ramdas Pophale) SiO2 
 PCOD9334578
Probable space group: I 21 21 21
;
_chemical_formula_sum "Si O2"
_cell_formula_units_Z 40
_cell_length_a 24.863809
_cell_length_b 8.437213
_cell_length_c 8.664386
_cell_angle_alpha 90.000000
_cell_angle_beta 90.000000
_cell_angle_gamma 90.000000
_cell_volume 1817.625747
_symmetry_space_group_name_H-M "I 21 21 21"
_symmetry_group_IT_number 24
_symmetry_cell_setting 'orthorhombic'
loop_
_space_group_symop_operation_xyz
x,y,z
-x,1/2-y,z
x,-y,1/2-z
1/2-x,y,-z
1/2+x,1/2+y,1/2+z
1/2-x,-y,1/2+z
1/2+x,1/2-y,-z
-x,1/2+y,1/2-z
loop_
_atom_site_type_symbol
_atom_site_label
_atom_site_fract_x
_atom_site_fract_y
_atom_site_fract_z
Si Si1 0.081587 0.678027 0.232206
Si Si2 0.017818 0.000000 0.750000
Si Si3 0.000000 0.250000 0.002826
Si Si4 0.818823 0.680111 0.083549
Si Si5 0.500000 0.250000 0.475256
Si Si6 0.250000 0.112882 0.000000
Si Si7 0.786692 0.817651 0.775744
O O1 0.104283 0.500000 0.250000
O O2 0.051015 0.747209 0.381884
O O3 0.127015 0.797349 0.175514
O O4 0.038274 0.659487 0.094642
O O5 0.991565 0.895665 0.614352
O O6 0.037566 0.857954 0.863257
O O7 0.791813 0.507153 0.080612
O O8 0.773839 0.796480 0.157282
O O9 0.823551 0.735497 0.905228
O O10 0.283355 0.220011 0.117854
O O11 0.800275 0.000000 0.750000
#
# Coordination Sequence:
#
# PCOD9334578 Si02
#       7
#     8   4   4   8   4   4   8
#     4  11  22  41  64 101 134 184 227 274 338 427
#     4  10  20  44  66  94 122 180 212 292 340 402
#     4  10  22  42  74  90 140 178 228 280 358 398
#     4  10  21  38  62  93 132 170 227 278 325 402
#     4  10  22  42  64  92 138 172 226 268 342 400
#     4  10  20  42  64  98 130 176 220 288 334 394
#     4  10  20  40  66  92 131 177 220 270 345 402
#
# _framework density 22.006730000000001
#
# number of rings (size 3 to 8) (size 9 to 14) (size 15 to 20)
#    0.000    2.000    2.000    4.200    0.000    0.000 
#   12.600    2.000    0.000    0.000    0.000    0.000 
#    0.000    0.000    0.000    0.000    0.000    0.000 
#
# Total GULP energy -111377.110881 kJ/mol
# GULP energy per Si atom -5568.855544 kJ/mol
# Density = 2.195664 g / cm^3
# Si number density = 22.006730 Si / 1000 Ang^3
#
#
#
# Elastic Constant Matrix: (Units=GPa)
#
#
# Indices 1 2 3 4 5 6 
#
# 1 70.8223 19.7779 38.5063 0.0000 0.0000 0.0000
# 2 19.7779 122.2327 56.3133 0.0000 0.0000 0.0000
# 3 38.5063 56.3133 159.4447 0.0000 0.0000 0.0000
# 4 0.0000 0.0000 0.0000 37.7066 0.0000 0.0000
# 5 0.0000 0.0000 0.0000 0.0000 75.2508 0.0000
# 6 0.0000 0.0000 0.0000 0.0000 0.0000 8.3243
#
#
#
# Elastic Compliance Matrix: (Units=1/GPa)
#
#
# Indices 1 2 3 4 5 6 
#
# 1 0.016353 -0.000987 -0.003601 0.000000 0.000000 0.000000
# 2 -0.000987 0.009831 -0.003234 0.000000 0.000000 0.000000
# 3 -0.003601 -0.003234 0.008283 0.000000 0.000000 0.000000
# 4 0.000000 0.000000 0.000000 0.026521 0.000000 0.000000
# 5 0.000000 0.000000 0.000000 0.000000 0.013289 0.000000
# 6 0.000000 0.000000 0.000000 0.000000 0.000000 0.120131
#
#
# Mechanical properties :
#
#
# Convention : Reuss Voigt Hill
#
# Bulk Modulus (GPa) = 53.12288 64.63272 58.87780
# Shear Modulus (GPa) = 23.11338 40.11648 31.61493
#
# Velocity S-wave (km/s) = 3.24433 4.27420 3.79437
# Velocity P-wave (km/s) = 6.18272 7.33428 6.78298
#
# Compressibility (1/GPa) = 0.01882428
#
# Stress axis : x y z
#
# Youngs Moduli (GPa) = 61.15002 101.72334 120.72342
#
# Poissons Ratio (x) = 0.10042 0.43469
# Poissons Ratio (y) = 0.06037 0.39037
# Poissons Ratio (z) = 0.22018 0.32893
#
# Static dielectric constant tensor:
#      x y z
#    x 1.792560 0.000000 0.000000 
#    y 0.000000 1.843830 0.000000 
#    z 0.000000 0.000000 1.844100 
# 
# From -- ./inp_files/15681.got.cif
#   From: 2010.05.17/outbox.cif.g08.bks.cpg/sg24_8_cif.got.tgz:15681.got - 2010.06.04 00:33:39.
