data_PCOD9334317
_publ_section_title
;
Structure prediction by ZEFSAII (Michael W. Deem and Ramdas Pophale) SiO2 
 PCOD9334317
Probable space group: I 21 21 21
;
_chemical_formula_sum "Si O2"
_cell_formula_units_Z 40
_cell_length_a 12.611594
_cell_length_b 14.914493
_cell_length_c 9.640669
_cell_angle_alpha 90.000000
_cell_angle_beta 90.000000
_cell_angle_gamma 90.000000
_cell_volume 1813.366749
_symmetry_space_group_name_H-M "I 21 21 21"
_symmetry_group_IT_number 24
_symmetry_cell_setting 'orthorhombic'
loop_
_space_group_symop_operation_xyz
x,y,z
-x,1/2-y,z
x,-y,1/2-z
1/2-x,y,-z
1/2+x,1/2+y,1/2+z
1/2-x,-y,1/2+z
1/2+x,1/2-y,-z
-x,1/2+y,1/2-z
loop_
_atom_site_type_symbol
_atom_site_label
_atom_site_fract_x
_atom_site_fract_y
_atom_site_fract_z
Si Si1 0.871996 0.000000 0.250000
Si Si2 0.520303 0.643103 0.840946
Si Si3 0.974791 0.580383 0.854326
Si Si4 0.741128 0.673987 0.160302
Si Si5 0.750000 0.937963 0.500000
Si Si6 0.398606 0.299103 0.153272
O O1 0.795702 0.000379 0.380977
O O2 0.942774 0.910216 0.260304
O O3 0.500000 0.750000 0.858362
O O4 0.643518 0.638131 0.801524
O O5 0.502487 0.586825 0.983139
O O6 0.998829 0.500000 0.750000
O O7 0.849244 0.598842 0.847551
O O8 0.042594 0.659046 0.786028
O O9 0.694511 0.738999 0.278834
O O10 0.750000 0.711368 0.000000
O O11 0.841476 0.873718 0.561595
O O12 0.500000 0.250000 0.080174
#
# Coordination Sequence:
#
# PCOD9334317 Si02
#       6
#     4   8   8   8   4   8
#     4  12  30  46  70 100 140 184 236 298 350 430
#     4  11  23  44  69 101 136 183 237 287 353 422
#     4  10  20  37  66  99 137 179 223 283 336 420
#     4   9  19  38  66  98 133 175 225 279 347 417
#     4  12  28  46  66  98 136 182 224 296 360 408
#     4  10  22  41  66  98 130 173 230 282 353 414
#
# _framework density 22.058418
#
# number of rings (size 3 to 8) (size 9 to 14) (size 15 to 20)
#    0.000    1.600    0.000    5.400    5.600    2.400 
#    5.400    0.000    2.200    0.000    0.000    0.000 
#    0.000    0.000    0.000    0.000    0.000    0.000 
#
# Total GULP energy -111581.413513 kJ/mol
# GULP energy per Si atom -5579.070676 kJ/mol
# Density = 2.200821 g / cm^3
# Si number density = 22.058418 Si / 1000 Ang^3
#
#
#
# Elastic Constant Matrix: (Units=GPa)
#
#
# Indices 1 2 3 4 5 6 
#
# 1 130.4770 18.2894 42.5321 0.0000 0.0000 0.0000
# 2 18.2894 63.8293 23.5981 0.0000 0.0000 0.0000
# 3 42.5321 23.5981 59.3381 0.0000 0.0000 0.0000
# 4 0.0000 0.0000 0.0000 28.4409 0.0000 0.0000
# 5 0.0000 0.0000 0.0000 0.0000 21.8509 0.0000
# 6 0.0000 0.0000 0.0000 0.0000 0.0000 31.1443
#
#
#
# Elastic Compliance Matrix: (Units=1/GPa)
#
#
# Indices 1 2 3 4 5 6 
#
# 1 0.010004 -0.000253 -0.007070 0.000000 0.000000 0.000000
# 2 -0.000253 0.018374 -0.007126 0.000000 0.000000 0.000000
# 3 -0.007070 -0.007126 0.024754 0.000000 0.000000 0.000000
# 4 0.000000 0.000000 0.000000 0.035161 0.000000 0.000000
# 5 0.000000 0.000000 0.000000 0.000000 0.045765 0.000000
# 6 0.000000 0.000000 0.000000 0.000000 0.000000 0.032109
#
#
# Mechanical properties :
#
#
# Convention : Reuss Voigt Hill
#
# Bulk Modulus (GPa) = 41.26351 46.94261 44.10306
# Shear Modulus (GPa) = 24.61330 27.56890 26.09110
#
# Velocity S-wave (km/s) = 3.34402 3.53910 3.44294
# Velocity P-wave (km/s) = 5.80147 6.16665 5.98684
#
# Compressibility (1/GPa) = 0.02423449
#
# Stress axis : x y z
#
# Youngs Moduli (GPa) = 99.95629 54.42571 40.39695
#
# Poissons Ratio (x) = 0.01375 0.28562
# Poissons Ratio (y) = 0.02525 0.28786
# Poissons Ratio (z) = 0.70673 0.38783
#
# Static dielectric constant tensor:
#      x y z
#    x 1.843580 0.000000 0.000000 
#    y 0.000000 1.890940 0.000000 
#    z 0.000000 0.000000 1.864660 
# 
# From -- ./inp_files/10738.got.cif
#   From: 2010.05.17/outbox.cif.g08.bks.cpg/sg24_6_cif.got.tgz:10738.got - 2010.06.04 00:33:39.
