data_PCOD9334997
_publ_section_title
;
Structure prediction by ZEFSAII (Michael W. Deem and Ramdas Pophale) SiO2 
 PCOD9334997
Probable space group: I 21 21 21
;
_chemical_formula_sum "Si O2"
_cell_formula_units_Z 64
_cell_length_a 9.002914
_cell_length_b 16.073602
_cell_length_c 20.566220
_cell_angle_alpha 90.000000
_cell_angle_beta 90.000000
_cell_angle_gamma 90.000000
_cell_volume 2976.122405
_symmetry_space_group_name_H-M "I 21 21 21"
_symmetry_group_IT_number 24
_symmetry_cell_setting 'orthorhombic'
loop_
_space_group_symop_operation_xyz
x,y,z
-x,1/2-y,z
x,-y,1/2-z
1/2-x,y,-z
1/2+x,1/2+y,1/2+z
1/2-x,-y,1/2+z
1/2+x,1/2-y,-z
-x,1/2+y,1/2-z
loop_
_atom_site_type_symbol
_atom_site_label
_atom_site_fract_x
_atom_site_fract_y
_atom_site_fract_z
Si Si1 0.840238 0.374052 0.858671
Si Si2 0.335667 0.902878 0.769049
Si Si3 0.813690 0.916324 0.816686
Si Si4 0.307186 0.608980 0.329626
Si Si5 0.377914 0.063060 0.372845
Si Si6 0.425746 0.839458 0.001505
Si Si7 0.448160 0.655541 0.866099
Si Si8 0.324663 0.269970 0.932677
O O1 0.745192 0.359898 0.791968
O O2 0.818610 0.469747 0.880698
O O3 0.771456 0.310205 0.909836
O O4 0.019653 0.370541 0.848560
O O5 0.245760 0.884550 0.835516
O O6 0.498036 0.884016 0.797413
O O7 0.326924 0.000000 0.750000
O O8 0.794410 0.874496 0.746676
O O9 0.728455 0.857674 0.866884
O O10 0.988167 0.932659 0.822162
O O11 0.761607 0.011137 0.831278
O O12 0.203069 0.661971 0.376504
O O13 0.444027 0.098750 0.438518
O O14 0.500000 0.750000 0.011741
O O15 0.250000 0.825863 0.000000
O O16 0.485619 0.877460 0.933976
O O17 0.500000 0.750000 0.863608
O O18 0.500000 0.250000 0.939419
O O19 0.250000 0.299338 0.000000
#
# Coordination Sequence:
#
# PCOD9334997 Si02
#       8
#     8   8   8   8   8   8   8   8
#     4  10  22  43  71 103 132 177 233 286 346 430
#     4  10  21  39  64  96 132 170 222 284 346 407
#     4  10  23  41  69 101 134 179 230 285 350 408
#     4  10  22  45  70  98 139 178 228 288 343 419
#     4  10  21  43  69  95 132 180 229 281 355 419
#     4  11  25  44  63  91 136 179 232 284 350 416
#     4  11  26  41  61  98 140 175 233 291 340 421
#     4  12  28  49  72 104 144 187 231 291 359 430
#
# _framework density 21.504491000000002
#
# number of rings (size 3 to 8) (size 9 to 14) (size 15 to 20)
#    0.000    1.500    2.500    1.125    8.750    1.500 
#    6.750    0.000    0.000    0.000    0.000    0.000 
#    0.000    0.000    0.000    0.000    0.000    0.000 
#
# Total GULP energy -178391.864285 kJ/mol
# GULP energy per Si atom -5574.745759 kJ/mol
# Density = 2.145555 g / cm^3
# Si number density = 21.504491 Si / 1000 Ang^3
#
#
#
# Elastic Constant Matrix: (Units=GPa)
#
#
# Indices 1 2 3 4 5 6 
#
# 1 71.0072 15.1950 11.8285 0.0000 0.0000 0.0000
# 2 15.1950 35.5926 34.2499 0.0000 0.0000 0.0000
# 3 11.8285 34.2499 102.3034 0.0000 0.0000 0.0000
# 4 0.0000 0.0000 0.0000 37.0486 0.0000 0.0000
# 5 0.0000 0.0000 0.0000 0.0000 103.7887 0.0000
# 6 0.0000 0.0000 0.0000 0.0000 0.0000 33.6286
#
#
#
# Elastic Compliance Matrix: (Units=1/GPa)
#
#
# Indices 1 2 3 4 5 6 
#
# 1 0.015526 -0.007230 0.000625 0.000000 0.000000 0.000000
# 2 -0.007230 0.044816 -0.014168 0.000000 0.000000 0.000000
# 3 0.000625 -0.014168 0.014446 0.000000 0.000000 0.000000
# 4 0.000000 0.000000 0.000000 0.026992 0.000000 0.000000
# 5 0.000000 0.000000 0.000000 0.000000 0.009635 0.000000
# 6 0.000000 0.000000 0.000000 0.000000 0.000000 0.029737
#
#
# Mechanical properties :
#
#
# Convention : Reuss Voigt Hill
#
# Bulk Modulus (GPa) = 30.08196 36.82778 33.45487
# Shear Modulus (GPa) = 25.80294 44.73519 35.26906
#
# Velocity S-wave (km/s) = 3.46770 4.56595 4.05418
# Velocity P-wave (km/s) = 5.48199 6.70522 6.12422
#
# Compressibility (1/GPa) = 0.03324252
#
# Stress axis : x y z
#
# Youngs Moduli (GPa) = 64.40778 22.31361 69.22460
#
# Poissons Ratio (x) = 0.16133 -0.04329
# Poissons Ratio (y) = 0.46568 0.98076
# Poissons Ratio (z) = -0.04028 0.31613
#
# Static dielectric constant tensor:
#      x y z
#    x 1.870490 0.000000 0.000000 
#    y 0.000000 1.710960 0.000000 
#    z 0.000000 0.000000 1.793920 
# 
# From -- ./inp_files/32962.got.cif
#   From: 2010.05.17/outbox.cif.g08.bks.cpg/sg24_17_cif.got.tgz:32962.got - 2010.06.04 00:33:39.
