data_PCOD9334982
_publ_section_title
;
Structure prediction by ZEFSAII (Michael W. Deem and Ramdas Pophale) SiO2 
 PCOD9334982
Probable space group: I 21 21 21
;
_chemical_formula_sum "Si O2"
_cell_formula_units_Z 24
_cell_length_a 14.781451
_cell_length_b 5.112215
_cell_length_c 13.351080
_cell_angle_alpha 90.000000
_cell_angle_beta 90.000000
_cell_angle_gamma 90.000000
_cell_volume 1008.887117
_symmetry_space_group_name_H-M "I 21 21 21"
_symmetry_group_IT_number 24
_symmetry_cell_setting 'orthorhombic'
loop_
_space_group_symop_operation_xyz
x,y,z
-x,1/2-y,z
x,-y,1/2-z
1/2-x,y,-z
1/2+x,1/2+y,1/2+z
1/2-x,-y,1/2+z
1/2+x,1/2-y,-z
-x,1/2+y,1/2-z
loop_
_atom_site_type_symbol
_atom_site_label
_atom_site_fract_x
_atom_site_fract_y
_atom_site_fract_z
Si Si1 0.104620 0.739651 0.701273
Si Si2 0.854620 0.168524 0.024869
Si Si3 0.100304 0.845276 0.153892
O O1 0.156679 0.500000 0.750000
O O2 0.102429 0.663047 0.585279
O O3 0.000000 0.750000 0.735767
O O4 0.144967 0.000000 0.750000
O O5 0.900763 0.418613 0.075362
O O6 0.860004 0.910270 0.095655
O O7 0.750000 0.225369 0.000000
O O8 0.000000 0.750000 0.183639
O O9 0.141404 0.000000 0.250000
#
# Coordination Sequence:
#
# PCOD9334982 Si02
#       3
#     8   8   8
#     4  10  21  39  63  90 122 167 220 272 332 405
#     4  12  26  43  67 102 142 182 229 294 365 424
#     4  12  25  46  72 100 136 187 244 294 349 423
#
# _framework density 23.788589000000002
#
# number of rings (size 3 to 8) (size 9 to 14) (size 15 to 20)
#    0.000    0.667    0.000    9.000    0.000    6.667 
#    0.000    0.000    0.000    0.000    0.000    0.000 
#    0.000    0.000    0.000    0.000    0.000    0.000 
#
# Total GULP energy -66881.178356 kJ/mol
# GULP energy per Si atom -5573.431530 kJ/mol
# Density = 2.373445 g / cm^3
# Si number density = 23.788589 Si / 1000 Ang^3
#
#
#
# Elastic Constant Matrix: (Units=GPa)
#
#
# Indices 1 2 3 4 5 6 
#
# 1 57.0864 25.1440 -13.1683 0.0000 0.0000 0.0000
# 2 25.1440 221.8595 72.0582 0.0000 0.0000 0.0000
# 3 -13.1683 72.0582 109.8632 0.0000 0.0000 0.0000
# 4 0.0000 0.0000 0.0000 32.7746 0.0000 0.0000
# 5 0.0000 0.0000 0.0000 0.0000 1515.9211 0.0000
# 6 0.0000 0.0000 0.0000 0.0000 0.0000 -5.6584
#
#
#
# Elastic Compliance Matrix: (Units=1/GPa)
#
#
# Indices 1 2 3 4 5 6 
#
# 1 0.020420 -0.003951 0.005039 0.000000 0.000000 0.000000
# 2 -0.003951 0.006492 -0.004731 0.000000 0.000000 0.000000
# 3 0.005039 -0.004731 0.012810 0.000000 0.000000 0.000000
# 4 0.000000 0.000000 0.000000 0.030511 0.000000 0.000000
# 5 0.000000 0.000000 0.000000 0.000000 0.000660 0.000000
# 6 0.000000 0.000000 0.000000 0.000000 0.000000 -0.176728
#
#
# Mechanical properties :
#
#
# Convention : Reuss Voigt Hill
#
# Bulk Modulus (GPa) = 30.83166 61.87522 46.35344
# Shear Modulus (GPa) = -56.98808 328.92581 135.96886
#
# Velocity S-wave (km/s) = -4.89980 11.77160 7.56844
# Velocity P-wave (km/s) = 4.36141 14.51991 9.79300
#
# Compressibility (1/GPa) = 0.03243419
#
# Stress axis : x y z
#
# Youngs Moduli (GPa) = 48.97219 154.03898 78.06691
#
# Poissons Ratio (x) = 0.60858 -0.39336
# Poissons Ratio (y) = 0.19348 0.36937
# Poissons Ratio (z) = -0.24676 0.72883
#
# Static dielectric constant tensor:
#      x y z
#    x 2.006690 0.000000 0.000000 
#    y 0.000000 1.896770 0.000000 
#    z 0.000000 0.000000 3.170040 
# 
# From -- ./inp_files/1699.got.cif
#   From: 2010.05.17/outbox.cif.g08.bks.cpg/sg24_1_cif.got.tgz:1699.got - 2010.06.04 00:33:39.
