data_PCOD9334581
_publ_section_title
;
Structure prediction by ZEFSAII (Michael W. Deem and Ramdas Pophale) SiO2 
 PCOD9334581
Probable space group: I 21 21 21
;
_chemical_formula_sum "Si O2"
_cell_formula_units_Z 44
_cell_length_a 29.326898
_cell_length_b 7.856936
_cell_length_c 9.303864
_cell_angle_alpha 90.000000
_cell_angle_beta 90.000000
_cell_angle_gamma 90.000000
_cell_volume 2143.792255
_symmetry_space_group_name_H-M "I 21 21 21"
_symmetry_group_IT_number 24
_symmetry_cell_setting 'orthorhombic'
loop_
_space_group_symop_operation_xyz
x,y,z
-x,1/2-y,z
x,-y,1/2-z
1/2-x,y,-z
1/2+x,1/2+y,1/2+z
1/2-x,-y,1/2+z
1/2+x,1/2-y,-z
-x,1/2+y,1/2-z
loop_
_atom_site_type_symbol
_atom_site_label
_atom_site_fract_x
_atom_site_fract_y
_atom_site_fract_z
Si Si1 0.250000 0.611438 0.500000
Si Si2 0.474221 0.990411 0.534535
Si Si3 0.907510 0.674153 0.844424
Si Si4 0.000000 0.250000 0.250209
Si Si5 0.221979 0.811344 0.223774
Si Si6 0.467246 0.500000 0.250000
Si Si7 0.310021 0.305700 0.430061
O O1 0.226212 0.717192 0.374824
O O2 0.287805 0.493189 0.421874
O O3 0.431072 0.103800 0.490316
O O4 0.507953 0.099853 0.635740
O O5 0.463865 0.827510 0.635139
O O6 0.500838 0.961325 0.386899
O O7 0.903582 0.500000 0.750000
O O8 0.858815 0.760753 0.869318
O O9 0.938675 0.827509 0.781221
O O10 0.272390 0.810362 0.150718
O O11 0.205818 0.000000 0.250000
O O12 0.191342 0.726734 0.101288
#
# Coordination Sequence:
#
# PCOD9334581 Si02
#       7
#     4   8   8   4   8   4   8
#     4  10  20  40  72  88 134 182 212 272 326 424
#     4  11  22  44  66  97 129 180 229 284 358 422
#     4  12  25  41  68 100 134 174 233 297 333 419
#     4  10  22  40  68  90 132 172 218 280 356 420
#     4  10  20  40  66  93 128 174 218 260 331 408
#     4  12  24  44  70  98 128 180 244 282 360 418
#     4  10  22  39  59  96 128 169 217 268 336 386
#
# _framework density 20.524377999999999
#
# number of rings (size 3 to 8) (size 9 to 14) (size 15 to 20)
#    0.000    1.455    2.727    4.909    2.545    0.000 
#    3.273    3.636    0.000    0.000    0.000    0.000 
#    0.000    0.000    0.000    0.000    0.000    0.000 
#
# Total GULP energy -122543.633793 kJ/mol
# GULP energy per Si atom -5570.165172 kJ/mol
# Density = 2.047766 g / cm^3
# Si number density = 20.524378 Si / 1000 Ang^3
#
#
#
# Elastic Constant Matrix: (Units=GPa)
#
#
# Indices 1 2 3 4 5 6 
#
# 1 80.8600 14.0212 12.3703 0.0000 0.0000 0.0000
# 2 14.0212 96.2395 30.9231 0.0000 0.0000 0.0000
# 3 12.3703 30.9231 119.5470 0.0000 0.0000 0.0000
# 4 0.0000 0.0000 0.0000 54.8745 0.0000 0.0000
# 5 0.0000 0.0000 0.0000 0.0000 7.0161 0.0000
# 6 0.0000 0.0000 0.0000 0.0000 0.0000 -10.7802
#
#
#
# Elastic Compliance Matrix: (Units=1/GPa)
#
#
# Indices 1 2 3 4 5 6 
#
# 1 0.012779 -0.001567 -0.000917 0.000000 0.000000 0.000000
# 2 -0.001567 0.011525 -0.002819 0.000000 0.000000 0.000000
# 3 -0.000917 -0.002819 0.009189 0.000000 0.000000 0.000000
# 4 0.000000 0.000000 0.000000 0.018223 0.000000 0.000000
# 5 0.000000 0.000000 0.000000 0.000000 0.142528 0.000000
# 6 0.000000 0.000000 0.000000 0.000000 0.000000 -0.092762
#
#
# Mechanical properties :
#
#
# Convention : Reuss Voigt Hill
#
# Bulk Modulus (GPa) = 43.69343 45.69731 44.69537
# Shear Modulus (GPa) = 41.76496 26.17753 33.97125
#
# Velocity S-wave (km/s) = 4.51588 3.57520 4.07279
# Velocity P-wave (km/s) = 6.96603 6.27343 6.62878
#
# Compressibility (1/GPa) = 0.02288673
#
# Stress axis : x y z
#
# Youngs Moduli (GPa) = 78.25288 86.76916 108.82610
#
# Poissons Ratio (x) = 0.13598 0.09979
# Poissons Ratio (y) = 0.12263 0.30678
# Poissons Ratio (z) = 0.07175 0.24460
#
# Static dielectric constant tensor:
#      x y z
#    x 1.718590 0.000000 0.000000 
#    y 0.000000 1.833370 0.000000 
#    z 0.000000 0.000000 1.821400 
# 
# From -- ./inp_files/16773.got.cif
#   From: 2010.05.17/outbox.cif.g08.bks.cpg/sg24_9_cif.got.tgz:16773.got - 2010.06.04 00:33:39.
