data_PCOD9334528
_publ_section_title
;
Structure prediction by ZEFSAII (Michael W. Deem and Ramdas Pophale) SiO2 
 PCOD9334528
Probable space group: I 21 21 21
;
_chemical_formula_sum "Si O2"
_cell_formula_units_Z 56
_cell_length_a 7.274311
_cell_length_b 23.855852
_cell_length_c 14.334969
_cell_angle_alpha 90.000000
_cell_angle_beta 90.000000
_cell_angle_gamma 90.000000
_cell_volume 2487.617220
_symmetry_space_group_name_H-M "I 21 21 21"
_symmetry_group_IT_number 24
_symmetry_cell_setting 'orthorhombic'
loop_
_space_group_symop_operation_xyz
x,y,z
-x,1/2-y,z
x,-y,1/2-z
1/2-x,y,-z
1/2+x,1/2+y,1/2+z
1/2-x,-y,1/2+z
1/2+x,1/2-y,-z
-x,1/2+y,1/2-z
loop_
_atom_site_type_symbol
_atom_site_label
_atom_site_fract_x
_atom_site_fract_y
_atom_site_fract_z
Si Si1 0.823093 0.085371 0.896919
Si Si2 0.709610 0.840697 0.778662
Si Si3 0.044130 0.811203 0.919347
Si Si4 0.552815 0.905655 0.946106
Si Si5 0.236794 0.880877 0.604449
Si Si6 0.207918 0.224152 0.759561
Si Si7 0.499007 0.515768 0.643024
O O1 0.763083 0.125693 0.813129
O O2 0.717811 0.027828 0.873638
O O3 0.042157 0.086621 0.891815
O O4 0.750000 0.102380 0.000000
O O5 0.877870 0.828827 0.850171
O O6 0.580419 0.877962 0.843814
O O7 0.665024 0.778918 0.741573
O O8 0.000000 0.750000 0.963004
O O9 0.204848 0.799504 0.846081
O O10 0.053467 0.860353 0.992444
O O11 0.456994 0.964899 0.926602
O O12 0.750000 0.913159 0.000000
O O13 0.250000 0.857833 0.500000
O O14 0.244039 0.828304 0.674024
O O15 0.392817 0.927230 0.621232
O O16 0.000000 0.250000 0.780521
O O17 0.532879 0.500000 0.750000
#
# Coordination Sequence:
#
# PCOD9334528 Si02
#       7
#     8   8   8   8   8   8   8
#     4  12  23  45  74  97 143 197 238 302 363 417
#     4   9  18  38  70 100 136 182 231 289 360 430
#     4   8  16  35  67 104 131 177 233 282 359 439
#     4  10  20  39  70 102 135 183 240 283 355 441
#     4  12  26  47  70 106 148 186 248 312 355 428
#     4   9  18  41  70 101 143 187 234 291 378 437
#     4  12  27  47  68 105 143 186 252 288 352 445
#
# _framework density 22.511503000000001
#
# number of rings (size 3 to 8) (size 9 to 14) (size 15 to 20)
#    0.000    2.000    5.714    0.429    0.000    1.143 
#    5.143    0.714    0.000    0.000    0.000    0.000 
#    0.000    0.000    0.000    0.000    0.000    0.000 
#
# Total GULP energy -156326.798592 kJ/mol
# GULP energy per Si atom -5583.099950 kJ/mol
# Density = 2.246027 g / cm^3
# Si number density = 22.511503 Si / 1000 Ang^3
#
#
#
# Elastic Constant Matrix: (Units=GPa)
#
#
# Indices 1 2 3 4 5 6 
#
# 1 55.4098 12.9460 11.2922 0.0002 0.0000 0.0000
# 2 12.9460 139.3205 60.6483 -0.0004 0.0000 0.0000
# 3 11.2922 60.6483 115.7248 -0.0013 0.0000 0.0000
# 4 0.0002 -0.0004 -0.0013 -167.4682 0.0004 0.0002
# 5 0.0000 0.0000 0.0000 0.0004 8.6397 0.0000
# 6 0.0000 0.0000 0.0000 0.0002 0.0000 30.3917
#
#
#
# Elastic Compliance Matrix: (Units=1/GPa)
#
#
# Indices 1 2 3 4 5 6 
#
# 1 0.018571 -0.001214 -0.001176 0.000000 0.000000 0.000000
# 2 -0.001214 0.009379 -0.004797 0.000000 0.000000 0.000000
# 3 -0.001176 -0.004797 0.011270 0.000000 0.000000 0.000000
# 4 0.000000 0.000000 0.000000 -0.005971 0.000000 0.000000
# 5 0.000000 0.000000 0.000000 0.000000 0.115744 0.000000
# 6 0.000000 0.000000 0.000000 0.000000 0.000000 0.032904
#
#
# Mechanical properties :
#
#
# Convention : Reuss Voigt Hill
#
# Bulk Modulus (GPa) = 40.24764 53.35871 46.80317
# Shear Modulus (GPa) = 24.44389 -10.64944 6.89722
#
# Velocity S-wave (km/s) = 3.29878 -2.17737 1.75229
# Velocity P-wave (km/s) = 5.69445 4.17529 4.99299
#
# Compressibility (1/GPa) = 0.02484618
#
# Stress axis : x y z
#
# Youngs Moduli (GPa) = 53.84862 106.62685 88.73342
#
# Poissons Ratio (x) = 0.12941 0.10435
# Poissons Ratio (y) = 0.06536 0.42562
# Poissons Ratio (z) = 0.06333 0.51145
#
# Static dielectric constant tensor:
#      x y z
#    x 2.520290 0.000000 0.000000 
#    y 0.000000 1.829470 0.000000 
#    z 0.000000 0.000000 1.808760 
# 
# From -- ./inp_files/25082.got.cif
#   From: 2010.05.17/outbox.cif.g08.bks.cpg/sg24_13_cif.got.tgz:25082.got - 2010.06.04 00:33:39.
