data_PCOD9334184
_publ_section_title
;
Structure prediction by ZEFSAII (Michael W. Deem and Ramdas Pophale) SiO2 
 PCOD9334184
Probable space group: I 21 21 21
;
_chemical_formula_sum "Si O2"
_cell_formula_units_Z 40
_cell_length_a 23.293292
_cell_length_b 8.873239
_cell_length_c 9.533031
_cell_angle_alpha 90.000000
_cell_angle_beta 90.000000
_cell_angle_gamma 90.000000
_cell_volume 1970.353073
_symmetry_space_group_name_H-M "I 21 21 21"
_symmetry_group_IT_number 24
_symmetry_cell_setting 'orthorhombic'
loop_
_space_group_symop_operation_xyz
x,y,z
-x,1/2-y,z
x,-y,1/2-z
1/2-x,y,-z
1/2+x,1/2+y,1/2+z
1/2-x,-y,1/2+z
1/2+x,1/2-y,-z
-x,1/2+y,1/2-z
loop_
_atom_site_type_symbol
_atom_site_label
_atom_site_fract_x
_atom_site_fract_y
_atom_site_fract_z
Si Si1 0.331832 0.595164 0.104920
Si Si2 0.769643 0.323886 0.775202
Si Si3 0.329777 0.303408 0.950231
Si Si4 0.466415 0.406239 0.392830
Si Si5 0.044515 0.375678 0.135621
O O1 0.327380 0.500000 0.250000
O O2 0.294566 0.740482 0.138700
O O3 0.398953 0.630563 0.085677
O O4 0.315375 0.478789 0.983027
O O5 0.765871 0.500000 0.750000
O O6 0.708603 0.256679 0.823555
O O7 0.811034 0.286759 0.909197
O O8 0.397415 0.299065 0.921755
O O9 0.500000 0.250000 0.392198
O O10 0.472365 0.500000 0.250000
O O11 0.483824 0.524344 0.512988
O O12 0.061161 0.500000 0.250000
O O13 0.000000 0.250000 0.187266
#
# Coordination Sequence:
#
# PCOD9334184 Si02
#       5
#     8   8   8   8   8
#     4   8  17  35  56  79 113 153 194 234 287 360
#     4  10  20  37  60  90 118 148 199 258 300 344
#     4   9  21  40  57  81 118 159 195 238 305 370
#     4  10  20  36  60  91 122 160 202 245 299 354
#     4  11  24  42  62  87 120 160 204 249 298 358
#
# _framework density 20.300929
#
# number of rings (size 3 to 8) (size 9 to 14) (size 15 to 20)
#    0.000    2.400    0.000    2.400    0.000    7.200 
#    0.000   20.000    0.000    0.000    0.000    0.000 
#    0.000    0.000    0.000    0.000    0.000    0.000 
#
# Total GULP energy -111670.340781 kJ/mol
# GULP energy per Si atom -5583.517039 kJ/mol
# Density = 2.025472 g / cm^3
# Si number density = 20.300929 Si / 1000 Ang^3
#
#
#
# Elastic Constant Matrix: (Units=GPa)
#
#
# Indices 1 2 3 4 5 6 
#
# 1 97.6016 71.0320 5.2147 0.0000 0.0000 0.0000
# 2 71.0320 156.8445 26.0074 0.0000 0.0000 0.0000
# 3 5.2147 26.0074 38.2970 0.0000 0.0000 0.0000
# 4 0.0000 0.0000 0.0000 34.3219 0.0000 0.0000
# 5 0.0000 0.0000 0.0000 0.0000 3.9135 0.0000
# 6 0.0000 0.0000 0.0000 0.0000 0.0000 26.8098
#
#
#
# Elastic Compliance Matrix: (Units=1/GPa)
#
#
# Indices 1 2 3 4 5 6 
#
# 1 0.015585 -0.007557 0.003010 0.000000 0.000000 0.000000
# 2 -0.007557 0.010849 -0.006339 0.000000 0.000000 0.000000
# 3 0.003010 -0.006339 0.030006 0.000000 0.000000 0.000000
# 4 0.000000 0.000000 0.000000 0.029136 0.000000 0.000000
# 5 0.000000 0.000000 0.000000 0.000000 0.255528 0.000000
# 6 0.000000 0.000000 0.000000 0.000000 0.000000 0.037300
#
#
# Mechanical properties :
#
#
# Convention : Reuss Voigt Hill
#
# Bulk Modulus (GPa) = 28.84444 55.25014 42.04729
# Shear Modulus (GPa) = 12.14381 25.70830 18.92605
#
# Velocity S-wave (km/s) = 2.44844 3.56246 3.05663
# Velocity P-wave (km/s) = 4.71513 6.64802 5.76318
#
# Compressibility (1/GPa) = 0.03466873
#
# Stress axis : x y z
#
# Youngs Moduli (GPa) = 64.16488 92.17163 33.32617
#
# Poissons Ratio (x) = 0.69656 -0.10031
# Poissons Ratio (y) = 0.48491 0.21125
# Poissons Ratio (z) = -0.19314 0.58425
#
# Static dielectric constant tensor:
#      x y z
#    x 1.720650 0.000000 0.000000 
#    y 0.000000 1.703210 0.000000 
#    z 0.000000 0.000000 1.784950 
# 
# From -- ./inp_files/15639.got.cif
#   From: 2010.05.17/outbox.cif.g08.bks.cpg/sg24_8_cif.got.tgz:15639.got - 2010.06.04 00:33:39.
