data_PCOD9334587
_publ_section_title
;
Structure prediction by ZEFSAII (Michael W. Deem and Ramdas Pophale) SiO2 
 PCOD9334587
Probable space group: I 21 21 21
;
_chemical_formula_sum "Si O2"
_cell_formula_units_Z 28
_cell_length_a 8.228281
_cell_length_b 9.573163
_cell_length_c 12.150098
_cell_angle_alpha 90.000000
_cell_angle_beta 90.000000
_cell_angle_gamma 90.000000
_cell_volume 957.071423
_symmetry_space_group_name_H-M "I 21 21 21"
_symmetry_group_IT_number 24
_symmetry_cell_setting 'orthorhombic'
loop_
_space_group_symop_operation_xyz
x,y,z
-x,1/2-y,z
x,-y,1/2-z
1/2-x,y,-z
1/2+x,1/2+y,1/2+z
1/2-x,-y,1/2+z
1/2+x,1/2-y,-z
-x,1/2+y,1/2-z
loop_
_atom_site_type_symbol
_atom_site_label
_atom_site_fract_x
_atom_site_fract_y
_atom_site_fract_z
Si Si1 0.749925 0.285570 0.610555
Si Si2 0.243082 0.319778 0.156514
Si Si3 0.921377 0.456456 0.121766
Si Si4 0.479392 0.000000 0.250000
O O1 0.750000 0.193645 0.500000
O O2 0.694155 0.193778 0.713720
O O3 0.620840 0.399536 0.565967
O O4 0.885927 0.384699 0.673036
O O5 0.095096 0.393819 0.094939
O O6 0.407886 0.405966 0.168649
O O7 0.221373 0.160364 0.115091
O O8 0.921468 0.500000 0.250000
#
# Coordination Sequence:
#
# PCOD9334587 Si02
#       4
#     8   8   8   4
#     4  11  24  43  66  99 133 166 220 276 322 381
#     4  10  20  40  67  92 125 181 212 259 327 392
#     4   9  18  40  66  85 129 174 208 256 336 376
#     4  12  22  42  64  98 136 172 212 274 330 384
#
# _framework density 29.255915999999999
#
# number of rings (size 3 to 8) (size 9 to 14) (size 15 to 20)
#    0.000    1.714    5.714    0.857    0.000    0.000 
#   20.571    7.143    0.000    0.000    0.000    0.000 
#    0.000    0.000    0.000    0.000    0.000    0.000 
#
# Total GULP energy -78182.244758 kJ/mol
# GULP energy per Si atom -5584.446054 kJ/mol
# Density = 2.918933 g / cm^3
# Si number density = 29.255916 Si / 1000 Ang^3
#
#
#
# Elastic Constant Matrix: (Units=GPa)
#
#
# Indices 1 2 3 4 5 6 
#
# 1 156.0251 50.3344 15.4368 0.0000 0.0000 0.0000
# 2 50.3344 112.3877 -4.6200 0.0000 0.0000 0.0000
# 3 15.4368 -4.6200 180.3388 0.0000 0.0000 0.0000
# 4 0.0000 0.0000 0.0000 8.1648 0.0000 0.0000
# 5 0.0000 0.0000 0.0000 0.0000 12.0890 0.0000
# 6 0.0000 0.0000 0.0000 0.0000 0.0000 66.8204
#
#
#
# Elastic Compliance Matrix: (Units=1/GPa)
#
#
# Indices 1 2 3 4 5 6 
#
# 1 0.007588 -0.003429 -0.000737 0.000000 0.000000 0.000000
# 2 -0.003429 0.010457 0.000561 0.000000 0.000000 0.000000
# 3 -0.000737 0.000561 0.005623 0.000000 0.000000 0.000000
# 4 0.000000 0.000000 0.000000 0.122477 0.000000 0.000000
# 5 0.000000 0.000000 0.000000 0.000000 0.082720 0.000000
# 6 0.000000 0.000000 0.000000 0.000000 0.000000 0.014965
#
#
# Mechanical properties :
#
#
# Convention : Reuss Voigt Hill
#
# Bulk Modulus (GPa) = 60.76171 63.45046 62.10609
# Shear Modulus (GPa) = 19.49126 43.25485 31.37305
#
# Velocity S-wave (km/s) = 2.58395 3.84930 3.27825
# Velocity P-wave (km/s) = 5.45129 6.44137 5.96690
#
# Compressibility (1/GPa) = 0.01645773
#
# Stress axis : x y z
#
# Youngs Moduli (GPa) = 131.78094 95.63423 177.85301
#
# Poissons Ratio (x) = 0.32792 0.13115
# Poissons Ratio (y) = 0.45186 -0.09984
# Poissons Ratio (z) = 0.09717 -0.05369
#
# Static dielectric constant tensor:
#      x y z
#    x 2.434300 0.000000 0.000000 
#    y 0.000000 2.270460 0.000000 
#    z 0.000000 0.000000 2.272720 
# 
# From -- ./inp_files/10503.got.cif
#   From: 2010.05.17/outbox.cif.g08.bks.cpg/sg24_6_cif.got.tgz:10503.got - 2010.06.04 00:33:39.
