data_PCOD9334538
_publ_section_title
;
Structure prediction by ZEFSAII (Michael W. Deem and Ramdas Pophale) SiO2 
 PCOD9334538
Probable space group: I 21 21 21
;
_chemical_formula_sum "Si O2"
_cell_formula_units_Z 64
_cell_length_a 16.856976
_cell_length_b 13.930212
_cell_length_c 11.930309
_cell_angle_alpha 90.000000
_cell_angle_beta 90.000000
_cell_angle_gamma 90.000000
_cell_volume 2801.490065
_symmetry_space_group_name_H-M "I 21 21 21"
_symmetry_group_IT_number 24
_symmetry_cell_setting 'orthorhombic'
loop_
_space_group_symop_operation_xyz
x,y,z
-x,1/2-y,z
x,-y,1/2-z
1/2-x,y,-z
1/2+x,1/2+y,1/2+z
1/2-x,-y,1/2+z
1/2+x,1/2-y,-z
-x,1/2+y,1/2-z
loop_
_atom_site_type_symbol
_atom_site_label
_atom_site_fract_x
_atom_site_fract_y
_atom_site_fract_z
Si Si1 0.833411 0.541487 0.064495
Si Si2 0.577309 0.386388 0.174631
Si Si3 0.675362 0.126906 0.916461
Si Si4 0.632596 0.672736 0.557244
Si Si5 0.035851 0.902968 0.905925
Si Si6 0.254004 0.850629 0.257191
Si Si7 0.370536 0.424853 0.492815
Si Si8 0.251659 0.638639 0.821320
O O1 0.882521 0.441868 0.081618
O O2 0.807701 0.592993 0.178834
O O3 0.750000 0.521269 0.000000
O O4 0.886635 0.607799 0.983464
O O5 0.534200 0.350601 0.286097
O O6 0.537814 0.483971 0.130502
O O7 0.665128 0.405401 0.223681
O O8 0.598514 0.320791 0.068776
O O9 0.616190 0.217781 0.901476
O O10 0.714402 0.103055 0.796900
O O11 0.750000 0.147970 0.000000
O O12 0.631334 0.034949 0.966757
O O13 0.718942 0.669149 0.619321
O O14 0.957602 0.884878 0.976113
O O15 0.270879 0.749007 0.199965
O O16 0.320774 0.368175 0.586238
O O17 0.322029 0.416062 0.376634
#
# Coordination Sequence:
#
# PCOD9334538 Si02
#       8
#     8   8   8   8   8   8   8   8
#     4  11  20  36  65  93 135 176 220 271 350 425
#     4  10  20  40  59  94 139 165 212 278 348 408
#     4  11  21  40  67  96 124 168 234 291 339 402
#     4  10  21  35  62 100 129 167 222 279 339 410
#     4  10  23  39  62  98 135 179 217 279 345 421
#     4  11  21  37  68  99 132 181 227 283 337 424
#     4  11  24  44  67  91 135 182 232 289 348 403
#     4  10  24  44  68  96 129 180 247 288 339 414
#
# _framework density 22.844985000000001
#
# number of rings (size 3 to 8) (size 9 to 14) (size 15 to 20)
#    0.000    1.500    2.500    4.500    3.500    2.000 
#    0.000   11.250    0.000    6.000    0.000    0.000 
#    0.000    0.000    0.000    0.000    0.000    0.000 
#
# Total GULP energy -178230.057100 kJ/mol
# GULP energy per Si atom -5569.689284 kJ/mol
# Density = 2.279299 g / cm^3
# Si number density = 22.844985 Si / 1000 Ang^3
#
#
#
# Elastic Constant Matrix: (Units=GPa)
#
#
# Indices 1 2 3 4 5 6 
#
# 1 49.8011 -3.4253 26.3258 0.0000 0.0000 0.0000
# 2 -3.4253 84.5089 22.8303 0.0000 0.0000 0.0000
# 3 26.3258 22.8303 122.4942 0.0000 0.0000 0.0000
# 4 0.0000 0.0000 0.0000 34.8761 0.0000 0.0000
# 5 0.0000 0.0000 0.0000 0.0000 12.6754 0.0000
# 6 0.0000 0.0000 0.0000 0.0000 0.0000 -7.4364
#
#
#
# Elastic Compliance Matrix: (Units=1/GPa)
#
#
# Indices 1 2 3 4 5 6 
#
# 1 0.023106 0.002399 -0.005413 0.000000 0.000000 0.000000
# 2 0.002399 0.012710 -0.002884 0.000000 0.000000 0.000000
# 3 -0.005413 -0.002884 0.009865 0.000000 0.000000 0.000000
# 4 0.000000 0.000000 0.000000 0.028673 0.000000 0.000000
# 5 0.000000 0.000000 0.000000 0.000000 0.078893 0.000000
# 6 0.000000 0.000000 0.000000 0.000000 0.000000 -0.134473
#
#
# Mechanical properties :
#
#
# Convention : Reuss Voigt Hill
#
# Bulk Modulus (GPa) = 29.51291 38.69618 34.10455
# Shear Modulus (GPa) = 119.43353 22.09458 70.76406
#
# Velocity S-wave (km/s) = 7.23833 3.11328 5.57162
# Velocity P-wave (km/s) = 9.09971 5.46797 7.50678
#
# Compressibility (1/GPa) = 0.03388348
#
# Stress axis : x y z
#
# Youngs Moduli (GPa) = 43.27829 78.68127 101.37312
#
# Poissons Ratio (x) = -0.18875 0.54873
# Poissons Ratio (y) = -0.10382 0.29239
# Poissons Ratio (z) = 0.23426 0.22694
#
# Static dielectric constant tensor:
#      x y z
#    x 1.838830 0.000000 0.000000 
#    y 0.000000 1.940960 0.000000 
#    z 0.000000 0.000000 1.905250 
# 
# From -- ./inp_files/21714.got.cif
#   From: 2010.05.17/outbox.cif.g08.bks.cpg/sg24_11_cif.got.tgz:21714.got - 2010.06.04 00:33:39.
