data_PCOD9334818
_publ_section_title
;
Structure prediction by ZEFSAII (Michael W. Deem and Ramdas Pophale) SiO2 
 PCOD9334818
Probable space group: I 21 21 21
;
_chemical_formula_sum "Si O2"
_cell_formula_units_Z 56
_cell_length_a 11.132081
_cell_length_b 12.364394
_cell_length_c 20.863088
_cell_angle_alpha 90.000000
_cell_angle_beta 90.000000
_cell_angle_gamma 90.000000
_cell_volume 2871.625382
_symmetry_space_group_name_H-M "I 21 21 21"
_symmetry_group_IT_number 24
_symmetry_cell_setting 'orthorhombic'
loop_
_space_group_symop_operation_xyz
x,y,z
-x,1/2-y,z
x,-y,1/2-z
1/2-x,y,-z
1/2+x,1/2+y,1/2+z
1/2-x,-y,1/2+z
1/2+x,1/2-y,-z
-x,1/2+y,1/2-z
loop_
_atom_site_type_symbol
_atom_site_label
_atom_site_fract_x
_atom_site_fract_y
_atom_site_fract_z
Si Si1 0.786111 0.266636 0.874548
Si Si2 0.000000 0.250000 0.369245
Si Si3 0.500000 0.750000 0.474835
Si Si4 0.563246 0.392264 0.915906
Si Si5 0.601830 0.970282 0.824173
Si Si6 0.290116 0.110068 0.571860
Si Si7 0.621708 0.504789 0.327721
Si Si8 0.149535 0.535121 0.676088
O O1 0.648818 0.292285 0.894255
O O2 0.824044 0.377381 0.840960
O O3 0.812442 0.160585 0.832316
O O4 0.878752 0.254865 0.933506
O O5 0.046686 0.352073 0.329811
O O6 0.111765 0.198947 0.407713
O O7 0.496415 0.646177 0.520643
O O8 0.477834 0.441612 0.861603
O O9 0.647456 0.492687 0.934154
O O10 0.736763 0.971714 0.852216
O O11 0.606569 0.000000 0.750000
O O12 0.250000 0.138183 0.500000
O O13 0.193205 0.084653 0.629413
O O14 0.628115 0.500000 0.250000
O O15 0.482586 0.510245 0.350157
O O16 0.141123 0.500000 0.750000
#
# Coordination Sequence:
#
# PCOD9334818 Si02
#       8
#     8   4   4   8   8   8   8   8
#     4  11  21  37  60  88 129 164 198 258 315 363
#     4  10  24  45  60  89 118 158 218 254 312 376
#     4  12  20  35  58  91 126 162 196 260 308 372
#     4  10  22  36  61  93 119 159 215 245 315 384
#     4  10  23  42  64  88 125 161 201 266 313 367
#     4  10  22  43  66  88 123 165 210 261 308 373
#     4  10  21  39  65  95 125 164 208 255 313 373
#     4  10  21  37  57  90 129 162 199 248 308 366
#
# _framework density 19.501151
#
# number of rings (size 3 to 8) (size 9 to 14) (size 15 to 20)
#    0.000    1.714    1.429    3.000    0.000   10.286 
#    2.571    1.429    0.000    0.000    0.000    0.000 
#    0.000    0.000    0.000    0.000    0.000    0.000 
#
# Total GULP energy -156048.543291 kJ/mol
# GULP energy per Si atom -5573.162260 kJ/mol
# Density = 1.945677 g / cm^3
# Si number density = 19.501151 Si / 1000 Ang^3
#
#
#
# Elastic Constant Matrix: (Units=GPa)
#
#
# Indices 1 2 3 4 5 6 
#
# 1 110.1879 42.3417 40.6912 0.0000 0.0000 0.0000
# 2 42.3417 98.9348 47.6820 0.0000 0.0000 0.0000
# 3 40.6912 47.6820 91.8166 0.0000 0.0000 0.0000
# 4 0.0000 0.0000 0.0000 17.1897 0.0000 0.0000
# 5 0.0000 0.0000 0.0000 0.0000 3.9555 0.0000
# 6 0.0000 0.0000 0.0000 0.0000 0.0000 30.4108
#
#
#
# Elastic Compliance Matrix: (Units=1/GPa)
#
#
# Indices 1 2 3 4 5 6 
#
# 1 0.011616 -0.003322 -0.003423 0.000000 0.000000 0.000000
# 2 -0.003322 0.014432 -0.006023 0.000000 0.000000 0.000000
# 3 -0.003423 -0.006023 0.015536 0.000000 0.000000 0.000000
# 4 0.000000 0.000000 0.000000 0.058174 0.000000 0.000000
# 5 0.000000 0.000000 0.000000 0.000000 0.252812 0.000000
# 6 0.000000 0.000000 0.000000 0.000000 0.000000 0.032883
#
#
# Mechanical properties :
#
#
# Convention : Reuss Voigt Hill
#
# Bulk Modulus (GPa) = 62.30821 62.48544 62.39683
# Shear Modulus (GPa) = 12.00951 21.65948 16.83449
#
# Velocity S-wave (km/s) = 2.48430 3.33630 2.94131
# Velocity P-wave (km/s) = 6.34424 6.85220 6.60311
#
# Compressibility (1/GPa) = 0.01604925
#
# Stress axis : x y z
#
# Youngs Moduli (GPa) = 86.08928 69.29101 64.36688
#
# Poissons Ratio (x) = 0.23016 0.22032
# Poissons Ratio (y) = 0.28595 0.38766
# Poissons Ratio (z) = 0.29468 0.41732
#
# Static dielectric constant tensor:
#      x y z
#    x 1.768920 0.000000 0.000000 
#    y 0.000000 1.686020 0.000000 
#    z 0.000000 0.000000 1.689190 
# 
# From -- ./inp_files/33412.got.cif
#   From: 2010.05.17/outbox.cif.g08.bks.cpg/sg24_17_cif.got.tgz:33412.got - 2010.06.04 00:33:39.
