data_PCOD9334817
_publ_section_title
;
Structure prediction by ZEFSAII (Michael W. Deem and Ramdas Pophale) SiO2 
 PCOD9334817
Probable space group: I 21 21 21
;
_chemical_formula_sum "Si O2"
_cell_formula_units_Z 48
_cell_length_a 8.075747
_cell_length_b 7.872748
_cell_length_c 33.771910
_cell_angle_alpha 90.000000
_cell_angle_beta 90.000000
_cell_angle_gamma 90.000000
_cell_volume 2147.161336
_symmetry_space_group_name_H-M "I 21 21 21"
_symmetry_group_IT_number 24
_symmetry_cell_setting 'orthorhombic'
loop_
_space_group_symop_operation_xyz
x,y,z
-x,1/2-y,z
x,-y,1/2-z
1/2-x,y,-z
1/2+x,1/2+y,1/2+z
1/2-x,-y,1/2+z
1/2+x,1/2-y,-z
-x,1/2+y,1/2-z
loop_
_atom_site_type_symbol
_atom_site_label
_atom_site_fract_x
_atom_site_fract_y
_atom_site_fract_z
Si Si1 0.958268 0.935296 0.077780
Si Si2 0.050403 0.555541 0.505497
Si Si3 0.684047 0.459740 0.205161
Si Si4 0.492139 0.945084 0.658603
Si Si5 0.932841 0.062719 0.590438
Si Si6 0.641502 0.929152 0.327032
O O1 0.760885 0.942504 0.079736
O O2 0.000000 0.750000 0.092500
O O3 0.030238 0.057135 0.111223
O O4 0.020819 0.962553 0.033321
O O5 0.250000 0.542791 0.500000
O O6 0.988757 0.490567 0.548232
O O7 0.000000 0.750000 0.502287
O O8 0.729840 0.500000 0.250000
O O9 0.833079 0.529846 0.178252
O O10 0.667022 0.260181 0.191357
O O11 0.497189 0.525009 0.198376
O O12 0.500000 0.750000 0.672240
O O13 0.675962 0.011650 0.669199
O O14 0.000000 0.250000 0.600820
O O15 0.939032 0.940217 0.628653
#
# Coordination Sequence:
#
# PCOD9334817 Si02
#       6
#     8   8   8   8   8   8
#     4  10  21  37  57  90 128 163 210 260 313 374
#     4  10  22  38  59  90 127 166 214 263 311 375
#     4  10  21  39  65  92 120 164 209 261 329 385
#     4   9  19  39  64  88 124 167 208 259 317 385
#     4  10  22  39  61  90 125 167 208 261 317 378
#     4   9  21  41  62  90 126 160 207 268 312 387
#
# _framework density 22.355098000000002
#
# number of rings (size 3 to 8) (size 9 to 14) (size 15 to 20)
#    0.000    2.333    0.000    1.000    4.667    3.333 
#    3.000    2.500    0.000    0.000    0.000    0.000 
#    0.000    0.000    0.000    0.000    0.000    0.000 
#
# Total GULP energy -133657.403663 kJ/mol
# GULP energy per Si atom -5569.058486 kJ/mol
# Density = 2.230422 g / cm^3
# Si number density = 22.355098 Si / 1000 Ang^3
#
#
#
# Elastic Constant Matrix: (Units=GPa)
#
#
# Indices 1 2 3 4 5 6 
#
# 1 71.9895 -4.2346 51.4650 0.0000 0.0000 0.0000
# 2 -4.2346 65.7180 31.2508 0.0000 0.0000 0.0000
# 3 51.4650 31.2508 135.1020 0.0000 0.0000 0.0000
# 4 0.0000 0.0000 0.0000 34.2125 0.0000 0.0000
# 5 0.0000 0.0000 0.0000 0.0000 -37.2369 0.0000
# 6 0.0000 0.0000 0.0000 0.0000 0.0000 14.0202
#
#
#
# Elastic Compliance Matrix: (Units=1/GPa)
#
#
# Indices 1 2 3 4 5 6 
#
# 1 0.020863 0.005757 -0.009279 0.000000 0.000000 0.000000
# 2 0.005757 0.018686 -0.006515 0.000000 0.000000 0.000000
# 3 -0.009279 -0.006515 0.012444 0.000000 0.000000 0.000000
# 4 0.000000 0.000000 0.000000 0.029229 0.000000 0.000000
# 5 0.000000 0.000000 0.000000 0.000000 -0.026855 0.000000
# 6 0.000000 0.000000 0.000000 0.000000 0.000000 0.071326
#
#
# Mechanical properties :
#
#
# Convention : Reuss Voigt Hill
#
# Bulk Modulus (GPa) = 31.33084 47.75243 39.54163
# Shear Modulus (GPa) = 31.96802 15.15438 23.56120
#
# Velocity S-wave (km/s) = 3.78565 2.60646 3.24998
# Velocity P-wave (km/s) = 5.75792 5.51955 5.64000
#
# Compressibility (1/GPa) = 0.03191743
#
# Stress axis : x y z
#
# Youngs Moduli (GPa) = 47.93132 53.51704 80.36254
#
# Poissons Ratio (x) = -0.30809 0.74570
# Poissons Ratio (y) = -0.27593 0.52358
# Poissons Ratio (z) = 0.44476 0.34867
#
# Static dielectric constant tensor:
#      x y z
#    x 1.815410 0.000000 0.000000 
#    y 0.000000 2.591910 0.000000 
#    z 0.000000 0.000000 1.864510 
# 
# From -- ./inp_files/38298.got.cif
#   From: 2010.05.17/outbox.cif.g08.bks.cpg/sg24_20_cif.got.tgz:38298.got - 2010.06.04 00:33:39.
