data_PCOD9334990
_publ_section_title
;
Structure prediction by ZEFSAII (Michael W. Deem and Ramdas Pophale) SiO2 
 PCOD9334990
Probable space group: I 21 21 21
;
_chemical_formula_sum "Si O2"
_cell_formula_units_Z 32
_cell_length_a 15.403968
_cell_length_b 19.462550
_cell_length_c 5.099435
_cell_angle_alpha 90.000000
_cell_angle_beta 90.000000
_cell_angle_gamma 90.000000
_cell_volume 1528.813149
_symmetry_space_group_name_H-M "I 21 21 21"
_symmetry_group_IT_number 24
_symmetry_cell_setting 'orthorhombic'
loop_
_space_group_symop_operation_xyz
x,y,z
-x,1/2-y,z
x,-y,1/2-z
1/2-x,y,-z
1/2+x,1/2+y,1/2+z
1/2-x,-y,1/2+z
1/2+x,1/2-y,-z
-x,1/2+y,1/2-z
loop_
_atom_site_type_symbol
_atom_site_label
_atom_site_fract_x
_atom_site_fract_y
_atom_site_fract_z
Si Si1 0.313088 0.073349 0.250102
Si Si2 0.412358 0.713965 0.631993
Si Si3 0.186868 0.579653 0.252515
Si Si4 0.156287 0.219533 0.640746
O O1 0.250000 0.069269 0.500000
O O2 0.367932 0.141980 0.277321
O O3 0.360621 0.000000 0.250000
O O4 0.250000 0.081257 0.000000
O O5 0.500000 0.750000 0.524063
O O6 0.390631 0.634796 0.705129
O O7 0.345865 0.734939 0.400742
O O8 0.401059 0.752137 0.907790
O O9 0.156214 0.500000 0.250000
O O10 0.250000 0.585470 0.500000
O O11 0.250000 0.593252 0.000000
O O12 0.250000 0.217591 0.500000
#
# Coordination Sequence:
#
# PCOD9334990 Si02
#       4
#     8   8   8   8
#     4   9  17  30  50  78 108 137 179 232 272 315
#     4  12  24  38  57  88 124 152 187 248 317 368
#     4  10  21  39  64  89 115 156 209 256 295 350
#     4  11  21  37  60  83 110 153 202 240 285 357
#
# _framework density 20.931269
#
# number of rings (size 3 to 8) (size 9 to 14) (size 15 to 20)
#    0.000    1.500    0.000    8.250    0.000    0.000 
#    0.000    2.500    0.000    0.000    0.000    0.000 
#    0.000    0.000    0.000    0.000    0.000    0.000 
#
# Total GULP energy -89147.834145 kJ/mol
# GULP energy per Si atom -5571.739634 kJ/mol
# Density = 2.088363 g / cm^3
# Si number density = 20.931269 Si / 1000 Ang^3
#
#
#
# Elastic Constant Matrix: (Units=GPa)
#
#
# Indices 1 2 3 4 5 6 
#
# 1 61.3431 37.9777 6.4595 0.0000 0.0000 0.0000
# 2 37.9777 190.6398 44.0685 0.0000 0.0000 0.0000
# 3 6.4595 44.0685 152.1572 0.0000 0.0000 0.0000
# 4 0.0000 0.0000 0.0000 30.3374 0.0000 0.0000
# 5 0.0000 0.0000 0.0000 0.0000 17.3096 0.0000
# 6 0.0000 0.0000 0.0000 0.0000 0.0000 -3.8736
#
#
#
# Elastic Compliance Matrix: (Units=1/GPa)
#
#
# Indices 1 2 3 4 5 6 
#
# 1 0.018608 -0.003777 0.000304 0.000000 0.000000 0.000000
# 2 -0.003777 0.006389 -0.001690 0.000000 0.000000 0.000000
# 3 0.000304 -0.001690 0.007049 0.000000 0.000000 0.000000
# 4 0.000000 0.000000 0.000000 0.032963 0.000000 0.000000
# 5 0.000000 0.000000 0.000000 0.000000 0.057771 0.000000
# 6 0.000000 0.000000 0.000000 0.000000 0.000000 -0.258155
#
#
# Mechanical properties :
#
#
# Convention : Reuss Voigt Hill
#
# Bulk Modulus (GPa) = 46.04225 64.57237 55.30731
# Shear Modulus (GPa) = -42.44131 29.79697 -6.32217
#
# Velocity S-wave (km/s) = -4.50783 3.77711 -1.73983
# Velocity P-wave (km/s) = 2.24709 7.06673 4.73758
#
# Compressibility (1/GPa) = 0.02171918
#
# Stress axis : x y z
#
# Youngs Moduli (GPa) = 53.73963 156.52833 141.87021
#
# Poissons Ratio (x) = 0.59125 -0.04313
# Poissons Ratio (y) = 0.20299 0.23975
# Poissons Ratio (z) = -0.01634 0.26452
#
# Static dielectric constant tensor:
#      x y z
#    x 1.892710 0.000000 0.000000 
#    y 0.000000 1.848480 0.000000 
#    z 0.000000 0.000000 1.736000 
# 
# From -- ./inp_files/3072.got.cif
#   From: 2010.05.17/outbox.cif.g08.bks.cpg/sg24_2_cif.got.tgz:3072.got - 2010.06.04 00:33:39.
