data_PCOD9334207
_publ_section_title
;
Structure prediction by ZEFSAII (Michael W. Deem and Ramdas Pophale) SiO2 
 PCOD9334207
Probable space group: I 21 21 21
;
_chemical_formula_sum "Si O2"
_cell_formula_units_Z 52
_cell_length_a 12.098304
_cell_length_b 8.707904
_cell_length_c 26.540073
_cell_angle_alpha 90.000000
_cell_angle_beta 90.000000
_cell_angle_gamma 90.000000
_cell_volume 2796.019775
_symmetry_space_group_name_H-M "I 21 21 21"
_symmetry_group_IT_number 24
_symmetry_cell_setting 'orthorhombic'
loop_
_space_group_symop_operation_xyz
x,y,z
-x,1/2-y,z
x,-y,1/2-z
1/2-x,y,-z
1/2+x,1/2+y,1/2+z
1/2-x,-y,1/2+z
1/2+x,1/2-y,-z
-x,1/2+y,1/2-z
loop_
_atom_site_type_symbol
_atom_site_label
_atom_site_fract_x
_atom_site_fract_y
_atom_site_fract_z
Si Si1 0.513549 0.067914 0.565822
Si Si2 0.750000 0.365491 0.000000
Si Si3 0.618969 0.066075 0.305328
Si Si4 0.238023 0.570271 0.392792
Si Si5 0.210846 0.933983 0.393119
Si Si6 0.920859 0.128334 0.973300
Si Si7 0.866052 0.433360 0.693901
O O1 0.500000 0.250000 0.561972
O O2 0.628891 0.020851 0.591424
O O3 0.412066 0.998944 0.598112
O O4 0.519698 0.991268 0.509980
O O5 0.733939 0.457850 0.051301
O O6 0.648269 0.248089 0.991990
O O7 0.632714 0.249170 0.303979
O O8 0.492642 0.023118 0.320315
O O9 0.635728 0.000000 0.250000
O O10 0.706473 0.995878 0.343195
O O11 0.212633 0.750532 0.385318
O O12 0.331640 0.555821 0.436293
O O13 0.279920 0.009547 0.348100
O O14 0.000000 0.250000 0.944925
O O15 0.843595 0.500000 0.750000
#
# Coordination Sequence:
#
# PCOD9334207 Si02
#       7
#     8   4   8   8   8   8   8
#     4  12  23  40  58  87 128 167 203 258 311 364
#     4  10  20  36  64  84 122 160 210 244 304 362
#     4  10  22  41  63  90 128 157 200 260 314 366
#     4  11  23  39  64  89 121 165 211 253 310 370
#     4  11  22  39  64  88 122 164 211 251 306 371
#     4  11  20  40  59  89 122 164 210 253 302 377
#     4  10  22  41  63  95 123 162 206 255 314 371
#
# _framework density 18.597866
#
# number of rings (size 3 to 8) (size 9 to 14) (size 15 to 20)
#    0.000    1.231    4.615    2.308    4.308    1.231 
#    8.308    0.769    0.000    0.000    0.000    0.000 
#    0.000    0.000    0.000    0.000    0.000    0.000 
#
# Total GULP energy -145101.102671 kJ/mol
# GULP energy per Si atom -5580.811641 kJ/mol
# Density = 1.855554 g / cm^3
# Si number density = 18.597866 Si / 1000 Ang^3
#
#
#
# Elastic Constant Matrix: (Units=GPa)
#
#
# Indices 1 2 3 4 5 6 
#
# 1 129.1087 76.8462 78.7522 0.0000 0.0000 0.0000
# 2 76.8462 110.3419 60.3191 0.0000 0.0000 0.0000
# 3 78.7522 60.3191 105.7814 0.0000 0.0000 0.0000
# 4 0.0000 0.0000 0.0000 31.1951 0.0000 0.0000
# 5 0.0000 0.0000 0.0000 0.0000 36.0398 0.0000
# 6 0.0000 0.0000 0.0000 0.0000 0.0000 29.3117
#
#
#
# Elastic Compliance Matrix: (Units=1/GPa)
#
#
# Indices 1 2 3 4 5 6 
#
# 1 0.017529 -0.007372 -0.008847 0.000000 0.000000 0.000000
# 2 -0.007372 0.016268 -0.003788 0.000000 0.000000 0.000000
# 3 -0.008847 -0.003788 0.018199 0.000000 0.000000 0.000000
# 4 0.000000 0.000000 0.000000 0.032056 0.000000 0.000000
# 5 0.000000 0.000000 0.000000 0.000000 0.027747 0.000000
# 6 0.000000 0.000000 0.000000 0.000000 0.000000 0.034116
#
#
# Mechanical properties :
#
#
# Convention : Reuss Voigt Hill
#
# Bulk Modulus (GPa) = 83.44781 86.34079 84.89430
# Shear Modulus (GPa) = 26.32639 27.93028 27.12833
#
# Velocity S-wave (km/s) = 3.76647 3.87951 3.82341
# Velocity P-wave (km/s) = 7.99263 8.16048 8.07699
#
# Compressibility (1/GPa) = 0.01198354
#
# Stress axis : x y z
#
# Youngs Moduli (GPa) = 57.04671 61.47202 54.94672
#
# Poissons Ratio (x) = 0.45318 0.48609
# Poissons Ratio (y) = 0.42056 0.20812
# Poissons Ratio (z) = 0.50467 0.23284
#
# Static dielectric constant tensor:
#      x y z
#    x 1.697870 0.000000 0.000000 
#    y 0.000000 1.639190 0.000000 
#    z 0.000000 0.000000 1.637820 
# 
# From -- ./inp_files/37192.got.cif
#   From: 2010.05.17/outbox.cif.g08.bks.cpg/sg24_19_cif.got.tgz:37192.got - 2010.06.04 00:33:39.
