data_PCOD9334638
_publ_section_title
;
Structure prediction by ZEFSAII (Michael W. Deem and Ramdas Pophale) SiO2 
 PCOD9334638
Probable space group: I 21 21 21
;
_chemical_formula_sum "Si O2"
_cell_formula_units_Z 56
_cell_length_a 5.649350
_cell_length_b 16.645936
_cell_length_c 27.308455
_cell_angle_alpha 90.000000
_cell_angle_beta 90.000000
_cell_angle_gamma 90.000000
_cell_volume 2568.052114
_symmetry_space_group_name_H-M "I 21 21 21"
_symmetry_group_IT_number 24
_symmetry_cell_setting 'orthorhombic'
loop_
_space_group_symop_operation_xyz
x,y,z
-x,1/2-y,z
x,-y,1/2-z
1/2-x,y,-z
1/2+x,1/2+y,1/2+z
1/2-x,-y,1/2+z
1/2+x,1/2-y,-z
-x,1/2+y,1/2-z
loop_
_atom_site_type_symbol
_atom_site_label
_atom_site_fract_x
_atom_site_fract_y
_atom_site_fract_z
Si Si1 0.753048 0.769226 0.784019
Si Si2 0.249465 0.207973 0.824114
Si Si3 0.040696 0.041417 0.850185
Si Si4 0.406702 0.915846 0.880999
Si Si5 0.727981 0.006198 0.444170
Si Si6 0.107946 0.837361 0.950965
Si Si7 0.806473 0.053000 0.287280
O O1 0.500000 0.750000 0.808256
O O2 0.748131 0.714443 0.735015
O O3 0.766286 0.861181 0.765689
O O4 0.000000 0.750000 0.810912
O O5 0.500000 0.250000 0.839850
O O6 0.210751 0.116669 0.840841
O O7 0.000000 0.250000 0.839643
O O8 0.194780 0.962060 0.855714
O O9 0.896350 0.047535 0.901783
O O10 0.873487 0.016862 0.804845
O O11 0.514042 0.971597 0.923709
O O12 0.295889 0.839758 0.906854
O O13 0.599696 0.913757 0.839143
O O14 0.750000 0.975979 0.500000
O O15 0.583872 0.091233 0.445063
O O16 0.000000 0.750000 0.954806
O O17 0.250000 0.855255 0.000000
O O18 0.965850 0.000000 0.250000
#
# Coordination Sequence:
#
# PCOD9334638 Si02
#       7
#     8   8   8   8   8   8   8
#     4  10  23  41  61  90 127 178 231 288 346 408
#     4  10  22  41  70  97 132 172 231 284 344 420
#     4  10  24  40  66 101 131 174 234 295 343 425
#     4  10  24  41  62  96 133 174 236 287 346 417
#     4  10  20  41  66  94 132 170 229 284 358 425
#     4  11  22  38  64  97 132 186 230 287 355 431
#     4  11  24  42  66  91 134 188 238 290 347 421
#
# _framework density 21.806412000000002
#
# number of rings (size 3 to 8) (size 9 to 14) (size 15 to 20)
#    0.000    1.714    1.429    2.143   10.000    0.571 
#    7.714    0.000    0.000    0.000    3.714    0.000 
#    0.000    0.000    0.000    0.000    0.000    0.000 
#
# Total GULP energy -156075.506585 kJ/mol
# GULP energy per Si atom -5574.125235 kJ/mol
# Density = 2.175678 g / cm^3
# Si number density = 21.806412 Si / 1000 Ang^3
#
#
#
# Elastic Constant Matrix: (Units=GPa)
#
#
# Indices 1 2 3 4 5 6 
#
# 1 97.4421 14.8153 4.6018 0.0000 0.0000 0.0000
# 2 14.8153 57.4807 24.2744 0.0000 0.0000 0.0000
# 3 4.6018 24.2744 63.5919 0.0000 0.0000 0.0000
# 4 0.0000 0.0000 0.0000 20.1724 0.0000 0.0000
# 5 0.0000 0.0000 0.0000 0.0000 2.6691 0.0000
# 6 0.0000 0.0000 0.0000 0.0000 0.0000 27.2782
#
#
#
# Elastic Compliance Matrix: (Units=1/GPa)
#
#
# Indices 1 2 3 4 5 6 
#
# 1 0.010687 -0.002895 0.000332 0.000000 0.000000 0.000000
# 2 -0.002895 0.021525 -0.008007 0.000000 0.000000 0.000000
# 3 0.000332 -0.008007 0.018758 0.000000 0.000000 0.000000
# 4 0.000000 0.000000 0.000000 0.049573 0.000000 0.000000
# 5 0.000000 0.000000 0.000000 0.000000 0.374664 0.000000
# 6 0.000000 0.000000 0.000000 0.000000 0.000000 0.036659
#
#
# Mechanical properties :
#
#
# Convention : Reuss Voigt Hill
#
# Bulk Modulus (GPa) = 33.52396 33.98863 33.75630
# Shear Modulus (GPa) = 9.20898 21.67882 15.44390
#
# Velocity S-wave (km/s) = 2.05724 3.15643 2.66414
# Velocity P-wave (km/s) = 4.58800 5.37629 4.99771
#
# Compressibility (1/GPa) = 0.02982941
#
# Stress axis : x y z
#
# Youngs Moduli (GPa) = 93.57225 46.45856 53.31147
#
# Poissons Ratio (x) = 0.13447 -0.01767
# Poissons Ratio (y) = 0.27085 0.42686
# Poissons Ratio (z) = -0.03102 0.37199
#
# Static dielectric constant tensor:
#      x y z
#    x 1.918970 0.000000 0.000000 
#    y 0.000000 1.805580 0.000000 
#    z 0.000000 0.000000 1.825200 
# 
# From -- ./inp_files/24063.got.cif
#   From: 2010.05.17/outbox.cif.g08.bks.cpg/sg24_13_cif.got.tgz:24063.got - 2010.06.04 00:33:39.
