data_PCOD9334922
_publ_section_title
;
Structure prediction by ZEFSAII (Michael W. Deem and Ramdas Pophale) SiO2 
 PCOD9334922
Probable space group: I 21 21 21
;
_chemical_formula_sum "Si O2"
_cell_formula_units_Z 48
_cell_length_a 7.115948
_cell_length_b 14.928104
_cell_length_c 18.890863
_cell_angle_alpha 90.000000
_cell_angle_beta 90.000000
_cell_angle_gamma 90.000000
_cell_volume 2006.731261
_symmetry_space_group_name_H-M "I 21 21 21"
_symmetry_group_IT_number 24
_symmetry_cell_setting 'orthorhombic'
loop_
_space_group_symop_operation_xyz
x,y,z
-x,1/2-y,z
x,-y,1/2-z
1/2-x,y,-z
1/2+x,1/2+y,1/2+z
1/2-x,-y,1/2+z
1/2+x,1/2-y,-z
-x,1/2+y,1/2-z
loop_
_atom_site_type_symbol
_atom_site_label
_atom_site_fract_x
_atom_site_fract_y
_atom_site_fract_z
Si Si1 0.045024 0.854833 0.682927
Si Si2 0.752990 0.572879 0.923381
Si Si3 0.063432 0.936848 0.315363
Si Si4 0.247115 0.576011 0.579623
Si Si5 0.423316 0.652011 0.169759
Si Si6 0.366057 0.365834 0.566630
O O1 0.266033 0.868498 0.699341
O O2 0.000000 0.750000 0.670402
O O3 0.954574 0.907920 0.616413
O O4 0.945054 0.892252 0.754117
O O5 0.670047 0.507989 0.865173
O O6 0.588498 0.646203 0.936855
O O7 0.946235 0.610156 0.892186
O O8 0.750000 0.525995 0.000000
O O9 0.898194 0.892070 0.361479
O O10 0.999526 0.000000 0.250000
O O11 0.250000 0.615213 0.500000
O O12 0.311509 0.472474 0.569581
O O13 0.500000 0.750000 0.181639
O O14 0.215176 0.663733 0.141263
O O15 0.250000 0.329075 0.500000
#
# Coordination Sequence:
#
# PCOD9334922 Si02
#       6
#     8   8   8   8   8   8
#     4  11  26  45  66  96 133 174 215 269 329 393
#     4  11  22  39  62  94 128 164 218 272 314 379
#     4  11  24  41  72 101 127 174 222 267 328 388
#     4  10  25  44  69  99 127 167 217 279 331 383
#     4  11  24  40  59  88 133 176 210 257 323 390
#     4  10  21  38  62  91 124 165 212 263 315 377
#
# _framework density 23.919494
#
# number of rings (size 3 to 8) (size 9 to 14) (size 15 to 20)
#    0.000    1.333    3.333    1.000    9.333    2.000 
#    3.000    3.333    0.000    0.000    0.000    0.000 
#    0.000    0.000    0.000    0.000    0.000    0.000 
#
# Total GULP energy -133959.520093 kJ/mol
# GULP energy per Si atom -5581.646671 kJ/mol
# Density = 2.386505 g / cm^3
# Si number density = 23.919494 Si / 1000 Ang^3
#
#
#
# Elastic Constant Matrix: (Units=GPa)
#
#
# Indices 1 2 3 4 5 6 
#
# 1 113.8972 3.5737 23.8399 0.0000 0.0000 0.0000
# 2 3.5737 56.3090 3.5805 0.0000 0.0000 0.0000
# 3 23.8399 3.5805 144.1289 0.0000 0.0000 0.0000
# 4 0.0000 0.0000 0.0000 13.3920 0.0000 0.0000
# 5 0.0000 0.0000 0.0000 0.0000 38.2622 0.0000
# 6 0.0000 0.0000 0.0000 0.0000 0.0000 22.4620
#
#
#
# Elastic Compliance Matrix: (Units=1/GPa)
#
#
# Indices 1 2 3 4 5 6 
#
# 1 0.009108 -0.000483 -0.001494 0.000000 0.000000 0.000000
# 2 -0.000483 0.017813 -0.000363 0.000000 0.000000 0.000000
# 3 -0.001494 -0.000363 0.007194 0.000000 0.000000 0.000000
# 4 0.000000 0.000000 0.000000 0.074672 0.000000 0.000000
# 5 0.000000 0.000000 0.000000 0.000000 0.026135 0.000000
# 6 0.000000 0.000000 0.000000 0.000000 0.000000 0.044520
#
#
# Mechanical properties :
#
#
# Convention : Reuss Voigt Hill
#
# Bulk Modulus (GPa) = 33.97331 41.81370 37.89351
# Shear Modulus (GPa) = 25.78201 33.71263 29.74732
#
# Velocity S-wave (km/s) = 3.28665 3.75830 3.53036
# Velocity P-wave (km/s) = 5.35133 6.02927 5.70039
#
# Compressibility (1/GPa) = 0.02943487
#
# Stress axis : x y z
#
# Youngs Moduli (GPa) = 109.79577 56.13921 138.99623
#
# Poissons Ratio (x) = 0.02712 0.20773
# Poissons Ratio (y) = 0.05303 0.05040
# Poissons Ratio (z) = 0.16409 0.02036
#
# Static dielectric constant tensor:
#      x y z
#    x 2.010370 0.000000 0.000000 
#    y 0.000000 1.966870 0.000000 
#    z 0.000000 0.000000 2.000040 
# 
# From -- ./inp_files/29477.got.cif
#   From: 2010.05.17/outbox.cif.g08.bks.cpg/sg24_15_cif.got.tgz:29477.got - 2010.06.04 00:33:39.
