data_PCOD9334925
_publ_section_title
;
Structure prediction by ZEFSAII (Michael W. Deem and Ramdas Pophale) SiO2 
 PCOD9334925
Probable space group: I 21 21 21
;
_chemical_formula_sum "Si O2"
_cell_formula_units_Z 48
_cell_length_a 9.201771
_cell_length_b 18.005790
_cell_length_c 15.190087
_cell_angle_alpha 90.000000
_cell_angle_beta 90.000000
_cell_angle_gamma 90.000000
_cell_volume 2516.771938
_symmetry_space_group_name_H-M "I 21 21 21"
_symmetry_group_IT_number 24
_symmetry_cell_setting 'orthorhombic'
loop_
_space_group_symop_operation_xyz
x,y,z
-x,1/2-y,z
x,-y,1/2-z
1/2-x,y,-z
1/2+x,1/2+y,1/2+z
1/2-x,-y,1/2+z
1/2+x,1/2-y,-z
-x,1/2+y,1/2-z
loop_
_atom_site_type_symbol
_atom_site_label
_atom_site_fract_x
_atom_site_fract_y
_atom_site_fract_z
Si Si1 0.906972 0.944763 0.994125
Si Si2 0.660966 0.720495 0.758081
Si Si3 0.159631 0.282032 0.581132
Si Si4 0.349579 0.205812 0.087811
Si Si5 0.842106 0.535547 0.589392
Si Si6 0.587041 0.554142 0.822929
O O1 0.871362 0.866303 0.948051
O O2 0.750000 0.983619 0.000000
O O3 0.016087 0.988877 0.932225
O O4 0.985786 0.936080 0.089745
O O5 0.500000 0.750000 0.744066
O O6 0.741261 0.766243 0.834973
O O7 0.754416 0.731694 0.670493
O O8 0.637577 0.634192 0.786465
O O9 0.250000 0.246302 0.500000
O O10 0.000000 0.250000 0.594526
O O11 0.500000 0.250000 0.077089
O O12 0.381180 0.119682 0.111582
O O13 0.250000 0.210409 0.000000
O O14 0.750000 0.541301 0.500000
O O15 0.732358 0.491416 0.651575
O O16 0.513574 0.500000 0.750000
#
# Coordination Sequence:
#
# PCOD9334925 Si02
#       6
#     8   8   8   8   8   8
#     4  10  21  38  62  96 130 165 210 273 337 382
#     4  12  24  41  66  96 131 172 219 274 330 396
#     4  11  21  37  62  97 135 170 209 268 334 398
#     4  11  24  44  64  90 124 170 223 276 329 390
#     4   9  20  40  64  86 121 169 216 257 318 402
#     4  11  21  41  67  94 127 177 222 261 323 416
#
# _framework density 19.072049
#
# number of rings (size 3 to 8) (size 9 to 14) (size 15 to 20)
#    0.000    1.333    1.667    5.500    0.000    2.000 
#    3.000    0.833    0.000    0.000    0.000    0.000 
#    0.000    0.000    0.000    0.000    0.000    0.000 
#
# Total GULP energy -133898.441114 kJ/mol
# GULP energy per Si atom -5579.101713 kJ/mol
# Density = 1.902864 g / cm^3
# Si number density = 19.072049 Si / 1000 Ang^3
#
#
#
# Elastic Constant Matrix: (Units=GPa)
#
#
# Indices 1 2 3 4 5 6 
#
# 1 149.8336 56.0259 54.6254 0.0000 0.0000 0.0000
# 2 56.0259 109.2535 39.7623 0.0000 0.0000 0.0000
# 3 54.6254 39.7623 136.3760 0.0000 0.0000 0.0000
# 4 0.0000 0.0000 0.0000 29.2264 0.0000 0.0000
# 5 0.0000 0.0000 0.0000 0.0000 2.9820 0.0000
# 6 0.0000 0.0000 0.0000 0.0000 0.0000 49.4694
#
#
#
# Elastic Compliance Matrix: (Units=1/GPa)
#
#
# Indices 1 2 3 4 5 6 
#
# 1 0.008970 -0.003683 -0.002519 0.000000 0.000000 0.000000
# 2 -0.003683 0.011752 -0.001951 0.000000 0.000000 0.000000
# 3 -0.002519 -0.001951 0.008911 0.000000 0.000000 0.000000
# 4 0.000000 0.000000 0.000000 0.034216 0.000000 0.000000
# 5 0.000000 0.000000 0.000000 0.000000 0.335341 0.000000
# 6 0.000000 0.000000 0.000000 0.000000 0.000000 0.020215
#
#
# Mechanical properties :
#
#
# Convention : Reuss Voigt Hill
#
# Bulk Modulus (GPa) = 75.04267 77.36559 76.20413
# Shear Modulus (GPa) = 11.35975 32.67219 22.01597
#
# Velocity S-wave (km/s) = 2.44319 4.14344 3.40127
# Velocity P-wave (km/s) = 6.88413 7.97144 7.44765
#
# Compressibility (1/GPa) = 0.01332575
#
# Stress axis : x y z
#
# Youngs Moduli (GPa) = 111.48874 85.09367 112.22667
#
# Poissons Ratio (x) = 0.31339 0.28269
# Poissons Ratio (y) = 0.41060 0.21898
# Poissons Ratio (z) = 0.28083 0.16604
#
# Static dielectric constant tensor:
#      x y z
#    x 1.661230 0.000000 0.000000 
#    y 0.000000 1.967210 0.000000 
#    z 0.000000 0.000000 1.653450 
# 
# From -- ./inp_files/24788.got.cif
#   From: 2010.05.17/outbox.cif.g08.bks.cpg/sg24_13_cif.got.tgz:24788.got - 2010.06.04 00:33:39.
