data_PCOD9334949
_publ_section_title
;
Structure prediction by ZEFSAII (Michael W. Deem and Ramdas Pophale) SiO2 
 PCOD9334949
Probable space group: I 21 21 21
;
_chemical_formula_sum "Si O2"
_cell_formula_units_Z 40
_cell_length_a 12.209375
_cell_length_b 7.173749
_cell_length_c 17.642668
_cell_angle_alpha 90.000000
_cell_angle_beta 90.000000
_cell_angle_gamma 90.000000
_cell_volume 1545.268216
_symmetry_space_group_name_H-M "I 21 21 21"
_symmetry_group_IT_number 24
_symmetry_cell_setting 'orthorhombic'
loop_
_space_group_symop_operation_xyz
x,y,z
-x,1/2-y,z
x,-y,1/2-z
1/2-x,y,-z
1/2+x,1/2+y,1/2+z
1/2-x,-y,1/2+z
1/2+x,1/2-y,-z
-x,1/2+y,1/2-z
loop_
_atom_site_type_symbol
_atom_site_label
_atom_site_fract_x
_atom_site_fract_y
_atom_site_fract_z
Si Si1 0.725643 0.547026 0.159920
Si Si2 0.505116 0.523569 0.086845
Si Si3 0.851097 0.987618 0.048119
Si Si4 0.474846 0.966726 0.660108
Si Si5 0.298810 0.486932 0.333901
O O1 0.710057 0.500000 0.250000
O O2 0.627616 0.467990 0.107907
O O3 0.849503 0.501748 0.138162
O O4 0.713406 0.768441 0.150091
O O5 0.500000 0.750000 0.075395
O O6 0.426504 0.471411 0.157149
O O7 0.437936 0.446214 0.014854
O O8 0.936165 0.916541 0.112104
O O9 0.771907 0.101663 0.105503
O O10 0.750000 0.892273 0.000000
O O11 0.500000 0.750000 0.645403
O O12 0.485475 0.000000 0.750000
O O13 0.255858 0.500000 0.250000
#
# Coordination Sequence:
#
# PCOD9334949 Si02
#       5
#     8   8   8   8   8
#     4  10  23  40  65 100 129 171 224 272 329 383
#     4   9  20  40  63  99 138 173 216 265 328 399
#     4  10  23  41  65  94 132 174 216 263 337 390
#     4  11  27  45  68  98 129 171 223 277 332 390
#     4  10  21  38  69  98 131 174 217 271 322 392
#
# _framework density 25.885475
#
# number of rings (size 3 to 8) (size 9 to 14) (size 15 to 20)
#    0.000    2.000    0.000    1.200   14.000    0.800 
#    3.600    0.000    0.000    0.000    0.000    0.000 
#    0.000    0.000    0.000    0.000    0.000    0.000 
#
# Total GULP energy -111482.508158 kJ/mol
# GULP energy per Si atom -5574.125408 kJ/mol
# Density = 2.582656 g / cm^3
# Si number density = 25.885475 Si / 1000 Ang^3
#
#
#
# Elastic Constant Matrix: (Units=GPa)
#
#
# Indices 1 2 3 4 5 6 
#
# 1 291.3608 38.4650 90.4137 0.0000 0.0000 0.0000
# 2 38.4650 96.4117 -2.1251 0.0000 0.0000 0.0000
# 3 90.4137 -2.1251 157.2825 0.0000 0.0000 0.0000
# 4 0.0000 0.0000 0.0000 10.3818 0.0000 0.0000
# 5 0.0000 0.0000 0.0000 0.0000 61.1702 0.0000
# 6 0.0000 0.0000 0.0000 0.0000 0.0000 29.6153
#
#
#
# Elastic Compliance Matrix: (Units=1/GPa)
#
#
# Indices 1 2 3 4 5 6 
#
# 1 0.004483 -0.001846 -0.002602 0.000000 0.000000 0.000000
# 2 -0.001846 0.011135 0.001212 0.000000 0.000000 0.000000
# 3 -0.002602 0.001212 0.007870 0.000000 0.000000 0.000000
# 4 0.000000 0.000000 0.000000 0.096322 0.000000 0.000000
# 5 0.000000 0.000000 0.000000 0.000000 0.016348 0.000000
# 6 0.000000 0.000000 0.000000 0.000000 0.000000 0.033766
#
#
# Mechanical properties :
#
#
# Convention : Reuss Voigt Hill
#
# Bulk Modulus (GPa) = 58.76893 88.72915 73.74904
# Shear Modulus (GPa) = 27.46186 48.12023 37.79104
#
# Velocity S-wave (km/s) = 3.26068 4.31625 3.82505
# Velocity P-wave (km/s) = 6.07690 7.69364 6.93256
#
# Compressibility (1/GPa) = 0.01701579
#
# Stress axis : x y z
#
# Youngs Moduli (GPa) = 223.04524 89.80358 127.06094
#
# Poissons Ratio (x) = 0.16578 0.33064
# Poissons Ratio (y) = 0.41176 -0.15396
# Poissons Ratio (z) = 0.58041 -0.10881
#
# Static dielectric constant tensor:
#      x y z
#    x 2.010920 0.000000 0.000000 
#    y 0.000000 2.105920 0.000000 
#    z 0.000000 0.000000 2.087780 
# 
# From -- ./inp_files/10676.got.cif
#   From: 2010.05.17/outbox.cif.g08.bks.cpg/sg24_6_cif.got.tgz:10676.got - 2010.06.04 00:33:39.
