data_PCOD9334754
_publ_section_title
;
Structure prediction by ZEFSAII (Michael W. Deem and Ramdas Pophale) SiO2 
 PCOD9334754
Probable space group: I 21 21 21
;
_chemical_formula_sum "Si O2"
_cell_formula_units_Z 48
_cell_length_a 5.212070
_cell_length_b 22.661186
_cell_length_c 20.479490
_cell_angle_alpha 90.000000
_cell_angle_beta 90.000000
_cell_angle_gamma 90.000000
_cell_volume 2418.867127
_symmetry_space_group_name_H-M "I 21 21 21"
_symmetry_group_IT_number 24
_symmetry_cell_setting 'orthorhombic'
loop_
_space_group_symop_operation_xyz
x,y,z
-x,1/2-y,z
x,-y,1/2-z
1/2-x,y,-z
1/2+x,1/2+y,1/2+z
1/2-x,-y,1/2+z
1/2+x,1/2-y,-z
-x,1/2+y,1/2-z
loop_
_atom_site_type_symbol
_atom_site_label
_atom_site_fract_x
_atom_site_fract_y
_atom_site_fract_z
Si Si1 0.628506 0.030303 0.061632
Si Si2 0.978784 0.557810 0.130664
Si Si3 0.822079 0.101833 0.239065
Si Si4 0.250000 0.935229 0.000000
Si Si5 0.666167 0.546699 0.320893
Si Si6 0.249966 0.290888 0.145154
Si Si7 0.250000 0.708099 0.500000
O O1 0.467811 0.977705 0.028615
O O2 0.837731 0.995621 0.105336
O O3 0.433154 0.065449 0.107161
O O4 0.750000 0.063039 0.000000
O O5 0.872530 0.591497 0.066241
O O6 0.754798 0.521103 0.167942
O O7 0.119893 0.597905 0.183841
O O8 0.582551 0.059768 0.222419
O O9 0.752328 0.162873 0.204272
O O10 0.084885 0.080330 0.204580
O O11 0.500000 0.250000 0.149056
O O12 0.000000 0.250000 0.150449
O O13 0.242334 0.320377 0.072588
O O14 0.500000 0.750000 0.498522
#
# Coordination Sequence:
#
# PCOD9334754 Si02
#       7
#     8   8   8   4   8   8   4
#     4   9  18  36  53  75 114 167 193 234 276 335
#     4  10  21  35  57  80 127 156 200 232 291 351
#     4  12  25  35  59  90 115 158 201 244 308 355
#     4   8  18  34  56  77 110 168 198 235 276 350
#     4  11  23  36  52  85 123 160 192 239 285 356
#     4  10  21  43  61  83 114 147 199 257 296 352
#     4   8  16  34  64  77 100 148 188 241 302 336
#
# _framework density 19.843999
#
# number of rings (size 3 to 8) (size 9 to 14) (size 15 to 20)
#    0.000    2.000    1.667    1.500    7.000    0.000 
#    1.500    0.000    0.000    0.000    0.000    0.000 
#    7.500    0.000    0.000    0.000    0.000    0.000 
#
# Total GULP energy -133765.723178 kJ/mol
# GULP energy per Si atom -5573.571799 kJ/mol
# Density = 1.979883 g / cm^3
# Si number density = 19.843999 Si / 1000 Ang^3
#
#
#
# Elastic Constant Matrix: (Units=GPa)
#
#
# Indices 1 2 3 4 5 6 
#
# 1 138.1111 23.5742 56.9040 0.0000 0.0000 0.0000
# 2 23.5742 53.0187 53.7320 0.0000 0.0000 0.0000
# 3 56.9040 53.7320 166.8646 0.0000 0.0000 0.0000
# 4 0.0000 0.0000 0.0000 32.6593 0.0000 0.0000
# 5 0.0000 0.0000 0.0000 0.0000 48.0123 0.0000
# 6 0.0000 0.0000 0.0000 0.0000 0.0000 16.6054
#
#
#
# Elastic Compliance Matrix: (Units=1/GPa)
#
#
# Indices 1 2 3 4 5 6 
#
# 1 0.008479 -0.001247 -0.002490 0.000000 0.000000 0.000000
# 2 -0.001247 0.028181 -0.008650 0.000000 0.000000 0.000000
# 3 -0.002490 -0.008650 0.009627 0.000000 0.000000 0.000000
# 4 0.000000 0.000000 0.000000 0.030619 0.000000 0.000000
# 5 0.000000 0.000000 0.000000 0.000000 0.020828 0.000000
# 6 0.000000 0.000000 0.000000 0.000000 0.000000 0.060221
#
#
# Mechanical properties :
#
#
# Convention : Reuss Voigt Hill
#
# Bulk Modulus (GPa) = 46.47820 69.60165 58.03993
# Shear Modulus (GPa) = 26.32949 34.37436 30.35193
#
# Velocity S-wave (km/s) = 3.64651 4.16652 3.91516
# Velocity P-wave (km/s) = 6.41888 7.63525 7.05334
#
# Compressibility (1/GPa) = 0.02151546
#
# Stress axis : x y z
#
# Youngs Moduli (GPa) = 117.93389 35.48427 103.87063
#
# Poissons Ratio (x) = 0.04423 0.25866
# Poissons Ratio (y) = 0.14701 0.89844
# Poissons Ratio (z) = 0.29368 0.30693
#
# Static dielectric constant tensor:
#      x y z
#    x 1.762620 0.000000 0.000000 
#    y 0.000000 1.686850 0.000000 
#    z 0.000000 0.000000 1.854880 
# 
# From -- ./inp_files/32151.got.cif
#   From: 2010.05.17/outbox.cif.g08.bks.cpg/sg24_17_cif.got.tgz:32151.got - 2010.06.04 00:33:39.
