data_PCOD9334185
_publ_section_title
;
Structure prediction by ZEFSAII (Michael W. Deem and Ramdas Pophale) SiO2 
 PCOD9334185
Probable space group: I 21 21 21
;
_chemical_formula_sum "Si O2"
_cell_formula_units_Z 44
_cell_length_a 13.692596
_cell_length_b 11.812015
_cell_length_c 13.674640
_cell_angle_alpha 90.000000
_cell_angle_beta 90.000000
_cell_angle_gamma 90.000000
_cell_volume 2211.697292
_symmetry_space_group_name_H-M "I 21 21 21"
_symmetry_group_IT_number 24
_symmetry_cell_setting 'orthorhombic'
loop_
_space_group_symop_operation_xyz
x,y,z
-x,1/2-y,z
x,-y,1/2-z
1/2-x,y,-z
1/2+x,1/2+y,1/2+z
1/2-x,-y,1/2+z
1/2+x,1/2-y,-z
-x,1/2+y,1/2-z
loop_
_atom_site_type_symbol
_atom_site_label
_atom_site_fract_x
_atom_site_fract_y
_atom_site_fract_z
Si Si1 0.640280 0.000000 0.250000
Si Si2 0.399669 0.936057 0.973965
Si Si3 0.785852 0.768185 0.660620
Si Si4 0.894730 0.298264 0.032308
Si Si5 0.569111 0.848905 0.087037
Si Si6 0.723773 0.326690 0.370086
O O1 0.698325 0.105916 0.203859
O O2 0.577044 0.049323 0.338248
O O3 0.509415 0.889911 0.991837
O O4 0.343308 0.921090 0.077975
O O5 0.333628 0.859443 0.901734
O O6 0.394874 0.067249 0.949775
O O7 0.865218 0.732391 0.579407
O O8 0.684903 0.757458 0.602876
O O9 0.786303 0.686901 0.754865
O O10 0.000000 0.250000 0.053203
O O11 0.500000 0.750000 0.129815
O O12 0.674996 0.788416 0.083717
#
# Coordination Sequence:
#
# PCOD9334185 Si02
#       6
#     4   8   8   8   8   8
#     4  10  20  38  60  86 118 160 200 250 306 346
#     4  10  20  36  60  91 123 156 195 249 306 347
#     4  10  22  41  63  87 121 160 204 249 296 361
#     4  11  24  41  61  90 122 158 204 248 300 363
#     4   9  19  34  56  88 118 149 199 247 295 353
#     4   9  19  37  59  88 119 156 202 242 294 359
#
# _framework density 19.894224000000001
#
# number of rings (size 3 to 8) (size 9 to 14) (size 15 to 20)
#    0.000    2.182    0.000    3.273    0.000   13.091 
#    0.000   44.545    0.000    0.000    0.000    0.000 
#    0.000    0.000    0.000    0.000    0.000    0.000 
#
# Total GULP energy -122599.274393 kJ/mol
# GULP energy per Si atom -5572.694291 kJ/mol
# Density = 1.984894 g / cm^3
# Si number density = 19.894224 Si / 1000 Ang^3
#
#
#
# Elastic Constant Matrix: (Units=GPa)
#
#
# Indices 1 2 3 4 5 6 
#
# 1 71.3695 23.0577 5.7135 0.0000 0.0000 0.0000
# 2 23.0577 88.3045 12.5935 0.0000 0.0000 0.0000
# 3 5.7135 12.5935 58.3902 0.0000 0.0000 0.0000
# 4 0.0000 0.0000 0.0000 32.1065 0.0000 0.0000
# 5 0.0000 0.0000 0.0000 0.0000 11.1287 0.0000
# 6 0.0000 0.0000 0.0000 0.0000 0.0000 19.3183
#
#
#
# Elastic Compliance Matrix: (Units=1/GPa)
#
#
# Indices 1 2 3 4 5 6 
#
# 1 0.015327 -0.003908 -0.000657 0.000000 0.000000 0.000000
# 2 -0.003908 0.012680 -0.002352 0.000000 0.000000 0.000000
# 3 -0.000657 -0.002352 0.017698 0.000000 0.000000 0.000000
# 4 0.000000 0.000000 0.000000 0.031146 0.000000 0.000000
# 5 0.000000 0.000000 0.000000 0.000000 0.089857 0.000000
# 6 0.000000 0.000000 0.000000 0.000000 0.000000 0.051764
#
#
# Mechanical properties :
#
#
# Convention : Reuss Voigt Hill
#
# Bulk Modulus (GPa) = 31.37762 33.42150 32.39956
# Shear Modulus (GPa) = 20.58189 24.29067 22.43628
#
# Velocity S-wave (km/s) = 3.21996 3.49806 3.36188
# Velocity P-wave (km/s) = 5.44340 5.75772 5.60276
#
# Compressibility (1/GPa) = 0.03186985
#
# Stress axis : x y z
#
# Youngs Moduli (GPa) = 65.24483 78.86131 56.50420
#
# Poissons Ratio (x) = 0.30822 0.03711
# Poissons Ratio (y) = 0.25500 0.13292
# Poissons Ratio (z) = 0.04285 0.18552
#
# Static dielectric constant tensor:
#      x y z
#    x 1.745950 0.000000 0.000000 
#    y 0.000000 1.720260 0.000000 
#    z 0.000000 0.000000 1.700690 
# 
# From -- ./inp_files/26391.got.cif
#   From: 2010.05.17/outbox.cif.g08.bks.cpg/sg24_14_cif.got.tgz:26391.got - 2010.06.04 00:33:39.
