data_PCOD9334995
_publ_section_title
;
Structure prediction by ZEFSAII (Michael W. Deem and Ramdas Pophale) SiO2 
 PCOD9334995
Probable space group: I 21 21 21
;
_chemical_formula_sum "Si O2"
_cell_formula_units_Z 48
_cell_length_a 9.461924
_cell_length_b 17.958669
_cell_length_c 14.212114
_cell_angle_alpha 90.000000
_cell_angle_beta 90.000000
_cell_angle_gamma 90.000000
_cell_volume 2414.973023
_symmetry_space_group_name_H-M "I 21 21 21"
_symmetry_group_IT_number 24
_symmetry_cell_setting 'orthorhombic'
loop_
_space_group_symop_operation_xyz
x,y,z
-x,1/2-y,z
x,-y,1/2-z
1/2-x,y,-z
1/2+x,1/2+y,1/2+z
1/2-x,-y,1/2+z
1/2+x,1/2-y,-z
-x,1/2+y,1/2-z
loop_
_atom_site_type_symbol
_atom_site_label
_atom_site_fract_x
_atom_site_fract_y
_atom_site_fract_z
Si Si1 0.299126 0.252800 0.316976
Si Si2 0.500000 0.750000 0.901711
Si Si3 0.454994 0.981845 0.355575
Si Si4 0.010448 0.643882 0.922977
Si Si5 0.033727 0.671618 0.434628
Si Si6 0.829334 0.845325 0.634033
Si Si7 0.250000 0.908519 0.500000
O O1 0.136306 0.242213 0.337213
O O2 0.390326 0.183208 0.356352
O O3 0.346020 0.321669 0.382837
O O4 0.334806 0.281109 0.212752
O O5 0.504679 0.679052 0.973372
O O6 0.575292 0.918008 0.346426
O O7 0.324742 0.953502 0.416968
O O8 0.410709 0.000000 0.250000
O O9 0.507830 0.056231 0.408407
O O10 0.105010 0.685033 0.537020
O O11 0.163843 0.633132 0.379931
O O12 0.000000 0.750000 0.387771
O O13 0.883023 0.634073 0.453336
#
# Coordination Sequence:
#
# PCOD9334995 Si02
#       7
#     8   4   8   8   8   8   4
#     4  10  21  39  64  94 125 163 222 266 316 388
#     4  10  22  40  60 104 126 156 228 266 336 370
#     4  11  23  43  65  92 132 176 217 259 338 399
#     4  10  21  40  66  87 128 174 206 261 325 399
#     4  10  22  41  65  89 126 163 217 268 332 379
#     4  10  22  41  60  96 125 169 212 269 321 397
#     4  10  24  42  62  96 128 168 214 274 328 388
#
# _framework density 19.875997999999999
#
# number of rings (size 3 to 8) (size 9 to 14) (size 15 to 20)
#    0.000    2.000    1.667    3.000    5.833    1.333 
#   12.000    0.833    0.000    0.000    0.000    0.000 
#    0.000    0.000    0.000    0.000    0.000    0.000 
#
# Total GULP energy -133831.907551 kJ/mol
# GULP energy per Si atom -5576.329481 kJ/mol
# Density = 1.983076 g / cm^3
# Si number density = 19.875998 Si / 1000 Ang^3
#
#
#
# Elastic Constant Matrix: (Units=GPa)
#
#
# Indices 1 2 3 4 5 6 
#
# 1 120.2473 12.4111 17.8575 0.0000 0.0000 0.0000
# 2 12.4111 34.3657 11.0231 0.0000 0.0000 0.0000
# 3 17.8575 11.0231 78.0150 0.0001 0.0000 0.0000
# 4 0.0000 0.0000 0.0001 11.0855 0.0000 0.0000
# 5 0.0000 0.0000 0.0000 0.0000 20.6507 0.0000
# 6 0.0000 0.0000 0.0000 0.0000 0.0000 -0.5962
#
#
#
# Elastic Compliance Matrix: (Units=1/GPa)
#
#
# Indices 1 2 3 4 5 6 
#
# 1 0.008836 -0.002663 -0.001646 0.000000 0.000000 0.000000
# 2 -0.002663 0.031283 -0.003811 0.000000 0.000000 0.000000
# 3 -0.001646 -0.003811 0.013733 0.000000 0.000000 0.000000
# 4 0.000000 0.000000 0.000000 0.090208 0.000000 -0.000001
# 5 0.000000 0.000000 0.000000 0.000000 0.048424 0.000000
# 6 0.000000 0.000000 0.000000 -0.000001 0.000000 -1.677408
#
#
# Mechanical properties :
#
#
# Convention : Reuss Voigt Hill
#
# Bulk Modulus (GPa) = 26.58709 35.02350 30.80529
# Shear Modulus (GPa) = -3.43372 18.98377 7.77502
#
# Velocity S-wave (km/s) = -1.31580 3.09384 1.97996
# Velocity P-wave (km/s) = 3.33123 5.51559 4.55625
#
# Compressibility (1/GPa) = 0.03761224
#
# Stress axis : x y z
#
# Youngs Moduli (GPa) = 113.17962 31.96653 72.81591
#
# Poissons Ratio (x) = 0.08512 0.11987
# Poissons Ratio (y) = 0.30139 0.27747
# Poissons Ratio (z) = 0.18631 0.12181
#
# Static dielectric constant tensor:
#      x y z
#    x 1.848390 0.000000 0.000000 
#    y 0.000000 1.712750 0.000000 
#    z 0.000000 0.000000 1.777050 
# 
# From -- ./inp_files/24847.got.cif
#   From: 2010.05.17/outbox.cif.g08.bks.cpg/sg24_13_cif.got.tgz:24847.got - 2010.06.04 00:33:39.
