data_PCOD9334618
_publ_section_title
;
Structure prediction by ZEFSAII (Michael W. Deem and Ramdas Pophale) SiO2 
 PCOD9334618
Probable space group: I 21 21 21
;
_chemical_formula_sum "Si O2"
_cell_formula_units_Z 36
_cell_length_a 10.538860
_cell_length_b 26.464192
_cell_length_c 5.268010
_cell_angle_alpha 90.000000
_cell_angle_beta 90.000000
_cell_angle_gamma 90.000000
_cell_volume 1469.260709
_symmetry_space_group_name_H-M "I 21 21 21"
_symmetry_group_IT_number 24
_symmetry_cell_setting 'orthorhombic'
loop_
_space_group_symop_operation_xyz
x,y,z
-x,1/2-y,z
x,-y,1/2-z
1/2-x,y,-z
1/2+x,1/2+y,1/2+z
1/2-x,-y,1/2+z
1/2+x,1/2-y,-z
-x,1/2+y,1/2-z
loop_
_atom_site_type_symbol
_atom_site_label
_atom_site_fract_x
_atom_site_fract_y
_atom_site_fract_z
Si Si1 0.020545 0.000000 0.250000
Si Si2 0.103205 0.869118 0.718393
Si Si3 0.059358 0.390116 0.277074
Si Si4 0.636168 0.254855 0.320343
Si Si5 0.250000 0.674917 0.500000
Si Si6 0.250000 0.050121 0.500000
O O1 0.125909 0.015927 0.460156
O O2 0.934399 0.049505 0.237314
O O3 0.155074 0.812473 0.739699
O O4 0.210312 0.910943 0.777837
O O5 0.037276 0.874966 0.448284
O O6 0.001143 0.877224 0.949253
O O7 0.188176 0.360943 0.211767
O O8 0.500000 0.250000 0.450024
O O9 0.750000 0.240551 0.500000
O O10 0.642257 0.213622 0.097836
#
# Coordination Sequence:
#
# PCOD9334618 Si02
#       6
#     4   8   8   8   4   4
#     4  10  22  42  74 102 144 186 254 302 390 430
#     4  11  24  44  71 108 146 183 247 303 385 437
#     4  11  26  47  70 105 144 194 242 314 365 461
#     4  12  26  46  75 110 151 209 248 315 379 470
#     4  12  28  44  75 102 157 192 256 296 386 452
#     4  10  20  40  71 106 137 184 238 324 370 444
#
# _framework density 24.502116999999998
#
# number of rings (size 3 to 8) (size 9 to 14) (size 15 to 20)
#    0.000    0.889    3.333    2.667    3.111    6.222 
#    0.000    4.444    0.000    0.000    0.000    0.000 
#    0.000    0.000    0.000    0.000    0.000    0.000 
#
# Total GULP energy -100716.942870 kJ/mol
# GULP energy per Si atom -5595.385715 kJ/mol
# Density = 2.444635 g / cm^3
# Si number density = 24.502117 Si / 1000 Ang^3
#
#
#
# Elastic Constant Matrix: (Units=GPa)
#
#
# Indices 1 2 3 4 5 6 
#
# 1 90.0553 27.0487 29.8404 0.0112 -0.0007 -0.0006
# 2 27.0487 207.7837 14.2959 0.0200 0.0001 -0.0032
# 3 29.8404 14.2959 76.8962 0.0611 -0.0178 0.0320
# 4 0.0112 0.0200 0.0611 -47.2530 0.0034 0.0291
# 5 -0.0007 0.0001 -0.0178 0.0034 42.3179 -0.0017
# 6 -0.0006 -0.0032 0.0320 0.0291 -0.0017 33.2109
#
#
#
# Elastic Compliance Matrix: (Units=1/GPa)
#
#
# Indices 1 2 3 4 5 6 
#
# 1 0.013120 -0.001375 -0.004836 -0.000004 -0.000002 0.000005
# 2 -0.001375 0.005019 -0.000399 0.000001 0.000000 0.000001
# 3 -0.004836 -0.000399 0.014955 0.000018 0.000006 -0.000015
# 4 -0.000004 0.000001 0.000018 -0.021163 0.000002 0.000019
# 5 -0.000002 0.000000 0.000006 0.000002 0.023631 0.000001
# 6 0.000005 0.000001 -0.000015 0.000019 0.000001 0.030111
#
#
# Mechanical properties :
#
#
# Convention : Reuss Voigt Hill
#
# Bulk Modulus (GPa) = 50.31776 57.45614 53.88695
# Shear Modulus (GPa) = 58.46738 25.89183 42.17961
#
# Velocity S-wave (km/s) = 4.89019 3.25425 4.15356
# Velocity P-wave (km/s) = 7.24334 6.13356 6.71143
#
# Compressibility (1/GPa) = 0.01987370
#
# Stress axis : x y z
#
# Youngs Moduli (GPa) = 76.22167 199.23500 66.86592
#
# Poissons Ratio (x) = 0.27398 0.32333
# Poissons Ratio (y) = 0.10482 0.02671
# Poissons Ratio (z) = 0.36857 0.07959
#
# Static dielectric constant tensor:
#      x y z
#    x 2.046770 0.000010 -0.000030 
#    y 0.000010 1.934440 -0.000010 
#    z -0.000030 -0.000010 2.026960 
# 
# From -- ./inp_files/2313.got.cif
#   From: 2010.05.17/outbox.cif.g08.bks.cpg/sg24_2_cif.got.tgz:2313.got - 2010.06.04 00:33:39.
