data_PCOD9334157
_publ_section_title
;
Structure prediction by ZEFSAII (Michael W. Deem and Ramdas Pophale) SiO2 
 PCOD9334157
Probable space group: I 21 21 21
;
_chemical_formula_sum "Si O2"
_cell_formula_units_Z 44
_cell_length_a 20.795061
_cell_length_b 5.244164
_cell_length_c 17.049929
_cell_angle_alpha 90.000000
_cell_angle_beta 90.000000
_cell_angle_gamma 90.000000
_cell_volume 1859.340967
_symmetry_space_group_name_H-M "I 21 21 21"
_symmetry_group_IT_number 24
_symmetry_cell_setting 'orthorhombic'
loop_
_space_group_symop_operation_xyz
x,y,z
-x,1/2-y,z
x,-y,1/2-z
1/2-x,y,-z
1/2+x,1/2+y,1/2+z
1/2-x,-y,1/2+z
1/2+x,1/2-y,-z
-x,1/2+y,1/2-z
loop_
_atom_site_type_symbol
_atom_site_label
_atom_site_fract_x
_atom_site_fract_y
_atom_site_fract_z
Si Si1 0.724049 0.000000 0.750000
Si Si2 0.889693 0.431187 0.426553
Si Si3 0.569291 0.952817 0.488480
Si Si4 0.500000 0.250000 0.365898
Si Si5 0.184567 0.618630 0.622360
Si Si6 0.640546 0.500000 0.750000
Si Si7 0.597024 0.000000 0.250000
Si Si8 0.750000 0.490259 0.000000
O O1 0.764778 0.950488 0.829555
O O2 0.683316 0.250124 0.763716
O O3 0.927880 0.177551 0.448923
O O4 0.893830 0.463587 0.333207
O O5 0.815380 0.397583 0.459079
O O6 0.919189 0.682417 0.469268
O O7 0.511703 0.016477 0.426806
O O8 0.634124 0.001604 0.437246
O O9 0.556758 0.188102 0.305215
O O10 0.138785 0.688541 0.695217
O O11 0.221228 0.825739 0.571817
#
# Coordination Sequence:
#
# PCOD9334157 Si02
#       8
#     4   8   8   4   8   4   4   4
#     4  11  22  36  56  86 128 180 212 260 323 396
#     4  11  24  40  62  95 129 177 225 278 334 411
#     4  10  24  41  67  93 128 172 229 281 340 408
#     4  10  22  44  70 100 134 180 224 298 356 394
#     4   9  20  38  57  92 133 177 221 265 324 403
#     4  12  24  38  59  90 128 173 214 272 334 394
#     4   9  20  38  63  96 136 171 228 280 339 406
#     4  10  20  36  58  88 134 180 218 262 310 398
#
# _framework density 23.664300999999998
#
# number of rings (size 3 to 8) (size 9 to 14) (size 15 to 20)
#    0.000    1.818    1.818    1.091    5.091    5.818 
#    0.000    6.364    0.000    2.182    0.000    0.000 
#    0.000    0.000    0.000    0.000    0.000    0.000 
#
# Total GULP energy -122548.167727 kJ/mol
# GULP energy per Si atom -5570.371260 kJ/mol
# Density = 2.361044 g / cm^3
# Si number density = 23.664301 Si / 1000 Ang^3
#
#
#
# Elastic Constant Matrix: (Units=GPa)
#
#
# Indices 1 2 3 4 5 6 
#
# 1 67.5597 36.5554 50.1658 0.0000 0.0000 0.0000
# 2 36.5554 106.4546 45.4140 0.0000 0.0000 0.0000
# 3 50.1658 45.4140 187.9929 0.0000 0.0000 0.0000
# 4 0.0000 0.0000 0.0000 20.0344 0.0000 0.0000
# 5 0.0000 0.0000 0.0000 0.0000 28.2743 0.0000
# 6 0.0000 0.0000 0.0000 0.0000 0.0000 68.2663
#
#
#
# Elastic Compliance Matrix: (Units=1/GPa)
#
#
# Indices 1 2 3 4 5 6 
#
# 1 0.020869 -0.005341 -0.004279 0.000000 0.000000 0.000000
# 2 -0.005341 0.011840 -0.001435 0.000000 0.000000 0.000000
# 3 -0.004279 -0.001435 0.006808 0.000000 0.000000 0.000000
# 4 0.000000 0.000000 0.000000 0.049914 0.000000 0.000000
# 5 0.000000 0.000000 0.000000 0.000000 0.035368 0.000000
# 6 0.000000 0.000000 0.000000 0.000000 0.000000 0.014649
#
#
# Mechanical properties :
#
#
# Convention : Reuss Voigt Hill
#
# Bulk Modulus (GPa) = 57.44679 69.58638 63.51659
# Shear Modulus (GPa) = 29.87610 38.63979 34.25794
#
# Velocity S-wave (km/s) = 3.55702 4.04521 3.80895
# Velocity P-wave (km/s) = 6.41859 7.16155 6.80022
#
# Compressibility (1/GPa) = 0.01740741
#
# Stress axis : x y z
#
# Youngs Moduli (GPa) = 47.91902 84.46082 146.89162
#
# Poissons Ratio (x) = 0.45109 0.62849
# Poissons Ratio (y) = 0.25592 0.21079
# Poissons Ratio (z) = 0.20503 0.12120
#
# Static dielectric constant tensor:
#      x y z
#    x 2.015920 0.000000 0.000000 
#    y 0.000000 1.897340 0.000000 
#    z 0.000000 0.000000 1.856570 
# 
# From -- ./inp_files/31490.got.cif
#   From: 2010.05.17/outbox.cif.g08.bks.cpg/sg24_16_cif.got.tgz:31490.got - 2010.06.04 00:33:39.
