data_PCOD9334077
_publ_section_title
;
Structure prediction by ZEFSAII (Michael W. Deem and Ramdas Pophale) SiO2 
 PCOD9334077
Probable space group: I 21 21 21
;
_chemical_formula_sum "Si O2"
_cell_formula_units_Z 64
_cell_length_a 9.201236
_cell_length_b 21.183390
_cell_length_c 15.524977
_cell_angle_alpha 90.000000
_cell_angle_beta 90.000000
_cell_angle_gamma 90.000000
_cell_volume 3026.025597
_symmetry_space_group_name_H-M "I 21 21 21"
_symmetry_group_IT_number 24
_symmetry_cell_setting 'orthorhombic'
loop_
_space_group_symop_operation_xyz
x,y,z
-x,1/2-y,z
x,-y,1/2-z
1/2-x,y,-z
1/2+x,1/2+y,1/2+z
1/2-x,-y,1/2+z
1/2+x,1/2-y,-z
-x,1/2+y,1/2-z
loop_
_atom_site_type_symbol
_atom_site_label
_atom_site_fract_x
_atom_site_fract_y
_atom_site_fract_z
Si Si1 0.643309 0.572963 0.917131
Si Si2 0.559615 0.568508 0.347627
Si Si3 0.567258 0.181001 0.646232
Si Si4 0.559615 0.431492 0.347627
Si Si5 0.596297 0.809229 0.144388
Si Si6 0.432742 0.318999 0.853768
Si Si7 0.903703 0.809230 0.644388
Si Si8 0.356691 0.927037 0.582869
O O1 0.521491 0.625288 0.900867
O O2 0.768132 0.579216 0.844860
O O3 0.590588 0.500000 0.916082
O O4 0.750000 0.581784 0.000000
O O5 0.533502 0.500000 0.388617
O O6 0.505092 0.565324 0.250000
O O7 0.480269 0.627381 0.388395
O O8 0.731868 0.579215 0.344860
O O9 0.500000 0.250000 0.630929
O O10 0.735637 0.187512 0.620221
O O11 0.560956 0.168739 0.750000
O O12 0.480269 0.372619 0.388395
O O13 0.500000 0.750000 0.114668
O O14 0.591966 0.807219 0.250000
O O15 0.500000 0.250000 0.869071
O O16 0.264363 0.312488 0.879779
O O17 0.521491 0.374712 0.900867
O O18 0.000000 0.750000 0.614668
O O19 0.250000 0.918216 0.500000
#
# Coordination Sequence:
#
# PCOD9334077 Si02
#       8
#     8   8   8   8   8   8   8   8
#     4  10  21  37  55  78 114 156 194 236 290 353
#     4   9  17  31  52  75  99 133 179 228 279 337
#     4  10  20  35  58  86 113 144 189 244 296 350
#     4   9  17  31  52  75  99 133 179 228 279 337
#     4   9  17  30  51  79 109 139 175 228 290 344
#     4  10  20  35  58  86 113 144 189 244 296 350
#     4   9  17  30  51  79 109 139 175 228 290 344
#     4  10  21  37  55  78 114 156 194 236 290 353
#
# _framework density 21.149854999999999
#
# number of rings (size 3 to 8) (size 9 to 14) (size 15 to 20)
#    0.000    2.500    0.000    2.250    0.000    6.500 
#    0.000    7.500    0.000    4.500    0.000    0.000 
#    0.000    0.000    0.000    0.000    0.000    0.250 
#
# Total GULP energy -178400.317814 kJ/mol
# GULP energy per Si atom -5575.009932 kJ/mol
# Density = 2.110172 g / cm^3
# Si number density = 21.149855 Si / 1000 Ang^3
#
#
#
# Elastic Constant Matrix: (Units=GPa)
#
#
# Indices 1 2 3 4 5 6 
#
# 1 172.7062 152.3499 22.8708 0.0000 0.0000 0.0000
# 2 152.3499 223.4600 34.9282 0.0000 0.0000 0.0000
# 3 22.8708 34.9282 60.6572 0.0000 0.0000 0.0000
# 4 0.0000 0.0000 0.0000 8.7160 0.0000 0.0000
# 5 0.0000 0.0000 0.0000 0.0000 20.7140 0.0000
# 6 0.0000 0.0000 0.0000 0.0000 0.0000 50.9693
#
#
#
# Elastic Compliance Matrix: (Units=1/GPa)
#
#
# Indices 1 2 3 4 5 6 
#
# 1 0.014530 -0.009945 0.000248 0.000000 0.000000 0.000000
# 2 -0.009945 0.011725 -0.003002 0.000000 0.000000 0.000000
# 3 0.000248 -0.003002 0.018121 0.000000 0.000000 0.000000
# 4 0.000000 0.000000 0.000000 0.114732 0.000000 0.000000
# 5 0.000000 0.000000 0.000000 0.000000 0.048276 0.000000
# 6 0.000000 0.000000 0.000000 0.000000 0.000000 0.019620
#
#
# Mechanical properties :
#
#
# Convention : Reuss Voigt Hill
#
# Bulk Modulus (GPa) = 52.69111 97.45792 75.07452
# Shear Modulus (GPa) = 19.32535 32.52483 25.92509
#
# Velocity S-wave (km/s) = 3.02608 3.92577 3.50491
# Velocity P-wave (km/s) = 6.09729 8.16876 7.20783
#
# Compressibility (1/GPa) = 0.01897853
#
# Stress axis : x y z
#
# Youngs Moduli (GPa) = 68.82146 85.29020 55.18485
#
# Poissons Ratio (x) = 0.84823 -0.01369
# Poissons Ratio (y) = 0.68445 0.16564
# Poissons Ratio (z) = -0.01707 0.25600
#
# Static dielectric constant tensor:
#      x y z
#    x 1.721350 0.000000 0.000000 
#    y 0.000000 1.704410 0.000000 
#    z 0.000000 0.000000 1.895490 
# 
# From -- ./inp_files/29845.got.cif
#   From: 2010.05.17/outbox.cif.g08.bks.cpg/sg24_15_cif.got.tgz:29845.got - 2010.06.04 00:33:39.
