data_PCOD9334642
_publ_section_title
;
Structure prediction by ZEFSAII (Michael W. Deem and Ramdas Pophale) SiO2 
 PCOD9334642
Probable space group: I 21 21 21
;
_chemical_formula_sum "Si O2"
_cell_formula_units_Z 40
_cell_length_a 14.940540
_cell_length_b 21.436746
_cell_length_c 5.282541
_cell_angle_alpha 90.000000
_cell_angle_beta 90.000000
_cell_angle_gamma 90.000000
_cell_volume 1691.874065
_symmetry_space_group_name_H-M "I 21 21 21"
_symmetry_group_IT_number 24
_symmetry_cell_setting 'orthorhombic'
loop_
_space_group_symop_operation_xyz
x,y,z
-x,1/2-y,z
x,-y,1/2-z
1/2-x,y,-z
1/2+x,1/2+y,1/2+z
1/2-x,-y,1/2+z
1/2+x,1/2-y,-z
-x,1/2+y,1/2-z
loop_
_atom_site_type_symbol
_atom_site_label
_atom_site_fract_x
_atom_site_fract_y
_atom_site_fract_z
Si Si1 0.852352 0.765793 0.522273
Si Si2 0.889237 0.845751 0.025750
Si Si3 0.250000 0.854174 0.000000
Si Si4 0.659032 0.553618 0.399181
Si Si5 0.250000 0.456905 0.500000
Si Si6 0.578512 0.344010 0.761245
O O1 0.750000 0.742034 0.500000
O O2 0.869024 0.802286 0.784006
O O3 0.922027 0.708831 0.477869
O O4 0.859823 0.814475 0.290725
O O5 0.835658 0.910276 0.992733
O O6 0.995245 0.851432 0.077430
O O7 0.202292 0.895184 0.784642
O O8 0.335367 0.819899 0.892472
O O9 0.606881 0.500000 0.250000
O O10 0.750000 0.521555 0.500000
O O11 0.603719 0.589991 0.611063
O O12 0.247457 0.500000 0.250000
#
# Coordination Sequence:
#
# PCOD9334642 Si02
#       6
#     8   8   4   8   4   8
#     4  12  25  50  80 112 162 208 257 330 408 485
#     4  12  28  52  80 118 155 200 268 342 402 483
#     4  10  22  43  68  98 161 196 260 308 382 474
#     4  10  20  41  68 100 151 210 259 312 378 468
#     4  12  26  57  90 112 151 212 274 348 416 474
#     4  11  28  43  74 116 155 207 267 319 411 483
#
# _framework density 23.642420000000001
#
# number of rings (size 3 to 8) (size 9 to 14) (size 15 to 20)
#    0.000    0.800    3.000    3.600    8.400    1.600 
#    3.600    0.000    0.000    0.000    0.000    0.000 
#    0.000    0.000    0.000    0.000    0.000    0.000 
#
# Total GULP energy -111834.951413 kJ/mol
# GULP energy per Si atom -5591.747571 kJ/mol
# Density = 2.358861 g / cm^3
# Si number density = 23.642420 Si / 1000 Ang^3
#
#
#
# Elastic Constant Matrix: (Units=GPa)
#
#
# Indices 1 2 3 4 5 6 
#
# 1 162.8575 59.1175 55.0844 0.0000 0.0000 0.0000
# 2 59.1175 134.0904 67.5887 0.0000 0.0000 0.0000
# 3 55.0844 67.5887 162.8118 0.0000 0.0000 0.0000
# 4 0.0000 0.0000 0.0000 53.0352 0.0000 0.0000
# 5 0.0000 0.0000 0.0000 0.0000 38.4427 0.0000
# 6 0.0000 0.0000 0.0000 0.0000 0.0000 13.0170
#
#
#
# Elastic Compliance Matrix: (Units=1/GPa)
#
#
# Indices 1 2 3 4 5 6 
#
# 1 0.007586 -0.002593 -0.001490 0.000000 0.000000 0.000000
# 2 -0.002593 0.010318 -0.003406 0.000000 0.000000 0.000000
# 3 -0.001490 -0.003406 0.008060 0.000000 0.000000 0.000000
# 4 0.000000 0.000000 0.000000 0.018855 0.000000 0.000000
# 5 0.000000 0.000000 0.000000 0.000000 0.026013 0.000000
# 6 0.000000 0.000000 0.000000 0.000000 0.000000 0.076823
#
#
# Mechanical properties :
#
#
# Convention : Reuss Voigt Hill
#
# Bulk Modulus (GPa) = 91.03104 91.48232 91.25668
# Shear Modulus (GPa) = 30.06719 39.43024 34.74871
#
# Velocity S-wave (km/s) = 3.57003 4.08827 3.83791
# Velocity P-wave (km/s) = 7.45522 7.81431 7.63688
#
# Compressibility (1/GPa) = 0.01098526
#
# Stress axis : x y z
#
# Youngs Moduli (GPa) = 131.82755 96.92055 124.06937
#
# Poissons Ratio (x) = 0.25135 0.18485
# Poissons Ratio (y) = 0.34188 0.42256
# Poissons Ratio (z) = 0.19641 0.33009
#
# Static dielectric constant tensor:
#      x y z
#    x 1.938330 0.000000 0.000000 
#    y 0.000000 1.901220 0.000000 
#    z 0.000000 0.000000 2.028250 
# 
# From -- ./inp_files/3526.got.cif
#   From: 2010.05.17/outbox.cif.g08.bks.cpg/sg24_2_cif.got.tgz:3526.got - 2010.06.04 00:33:39.
