data_PCOD9334539
_publ_section_title
;
Structure prediction by ZEFSAII (Michael W. Deem and Ramdas Pophale) SiO2 
 PCOD9334539
Probable space group: I 21 21 21
;
_chemical_formula_sum "Si O2"
_cell_formula_units_Z 48
_cell_length_a 30.936088
_cell_length_b 9.654592
_cell_length_c 8.560251
_cell_angle_alpha 90.000000
_cell_angle_beta 90.000000
_cell_angle_gamma 90.000000
_cell_volume 2556.735602
_symmetry_space_group_name_H-M "I 21 21 21"
_symmetry_group_IT_number 24
_symmetry_cell_setting 'orthorhombic'
loop_
_space_group_symop_operation_xyz
x,y,z
-x,1/2-y,z
x,-y,1/2-z
1/2-x,y,-z
1/2+x,1/2+y,1/2+z
1/2-x,-y,1/2+z
1/2+x,1/2-y,-z
-x,1/2+y,1/2-z
loop_
_atom_site_type_symbol
_atom_site_label
_atom_site_fract_x
_atom_site_fract_y
_atom_site_fract_z
Si Si1 0.385618 0.961425 0.567123
Si Si2 0.983446 0.593367 0.403744
Si Si3 0.631936 0.240990 0.436716
Si Si4 0.703348 0.042862 0.568528
Si Si5 0.855099 0.811687 0.567373
Si Si6 0.067446 0.511457 0.935437
O O1 0.434882 0.913324 0.529592
O O2 0.355287 0.833792 0.520640
O O3 0.383007 0.000000 0.750000
O O4 0.373615 0.098591 0.472071
O O5 0.982036 0.500000 0.250000
O O6 0.000000 0.750000 0.375660
O O7 0.019998 0.521735 0.507815
O O8 0.669778 0.167542 0.535662
O O9 0.641104 0.212534 0.253433
O O10 0.587574 0.159733 0.479729
O O11 0.750000 0.079078 0.500000
O O12 0.704944 0.000000 0.750000
O O13 0.684585 0.911079 0.473296
O O14 0.897348 0.897961 0.510052
O O15 0.067533 0.500000 0.750000
#
# Coordination Sequence:
#
# PCOD9334539 Si02
#       6
#     8   8   8   8   8   8
#     4  11  23  37  56  86 119 160 204 250 306 354
#     4  11  24  38  55  82 119 159 206 257 302 355
#     4  10  22  38  61  88 117 158 197 247 302 359
#     4  11  22  40  67  95 122 154 193 239 293 363
#     4  10  20  40  60  86 120 153 201 246 298 358
#     4   9  20  37  57  79 110 155 202 246 295 351
#
# _framework density 18.77394
#
# number of rings (size 3 to 8) (size 9 to 14) (size 15 to 20)
#    0.000    1.667    1.667    4.000    4.667    4.000 
#    0.000    0.833    0.000    0.000    0.000    0.000 
#    0.000    0.000    0.000    0.000    0.000    0.000 
#
# Total GULP energy -134005.278923 kJ/mol
# GULP energy per Si atom -5583.553288 kJ/mol
# Density = 1.873121 g / cm^3
# Si number density = 18.773940 Si / 1000 Ang^3
#
#
#
# Elastic Constant Matrix: (Units=GPa)
#
#
# Indices 1 2 3 4 5 6 
#
# 1 69.0847 16.4074 3.4912 0.0000 0.0000 0.0000
# 2 16.4074 112.8688 3.5233 0.0000 0.0000 0.0000
# 3 3.4912 3.5233 42.4215 0.0000 0.0000 0.0000
# 4 0.0000 0.0000 0.0000 30.8793 0.0000 0.0000
# 5 0.0000 0.0000 0.0000 0.0000 -36.1662 0.0000
# 6 0.0000 0.0000 0.0000 0.0000 0.0000 -10.2557
#
#
#
# Elastic Compliance Matrix: (Units=1/GPa)
#
#
# Indices 1 2 3 4 5 6 
#
# 1 0.015040 -0.002153 -0.001059 0.000000 0.000000 0.000000
# 2 -0.002153 0.009191 -0.000586 0.000000 0.000000 0.000000
# 3 -0.001059 -0.000586 0.023709 0.000000 0.000000 0.000000
# 4 0.000000 0.000000 0.000000 0.032384 0.000000 0.000000
# 5 0.000000 0.000000 0.000000 0.000000 -0.027650 0.000000
# 6 0.000000 0.000000 0.000000 0.000000 0.000000 -0.097507
#
#
# Mechanical properties :
#
#
# Convention : Reuss Voigt Hill
#
# Bulk Modulus (GPa) = 24.78734 30.13542 27.46138
# Shear Modulus (GPa) = -210.18136 10.28836 -99.94650
#
# Velocity S-wave (km/s) = -10.59230 2.34351 -7.30427
# Velocity P-wave (km/s) = 11.67750 4.83831 7.51514
#
# Compressibility (1/GPa) = 0.04034317
#
# Stress axis : x y z
#
# Youngs Moduli (GPa) = 66.48986 108.80024 42.17849
#
# Poissons Ratio (x) = 0.23427 0.04466
# Poissons Ratio (y) = 0.14317 0.02472
# Poissons Ratio (z) = 0.07041 0.06378
#
# Static dielectric constant tensor:
#      x y z
#    x 1.667440 0.000000 0.000000 
#    y 0.000000 1.721650 0.000000 
#    z 0.000000 0.000000 1.672730 
# 
# From -- ./inp_files/9732.got.cif
#   From: 2010.05.17/outbox.cif.g08.bks.cpg/sg24_5_cif.got.tgz:9732.got - 2010.06.04 00:33:39.
