data_PCOD9334696
_publ_section_title
;
Structure prediction by ZEFSAII (Michael W. Deem and Ramdas Pophale) SiO2 
 PCOD9334696
Probable space group: I 21 21 21
;
_chemical_formula_sum "Si O2"
_cell_formula_units_Z 60
_cell_length_a 17.641129
_cell_length_b 8.406579
_cell_length_c 19.459081
_cell_angle_alpha 90.000000
_cell_angle_beta 90.000000
_cell_angle_gamma 90.000000
_cell_volume 2885.811769
_symmetry_space_group_name_H-M "I 21 21 21"
_symmetry_group_IT_number 24
_symmetry_cell_setting 'orthorhombic'
loop_
_space_group_symop_operation_xyz
x,y,z
-x,1/2-y,z
x,-y,1/2-z
1/2-x,y,-z
1/2+x,1/2+y,1/2+z
1/2-x,-y,1/2+z
1/2+x,1/2-y,-z
-x,1/2+y,1/2-z
loop_
_atom_site_type_symbol
_atom_site_label
_atom_site_fract_x
_atom_site_fract_y
_atom_site_fract_z
Si Si1 0.829239 0.050195 0.984491
Si Si2 0.331977 0.078903 0.315919
Si Si3 0.410704 0.262182 0.434381
Si Si4 0.666755 0.670401 0.785662
Si Si5 0.889360 0.570840 0.070332
Si Si6 0.957756 0.080112 0.100480
Si Si7 0.403501 0.500000 0.750000
Si Si8 0.749387 0.369790 0.926842
O O1 0.794448 0.206858 0.946010
O O2 0.880980 0.941887 0.937332
O O3 0.750000 0.960739 0.000000
O O4 0.881614 0.080102 0.052544
O O5 0.383370 0.182719 0.364407
O O6 0.257686 0.171621 0.289625
O O7 0.370173 0.000000 0.250000
O O8 0.295007 0.946434 0.365545
O O9 0.500000 0.250000 0.438248
O O10 0.376447 0.169594 0.500618
O O11 0.645363 0.500000 0.750000
O O12 0.632474 0.671761 0.862460
O O13 0.640935 0.832222 0.750004
O O14 0.839776 0.408713 0.086051
O O15 0.977836 0.530089 0.067201
O O16 0.946560 0.013587 0.177471
O O17 0.000000 0.250000 0.103915
O O18 0.750000 0.458727 0.000000
#
# Coordination Sequence:
#
# PCOD9334696 Si02
#       8
#     8   8   8   8   8   8   4   8
#     4  11  26  41  70 109 136 177 249 300 343 420
#     4  10  24  47  73  98 136 188 238 288 372 431
#     4  12  25  45  71 105 140 182 234 299 367 426
#     4  10  24  45  69 102 146 196 240 290 357 430
#     4  11  23  43  70  99 142 195 231 289 358 429
#     4  12  26  43  68 105 152 195 239 292 359 432
#     4  12  28  42  66 108 150 198 242 282 354 444
#     4  10  20  43  73 100 135 181 236 288 347 419
#
# _framework density 20.791376
#
# number of rings (size 3 to 8) (size 9 to 14) (size 15 to 20)
#    0.000    1.067    2.667    3.200    8.400    4.267 
#    0.000    1.333    0.000    0.000    0.000    0.000 
#    0.000    0.000    0.000    0.000    0.000    0.000 
#
# Total GULP energy -167102.184391 kJ/mol
# GULP energy per Si atom -5570.072813 kJ/mol
# Density = 2.074405 g / cm^3
# Si number density = 20.791376 Si / 1000 Ang^3
#
#
#
# Elastic Constant Matrix: (Units=GPa)
#
#
# Indices 1 2 3 4 5 6 
#
# 1 108.8180 51.5423 22.7271 0.0000 0.0000 0.0000
# 2 51.5423 93.2525 40.1960 0.0000 0.0000 0.0000
# 3 22.7271 40.1960 117.2667 0.0000 0.0000 0.0000
# 4 0.0000 0.0000 0.0000 26.2679 0.0000 0.0000
# 5 0.0000 0.0000 0.0000 0.0000 -16.4374 0.0000
# 6 0.0000 0.0000 0.0000 0.0000 0.0000 0.6678
#
#
#
# Elastic Compliance Matrix: (Units=1/GPa)
#
#
# Indices 1 2 3 4 5 6 
#
# 1 0.012449 -0.006853 -0.000064 0.000000 0.000000 0.000000
# 2 -0.006853 0.016356 -0.004278 0.000000 0.000000 0.000000
# 3 -0.000064 -0.004278 0.010006 0.000000 0.000000 0.000000
# 4 0.000000 0.000000 0.000000 0.038069 0.000000 0.000000
# 5 0.000000 0.000000 0.000000 0.000000 -0.060837 0.000000
# 6 0.000000 0.000000 0.000000 0.000000 0.000000 1.497368
#
#
# Mechanical properties :
#
#
# Convention : Reuss Voigt Hill
#
# Bulk Modulus (GPa) = 60.89778 60.91866 60.90822
# Shear Modulus (GPa) = 3.24407 15.75779 9.50093
#
# Velocity S-wave (km/s) = 1.25047 2.75599 2.13999
# Velocity P-wave (km/s) = 5.60700 6.28417 5.95522
#
# Compressibility (1/GPa) = 0.01642096
#
# Stress axis : x y z
#
# Youngs Moduli (GPa) = 80.32709 61.14105 99.93716
#
# Poissons Ratio (x) = 0.41903 0.00635
# Poissons Ratio (y) = 0.55052 0.42754
# Poissons Ratio (z) = 0.00510 0.26156
#
# Static dielectric constant tensor:
#      x y z
#    x 1.783250 0.000000 0.000000 
#    y 0.000000 2.904270 0.000000 
#    z 0.000000 0.000000 1.783510 
# 
# From -- ./inp_files/31209.got.cif
#   From: 2010.05.17/outbox.cif.g08.bks.cpg/sg24_16_cif.got.tgz:31209.got - 2010.06.04 00:33:39.
