data_PCOD9334465
_publ_section_title
;
Structure prediction by ZEFSAII (Michael W. Deem and Ramdas Pophale) SiO2 
 PCOD9334465
Probable space group: I 21 21 21
;
_chemical_formula_sum "Si O2"
_cell_formula_units_Z 64
_cell_length_a 14.148130
_cell_length_b 24.273715
_cell_length_c 9.106291
_cell_angle_alpha 90.000000
_cell_angle_beta 90.000000
_cell_angle_gamma 90.000000
_cell_volume 3127.352350
_symmetry_space_group_name_H-M "I 21 21 21"
_symmetry_group_IT_number 24
_symmetry_cell_setting 'orthorhombic'
loop_
_space_group_symop_operation_xyz
x,y,z
-x,1/2-y,z
x,-y,1/2-z
1/2-x,y,-z
1/2+x,1/2+y,1/2+z
1/2-x,-y,1/2+z
1/2+x,1/2-y,-z
-x,1/2+y,1/2-z
loop_
_atom_site_type_symbol
_atom_site_label
_atom_site_fract_x
_atom_site_fract_y
_atom_site_fract_z
Si Si1 0.172973 0.537204 0.609692
Si Si2 0.992364 0.810099 0.681861
Si Si3 0.274877 0.660475 0.336169
Si Si4 0.966545 0.384865 0.365837
Si Si5 0.086854 0.782919 0.994377
Si Si6 0.481578 0.087230 0.977274
Si Si7 0.340193 0.328746 0.566615
Si Si8 0.151523 0.989760 0.076462
O O1 0.150557 0.500000 0.750000
O O2 0.250000 0.510761 0.500000
O O3 0.221773 0.594031 0.663691
O O4 0.078559 0.556218 0.523433
O O5 0.028107 0.860014 0.582356
O O6 0.000000 0.750000 0.608698
O O7 0.880930 0.821674 0.706781
O O8 0.050650 0.803472 0.834718
O O9 0.250000 0.678431 0.500000
O O10 0.191549 0.681218 0.232906
O O11 0.893361 0.335605 0.406154
O O12 0.983404 0.393999 0.192975
O O13 0.924283 0.440446 0.432496
O O14 0.064901 0.364419 0.437492
O O15 0.153976 0.730528 0.986548
O O16 0.000000 0.750000 0.070367
O O17 0.395877 0.044287 0.990963
O O18 0.250000 0.359845 0.500000
O O19 0.167080 0.000000 0.250000
O O20 0.250000 0.976172 0.000000
#
# Coordination Sequence:
#
# PCOD9334465 Si02
#       8
#     8   8   8   8   8   8   8   8
#     4  10  22  38  58  90 128 165 203 246 301 372
#     4  10  20  39  60  85 125 164 204 250 300 368
#     4  10  21  37  57  87 124 162 202 250 305 363
#     4  10  21  40  64  89 122 164 205 254 312 367
#     4   9  20  36  56  87 121 161 205 244 296 358
#     4  10  23  41  63  91 122 159 207 258 311 367
#     4  11  21  36  60  93 131 163 200 246 301 373
#     4  10  24  45  65  88 120 158 208 266 314 362
#
# _framework density 20.464594000000002
#
# number of rings (size 3 to 8) (size 9 to 14) (size 15 to 20)
#    0.000    2.000    0.000    4.500    0.000   10.500 
#    0.000    4.375    0.000    0.000    0.000    0.000 
#    0.000    0.000    0.000    0.000    0.000    0.000 
#
# Total GULP energy -178438.252222 kJ/mol
# GULP energy per Si atom -5576.195382 kJ/mol
# Density = 2.041802 g / cm^3
# Si number density = 20.464594 Si / 1000 Ang^3
#
#
#
# Elastic Constant Matrix: (Units=GPa)
#
#
# Indices 1 2 3 4 5 6 
#
# 1 103.5250 52.1008 50.6261 0.0006 -0.0003 0.0000
# 2 52.1008 124.8867 63.5853 0.0005 -0.0005 0.0000
# 3 50.6261 63.5853 109.6304 0.0041 -0.0024 -0.0002
# 4 0.0006 0.0005 0.0041 34.8595 -0.0010 -0.0001
# 5 -0.0003 -0.0005 -0.0024 -0.0010 30.7848 0.0002
# 6 0.0000 0.0000 -0.0002 -0.0001 0.0002 21.2397
#
#
#
# Elastic Compliance Matrix: (Units=1/GPa)
#
#
# Indices 1 2 3 4 5 6 
#
# 1 0.013464 -0.003479 -0.004200 0.000000 0.000000 0.000000
# 2 -0.003479 0.012261 -0.005505 0.000001 0.000000 0.000000
# 3 -0.004200 -0.005505 0.014254 -0.000002 0.000001 0.000000
# 4 0.000000 0.000001 -0.000002 0.028687 0.000001 0.000000
# 5 0.000000 0.000000 0.000001 0.000001 0.032484 0.000000
# 6 0.000000 0.000000 0.000000 0.000000 0.000000 0.047082
#
#
# Mechanical properties :
#
#
# Convention : Reuss Voigt Hill
#
# Bulk Modulus (GPa) = 73.46477 74.51852 73.99165
# Shear Modulus (GPa) = 27.91171 28.82545 28.36858
#
# Velocity S-wave (km/s) = 3.69711 3.75714 3.72725
# Velocity P-wave (km/s) = 7.36215 7.43733 7.39984
#
# Compressibility (1/GPa) = 0.01361197
#
# Stress axis : x y z
#
# Youngs Moduli (GPa) = 74.27185 81.55663 70.15541
#
# Poissons Ratio (x) = 0.28370 0.29465
# Poissons Ratio (y) = 0.25836 0.38622
# Poissons Ratio (z) = 0.31194 0.44899
#
# Static dielectric constant tensor:
#      x y z
#    x 1.800280 0.000000 0.000000 
#    y 0.000000 1.771230 0.000000 
#    z 0.000000 0.000000 1.791870 
# 
# From -- ./inp_files/13361.got.cif
#   From: 2010.05.17/outbox.cif.g08.bks.cpg/sg24_7_cif.got.tgz:13361.got - 2010.06.04 00:33:39.
