data_PCOD9334102
_publ_section_title
;
Structure prediction by ZEFSAII (Michael W. Deem and Ramdas Pophale) SiO2 
 PCOD9334102
Probable space group: I 21 21 21
;
_chemical_formula_sum "Si O2"
_cell_formula_units_Z 48
_cell_length_a 30.945758
_cell_length_b 8.042701
_cell_length_c 8.755140
_cell_angle_alpha 90.000000
_cell_angle_beta 90.000000
_cell_angle_gamma 90.000000
_cell_volume 2179.044721
_symmetry_space_group_name_H-M "I 21 21 21"
_symmetry_group_IT_number 24
_symmetry_cell_setting 'orthorhombic'
loop_
_space_group_symop_operation_xyz
x,y,z
-x,1/2-y,z
x,-y,1/2-z
1/2-x,y,-z
1/2+x,1/2+y,1/2+z
1/2-x,-y,1/2+z
1/2+x,1/2-y,-z
-x,1/2+y,1/2-z
loop_
_atom_site_type_symbol
_atom_site_label
_atom_site_fract_x
_atom_site_fract_y
_atom_site_fract_z
Si Si1 0.205551 0.275889 0.574369
Si Si2 0.609064 0.802848 0.562862
Si Si3 0.561114 0.522348 0.066669
Si Si4 0.872536 0.335977 0.364044
Si Si5 0.204319 0.320187 0.921638
Si Si6 0.527036 0.928894 0.417630
O O1 0.250000 0.219415 0.500000
O O2 0.169364 0.202239 0.463769
O O3 0.202189 0.238186 0.753899
O O4 0.205583 0.477859 0.577132
O O5 0.584380 0.636944 0.506440
O O6 0.615973 0.804593 0.742594
O O7 0.657576 0.790595 0.497234
O O8 0.572674 0.928739 0.502424
O O9 0.562811 0.500000 0.250000
O O10 0.511728 0.538466 0.014718
O O11 0.590006 0.661547 0.990880
O O12 0.868002 0.500000 0.250000
O O13 0.250000 0.267963 0.000000
O O14 0.500000 0.750000 0.405804
O O15 0.535643 0.000000 0.250000
#
# Coordination Sequence:
#
# PCOD9334102 Si02
#       6
#     8   8   8   8   8   8
#     4  10  21  38  61  89 122 156 199 247 304 364
#     4  10  20  35  61  87 123 157 199 248 300 364
#     4   9  18  37  62  85 117 163 201 250 299 357
#     4  10  21  38  62  86 122 163 198 249 306 361
#     4  10  21  37  62  90 121 156 196 252 305 358
#     4   9  19  36  63  89 121 158 207 255 298 367
#
# _framework density 22.028003999999999
#
# number of rings (size 3 to 8) (size 9 to 14) (size 15 to 20)
#    0.000    2.333    0.000    2.000    2.333    2.000 
#    0.000    7.500   29.333    0.000    0.000    0.000 
#    0.000    0.000    0.000    0.000    0.000    0.000 
#
# Total GULP energy -133646.405210 kJ/mol
# GULP energy per Si atom -5568.600217 kJ/mol
# Density = 2.197787 g / cm^3
# Si number density = 22.028004 Si / 1000 Ang^3
#
#
#
# Elastic Constant Matrix: (Units=GPa)
#
#
# Indices 1 2 3 4 5 6 
#
# 1 252.2689 22.1974 120.3679 0.0000 0.0000 0.0000
# 2 22.1974 39.5622 23.2872 0.0000 0.0000 0.0000
# 3 120.3679 23.2872 168.2581 0.0000 0.0000 0.0000
# 4 0.0000 0.0000 0.0000 24.6893 0.0000 0.0000
# 5 0.0000 0.0000 0.0000 0.0000 29.4839 0.0000
# 6 0.0000 0.0000 0.0000 0.0000 0.0000 -8.0763
#
#
#
# Elastic Compliance Matrix: (Units=1/GPa)
#
#
# Indices 1 2 3 4 5 6 
#
# 1 0.006049 -0.000922 -0.004200 0.000000 0.000000 0.000000
# 2 -0.000922 0.027659 -0.003169 0.000000 0.000000 0.000000
# 3 -0.004200 -0.003169 0.009386 0.000000 0.000000 0.000000
# 4 0.000000 0.000000 0.000000 0.040503 0.000000 0.000000
# 5 0.000000 0.000000 0.000000 0.000000 0.033917 0.000000
# 6 0.000000 0.000000 0.000000 0.000000 0.000000 -0.123819
#
#
# Mechanical properties :
#
#
# Convention : Reuss Voigt Hill
#
# Bulk Modulus (GPa) = 37.71618 87.97714 62.84666
# Shear Modulus (GPa) = 261.59342 28.83515 145.21429
#
# Velocity S-wave (km/s) = 10.90930 3.62197 8.12808
# Velocity P-wave (km/s) = 13.26057 7.58400 10.80185
#
# Compressibility (1/GPa) = 0.02651382
#
# Stress axis : x y z
#
# Youngs Moduli (GPa) = 165.31635 36.15464 106.53977
#
# Poissons Ratio (x) = 0.03333 0.44744
# Poissons Ratio (y) = 0.15241 0.33757
# Poissons Ratio (z) = 0.69428 0.11456
#
# Static dielectric constant tensor:
#      x y z
#    x 1.816780 0.000000 0.000000 
#    y 0.000000 2.059120 0.000000 
#    z 0.000000 0.000000 1.795540 
# 
# From -- ./inp_files/16833.got.cif
#   From: 2010.05.17/outbox.cif.g08.bks.cpg/sg24_9_cif.got.tgz:16833.got - 2010.06.04 00:33:39.
