data_PCOD9334911
_publ_section_title
;
Structure prediction by ZEFSAII (Michael W. Deem and Ramdas Pophale) SiO2 
 PCOD9334911
Probable space group: I 21 21 21
;
_chemical_formula_sum "Si O2"
_cell_formula_units_Z 48
_cell_length_a 21.650900
_cell_length_b 7.362507
_cell_length_c 15.424495
_cell_angle_alpha 90.000000
_cell_angle_beta 90.000000
_cell_angle_gamma 90.000000
_cell_volume 2458.740126
_symmetry_space_group_name_H-M "I 21 21 21"
_symmetry_group_IT_number 24
_symmetry_cell_setting 'orthorhombic'
loop_
_space_group_symop_operation_xyz
x,y,z
-x,1/2-y,z
x,-y,1/2-z
1/2-x,y,-z
1/2+x,1/2+y,1/2+z
1/2-x,-y,1/2+z
1/2+x,1/2-y,-z
-x,1/2+y,1/2-z
loop_
_atom_site_type_symbol
_atom_site_label
_atom_site_fract_x
_atom_site_fract_y
_atom_site_fract_z
Si Si1 0.375366 0.882493 0.932810
Si Si2 0.681304 0.987551 0.540628
Si Si3 0.849843 0.335975 0.926242
Si Si4 0.254590 0.678116 0.698166
Si Si5 0.165648 0.000000 0.250000
Si Si6 0.977779 0.549018 0.649733
Si Si7 0.000000 0.250000 0.520710
O O1 0.344655 0.685553 0.942227
O O2 0.373206 0.975171 0.838183
O O3 0.445205 0.837852 0.964394
O O4 0.338492 0.018691 0.997200
O O5 0.750000 0.000875 0.500000
O O6 0.641371 0.855013 0.478450
O O7 0.693245 0.892320 0.632138
O O8 0.797111 0.282652 0.857831
O O9 0.905850 0.433316 0.875928
O O10 0.231040 0.500000 0.750000
O O11 0.289069 0.826646 0.754972
O O12 0.985267 0.500000 0.750000
O O13 0.015129 0.411221 0.588592
O O14 0.000000 0.750000 0.633741
#
# Coordination Sequence:
#
# PCOD9334911 Si02
#       7
#     8   8   8   8   4   8   4
#     4  11  23  42  68  91 126 170 217 269 324 382
#     4  10  21  38  61  89 123 168 210 252 314 383
#     4  10  24  39  61  92 127 168 211 255 325 394
#     4  11  23  40  59  94 131 169 214 263 324 386
#     4  12  24  38  66  94 132 162 216 276 316 384
#     4  11  22  41  64  92 126 163 210 264 313 381
#     4  10  24  46  66  90 124 172 216 260 328 384
#
# _framework density 19.522193999999999
#
# number of rings (size 3 to 8) (size 9 to 14) (size 15 to 20)
#    0.000    1.333    4.167    1.000    3.500    0.667 
#    6.000    1.667    1.833    0.000    0.000    0.000 
#    0.000    0.000    0.000    0.000    0.000    0.000 
#
# Total GULP energy -133711.446582 kJ/mol
# GULP energy per Si atom -5571.310274 kJ/mol
# Density = 1.947776 g / cm^3
# Si number density = 19.522194 Si / 1000 Ang^3
#
#
#
# Elastic Constant Matrix: (Units=GPa)
#
#
# Indices 1 2 3 4 5 6 
#
# 1 36.3235 15.9209 24.5510 0.0000 0.0000 0.0000
# 2 15.9209 103.1120 23.2827 0.0000 0.0000 0.0000
# 3 24.5510 23.2827 88.9298 0.0000 0.0000 0.0000
# 4 0.0000 0.0000 0.0000 38.5830 0.0000 0.0000
# 5 0.0000 0.0000 0.0000 0.0000 16.9021 0.0000
# 6 0.0000 0.0000 0.0000 0.0000 0.0000 30.8059
#
#
#
# Elastic Compliance Matrix: (Units=1/GPa)
#
#
# Indices 1 2 3 4 5 6 
#
# 1 0.034945 -0.003419 -0.008752 0.000000 0.000000 0.000000
# 2 -0.003419 0.010642 -0.001842 0.000000 0.000000 0.000000
# 3 -0.008752 -0.001842 0.014143 0.000000 0.000000 0.000000
# 4 0.000000 0.000000 0.000000 0.025918 0.000000 0.000000
# 5 0.000000 0.000000 0.000000 0.000000 0.059164 0.000000
# 6 0.000000 0.000000 0.000000 0.000000 0.000000 0.032461
#
#
# Mechanical properties :
#
#
# Convention : Reuss Voigt Hill
#
# Bulk Modulus (GPa) = 31.54291 39.54162 35.54226
# Shear Modulus (GPa) = 23.16225 28.23224 25.69724
#
# Velocity S-wave (km/s) = 3.44824 3.80697 3.63203
# Velocity P-wave (km/s) = 5.66095 6.29465 5.98619
#
# Compressibility (1/GPa) = 0.03170285
#
# Stress axis : x y z
#
# Youngs Moduli (GPa) = 28.61674 93.96608 70.70485
#
# Poissons Ratio (x) = 0.32131 0.61881
# Poissons Ratio (y) = 0.09785 0.13025
# Poissons Ratio (z) = 0.25045 0.17311
#
# Static dielectric constant tensor:
#      x y z
#    x 1.620660 0.000000 0.000000 
#    y 0.000000 1.671280 0.000000 
#    z 0.000000 0.000000 1.725700 
# 
# From -- ./inp_files/28064.got.cif
#   From: 2010.05.17/outbox.cif.g08.bks.cpg/sg24_15_cif.got.tgz:28064.got - 2010.06.04 00:33:39.
