data_PCOD9334546
_publ_section_title
;
Structure prediction by ZEFSAII (Michael W. Deem and Ramdas Pophale) SiO2 
 PCOD9334546
Probable space group: I 21 21 21
;
_chemical_formula_sum "Si O2"
_cell_formula_units_Z 64
_cell_length_a 13.108334
_cell_length_b 15.073535
_cell_length_c 17.314061
_cell_angle_alpha 90.000000
_cell_angle_beta 90.000000
_cell_angle_gamma 90.000000
_cell_volume 3421.066810
_symmetry_space_group_name_H-M "I 21 21 21"
_symmetry_group_IT_number 24
_symmetry_cell_setting 'orthorhombic'
loop_
_space_group_symop_operation_xyz
x,y,z
-x,1/2-y,z
x,-y,1/2-z
1/2-x,y,-z
1/2+x,1/2+y,1/2+z
1/2-x,-y,1/2+z
1/2+x,1/2-y,-z
-x,1/2+y,1/2-z
loop_
_atom_site_type_symbol
_atom_site_label
_atom_site_fract_x
_atom_site_fract_y
_atom_site_fract_z
Si Si1 0.106390 0.918764 0.695763
Si Si2 0.893612 0.081236 0.304237
Si Si3 0.099228 0.308426 0.154613
Si Si4 0.283140 0.349707 0.411374
Si Si5 0.716860 0.650294 0.588626
Si Si6 0.011204 0.966633 0.413200
Si Si7 0.400771 0.808426 0.154613
Si Si8 0.511205 0.033366 0.413198
O O1 0.190266 0.894092 0.633514
O O2 0.095471 0.838422 0.756173
O O3 0.140961 0.000000 0.750000
O O4 0.007011 0.954923 0.649556
O O5 0.904533 0.161578 0.243827
O O6 0.809734 0.105909 0.366484
O O7 0.859042 0.000000 0.250000
O O8 0.992990 0.045077 0.350446
O O9 0.190423 0.245167 0.127842
O O10 0.080297 0.397277 0.105233
O O11 0.000000 0.250000 0.139162
O O12 0.250000 0.337799 0.500000
O O13 0.309577 0.254833 0.372160
O O14 0.382165 0.414112 0.404766
O O15 0.750000 0.662205 0.500000
O O16 0.617834 0.585889 0.595233
O O17 1.000000 0.999999 0.500001
O O18 0.500000 0.750000 0.139165
O O19 0.419703 0.897276 0.105233
#
# Coordination Sequence:
#
# PCOD9334546 Si02
#       8
#     8   8   8   8   8   8   8   8
#     4  10  21  39  61  88 117 156 200 247 298 356
#     4  10  21  39  61  88 117 156 200 247 298 356
#     4   9  21  39  58  85 123 154 194 244 300 362
#     4  11  21  38  61  90 123 156 199 252 301 358
#     4  11  21  38  61  90 123 156 199 252 301 358
#     4  10  20  40  61  83 120 157 199 244 291 352
#     4   9  21  39  58  85 123 154 194 244 300 362
#     4  10  20  40  61  83 120 157 199 244 291 352
#
# _framework density 18.707615000000001
#
# number of rings (size 3 to 8) (size 9 to 14) (size 15 to 20)
#    0.000    2.000    2.500    0.750    0.000    5.000 
#   13.500    0.000    0.000    0.000    0.000    0.000 
#    0.000    0.000    0.000    0.000    0.000    0.000 
#
# Total GULP energy -178290.261238 kJ/mol
# GULP energy per Si atom -5571.570664 kJ/mol
# Density = 1.866504 g / cm^3
# Si number density = 18.707615 Si / 1000 Ang^3
#
#
#
# Elastic Constant Matrix: (Units=GPa)
#
#
# Indices 1 2 3 4 5 6 
#
# 1 42.8031 27.3108 19.0809 0.0000 0.0000 0.0000
# 2 27.3108 63.3421 55.1677 0.0000 0.0000 0.0000
# 3 19.0809 55.1677 138.3534 0.0000 0.0000 0.0000
# 4 0.0000 0.0000 0.0000 42.1412 0.0000 0.0000
# 5 0.0000 0.0000 0.0000 0.0000 25.3161 0.0000
# 6 0.0000 0.0000 0.0000 0.0000 0.0000 20.9548
#
#
#
# Elastic Compliance Matrix: (Units=1/GPa)
#
#
# Indices 1 2 3 4 5 6 
#
# 1 0.032486 -0.015481 0.001693 0.000000 0.000000 0.000000
# 2 -0.015481 0.031564 -0.010451 0.000000 0.000000 0.000000
# 3 0.001693 -0.010451 0.011162 0.000000 0.000000 0.000000
# 4 0.000000 0.000000 0.000000 0.023730 0.000000 0.000000
# 5 0.000000 0.000000 0.000000 0.000000 0.039501 0.000000
# 6 0.000000 0.000000 0.000000 0.000000 0.000000 0.047722
#
#
# Mechanical properties :
#
#
# Convention : Reuss Voigt Hill
#
# Bulk Modulus (GPa) = 37.40646 49.73528 43.57087
# Shear Modulus (GPa) = 20.52931 27.21170 23.87051
#
# Velocity S-wave (km/s) = 3.31626 3.81803 3.57596
# Velocity P-wave (km/s) = 5.89086 6.78821 6.35539
#
# Compressibility (1/GPa) = 0.02673335
#
# Stress axis : x y z
#
# Youngs Moduli (GPa) = 30.78251 31.68119 89.59177
#
# Poissons Ratio (x) = 0.49046 -0.15165
# Poissons Ratio (y) = 0.47654 0.93633
# Poissons Ratio (z) = -0.05210 0.33110
#
# Static dielectric constant tensor:
#      x y z
#    x 1.641370 0.000000 0.000000 
#    y 0.000000 1.701920 0.000000 
#    z 0.000000 0.000000 1.639300 
# 
# From -- ./inp_files/30383.got.cif
#   From: 2010.05.17/outbox.cif.g08.bks.cpg/sg24_16_cif.got.tgz:30383.got - 2010.06.04 00:33:39.
