data_PCOD9334159
_publ_section_title
;
Structure prediction by ZEFSAII (Michael W. Deem and Ramdas Pophale) SiO2 
 PCOD9334159
Probable space group: I 21 21 21
;
_chemical_formula_sum "Si O2"
_cell_formula_units_Z 40
_cell_length_a 15.201765
_cell_length_b 5.117752
_cell_length_c 25.876977
_cell_angle_alpha 90.000000
_cell_angle_beta 90.000000
_cell_angle_gamma 90.000000
_cell_volume 2013.199394
_symmetry_space_group_name_H-M "I 21 21 21"
_symmetry_group_IT_number 24
_symmetry_cell_setting 'orthorhombic'
loop_
_space_group_symop_operation_xyz
x,y,z
-x,1/2-y,z
x,-y,1/2-z
1/2-x,y,-z
1/2+x,1/2+y,1/2+z
1/2-x,-y,1/2+z
1/2+x,1/2-y,-z
-x,1/2+y,1/2-z
loop_
_atom_site_type_symbol
_atom_site_label
_atom_site_fract_x
_atom_site_fract_y
_atom_site_fract_z
Si Si1 0.895577 0.212582 0.941048
Si Si2 0.062959 0.500000 0.250000
Si Si3 0.000000 0.250000 0.412316
Si Si4 0.146557 0.086561 0.051096
Si Si5 0.841014 0.985304 0.354397
Si Si6 0.700747 0.704543 0.094550
O O1 0.852816 0.434198 0.903804
O O2 0.000000 0.250000 0.942027
O O3 0.865536 0.926057 0.924503
O O4 0.853547 0.260690 0.997707
O O5 0.126213 0.584615 0.297468
O O6 0.000000 0.750000 0.238527
O O7 0.951093 0.466768 0.445555
O O8 0.076221 0.357958 0.376752
O O9 0.166143 0.254993 0.102855
O O10 0.218740 0.857659 0.055046
O O11 0.754638 0.167651 0.357714
#
# Coordination Sequence:
#
# PCOD9334159 Si02
#       6
#     8   4   4   8   8   8
#     4  12  26  42  62  93 127 175 220 267 321 384
#     4  12  26  42  68  98 134 176 222 260 320 390
#     4  10  20  36  58  92 126 176 208 264 306 374
#     4  11  24  38  63  89 136 169 222 255 325 384
#     4  11  23  42  61  94 133 174 216 264 317 385
#     4  11  26  41  62  91 128 172 214 270 323 381
#
# _framework density 19.868873000000001
#
# number of rings (size 3 to 8) (size 9 to 14) (size 15 to 20)
#    0.000    0.800    3.000    4.200   14.000    0.000 
#    0.000    0.000    0.000    0.000    0.000    2.800 
#    0.000    0.000    0.000    0.000    0.000    0.000 
#
# Total GULP energy -111647.455224 kJ/mol
# GULP energy per Si atom -5582.372761 kJ/mol
# Density = 1.982365 g / cm^3
# Si number density = 19.868873 Si / 1000 Ang^3
#
#
#
# Elastic Constant Matrix: (Units=GPa)
#
#
# Indices 1 2 3 4 5 6 
#
# 1 123.1639 29.4273 20.6756 0.0000 0.0000 0.0000
# 2 29.4273 97.0634 13.5633 0.0000 0.0000 0.0000
# 3 20.6756 13.5633 62.0809 0.0000 0.0000 0.0000
# 4 0.0000 0.0000 0.0000 15.6307 0.0000 0.0000
# 5 0.0000 0.0000 0.0000 0.0000 21.1502 0.0000
# 6 0.0000 0.0000 0.0000 0.0000 0.0000 49.3036
#
#
#
# Elastic Compliance Matrix: (Units=1/GPa)
#
#
# Indices 1 2 3 4 5 6 
#
# 1 0.009117 -0.002413 -0.002509 0.000000 0.000000 0.000000
# 2 -0.002413 0.011266 -0.001658 0.000000 0.000000 0.000000
# 3 -0.002509 -0.001658 0.017306 0.000000 0.000000 0.000000
# 4 0.000000 0.000000 0.000000 0.063977 0.000000 0.000000
# 5 0.000000 0.000000 0.000000 0.000000 0.047281 0.000000
# 6 0.000000 0.000000 0.000000 0.000000 0.000000 0.020282
#
#
# Mechanical properties :
#
#
# Convention : Reuss Voigt Hill
#
# Bulk Modulus (GPa) = 40.76886 45.51562 43.14224
# Shear Modulus (GPa) = 26.23771 31.79303 29.01537
#
# Velocity S-wave (km/s) = 3.63787 4.00452 3.82559
# Velocity P-wave (km/s) = 6.18134 6.65877 6.42449
#
# Compressibility (1/GPa) = 0.02452852
#
# Stress axis : x y z
#
# Youngs Moduli (GPa) = 109.68386 88.76362 57.78410
#
# Poissons Ratio (x) = 0.21423 0.14499
# Poissons Ratio (y) = 0.26472 0.09578
# Poissons Ratio (z) = 0.27521 0.14713
#
# Static dielectric constant tensor:
#      x y z
#    x 1.740240 0.000000 0.000000 
#    y 0.000000 1.881950 0.000000 
#    z 0.000000 0.000000 1.742790 
# 
# From -- ./inp_files/38666.got.cif
#   From: 2010.05.17/outbox.cif.g08.bks.cpg/sg24_20_cif.got.tgz:38666.got - 2010.06.04 00:33:39.
