data_PCOD9334423
_publ_section_title
;
Structure prediction by ZEFSAII (Michael W. Deem and Ramdas Pophale) SiO2 
 PCOD9334423
Probable space group: I 21 21 21
;
_chemical_formula_sum "Si O2"
_cell_formula_units_Z 40
_cell_length_a 11.668626
_cell_length_b 8.772319
_cell_length_c 15.720346
_cell_angle_alpha 90.000000
_cell_angle_beta 90.000000
_cell_angle_gamma 90.000000
_cell_volume 1609.148915
_symmetry_space_group_name_H-M "I 21 21 21"
_symmetry_group_IT_number 24
_symmetry_cell_setting 'orthorhombic'
loop_
_space_group_symop_operation_xyz
x,y,z
-x,1/2-y,z
x,-y,1/2-z
1/2-x,y,-z
1/2+x,1/2+y,1/2+z
1/2-x,-y,1/2+z
1/2+x,1/2-y,-z
-x,1/2+y,1/2-z
loop_
_atom_site_type_symbol
_atom_site_label
_atom_site_fract_x
_atom_site_fract_y
_atom_site_fract_z
Si Si1 0.881410 0.326563 0.360713
Si Si2 0.091935 0.096139 0.866646
Si Si3 0.596929 0.000000 0.250000
Si Si4 0.500000 0.250000 0.972368
Si Si5 0.339312 0.814390 0.662311
Si Si6 0.862397 0.746601 0.883960
O O1 0.867433 0.284589 0.260311
O O2 0.879954 0.512044 0.360481
O O3 0.772360 0.264989 0.414201
O O4 0.000000 0.250000 0.389183
O O5 0.204205 0.194224 0.851150
O O6 0.133304 0.924438 0.847228
O O7 0.049575 0.124156 0.962834
O O8 0.982262 0.105645 0.808293
O O9 0.650084 0.886330 0.181461
O O10 0.599864 0.206411 0.906404
O O11 0.000000 0.750000 0.916148
#
# Coordination Sequence:
#
# PCOD9334423 Si02
#       6
#     8   8   4   4   8   8
#     4  10  20  38  66  91 130 174 224 279 344 418
#     4  10  22  37  62  90 134 177 216 290 345 409
#     4  10  20  38  68 104 122 164 232 284 350 418
#     4  12  24  38  60  92 126 172 242 266 338 412
#     4  10  21  40  58  89 131 178 221 277 350 421
#     4   9  19  38  62  98 129 164 223 283 343 403
#
# _framework density 24.857859999999999
#
# number of rings (size 3 to 8) (size 9 to 14) (size 15 to 20)
#    0.000    2.000    1.000    4.200    7.000    1.600 
#    0.000    5.000    0.000    0.000    0.000    0.000 
#    0.000    0.000    0.000    0.000    0.000    0.000 
#
# Total GULP energy -111345.435096 kJ/mol
# GULP energy per Si atom -5567.271755 kJ/mol
# Density = 2.480128 g / cm^3
# Si number density = 24.857860 Si / 1000 Ang^3
#
#
#
# Elastic Constant Matrix: (Units=GPa)
#
#
# Indices 1 2 3 4 5 6 
#
# 1 222.8042 38.8187 35.6989 0.0000 0.0000 0.0000
# 2 38.8187 70.0106 13.7446 0.0000 0.0000 0.0000
# 3 35.6989 13.7446 158.8372 0.0000 0.0000 0.0000
# 4 0.0000 0.0000 0.0000 -10.6583 0.0000 0.0000
# 5 0.0000 0.0000 0.0000 0.0000 -17.9194 0.0000
# 6 0.0000 0.0000 0.0000 0.0000 0.0000 42.6260
#
#
#
# Elastic Compliance Matrix: (Units=1/GPa)
#
#
# Indices 1 2 3 4 5 6 
#
# 1 0.005096 -0.002646 -0.000916 0.000000 0.000000 0.000000
# 2 -0.002646 0.015904 -0.000782 0.000000 0.000000 0.000000
# 3 -0.000916 -0.000782 0.006569 0.000000 0.000000 0.000000
# 4 0.000000 0.000000 0.000000 -0.093824 0.000000 0.000000
# 5 0.000000 0.000000 0.000000 0.000000 -0.055805 0.000000
# 6 0.000000 0.000000 0.000000 0.000000 0.000000 0.023460
#
#
# Mechanical properties :
#
#
# Convention : Reuss Voigt Hill
#
# Bulk Modulus (GPa) = 52.96057 69.79739 61.37898
# Shear Modulus (GPa) = -59.79516 27.03566 -16.37975
#
# Velocity S-wave (km/s) = -4.90989 3.30147 -2.56976
# Velocity P-wave (km/s) = 3.28498 6.53242 3.99258
#
# Compressibility (1/GPa) = 0.01888197
#
# Stress axis : x y z
#
# Youngs Moduli (GPa) = 196.23128 62.87750 152.22206
#
# Poissons Ratio (x) = 0.16635 0.13950
# Poissons Ratio (y) = 0.51917 0.11898
# Poissons Ratio (z) = 0.17983 0.04914
#
# Static dielectric constant tensor:
#      x y z
#    x 2.089010 0.000000 0.000000 
#    y 0.000000 2.086030 0.000000 
#    z 0.000000 0.000000 1.995750 
# 
# From -- ./inp_files/30089.got.cif
#   From: 2010.05.17/outbox.cif.g08.bks.cpg/sg24_16_cif.got.tgz:30089.got - 2010.06.04 00:33:39.
