data_PCOD9334457
_publ_section_title
;
Structure prediction by ZEFSAII (Michael W. Deem and Ramdas Pophale) SiO2 
 PCOD9334457
Probable space group: I 21 21 21
;
_chemical_formula_sum "Si O2"
_cell_formula_units_Z 40
_cell_length_a 12.666937
_cell_length_b 8.355343
_cell_length_c 17.880584
_cell_angle_alpha 90.000000
_cell_angle_beta 90.000000
_cell_angle_gamma 90.000000
_cell_volume 1892.420277
_symmetry_space_group_name_H-M "I 21 21 21"
_symmetry_group_IT_number 24
_symmetry_cell_setting 'orthorhombic'
loop_
_space_group_symop_operation_xyz
x,y,z
-x,1/2-y,z
x,-y,1/2-z
1/2-x,y,-z
1/2+x,1/2+y,1/2+z
1/2-x,-y,1/2+z
1/2+x,1/2-y,-z
-x,1/2+y,1/2-z
loop_
_atom_site_type_symbol
_atom_site_label
_atom_site_fract_x
_atom_site_fract_y
_atom_site_fract_z
Si Si1 0.750000 0.222189 0.000000
Si Si2 0.500000 0.750000 0.705922
Si Si3 0.591462 0.462851 0.919339
Si Si4 0.953423 0.925386 0.564386
Si Si5 0.806639 0.660628 0.198782
Si Si6 0.406238 0.353498 0.301373
O O1 0.681025 0.334234 0.944391
O O2 0.832988 0.113795 0.956288
O O3 0.520612 0.604970 0.648716
O O4 0.603845 0.760722 0.757116
O O5 0.648679 0.612584 0.882387
O O6 0.518812 0.480533 0.991648
O O7 0.000000 0.750000 0.586263
O O8 0.955298 0.062443 0.625707
O O9 0.791919 0.500000 0.250000
O O10 0.695948 0.745925 0.187977
O O11 0.500000 0.250000 0.265861
O O12 0.373155 0.500000 0.250000
#
# Coordination Sequence:
#
# PCOD9334457 Si02
#       6
#     4   4   8   8   8   8
#     4  10  20  38  74  98 136 186 222 280 346 426
#     4  10  20  44  68 104 130 174 232 280 346 396
#     4  10  21  43  71 102 136 177 233 278 346 421
#     4  10  23  43  71 100 135 186 228 281 348 426
#     4  10  25  43  75  99 136 183 229 296 349 413
#     4  12  28  46  67 102 142 184 236 291 352 421
#
# _framework density 21.136952999999998
#
# number of rings (size 3 to 8) (size 9 to 14) (size 15 to 20)
#    0.000    1.600    3.000    1.200   11.200    4.000 
#    5.400    0.000    0.000    0.000    0.000    0.000 
#    0.000    0.000    0.000    0.000    0.000    0.000 
#
# Total GULP energy -111748.219778 kJ/mol
# GULP energy per Si atom -5587.410989 kJ/mol
# Density = 2.108884 g / cm^3
# Si number density = 21.136953 Si / 1000 Ang^3
#
#
#
# Elastic Constant Matrix: (Units=GPa)
#
#
# Indices 1 2 3 4 5 6 
#
# 1 109.1524 38.7134 25.7200 0.0000 0.0000 0.0000
# 2 38.7134 59.5400 29.1786 0.0000 0.0000 0.0000
# 3 25.7200 29.1786 95.9483 0.0000 0.0000 0.0000
# 4 0.0000 0.0000 0.0000 12.4188 0.0000 0.0000
# 5 0.0000 0.0000 0.0000 0.0000 -6.3457 0.0000
# 6 0.0000 0.0000 0.0000 0.0000 0.0000 37.1899
#
#
#
# Elastic Compliance Matrix: (Units=1/GPa)
#
#
# Indices 1 2 3 4 5 6 
#
# 1 0.011987 -0.007309 -0.000991 0.000000 0.000000 0.000000
# 2 -0.007309 0.024193 -0.005398 0.000000 0.000000 0.000000
# 3 -0.000991 -0.005398 0.012329 0.000000 0.000000 0.000000
# 4 0.000000 0.000000 0.000000 0.080523 0.000000 0.000000
# 5 0.000000 0.000000 0.000000 0.000000 -0.157587 0.000000
# 6 0.000000 0.000000 0.000000 0.000000 0.000000 0.026889
#
#
# Mechanical properties :
#
#
# Convention : Reuss Voigt Hill
#
# Bulk Modulus (GPa) = 47.36029 50.20718 48.78373
# Shear Modulus (GPa) = 152.59217 20.05452 86.32334
#
# Velocity S-wave (km/s) = 8.50581 3.08358 6.39755
# Velocity P-wave (km/s) = 10.90505 6.04010 8.81485
#
# Compressibility (1/GPa) = 0.02111474
#
# Stress axis : x y z
#
# Youngs Moduli (GPa) = 83.42301 41.33434 81.10666
#
# Poissons Ratio (x) = 0.30210 0.08035
# Poissons Ratio (y) = 0.60971 0.43782
# Poissons Ratio (z) = 0.08264 0.22313
#
# Static dielectric constant tensor:
#      x y z
#    x 1.749930 0.000000 0.000000 
#    y 0.000000 1.803250 0.000000 
#    z 0.000000 0.000000 1.770520 
# 
# From -- ./inp_files/10760.got.cif
#   From: 2010.05.17/outbox.cif.g08.bks.cpg/sg24_6_cif.got.tgz:10760.got - 2010.06.04 00:33:39.
