data_PCOD9334174
_publ_section_title
;
Structure prediction by ZEFSAII (Michael W. Deem and Ramdas Pophale) SiO2 
 PCOD9334174
Probable space group: I 21 21 21
;
_chemical_formula_sum "Si O2"
_cell_formula_units_Z 48
_cell_length_a 8.627473
_cell_length_b 26.804905
_cell_length_c 10.368849
_cell_angle_alpha 90.000000
_cell_angle_beta 90.000000
_cell_angle_gamma 90.000000
_cell_volume 2397.885443
_symmetry_space_group_name_H-M "I 21 21 21"
_symmetry_group_IT_number 24
_symmetry_cell_setting 'orthorhombic'
loop_
_space_group_symop_operation_xyz
x,y,z
-x,1/2-y,z
x,-y,1/2-z
1/2-x,y,-z
1/2+x,1/2+y,1/2+z
1/2-x,-y,1/2+z
1/2+x,1/2-y,-z
-x,1/2+y,1/2-z
loop_
_atom_site_type_symbol
_atom_site_label
_atom_site_fract_x
_atom_site_fract_y
_atom_site_fract_z
Si Si1 0.304051 0.809188 0.146492
Si Si2 0.750000 0.966091 0.500000
Si Si3 0.299404 0.000000 0.250000
Si Si4 0.323718 0.302858 0.355927
Si Si5 0.108662 0.905144 0.200628
Si Si6 0.021858 0.454406 0.541668
Si Si7 0.752305 0.096436 0.753705
O O1 0.272454 0.752164 0.189640
O O2 0.490737 0.810265 0.140644
O O3 0.210567 0.854591 0.213235
O O4 0.250000 0.811036 0.000000
O O5 0.803763 0.932622 0.618931
O O6 0.885949 0.004248 0.459394
O O7 0.197712 0.950700 0.267152
O O8 0.407153 0.985319 0.131135
O O9 0.250000 0.311141 0.500000
O O10 0.274345 0.344773 0.256177
O O11 0.933097 0.907012 0.249624
O O12 0.075846 0.917846 0.049038
O O13 0.146320 0.425991 0.633958
#
# Coordination Sequence:
#
# PCOD9334174 Si02
#       7
#     8   4   4   8   8   8   8
#     4  10  20  36  59  94 127 151 200 264 321 373
#     4  12  24  40  62  84 122 164 222 246 300 394
#     4  12  24  36  58  92 132 160 196 248 320 370
#     4  10  21  37  63  91 122 163 200 253 323 385
#     4  12  24  38  62  96 126 161 207 264 317 373
#     4  12  23  41  62  90 126 167 209 257 314 382
#     4  12  23  40  63  87 120 168 210 254 311 378
#
# _framework density 20.017637000000001
#
# number of rings (size 3 to 8) (size 9 to 14) (size 15 to 20)
#    0.000    0.667    3.333    6.500    0.000    2.000 
#    0.000    0.000    0.000    4.000    0.000    0.000 
#    0.000    0.000    0.000    0.000    0.000    0.000 
#
# Total GULP energy -133903.516790 kJ/mol
# GULP energy per Si atom -5579.313200 kJ/mol
# Density = 1.997208 g / cm^3
# Si number density = 20.017637 Si / 1000 Ang^3
#
#
#
# Elastic Constant Matrix: (Units=GPa)
#
#
# Indices 1 2 3 4 5 6 
#
# 1 100.0813 57.2154 -2.0960 0.0002 -0.0001 0.0002
# 2 57.2154 178.0428 24.1307 -0.0004 0.0000 -0.0002
# 3 -2.0960 24.1307 24.6428 0.0040 0.0009 0.0019
# 4 0.0002 -0.0004 0.0040 28.0138 0.0006 0.0012
# 5 -0.0001 0.0000 0.0009 0.0006 25.7089 0.0006
# 6 0.0002 -0.0002 0.0019 0.0012 0.0006 34.2059
#
#
#
# Elastic Compliance Matrix: (Units=1/GPa)
#
#
# Indices 1 2 3 4 5 6 
#
# 1 0.012961 -0.004975 0.005974 -0.000001 0.000000 0.000000
# 2 -0.004975 0.008386 -0.008634 0.000001 0.000000 0.000001
# 3 0.005974 -0.008634 0.049543 -0.000007 -0.000002 -0.000003
# 4 -0.000001 0.000001 -0.000007 0.035697 -0.000001 -0.000001
# 5 0.000000 0.000000 -0.000002 -0.000001 0.038897 -0.000001
# 6 0.000000 0.000001 -0.000003 -0.000001 -0.000001 0.029235
#
#
# Mechanical properties :
#
#
# Convention : Reuss Voigt Hill
#
# Bulk Modulus (GPa) = 17.97960 51.25191 34.61576
# Shear Modulus (GPa) = 23.97758 32.48685 28.23222
#
# Velocity S-wave (km/s) = 3.46471 4.03291 3.75956
# Velocity P-wave (km/s) = 5.00070 6.88075 6.01464
#
# Compressibility (1/GPa) = 0.05561858
#
# Stress axis : x y z
#
# Youngs Moduli (GPa) = 77.15454 119.25276 20.18455
#
# Poissons Ratio (x) = 0.59325 -0.12058
# Poissons Ratio (y) = 0.38383 0.17428
# Poissons Ratio (z) = -0.46090 1.02968
#
# Static dielectric constant tensor:
#      x y z
#    x 2.028600 -0.000010 0.000040 
#    y -0.000010 1.757580 0.000000 
#    z 0.000040 0.000000 1.755380 
# 
# From -- ./inp_files/18624.got.cif
#   From: 2010.05.17/outbox.cif.g08.bks.cpg/sg24_10_cif.got.tgz:18624.got - 2010.06.04 00:33:39.
