data_PCOD9334517
_publ_section_title
;
Structure prediction by ZEFSAII (Michael W. Deem and Ramdas Pophale) SiO2 
 PCOD9334517
Probable space group: I 21 21 21
;
_chemical_formula_sum "Si O2"
_cell_formula_units_Z 36
_cell_length_a 18.486524
_cell_length_b 7.192406
_cell_length_c 12.333332
_cell_angle_alpha 90.000000
_cell_angle_beta 90.000000
_cell_angle_gamma 90.000000
_cell_volume 1639.871718
_symmetry_space_group_name_H-M "I 21 21 21"
_symmetry_group_IT_number 24
_symmetry_cell_setting 'orthorhombic'
loop_
_space_group_symop_operation_xyz
x,y,z
-x,1/2-y,z
x,-y,1/2-z
1/2-x,y,-z
1/2+x,1/2+y,1/2+z
1/2-x,-y,1/2+z
1/2+x,1/2-y,-z
-x,1/2+y,1/2-z
loop_
_atom_site_type_symbol
_atom_site_label
_atom_site_fract_x
_atom_site_fract_y
_atom_site_fract_z
Si Si1 0.413552 0.992873 0.134931
Si Si2 0.318500 0.670954 0.065722
Si Si3 0.680759 0.500000 0.750000
Si Si4 0.072817 0.186495 0.418318
Si Si5 0.215112 0.737482 0.617765
O O1 0.354625 0.824463 0.142009
O O2 0.454249 0.000000 0.250000
O O3 0.364464 0.172873 0.119458
O O4 0.451751 0.938351 0.022894
O O5 0.294202 0.484145 0.123047
O O6 0.250000 0.749954 0.000000
O O7 0.380565 0.647663 0.973764
O O8 0.628311 0.576550 0.843739
O O9 0.731486 0.663446 0.702651
O O10 0.000000 0.250000 0.360792
O O11 0.250000 0.774775 0.500000
#
# Coordination Sequence:
#
# PCOD9334517 Si02
#       5
#     8   8   4   8   8
#     4  10  20  39  67  96 134 177 226 293 345 396
#     4   9  21  40  65 100 131 175 236 291 335 410
#     4  12  22  42  76 100 150 186 222 306 370 412
#     4  10  24  48  65  99 150 186 231 284 358 441
#     4  11  20  39  66 102 132 176 233 289 352 402
#
# _framework density 21.952935
#
# number of rings (size 3 to 8) (size 9 to 14) (size 15 to 20)
#    1.333    0.444    3.333    2.000    0.000    0.889 
#   12.000    3.333    0.000    0.000    0.000    0.000 
#    0.000    0.000    0.000    0.000    0.000    0.000 
#
# Total GULP energy -100340.425556 kJ/mol
# GULP energy per Si atom -5574.468086 kJ/mol
# Density = 2.190297 g / cm^3
# Si number density = 21.952935 Si / 1000 Ang^3
#
#
#
# Elastic Constant Matrix: (Units=GPa)
#
#
# Indices 1 2 3 4 5 6 
#
# 1 71.6804 2.1452 1.0000 0.0000 0.0000 0.0000
# 2 2.1452 70.3699 22.4581 0.0000 0.0000 0.0000
# 3 1.0000 22.4581 79.0920 0.0000 0.0000 0.0000
# 4 0.0000 0.0000 0.0000 19.8355 0.0000 0.0000
# 5 0.0000 0.0000 0.0000 0.0000 6.1418 0.0000
# 6 0.0000 0.0000 0.0000 0.0000 0.0000 11.6141
#
#
#
# Elastic Compliance Matrix: (Units=1/GPa)
#
#
# Indices 1 2 3 4 5 6 
#
# 1 0.013964 -0.000406 -0.000061 0.000000 0.000000 0.000000
# 2 -0.000406 0.015639 -0.004435 0.000000 0.000000 0.000000
# 3 -0.000061 -0.004435 0.013904 0.000000 0.000000 0.000000
# 4 0.000000 0.000000 0.000000 0.050415 0.000000 0.000000
# 5 0.000000 0.000000 0.000000 0.000000 0.162820 0.000000
# 6 0.000000 0.000000 0.000000 0.000000 0.000000 0.086102
#
#
# Mechanical properties :
#
#
# Convention : Reuss Voigt Hill
#
# Bulk Modulus (GPa) = 29.67314 30.26098 29.96706
# Shear Modulus (GPa) = 13.74072 20.55420 17.14746
#
# Velocity S-wave (km/s) = 2.50455 3.06320 2.79785
# Velocity P-wave (km/s) = 4.68078 5.13082 4.91096
#
# Compressibility (1/GPa) = 0.03370051
#
# Stress axis : x y z
#
# Youngs Moduli (GPa) = 71.61366 63.94457 71.92322
#
# Poissons Ratio (x) = 0.02597 0.00440
# Poissons Ratio (y) = 0.02909 0.31901
# Poissons Ratio (z) = 0.00438 0.28362
#
# Static dielectric constant tensor:
#      x y z
#    x 1.773790 0.000000 0.000000 
#    y 0.000000 1.792170 0.000000 
#    z 0.000000 0.000000 1.896990 
# 
# From -- ./inp_files/21345.got.cif
#   From: 2010.05.17/outbox.cif.g08.bks.cpg/sg24_11_cif.got.tgz:21345.got - 2010.06.04 00:33:39.
