data_PCOD9334391
_publ_section_title
;
Structure prediction by ZEFSAII (Michael W. Deem and Ramdas Pophale) SiO2 
 PCOD9334391
Probable space group: I 21 21 21
;
_chemical_formula_sum "Si O2"
_cell_formula_units_Z 64
_cell_length_a 8.160553
_cell_length_b 11.863702
_cell_length_c 28.746680
_cell_angle_alpha 90.000000
_cell_angle_beta 90.000000
_cell_angle_gamma 90.000000
_cell_volume 2783.091684
_symmetry_space_group_name_H-M "I 21 21 21"
_symmetry_group_IT_number 24
_symmetry_cell_setting 'orthorhombic'
loop_
_space_group_symop_operation_xyz
x,y,z
-x,1/2-y,z
x,-y,1/2-z
1/2-x,y,-z
1/2+x,1/2+y,1/2+z
1/2-x,-y,1/2+z
1/2+x,1/2-y,-z
-x,1/2+y,1/2-z
loop_
_atom_site_type_symbol
_atom_site_label
_atom_site_fract_x
_atom_site_fract_y
_atom_site_fract_z
Si Si1 0.076840 0.359894 0.526272
Si Si2 0.510490 0.469350 0.105766
Si Si3 0.153429 0.180268 0.370272
Si Si4 0.397545 0.348968 0.325841
Si Si5 0.559393 0.031308 0.698282
Si Si6 0.165836 0.606924 0.381895
Si Si7 0.234918 0.805580 0.448774
Si Si8 0.065295 0.971641 0.057430
O O1 0.250000 0.348882 0.500000
O O2 0.062503 0.460635 0.562412
O O3 0.000000 0.250000 0.548948
O O4 0.955595 0.388486 0.484196
O O5 0.520673 0.563540 0.148177
O O6 0.357324 0.401580 0.127073
O O7 0.626147 0.374078 0.081165
O O8 0.292625 0.270848 0.361375
O O9 0.194439 0.081378 0.406554
O O10 0.000000 0.250000 0.391784
O O11 0.068858 0.118694 0.325742
O O12 0.500000 0.250000 0.299458
O O13 0.244322 0.414325 0.301748
O O14 0.510614 0.000000 0.750000
O O15 0.569907 0.919267 0.665739
O O16 0.158927 0.718243 0.412592
O O17 0.095327 0.502523 0.412758
O O18 0.250000 0.747644 0.500000
O O19 0.118132 0.908987 0.461909
#
# Coordination Sequence:
#
# PCOD9334391 Si02
#       8
#     8   8   8   8   8   8   8   8
#     4  12  26  36  56  83 118 158 210 272 318 363
#     4  11  23  40  55  85 122 167 213 262 314 372
#     4   9  19  37  64  89 115 165 196 251 336 390
#     4  10  20  38  64  90 124 162 203 256 336 398
#     4   9  20  42  67  93 126 154 207 272 331 407
#     4  10  23  41  62  83 115 169 210 259 325 378
#     4  12  25  37  58  84 124 176 226 260 305 371
#     4  11  22  39  55  83 119 158 215 260 307 366
#
# _framework density 22.996009000000001
#
# number of rings (size 3 to 8) (size 9 to 14) (size 15 to 20)
#    0.000    1.500    2.500    3.000    5.250    1.000 
#    0.000   10.625    0.000    0.000    0.000    0.000 
#    0.000    0.000    0.000    0.000    0.000    0.000 
#
# Total GULP energy -178215.137447 kJ/mol
# GULP energy per Si atom -5569.223045 kJ/mol
# Density = 2.294367 g / cm^3
# Si number density = 22.996009 Si / 1000 Ang^3
#
#
#
# Elastic Constant Matrix: (Units=GPa)
#
#
# Indices 1 2 3 4 5 6 
#
# 1 44.6477 18.3983 5.0467 0.0000 0.0000 0.0000
# 2 18.3983 105.1818 36.3510 0.0000 0.0000 0.0000
# 3 5.0467 36.3510 108.0549 0.0000 0.0000 0.0000
# 4 0.0000 0.0000 0.0000 19.1429 0.0000 0.0000
# 5 0.0000 0.0000 0.0000 0.0000 21.6692 0.0000
# 6 0.0000 0.0000 0.0000 0.0000 0.0000 33.2126
#
#
#
# Elastic Compliance Matrix: (Units=1/GPa)
#
#
# Indices 1 2 3 4 5 6 
#
# 1 0.024148 -0.004339 0.000332 0.000000 0.000000 0.000000
# 2 -0.004339 0.011538 -0.003679 0.000000 0.000000 0.000000
# 3 0.000332 -0.003679 0.010477 0.000000 0.000000 0.000000
# 4 0.000000 0.000000 0.000000 0.052239 0.000000 0.000000
# 5 0.000000 0.000000 0.000000 0.000000 0.046149 0.000000
# 6 0.000000 0.000000 0.000000 0.000000 0.000000 0.030109
#
#
# Mechanical properties :
#
#
# Convention : Reuss Voigt Hill
#
# Bulk Modulus (GPa) = 32.47706 41.94180 37.20943
# Shear Modulus (GPa) = 24.96341 28.01085 26.48713
#
# Velocity S-wave (km/s) = 3.29835 3.49388 3.39752
# Velocity P-wave (km/s) = 5.35341 5.87831 5.62199
#
# Compressibility (1/GPa) = 0.03079097
#
# Stress axis : x y z
#
# Youngs Moduli (GPa) = 41.41145 86.67290 95.45040
#
# Poissons Ratio (x) = 0.37604 -0.03166
# Poissons Ratio (y) = 0.17967 0.35114
# Poissons Ratio (z) = -0.01374 0.31885
#
# Static dielectric constant tensor:
#      x y z
#    x 2.060420 0.000000 0.000000 
#    y 0.000000 1.934970 0.000000 
#    z 0.000000 0.000000 1.835900 
# 
# From -- ./inp_files/38440.got.cif
#   From: 2010.05.17/outbox.cif.g08.bks.cpg/sg24_20_cif.got.tgz:38440.got - 2010.06.04 00:33:39.
