data_PCOD9334920
_publ_section_title
;
Structure prediction by ZEFSAII (Michael W. Deem and Ramdas Pophale) SiO2 
 PCOD9334920
Probable space group: I 21 21 21
;
_chemical_formula_sum "Si O2"
_cell_formula_units_Z 48
_cell_length_a 16.983773
_cell_length_b 4.967702
_cell_length_c 26.384332
_cell_angle_alpha 90.000000
_cell_angle_beta 90.000000
_cell_angle_gamma 90.000000
_cell_volume 2226.054616
_symmetry_space_group_name_H-M "I 21 21 21"
_symmetry_group_IT_number 24
_symmetry_cell_setting 'orthorhombic'
loop_
_space_group_symop_operation_xyz
x,y,z
-x,1/2-y,z
x,-y,1/2-z
1/2-x,y,-z
1/2+x,1/2+y,1/2+z
1/2-x,-y,1/2+z
1/2+x,1/2-y,-z
-x,1/2+y,1/2-z
loop_
_atom_site_type_symbol
_atom_site_label
_atom_site_fract_x
_atom_site_fract_y
_atom_site_fract_z
Si Si1 0.057541 0.000525 0.308662
Si Si2 0.811179 0.609203 0.542179
Si Si3 0.775343 0.908757 0.696788
Si Si4 0.416139 0.372336 0.446804
Si Si5 0.551168 0.980909 0.168543
Si Si6 0.720731 0.418798 0.642987
O O1 0.000000 0.750000 0.316018
O O2 0.087621 0.000000 0.250000
O O3 0.128818 0.021634 0.348227
O O4 0.000000 0.250000 0.313767
O O5 0.750000 0.700863 0.500000
O O6 0.851657 0.325363 0.529821
O O7 0.761234 0.539695 0.592806
O O8 0.882426 0.825339 0.546631
O O9 0.761089 0.597534 0.686547
O O10 0.740049 0.000000 0.750000
O O11 0.868256 0.952736 0.695641
O O12 0.738441 0.105318 0.653730
O O13 0.500000 0.250000 0.465034
O O14 0.422457 0.353445 0.385609
O O15 0.500000 0.750000 0.195186
O O16 0.500000 0.250000 0.159914
#
# Coordination Sequence:
#
# PCOD9334920 Si02
#       6
#     8   8   8   8   8   8
#     4  10  21  38  62  89 119 160 206 253 321 402
#     4  12  24  43  68  99 127 168 220 282 335 389
#     4  12  24  38  61  92 128 172 216 259 319 383
#     4  11  22  42  68  94 127 174 218 259 321 396
#     4  11  21  36  60  86 125 169 211 255 303 362
#     4  12  23  43  62  92 129 167 213 274 331 391
#
# _framework density 21.562813999999999
#
# number of rings (size 3 to 8) (size 9 to 14) (size 15 to 20)
#    0.000    0.667    3.333    6.500    0.000    2.000 
#    0.000    2.500    0.000    0.000    0.000    0.000 
#    0.000    0.000    0.000    0.000    0.000    0.000 
#
# Total GULP energy -134024.652075 kJ/mol
# GULP energy per Si atom -5584.360503 kJ/mol
# Density = 2.151374 g / cm^3
# Si number density = 21.562814 Si / 1000 Ang^3
#
#
#
# Elastic Constant Matrix: (Units=GPa)
#
#
# Indices 1 2 3 4 5 6 
#
# 1 112.9068 24.2507 10.8000 0.0000 0.0000 0.0000
# 2 24.2507 101.3177 -10.8866 0.0000 0.0000 0.0000
# 3 10.8000 -10.8866 35.8770 0.0000 0.0000 0.0000
# 4 0.0000 0.0000 0.0000 10.5518 0.0000 0.0000
# 5 0.0000 0.0000 0.0000 0.0000 18.9579 0.0000
# 6 0.0000 0.0000 0.0000 0.0000 0.0000 27.2543
#
#
#
# Elastic Compliance Matrix: (Units=1/GPa)
#
#
# Indices 1 2 3 4 5 6 
#
# 1 0.009811 -0.002756 -0.003790 0.000000 0.000000 0.000000
# 2 -0.002756 0.010977 0.004160 0.000000 0.000000 0.000000
# 3 -0.003790 0.004160 0.030276 0.000000 0.000000 0.000000
# 4 0.000000 0.000000 0.000000 0.094770 0.000000 0.000000
# 5 0.000000 0.000000 0.000000 0.000000 0.052749 0.000000
# 6 0.000000 0.000000 0.000000 0.000000 0.000000 0.036691
#
#
# Mechanical properties :
#
#
# Convention : Reuss Voigt Hill
#
# Bulk Modulus (GPa) = 21.60105 33.15885 27.37995
# Shear Modulus (GPa) = 19.57137 26.41530 22.99334
#
# Velocity S-wave (km/s) = 3.01598 3.50385 3.26903
# Velocity P-wave (km/s) = 4.70826 5.63742 5.19366
#
# Compressibility (1/GPa) = 0.04629405
#
# Stress axis : x y z
#
# Youngs Moduli (GPa) = 101.92433 91.10372 33.02931
#
# Poissons Ratio (x) = 0.25104 0.12517
# Poissons Ratio (y) = 0.28086 -0.13741
# Poissons Ratio (z) = 0.38625 -0.37901
#
# Static dielectric constant tensor:
#      x y z
#    x 1.788430 0.000000 0.000000 
#    y 0.000000 1.754930 0.000000 
#    z 0.000000 0.000000 1.794980 
# 
# From -- ./inp_files/37361.got.cif
#   From: 2010.05.17/outbox.cif.g08.bks.cpg/sg24_19_cif.got.tgz:37361.got - 2010.06.04 00:33:39.
