data_PCOD9334847
_publ_section_title
;
Structure prediction by ZEFSAII (Michael W. Deem and Ramdas Pophale) SiO2 
 PCOD9334847
Probable space group: I 21 21 21
;
_chemical_formula_sum "Si O2"
_cell_formula_units_Z 40
_cell_length_a 16.512067
_cell_length_b 12.205734
_cell_length_c 7.803268
_cell_angle_alpha 90.000000
_cell_angle_beta 90.000000
_cell_angle_gamma 90.000000
_cell_volume 1572.685440
_symmetry_space_group_name_H-M "I 21 21 21"
_symmetry_group_IT_number 24
_symmetry_cell_setting 'orthorhombic'
loop_
_space_group_symop_operation_xyz
x,y,z
-x,1/2-y,z
x,-y,1/2-z
1/2-x,y,-z
1/2+x,1/2+y,1/2+z
1/2-x,-y,1/2+z
1/2+x,1/2-y,-z
-x,1/2+y,1/2-z
loop_
_atom_site_type_symbol
_atom_site_label
_atom_site_fract_x
_atom_site_fract_y
_atom_site_fract_z
Si Si1 0.763045 0.847961 0.187700
Si Si2 0.069361 0.902019 0.874158
Si Si3 0.324680 0.883912 0.785977
Si Si4 0.088782 0.657566 0.729192
Si Si5 0.080677 0.289329 0.142698
O O1 0.764741 0.714892 0.173072
O O2 0.682195 0.877803 0.288037
O O3 0.852745 0.864542 0.263298
O O4 0.750000 0.894890 0.000000
O O5 0.970351 0.903745 0.861829
O O6 0.088357 0.782620 0.795583
O O7 0.096302 0.000000 0.750000
O O8 0.111786 0.904279 0.059268
O O9 0.371462 0.826908 0.626128
O O10 0.286258 0.000000 0.750000
O O11 0.055687 0.658346 0.535983
O O12 0.000000 0.250000 0.240011
#
# Coordination Sequence:
#
# PCOD9334847 Si02
#       5
#     8   8   8   8   8
#     4  10  22  37  59  93 124 167 204 261 325 384
#     4  11  23  38  65  92 127 168 219 260 317 381
#     4  10  23  38  59  94 128 163 210 268 325 379
#     4  11  21  42  63  91 128 170 210 268 323 380
#     4  10  21  37  62  89 117 170 210 255 316 388
#
# _framework density 25.434201000000002
#
# number of rings (size 3 to 8) (size 9 to 14) (size 15 to 20)
#    1.200    0.400    4.000    1.800    5.600    0.800 
#    3.600    0.000    0.000    3.600    0.000    0.000 
#    0.000    0.000    0.000    0.000    0.000    0.000 
#
# Total GULP energy -111487.944753 kJ/mol
# GULP energy per Si atom -5574.397238 kJ/mol
# Density = 2.537631 g / cm^3
# Si number density = 25.434201 Si / 1000 Ang^3
#
#
#
# Elastic Constant Matrix: (Units=GPa)
#
#
# Indices 1 2 3 4 5 6 
#
# 1 181.7886 -14.5631 34.5731 0.0000 0.0000 0.0000
# 2 -14.5631 122.7595 3.2665 0.0000 0.0000 0.0000
# 3 34.5731 3.2665 79.9736 0.0000 0.0000 0.0000
# 4 0.0000 0.0000 0.0000 20.3228 0.0000 0.0000
# 5 0.0000 0.0000 0.0000 0.0000 32.9290 0.0000
# 6 0.0000 0.0000 0.0000 0.0000 0.0000 -0.5032
#
#
#
# Elastic Compliance Matrix: (Units=1/GPa)
#
#
# Indices 1 2 3 4 5 6 
#
# 1 0.006069 0.000791 -0.002656 0.000000 0.000000 0.000000
# 2 0.000791 0.008258 -0.000679 0.000000 0.000000 0.000000
# 3 -0.002656 -0.000679 0.013680 0.000000 0.000000 0.000000
# 4 0.000000 0.000000 0.000000 0.049206 0.000000 0.000000
# 5 0.000000 0.000000 0.000000 0.000000 0.030368 0.000000
# 6 0.000000 0.000000 0.000000 0.000000 0.000000 -1.987335
#
#
# Mechanical properties :
#
#
# Convention : Reuss Voigt Hill
#
# Bulk Modulus (GPa) = 43.63326 47.89718 45.76522
# Shear Modulus (GPa) = -2.67806 34.63274 15.97734
#
# Velocity S-wave (km/s) = -1.02724 3.69407 2.50908
# Velocity P-wave (km/s) = 3.97311 6.08831 5.14068
#
# Compressibility (1/GPa) = 0.02291830
#
# Stress axis : x y z
#
# Youngs Moduli (GPa) = 164.76131 121.09645 73.09880
#
# Poissons Ratio (x) = -0.09575 0.19416
# Poissons Ratio (y) = -0.13028 0.04964
# Poissons Ratio (z) = 0.43763 0.08224
#
# Static dielectric constant tensor:
#      x y z
#    x 2.124220 0.000000 0.000000 
#    y 0.000000 2.036320 0.000000 
#    z 0.000000 0.000000 1.982830 
# 
# From -- ./inp_files/13997.got.cif
#   From: 2010.05.17/outbox.cif.g08.bks.cpg/sg24_7_cif.got.tgz:13997.got - 2010.06.04 00:33:39.
