data_PCOD9334434
_publ_section_title
;
Structure prediction by ZEFSAII (Michael W. Deem and Ramdas Pophale) SiO2 
 PCOD9334434
Probable space group: I 21 21 21
;
_chemical_formula_sum "Si O2"
_cell_formula_units_Z 56
_cell_length_a 14.790908
_cell_length_b 13.078728
_cell_length_c 13.943556
_cell_angle_alpha 90.000000
_cell_angle_beta 90.000000
_cell_angle_gamma 90.000000
_cell_volume 2697.328796
_symmetry_space_group_name_H-M "I 21 21 21"
_symmetry_group_IT_number 24
_symmetry_cell_setting 'orthorhombic'
loop_
_space_group_symop_operation_xyz
x,y,z
-x,1/2-y,z
x,-y,1/2-z
1/2-x,y,-z
1/2+x,1/2+y,1/2+z
1/2-x,-y,1/2+z
1/2+x,1/2-y,-z
-x,1/2+y,1/2-z
loop_
_atom_site_type_symbol
_atom_site_label
_atom_site_fract_x
_atom_site_fract_y
_atom_site_fract_z
Si Si1 0.568372 0.511266 0.921104
Si Si2 0.930071 0.000000 0.250000
Si Si3 0.741515 0.388406 0.883750
Si Si4 0.180608 0.657011 0.367932
Si Si5 0.388570 0.000000 0.250000
Si Si6 0.962369 0.149722 0.962776
Si Si7 0.840616 0.992039 0.638661
Si Si8 0.001813 0.370014 0.597374
O O1 0.494173 0.527132 0.838964
O O2 0.662547 0.475329 0.874949
O O3 0.538358 0.412446 0.982274
O O4 0.553323 0.599578 0.000027
O O5 0.872561 0.099869 0.218467
O O6 0.718921 0.271410 0.848897
O O7 0.825506 0.433281 0.823062
O O8 0.750000 0.379970 0.000000
O O9 0.111836 0.671381 0.455875
O O10 0.252325 0.568548 0.397489
O O11 0.450124 0.073108 0.316113
O O12 0.000000 0.250000 0.919416
O O13 0.919540 0.087814 0.878579
O O14 0.892339 0.090203 0.593734
O O15 0.823482 0.000000 0.750000
O O16 0.000000 0.250000 0.610650
#
# Coordination Sequence:
#
# PCOD9334434 Si02
#       8
#     8   4   8   8   4   8   8   8
#     4  10  22  46  67  98 138 177 238 295 343 443
#     4  10  23  43  70 100 142 178 236 293 359 434
#     4  12  24  43  72 106 143 182 238 301 362 426
#     4  11  23  41  68 106 138 179 228 298 368 409
#     4  12  27  43  70 102 144 182 234 303 347 438
#     4  10  20  38  67  98 130 181 224 282 355 416
#     4  11  23  38  63  98 139 170 227 294 339 422
#     4  11  26  48  69  97 139 198 240 286 369 431
#
# _framework density 20.761282000000001
#
# number of rings (size 3 to 8) (size 9 to 14) (size 15 to 20)
#    0.000    1.143    4.286    1.714    2.000    0.571 
#    5.143    0.000   12.571    0.000    0.000    0.000 
#    0.000    0.000    0.000    0.000    0.000    0.000 
#
# Total GULP energy -156042.082286 kJ/mol
# GULP energy per Si atom -5572.931510 kJ/mol
# Density = 2.071403 g / cm^3
# Si number density = 20.761282 Si / 1000 Ang^3
#
#
#
# Elastic Constant Matrix: (Units=GPa)
#
#
# Indices 1 2 3 4 5 6 
#
# 1 78.2753 40.7307 16.8392 0.0000 0.0000 0.0000
# 2 40.7307 144.0636 38.1955 0.0000 0.0000 0.0000
# 3 16.8392 38.1955 98.8769 0.0000 0.0000 0.0000
# 4 0.0000 0.0000 0.0000 -545.2089 0.0000 0.0000
# 5 0.0000 0.0000 0.0000 0.0000 -0.5556 0.0000
# 6 0.0000 0.0000 0.0000 0.0000 0.0000 75.3126
#
#
#
# Elastic Compliance Matrix: (Units=1/GPa)
#
#
# Indices 1 2 3 4 5 6 
#
# 1 0.015072 -0.003989 -0.001026 0.000000 0.000000 0.000000
# 2 -0.003989 0.008789 -0.002716 0.000000 0.000000 0.000000
# 3 -0.001026 -0.002716 0.011337 0.000000 0.000000 0.000000
# 4 0.000000 0.000000 0.000000 -0.001834 0.000000 0.000000
# 5 0.000000 0.000000 0.000000 0.000000 -1.799872 0.000000
# 6 0.000000 0.000000 0.000000 0.000000 0.000000 0.013278
#
#
# Mechanical properties :
#
#
# Convention : Reuss Voigt Hill
#
# Bulk Modulus (GPa) = 50.66682 56.97185 53.81934
# Shear Modulus (GPa) = -2.88819 -79.06036 -40.97427
#
# Velocity S-wave (km/s) = -1.18075 -6.17765 -4.44733
# Velocity P-wave (km/s) = 4.75380 4.83565 0.62646
#
# Compressibility (1/GPa) = 0.01973678
#
# Stress axis : x y z
#
# Youngs Moduli (GPa) = 66.34849 113.77457 88.20365
#
# Poissons Ratio (x) = 0.45388 0.09048
# Poissons Ratio (y) = 0.26468 0.23955
# Poissons Ratio (z) = 0.06806 0.30900
#
# Static dielectric constant tensor:
#      x y z
#    x 3.153880 0.000000 0.000000 
#    y 0.000000 1.783840 0.000000 
#    z 0.000000 0.000000 1.504710 
# 
# From -- ./inp_files/26581.got.cif
#   From: 2010.05.17/outbox.cif.g08.bks.cpg/sg24_14_cif.got.tgz:26581.got - 2010.06.04 00:33:39.
