data_PCOD9334692
_publ_section_title
;
Structure prediction by ZEFSAII (Michael W. Deem and Ramdas Pophale) SiO2 
 PCOD9334692
Probable space group: I 21 21 21
;
_chemical_formula_sum "Si O2"
_cell_formula_units_Z 44
_cell_length_a 9.782626
_cell_length_b 14.765867
_cell_length_c 11.575915
_cell_angle_alpha 90.000000
_cell_angle_beta 90.000000
_cell_angle_gamma 90.000000
_cell_volume 1672.128818
_symmetry_space_group_name_H-M "I 21 21 21"
_symmetry_group_IT_number 24
_symmetry_cell_setting 'orthorhombic'
loop_
_space_group_symop_operation_xyz
x,y,z
-x,1/2-y,z
x,-y,1/2-z
1/2-x,y,-z
1/2+x,1/2+y,1/2+z
1/2-x,-y,1/2+z
1/2+x,1/2-y,-z
-x,1/2+y,1/2-z
loop_
_atom_site_type_symbol
_atom_site_label
_atom_site_fract_x
_atom_site_fract_y
_atom_site_fract_z
Si Si1 0.000000 0.250000 0.068077
Si Si2 0.975309 0.853225 0.789464
Si Si3 0.214696 0.897543 0.221035
Si Si4 0.608140 0.413169 0.954775
Si Si5 0.821307 0.108274 0.229570
Si Si6 0.014320 0.606013 0.052495
O O1 0.066581 0.176319 0.978736
O O2 0.103515 0.325277 0.135590
O O3 0.842168 0.887341 0.722377
O O4 0.000000 0.750000 0.764525
O O5 0.123996 0.898227 0.778839
O O6 0.947623 0.861468 0.926890
O O7 0.149013 0.857498 0.336572
O O8 0.133294 0.866699 0.108261
O O9 0.169459 0.000000 0.250000
O O10 0.502930 0.495843 0.956924
O O11 0.750000 0.453484 0.000000
O O12 0.878506 0.141423 0.353411
O O13 0.853339 0.000000 0.250000
#
# Coordination Sequence:
#
# PCOD9334692 Si02
#       6
#     4   8   8   8   8   8
#     4  12  24  48  72  98 140 194 246 294 366 434
#     4  12  27  40  66 114 144 179 235 296 357 424
#     4  10  20  43  69  94 135 183 230 284 350 420
#     4  11  23  44  71  99 131 187 245 289 352 433
#     4  12  25  48  74 101 147 196 233 302 364 424
#     4  11  22  44  72  98 141 187 236 282 367 428
#
# _framework density 26.313762000000001
#
# number of rings (size 3 to 8) (size 9 to 14) (size 15 to 20)
#    0.000    0.727    3.636    5.455    1.273    1.455 
#    8.182    0.000    0.000    0.000    0.000    0.000 
#    0.000    0.000    0.000    0.000    0.000    0.000 
#
# Total GULP energy -122531.870516 kJ/mol
# GULP energy per Si atom -5569.630478 kJ/mol
# Density = 2.625387 g / cm^3
# Si number density = 26.313762 Si / 1000 Ang^3
#
#
#
# Elastic Constant Matrix: (Units=GPa)
#
#
# Indices 1 2 3 4 5 6 
#
# 1 161.2458 5.2925 0.7729 0.0000 0.0000 0.0000
# 2 5.2925 140.6873 -2.1676 0.0000 0.0000 0.0000
# 3 0.7729 -2.1676 59.1191 0.0000 -0.0001 0.0000
# 4 0.0000 0.0000 0.0000 6.0036 0.0000 0.0000
# 5 0.0000 0.0000 -0.0001 0.0000 64.3161 0.0000
# 6 0.0000 0.0000 0.0000 0.0000 0.0000 -11.2068
#
#
#
# Elastic Compliance Matrix: (Units=1/GPa)
#
#
# Indices 1 2 3 4 5 6 
#
# 1 0.006210 -0.000235 -0.000090 0.000000 0.000000 0.000000
# 2 -0.000235 0.007121 0.000264 0.000000 0.000000 0.000000
# 3 -0.000090 0.000264 0.016926 0.000000 0.000000 0.000000
# 4 0.000000 0.000000 0.000000 0.166566 0.000000 0.000000
# 5 0.000000 0.000000 0.000000 0.000000 0.015548 0.000000
# 6 0.000000 0.000000 0.000000 0.000000 0.000000 -0.089232
#
#
# Mechanical properties :
#
#
# Convention : Reuss Voigt Hill
#
# Bulk Modulus (GPa) = 33.18364 40.98308 37.08336
# Shear Modulus (GPa) = 37.50785 35.63288 36.57036
#
# Velocity S-wave (km/s) = 3.77955 3.68388 3.73202
# Velocity P-wave (km/s) = 5.62893 5.80544 5.71787
#
# Compressibility (1/GPa) = 0.03013533
#
# Stress axis : x y z
#
# Youngs Moduli (GPa) = 161.03430 140.43221 59.08119
#
# Poissons Ratio (x) = 0.03300 0.00531
# Poissons Ratio (y) = 0.03784 -0.01561
# Poissons Ratio (z) = 0.01446 -0.03710
#
# Static dielectric constant tensor:
#      x y z
#    x 2.161930 0.000000 0.000000 
#    y 0.000000 0.025170 0.000000 
#    z 0.000000 0.000000 3.096210 
# 
# From -- ./inp_files/24699.got.cif
#   From: 2010.05.17/outbox.cif.g08.bks.cpg/sg24_13_cif.got.tgz:24699.got - 2010.06.04 00:33:39.
