data_PCOD9334435
_publ_section_title
;
Structure prediction by ZEFSAII (Michael W. Deem and Ramdas Pophale) SiO2 
 PCOD9334435
Probable space group: I 21 21 21
;
_chemical_formula_sum "Si O2"
_cell_formula_units_Z 60
_cell_length_a 30.483517
_cell_length_b 5.401078
_cell_length_c 16.569682
_cell_angle_alpha 90.000000
_cell_angle_beta 90.000000
_cell_angle_gamma 90.000000
_cell_volume 2728.096288
_symmetry_space_group_name_H-M "I 21 21 21"
_symmetry_group_IT_number 24
_symmetry_cell_setting 'orthorhombic'
loop_
_space_group_symop_operation_xyz
x,y,z
-x,1/2-y,z
x,-y,1/2-z
1/2-x,y,-z
1/2+x,1/2+y,1/2+z
1/2-x,-y,1/2+z
1/2+x,1/2-y,-z
-x,1/2+y,1/2-z
loop_
_atom_site_type_symbol
_atom_site_label
_atom_site_fract_x
_atom_site_fract_y
_atom_site_fract_z
Si Si1 0.029283 0.002063 0.161580
Si Si2 0.127641 0.494299 0.490447
Si Si3 0.267324 0.984315 0.654107
Si Si4 0.452239 0.869829 0.014514
Si Si5 0.681304 0.716877 0.110498
Si Si6 0.105997 0.856260 0.623633
Si Si7 0.351366 0.500000 0.250000
Si Si8 0.820544 0.013082 0.344429
O O1 0.000000 0.750000 0.160779
O O2 0.052904 0.000000 0.250000
O O3 0.052331 0.999056 0.073806
O O4 0.000000 0.250000 0.161270
O O5 0.083780 0.347027 0.512189
O O6 0.168619 0.342601 0.527151
O O7 0.126189 0.742950 0.541437
O O8 0.135757 0.519559 0.396727
O O9 0.222165 0.037054 0.608137
O O10 0.298817 0.219940 0.639212
O O11 0.257227 0.000000 0.750000
O O12 0.289180 0.720648 0.635316
O O13 0.500000 0.750000 0.021654
O O14 0.440474 0.045170 0.090780
O O15 0.637381 0.583864 0.142592
O O16 0.683907 0.916986 0.181317
O O17 0.115221 0.668346 0.696165
O O18 0.829961 0.000000 0.250000
#
# Coordination Sequence:
#
# PCOD9334435 Si02
#       8
#     8   8   8   8   8   8   4   8
#     4   9  19  37  61  94 131 162 213 278 336 394
#     4  10  24  43  60  99 132 175 229 276 346 406
#     4  10  22  39  67  94 133 176 229 269 326 402
#     4  10  23  41  66  98 128 177 228 284 349 411
#     4  10  22  39  66 100 131 174 222 285 333 398
#     4  10  22  39  65  98 134 169 225 279 346 409
#     4  10  20  38  68 100 132 172 222 280 348 400
#     4  10  24  44  63  94 139 187 222 272 333 404
#
# _framework density 21.993357
#
# number of rings (size 3 to 8) (size 9 to 14) (size 15 to 20)
#    0.000    2.133    0.000    1.200   14.000    0.533 
#    2.400    0.667    0.000    0.000  124.800    0.000 
#    0.000    0.000    0.000    0.000    0.000    0.000 
#
# Total GULP energy -167263.632125 kJ/mol
# GULP energy per Si atom -5575.454404 kJ/mol
# Density = 2.194330 g / cm^3
# Si number density = 21.993357 Si / 1000 Ang^3
#
#
#
# Elastic Constant Matrix: (Units=GPa)
#
#
# Indices 1 2 3 4 5 6 
#
# 1 47.7389 -0.4187 18.1954 0.0000 0.0000 0.0000
# 2 -0.4187 49.4245 -1.3002 0.0000 0.0000 0.0000
# 3 18.1954 -1.3002 72.9743 0.0000 0.0000 0.0000
# 4 0.0000 0.0000 0.0000 17.1894 0.0000 0.0000
# 5 0.0000 0.0000 0.0000 0.0000 18.8732 0.0000
# 6 0.0000 0.0000 0.0000 0.0000 0.0000 6.4477
#
#
#
# Elastic Compliance Matrix: (Units=1/GPa)
#
#
# Indices 1 2 3 4 5 6 
#
# 1 0.023147 0.000044 -0.005771 0.000000 0.000000 0.000000
# 2 0.000044 0.020242 0.000350 0.000000 0.000000 0.000000
# 3 -0.005771 0.000350 0.015149 0.000000 0.000000 0.000000
# 4 0.000000 0.000000 0.000000 0.058175 0.000000 0.000000
# 5 0.000000 0.000000 0.000000 0.000000 0.052985 0.000000
# 6 0.000000 0.000000 0.000000 0.000000 0.000000 0.155093
#
#
# Mechanical properties :
#
#
# Convention : Reuss Voigt Hill
#
# Bulk Modulus (GPa) = 20.92726 22.56562 21.74644
# Shear Modulus (GPa) = 14.22581 18.74614 16.48597
#
# Velocity S-wave (km/s) = 2.54603 2.92268 2.74083
# Velocity P-wave (km/s) = 4.26368 4.65531 4.46379
#
# Compressibility (1/GPa) = 0.04778457
#
# Stress axis : x y z
#
# Youngs Moduli (GPa) = 43.20186 49.40108 66.01286
#
# Poissons Ratio (x) = -0.00219 0.38094
# Poissons Ratio (y) = -0.00191 -0.02308
# Poissons Ratio (z) = 0.24931 -0.01727
#
# Static dielectric constant tensor:
#      x y z
#    x 1.800400 0.000000 0.000000 
#    y 0.000000 2.153230 0.000000 
#    z 0.000000 0.000000 1.875830 
# 
# From -- ./inp_files/31687.got.cif
#   From: 2010.05.17/outbox.cif.g08.bks.cpg/sg24_16_cif.got.tgz:31687.got - 2010.06.04 00:33:39.
