data_PCOD9334424
_publ_section_title
;
Structure prediction by ZEFSAII (Michael W. Deem and Ramdas Pophale) SiO2 
 PCOD9334424
Probable space group: I 21 21 21
;
_chemical_formula_sum "Si O2"
_cell_formula_units_Z 60
_cell_length_a 24.636024
_cell_length_b 5.315446
_cell_length_c 20.433570
_cell_angle_alpha 90.000000
_cell_angle_beta 90.000000
_cell_angle_gamma 90.000000
_cell_volume 2675.805727
_symmetry_space_group_name_H-M "I 21 21 21"
_symmetry_group_IT_number 24
_symmetry_cell_setting 'orthorhombic'
loop_
_space_group_symop_operation_xyz
x,y,z
-x,1/2-y,z
x,-y,1/2-z
1/2-x,y,-z
1/2+x,1/2+y,1/2+z
1/2-x,-y,1/2+z
1/2+x,1/2-y,-z
-x,1/2+y,1/2-z
loop_
_atom_site_type_symbol
_atom_site_label
_atom_site_fract_x
_atom_site_fract_y
_atom_site_fract_z
Si Si1 0.594600 0.228461 0.440923
Si Si2 0.632241 0.500000 0.750000
Si Si3 0.939180 0.301563 0.011461
Si Si4 0.549005 0.880452 0.815727
Si Si5 0.864792 0.756906 0.377022
Si Si6 0.254127 0.521084 0.578061
Si Si7 0.787706 0.467779 0.564350
Si Si8 0.565689 0.247106 0.289846
O O1 0.555964 0.457718 0.464054
O O2 0.654744 0.344912 0.452949
O O3 0.588201 0.215996 0.362898
O O4 0.582875 0.958560 0.476628
O O5 0.593347 0.690903 0.788145
O O6 0.659691 0.634953 0.688875
O O7 0.000000 0.250000 0.036917
O O8 0.894880 0.393346 0.065498
O O9 0.500000 0.750000 0.853305
O O10 0.523424 0.000000 0.750000
O O11 0.583836 0.078850 0.854514
O O12 0.815535 0.909004 0.406808
O O13 0.250000 0.484864 0.500000
O O14 0.239994 0.250173 0.607580
O O15 0.214374 0.753924 0.595297
O O16 0.750000 0.506375 0.500000
O O17 0.500000 0.250000 0.294931
O O18 0.581605 0.500000 0.250000
O O19 0.581777 0.000000 0.250000
#
# Coordination Sequence:
#
# PCOD9334424 Si02
#       8
#     8   4   8   8   8   8   8   8
#     4  12  24  44  68 101 140 175 228 283 345 412
#     4  10  24  42  66  86 134 178 238 286 342 406
#     4  12  26  39  63 101 145 179 217 284 350 415
#     4  10  21  38  63  91 127 180 232 283 335 409
#     4  11  26  40  66  96 132 179 239 288 354 413
#     4  10  21  40  65  92 122 161 224 281 341 401
#     4  10  20  38  66  92 121 171 219 271 333 398
#     4  10  21  39  67  96 132 177 217 257 322 414
#
# _framework density 22.423152999999999
#
# number of rings (size 3 to 8) (size 9 to 14) (size 15 to 20)
#    0.000    1.333    0.667    6.000    5.600    1.067 
#    0.000    0.000    4.400    0.000    0.000    0.000 
#    0.000    0.000    0.000    0.000    0.000    0.000 
#
# Total GULP energy -167371.114933 kJ/mol
# GULP energy per Si atom -5579.037164 kJ/mol
# Density = 2.237212 g / cm^3
# Si number density = 22.423153 Si / 1000 Ang^3
#
#
#
# Elastic Constant Matrix: (Units=GPa)
#
#
# Indices 1 2 3 4 5 6 
#
# 1 57.7020 -9.5466 15.0218 0.0000 0.0000 0.0000
# 2 -9.5466 112.2505 23.7875 0.0000 0.0000 0.0000
# 3 15.0218 23.7875 99.9466 0.0000 0.0000 0.0000
# 4 0.0000 0.0000 0.0000 14.8372 0.0000 0.0000
# 5 0.0000 0.0000 0.0000 0.0000 82.6096 0.0000
# 6 0.0000 0.0000 0.0000 0.0000 0.0000 40.9030
#
#
#
# Elastic Compliance Matrix: (Units=1/GPa)
#
#
# Indices 1 2 3 4 5 6 
#
# 1 0.018577 0.002287 -0.003336 0.000000 0.000000 0.000000
# 2 0.002287 0.009663 -0.002644 0.000000 0.000000 0.000000
# 3 -0.003336 -0.002644 0.011136 0.000000 0.000000 0.000000
# 4 0.000000 0.000000 0.000000 0.067398 0.000000 0.000000
# 5 0.000000 0.000000 0.000000 0.000000 0.012105 0.000000
# 6 0.000000 0.000000 0.000000 0.000000 0.000000 0.024448
#
#
# Mechanical properties :
#
#
# Convention : Reuss Voigt Hill
#
# Bulk Modulus (GPa) = 31.25924 36.49164 33.87544
# Shear Modulus (GPa) = 30.98323 43.71241 37.34782
#
# Velocity S-wave (km/s) = 3.72122 4.42003 4.08559
# Velocity P-wave (km/s) = 5.69511 6.50832 6.11525
#
# Compressibility (1/GPa) = 0.03199054
#
# Stress axis : x y z
#
# Youngs Moduli (GPa) = 53.82889 103.48354 89.79888
#
# Poissons Ratio (x) = -0.23667 0.29961
# Poissons Ratio (y) = -0.12311 0.23740
# Poissons Ratio (z) = 0.17960 0.27357
#
# Static dielectric constant tensor:
#      x y z
#    x 2.217170 0.000000 0.000000 
#    y 0.000000 1.934130 0.000000 
#    z 0.000000 0.000000 1.890780 
# 
# From -- ./inp_files/34293.got.cif
#   From: 2010.05.17/outbox.cif.g08.bks.cpg/sg24_18_cif.got.tgz:34293.got - 2010.06.04 00:33:39.
