data_PCOD9334306
_publ_section_title
;
Structure prediction by ZEFSAII (Michael W. Deem and Ramdas Pophale) SiO2 
 PCOD9334306
Probable space group: I 21 21 21
;
_chemical_formula_sum "Si O2"
_cell_formula_units_Z 28
_cell_length_a 11.398181
_cell_length_b 7.181404
_cell_length_c 13.156101
_cell_angle_alpha 90.000000
_cell_angle_beta 90.000000
_cell_angle_gamma 90.000000
_cell_volume 1076.891893
_symmetry_space_group_name_H-M "I 21 21 21"
_symmetry_group_IT_number 24
_symmetry_cell_setting 'orthorhombic'
loop_
_space_group_symop_operation_xyz
x,y,z
-x,1/2-y,z
x,-y,1/2-z
1/2-x,y,-z
1/2+x,1/2+y,1/2+z
1/2-x,-y,1/2+z
1/2+x,1/2-y,-z
-x,1/2+y,1/2-z
loop_
_atom_site_type_symbol
_atom_site_label
_atom_site_fract_x
_atom_site_fract_y
_atom_site_fract_z
Si Si1 0.382430 0.046256 0.040862
Si Si2 0.297648 0.627897 0.338929
Si Si3 0.955739 0.040663 0.131947
Si Si4 0.316709 0.000000 0.250000
O O1 0.378376 0.269136 0.077391
O O2 0.391727 0.951324 0.150816
O O3 0.250000 0.020738 0.000000
O O4 0.466253 0.955866 0.957477
O O5 0.350662 0.500000 0.250000
O O6 0.184088 0.523916 0.381832
O O7 0.247934 0.815372 0.282396
O O8 0.000000 0.250000 0.118162
O O9 0.979528 0.000000 0.250000
#
# Coordination Sequence:
#
# PCOD9334306 Si02
#       4
#     8   8   8   4
#     4  10  20  37  65  93 130 171 211 275 329 377
#     4   9  20  40  68  94 124 168 222 266 320 387
#     4  11  22  37  65  98 126 169 217 274 321 379
#     4   8  20  40  70  90 130 178 212 264 332 398
#
# _framework density 26.000753
#
# number of rings (size 3 to 8) (size 9 to 14) (size 15 to 20)
#    1.714    0.571    2.857    0.000    8.000    0.000 
#    0.000    4.286    3.143    1.714   18.571    0.000 
#    0.000    0.000    0.000    0.000    0.000    0.000 
#
# Total GULP energy -77959.265521 kJ/mol
# GULP energy per Si atom -5568.518966 kJ/mol
# Density = 2.594157 g / cm^3
# Si number density = 26.000753 Si / 1000 Ang^3
#
#
#
# Elastic Constant Matrix: (Units=GPa)
#
#
# Indices 1 2 3 4 5 6 
#
# 1 160.4367 12.1311 96.9005 0.0000 0.0000 0.0000
# 2 12.1311 63.9702 13.0879 0.0000 0.0000 0.0000
# 3 96.9005 13.0879 238.0413 0.0000 0.0000 0.0000
# 4 0.0000 0.0000 0.0000 50.7856 0.0000 0.0000
# 5 0.0000 0.0000 0.0000 0.0000 41.9639 0.0000
# 6 0.0000 0.0000 0.0000 0.0000 0.0000 10.1257
#
#
#
# Elastic Compliance Matrix: (Units=1/GPa)
#
#
# Indices 1 2 3 4 5 6 
#
# 1 0.008315 -0.000894 -0.003336 0.000000 0.000000 0.000000
# 2 -0.000894 0.015906 -0.000510 0.000000 0.000000 0.000000
# 3 -0.003336 -0.000510 0.005587 0.000000 0.000000 0.000000
# 4 0.000000 0.000000 0.000000 0.019691 0.000000 0.000000
# 5 0.000000 0.000000 0.000000 0.000000 0.023830 0.000000
# 6 0.000000 0.000000 0.000000 0.000000 0.000000 0.098758
#
#
# Mechanical properties :
#
#
# Convention : Reuss Voigt Hill
#
# Bulk Modulus (GPa) = 49.19493 78.52079 63.85786
# Shear Modulus (GPa) = 26.54707 43.26364 34.90535
#
# Velocity S-wave (km/s) = 3.19879 4.08356 3.66795
# Velocity P-wave (km/s) = 5.71005 7.24562 6.52318
#
# Compressibility (1/GPa) = 0.02032730
#
# Stress axis : x y z
#
# Youngs Moduli (GPa) = 120.25916 62.86803 178.98898
#
# Poissons Ratio (x) = 0.05623 0.59707
# Poissons Ratio (y) = 0.10756 0.09137
# Poissons Ratio (z) = 0.40116 0.03209
#
# Static dielectric constant tensor:
#      x y z
#    x 2.216910 0.000000 0.000000 
#    y 0.000000 2.085810 0.000000 
#    z 0.000000 0.000000 2.179690 
# 
# From -- ./inp_files/26192.got.cif
#   From: 2010.05.17/outbox.cif.g08.bks.cpg/sg24_14_cif.got.tgz:26192.got - 2010.06.04 00:33:39.
