data_PCOD9334095
_publ_section_title
;
Structure prediction by ZEFSAII (Michael W. Deem and Ramdas Pophale) SiO2 
 PCOD9334095
Probable space group: I 21 21 21
;
_chemical_formula_sum "Si O2"
_cell_formula_units_Z 32
_cell_length_a 14.640990
_cell_length_b 18.318872
_cell_length_c 4.932526
_cell_angle_alpha 90.000000
_cell_angle_beta 90.000000
_cell_angle_gamma 90.000000
_cell_volume 1322.935149
_symmetry_space_group_name_H-M "I 21 21 21"
_symmetry_group_IT_number 24
_symmetry_cell_setting 'orthorhombic'
loop_
_space_group_symop_operation_xyz
x,y,z
-x,1/2-y,z
x,-y,1/2-z
1/2-x,y,-z
1/2+x,1/2+y,1/2+z
1/2-x,-y,1/2+z
1/2+x,1/2-y,-z
-x,1/2+y,1/2-z
loop_
_atom_site_type_symbol
_atom_site_label
_atom_site_fract_x
_atom_site_fract_y
_atom_site_fract_z
Si Si1 0.846379 0.329723 0.413685
Si Si2 0.134299 0.272344 0.920494
Si Si3 0.976780 0.890564 0.316894
Si Si4 0.365317 0.425125 0.289935
O O1 0.750000 0.363830 0.500000
O O2 0.824442 0.273537 0.169216
O O3 0.922879 0.385065 0.306146
O O4 0.882426 0.281895 0.668499
O O5 0.048264 0.311307 0.065478
O O6 0.178517 0.347578 0.798903
O O7 0.950679 0.936813 0.580019
O O8 0.904888 0.910952 0.085542
O O9 0.310299 0.500000 0.250000
#
# Coordination Sequence:
#
# PCOD9334095 Si02
#       4
#     8   8   8   8
#     4  12  23  36  55  90 124 149 180 236 303 356
#     4  10  21  35  58  83 115 149 193 237 285 342
#     4  10  21  34  60  84 116 145 193 237 287 338
#     4  10  20  35  60  86 108 144 204 246 273 324
#
# _framework density 24.188638000000001
#
# number of rings (size 3 to 8) (size 9 to 14) (size 15 to 20)
#    1.500    0.000    2.500    3.750    3.500    0.000 
#    0.000    0.000    0.000    6.000    0.000    0.000 
#    0.000    0.000    0.000    0.000    0.000    0.000 
#
# Total GULP energy -89192.082952 kJ/mol
# GULP energy per Si atom -5574.505184 kJ/mol
# Density = 2.413358 g / cm^3
# Si number density = 24.188638 Si / 1000 Ang^3
#
#
#
# Elastic Constant Matrix: (Units=GPa)
#
#
# Indices 1 2 3 4 5 6 
#
# 1 75.0513 -6.2064 32.4789 0.0000 0.0000 0.0000
# 2 -6.2064 58.1838 22.7018 0.0000 0.0000 0.0000
# 3 32.4789 22.7018 182.2437 0.0000 0.0000 0.0000
# 4 0.0000 0.0000 0.0000 4.6148 0.0000 0.0000
# 5 0.0000 0.0000 0.0000 0.0000 45.7322 0.0000
# 6 0.0000 0.0000 0.0000 0.0000 0.0000 -12.9680
#
#
#
# Elastic Compliance Matrix: (Units=1/GPa)
#
#
# Indices 1 2 3 4 5 6 
#
# 1 0.014845 0.002749 -0.002988 0.000000 0.000000 0.000000
# 2 0.002749 0.018574 -0.002804 0.000000 0.000000 0.000000
# 3 -0.002988 -0.002804 0.006369 0.000000 0.000000 0.000000
# 4 0.000000 0.000000 0.000000 0.216694 0.000000 0.000000
# 5 0.000000 0.000000 0.000000 0.000000 0.021866 0.000000
# 6 0.000000 0.000000 0.000000 0.000000 0.000000 -0.077113
#
#
# Mechanical properties :
#
#
# Convention : Reuss Voigt Hill
#
# Bulk Modulus (GPa) = 29.67110 45.93638 37.80374
# Shear Modulus (GPa) = 22.87755 25.24276 24.06015
#
# Velocity S-wave (km/s) = 3.07872 3.23395 3.15729
# Velocity P-wave (km/s) = 4.99311 5.74254 5.38089
#
# Compressibility (1/GPa) = 0.03370283
#
# Stress axis : x y z
#
# Youngs Moduli (GPa) = 67.36424 53.83832 157.01214
#
# Poissons Ratio (x) = -0.14802 0.46916
# Poissons Ratio (y) = -0.18521 0.44022
# Poissons Ratio (z) = 0.20129 0.15095
#
# Static dielectric constant tensor:
#      x y z
#    x 2.112270 0.000000 0.000000 
#    y 0.000000 2.003920 0.000000 
#    z 0.000000 0.000000 1.892360 
# 
# From -- ./inp_files/3084.got.cif
#   From: 2010.05.17/outbox.cif.g08.bks.cpg/sg24_2_cif.got.tgz:3084.got - 2010.06.04 00:33:39.
