data_PCOD9334555
_publ_section_title
;
Structure prediction by ZEFSAII (Michael W. Deem and Ramdas Pophale) SiO2 
 PCOD9334555
Probable space group: I 21 21 21
;
_chemical_formula_sum "Si O2"
_cell_formula_units_Z 60
_cell_length_a 18.232730
_cell_length_b 5.965410
_cell_length_c 26.582471
_cell_angle_alpha 90.000000
_cell_angle_beta 90.000000
_cell_angle_gamma 90.000000
_cell_volume 2891.261328
_symmetry_space_group_name_H-M "I 21 21 21"
_symmetry_group_IT_number 24
_symmetry_cell_setting 'orthorhombic'
loop_
_space_group_symop_operation_xyz
x,y,z
-x,1/2-y,z
x,-y,1/2-z
1/2-x,y,-z
1/2+x,1/2+y,1/2+z
1/2-x,-y,1/2+z
1/2+x,1/2-y,-z
-x,1/2+y,1/2-z
loop_
_atom_site_type_symbol
_atom_site_label
_atom_site_fract_x
_atom_site_fract_y
_atom_site_fract_z
Si Si1 0.500000 0.250000 0.877929
Si Si2 0.179194 0.310072 0.880671
Si Si3 0.866926 0.564897 0.803592
Si Si4 0.067910 0.414907 0.307231
Si Si5 0.965373 0.493058 0.025672
Si Si6 0.080443 0.313290 0.604773
Si Si7 0.231400 0.620405 0.195484
Si Si8 0.816726 0.526270 0.965748
O O1 0.440824 0.370133 0.843017
O O2 0.532419 0.439035 0.914942
O O3 0.104901 0.432982 0.898661
O O4 0.235723 0.471874 0.850825
O O5 0.149571 0.146777 0.837799
O O6 0.208473 0.179970 0.929836
O O7 0.899106 0.500000 0.750000
O O8 0.913821 0.733209 0.837604
O O9 0.788204 0.680354 0.796766
O O10 0.062951 0.500000 0.250000
O O11 0.148034 0.310404 0.315616
O O12 0.000000 0.250000 0.316075
O O13 0.000000 0.750000 0.019216
O O14 0.884355 0.484719 0.003122
O O15 0.000000 0.250000 0.005798
O O16 0.145524 0.192570 0.574209
O O17 0.000000 0.250000 0.586432
O O18 0.230499 0.500000 0.250000
O O19 0.750000 0.609077 0.000000
#
# Coordination Sequence:
#
# PCOD9334555 Si02
#       8
#     4   8   8   8   8   8   8   8
#     4  10  24  44  66  96 136 184 238 302 348 432
#     4  10  23  42  66 102 134 172 232 284 352 433
#     4  10  20  40  63  99 136 178 228 277 348 435
#     4  11  23  40  61  98 138 187 246 296 356 430
#     4  10  25  48  74 101 138 192 238 305 371 442
#     4  10  24  44  68  98 138 179 229 293 356 431
#     4  10  21  38  67  92 138 188 224 289 357 421
#     4  11  26  44  70 103 134 184 238 306 363 437
#
# _framework density 20.752186999999999
#
# number of rings (size 3 to 8) (size 9 to 14) (size 15 to 20)
#    0.400    1.333    2.000    0.800    5.600    3.733 
#   14.400    0.000    0.000    0.000    0.000    0.000 
#    0.000    0.000    0.000    0.000    0.000    0.000 
#
# Total GULP energy -167070.014170 kJ/mol
# GULP energy per Si atom -5569.000472 kJ/mol
# Density = 2.070495 g / cm^3
# Si number density = 20.752187 Si / 1000 Ang^3
#
#
#
# Elastic Constant Matrix: (Units=GPa)
#
#
# Indices 1 2 3 4 5 6 
#
# 1 103.7934 30.0410 24.4214 0.0000 0.0000 0.0000
# 2 30.0410 70.4857 18.2913 0.0000 0.0000 0.0000
# 3 24.4214 18.2913 123.8014 0.0000 0.0000 0.0000
# 4 0.0000 0.0000 0.0000 -111.3556 0.0000 0.0000
# 5 0.0000 0.0000 0.0000 0.0000 -9.1732 0.0000
# 6 0.0000 0.0000 0.0000 0.0000 0.0000 9.1285
#
#
#
# Elastic Compliance Matrix: (Units=1/GPa)
#
#
# Indices 1 2 3 4 5 6 
#
# 1 0.011278 -0.004398 -0.001575 0.000000 0.000000 0.000000
# 2 -0.004398 0.016468 -0.001566 0.000000 0.000000 0.000000
# 3 -0.001575 -0.001566 0.008619 0.000000 0.000000 0.000000
# 4 0.000000 0.000000 0.000000 -0.008980 0.000000 0.000000
# 5 0.000000 0.000000 0.000000 0.000000 -0.109014 0.000000
# 6 0.000000 0.000000 0.000000 0.000000 0.000000 0.109547
#
#
# Mechanical properties :
#
#
# Convention : Reuss Voigt Hill
#
# Bulk Modulus (GPa) = 46.97378 49.28756 48.13067
# Shear Modulus (GPa) = 99.81670 -7.25826 46.27922
#
# Velocity S-wave (km/s) = 6.94289 -1.87221 4.72750
# Velocity P-wave (km/s) = 9.32504 4.37362 7.28303
#
# Compressibility (1/GPa) = 0.02128847
#
# Stress axis : x y z
#
# Youngs Moduli (GPa) = 88.66824 60.72403 116.01691
#
# Poissons Ratio (x) = 0.26706 0.18272
# Poissons Ratio (y) = 0.38996 0.18163
# Poissons Ratio (z) = 0.13965 0.09507
#
# Static dielectric constant tensor:
#      x y z
#    x 1.718440 0.000000 0.000000 
#    y 0.000000 1.786340 0.000000 
#    z 0.000000 0.000000 1.772880 
# 
# From -- ./inp_files/37542.got.cif
#   From: 2010.05.17/outbox.cif.g08.bks.cpg/sg24_19_cif.got.tgz:37542.got - 2010.06.04 00:33:39.
