data_PCOD9334278
_publ_section_title
;
Structure prediction by ZEFSAII (Michael W. Deem and Ramdas Pophale) SiO2 
 PCOD9334278
Probable space group: I 21 21 21
;
_chemical_formula_sum "Si O2"
_cell_formula_units_Z 56
_cell_length_a 15.801848
_cell_length_b 15.032781
_cell_length_c 11.239114
_cell_angle_alpha 90.000000
_cell_angle_beta 90.000000
_cell_angle_gamma 90.000000
_cell_volume 2669.803432
_symmetry_space_group_name_H-M "I 21 21 21"
_symmetry_group_IT_number 24
_symmetry_cell_setting 'orthorhombic'
loop_
_space_group_symop_operation_xyz
x,y,z
-x,1/2-y,z
x,-y,1/2-z
1/2-x,y,-z
1/2+x,1/2+y,1/2+z
1/2-x,-y,1/2+z
1/2+x,1/2-y,-z
-x,1/2+y,1/2-z
loop_
_atom_site_type_symbol
_atom_site_label
_atom_site_fract_x
_atom_site_fract_y
_atom_site_fract_z
Si Si1 0.787708 0.275241 0.817426
Si Si2 0.197021 0.593045 0.805065
Si Si3 0.031050 0.384207 0.990201
Si Si4 0.927055 0.401627 0.743278
Si Si5 0.123991 0.798931 0.434486
Si Si6 0.885763 0.040518 0.375819
Si Si7 0.542146 0.154955 0.457315
O O1 0.793504 0.169355 0.795584
O O2 0.853060 0.328284 0.734100
O O3 0.688111 0.296198 0.824370
O O4 0.823818 0.307935 0.943430
O O5 0.164690 0.500000 0.750000
O O6 0.287684 0.568526 0.862731
O O7 0.133731 0.638337 0.898108
O O8 0.080069 0.296035 0.035304
O O9 0.090857 0.466612 0.024278
O O10 0.944818 0.376968 0.067123
O O11 0.993611 0.380953 0.853618
O O12 0.889088 0.500000 0.750000
O O13 0.980963 0.403985 0.623341
O O14 0.943817 0.123580 0.409193
O O15 0.908878 0.000000 0.250000
O O16 0.500000 0.250000 0.448366
#
# Coordination Sequence:
#
# PCOD9334278 Si02
#       7
#     8   8   8   8   8   8   8
#     4  10  20  37  61  98 136 173 226 281 343 402
#     4  11  23  39  66 102 141 174 222 285 345 411
#     4  10  20  38  64  97 130 174 224 275 342 409
#     4  11  21  39  70 100 132 174 231 291 342 396
#     4   9  19  34  61  94 132 171 214 280 338 393
#     4  11  25  44  62  94 135 181 231 271 334 417
#     4  12  24  43  68  96 137 180 221 289 351 411
#
# _framework density 20.975328000000001
#
# number of rings (size 3 to 8) (size 9 to 14) (size 15 to 20)
#    0.000    1.429    2.857    3.429    4.000    0.000 
#    5.143    0.714    0.000    0.000    0.000    0.000 
#    0.000    0.000    0.000    0.000    0.000    0.000 
#
# Total GULP energy -155989.560095 kJ/mol
# GULP energy per Si atom -5571.055718 kJ/mol
# Density = 2.092759 g / cm^3
# Si number density = 20.975328 Si / 1000 Ang^3
#
#
#
# Elastic Constant Matrix: (Units=GPa)
#
#
# Indices 1 2 3 4 5 6 
#
# 1 110.8799 45.6156 34.9179 0.0000 0.0000 0.0000
# 2 45.6156 98.9792 15.2473 0.0000 0.0000 0.0000
# 3 34.9179 15.2473 60.6581 0.0000 0.0000 0.0000
# 4 0.0000 0.0000 0.0000 -9.3280 0.0000 0.0000
# 5 0.0000 0.0000 0.0000 0.0000 32.0858 0.0000
# 6 0.0000 0.0000 0.0000 0.0000 0.0000 31.1002
#
#
#
# Elastic Compliance Matrix: (Units=1/GPa)
#
#
# Indices 1 2 3 4 5 6 
#
# 1 0.013069 -0.005060 -0.006251 0.000000 0.000000 0.000000
# 2 -0.005060 0.012469 -0.000221 0.000000 0.000000 0.000000
# 3 -0.006251 -0.000221 0.020140 0.000000 0.000000 0.000000
# 4 0.000000 0.000000 0.000000 -0.107204 0.000000 0.000000
# 5 0.000000 0.000000 0.000000 0.000000 0.031166 0.000000
# 6 0.000000 0.000000 0.000000 0.000000 0.000000 0.032154
#
#
# Mechanical properties :
#
#
# Convention : Reuss Voigt Hill
#
# Bulk Modulus (GPa) = 44.22295 51.34209 47.78252
# Shear Modulus (GPa) = 154.33011 22.42069 88.37540
#
# Velocity S-wave (km/s) = 8.58701 3.27296 6.49804
# Velocity P-wave (km/s) = 10.92908 6.23005 8.89546
#
# Compressibility (1/GPa) = 0.02261269
#
# Stress axis : x y z
#
# Youngs Moduli (GPa) = 76.51633 80.19741 49.65214
#
# Poissons Ratio (x) = 0.40580 0.31039
# Poissons Ratio (y) = 0.38718 0.01100
# Poissons Ratio (z) = 0.47833 0.01776
#
# Static dielectric constant tensor:
#      x y z
#    x 1.820660 0.000000 0.000000 
#    y 0.000000 1.791120 0.000000 
#    z 0.000000 0.000000 2.063620 
# 
# From -- ./inp_files/20871.got.cif
#   From: 2010.05.17/outbox.cif.g08.bks.cpg/sg24_11_cif.got.tgz:20871.got - 2010.06.04 00:33:39.
