data_PCOD9334656
_publ_section_title
;
Structure prediction by ZEFSAII (Michael W. Deem and Ramdas Pophale) SiO2 
 PCOD9334656
Probable space group: I 21 21 21
;
_chemical_formula_sum "Si O2"
_cell_formula_units_Z 40
_cell_length_a 7.809599
_cell_length_b 24.245174
_cell_length_c 10.385642
_cell_angle_alpha 90.000000
_cell_angle_beta 90.000000
_cell_angle_gamma 90.000000
_cell_volume 1966.470284
_symmetry_space_group_name_H-M "I 21 21 21"
_symmetry_group_IT_number 24
_symmetry_cell_setting 'orthorhombic'
loop_
_space_group_symop_operation_xyz
x,y,z
-x,1/2-y,z
x,-y,1/2-z
1/2-x,y,-z
1/2+x,1/2+y,1/2+z
1/2-x,-y,1/2+z
1/2+x,1/2-y,-z
-x,1/2+y,1/2-z
loop_
_atom_site_type_symbol
_atom_site_label
_atom_site_fract_x
_atom_site_fract_y
_atom_site_fract_z
Si Si1 0.806971 0.723750 0.267849
Si Si2 0.250000 0.181800 0.500000
Si Si3 0.099735 0.003181 0.100237
Si Si4 0.994232 0.373159 0.133482
Si Si5 0.250000 0.702225 0.500000
Si Si6 0.918225 0.889670 0.080914
O O1 0.727434 0.718758 0.127275
O O2 0.718313 0.760383 0.375414
O O3 0.000000 0.750000 0.254931
O O4 0.827984 0.661674 0.323727
O O5 0.416991 0.144053 0.528095
O O6 0.035280 0.065508 0.084835
O O7 0.157049 0.000000 0.250000
O O8 0.250000 0.992951 0.000000
O O9 0.962736 0.954787 0.078132
O O10 0.100572 0.375789 0.267594
O O11 0.090715 0.336461 0.030427
O O12 0.750000 0.877026 0.000000
#
# Coordination Sequence:
#
# PCOD9334656 Si02
#       6
#     8   4   8   8   4   8
#     4   9  20  41  63  89 128 167 221 264 313 383
#     4  10  20  44  71  92 131 172 208 276 320 366
#     4  10  21  41  67  94 132 169 211 265 322 389
#     4   9  21  40  61  88 135 168 206 275 316 375
#     4  10  20  42  59  88 129 174 208 264 326 372
#     4  10  21  42  67 100 132 165 215 265 321 392
#
# _framework density 20.341013
#
# number of rings (size 3 to 8) (size 9 to 14) (size 15 to 20)
#    0.000    2.400    1.000    0.000    2.800    0.000 
#   30.600    0.000    0.000    0.000    0.000    0.000 
#    0.000    0.000    0.000    0.000    0.000    0.000 
#
# Total GULP energy -111662.591957 kJ/mol
# GULP energy per Si atom -5583.129598 kJ/mol
# Density = 2.029472 g / cm^3
# Si number density = 20.341013 Si / 1000 Ang^3
#
#
#
# Elastic Constant Matrix: (Units=GPa)
#
#
# Indices 1 2 3 4 5 6 
#
# 1 65.4731 17.9788 49.0018 -0.0001 0.0002 -0.0002
# 2 17.9788 124.3170 59.9290 0.0000 0.0000 0.0000
# 3 49.0018 59.9290 115.7663 0.0003 -0.0010 0.0019
# 4 -0.0001 0.0000 0.0003 26.0689 0.0000 -0.0001
# 5 0.0002 0.0000 -0.0010 0.0000 34.0585 0.0003
# 6 -0.0002 0.0000 0.0019 -0.0001 0.0003 10.9184
#
#
#
# Elastic Compliance Matrix: (Units=1/GPa)
#
#
# Indices 1 2 3 4 5 6 
#
# 1 0.022652 0.001794 -0.010517 0.000000 0.000000 0.000002
# 2 0.001794 0.010861 -0.006382 0.000000 0.000000 0.000001
# 3 -0.010517 -0.006382 0.016393 0.000000 0.000001 -0.000003
# 4 0.000000 0.000000 0.000000 0.038360 0.000000 0.000000
# 5 0.000000 0.000000 0.000001 0.000000 0.029361 -0.000001
# 6 0.000002 0.000001 -0.000003 0.000000 -0.000001 0.091588
#
#
# Mechanical properties :
#
#
# Convention : Reuss Voigt Hill
#
# Bulk Modulus (GPa) = 50.76950 62.15284 56.46117
# Shear Modulus (GPa) = 20.32599 26.11894 23.22247
#
# Velocity S-wave (km/s) = 3.16454 3.58726 3.38251
# Velocity P-wave (km/s) = 6.19401 6.91228 6.56298
#
# Compressibility (1/GPa) = 0.01969686
#
# Stress axis : x y z
#
# Youngs Moduli (GPa) = 44.14638 92.07317 61.00055
#
# Poissons Ratio (x) = -0.16517 0.64153
# Poissons Ratio (y) = -0.07919 0.38929
# Poissons Ratio (z) = 0.46428 0.58758
#
# Static dielectric constant tensor:
#      x y z
#    x 1.732820 0.000000 0.000000 
#    y 0.000000 1.756800 0.000000 
#    z 0.000000 0.000000 1.724360 
# 
# From -- ./inp_files/9308.got.cif
#   From: 2010.05.17/outbox.cif.g08.bks.cpg/sg24_5_cif.got.tgz:9308.got - 2010.06.04 00:33:39.
