data_PCOD9334841
_publ_section_title
;
Structure prediction by ZEFSAII (Michael W. Deem and Ramdas Pophale) SiO2 
 PCOD9334841
Probable space group: I 21 21 21
;
_chemical_formula_sum "Si O2"
_cell_formula_units_Z 64
_cell_length_a 8.347898
_cell_length_b 31.875749
_cell_length_c 12.263531
_cell_angle_alpha 90.000000
_cell_angle_beta 90.000000
_cell_angle_gamma 90.000000
_cell_volume 3263.270429
_symmetry_space_group_name_H-M "I 21 21 21"
_symmetry_group_IT_number 24
_symmetry_cell_setting 'orthorhombic'
loop_
_space_group_symop_operation_xyz
x,y,z
-x,1/2-y,z
x,-y,1/2-z
1/2-x,y,-z
1/2+x,1/2+y,1/2+z
1/2-x,-y,1/2+z
1/2+x,1/2-y,-z
-x,1/2+y,1/2-z
loop_
_atom_site_type_symbol
_atom_site_label
_atom_site_fract_x
_atom_site_fract_y
_atom_site_fract_z
Si Si1 0.941989 0.182041 0.500000
Si Si2 0.056332 0.124378 0.874401
Si Si3 0.558798 0.705372 0.237412
Si Si4 0.556332 0.375622 0.874402
Si Si5 0.555998 0.047547 0.729533
Si Si6 0.441202 0.794628 0.762588
Si Si7 0.444983 0.415012 0.500000
Si Si8 0.555998 0.952453 0.229533
O O1 0.750000 0.184230 0.500000
O O2 0.994126 0.133382 0.500000
O O3 0.003740 0.201536 0.612109
O O4 0.003740 0.201536 0.387891
O O5 0.999631 0.164786 0.804805
O O6 0.250000 0.125027 0.873392
O O7 0.000826 0.081598 0.817155
O O8 0.003011 0.126683 1.000000
O O9 0.500000 0.750000 0.282143
O O10 0.750000 0.704959 0.240050
O O11 0.500826 0.418402 0.817155
O O12 0.499631 0.335214 0.804805
O O13 0.501166 0.062739 0.610348
O O14 0.750000 0.047711 0.730763
O O15 0.502150 0.000000 0.750000
O O16 0.500000 0.750000 0.717857
O O17 0.250000 0.415670 0.500000
O O18 0.498834 0.437261 0.389652
O O19 0.502150 0.000000 0.250000
#
# Coordination Sequence:
#
# PCOD9334841 Si02
#       8
#     8   8   8   8   8   8   8   8
#     4  11  20  36  61  87 120 154 190 237 289 343
#     4  10  23  42  60  82 117 155 193 239 289 343
#     4  11  23  39  60  86 116 151 193 239 291 347
#     4  10  23  42  60  82 117 155 193 239 289 343
#     4  10  21  37  61  90 119 152 193 239 288 339
#     4  11  23  39  60  86 116 151 193 239 291 347
#     4   9  18  34  56  87 121 150 185 237 288 333
#     4  10  21  37  61  90 119 152 193 239 288 339
#
# _framework density 19.612227000000001
#
# number of rings (size 3 to 8) (size 9 to 14) (size 15 to 20)
#    0.000    1.750    2.500    1.500    1.750    2.500 
#    0.000    0.625    0.000    0.000    0.000    0.000 
#    0.000    0.000    0.000    0.000    0.000    0.000 
#
# Total GULP energy -178779.619024 kJ/mol
# GULP energy per Si atom -5586.863094 kJ/mol
# Density = 1.956759 g / cm^3
# Si number density = 19.612227 Si / 1000 Ang^3
#
#
#
# Elastic Constant Matrix: (Units=GPa)
#
#
# Indices 1 2 3 4 5 6 
#
# 1 22.2885 22.2709 15.8025 0.0008 0.0000 0.0000
# 2 22.2709 199.9227 86.1101 0.0003 -0.0001 0.0000
# 3 15.8025 86.1101 149.0438 0.0067 -0.0005 0.0000
# 4 0.0008 0.0003 0.0067 113.5153 0.0041 0.0003
# 5 0.0000 -0.0001 -0.0005 0.0041 4.8482 -0.0001
# 6 0.0000 0.0000 0.0000 0.0003 -0.0001 28.1908
#
#
#
# Elastic Compliance Matrix: (Units=1/GPa)
#
#
# Indices 1 2 3 4 5 6 
#
# 1 0.051379 -0.004496 -0.002850 0.000000 0.000000 0.000000
# 2 -0.004496 0.007052 -0.003598 0.000000 0.000000 0.000000
# 3 -0.002850 -0.003598 0.009090 -0.000001 0.000001 0.000000
# 4 0.000000 0.000000 -0.000001 0.008809 -0.000007 0.000000
# 5 0.000000 0.000000 0.000001 -0.000007 0.206261 0.000001
# 6 0.000000 0.000000 0.000000 0.000000 0.000001 0.035473
#
#
# Mechanical properties :
#
#
# Convention : Reuss Voigt Hill
#
# Bulk Modulus (GPa) = 21.91333 68.84689 45.38011
# Shear Modulus (GPa) = 14.07799 45.78229 29.93014
#
# Velocity S-wave (km/s) = 2.68212 4.83678 3.91077
# Velocity P-wave (km/s) = 4.55952 8.14695 6.60159
#
# Compressibility (1/GPa) = 0.04563433
#
# Stress axis : x y z
#
# Youngs Moduli (GPa) = 19.46311 141.79500 110.00783
#
# Poissons Ratio (x) = 0.63751 0.31352
# Poissons Ratio (y) = 0.08751 0.39579
# Poissons Ratio (z) = 0.05547 0.51016
#
# Static dielectric constant tensor:
#      x y z
#    x 1.678510 0.000000 0.000000 
#    y 0.000000 1.682410 0.000000 
#    z 0.000000 0.000000 1.664540 
# 
# From -- ./inp_files/18921.got.cif
#   From: 2010.05.17/outbox.cif.g08.bks.cpg/sg24_10_cif.got.tgz:18921.got - 2010.06.04 00:33:39.
