data_PCOD9334228
_publ_section_title
;
Structure prediction by ZEFSAII (Michael W. Deem and Ramdas Pophale) SiO2 
 PCOD9334228
Probable space group: I 21 21 21
;
_chemical_formula_sum "Si O2"
_cell_formula_units_Z 40
_cell_length_a 7.739996
_cell_length_b 22.336700
_cell_length_c 11.153499
_cell_angle_alpha 90.000000
_cell_angle_beta 90.000000
_cell_angle_gamma 90.000000
_cell_volume 1928.283478
_symmetry_space_group_name_H-M "I 21 21 21"
_symmetry_group_IT_number 24
_symmetry_cell_setting 'orthorhombic'
loop_
_space_group_symop_operation_xyz
x,y,z
-x,1/2-y,z
x,-y,1/2-z
1/2-x,y,-z
1/2+x,1/2+y,1/2+z
1/2-x,-y,1/2+z
1/2+x,1/2-y,-z
-x,1/2+y,1/2-z
loop_
_atom_site_type_symbol
_atom_site_label
_atom_site_fract_x
_atom_site_fract_y
_atom_site_fract_z
Si Si1 0.038902 0.679058 0.251236
Si Si2 0.250000 0.476584 0.000000
Si Si3 0.457350 0.679990 0.008747
Si Si4 0.862150 0.000000 0.750000
Si Si5 0.561983 0.384284 0.989537
Si Si6 0.559310 0.135953 0.235630
O O1 0.977645 0.655958 0.119882
O O2 0.242237 0.660451 0.264819
O O3 0.000000 0.750000 0.250731
O O4 0.947180 0.652132 0.366697
O O5 0.263302 0.511463 0.124688
O O6 0.413206 0.433506 0.983397
O O7 0.500000 0.750000 0.012232
O O8 0.250000 0.672619 0.000000
O O9 0.517605 0.654795 0.136386
O O10 0.953345 0.063559 0.768695
O O11 0.525149 0.345055 0.109407
O O12 0.750000 0.412335 0.000000
#
# Coordination Sequence:
#
# PCOD9334228 Si02
#       6
#     8   4   8   4   8   8
#     4  10  20  37  58  89 125 163 209 257 312 377
#     4  10  22  42  62  92 124 158 216 260 314 376
#     4   9  20  35  58  85 125 161 205 257 311 374
#     4  10  20  36  70  86 120 168 208 260 314 372
#     4  11  22  39  61  89 127 162 208 262 310 370
#     4  10  21  39  62  94 125 164 218 255 319 380
#
# _framework density 20.743836999999999
#
# number of rings (size 3 to 8) (size 9 to 14) (size 15 to 20)
#    0.000    2.000    4.000    0.000    4.200    7.200 
#    0.000    4.000    0.000    4.800    0.000    0.000 
#    0.000    0.000    0.000    0.000    0.000    0.000 
#
# Total GULP energy -111375.904272 kJ/mol
# GULP energy per Si atom -5568.795214 kJ/mol
# Density = 2.069662 g / cm^3
# Si number density = 20.743837 Si / 1000 Ang^3
#
#
#
# Elastic Constant Matrix: (Units=GPa)
#
#
# Indices 1 2 3 4 5 6 
#
# 1 68.8801 4.3870 -1.9236 0.0000 0.0001 0.0000
# 2 4.3870 52.7412 23.3563 0.0000 0.0000 0.0000
# 3 -1.9236 23.3563 215.0223 0.0002 0.0002 -0.0001
# 4 0.0000 0.0000 0.0002 38.0737 0.0000 0.0000
# 5 0.0001 0.0000 0.0002 0.0000 -26.8502 0.0000
# 6 0.0000 0.0000 -0.0001 0.0000 0.0000 -70.6685
#
#
#
# Elastic Compliance Matrix: (Units=1/GPa)
#
#
# Indices 1 2 3 4 5 6 
#
# 1 0.014611 -0.001338 0.000276 0.000000 0.000000 0.000000
# 2 -0.001338 0.020041 -0.002189 0.000000 0.000000 0.000000
# 3 0.000276 -0.002189 0.004891 0.000000 0.000000 0.000000
# 4 0.000000 0.000000 0.000000 0.026265 0.000000 0.000000
# 5 0.000000 0.000000 0.000000 0.000000 -0.037244 0.000000
# 6 0.000000 0.000000 0.000000 0.000000 0.000000 -0.014151
#
#
# Mechanical properties :
#
#
# Convention : Reuss Voigt Hill
#
# Bulk Modulus (GPa) = 30.26453 43.14258 36.70355
# Shear Modulus (GPa) = 156.60039 8.83260 82.71649
#
# Velocity S-wave (km/s) = 8.69807 2.06572 6.32153
# Velocity P-wave (km/s) = 10.74693 5.15097 8.42701
#
# Compressibility (1/GPa) = 0.03304198
#
# Stress axis : x y z
#
# Youngs Moduli (GPa) = 68.44219 49.89744 204.46084
#
# Poissons Ratio (x) = 0.06674 -0.05643
# Poissons Ratio (y) = 0.09155 0.44754
# Poissons Ratio (z) = -0.01889 0.10922
#
# Static dielectric constant tensor:
#      x y z
#    x 1.753670 0.000000 0.000000 
#    y 0.000000 1.748230 0.000000 
#    z 0.000000 0.000000 1.858120 
# 
# From -- ./inp_files/18447.got.cif
#   From: 2010.05.17/outbox.cif.g08.bks.cpg/sg24_10_cif.got.tgz:18447.got - 2010.06.04 00:33:39.
