data_PCOD9334951
_publ_section_title
;
Structure prediction by ZEFSAII (Michael W. Deem and Ramdas Pophale) SiO2 
 PCOD9334951
Probable space group: I 21 21 21
;
_chemical_formula_sum "Si O2"
_cell_formula_units_Z 56
_cell_length_a 5.692844
_cell_length_b 15.310308
_cell_length_c 27.637203
_cell_angle_alpha 90.000000
_cell_angle_beta 90.000000
_cell_angle_gamma 90.000000
_cell_volume 2408.836367
_symmetry_space_group_name_H-M "I 21 21 21"
_symmetry_group_IT_number 24
_symmetry_cell_setting 'orthorhombic'
loop_
_space_group_symop_operation_xyz
x,y,z
-x,1/2-y,z
x,-y,1/2-z
1/2-x,y,-z
1/2+x,1/2+y,1/2+z
1/2-x,-y,1/2+z
1/2+x,1/2-y,-z
-x,1/2+y,1/2-z
loop_
_atom_site_type_symbol
_atom_site_label
_atom_site_fract_x
_atom_site_fract_y
_atom_site_fract_z
Si Si1 0.885625 0.843717 0.049723
Si Si2 0.468825 0.596079 0.130796
Si Si3 0.831911 0.667361 0.303500
Si Si4 0.349089 0.989630 0.573462
Si Si5 0.255976 0.801185 0.412604
Si Si6 0.095446 0.499530 0.173427
Si Si7 0.189647 0.172645 0.300660
O O1 0.726598 0.863034 0.096414
O O2 0.000000 0.750000 0.059306
O O3 0.750000 0.832512 0.000000
O O4 0.043187 0.931353 0.042242
O O5 0.624081 0.534178 0.097423
O O6 0.359615 0.533544 0.172301
O O7 0.623586 0.668513 0.156731
O O8 0.707105 0.669948 0.355743
O O9 0.695778 0.671696 0.252821
O O10 0.000000 0.750000 0.304266
O O11 0.005907 0.584757 0.299444
O O12 0.281439 0.891873 0.558037
O O13 0.535305 0.977147 0.617361
O O14 0.500000 0.750000 0.426031
O O15 0.000000 0.750000 0.415487
O O16 0.945638 0.581907 0.190249
O O17 0.000000 0.250000 0.304050
#
# Coordination Sequence:
#
# PCOD9334951 Si02
#       7
#     8   8   8   8   8   8   8
#     4  11  27  46  70 105 138 175 232 296 371 452
#     4  10  23  42  68  88 135 181 230 287 365 436
#     4   9  19  37  58  86 134 173 236 294 340 401
#     4   9  22  40  68 101 133 175 229 284 359 436
#     4  10  22  40  70 104 143 189 241 297 353 420
#     4   9  19  37  58  87 124 174 229 280 344 416
#     4  10  21  39  57  89 125 181 235 286 351 420
#
# _framework density 23.24774
#
# number of rings (size 3 to 8) (size 9 to 14) (size 15 to 20)
#    0.000    2.286    0.000    0.429   10.000    6.857 
#    7.714    4.286    0.000    0.000    3.714    0.000 
#    0.000    0.000    0.000    0.000    0.000    0.000 
#
# Total GULP energy -156228.697299 kJ/mol
# GULP energy per Si atom -5579.596332 kJ/mol
# Density = 2.319483 g / cm^3
# Si number density = 23.247740 Si / 1000 Ang^3
#
#
#
# Elastic Constant Matrix: (Units=GPa)
#
#
# Indices 1 2 3 4 5 6 
#
# 1 100.3074 64.8966 23.5944 0.0000 0.0000 0.0000
# 2 64.8966 184.0260 30.5174 0.0000 0.0000 0.0000
# 3 23.5944 30.5174 66.3864 0.0000 0.0000 0.0000
# 4 0.0000 0.0000 0.0000 -49.0859 0.0001 0.0000
# 5 0.0000 0.0000 0.0000 0.0001 256.3156 0.0000
# 6 0.0000 0.0000 0.0000 0.0000 0.0000 30.4832
#
#
#
# Elastic Compliance Matrix: (Units=1/GPa)
#
#
# Indices 1 2 3 4 5 6 
#
# 1 0.013380 -0.004254 -0.002800 0.000000 0.000000 0.000000
# 2 -0.004254 0.007235 -0.001814 0.000000 0.000000 0.000000
# 3 -0.002800 -0.001814 0.016892 0.000000 0.000000 0.000000
# 4 0.000000 0.000000 0.000000 -0.020372 0.000000 0.000000
# 5 0.000000 0.000000 0.000000 0.000000 0.003901 0.000000
# 6 0.000000 0.000000 0.000000 0.000000 0.000000 0.032805
#
#
# Mechanical properties :
#
#
# Convention : Reuss Voigt Hill
#
# Bulk Modulus (GPa) = 50.57747 65.41516 57.99631
# Shear Modulus (GPa) = 63.96461 62.99002 63.47731
#
# Velocity S-wave (km/s) = 5.25110 5.21094 5.23106
# Velocity P-wave (km/s) = 7.65301 8.02525 7.84134
#
# Compressibility (1/GPa) = 0.01977165
#
# Stress axis : x y z
#
# Youngs Moduli (GPa) = 74.73650 138.21545 59.19867
#
# Poissons Ratio (x) = 0.58800 0.16575
# Poissons Ratio (y) = 0.31795 0.10738
# Poissons Ratio (z) = 0.20925 0.25071
#
# Static dielectric constant tensor:
#      x y z
#    x 1.989370 0.000000 0.000000 
#    y 0.000000 1.636640 0.000000 
#    z 0.000000 0.000000 1.894000 
# 
# From -- ./inp_files/37925.got.cif
#   From: 2010.05.17/outbox.cif.g08.bks.cpg/sg24_19_cif.got.tgz:37925.got - 2010.06.04 00:33:39.
