data_PCOD9334944
_publ_section_title
;
Structure prediction by ZEFSAII (Michael W. Deem and Ramdas Pophale) SiO2 
 PCOD9334944
Probable space group: I 21 21 21
;
_chemical_formula_sum "Si O2"
_cell_formula_units_Z 64
_cell_length_a 12.535305
_cell_length_b 15.601865
_cell_length_c 13.413379
_cell_angle_alpha 90.000000
_cell_angle_beta 90.000000
_cell_angle_gamma 90.000000
_cell_volume 2623.310013
_symmetry_space_group_name_H-M "I 21 21 21"
_symmetry_group_IT_number 24
_symmetry_cell_setting 'orthorhombic'
loop_
_space_group_symop_operation_xyz
x,y,z
-x,1/2-y,z
x,-y,1/2-z
1/2-x,y,-z
1/2+x,1/2+y,1/2+z
1/2-x,-y,1/2+z
1/2+x,1/2-y,-z
-x,1/2+y,1/2-z
loop_
_atom_site_type_symbol
_atom_site_label
_atom_site_fract_x
_atom_site_fract_y
_atom_site_fract_z
Si Si1 0.689543 0.593777 0.795136
Si Si2 0.758040 0.154096 0.610726
Si Si3 0.072630 0.626920 0.405944
Si Si4 0.336762 0.814344 0.584388
Si Si5 0.585819 0.435224 0.344467
Si Si6 0.425346 0.321868 0.229365
Si Si7 0.889638 0.980353 0.579073
Si Si8 0.526228 0.151232 0.691820
O O1 0.674493 0.500000 0.750000
O O2 0.697044 0.651244 0.693839
O O3 0.794543 0.593741 0.862426
O O4 0.583291 0.618737 0.854135
O O5 0.750000 0.193507 0.500000
O O6 0.823754 0.200563 0.700174
O O7 0.634102 0.146188 0.633736
O O8 0.815794 0.060746 0.606339
O O9 0.143292 0.712673 0.408727
O O10 0.130274 0.556696 0.470774
O O11 0.050761 0.601360 0.293292
O O12 0.952932 0.647967 0.443949
O O13 0.250000 0.834238 0.500000
O O14 0.594195 0.500000 0.250000
O O15 0.513127 0.357912 0.306388
O O16 0.511520 0.484352 0.421530
O O17 0.500000 0.250000 0.175304
O O18 0.389376 0.399676 0.156239
O O19 0.500000 0.250000 0.720382
#
# Coordination Sequence:
#
# PCOD9334944 Si02
#       8
#     8   8   8   8   8   8   8   8
#     4  10  21  38  66  96 137 195 238 287 358 433
#     4  11  27  48  71  97 142 196 249 305 356 433
#     4  10  22  42  66 108 150 183 235 296 374 452
#     4  10  22  36  61 104 147 184 235 292 368 438
#     4   8  18  37  60  91 138 181 229 283 347 425
#     4  10  23  39  71 105 136 185 240 304 368 425
#     4  10  23  43  69 107 150 184 233 300 378 449
#     4  11  24  48  75 104 147 191 248 302 364 452
#
# _framework density 24.396659
#
# number of rings (size 3 to 8) (size 9 to 14) (size 15 to 20)
#    0.000    2.000    2.500    1.125    8.750    7.000 
#    0.000    1.250    0.000    0.000    0.000    0.000 
#    0.000    0.000    0.000    0.000    0.000    0.000 
#
# Total GULP energy -178847.155163 kJ/mol
# GULP energy per Si atom -5588.973599 kJ/mol
# Density = 2.434113 g / cm^3
# Si number density = 24.396659 Si / 1000 Ang^3
#
#
#
# Elastic Constant Matrix: (Units=GPa)
#
#
# Indices 1 2 3 4 5 6 
#
# 1 174.6663 18.7305 46.9807 0.0000 0.0000 0.0000
# 2 18.7305 79.0186 19.2910 0.0000 0.0000 0.0000
# 3 46.9807 19.2910 59.2813 0.0000 0.0000 0.0000
# 4 0.0000 0.0000 0.0000 28.0294 0.0000 0.0000
# 5 0.0000 0.0000 0.0000 0.0000 23.8941 0.0000
# 6 0.0000 0.0000 0.0000 0.0000 0.0000 31.8734
#
#
#
# Elastic Compliance Matrix: (Units=1/GPa)
#
#
# Indices 1 2 3 4 5 6 
#
# 1 0.007285 -0.000345 -0.005661 0.000000 0.000000 0.000000
# 2 -0.000345 0.013764 -0.004206 0.000000 0.000000 0.000000
# 3 -0.005661 -0.004206 0.022724 0.000000 0.000000 0.000000
# 4 0.000000 0.000000 0.000000 0.035677 0.000000 0.000000
# 5 0.000000 0.000000 0.000000 0.000000 0.041851 0.000000
# 6 0.000000 0.000000 0.000000 0.000000 0.000000 0.031374
#
#
# Mechanical properties :
#
#
# Convention : Reuss Voigt Hill
#
# Bulk Modulus (GPa) = 42.82791 53.66339 48.24565
# Shear Modulus (GPa) = 27.64251 31.95698 29.79975
#
# Velocity S-wave (km/s) = 3.36973 3.62317 3.49874
# Velocity P-wave (km/s) = 5.72128 6.28865 6.01166
#
# Compressibility (1/GPa) = 0.02334926
#
# Stress axis : x y z
#
# Youngs Moduli (GPa) = 137.27101 72.65479 44.00681
#
# Poissons Ratio (x) = 0.02505 0.24913
# Poissons Ratio (y) = 0.04732 0.18508
# Poissons Ratio (z) = 0.77710 0.30556
#
# Static dielectric constant tensor:
#      x y z
#    x 2.036270 0.000000 0.000000 
#    y 0.000000 2.010300 0.000000 
#    z 0.000000 0.000000 1.928190 
# 
# From -- ./inp_files/26022.got.cif
#   From: 2010.05.17/outbox.cif.g08.bks.cpg/sg24_14_cif.got.tgz:26022.got - 2010.06.04 00:33:39.
