data_PCOD9334551
_publ_section_title
;
Structure prediction by ZEFSAII (Michael W. Deem and Ramdas Pophale) SiO2 
 PCOD9334551
Probable space group: I 21 21 21
;
_chemical_formula_sum "Si O2"
_cell_formula_units_Z 56
_cell_length_a 11.638569
_cell_length_b 14.907635
_cell_length_c 15.346970
_cell_angle_alpha 90.000000
_cell_angle_beta 90.000000
_cell_angle_gamma 90.000000
_cell_volume 2662.753601
_symmetry_space_group_name_H-M "I 21 21 21"
_symmetry_group_IT_number 24
_symmetry_cell_setting 'orthorhombic'
loop_
_space_group_symop_operation_xyz
x,y,z
-x,1/2-y,z
x,-y,1/2-z
1/2-x,y,-z
1/2+x,1/2+y,1/2+z
1/2-x,-y,1/2+z
1/2+x,1/2-y,-z
-x,1/2+y,1/2-z
loop_
_atom_site_type_symbol
_atom_site_label
_atom_site_fract_x
_atom_site_fract_y
_atom_site_fract_z
Si Si1 0.416801 0.666282 0.151333
Si Si2 0.247900 0.593498 0.401104
Si Si3 0.255385 0.055690 0.839019
Si Si4 0.250000 0.928214 0.000000
Si Si5 0.892545 0.000000 0.750000
Si Si6 0.500458 0.352805 0.533791
Si Si7 0.861029 0.746519 0.684234
Si Si8 0.983448 0.971740 0.348804
O O1 0.500000 0.750000 0.142721
O O2 0.461852 0.582050 0.208103
O O3 0.325595 0.708828 0.220815
O O4 0.414201 0.638960 0.049952
O O5 0.250000 0.561245 0.500000
O O6 0.313562 0.530882 0.330935
O O7 0.309041 0.688698 0.388796
O O8 0.115372 0.595836 0.375627
O O9 0.186411 0.147346 0.828610
O O10 0.390712 0.070501 0.857605
O O11 0.247458 0.000000 0.750000
O O12 0.219815 0.992128 0.918593
O O13 0.135067 0.870123 0.011509
O O14 0.500000 0.250000 0.567347
O O15 0.472782 0.435483 0.597130
O O16 0.000000 0.750000 0.678801
O O17 0.966935 0.000000 0.250000
#
# Coordination Sequence:
#
# PCOD9334551 Si02
#       8
#     8   8   8   4   4   8   8   8
#     4   9  20  37  62  95 133 172 223 276 352 402
#     4  11  23  42  69  97 130 177 227 285 348 411
#     4  10  24  43  70  95 141 189 232 289 348 429
#     4  10  24  42  70 100 132 188 236 270 368 416
#     4  10  20  40  62  94 136 172 218 286 340 402
#     4  10  22  43  64  99 136 175 226 292 344 418
#     4  10  24  43  64 105 138 175 233 286 351 417
#     4  10  22  47  64  98 132 182 237 274 351 424
#
# _framework density 21.030861000000002
#
# number of rings (size 3 to 8) (size 9 to 14) (size 15 to 20)
#    0.000    2.000    0.714    0.857    7.000    6.286 
#   15.429    0.000    0.000    0.000    0.000    0.000 
#    0.000    0.000    0.000    0.000    0.000    0.000 
#
# Total GULP energy -156041.774030 kJ/mol
# GULP energy per Si atom -5572.920501 kJ/mol
# Density = 2.098299 g / cm^3
# Si number density = 21.030861 Si / 1000 Ang^3
#
#
#
# Elastic Constant Matrix: (Units=GPa)
#
#
# Indices 1 2 3 4 5 6 
#
# 1 96.7249 63.8698 30.3185 0.0000 0.0000 0.0000
# 2 63.8698 127.7117 41.6958 0.0000 0.0000 0.0000
# 3 30.3185 41.6958 114.3475 0.0000 0.0001 0.0000
# 4 0.0000 0.0000 0.0000 7.5914 0.0000 0.0000
# 5 0.0000 0.0000 0.0001 0.0000 212.5986 0.0000
# 6 0.0000 0.0000 0.0000 0.0000 0.0000 36.3131
#
#
#
# Elastic Compliance Matrix: (Units=1/GPa)
#
#
# Indices 1 2 3 4 5 6 
#
# 1 0.015651 -0.007347 -0.001471 0.000000 0.000000 0.000000
# 2 -0.007347 0.012337 -0.002551 0.000000 0.000000 0.000000
# 3 -0.001471 -0.002551 0.010065 0.000000 0.000000 0.000000
# 4 0.000000 0.000000 0.000000 0.131727 0.000000 0.000000
# 5 0.000000 0.000000 0.000000 0.000000 0.004704 0.000000
# 6 0.000000 0.000000 0.000000 0.000000 0.000000 0.027538
#
#
# Mechanical properties :
#
#
# Convention : Reuss Voigt Hill
#
# Bulk Modulus (GPa) = 65.28819 67.83913 66.56366
# Shear Modulus (GPa) = 21.75186 64.82728 43.28957
#
# Velocity S-wave (km/s) = 3.21952 5.55803 4.54186
# Velocity P-wave (km/s) = 6.70312 8.57415 7.69570
#
# Compressibility (1/GPa) = 0.01531670
#
# Stress axis : x y z
#
# Youngs Moduli (GPa) = 63.89347 81.05560 99.35134
#
# Poissons Ratio (x) = 0.59552 0.14612
# Poissons Ratio (y) = 0.46943 0.25341
# Poissons Ratio (z) = 0.09397 0.20674
#
# Static dielectric constant tensor:
#      x y z
#    x 1.777780 0.000000 0.000000 
#    y 0.000000 1.647690 0.000000 
#    z 0.000000 0.000000 1.829820 
# 
# From -- ./inp_files/25860.got.cif
#   From: 2010.05.17/outbox.cif.g08.bks.cpg/sg24_13_cif.got.tgz:25860.got - 2010.06.04 00:33:39.
