data_PCOD9334323
_publ_section_title
;
Structure prediction by ZEFSAII (Michael W. Deem and Ramdas Pophale) SiO2 
 PCOD9334323
Probable space group: I 21 21 21
;
_chemical_formula_sum "Si O2"
_cell_formula_units_Z 52
_cell_length_a 11.869406
_cell_length_b 24.891191
_cell_length_c 9.864755
_cell_angle_alpha 90.000000
_cell_angle_beta 90.000000
_cell_angle_gamma 90.000000
_cell_volume 2914.479241
_symmetry_space_group_name_H-M "I 21 21 21"
_symmetry_group_IT_number 24
_symmetry_cell_setting 'orthorhombic'
loop_
_space_group_symop_operation_xyz
x,y,z
-x,1/2-y,z
x,-y,1/2-z
1/2-x,y,-z
1/2+x,1/2+y,1/2+z
1/2-x,-y,1/2+z
1/2+x,1/2-y,-z
-x,1/2+y,1/2-z
loop_
_atom_site_type_symbol
_atom_site_label
_atom_site_fract_x
_atom_site_fract_y
_atom_site_fract_z
Si Si1 0.521846 0.500000 0.250000
Si Si2 0.579858 0.700718 0.848976
Si Si3 0.549606 0.156907 0.399092
Si Si4 0.882569 0.962087 0.993842
Si Si5 0.107385 0.886305 0.669895
Si Si6 0.126510 0.109757 0.147364
Si Si7 0.250000 0.733922 0.000000
Si Si8 0.024366 0.000000 0.250000
O O1 0.442469 0.497938 0.380539
O O2 0.592720 0.445834 0.233968
O O3 0.500000 0.750000 0.810436
O O4 0.567707 0.653764 0.741094
O O5 0.698150 0.728495 0.882998
O O6 0.541659 0.676420 0.992409
O O7 0.595064 0.098738 0.444902
O O8 0.481416 0.149671 0.256918
O O9 0.653907 0.197656 0.426332
O O10 0.750000 0.972038 0.000000
O O11 0.944972 0.975230 0.133618
O O12 0.086537 0.885495 0.508267
O O13 0.241648 0.876232 0.672110
O O14 0.099180 0.049083 0.193527
#
# Coordination Sequence:
#
# PCOD9334323 Si02
#       8
#     4   8   8   8   8   8   4   4
#     4  10  20  38  52  86 122 154 194 240 304 366
#     4  10  21  38  61  87 117 155 206 255 307 370
#     4  10  20  38  61  89 120 159 209 258 312 372
#     4  11  21  36  58  87 121 160 200 251 302 372
#     4  10  22  37  59  84 126 156 202 252 303 375
#     4  11  22  40  58  90 120 163 200 253 313 365
#     4  10  20  38  66  90 118 158 208 270 316 366
#     4  12  22  38  62  88 126 162 204 250 312 378
#
# _framework density 17.841951999999999
#
# number of rings (size 3 to 8) (size 9 to 14) (size 15 to 20)
#    0.000    1.538    3.846    1.846    0.000    0.000 
#    0.000    5.385    0.000    0.000    0.000    0.000 
#    0.000    0.000    0.000    0.000    0.000    0.000 
#
# Total GULP energy -144844.084677 kJ/mol
# GULP energy per Si atom -5570.926334 kJ/mol
# Density = 1.780134 g / cm^3
# Si number density = 17.841952 Si / 1000 Ang^3
#
#
#
# Elastic Constant Matrix: (Units=GPa)
#
#
# Indices 1 2 3 4 5 6 
#
# 1 61.8957 3.2690 43.5209 0.0000 0.0000 0.0000
# 2 3.2690 55.5422 29.8289 -0.0001 0.0001 0.0000
# 3 43.5209 29.8289 123.6979 0.0000 0.0004 0.0000
# 4 0.0000 -0.0001 0.0000 20.0756 0.0001 0.0000
# 5 0.0000 0.0001 0.0004 0.0001 8.3183 -0.0001
# 6 0.0000 0.0000 0.0000 0.0000 -0.0001 13.2986
#
#
#
# Elastic Compliance Matrix: (Units=1/GPa)
#
#
# Indices 1 2 3 4 5 6 
#
# 1 0.021976 0.003284 -0.008524 0.000000 0.000000 0.000000
# 2 0.003284 0.021174 -0.006261 0.000000 0.000000 0.000000
# 3 -0.008524 -0.006261 0.012593 0.000000 0.000000 0.000000
# 4 0.000000 0.000000 0.000000 0.049812 -0.000001 0.000000
# 5 0.000000 0.000000 0.000000 -0.000001 0.120216 0.000001
# 6 0.000000 0.000000 0.000000 0.000000 0.000001 0.075196
#
#
# Mechanical properties :
#
#
# Convention : Reuss Voigt Hill
#
# Bulk Modulus (GPa) = 30.54279 43.81927 37.18103
# Shear Modulus (GPa) = 14.93059 19.30629 17.11844
#
# Velocity S-wave (km/s) = 2.89593 3.29306 3.10086
# Velocity P-wave (km/s) = 5.32331 6.25076 5.80558
#
# Compressibility (1/GPa) = 0.03274095
#
# Stress axis : x y z
#
# Youngs Moduli (GPa) = 45.50378 47.22836 79.40851
#
# Poissons Ratio (x) = -0.15511 0.67687
# Poissons Ratio (y) = -0.14945 0.49721
# Poissons Ratio (z) = 0.38787 0.29572
#
# Static dielectric constant tensor:
#      x y z
#    x 1.655650 0.000000 0.000000 
#    y 0.000000 1.622190 0.000000 
#    z 0.000000 0.000000 1.594150 
# 
# From -- ./inp_files/11492.got.cif
#   From: 2010.05.17/outbox.cif.g08.bks.cpg/sg24_6_cif.got.tgz:11492.got - 2010.06.04 00:33:39.
