data_PCOD9334554
_publ_section_title
;
Structure prediction by ZEFSAII (Michael W. Deem and Ramdas Pophale) SiO2 
 PCOD9334554
Probable space group: I 21 21 21
;
_chemical_formula_sum "Si O2"
_cell_formula_units_Z 64
_cell_length_a 18.998305
_cell_length_b 18.237040
_cell_length_c 9.217879
_cell_angle_alpha 90.000000
_cell_angle_beta 90.000000
_cell_angle_gamma 90.000000
_cell_volume 3193.744792
_symmetry_space_group_name_H-M "I 21 21 21"
_symmetry_group_IT_number 24
_symmetry_cell_setting 'orthorhombic'
loop_
_space_group_symop_operation_xyz
x,y,z
-x,1/2-y,z
x,-y,1/2-z
1/2-x,y,-z
1/2+x,1/2+y,1/2+z
1/2-x,-y,1/2+z
1/2+x,1/2-y,-z
-x,1/2+y,1/2-z
loop_
_atom_site_type_symbol
_atom_site_label
_atom_site_fract_x
_atom_site_fract_y
_atom_site_fract_z
Si Si1 0.141223 0.644342 0.106239
Si Si2 0.243162 0.078177 0.671751
Si Si3 0.036356 0.176160 0.031830
Si Si4 0.920312 0.063711 0.146182
Si Si5 0.637367 0.304399 0.701352
Si Si6 0.511684 0.667877 0.017742
Si Si7 0.913201 0.587309 0.741466
Si Si8 0.821537 0.987731 0.922434
O O1 0.142302 0.597145 0.253962
O O2 0.165659 0.726497 0.141120
O O3 0.172390 0.597667 0.973549
O O4 0.058168 0.650050 0.070425
O O5 0.250000 0.067019 0.500000
O O6 0.301575 0.136568 0.718501
O O7 0.165325 0.107895 0.707054
O O8 0.252762 0.000000 0.750000
O O9 0.093136 0.202892 0.150593
O O10 0.000000 0.250000 0.971706
O O11 0.976680 0.125356 0.105937
O O12 0.072192 0.125046 0.911767
O O13 0.951917 0.000000 0.250000
O O14 0.886642 0.028129 0.002431
O O15 0.579365 0.331965 0.585972
O O16 0.500000 0.750000 0.074404
O O17 0.527469 0.615088 0.149130
O O18 0.914992 0.500000 0.750000
O O19 0.821248 0.000000 0.750000
O O20 0.750000 0.014606 0.000000
#
# Coordination Sequence:
#
# PCOD9334554 Si02
#       8
#     8   8   8   8   8   8   8   8
#     4  10  21  41  68 104 133 175 231 278 342 429
#     4  11  26  47  66  95 136 182 242 289 344 415
#     4  12  24  43  69 104 144 178 230 290 354 413
#     4  10  22  40  68  98 138 176 230 277 339 418
#     4  11  22  42  73  93 134 185 226 279 349 420
#     4  10  20  40  63  95 132 170 217 283 349 405
#     4  11  27  41  64  99 138 179 236 290 346 412
#     4  11  25  46  70 100 143 181 227 290 346 412
#
# _framework density 20.039172000000001
#
# number of rings (size 3 to 8) (size 9 to 14) (size 15 to 20)
#    0.000    1.250    3.750    1.875    8.750    1.000 
#    0.000    1.250    0.000    0.000    0.000    0.000 
#    0.000    0.000    0.000    0.000    0.000    0.000 
#
# Total GULP energy -178726.049130 kJ/mol
# GULP energy per Si atom -5585.189035 kJ/mol
# Density = 1.999356 g / cm^3
# Si number density = 20.039172 Si / 1000 Ang^3
#
#
#
# Elastic Constant Matrix: (Units=GPa)
#
#
# Indices 1 2 3 4 5 6 
#
# 1 69.9676 44.1224 29.4486 0.0000 0.0000 0.0000
# 2 44.1224 96.7046 35.8288 0.0000 0.0000 0.0000
# 3 29.4486 35.8288 130.0980 0.0000 0.0000 0.0000
# 4 0.0000 0.0000 0.0000 30.9690 0.0000 0.0000
# 5 0.0000 0.0000 0.0000 0.0000 31.7011 0.0000
# 6 0.0000 0.0000 0.0000 0.0000 0.0000 24.4513
#
#
#
# Elastic Compliance Matrix: (Units=1/GPa)
#
#
# Indices 1 2 3 4 5 6 
#
# 1 0.020675 -0.008574 -0.002319 0.000000 0.000000 0.000000
# 2 -0.008574 0.015072 -0.002210 0.000000 0.000000 0.000000
# 3 -0.002319 -0.002210 0.008820 0.000000 0.000000 0.000000
# 4 0.000000 0.000000 0.000000 0.032290 0.000000 0.000000
# 5 0.000000 0.000000 0.000000 0.000000 0.031545 0.000000
# 6 0.000000 0.000000 0.000000 0.000000 0.000000 0.040898
#
#
# Mechanical properties :
#
#
# Convention : Reuss Voigt Hill
#
# Bulk Modulus (GPa) = 54.46238 57.28553 55.87396
# Shear Modulus (GPa) = 27.52923 29.91566 28.72244
#
# Velocity S-wave (km/s) = 3.71046 3.86794 3.79002
# Velocity P-wave (km/s) = 6.75231 6.97114 6.86260
#
# Compressibility (1/GPa) = 0.01836130
#
# Stress axis : x y z
#
# Youngs Moduli (GPa) = 48.36709 66.35001 113.37935
#
# Poissons Ratio (x) = 0.56890 0.26289
# Poissons Ratio (y) = 0.41471 0.25055
# Poissons Ratio (z) = 0.11215 0.14662
#
# Static dielectric constant tensor:
#      x y z
#    x 1.703700 0.000000 0.000000 
#    y 0.000000 1.729180 0.000000 
#    z 0.000000 0.000000 1.715590 
# 
# From -- ./inp_files/15411.got.cif
#   From: 2010.05.17/outbox.cif.g08.bks.cpg/sg24_8_cif.got.tgz:15411.got - 2010.06.04 00:33:39.
