data_PCOD9334816
_publ_section_title
;
Structure prediction by ZEFSAII (Michael W. Deem and Ramdas Pophale) SiO2 
 PCOD9334816
Probable space group: I 21 21 21
;
_chemical_formula_sum "Si O2"
_cell_formula_units_Z 48
_cell_length_a 5.506849
_cell_length_b 26.214050
_cell_length_c 15.870409
_cell_angle_alpha 90.000000
_cell_angle_beta 90.000000
_cell_angle_gamma 90.000000
_cell_volume 2291.001696
_symmetry_space_group_name_H-M "I 21 21 21"
_symmetry_group_IT_number 24
_symmetry_cell_setting 'orthorhombic'
loop_
_space_group_symop_operation_xyz
x,y,z
-x,1/2-y,z
x,-y,1/2-z
1/2-x,y,-z
1/2+x,1/2+y,1/2+z
1/2-x,-y,1/2+z
1/2+x,1/2-y,-z
-x,1/2+y,1/2-z
loop_
_atom_site_type_symbol
_atom_site_label
_atom_site_fract_x
_atom_site_fract_y
_atom_site_fract_z
Si Si1 0.000709 0.808889 0.447527
Si Si2 0.583954 0.510025 0.582239
Si Si3 0.435528 0.948319 0.273831
Si Si4 0.048691 0.092141 0.338025
Si Si5 0.331506 0.400072 0.845971
Si Si6 0.000078 0.808089 0.053682
O O1 0.750000 0.815782 0.500000
O O2 0.965806 0.849485 0.373866
O O3 0.000000 0.750000 0.419183
O O4 0.250000 0.817470 0.500000
O O5 0.750000 0.511111 0.500000
O O6 0.481208 0.453557 0.598351
O O7 0.391991 0.555499 0.587478
O O8 0.738838 0.524597 0.665536
O O9 0.323583 0.920168 0.192899
O O10 0.544641 0.904479 0.333902
O O11 0.586536 0.000000 0.250000
O O12 0.011269 0.146831 0.378758
O O13 0.904445 0.088458 0.250665
O O14 0.000000 0.750000 0.088124
O O15 0.250000 0.812925 0.000000
O O16 0.750000 0.813637 0.000000
#
# Coordination Sequence:
#
# PCOD9334816 Si02
#       6
#     8   8   8   8   8   8
#     4  10  24  44  66  93 128 167 216 273 324 379
#     4  10  21  37  57  90 126 164 212 260 318 380
#     4   9  20  37  57  89 131 167 207 259 317 383
#     4  10  22  39  61  89 131 168 212 262 323 385
#     4  11  22  36  63  89 127 169 212 263 320 387
#     4  10  23  44  68  94 127 166 216 271 320 375
#
# _framework density 20.951535
#
# number of rings (size 3 to 8) (size 9 to 14) (size 15 to 20)
#    0.000    2.000    0.000    3.500    9.333    0.667 
#    3.000    0.000    0.000    0.000    0.000    0.000 
#    0.000    0.000    0.000    0.000    0.000    0.000 
#
# Total GULP energy -133663.379493 kJ/mol
# GULP energy per Si atom -5569.307479 kJ/mol
# Density = 2.090385 g / cm^3
# Si number density = 20.951535 Si / 1000 Ang^3
#
#
#
# Elastic Constant Matrix: (Units=GPa)
#
#
# Indices 1 2 3 4 5 6 
#
# 1 75.5439 44.9329 16.0352 0.0000 0.0000 0.0000
# 2 44.9329 131.6990 61.1793 0.0000 0.0000 0.0000
# 3 16.0352 61.1793 77.4601 -0.0001 0.0000 0.0000
# 4 0.0000 0.0000 -0.0001 32.0190 0.0000 0.0000
# 5 0.0000 0.0000 0.0000 0.0000 28.4324 0.0000
# 6 0.0000 0.0000 0.0000 0.0000 0.0000 24.3238
#
#
#
# Elastic Compliance Matrix: (Units=1/GPa)
#
#
# Indices 1 2 3 4 5 6 
#
# 1 0.016740 -0.006479 0.001651 0.000000 0.000000 0.000000
# 2 -0.006479 0.014501 -0.010112 0.000000 0.000000 0.000000
# 3 0.001651 -0.010112 0.020554 0.000000 0.000000 0.000000
# 4 0.000000 0.000000 0.000000 0.031231 0.000000 0.000000
# 5 0.000000 0.000000 0.000000 0.000000 0.035171 0.000000
# 6 0.000000 0.000000 0.000000 0.000000 0.000000 0.041112
#
#
# Mechanical properties :
#
#
# Convention : Reuss Voigt Hill
#
# Bulk Modulus (GPa) = 45.62547 58.77753 52.20150
# Shear Modulus (GPa) = 25.44613 27.79209 26.61911
#
# Velocity S-wave (km/s) = 3.48878 3.64606 3.56829
# Velocity P-wave (km/s) = 6.16869 6.77052 6.47660
#
# Compressibility (1/GPa) = 0.02191758
#
# Stress axis : x y z
#
# Youngs Moduli (GPa) = 59.73653 68.96208 48.65129
#
# Poissons Ratio (x) = 0.44677 -0.08034
# Poissons Ratio (y) = 0.38701 0.49195
# Poissons Ratio (z) = -0.09865 0.69733
#
# Static dielectric constant tensor:
#      x y z
#    x 2.037480 0.000000 0.000000 
#    y 0.000000 1.799220 0.000000 
#    z 0.000000 0.000000 1.744640 
# 
# From -- ./inp_files/3772.got.cif
#   From: 2010.05.17/outbox.cif.g08.bks.cpg/sg24_2_cif.got.tgz:3772.got - 2010.06.04 00:33:39.
