data_PCOD9334530
_publ_section_title
;
Structure prediction by ZEFSAII (Michael W. Deem and Ramdas Pophale) SiO2 
 PCOD9334530
Probable space group: I 21 21 21
;
_chemical_formula_sum "Si O2"
_cell_formula_units_Z 28
_cell_length_a 11.366389
_cell_length_b 5.202711
_cell_length_c 20.700331
_cell_angle_alpha 90.000000
_cell_angle_beta 90.000000
_cell_angle_gamma 90.000000
_cell_volume 1224.135542
_symmetry_space_group_name_H-M "I 21 21 21"
_symmetry_group_IT_number 24
_symmetry_cell_setting 'orthorhombic'
loop_
_space_group_symop_operation_xyz
x,y,z
-x,1/2-y,z
x,-y,1/2-z
1/2-x,y,-z
1/2+x,1/2+y,1/2+z
1/2-x,-y,1/2+z
1/2+x,1/2-y,-z
-x,1/2+y,1/2-z
loop_
_atom_site_type_symbol
_atom_site_label
_atom_site_fract_x
_atom_site_fract_y
_atom_site_fract_z
Si Si1 0.134544 0.499059 0.577334
Si Si2 0.287719 0.004626 0.608060
Si Si3 0.000000 0.250000 0.814744
Si Si4 0.289594 0.000000 0.250000
Si Si5 0.000000 0.250000 0.463773
O O1 0.222078 0.744430 0.584203
O O2 0.037720 0.532650 0.633897
O O3 0.069913 0.449012 0.509969
O O4 0.206910 0.241809 0.587445
O O5 0.287303 0.019219 0.685920
O O6 0.412837 0.074176 0.578131
O O7 0.886152 0.286854 0.770499
#
# Coordination Sequence:
#
# PCOD9334530 Si02
#       5
#     8   8   4   4   4
#     4  11  25  43  68 104 135 177 237 287 348 407
#     4  11  27  45  70 101 138 184 230 289 344 419
#     4  10  20  39  72  99 132 178 228 304 338 382
#     4  10  20  42  68 102 136 176 236 280 344 412
#     4  12  26  47  72 103 146 186 226 290 360 418
#
# _framework density 22.873283000000001
#
# number of rings (size 3 to 8) (size 9 to 14) (size 15 to 20)
#    0.000    1.143    0.000    6.000    0.000   16.000 
#    0.000    5.714    0.000    0.000    0.000    0.000 
#    0.000    0.000    0.000    0.000    0.000    0.000 
#
# Total GULP energy -78269.972603 kJ/mol
# GULP energy per Si atom -5590.712329 kJ/mol
# Density = 2.282122 g / cm^3
# Si number density = 22.873283 Si / 1000 Ang^3
#
#
#
# Elastic Constant Matrix: (Units=GPa)
#
#
# Indices 1 2 3 4 5 6 
#
# 1 95.6728 57.5703 101.2715 0.0000 0.0000 0.0000
# 2 57.5703 149.5347 55.7582 0.0000 0.0000 0.0000
# 3 101.2715 55.7582 218.6451 0.0000 0.0000 0.0000
# 4 0.0000 0.0000 0.0000 29.6758 0.0000 0.0000
# 5 0.0000 0.0000 0.0000 0.0000 -23.0269 0.0000
# 6 0.0000 0.0000 0.0000 0.0000 0.0000 35.2888
#
#
#
# Elastic Compliance Matrix: (Units=1/GPa)
#
#
# Indices 1 2 3 4 5 6 
#
# 1 0.024202 -0.005678 -0.009762 0.000000 0.000000 0.000000
# 2 -0.005678 0.008722 0.000405 0.000000 0.000000 0.000000
# 3 -0.009762 0.000405 0.008992 0.000000 0.000000 0.000000
# 4 0.000000 0.000000 0.000000 0.033698 0.000000 0.000000
# 5 0.000000 0.000000 0.000000 0.000000 -0.043427 0.000000
# 6 0.000000 0.000000 0.000000 0.000000 0.000000 0.028338
#
#
# Mechanical properties :
#
#
# Convention : Reuss Voigt Hill
#
# Bulk Modulus (GPa) = 84.40536 99.22807 91.81671
# Shear Modulus (GPa) = 52.88720 25.00436 38.94578
#
# Velocity S-wave (km/s) = 4.81373 3.30990 4.13083
# Velocity P-wave (km/s) = 8.23878 7.62122 7.93601
#
# Compressibility (1/GPa) = 0.01184759
#
# Stress axis : x y z
#
# Youngs Moduli (GPa) = 41.31901 114.65129 111.21360
#
# Poissons Ratio (x) = 0.65095 1.08566
# Poissons Ratio (y) = 0.23460 -0.04510
# Poissons Ratio (z) = 0.40335 -0.04649
#
# Static dielectric constant tensor:
#      x y z
#    x 1.896550 0.000000 0.000000 
#    y 0.000000 1.916600 0.000000 
#    z 0.000000 0.000000 1.898030 
# 
# From -- ./inp_files/33120.got.cif
#   From: 2010.05.17/outbox.cif.g08.bks.cpg/sg24_17_cif.got.tgz:33120.got - 2010.06.04 00:33:39.
