data_PCOD9334866
_publ_section_title
;
Structure prediction by ZEFSAII (Michael W. Deem and Ramdas Pophale) SiO2 
 PCOD9334866
Probable space group: I 21 21 21
;
_chemical_formula_sum "Si O2"
_cell_formula_units_Z 48
_cell_length_a 17.113923
_cell_length_b 14.966987
_cell_length_c 8.527262
_cell_angle_alpha 90.000000
_cell_angle_beta 90.000000
_cell_angle_gamma 90.000000
_cell_volume 2184.205830
_symmetry_space_group_name_H-M "I 21 21 21"
_symmetry_group_IT_number 24
_symmetry_cell_setting 'orthorhombic'
loop_
_space_group_symop_operation_xyz
x,y,z
-x,1/2-y,z
x,-y,1/2-z
1/2-x,y,-z
1/2+x,1/2+y,1/2+z
1/2-x,-y,1/2+z
1/2+x,1/2-y,-z
-x,1/2+y,1/2-z
loop_
_atom_site_type_symbol
_atom_site_label
_atom_site_fract_x
_atom_site_fract_y
_atom_site_fract_z
Si Si1 0.216810 0.591341 0.173640
Si Si2 0.402915 0.826731 0.143072
Si Si3 0.559857 0.530066 0.919677
Si Si4 0.678616 0.206777 0.118352
Si Si5 0.438172 0.687697 0.866130
Si Si6 0.964827 0.911528 0.647449
O O1 0.189589 0.500000 0.250000
O O2 0.287819 0.631053 0.268209
O O3 0.146283 0.660609 0.192073
O O4 0.250000 0.577403 0.000000
O O5 0.343890 0.791795 0.275182
O O6 0.481336 0.855729 0.233532
O O7 0.383343 0.912198 0.032761
O O8 0.417645 0.746242 0.020951
O O9 0.590245 0.500000 0.750000
O O10 0.486409 0.597335 0.893932
O O11 0.523089 0.448734 0.015327
O O12 0.599027 0.154569 0.069884
O O13 0.750000 0.225526 0.000000
O O14 0.500000 0.750000 0.773987
O O15 0.937446 0.000000 0.750000
#
# Coordination Sequence:
#
# PCOD9334866 Si02
#       6
#     8   8   8   8   8   8
#     4  12  26  40  64  98 143 181 222 280 352 424
#     4  10  21  45  65  90 140 189 229 282 349 415
#     4  10  21  37  68 103 126 169 235 296 337 394
#     4  12  25  40  61  99 142 190 220 276 357 423
#     4  10  21  41  66  91 138 183 224 275 345 409
#     4  10  21  40  66  95 130 179 239 284 340 411
#
# _framework density 21.975951999999999
#
# number of rings (size 3 to 8) (size 9 to 14) (size 15 to 20)
#    0.000    1.333    1.667    6.000    7.000    0.000 
#    6.000    0.000    0.000    0.000   52.000    0.000 
#    0.000    0.000    0.000    0.000    0.000    0.000 
#
# Total GULP energy -133887.639274 kJ/mol
# GULP energy per Si atom -5578.651636 kJ/mol
# Density = 2.192593 g / cm^3
# Si number density = 21.975952 Si / 1000 Ang^3
#
#
#
# Elastic Constant Matrix: (Units=GPa)
#
#
# Indices 1 2 3 4 5 6 
#
# 1 55.6635 40.1655 31.5711 0.0000 0.0000 0.0000
# 2 40.1655 97.7735 54.4206 0.0000 0.0000 0.0000
# 3 31.5711 54.4206 106.3750 0.0000 0.0000 0.0000
# 4 0.0000 0.0000 0.0000 31.3732 0.0000 0.0000
# 5 0.0000 0.0000 0.0000 0.0000 78.2311 0.0000
# 6 0.0000 0.0000 0.0000 0.0000 0.0000 37.8958
#
#
#
# Elastic Compliance Matrix: (Units=1/GPa)
#
#
# Indices 1 2 3 4 5 6 
#
# 1 0.026283 -0.009025 -0.003183 0.000000 0.000000 0.000000
# 2 -0.009025 0.017399 -0.006222 0.000000 0.000000 0.000000
# 3 -0.003183 -0.006222 0.013529 0.000000 0.000000 0.000000
# 4 0.000000 0.000000 0.000000 0.031874 0.000000 0.000000
# 5 0.000000 0.000000 0.000000 0.000000 0.012783 0.000000
# 6 0.000000 0.000000 0.000000 0.000000 0.000000 0.026388
#
#
# Mechanical properties :
#
#
# Convention : Reuss Voigt Hill
#
# Bulk Modulus (GPa) = 49.14354 56.90293 53.02324
# Shear Modulus (GPa) = 29.08658 38.41035 33.74846
#
# Velocity S-wave (km/s) = 3.64203 4.18525 3.92305
# Velocity P-wave (km/s) = 6.33220 7.02172 6.68586
#
# Compressibility (1/GPa) = 0.02034855
#
# Stress axis : x y z
#
# Youngs Moduli (GPa) = 38.04734 57.47548 73.91623
#
# Poissons Ratio (x) = 0.51873 0.23530
# Poissons Ratio (y) = 0.34339 0.45994
# Poissons Ratio (z) = 0.12112 0.35764
#
# Static dielectric constant tensor:
#      x y z
#    x 1.781190 0.000000 0.000000 
#    y 0.000000 1.728440 0.000000 
#    z 0.000000 0.000000 1.872490 
# 
# From -- ./inp_files/14178.got.cif
#   From: 2010.05.17/outbox.cif.g08.bks.cpg/sg24_8_cif.got.tgz:14178.got - 2010.06.04 00:33:39.
