data_PCOD9334678
_publ_section_title
;
Structure prediction by ZEFSAII (Michael W. Deem and Ramdas Pophale) SiO2 
 PCOD9334678
Probable space group: I 21 21 21
;
_chemical_formula_sum "Si O2"
_cell_formula_units_Z 48
_cell_length_a 9.164128
_cell_length_b 26.782958
_cell_length_c 8.948934
_cell_angle_alpha 90.000000
_cell_angle_beta 90.000000
_cell_angle_gamma 90.000000
_cell_volume 2196.448334
_symmetry_space_group_name_H-M "I 21 21 21"
_symmetry_group_IT_number 24
_symmetry_cell_setting 'orthorhombic'
loop_
_space_group_symop_operation_xyz
x,y,z
-x,1/2-y,z
x,-y,1/2-z
1/2-x,y,-z
1/2+x,1/2+y,1/2+z
1/2-x,-y,1/2+z
1/2+x,1/2-y,-z
-x,1/2+y,1/2-z
loop_
_atom_site_type_symbol
_atom_site_label
_atom_site_fract_x
_atom_site_fract_y
_atom_site_fract_z
Si Si1 0.250000 0.167257 0.500000
Si Si2 0.250000 0.310853 0.000000
Si Si3 0.160973 0.769483 0.728890
Si Si4 0.580932 0.979554 0.968758
Si Si5 0.885577 0.579836 0.823199
Si Si6 0.946543 0.359877 0.968170
Si Si7 0.071212 0.066200 0.216758
O O1 0.256255 0.204388 0.642097
O O2 0.369433 0.127461 0.436676
O O3 0.239964 0.275832 0.854110
O O4 0.110156 0.345012 0.003038
O O5 0.000000 0.750000 0.783609
O O6 0.124842 0.810314 0.601093
O O7 0.555445 0.936620 0.841563
O O8 0.488914 0.025701 0.901108
O O9 0.750000 0.990244 0.000000
O O10 0.499043 0.959049 0.112535
O O11 0.724096 0.556605 0.801370
O O12 0.936630 0.600474 0.664668
O O13 0.892185 0.384339 0.121827
#
# Coordination Sequence:
#
# PCOD9334678 Si02
#       7
#     4   4   8   8   8   8   8
#     4  10  20  42  70  95 136 179 228 276 346 418
#     4  10  22  42  64  97 138 171 228 292 356 402
#     4   9  21  42  62  97 135 173 226 287 344 415
#     4  11  27  46  69 104 145 175 229 294 345 411
#     4  11  23  46  70 100 137 187 232 284 334 433
#     4  10  24  39  70  98 132 177 232 284 344 410
#     4  11  25  45  69 100 134 185 235 273 351 417
#
# _framework density 21.853460999999999
#
# number of rings (size 3 to 8) (size 9 to 14) (size 15 to 20)
#    0.000    1.667    1.667    0.500    8.167    7.333 
#    3.000    0.000    0.000    0.000    0.000    0.000 
#    0.000    0.000    0.000    0.000    0.000    0.000 
#
# Total GULP energy -133928.279965 kJ/mol
# GULP energy per Si atom -5580.344999 kJ/mol
# Density = 2.180372 g / cm^3
# Si number density = 21.853461 Si / 1000 Ang^3
#
#
#
# Elastic Constant Matrix: (Units=GPa)
#
#
# Indices 1 2 3 4 5 6 
#
# 1 132.0422 45.9299 51.5035 0.0002 -0.0007 0.0000
# 2 45.9299 50.6451 29.6280 0.0009 0.0000 0.0001
# 3 51.5035 29.6280 67.1599 0.0040 0.0003 0.0008
# 4 0.0002 0.0009 0.0040 34.0703 0.0003 0.0004
# 5 -0.0007 0.0000 0.0003 0.0003 19.2972 -0.0001
# 6 0.0000 0.0001 0.0008 0.0004 -0.0001 23.9387
#
#
#
# Elastic Compliance Matrix: (Units=1/GPa)
#
#
# Indices 1 2 3 4 5 6 
#
# 1 0.012786 -0.007898 -0.006321 0.000001 0.000001 0.000000
# 2 -0.007898 0.031492 -0.007836 0.000000 0.000000 0.000000
# 3 -0.006321 -0.007836 0.023195 -0.000002 -0.000001 -0.000001
# 4 0.000001 0.000000 -0.000002 0.029351 -0.000001 0.000000
# 5 0.000001 0.000000 -0.000001 -0.000001 0.051821 0.000000
# 6 0.000000 0.000000 -0.000001 0.000000 0.000000 0.041773
#
#
# Mechanical properties :
#
#
# Convention : Reuss Voigt Hill
#
# Bulk Modulus (GPa) = 42.80443 55.99666 49.40055
# Shear Modulus (GPa) = 20.63421 23.64696 22.14059
#
# Velocity S-wave (km/s) = 3.07613 3.29305 3.18644
# Velocity P-wave (km/s) = 5.67858 6.33548 6.01600
#
# Compressibility (1/GPa) = 0.02336207
#
# Stress axis : x y z
#
# Youngs Moduli (GPa) = 78.20982 31.75415 43.11357
#
# Poissons Ratio (x) = 0.25078 0.27253
# Poissons Ratio (y) = 0.61767 0.33785
# Poissons Ratio (z) = 0.49439 0.24884
#
# Static dielectric constant tensor:
#      x y z
#    x 1.793640 0.000000 0.000000 
#    y 0.000000 1.834140 0.000000 
#    z 0.000000 0.000000 1.835910 
# 
# From -- ./inp_files/9814.got.cif
#   From: 2010.05.17/outbox.cif.g08.bks.cpg/sg24_5_cif.got.tgz:9814.got - 2010.06.04 00:33:39.
