data_PCOD9334723
_publ_section_title
;
Structure prediction by ZEFSAII (Michael W. Deem and Ramdas Pophale) SiO2 
 PCOD9334723
Probable space group: I 21 21 21
;
_chemical_formula_sum "Si O2"
_cell_formula_units_Z 40
_cell_length_a 8.971401
_cell_length_b 16.432271
_cell_length_c 11.611307
_cell_angle_alpha 90.000000
_cell_angle_beta 90.000000
_cell_angle_gamma 90.000000
_cell_volume 1711.744596
_symmetry_space_group_name_H-M "I 21 21 21"
_symmetry_group_IT_number 24
_symmetry_cell_setting 'orthorhombic'
loop_
_space_group_symop_operation_xyz
x,y,z
-x,1/2-y,z
x,-y,1/2-z
1/2-x,y,-z
1/2+x,1/2+y,1/2+z
1/2-x,-y,1/2+z
1/2+x,1/2-y,-z
-x,1/2+y,1/2-z
loop_
_atom_site_type_symbol
_atom_site_label
_atom_site_fract_x
_atom_site_fract_y
_atom_site_fract_z
Si Si1 0.405961 0.111764 0.551762
Si Si2 0.580230 0.330240 0.105349
Si Si3 0.333372 0.766645 0.746021
Si Si4 0.596179 0.138059 0.341103
Si Si5 0.087854 0.478260 0.981212
O O1 0.250000 0.079233 0.500000
O O2 0.355843 0.166596 0.655495
O O3 0.499413 0.161609 0.454550
O O4 0.519597 0.038228 0.577670
O O5 0.500000 0.250000 0.059760
O O6 0.745021 0.303831 0.138552
O O7 0.507942 0.349167 0.231543
O O8 0.535456 0.410467 0.038462
O O9 0.500000 0.750000 0.708729
O O10 0.241560 0.691479 0.806581
O O11 0.616354 0.042851 0.375721
O O12 0.250000 0.440210 0.000000
#
# Coordination Sequence:
#
# PCOD9334723 Si02
#       5
#     8   8   8   8   8
#     4  10  21  32  58  96 134 169 209 262 330 402
#     4  10  21  40  63  88 126 174 222 270 324 383
#     4  11  21  33  59 101 134 167 214 272 332 391
#     4   9  21  35  60  94 132 176 207 264 333 390
#     4  10  21  40  62  90 126 176 223 267 327 384
#
# _framework density 23.367972000000002
#
# number of rings (size 3 to 8) (size 9 to 14) (size 15 to 20)
#    1.200    0.800    2.000    1.800    2.800    0.000 
#    0.000    5.000    0.000    6.000    0.000    0.000 
#    0.000    0.000    0.000    0.000    0.000    0.000 
#
# Total GULP energy -111498.904111 kJ/mol
# GULP energy per Si atom -5574.945206 kJ/mol
# Density = 2.331479 g / cm^3
# Si number density = 23.367972 Si / 1000 Ang^3
#
#
#
# Elastic Constant Matrix: (Units=GPa)
#
#
# Indices 1 2 3 4 5 6 
#
# 1 177.3361 44.9362 4.2882 0.0000 0.0000 0.0000
# 2 44.9362 118.5260 11.6359 0.0001 0.0000 0.0000
# 3 4.2882 11.6359 27.1024 0.0001 0.0000 0.0000
# 4 0.0000 0.0001 0.0001 16.3683 0.0000 0.0000
# 5 0.0000 0.0000 0.0000 0.0000 -22.9674 0.0000
# 6 0.0000 0.0000 0.0000 0.0000 0.0000 26.1086
#
#
#
# Elastic Compliance Matrix: (Units=1/GPa)
#
#
# Indices 1 2 3 4 5 6 
#
# 1 0.006238 -0.002368 0.000030 0.000000 0.000000 0.000000
# 2 -0.002368 0.009707 -0.003793 0.000000 0.000000 0.000000
# 3 0.000030 -0.003793 0.038521 0.000000 0.000000 0.000000
# 4 0.000000 0.000000 0.000000 0.061094 0.000000 0.000000
# 5 0.000000 0.000000 0.000000 0.000000 -0.043540 0.000000
# 6 0.000000 0.000000 0.000000 0.000000 0.000000 0.038302
#
#
# Mechanical properties :
#
#
# Convention : Reuss Voigt Hill
#
# Bulk Modulus (GPa) = 23.69460 49.40945 36.55203
# Shear Modulus (GPa) = 36.58923 21.37550 28.98237
#
# Velocity S-wave (km/s) = 3.96129 3.02774 3.52555
# Velocity P-wave (km/s) = 5.57533 5.78039 5.67878
#
# Compressibility (1/GPa) = 0.04220371
#
# Stress axis : x y z
#
# Youngs Moduli (GPa) = 160.29907 103.01738 25.95998
#
# Poissons Ratio (x) = 0.24395 -0.00077
# Poissons Ratio (y) = 0.37959 0.09846
# Poissons Ratio (z) = -0.00475 0.39073
#
# Static dielectric constant tensor:
#      x y z
#    x 1.936000 0.000000 0.000000 
#    y 0.000000 1.943260 0.000000 
#    z 0.000000 0.000000 1.927730 
# 
# From -- ./inp_files/24646.got.cif
#   From: 2010.05.17/outbox.cif.g08.bks.cpg/sg24_13_cif.got.tgz:24646.got - 2010.06.04 00:33:39.
