data_PCOD9334342
_publ_section_title
;
Structure prediction by ZEFSAII (Michael W. Deem and Ramdas Pophale) SiO2 
 PCOD9334342
Probable space group: I 21 21 21
;
_chemical_formula_sum "Si O2"
_cell_formula_units_Z 60
_cell_length_a 25.378449
_cell_length_b 17.396602
_cell_length_c 6.432134
_cell_angle_alpha 90.000000
_cell_angle_beta 90.000000
_cell_angle_gamma 90.000000
_cell_volume 2839.779292
_symmetry_space_group_name_H-M "I 21 21 21"
_symmetry_group_IT_number 24
_symmetry_cell_setting 'orthorhombic'
loop_
_space_group_symop_operation_xyz
x,y,z
-x,1/2-y,z
x,-y,1/2-z
1/2-x,y,-z
1/2+x,1/2+y,1/2+z
1/2-x,-y,1/2+z
1/2+x,1/2-y,-z
-x,1/2+y,1/2-z
loop_
_atom_site_type_symbol
_atom_site_label
_atom_site_fract_x
_atom_site_fract_y
_atom_site_fract_z
Si Si1 0.872361 0.972892 0.007610
Si Si2 0.414826 0.916117 0.246161
Si Si3 0.490284 0.567805 0.924058
Si Si4 0.175911 0.668917 0.166689
Si Si5 0.340882 0.225960 0.296903
Si Si6 0.892673 0.137471 0.943883
Si Si7 0.250000 0.728393 0.500000
Si Si8 0.493555 0.839699 0.548222
O O1 0.931677 0.939463 0.981800
O O2 0.829280 0.905685 0.021077
O O3 0.873327 0.000000 0.250000
O O4 0.865473 0.944589 0.605331
O O5 0.373445 0.851634 0.178906
O O6 0.442140 0.879864 0.452757
O O7 0.388533 0.000000 0.250000
O O8 0.463993 0.931784 0.092640
O O9 0.496330 0.500000 0.750000
O O10 0.500105 0.644952 0.792011
O O11 0.126402 0.665636 0.326950
O O12 0.223920 0.674466 0.325571
O O13 0.177873 0.742680 0.019235
O O14 0.378397 0.294250 0.209960
O O15 0.294293 0.223563 0.124499
O O16 0.954338 0.121865 0.952398
O O17 0.500000 0.750000 0.499445
#
# Coordination Sequence:
#
# PCOD9334342 Si02
#       8
#     8   8   8   8   8   8   4   8
#     4   9  17  35  61  90 134 179 215 248 309 383
#     4  12  26  40  64 101 140 177 228 274 335 402
#     4  11  21  38  59  90 139 187 213 259 320 382
#     4  10  21  40  69  95 120 170 221 271 334 394
#     4  11  25  42  68  94 122 174 221 280 345 397
#     4  10  20  38  59  94 137 179 218 258 311 385
#     4  10  24  48  72  86 128 164 220 294 348 390
#     4  12  23  37  58  95 143 187 222 259 312 395
#
# _framework density 21.128402000000001
#
# number of rings (size 3 to 8) (size 9 to 14) (size 15 to 20)
#    0.000    1.333    6.667    0.400    3.733    1.067 
#    0.000    0.000   61.600    0.000    0.000    0.000 
#    0.000    0.000    0.000    0.000    0.000    0.000 
#
# Total GULP energy -167451.846178 kJ/mol
# GULP energy per Si atom -5581.728206 kJ/mol
# Density = 2.108031 g / cm^3
# Si number density = 21.128402 Si / 1000 Ang^3
#
#
#
# Elastic Constant Matrix: (Units=GPa)
#
#
# Indices 1 2 3 4 5 6 
#
# 1 73.1631 36.5322 22.7874 0.0000 0.0000 0.0000
# 2 36.5322 151.3177 40.7272 0.0000 0.0000 0.0000
# 3 22.7874 40.7272 73.6088 0.0000 0.0000 0.0000
# 4 0.0000 0.0000 0.0000 27.8645 0.0000 0.0000
# 5 0.0000 0.0000 0.0000 0.0000 32.1874 0.0000
# 6 0.0000 0.0000 0.0000 0.0000 0.0000 13.2200
#
#
#
# Elastic Compliance Matrix: (Units=1/GPa)
#
#
# Indices 1 2 3 4 5 6 
#
# 1 0.016217 -0.003013 -0.003353 0.000000 0.000000 0.000000
# 2 -0.003013 0.008325 -0.003673 0.000000 0.000000 0.000000
# 3 -0.003353 -0.003673 0.016656 0.000000 0.000000 0.000000
# 4 0.000000 0.000000 0.000000 0.035888 0.000000 0.000000
# 5 0.000000 0.000000 0.000000 0.000000 0.031068 0.000000
# 6 0.000000 0.000000 0.000000 0.000000 0.000000 0.075643
#
#
# Mechanical properties :
#
#
# Convention : Reuss Voigt Hill
#
# Bulk Modulus (GPa) = 47.35170 55.35367 51.35268
# Shear Modulus (GPa) = 23.70630 27.85724 25.78177
#
# Velocity S-wave (km/s) = 3.35328 3.63502 3.49699
# Velocity P-wave (km/s) = 6.11986 6.62370 6.37676
#
# Compressibility (1/GPa) = 0.02111857
#
# Stress axis : x y z
#
# Youngs Moduli (GPa) = 61.66429 120.12579 60.03876
#
# Poissons Ratio (x) = 0.36189 0.20134
# Poissons Ratio (y) = 0.18577 0.22054
# Poissons Ratio (z) = 0.20679 0.44126
#
# Static dielectric constant tensor:
#      x y z
#    x 1.758760 0.000000 0.000000 
#    y 0.000000 1.807170 0.000000 
#    z 0.000000 0.000000 1.916800 
# 
# From -- ./inp_files/7292.got.cif
#   From: 2010.05.17/outbox.cif.g08.bks.cpg/sg24_4_cif.got.tgz:7292.got - 2010.06.04 00:33:39.
