data_PCOD9334534
_publ_section_title
;
Structure prediction by ZEFSAII (Michael W. Deem and Ramdas Pophale) SiO2 
 PCOD9334534
Probable space group: I 21 21 21
;
_chemical_formula_sum "Si O2"
_cell_formula_units_Z 36
_cell_length_a 5.357246
_cell_length_b 13.977953
_cell_length_c 23.172869
_cell_angle_alpha 90.000000
_cell_angle_beta 90.000000
_cell_angle_gamma 90.000000
_cell_volume 1735.261661
_symmetry_space_group_name_H-M "I 21 21 21"
_symmetry_group_IT_number 24
_symmetry_cell_setting 'orthorhombic'
loop_
_space_group_symop_operation_xyz
x,y,z
-x,1/2-y,z
x,-y,1/2-z
1/2-x,y,-z
1/2+x,1/2+y,1/2+z
1/2-x,-y,1/2+z
1/2+x,1/2-y,-z
-x,1/2+y,1/2-z
loop_
_atom_site_type_symbol
_atom_site_label
_atom_site_fract_x
_atom_site_fract_y
_atom_site_fract_z
Si Si1 0.250000 0.813020 0.500000
Si Si2 0.134600 0.154602 0.782958
Si Si3 0.238454 0.500000 0.750000
Si Si4 0.330414 0.034925 0.100612
Si Si5 0.152613 0.564089 0.130116
Si Si6 0.000000 0.250000 0.308952
O O1 0.500000 0.750000 0.513002
O O2 0.323030 0.883527 0.447734
O O3 0.192463 0.092212 0.838895
O O4 0.337865 0.186450 0.735925
O O5 0.000000 0.250000 0.804410
O O6 0.935909 0.092065 0.748428
O O7 0.378542 0.505029 0.809742
O O8 0.587910 0.974169 0.103514
O O9 0.091087 0.965719 0.094056
O O10 0.142486 0.674825 0.149658
#
# Coordination Sequence:
#
# PCOD9334534 Si02
#       6
#     4   8   4   8   8   4
#     4  12  26  48  76  98 126 172 228 286 340 400
#     4  11  22  35  58  90 134 172 219 262 321 401
#     4  10  20  40  52  90 134 176 210 268 324 394
#     4  11  26  42  65  95 132 170 220 284 337 379
#     4  11  23  40  62  93 134 173 218 269 327 400
#     4  12  22  36  64  96 132 182 220 256 324 418
#
# _framework density 20.746148999999999
#
# number of rings (size 3 to 8) (size 9 to 14) (size 15 to 20)
#    0.000    0.889    2.222    6.000    4.667    0.889 
#    0.000    0.000    0.000    2.667    0.000    0.000 
#    0.000    0.000    0.000    0.000    0.000    0.000 
#
# Total GULP energy -100468.336557 kJ/mol
# GULP energy per Si atom -5581.574253 kJ/mol
# Density = 2.069893 g / cm^3
# Si number density = 20.746149 Si / 1000 Ang^3
#
#
#
# Elastic Constant Matrix: (Units=GPa)
#
#
# Indices 1 2 3 4 5 6 
#
# 1 145.9721 83.3201 48.5255 0.0000 0.0000 0.0000
# 2 83.3201 109.9452 27.9610 0.0000 0.0000 0.0000
# 3 48.5255 27.9610 58.3916 0.0000 0.0000 0.0000
# 4 0.0000 0.0000 0.0000 37.6776 0.0000 0.0000
# 5 0.0000 0.0000 0.0000 0.0000 20.0050 0.0000
# 6 0.0000 0.0000 0.0000 0.0000 0.0000 25.8491
#
#
#
# Elastic Compliance Matrix: (Units=1/GPa)
#
#
# Indices 1 2 3 4 5 6 
#
# 1 0.014650 -0.009116 -0.007810 0.000000 0.000000 0.000000
# 2 -0.009116 0.016030 -0.000100 0.000000 0.000000 0.000000
# 3 -0.007810 -0.000100 0.023663 0.000000 0.000000 0.000000
# 4 0.000000 0.000000 0.000000 0.026541 0.000000 0.000000
# 5 0.000000 0.000000 0.000000 0.000000 0.049988 0.000000
# 6 0.000000 0.000000 0.000000 0.000000 0.000000 0.038686
#
#
# Mechanical properties :
#
#
# Convention : Reuss Voigt Hill
#
# Bulk Modulus (GPa) = 49.28044 70.43578 59.85811
# Shear Modulus (GPa) = 23.76729 27.00651 25.38690
#
# Velocity S-wave (km/s) = 3.38838 3.61191 3.50193
# Velocity P-wave (km/s) = 6.25410 7.17073 6.72804
#
# Compressibility (1/GPa) = 0.02029203
#
# Stress axis : x y z
#
# Youngs Moduli (GPa) = 68.25777 62.38489 42.25922
#
# Poissons Ratio (x) = 0.56873 0.33002
# Poissons Ratio (y) = 0.62227 0.00421
# Poissons Ratio (z) = 0.53306 0.00622
#
# Static dielectric constant tensor:
#      x y z
#    x 1.800790 0.000000 0.000000 
#    y 0.000000 1.734520 0.000000 
#    z 0.000000 0.000000 1.759130 
# 
# From -- ./inp_files/5398.got.cif
#   From: 2010.05.17/outbox.cif.g08.bks.cpg/sg24_3_cif.got.tgz:5398.got - 2010.06.04 00:33:39.
