data_PCOD9334577
_publ_section_title
;
Structure prediction by ZEFSAII (Michael W. Deem and Ramdas Pophale) SiO2 
 PCOD9334577
Probable space group: I 21 21 21
;
_chemical_formula_sum "Si O2"
_cell_formula_units_Z 60
_cell_length_a 8.563077
_cell_length_b 11.194494
_cell_length_c 28.653576
_cell_angle_alpha 90.000000
_cell_angle_beta 90.000000
_cell_angle_gamma 90.000000
_cell_volume 2746.712142
_symmetry_space_group_name_H-M "I 21 21 21"
_symmetry_group_IT_number 24
_symmetry_cell_setting 'orthorhombic'
loop_
_space_group_symop_operation_xyz
x,y,z
-x,1/2-y,z
x,-y,1/2-z
1/2-x,y,-z
1/2+x,1/2+y,1/2+z
1/2-x,-y,1/2+z
1/2+x,1/2-y,-z
-x,1/2+y,1/2-z
loop_
_atom_site_type_symbol
_atom_site_label
_atom_site_fract_x
_atom_site_fract_y
_atom_site_fract_z
Si Si1 0.577003 0.623943 0.976600
Si Si2 0.930096 0.125023 0.723038
Si Si3 0.808554 0.763251 0.550362
Si Si4 0.282015 0.316192 0.638629
Si Si5 0.846455 0.557263 0.861232
Si Si6 0.464095 0.002345 0.621938
Si Si7 0.000000 0.750000 0.391392
Si Si8 0.901736 0.978287 0.934957
O O1 0.500000 0.750000 0.961220
O O2 0.569628 0.533486 0.932770
O O3 0.750000 0.635736 0.000000
O O4 0.464826 0.578737 0.017927
O O5 0.785875 0.164840 0.690543
O O6 0.000000 0.250000 0.745361
O O7 0.052991 0.084288 0.683610
O O8 0.898378 0.000000 0.750000
O O9 0.750000 0.719380 0.500000
O O10 0.664302 0.718681 0.582354
O O11 0.000000 0.750000 0.556211
O O12 0.801311 0.906605 0.553510
O O13 0.228704 0.184015 0.623570
O O14 0.449068 0.379225 0.639807
O O15 0.196895 0.392812 0.598281
O O16 0.695744 0.482291 0.850332
O O17 0.946925 0.498566 0.902224
O O18 0.549061 0.876964 0.630571
#
# Coordination Sequence:
#
# PCOD9334577 Si02
#       8
#     8   8   8   8   8   8   4   8
#     4  12  26  37  58  89 127 166 226 283 323 376
#     4   9  20  42  69 102 131 164 208 262 326 412
#     4  12  25  40  60  78 118 176 228 282 335 381
#     4  10  21  39  65  92 129 168 205 258 328 397
#     4  10  20  40  66  92 128 164 208 256 329 405
#     4  12  24  41  60  89 129 175 216 269 331 376
#     4  12  26  44  58  86 128 162 234 276 316 398
#     4  11  22  38  56  88 120 165 219 267 322 369
#
# _framework density 21.8443
#
# number of rings (size 3 to 8) (size 9 to 14) (size 15 to 20)
#    0.000    1.067    3.333    4.800    1.867    0.000 
#    2.400    2.000    0.000    0.000    0.000    0.000 
#    0.000    0.000    0.000    0.000    0.000    0.000 
#
# Total GULP energy -167070.082133 kJ/mol
# GULP energy per Si atom -5569.002738 kJ/mol
# Density = 2.179458 g / cm^3
# Si number density = 21.844300 Si / 1000 Ang^3
#
#
#
# Elastic Constant Matrix: (Units=GPa)
#
#
# Indices 1 2 3 4 5 6 
#
# 1 77.3053 -15.3033 -6.1211 0.0000 0.0000 0.0000
# 2 -15.3033 98.0009 13.6184 0.0000 0.0000 0.0000
# 3 -6.1211 13.6184 20.9176 0.0000 0.0000 0.0000
# 4 0.0000 0.0000 0.0000 11.4515 0.0000 0.0000
# 5 0.0000 0.0000 0.0000 0.0000 3.8824 0.0000
# 6 0.0000 0.0000 0.0000 0.0000 0.0000 26.7590
#
#
#
# Elastic Compliance Matrix: (Units=1/GPa)
#
#
# Indices 1 2 3 4 5 6 
#
# 1 0.013499 0.001714 0.002834 0.000000 0.000000 0.000000
# 2 0.001714 0.011437 -0.006944 0.000000 0.000000 0.000000
# 3 0.002834 -0.006944 0.053157 0.000000 0.000000 0.000000
# 4 0.000000 0.000000 0.000000 0.087325 0.000000 0.000000
# 5 0.000000 0.000000 0.000000 0.000000 0.257575 0.000000
# 6 0.000000 0.000000 0.000000 0.000000 0.000000 0.037371
#
#
# Mechanical properties :
#
#
# Convention : Reuss Voigt Hill
#
# Bulk Modulus (GPa) = 13.64223 20.06796 16.85509
# Shear Modulus (GPa) = 10.21265 22.02057 16.11661
#
# Velocity S-wave (km/s) = 2.16457 3.17846 2.71918
# Velocity P-wave (km/s) = 3.53637 4.76202 4.19421
#
# Compressibility (1/GPa) = 0.07330182
#
# Stress axis : x y z
#
# Youngs Moduli (GPa) = 74.07691 87.43827 18.81218
#
# Poissons Ratio (x) = -0.14988 -0.05332
# Poissons Ratio (y) = -0.12698 0.13064
# Poissons Ratio (z) = -0.20996 0.60719
#
# Static dielectric constant tensor:
#      x y z
#    x 1.943560 0.000000 0.000000 
#    y 0.000000 1.887810 0.000000 
#    z 0.000000 0.000000 1.786960 
# 
# From -- ./inp_files/38403.got.cif
#   From: 2010.05.17/outbox.cif.g08.bks.cpg/sg24_20_cif.got.tgz:38403.got - 2010.06.04 00:33:39.
