data_PCOD9334469
_publ_section_title
;
Structure prediction by ZEFSAII (Michael W. Deem and Ramdas Pophale) SiO2 
 PCOD9334469
Probable space group: I 21 21 21
;
_chemical_formula_sum "Si O2"
_cell_formula_units_Z 64
_cell_length_a 11.327742
_cell_length_b 9.147540
_cell_length_c 29.085357
_cell_angle_alpha 90.000000
_cell_angle_beta 90.000000
_cell_angle_gamma 90.000000
_cell_volume 3013.852994
_symmetry_space_group_name_H-M "I 21 21 21"
_symmetry_group_IT_number 24
_symmetry_cell_setting 'orthorhombic'
loop_
_space_group_symop_operation_xyz
x,y,z
-x,1/2-y,z
x,-y,1/2-z
1/2-x,y,-z
1/2+x,1/2+y,1/2+z
1/2-x,-y,1/2+z
1/2+x,1/2-y,-z
-x,1/2+y,1/2-z
loop_
_atom_site_type_symbol
_atom_site_label
_atom_site_fract_x
_atom_site_fract_y
_atom_site_fract_z
Si Si1 0.298113 0.304196 0.815543
Si Si2 0.951500 0.086551 0.796062
Si Si3 0.622493 0.669939 0.083541
Si Si4 0.533435 0.913714 0.605150
Si Si5 0.584516 0.358084 0.730252
Si Si6 0.790315 0.494047 0.351048
Si Si7 0.752316 0.951995 0.052812
Si Si8 0.476519 0.420789 0.098365
O O1 0.190369 0.403465 0.800134
O O2 0.391573 0.381494 0.848549
O O3 0.363695 0.235380 0.771860
O O4 0.248883 0.161431 0.843343
O O5 0.989607 0.036087 0.847391
O O6 0.000000 0.250000 0.790358
O O7 0.986173 0.000000 0.750000
O O8 0.500000 0.750000 0.096267
O O9 0.705381 0.617121 0.124135
O O10 0.701862 0.785176 0.055442
O O11 0.567718 0.514654 0.066966
O O12 0.500000 0.750000 0.586592
O O13 0.412133 0.989851 0.620458
O O14 0.618986 0.011022 0.573439
O O15 0.500000 0.250000 0.702774
O O16 0.518241 0.500000 0.750000
O O17 0.683292 0.426247 0.698452
O O18 0.655736 0.041375 0.082415
O O19 0.750000 0.998161 0.000000
O O20 0.500000 0.250000 0.094443
#
# Coordination Sequence:
#
# PCOD9334469 Si02
#       8
#     8   8   8   8   8   8   8   8
#     4  10  20  39  60  90 131 177 220 285 332 381
#     4  11  24  38  62  97 135 183 235 279 324 398
#     4  10  24  44  65  96 134 176 214 276 353 413
#     4  10  22  41  70  97 133 174 227 285 344 407
#     4  10  21  35  54  87 127 170 220 267 315 387
#     4  10  21  38  65  92 128 178 223 270 332 407
#     4  11  25  46  70 102 137 170 224 294 358 421
#     4  10  22  46  75  95 136 187 234 277 343 413
#
# _framework density 21.235275999999999
#
# number of rings (size 3 to 8) (size 9 to 14) (size 15 to 20)
#    0.000    1.750    1.250    3.375    3.500    8.000 
#    6.750    0.625    0.000    0.000    0.000    0.000 
#    0.000    0.000    0.000    0.000    0.000    0.000 
#
# Total GULP energy -178521.569291 kJ/mol
# GULP energy per Si atom -5578.799040 kJ/mol
# Density = 2.118694 g / cm^3
# Si number density = 21.235276 Si / 1000 Ang^3
#
#
#
# Elastic Constant Matrix: (Units=GPa)
#
#
# Indices 1 2 3 4 5 6 
#
# 1 82.4869 29.7035 30.8485 0.0000 0.0000 0.0000
# 2 29.7035 60.2591 23.5513 0.0000 0.0000 0.0000
# 3 30.8485 23.5513 83.0077 0.0000 0.0000 0.0000
# 4 0.0000 0.0000 0.0000 18.5869 0.0000 0.0000
# 5 0.0000 0.0000 0.0000 0.0000 6.0148 0.0000
# 6 0.0000 0.0000 0.0000 0.0000 0.0000 29.0481
#
#
#
# Elastic Compliance Matrix: (Units=1/GPa)
#
#
# Indices 1 2 3 4 5 6 
#
# 1 0.015916 -0.006224 -0.004149 0.000000 0.000000 0.000000
# 2 -0.006224 0.021099 -0.003673 0.000000 0.000000 0.000000
# 3 -0.004149 -0.003673 0.014631 0.000000 0.000000 0.000000
# 4 0.000000 0.000000 0.000000 0.053801 0.000000 0.000000
# 5 0.000000 0.000000 0.000000 0.000000 0.166258 0.000000
# 6 0.000000 0.000000 0.000000 0.000000 0.000000 0.034426
#
#
# Mechanical properties :
#
#
# Convention : Reuss Voigt Hill
#
# Bulk Modulus (GPa) = 42.45651 43.77336 43.11493
# Shear Modulus (GPa) = 14.61673 20.17331 17.39502
#
# Velocity S-wave (km/s) = 2.62644 3.08554 2.86520
# Velocity P-wave (km/s) = 5.40688 5.77514 5.59404
#
# Compressibility (1/GPa) = 0.02355351
#
# Stress axis : x y z
#
# Youngs Moduli (GPa) = 62.82972 47.39659 68.34722
#
# Poissons Ratio (x) = 0.29499 0.28358
# Poissons Ratio (y) = 0.39105 0.25105
# Poissons Ratio (z) = 0.26068 0.17409
#
# Static dielectric constant tensor:
#      x y z
#    x 1.830150 0.000000 0.000000 
#    y 0.000000 1.847000 0.000000 
#    z 0.000000 0.000000 1.752450 
# 
# From -- ./inp_files/38641.got.cif
#   From: 2010.05.17/outbox.cif.g08.bks.cpg/sg24_20_cif.got.tgz:38641.got - 2010.06.04 00:33:39.
