data_PCOD9334290
_publ_section_title
;
Structure prediction by ZEFSAII (Michael W. Deem and Ramdas Pophale) SiO2 
 PCOD9334290
Probable space group: I 21 21 21
;
_chemical_formula_sum "Si O2"
_cell_formula_units_Z 64
_cell_length_a 17.486999
_cell_length_b 14.926808
_cell_length_c 13.598008
_cell_angle_alpha 90.000000
_cell_angle_beta 90.000000
_cell_angle_gamma 90.000000
_cell_volume 3549.421079
_symmetry_space_group_name_H-M "I 21 21 21"
_symmetry_group_IT_number 24
_symmetry_cell_setting 'orthorhombic'
loop_
_space_group_symop_operation_xyz
x,y,z
-x,1/2-y,z
x,-y,1/2-z
1/2-x,y,-z
1/2+x,1/2+y,1/2+z
1/2-x,-y,1/2+z
1/2+x,1/2-y,-z
-x,1/2+y,1/2-z
loop_
_atom_site_type_symbol
_atom_site_label
_atom_site_fract_x
_atom_site_fract_y
_atom_site_fract_z
Si Si1 0.151258 0.104058 0.271403
Si Si2 0.576366 0.466004 0.076276
Si Si3 0.426471 0.186948 0.916509
Si Si4 0.424313 0.582941 0.303078
Si Si5 0.415034 0.744882 0.146014
Si Si6 0.316938 0.849336 0.296329
Si Si7 0.658365 0.358712 0.504527
Si Si8 0.821361 0.192835 0.944313
O O1 0.107882 0.159826 0.187899
O O2 0.242292 0.116131 0.257193
O O3 0.134999 0.137576 0.381222
O O4 0.133096 0.000000 0.250000
O O5 0.504327 0.453096 0.150191
O O6 0.648927 0.422725 0.131294
O O7 0.604820 0.564233 0.045063
O O8 0.559527 0.402757 0.981700
O O9 0.500000 0.250000 0.907516
O O10 0.366673 0.245105 0.979439
O O11 0.384962 0.500000 0.250000
O O12 0.423768 0.658566 0.217795
O O13 0.377635 0.623499 0.393422
O O14 0.500000 0.750000 0.104188
O O15 0.384731 0.818944 0.223824
O O16 0.358918 0.766121 0.054363
O O17 0.295057 0.761450 0.359066
O O18 0.750000 0.378526 0.500000
O O19 0.750000 0.150922 0.000000
#
# Coordination Sequence:
#
# PCOD9334290 Si02
#       8
#     8   8   8   8   8   8   8   8
#     4  12  23  39  59  91 131 174 212 254 322 407
#     4  11  22  36  61  95 130 162 202 267 328 388
#     4  11  22  39  60  89 124 165 217 258 308 389
#     4  11  23  40  65  93 120 160 213 276 327 374
#     4  11  22  40  60  92 131 163 213 261 325 391
#     4  10  21  33  60  91 127 162 199 257 319 388
#     4  12  25  39  62  98 138 173 209 266 338 408
#     4  10  20  37  63  88 118 159 214 265 318 371
#
# _framework density 18.031110000000002
#
# number of rings (size 3 to 8) (size 9 to 14) (size 15 to 20)
#    0.000    1.000    6.250    1.500    0.000    0.500 
#    0.000    0.625    0.000    2.250    0.000    0.000 
#    0.000    0.000    0.000    0.000    0.000    0.000 
#
# Total GULP energy -178343.224435 kJ/mol
# GULP energy per Si atom -5573.225764 kJ/mol
# Density = 1.799007 g / cm^3
# Si number density = 18.031110 Si / 1000 Ang^3
#
#
#
# Elastic Constant Matrix: (Units=GPa)
#
#
# Indices 1 2 3 4 5 6 
#
# 1 70.9214 37.8739 30.2554 0.0000 0.0000 0.0000
# 2 37.8739 54.6228 44.9123 0.0000 0.0000 0.0000
# 3 30.2554 44.9123 129.4430 0.0000 0.0000 0.0000
# 4 0.0000 0.0000 0.0000 26.6371 0.0000 0.0000
# 5 0.0000 0.0000 0.0000 0.0000 33.4294 0.0000
# 6 0.0000 0.0000 0.0000 0.0000 0.0000 26.4869
#
#
#
# Elastic Compliance Matrix: (Units=1/GPa)
#
#
# Indices 1 2 3 4 5 6 
#
# 1 0.022395 -0.015704 0.000214 0.000000 0.000000 0.000000
# 2 -0.015704 0.036628 -0.009038 0.000000 0.000000 0.000000
# 3 0.000214 -0.009038 0.010811 0.000000 0.000000 0.000000
# 4 0.000000 0.000000 0.000000 0.037542 0.000000 0.000000
# 5 0.000000 0.000000 0.000000 0.000000 0.029914 0.000000
# 6 0.000000 0.000000 0.000000 0.000000 0.000000 0.037754
#
#
# Mechanical properties :
#
#
# Convention : Reuss Voigt Hill
#
# Bulk Modulus (GPa) = 48.12772 53.45227 50.78999
# Shear Modulus (GPa) = 21.64261 26.77371 24.20816
#
# Velocity S-wave (km/s) = 3.46828 3.85757 3.66809
# Velocity P-wave (km/s) = 6.54126 7.03917 6.79478
#
# Compressibility (1/GPa) = 0.02077805
#
# Stress axis : x y z
#
# Youngs Moduli (GPa) = 44.65230 27.30187 92.49731
#
# Poissons Ratio (x) = 0.42876 -0.01983
# Poissons Ratio (y) = 0.70124 0.83597
# Poissons Ratio (z) = -0.00957 0.24675
#
# Static dielectric constant tensor:
#      x y z
#    x 1.619640 0.000000 0.000000 
#    y 0.000000 1.650630 0.000000 
#    z 0.000000 0.000000 1.648710 
# 
# From -- ./inp_files/21071.got.cif
#   From: 2010.05.17/outbox.cif.g08.bks.cpg/sg24_11_cif.got.tgz:21071.got - 2010.06.04 00:33:39.
