data_PCOD9334479
_publ_section_title
;
Structure prediction by ZEFSAII (Michael W. Deem and Ramdas Pophale) SiO2 
 PCOD9334479
Probable space group: I 21 21 21
;
_chemical_formula_sum "Si O2"
_cell_formula_units_Z 28
_cell_length_a 7.804096
_cell_length_b 13.602489
_cell_length_c 11.116594
_cell_angle_alpha 90.000000
_cell_angle_beta 90.000000
_cell_angle_gamma 90.000000
_cell_volume 1180.083481
_symmetry_space_group_name_H-M "I 21 21 21"
_symmetry_group_IT_number 24
_symmetry_cell_setting 'orthorhombic'
loop_
_space_group_symop_operation_xyz
x,y,z
-x,1/2-y,z
x,-y,1/2-z
1/2-x,y,-z
1/2+x,1/2+y,1/2+z
1/2-x,-y,1/2+z
1/2+x,1/2-y,-z
-x,1/2+y,1/2-z
loop_
_atom_site_type_symbol
_atom_site_label
_atom_site_fract_x
_atom_site_fract_y
_atom_site_fract_z
Si Si1 0.281344 0.314317 0.760764
Si Si2 0.133297 0.889475 0.204056
Si Si3 0.991913 0.426264 0.635714
Si Si4 0.250000 0.444762 0.000000
O O1 0.301978 0.199338 0.791867
O O2 0.115881 0.340525 0.682586
O O3 0.282539 0.378188 0.882539
O O4 0.557490 0.850262 0.820094
O O5 0.297393 0.894006 0.117225
O O6 0.111219 0.000000 0.250000
O O7 0.984365 0.500000 0.750000
O O8 0.086331 0.487510 0.531825
#
# Coordination Sequence:
#
# PCOD9334479 Si02
#       4
#     8   8   8   4
#     4  10  21  40  65  92 137 176 226 280 347 394
#     4  10  20  39  62  91 129 180 214 268 343 407
#     4   9  19  38  63  90 137 174 213 279 348 393
#     4  10  20  40  68 102 130 178 232 294 324 406
#
# _framework density 23.727135000000001
#
# number of rings (size 3 to 8) (size 9 to 14) (size 15 to 20)
#    0.000    2.286    0.000    3.429    0.000    0.000 
#   30.857   10.000   25.143    0.000    0.000    0.000 
#    0.000    0.000    0.000    0.000    0.000    0.000 
#
# Total GULP energy -78057.770855 kJ/mol
# GULP energy per Si atom -5575.555061 kJ/mol
# Density = 2.367313 g / cm^3
# Si number density = 23.727135 Si / 1000 Ang^3
#
#
#
# Elastic Constant Matrix: (Units=GPa)
#
#
# Indices 1 2 3 4 5 6 
#
# 1 178.4560 43.9856 35.8043 0.0000 0.0000 0.0000
# 2 43.9856 165.0688 49.8464 0.0000 0.0000 0.0000
# 3 35.8043 49.8464 102.0168 0.0001 0.0000 0.0000
# 4 0.0000 0.0000 0.0001 3.1611 0.0000 0.0000
# 5 0.0000 0.0000 0.0000 0.0000 12.1492 0.0000
# 6 0.0000 0.0000 0.0000 0.0000 0.0000 38.2245
#
#
#
# Elastic Compliance Matrix: (Units=1/GPa)
#
#
# Indices 1 2 3 4 5 6 
#
# 1 0.006215 -0.001170 -0.001610 0.000000 0.000000 0.000000
# 2 -0.001170 0.007327 -0.003169 0.000000 0.000000 0.000000
# 3 -0.001610 -0.003169 0.011916 -0.000001 0.000000 0.000000
# 4 0.000000 0.000000 -0.000001 0.316343 0.000001 0.000000
# 5 0.000000 0.000000 0.000000 0.000001 0.082310 0.000000
# 6 0.000000 0.000000 0.000000 0.000000 0.000000 0.026161
#
#
# Mechanical properties :
#
#
# Convention : Reuss Voigt Hill
#
# Bulk Modulus (GPa) = 73.74758 78.31268 76.03013
# Shear Modulus (GPa) = 10.71376 31.76732 21.24054
#
# Velocity S-wave (km/s) = 2.12725 3.66301 2.99524
# Velocity P-wave (km/s) = 6.09776 7.13915 6.63890
#
# Compressibility (1/GPa) = 0.01355977
#
# Stress axis : x y z
#
# Youngs Moduli (GPa) = 160.90258 136.48297 83.92232
#
# Poissons Ratio (x) = 0.15969 0.13508
# Poissons Ratio (y) = 0.18826 0.26598
# Poissons Ratio (z) = 0.25898 0.43256
#
# Static dielectric constant tensor:
#      x y z
#    x 1.933310 0.000000 0.000000 
#    y 0.000000 1.914840 0.000000 
#    z 0.000000 0.000000 1.897920 
# 
# From -- ./inp_files/19298.got.cif
#   From: 2010.05.17/outbox.cif.g08.bks.cpg/sg24_10_cif.got.tgz:19298.got - 2010.06.04 00:33:39.
