data_PCOD9334823
_publ_section_title
;
Structure prediction by ZEFSAII (Michael W. Deem and Ramdas Pophale) SiO2 
 PCOD9334823
Probable space group: I 21 21 21
;
_chemical_formula_sum "Si O2"
_cell_formula_units_Z 40
_cell_length_a 4.877790
_cell_length_b 17.596363
_cell_length_c 17.786403
_cell_angle_alpha 90.000000
_cell_angle_beta 90.000000
_cell_angle_gamma 90.000000
_cell_volume 1526.631221
_symmetry_space_group_name_H-M "I 21 21 21"
_symmetry_group_IT_number 24
_symmetry_cell_setting 'orthorhombic'
loop_
_space_group_symop_operation_xyz
x,y,z
-x,1/2-y,z
x,-y,1/2-z
1/2-x,y,-z
1/2+x,1/2+y,1/2+z
1/2-x,-y,1/2+z
1/2+x,1/2-y,-z
-x,1/2+y,1/2-z
loop_
_atom_site_type_symbol
_atom_site_label
_atom_site_fract_x
_atom_site_fract_y
_atom_site_fract_z
Si Si1 0.658167 0.672625 0.244112
Si Si2 0.703231 0.042984 0.414491
Si Si3 0.499297 0.159707 0.050432
Si Si4 0.805221 0.354235 0.417690
Si Si5 0.286385 0.593855 0.692131
O O1 0.500000 0.750000 0.269873
O O2 0.747077 0.689799 0.158726
O O3 0.426541 0.605968 0.239868
O O4 0.933364 0.640529 0.288454
O O5 0.750000 0.012481 0.500000
O O6 0.821871 0.987207 0.348674
O O7 0.386551 0.069246 0.412755
O O8 0.883600 0.118785 0.413715
O O9 0.500000 0.250000 0.056743
O O10 0.574779 0.129033 0.130780
O O11 0.250000 0.132773 0.000000
O O12 0.750000 0.141138 0.000000
O O13 0.750000 0.319791 0.500000
#
# Coordination Sequence:
#
# PCOD9334823 Si02
#       5
#     8   8   8   8   8
#     4  12  27  44  65  96 136 183 231 284 351 416
#     4  10  22  41  69 101 133 173 224 282 346 416
#     4  10  21  37  58  85 124 179 230 267 314 385
#     4  10  23  46  70  96 130 172 231 297 353 415
#     4  12  24  40  65  98 140 177 221 281 346 418
#
# _framework density 26.20148
#
# number of rings (size 3 to 8) (size 9 to 14) (size 15 to 20)
#    0.000    1.200    0.000    5.400    0.000   10.400 
#    0.000    5.000    0.000    0.000    0.000    0.000 
#    0.000    0.000    0.000    0.000    0.000    0.000 
#
# Total GULP energy -111590.443494 kJ/mol
# GULP energy per Si atom -5579.522175 kJ/mol
# Density = 2.614184 g / cm^3
# Si number density = 26.201480 Si / 1000 Ang^3
#
#
#
# Elastic Constant Matrix: (Units=GPa)
#
#
# Indices 1 2 3 4 5 6 
#
# 1 183.7231 23.0383 53.5434 0.0000 0.0000 0.0000
# 2 23.0383 66.0091 24.8776 0.0000 0.0000 0.0000
# 3 53.5434 24.8776 146.6525 0.0000 0.0000 0.0000
# 4 0.0000 0.0000 0.0000 313.5052 0.0000 0.0000
# 5 0.0000 0.0000 0.0000 0.0000 47.4880 0.0000
# 6 0.0000 0.0000 0.0000 0.0000 0.0000 32.4313
#
#
#
# Elastic Compliance Matrix: (Units=1/GPa)
#
#
# Indices 1 2 3 4 5 6 
#
# 1 0.006210 -0.001403 -0.002029 0.000000 0.000000 0.000000
# 2 -0.001403 0.016501 -0.002287 0.000000 0.000000 0.000000
# 3 -0.002029 -0.002287 0.007948 0.000000 0.000000 0.000000
# 4 0.000000 0.000000 0.000000 0.003190 0.000000 0.000000
# 5 0.000000 0.000000 0.000000 0.000000 0.021058 0.000000
# 6 0.000000 0.000000 0.000000 0.000000 0.000000 0.030834
#
#
# Mechanical properties :
#
#
# Convention : Reuss Voigt Hill
#
# Bulk Modulus (GPa) = 52.02723 66.58924 59.30823
# Shear Modulus (GPa) = 48.26893 98.34660 73.30777
#
# Velocity S-wave (km/s) = 4.29677 6.13321 5.29521
# Velocity P-wave (km/s) = 6.67203 8.69623 7.75050
#
# Compressibility (1/GPa) = 0.01922070
#
# Stress axis : x y z
#
# Youngs Moduli (GPa) = 161.02223 60.60270 125.82134
#
# Poissons Ratio (x) = 0.08500 0.25535
# Poissons Ratio (y) = 0.22586 0.28776
# Poissons Ratio (z) = 0.32679 0.13860
#
# Static dielectric constant tensor:
#      x y z
#    x 1.707340 0.000000 0.000000 
#    y 0.000000 2.102000 0.000000 
#    z 0.000000 0.000000 2.298630 
# 
# From -- ./inp_files/28710.got.cif
#   From: 2010.05.17/outbox.cif.g08.bks.cpg/sg24_15_cif.got.tgz:28710.got - 2010.06.04 00:33:39.
