data_PCOD9334358
_publ_section_title
;
Structure prediction by ZEFSAII (Michael W. Deem and Ramdas Pophale) SiO2 
 PCOD9334358
Probable space group: I 21 21 21
;
_chemical_formula_sum "Si O2"
_cell_formula_units_Z 64
_cell_length_a 34.358523
_cell_length_b 9.717491
_cell_length_c 9.042170
_cell_angle_alpha 90.000000
_cell_angle_beta 90.000000
_cell_angle_gamma 90.000000
_cell_volume 3018.987404
_symmetry_space_group_name_H-M "I 21 21 21"
_symmetry_group_IT_number 24
_symmetry_cell_setting 'orthorhombic'
loop_
_space_group_symop_operation_xyz
x,y,z
-x,1/2-y,z
x,-y,1/2-z
1/2-x,y,-z
1/2+x,1/2+y,1/2+z
1/2-x,-y,1/2+z
1/2+x,1/2-y,-z
-x,1/2+y,1/2-z
loop_
_atom_site_type_symbol
_atom_site_label
_atom_site_fract_x
_atom_site_fract_y
_atom_site_fract_z
Si Si1 0.514564 0.470861 0.925503
Si Si2 0.212592 0.343874 0.810677
Si Si3 0.444038 0.698241 0.452838
Si Si4 0.057221 0.141424 0.654051
Si Si5 0.799303 0.840207 0.259429
Si Si6 0.359900 0.728902 0.521538
Si Si7 0.135792 0.971388 0.918758
Si Si8 0.290288 0.166446 0.478841
O O1 0.512612 0.500000 0.750000
O O2 0.474151 0.418393 0.996309
O O3 0.542640 0.338333 0.959760
O O4 0.529101 0.605015 0.017468
O O5 0.210763 0.500000 0.750000
O O6 0.258572 0.321750 0.848093
O O7 0.205468 0.234094 0.680459
O O8 0.176546 0.321586 0.921390
O O9 0.448141 0.739540 0.277293
O O10 0.400296 0.650004 0.494108
O O11 0.100982 0.137782 0.588554
O O12 0.055485 0.000000 0.750000
O O13 0.838162 0.770717 0.321895
O O14 0.807912 0.000000 0.250000
O O15 0.789044 0.787233 0.097432
O O16 0.374646 0.880314 0.479455
O O17 0.172614 0.923633 0.009160
O O18 0.147824 0.000000 0.750000
O O19 0.250000 0.086092 0.500000
#
# Coordination Sequence:
#
# PCOD9334358 Si02
#       8
#     8   8   8   8   8   8   8   8
#     4  10  21  39  63  92 125 160 198 253 318 377
#     4  10  20  38  61  82 115 167 215 251 300 365
#     4  10  21  40  64  93 122 156 205 249 304 384
#     4   9  17  39  66  87 115 162 201 243 302 380
#     4  10  23  39  56  85 122 165 207 249 309 366
#     4  12  21  37  64  90 120 157 203 260 305 360
#     4  11  19  37  61  89 118 154 204 250 303 367
#     4  10  21  36  54  84 122 156 202 255 297 356
#
# _framework density 21.199161
#
# number of rings (size 3 to 8) (size 9 to 14) (size 15 to 20)
#    0.000    1.750    5.000    1.125    0.000    5.000 
#    0.000   10.625    0.000    0.000    0.000    0.000 
#    0.000    0.000    0.000    0.000    0.000    0.000 
#
# Total GULP energy -178309.532284 kJ/mol
# GULP energy per Si atom -5572.172884 kJ/mol
# Density = 2.115091 g / cm^3
# Si number density = 21.199161 Si / 1000 Ang^3
#
#
#
# Elastic Constant Matrix: (Units=GPa)
#
#
# Indices 1 2 3 4 5 6 
#
# 1 170.5387 25.8210 55.7302 0.0000 0.0000 0.0000
# 2 25.8210 19.9009 8.9688 0.0000 0.0000 0.0000
# 3 55.7302 8.9688 80.6363 0.0000 0.0000 0.0000
# 4 0.0000 0.0000 0.0000 113.7844 0.0000 0.0000
# 5 0.0000 0.0000 0.0000 0.0000 25.8185 0.0000
# 6 0.0000 0.0000 0.0000 0.0000 0.0000 43.0376
#
#
#
# Elastic Compliance Matrix: (Units=1/GPa)
#
#
# Indices 1 2 3 4 5 6 
#
# 1 0.008956 -0.009297 -0.005156 0.000000 0.000000 0.000000
# 2 -0.009297 0.062552 -0.000532 0.000000 0.000000 0.000000
# 3 -0.005156 -0.000532 0.016024 0.000000 0.000000 0.000000
# 4 0.000000 0.000000 0.000000 0.008789 0.000000 0.000000
# 5 0.000000 0.000000 0.000000 0.000000 0.038732 0.000000
# 6 0.000000 0.000000 0.000000 0.000000 0.000000 0.023236
#
#
# Mechanical properties :
#
#
# Convention : Reuss Voigt Hill
#
# Bulk Modulus (GPa) = 17.37252 50.23510 33.80381
# Shear Modulus (GPa) = 24.10279 48.56515 36.33397
#
# Velocity S-wave (km/s) = 3.37556 4.79153 4.14446
# Velocity P-wave (km/s) = 4.83789 7.37291 6.23558
#
# Compressibility (1/GPa) = 0.05756218
#
# Stress axis : x y z
#
# Youngs Moduli (GPa) = 111.65301 15.98681 62.40663
#
# Poissons Ratio (x) = 0.14863 0.32176
# Poissons Ratio (y) = 1.03804 0.03319
# Poissons Ratio (z) = 0.57567 0.00850
#
# Static dielectric constant tensor:
#      x y z
#    x 1.725310 0.000000 0.000000 
#    y 0.000000 1.607860 0.000000 
#    z 0.000000 0.000000 1.750120 
# 
# From -- ./inp_files/17014.got.cif
#   From: 2010.05.17/outbox.cif.g08.bks.cpg/sg24_9_cif.got.tgz:17014.got - 2010.06.04 00:33:39.
