data_PCOD9334654
_publ_section_title
;
Structure prediction by ZEFSAII (Michael W. Deem and Ramdas Pophale) SiO2 
 PCOD9334654
Probable space group: I 21 21 21
;
_chemical_formula_sum "Si O2"
_cell_formula_units_Z 56
_cell_length_a 22.305256
_cell_length_b 13.826576
_cell_length_c 9.748012
_cell_angle_alpha 90.000000
_cell_angle_beta 90.000000
_cell_angle_gamma 90.000000
_cell_volume 3006.338734
_symmetry_space_group_name_H-M "I 21 21 21"
_symmetry_group_IT_number 24
_symmetry_cell_setting 'orthorhombic'
loop_
_space_group_symop_operation_xyz
x,y,z
-x,1/2-y,z
x,-y,1/2-z
1/2-x,y,-z
1/2+x,1/2+y,1/2+z
1/2-x,-y,1/2+z
1/2+x,1/2-y,-z
-x,1/2+y,1/2-z
loop_
_atom_site_type_symbol
_atom_site_label
_atom_site_fract_x
_atom_site_fract_y
_atom_site_fract_z
Si Si1 0.395348 0.329239 0.701827
Si Si2 0.128359 0.266549 0.994166
Si Si3 0.250000 0.614959 0.500000
Si Si4 0.542864 0.930450 0.375216
Si Si5 0.506417 0.449039 0.621814
Si Si6 0.095995 0.105808 0.804618
Si Si7 0.432635 0.794045 0.044959
Si Si8 0.697128 0.000000 0.750000
O O1 0.387323 0.272225 0.843979
O O2 0.461661 0.374816 0.696482
O O3 0.395403 0.267848 0.563003
O O4 0.346813 0.414647 0.698544
O O5 0.192600 0.317155 0.976551
O O6 0.082157 0.337072 0.912066
O O7 0.124816 0.158078 0.935460
O O8 0.264092 0.546643 0.629318
O O9 0.475449 0.901880 0.332463
O O10 0.565378 0.000000 0.250000
O O11 0.534754 0.989260 0.517630
O O12 0.536792 0.500000 0.750000
O O13 0.553162 0.396025 0.525962
O O14 0.101858 0.183542 0.682800
O O15 0.115778 0.000000 0.750000
O O16 0.500000 0.750000 0.068818
#
# Coordination Sequence:
#
# PCOD9334654 Si02
#       8
#     8   8   4   8   8   8   8   4
#     4  10  21  35  54  80 116 159 190 245 287 363
#     4  11  23  39  59  85 121 158 206 246 313 355
#     4  10  24  40  62  88 114 156 200 260 298 374
#     4  11  21  34  58  90 126 159 192 243 304 366
#     4  11  18  32  51  81 120 158 194 226 284 356
#     4  11  23  39  56  87 119 156 202 253 298 370
#     4  10  21  32  51  80 118 155 193 235 287 357
#     4  10  20  42  58  86 118 144 202 242 310 366
#
# _framework density 18.627309
#
# number of rings (size 3 to 8) (size 9 to 14) (size 15 to 20)
#    0.000    1.429    5.000    2.143    5.000    2.286 
#    0.000    0.000    0.000    3.429    0.000    0.000 
#    0.000    0.000    0.000    0.000    0.000    0.000 
#
# Total GULP energy -156192.472358 kJ/mol
# GULP energy per Si atom -5578.302584 kJ/mol
# Density = 1.858491 g / cm^3
# Si number density = 18.627309 Si / 1000 Ang^3
#
#
#
# Elastic Constant Matrix: (Units=GPa)
#
#
# Indices 1 2 3 4 5 6 
#
# 1 36.1875 16.7174 15.4150 0.0000 0.0000 0.0000
# 2 16.7174 87.6556 46.4535 0.0000 0.0000 0.0000
# 3 15.4150 46.4535 102.1986 0.0000 0.0000 0.0000
# 4 0.0000 0.0000 0.0000 37.1266 0.0000 0.0000
# 5 0.0000 0.0000 0.0000 0.0000 21.8462 0.0000
# 6 0.0000 0.0000 0.0000 0.0000 0.0000 10.0626
#
#
#
# Elastic Compliance Matrix: (Units=1/GPa)
#
#
# Indices 1 2 3 4 5 6 
#
# 1 0.030821 -0.004498 -0.002604 0.000000 0.000000 0.000000
# 2 -0.004498 0.015685 -0.006451 0.000000 0.000000 0.000000
# 3 -0.002604 -0.006451 0.013110 0.000000 0.000000 0.000000
# 4 0.000000 0.000000 0.000000 0.026935 0.000000 0.000000
# 5 0.000000 0.000000 0.000000 0.000000 0.045775 0.000000
# 6 0.000000 0.000000 0.000000 0.000000 0.000000 0.099378
#
#
# Mechanical properties :
#
#
# Convention : Reuss Voigt Hill
#
# Bulk Modulus (GPa) = 30.76034 42.57928 36.66981
# Shear Modulus (GPa) = 18.54283 23.63747 21.09015
#
# Velocity S-wave (km/s) = 3.15852 3.56612 3.36849
# Velocity P-wave (km/s) = 5.46362 6.31383 5.90405
#
# Compressibility (1/GPa) = 0.03250939
#
# Stress axis : x y z
#
# Youngs Moduli (GPa) = 32.44522 63.75584 76.27796
#
# Poissons Ratio (x) = 0.28677 0.19866
# Poissons Ratio (y) = 0.14594 0.49207
# Poissons Ratio (z) = 0.08450 0.41129
#
# Static dielectric constant tensor:
#      x y z
#    x 1.602800 0.000000 0.000000 
#    y 0.000000 1.716980 0.000000 
#    z 0.000000 0.000000 1.721360 
# 
# From -- ./inp_files/15286.got.cif
#   From: 2010.05.17/outbox.cif.g08.bks.cpg/sg24_8_cif.got.tgz:15286.got - 2010.06.04 00:33:39.
