data_PCOD9334227
_publ_section_title
;
Structure prediction by ZEFSAII (Michael W. Deem and Ramdas Pophale) SiO2 
 PCOD9334227
Probable space group: I 21 21 21
;
_chemical_formula_sum "Si O2"
_cell_formula_units_Z 36
_cell_length_a 5.429113
_cell_length_b 16.710112
_cell_length_c 18.181851
_cell_angle_alpha 90.000000
_cell_angle_beta 90.000000
_cell_angle_gamma 90.000000
_cell_volume 1649.477273
_symmetry_space_group_name_H-M "I 21 21 21"
_symmetry_group_IT_number 24
_symmetry_cell_setting 'orthorhombic'
loop_
_space_group_symop_operation_xyz
x,y,z
-x,1/2-y,z
x,-y,1/2-z
1/2-x,y,-z
1/2+x,1/2+y,1/2+z
1/2-x,-y,1/2+z
1/2+x,1/2-y,-z
-x,1/2+y,1/2-z
loop_
_atom_site_type_symbol
_atom_site_label
_atom_site_fract_x
_atom_site_fract_y
_atom_site_fract_z
Si Si1 0.752950 0.795557 0.411344
Si Si2 0.295161 0.000000 0.750000
Si Si3 0.448430 0.552202 0.369635
Si Si4 0.500000 0.250000 0.548634
Si Si5 0.576509 0.920812 0.883856
Si Si6 0.250000 0.017255 0.000000
O O1 0.500000 0.750000 0.389827
O O2 0.750000 0.803826 0.500000
O O3 0.761673 0.882062 0.372108
O O4 0.000000 0.750000 0.390864
O O5 0.451936 0.948498 0.807691
O O6 0.116299 0.945096 0.701244
O O7 0.343998 0.462593 0.380474
O O8 0.606098 0.570479 0.441954
O O9 0.750000 0.264118 0.500000
O O10 0.561208 0.172226 0.597873
O O11 0.432316 0.963864 0.950986
#
# Coordination Sequence:
#
# PCOD9334227 Si02
#       6
#     8   4   8   4   8   4
#     4  10  23  39  65 103 137 172 226 298 357 416
#     4  10  26  44  68  96 140 200 244 288 364 448
#     4  11  23  42  69  97 140 189 240 297 362 437
#     4  12  26  46  78 120 150 186 250 330 386 436
#     4  11  23  44  70 103 145 188 243 306 373 453
#     4  10  20  36  70 104 128 182 232 292 368 436
#
# _framework density 21.825095000000001
#
# number of rings (size 3 to 8) (size 9 to 14) (size 15 to 20)
#    0.000    1.333    1.111    4.000   14.000    0.000 
#    0.000    4.444    0.000    0.000    0.000    0.000 
#    0.000    0.000    0.000    0.000    0.000    0.000 
#
# Total GULP energy -100669.786557 kJ/mol
# GULP energy per Si atom -5592.765920 kJ/mol
# Density = 2.177542 g / cm^3
# Si number density = 21.825095 Si / 1000 Ang^3
#
#
#
# Elastic Constant Matrix: (Units=GPa)
#
#
# Indices 1 2 3 4 5 6 
#
# 1 93.9084 19.5383 38.1788 0.0000 0.0000 0.0000
# 2 19.5383 110.4922 28.9597 0.0000 0.0000 0.0000
# 3 38.1788 28.9597 125.7703 0.0000 0.0000 0.0000
# 4 0.0000 0.0000 0.0000 14.2409 0.0000 0.0000
# 5 0.0000 0.0000 0.0000 0.0000 14.2096 0.0000
# 6 0.0000 0.0000 0.0000 0.0000 0.0000 19.0872
#
#
#
# Elastic Compliance Matrix: (Units=1/GPa)
#
#
# Indices 1 2 3 4 5 6 
#
# 1 0.012314 -0.001275 -0.003445 0.000000 0.000000 0.000000
# 2 -0.001275 0.009764 -0.001861 0.000000 0.000000 0.000000
# 3 -0.003445 -0.001861 0.009425 0.000000 0.000000 0.000000
# 4 0.000000 0.000000 0.000000 0.070220 0.000000 0.000000
# 5 0.000000 0.000000 0.000000 0.000000 0.070375 0.000000
# 6 0.000000 0.000000 0.000000 0.000000 0.000000 0.052391
#
#
# Mechanical properties :
#
#
# Convention : Reuss Voigt Hill
#
# Bulk Modulus (GPa) = 54.51943 55.94716 55.23329
# Shear Modulus (GPa) = 20.51159 25.74049 23.12604
#
# Velocity S-wave (km/s) = 3.06897 3.43796 3.25869
# Velocity P-wave (km/s) = 6.13127 6.43812 6.28657
#
# Compressibility (1/GPa) = 0.01834208
#
# Stress axis : x y z
#
# Youngs Moduli (GPa) = 81.20639 102.42082 106.09846
#
# Poissons Ratio (x) = 0.13056 0.36547
# Poissons Ratio (y) = 0.10351 0.19747
# Poissons Ratio (z) = 0.27972 0.19063
#
# Static dielectric constant tensor:
#      x y z
#    x 1.863650 0.000000 0.000000 
#    y 0.000000 1.842830 0.000000 
#    z 0.000000 0.000000 1.769270 
# 
# From -- ./inp_files/5481.got.cif
#   From: 2010.05.17/outbox.cif.g08.bks.cpg/sg24_3_cif.got.tgz:5481.got - 2010.06.04 00:33:39.
