data_PCOD9334717
_publ_section_title
;
Structure prediction by ZEFSAII (Michael W. Deem and Ramdas Pophale) SiO2 
 PCOD9334717
Probable space group: I 21 21 21
;
_chemical_formula_sum "Si O2"
_cell_formula_units_Z 56
_cell_length_a 14.059763
_cell_length_b 22.133676
_cell_length_c 8.625927
_cell_angle_alpha 90.000000
_cell_angle_beta 90.000000
_cell_angle_gamma 90.000000
_cell_volume 2684.338787
_symmetry_space_group_name_H-M "I 21 21 21"
_symmetry_group_IT_number 24
_symmetry_cell_setting 'orthorhombic'
loop_
_space_group_symop_operation_xyz
x,y,z
-x,1/2-y,z
x,-y,1/2-z
1/2-x,y,-z
1/2+x,1/2+y,1/2+z
1/2-x,-y,1/2+z
1/2+x,1/2-y,-z
-x,1/2+y,1/2-z
loop_
_atom_site_type_symbol
_atom_site_label
_atom_site_fract_x
_atom_site_fract_y
_atom_site_fract_z
Si Si1 0.461932 0.360015 0.025015
Si Si2 0.258733 0.263801 0.676917
Si Si3 0.560286 0.694667 0.172871
Si Si4 0.904261 0.323109 0.208748
Si Si5 0.139610 0.091109 0.465063
Si Si6 0.250000 0.337884 0.000000
Si Si7 0.750000 0.373505 0.000000
Si Si8 0.103002 0.035017 0.907747
O O1 0.500065 0.322706 0.173597
O O2 0.350429 0.370864 0.020047
O O3 0.518798 0.422770 0.032860
O O4 0.494626 0.322013 0.873283
O O5 0.250000 0.289827 0.500000
O O6 0.167023 0.219867 0.697865
O O7 0.358027 0.226708 0.681312
O O8 0.258457 0.303044 0.834062
O O9 0.500000 0.750000 0.099794
O O10 0.574824 0.632504 0.078496
O O11 0.891769 0.385828 0.298432
O O12 0.828661 0.330239 0.070809
O O13 0.250000 0.105635 0.500000
O O14 0.127698 0.019805 0.479395
O O15 0.807647 0.419228 0.888028
O O16 0.081002 0.000000 0.750000
#
# Coordination Sequence:
#
# PCOD9334717 Si02
#       8
#     8   8   8   8   8   4   4   8
#     4  11  26  42  67  92 133 189 227 291 343 397
#     4  12  23  41  70 104 143 181 221 278 347 419
#     4  12  22  41  64  99 135 181 214 263 340 409
#     4  11  22  38  60 100 134 170 217 269 342 410
#     4  12  22  39  67 100 141 168 208 281 341 418
#     4  12  27  50  64  92 138 183 252 286 334 398
#     4  10  21  30  58  94 142 173 204 260 340 426
#     4  11  21  37  64  96 130 174 220 267 351 414
#
# _framework density 20.861747999999999
#
# number of rings (size 3 to 8) (size 9 to 14) (size 15 to 20)
#    0.000    0.571    6.429    3.857    0.000    2.857 
#    0.000    0.000    3.143    0.000    0.000    0.000 
#    0.000    0.000    0.000    0.000    0.000    0.000 
#
# Total GULP energy -156291.564127 kJ/mol
# GULP energy per Si atom -5581.841576 kJ/mol
# Density = 2.081427 g / cm^3
# Si number density = 20.861748 Si / 1000 Ang^3
#
#
#
# Elastic Constant Matrix: (Units=GPa)
#
#
# Indices 1 2 3 4 5 6 
#
# 1 134.7704 26.9018 22.1751 0.0000 0.0000 0.0000
# 2 26.9018 63.4041 8.9956 0.0000 -0.0001 0.0000
# 3 22.1751 8.9956 86.3021 -0.0003 -0.0003 -0.0002
# 4 0.0000 0.0000 -0.0003 25.3387 -0.0001 0.0000
# 5 0.0000 -0.0001 -0.0003 -0.0001 22.6591 0.0000
# 6 0.0000 0.0000 -0.0002 0.0000 0.0000 32.5732
#
#
#
# Elastic Compliance Matrix: (Units=1/GPa)
#
#
# Indices 1 2 3 4 5 6 
#
# 1 0.008376 -0.003297 -0.001808 0.000000 0.000000 0.000000
# 2 -0.003297 0.017307 -0.000957 0.000000 0.000000 0.000000
# 3 -0.001808 -0.000957 0.012152 0.000000 0.000000 0.000000
# 4 0.000000 0.000000 0.000000 0.039465 0.000000 0.000000
# 5 0.000000 0.000000 0.000000 0.000000 0.044132 0.000000
# 6 0.000000 0.000000 0.000000 0.000000 0.000000 0.030700
#
#
# Mechanical properties :
#
#
# Convention : Reuss Voigt Hill
#
# Bulk Modulus (GPa) = 38.89658 44.51349 41.70503
# Shear Modulus (GPa) = 28.93082 31.20781 30.06931
#
# Velocity S-wave (km/s) = 3.72800 3.87193 3.80064
# Velocity P-wave (km/s) = 6.10050 6.43217 6.26853
#
# Compressibility (1/GPa) = 0.02570920
#
# Stress axis : x y z
#
# Youngs Moduli (GPa) = 119.39234 57.78163 82.29364
#
# Poissons Ratio (x) = 0.19052 0.14882
# Poissons Ratio (y) = 0.39366 0.07873
# Poissons Ratio (z) = 0.21591 0.05528
#
# Static dielectric constant tensor:
#      x y z
#    x 1.762320 0.000000 0.000000 
#    y 0.000000 1.744020 0.000000 
#    z 0.000000 0.000000 1.883360 
# 
# From -- ./inp_files/13217.got.cif
#   From: 2010.05.17/outbox.cif.g08.bks.cpg/sg24_7_cif.got.tgz:13217.got - 2010.06.04 00:33:39.
