data_PCOD9334116
_publ_section_title
;
Structure prediction by ZEFSAII (Michael W. Deem and Ramdas Pophale) SiO2 
 PCOD9334116
Probable space group: I 21 21 21
;
_chemical_formula_sum "Si O2"
_cell_formula_units_Z 40
_cell_length_a 19.474228
_cell_length_b 11.074094
_cell_length_c 8.165163
_cell_angle_alpha 90.000000
_cell_angle_beta 90.000000
_cell_angle_gamma 90.000000
_cell_volume 1760.894410
_symmetry_space_group_name_H-M "I 21 21 21"
_symmetry_group_IT_number 24
_symmetry_cell_setting 'orthorhombic'
loop_
_space_group_symop_operation_xyz
x,y,z
-x,1/2-y,z
x,-y,1/2-z
1/2-x,y,-z
1/2+x,1/2+y,1/2+z
1/2-x,-y,1/2+z
1/2+x,1/2-y,-z
-x,1/2+y,1/2-z
loop_
_atom_site_type_symbol
_atom_site_label
_atom_site_fract_x
_atom_site_fract_y
_atom_site_fract_z
Si Si1 0.041827 0.000000 0.750000
Si Si2 0.612797 0.769160 0.849251
Si Si3 0.365276 0.857284 0.518239
Si Si4 0.261688 0.000000 0.750000
Si Si5 0.750000 0.673239 0.000000
Si Si6 0.167871 0.500000 0.250000
Si Si7 0.750000 0.831790 0.500000
Si Si8 0.000000 0.750000 0.889199
O O1 0.088432 0.936597 0.604478
O O2 0.996712 0.880046 0.797633
O O3 0.596863 0.710719 0.671474
O O4 0.616160 0.912413 0.843724
O O5 0.689852 0.739060 0.906808
O O6 0.563405 0.727612 0.990355
O O7 0.313668 0.754594 0.444304
O O8 0.312566 0.942025 0.617940
O O9 0.218683 0.094510 0.647803
O O10 0.216358 0.582398 0.363442
#
# Coordination Sequence:
#
# PCOD9334116 Si02
#       8
#     4   8   8   4   4   4   4   4
#     4  12  28  49  69 104 143 187 246 310 368 437
#     4  10  24  45  68  97 136 190 239 293 360 436
#     4  10  23  41  67 100 136 176 230 296 368 434
#     4  10  20  35  63  98 131 171 214 286 362 437
#     4  10  20  38  64  96 128 168 226 286 354 422
#     4  10  22  40  64  98 142 184 236 288 352 428
#     4  10  22  38  66 104 138 184 230 292 358 424
#     4  12  30  48  72 102 142 196 246 300 366 438
#
# _framework density 22.715729
#
# number of rings (size 3 to 8) (size 9 to 14) (size 15 to 20)
#    0.000    1.600    0.000    3.600    0.000   20.800 
#    0.000    1.000    0.000    0.000    0.000    0.000 
#    0.000    0.000    0.000    0.000    0.000    0.000 
#
# Total GULP energy -111455.130873 kJ/mol
# GULP energy per Si atom -5572.756544 kJ/mol
# Density = 2.266403 g / cm^3
# Si number density = 22.715729 Si / 1000 Ang^3
#
#
#
# Elastic Constant Matrix: (Units=GPa)
#
#
# Indices 1 2 3 4 5 6 
#
# 1 24.6217 7.0671 11.6650 0.0000 0.0000 0.0000
# 2 7.0671 125.6966 46.4749 0.0000 0.0000 0.0000
# 3 11.6650 46.4749 90.1037 0.0000 0.0000 0.0000
# 4 0.0000 0.0000 0.0000 38.6716 0.0000 0.0000
# 5 0.0000 0.0000 0.0000 0.0000 30.2780 0.0000
# 6 0.0000 0.0000 0.0000 0.0000 0.0000 28.7055
#
#
#
# Elastic Compliance Matrix: (Units=1/GPa)
#
#
# Indices 1 2 3 4 5 6 
#
# 1 0.043289 -0.000447 -0.005374 0.000000 0.000000 0.000000
# 2 -0.000447 0.009835 -0.005015 0.000000 0.000000 0.000000
# 3 -0.005374 -0.005015 0.014381 0.000000 0.000000 0.000000
# 4 0.000000 0.000000 0.000000 0.025859 0.000000 0.000000
# 5 0.000000 0.000000 0.000000 0.000000 0.033027 0.000000
# 6 0.000000 0.000000 0.000000 0.000000 0.000000 0.034837
#
#
# Mechanical properties :
#
#
# Convention : Reuss Voigt Hill
#
# Bulk Modulus (GPa) = 21.81827 41.20400 31.51113
# Shear Modulus (GPa) = 25.23009 31.21202 28.22105
#
# Velocity S-wave (km/s) = 3.33631 3.71081 3.52853
# Velocity P-wave (km/s) = 4.94642 6.04471 5.52293
#
# Compressibility (1/GPa) = 0.04583315
#
# Stress axis : x y z
#
# Youngs Moduli (GPa) = 23.10070 101.67747 69.53769
#
# Poissons Ratio (x) = 0.04545 0.37367
# Poissons Ratio (y) = 0.01033 0.34873
# Poissons Ratio (z) = 0.12414 0.50991
#
# Static dielectric constant tensor:
#      x y z
#    x 2.004570 0.000000 0.000000 
#    y 0.000000 1.968010 0.000000 
#    z 0.000000 0.000000 1.894220 
# 
# From -- ./inp_files/10823.got.cif
#   From: 2010.05.17/outbox.cif.g08.bks.cpg/sg24_6_cif.got.tgz:10823.got - 2010.06.04 00:33:39.
