data_PCOD9334765
_publ_section_title
;
Structure prediction by ZEFSAII (Michael W. Deem and Ramdas Pophale) SiO2 
 PCOD9334765
Probable space group: I 21 21 21
;
_chemical_formula_sum "Si O2"
_cell_formula_units_Z 64
_cell_length_a 7.844059
_cell_length_b 17.951718
_cell_length_c 21.238246
_cell_angle_alpha 90.000000
_cell_angle_beta 90.000000
_cell_angle_gamma 90.000000
_cell_volume 2990.649490
_symmetry_space_group_name_H-M "I 21 21 21"
_symmetry_group_IT_number 24
_symmetry_cell_setting 'orthorhombic'
loop_
_space_group_symop_operation_xyz
x,y,z
-x,1/2-y,z
x,-y,1/2-z
1/2-x,y,-z
1/2+x,1/2+y,1/2+z
1/2-x,-y,1/2+z
1/2+x,1/2-y,-z
-x,1/2+y,1/2-z
loop_
_atom_site_type_symbol
_atom_site_label
_atom_site_fract_x
_atom_site_fract_y
_atom_site_fract_z
Si Si1 0.425200 0.553376 0.463611
Si Si2 0.047605 0.170190 0.501160
Si Si3 0.679200 0.209624 0.754303
Si Si4 0.955064 0.062988 0.293778
Si Si5 0.037607 0.078941 0.613196
Si Si6 0.949356 0.835326 0.646413
Si Si7 0.822292 0.630684 0.759888
Si Si8 0.421843 0.970505 0.926511
O O1 0.250000 0.558980 0.500000
O O2 0.419658 0.486439 0.412377
O O3 0.451646 0.624555 0.420216
O O4 0.556470 0.533274 0.520329
O O5 0.250000 0.168477 0.500000
O O6 0.992842 0.151788 0.572164
O O7 0.991433 0.101771 0.458614
O O8 0.000000 0.250000 0.476768
O O9 0.500000 0.250000 0.771386
O O10 0.643457 0.141903 0.706038
O O11 0.773472 0.171341 0.813685
O O12 0.789212 0.280340 0.729927
O O13 0.141640 0.088089 0.266027
O O14 0.987246 0.022929 0.359967
O O15 0.874437 0.000000 0.250000
O O16 0.057047 0.097935 0.685760
O O17 0.226147 0.050123 0.590031
O O18 0.000000 0.750000 0.637770
O O19 0.086756 0.874828 0.692637
#
# Coordination Sequence:
#
# PCOD9334765 Si02
#       8
#     8   8   8   8   8   8   8   8
#     4  11  24  40  60  86 127 163 208 270 311 365
#     4   9  18  31  50  77 112 157 194 232 282 359
#     4   9  20  41  62  95 132 166 199 270 327 377
#     4  10  21  35  64  97 126 162 210 252 326 382
#     4   9  20  40  61  88 122 162 205 248 316 383
#     4  10  23  43  65  91 123 163 221 266 319 375
#     4   9  20  39  66  94 127 163 212 262 316 390
#     4   9  21  40  56  84 123 161 205 246 304 383
#
# _framework density 21.400033000000001
#
# number of rings (size 3 to 8) (size 9 to 14) (size 15 to 20)
#    0.000    2.500    0.000    1.125    5.250    8.000 
#    0.000    3.125    0.000    0.000    0.000    0.000 
#    0.000    0.000    0.000    0.000    0.000    0.000 
#
# Total GULP energy -178483.091041 kJ/mol
# GULP energy per Si atom -5577.596595 kJ/mol
# Density = 2.135133 g / cm^3
# Si number density = 21.400033 Si / 1000 Ang^3
#
#
#
# Elastic Constant Matrix: (Units=GPa)
#
#
# Indices 1 2 3 4 5 6 
#
# 1 51.1599 9.7026 33.6555 0.0000 0.0000 0.0000
# 2 9.7026 60.9788 52.1292 0.0000 0.0000 0.0000
# 3 33.6555 52.1292 119.4168 0.0000 0.0000 0.0000
# 4 0.0000 0.0000 0.0000 39.7017 0.0000 0.0000
# 5 0.0000 0.0000 0.0000 0.0000 24.3180 0.0000
# 6 0.0000 0.0000 0.0000 0.0000 0.0000 18.7417
#
#
#
# Elastic Compliance Matrix: (Units=1/GPa)
#
#
# Indices 1 2 3 4 5 6 
#
# 1 0.024376 0.003182 -0.008259 0.000000 0.000000 0.000000
# 2 0.003182 0.026578 -0.012499 0.000000 0.000000 0.000000
# 3 -0.008259 -0.012499 0.016158 0.000000 0.000000 0.000000
# 4 0.000000 0.000000 0.000000 0.025188 0.000000 0.000000
# 5 0.000000 0.000000 0.000000 0.000000 0.041122 0.000000
# 6 0.000000 0.000000 0.000000 0.000000 0.000000 0.053357
#
#
# Mechanical properties :
#
#
# Convention : Reuss Voigt Hill
#
# Bulk Modulus (GPa) = 31.28921 46.94777 39.11849
# Shear Modulus (GPa) = 21.49766 25.62351 23.56058
#
# Velocity S-wave (km/s) = 3.17292 3.46404 3.32167
# Velocity P-wave (km/s) = 5.29869 6.16322 5.74723
#
# Compressibility (1/GPa) = 0.03195990
#
# Stress axis : x y z
#
# Youngs Moduli (GPa) = 41.02351 37.62551 61.88972
#
# Poissons Ratio (x) = -0.11972 0.51114
# Poissons Ratio (y) = -0.13053 0.77354
# Poissons Ratio (z) = 0.33881 0.47027
#
# Static dielectric constant tensor:
#      x y z
#    x 1.851970 0.000000 0.000000 
#    y 0.000000 1.844640 0.000000 
#    z 0.000000 0.000000 1.785660 
# 
# From -- ./inp_files/32957.got.cif
#   From: 2010.05.17/outbox.cif.g08.bks.cpg/sg24_17_cif.got.tgz:32957.got - 2010.06.04 00:33:39.
