data_PCOD9334917
_publ_section_title
;
Structure prediction by ZEFSAII (Michael W. Deem and Ramdas Pophale) SiO2 
 PCOD9334917
Probable space group: I 21 21 21
;
_chemical_formula_sum "Si O2"
_cell_formula_units_Z 60
_cell_length_a 25.543911
_cell_length_b 13.191436
_cell_length_c 9.269324
_cell_angle_alpha 90.000000
_cell_angle_beta 90.000000
_cell_angle_gamma 90.000000
_cell_volume 3123.399453
_symmetry_space_group_name_H-M "I 21 21 21"
_symmetry_group_IT_number 24
_symmetry_cell_setting 'orthorhombic'
loop_
_space_group_symop_operation_xyz
x,y,z
-x,1/2-y,z
x,-y,1/2-z
1/2-x,y,-z
1/2+x,1/2+y,1/2+z
1/2-x,-y,1/2+z
1/2+x,1/2-y,-z
-x,1/2+y,1/2-z
loop_
_atom_site_type_symbol
_atom_site_label
_atom_site_fract_x
_atom_site_fract_y
_atom_site_fract_z
Si Si1 0.414943 0.872074 0.912830
Si Si2 0.374549 0.306516 0.043170
Si Si3 0.191937 0.749149 0.039427
Si Si4 0.800601 0.891387 0.306008
Si Si5 0.317325 0.609795 0.225382
Si Si6 0.474822 0.399069 0.154214
Si Si7 0.000000 0.250000 0.601075
Si Si8 0.927984 0.609842 0.431074
O O1 0.431406 0.866232 0.741878
O O2 0.411497 0.992377 0.943265
O O3 0.359326 0.820751 0.957855
O O4 0.460687 0.816758 0.004252
O O5 0.350121 0.301924 0.200966
O O6 0.424333 0.380496 0.055007
O O7 0.331278 0.360951 0.946965
O O8 0.389224 0.196539 0.987023
O O9 0.188974 0.649442 0.935930
O O10 0.250000 0.794049 0.000000
O O11 0.191362 0.700869 0.196939
O O12 0.737992 0.900406 0.307282
O O13 0.820476 0.000000 0.250000
O O14 0.343299 0.500000 0.250000
O O15 0.480778 0.500000 0.250000
O O16 0.469323 0.318772 0.284201
O O17 0.522375 0.382176 0.040872
#
# Coordination Sequence:
#
# PCOD9334917 Si02
#       8
#     8   8   8   8   8   8   4   8
#     4  11  25  45  67  93 125 179 215 265 331 391
#     4  12  22  39  65  91 127 166 213 264 317 394
#     4  10  21  40  65  94 130 167 214 272 320 383
#     4  10  21  38  61  94 131 168 209 262 322 390
#     4  10  21  38  62  94 133 170 210 259 329 383
#     4  12  25  44  62  99 129 164 212 275 331 388
#     4  12  24  40  72  90 130 166 222 258 322 398
#     4  11  25  45  66  87 133 167 216 271 329 381
#
# _framework density 19.209838999999999
#
# number of rings (size 3 to 8) (size 9 to 14) (size 15 to 20)
#    0.000    1.067    4.000    2.400    1.867    3.200 
#    2.400    1.333    0.000    0.000    0.000    0.000 
#    0.000    0.000    0.000    0.000    0.000    0.000 
#
# Total GULP energy -167046.066320 kJ/mol
# GULP energy per Si atom -5568.202211 kJ/mol
# Density = 1.916612 g / cm^3
# Si number density = 19.209839 Si / 1000 Ang^3
#
#
#
# Elastic Constant Matrix: (Units=GPa)
#
#
# Indices 1 2 3 4 5 6 
#
# 1 82.7737 35.9333 44.7381 0.0000 0.0000 0.0000
# 2 35.9333 79.9079 42.2498 0.0000 0.0000 0.0000
# 3 44.7381 42.2498 96.0541 0.0000 0.0000 0.0000
# 4 0.0000 0.0000 0.0000 34.1837 0.0000 0.0000
# 5 0.0000 0.0000 0.0000 0.0000 20.5664 0.0000
# 6 0.0000 0.0000 0.0000 0.0000 0.0000 21.4203
#
#
#
# Elastic Compliance Matrix: (Units=1/GPa)
#
#
# Indices 1 2 3 4 5 6 
#
# 1 0.017353 -0.004600 -0.006059 0.000000 0.000000 0.000000
# 2 -0.004600 0.017526 -0.005567 0.000000 0.000000 0.000000
# 3 -0.006059 -0.005567 0.015681 0.000000 0.000000 0.000000
# 4 0.000000 0.000000 0.000000 0.029254 0.000000 0.000000
# 5 0.000000 0.000000 0.000000 0.000000 0.048623 0.000000
# 6 0.000000 0.000000 0.000000 0.000000 0.000000 0.046685
#
#
# Mechanical properties :
#
#
# Convention : Reuss Voigt Hill
#
# Bulk Modulus (GPa) = 55.21934 56.06424 55.64179
# Shear Modulus (GPa) = 23.40730 24.28836 23.84783
#
# Velocity S-wave (km/s) = 3.49450 3.55966 3.52723
# Velocity P-wave (km/s) = 6.71489 6.79289 6.75401
#
# Compressibility (1/GPa) = 0.01810960
#
# Stress axis : x y z
#
# Youngs Moduli (GPa) = 57.62781 57.05803 63.77011
#
# Poissons Ratio (x) = 0.26245 0.38638
# Poissons Ratio (y) = 0.26507 0.35498
# Poissons Ratio (z) = 0.34917 0.31762
#
# Static dielectric constant tensor:
#      x y z
#    x 1.717270 0.000000 0.000000 
#    y 0.000000 1.760430 0.000000 
#    z 0.000000 0.000000 1.712970 
# 
# From -- ./inp_files/16462.got.cif
#   From: 2010.05.17/outbox.cif.g08.bks.cpg/sg24_9_cif.got.tgz:16462.got - 2010.06.04 00:33:39.
