data_PCOD9334761
_publ_section_title
;
Structure prediction by ZEFSAII (Michael W. Deem and Ramdas Pophale) SiO2 
 PCOD9334761
Probable space group: I 21 21 21
;
_chemical_formula_sum "Si O2"
_cell_formula_units_Z 48
_cell_length_a 12.131582
_cell_length_b 9.606687
_cell_length_c 19.173656
_cell_angle_alpha 90.000000
_cell_angle_beta 90.000000
_cell_angle_gamma 90.000000
_cell_volume 2234.580530
_symmetry_space_group_name_H-M "I 21 21 21"
_symmetry_group_IT_number 24
_symmetry_cell_setting 'orthorhombic'
loop_
_space_group_symop_operation_xyz
x,y,z
-x,1/2-y,z
x,-y,1/2-z
1/2-x,y,-z
1/2+x,1/2+y,1/2+z
1/2-x,-y,1/2+z
1/2+x,1/2-y,-z
-x,1/2+y,1/2-z
loop_
_atom_site_type_symbol
_atom_site_label
_atom_site_fract_x
_atom_site_fract_y
_atom_site_fract_z
Si Si1 0.366192 0.906640 0.813181
Si Si2 0.864236 0.023905 0.472733
Si Si3 0.130280 0.409204 0.314220
Si Si4 0.503178 0.405101 0.406592
Si Si5 0.386189 0.667916 0.407957
Si Si6 0.232110 0.067499 0.917691
O O1 0.497733 0.899340 0.805497
O O2 0.324652 0.748182 0.814349
O O3 0.320697 0.000000 0.750000
O O4 0.333073 0.989891 0.882017
O O5 0.750000 0.089894 0.500000
O O6 0.857586 0.023809 0.390480
O O7 0.964707 0.099925 0.511680
O O8 0.871068 0.873604 0.510405
O O9 0.173721 0.500000 0.250000
O O10 0.500000 0.250000 0.377656
O O11 0.412411 0.515175 0.376040
O O12 0.622768 0.474844 0.402635
O O13 0.500000 0.750000 0.400636
O O14 0.292353 0.777106 0.388226
O O15 0.250000 0.075543 0.000000
#
# Coordination Sequence:
#
# PCOD9334761 Si02
#       6
#     8   8   8   8   8   8
#     4  10  24  41  61  89 123 169 213 258 323 391
#     4  10  21  35  61  90 122 157 207 257 315 377
#     4  10  23  42  59  86 128 166 209 263 320 383
#     4   9  21  35  55  89 127 154 201 272 315 367
#     4   8  19  35  51  87 122 151 194 257 311 364
#     4  11  21  35  62  89 119 165 209 260 321 384
#
# _framework density 21.480543000000001
#
# number of rings (size 3 to 8) (size 9 to 14) (size 15 to 20)
#    1.000    1.333    0.000    1.500    7.000    2.667 
#    3.000    0.000    0.000    4.000    0.000    0.000 
#    0.000    0.000    0.000    0.000    0.000    0.000 
#
# Total GULP energy -133627.903156 kJ/mol
# GULP energy per Si atom -5567.829298 kJ/mol
# Density = 2.143165 g / cm^3
# Si number density = 21.480543 Si / 1000 Ang^3
#
#
#
# Elastic Constant Matrix: (Units=GPa)
#
#
# Indices 1 2 3 4 5 6 
#
# 1 20.9555 16.2128 -19.9242 0.0000 0.0000 0.0000
# 2 16.2128 167.1876 13.5388 0.0000 0.0000 0.0000
# 3 -19.9242 13.5388 50.1664 0.0000 0.0000 0.0000
# 4 0.0000 0.0000 0.0000 18.3921 0.0000 0.0000
# 5 0.0000 0.0000 0.0000 0.0000 11.5247 0.0000
# 6 0.0000 0.0000 0.0000 0.0000 0.0000 16.5628
#
#
#
# Elastic Compliance Matrix: (Units=1/GPa)
#
#
# Indices 1 2 3 4 5 6 
#
# 1 0.098116 -0.012953 0.042464 0.000000 0.000000 0.000000
# 2 -0.012953 0.007825 -0.007256 0.000000 0.000000 0.000000
# 3 0.042464 -0.007256 0.038757 0.000000 0.000000 0.000000
# 4 0.000000 0.000000 0.000000 0.054371 0.000000 0.000000
# 5 0.000000 0.000000 0.000000 0.000000 0.086770 0.000000
# 6 0.000000 0.000000 0.000000 0.000000 0.000000 0.060376
#
#
# Mechanical properties :
#
#
# Convention : Reuss Voigt Hill
#
# Bulk Modulus (GPa) = 5.28523 28.66268 16.97396
# Shear Modulus (GPa) = 13.70702 24.52806 19.11754
#
# Velocity S-wave (km/s) = 2.52883 3.38283 2.98651
# Velocity P-wave (km/s) = 3.31549 5.35075 4.45101
#
# Compressibility (1/GPa) = 0.18920640
#
# Stress axis : x y z
#
# Youngs Moduli (GPa) = 10.19201 127.79464 25.80176
#
# Poissons Ratio (x) = 1.65537 -1.09564
# Poissons Ratio (y) = 0.13202 0.18723
# Poissons Ratio (z) = -0.43279 0.92733
#
# Static dielectric constant tensor:
#      x y z
#    x 1.817720 0.000000 0.000000 
#    y 0.000000 1.822210 0.000000 
#    z 0.000000 0.000000 1.771240 
# 
# From -- ./inp_files/30729.got.cif
#   From: 2010.05.17/outbox.cif.g08.bks.cpg/sg24_16_cif.got.tgz:30729.got - 2010.06.04 00:33:39.
