data_PCOD9334639
_publ_section_title
;
Structure prediction by ZEFSAII (Michael W. Deem and Ramdas Pophale) SiO2 
 PCOD9334639
Probable space group: I 21 21 21
;
_chemical_formula_sum "Si O2"
_cell_formula_units_Z 48
_cell_length_a 16.258522
_cell_length_b 10.425532
_cell_length_c 14.837912
_cell_angle_alpha 90.000000
_cell_angle_beta 90.000000
_cell_angle_gamma 90.000000
_cell_volume 2515.081598
_symmetry_space_group_name_H-M "I 21 21 21"
_symmetry_group_IT_number 24
_symmetry_cell_setting 'orthorhombic'
loop_
_space_group_symop_operation_xyz
x,y,z
-x,1/2-y,z
x,-y,1/2-z
1/2-x,y,-z
1/2+x,1/2+y,1/2+z
1/2-x,-y,1/2+z
1/2+x,1/2-y,-z
-x,1/2+y,1/2-z
loop_
_atom_site_type_symbol
_atom_site_label
_atom_site_fract_x
_atom_site_fract_y
_atom_site_fract_z
Si Si1 0.061505 0.869685 0.431792
Si Si2 0.623340 0.982842 0.146513
Si Si3 0.811657 0.103845 0.327777
Si Si4 0.798856 0.358941 0.215376
Si Si5 0.546131 0.883344 0.973647
Si Si6 0.321341 0.255783 0.069187
O O1 0.119326 0.871948 0.344635
O O2 0.121373 0.842230 0.516000
O O3 0.000000 0.750000 0.424537
O O4 0.012905 0.000081 0.446098
O O5 0.717492 0.932048 0.149272
O O6 0.595466 0.000000 0.250000
O O7 0.627203 0.123071 0.101727
O O8 0.570587 0.896643 0.078831
O O9 0.813157 0.247565 0.288255
O O10 0.872106 0.099643 0.412768
O O11 0.836856 0.000000 0.250000
O O12 0.778327 0.500000 0.250000
O O13 0.725848 0.307175 0.152160
O O14 0.500000 0.750000 0.956003
O O15 0.250000 0.300531 0.000000
#
# Coordination Sequence:
#
# PCOD9334639 Si02
#       6
#     8   8   8   8   8   8
#     4  11  23  40  65  90 128 174 203 247 315 380
#     4  11  22  43  68  90 115 167 225 258 297 366
#     4  11  22  40  70  95 122 169 213 252 305 373
#     4  11  23  39  63  98 128 159 208 262 311 367
#     4  12  26  42  61  97 136 161 199 264 324 367
#     4  10  20  41  67  89 120 167 216 253 299 374
#
# _framework density 19.084868
#
# number of rings (size 3 to 8) (size 9 to 14) (size 15 to 20)
#    0.000    1.000    5.000    3.500    0.000    5.333 
#    3.000    3.333    0.000    0.000    0.000    0.000 
#    0.000    0.000    0.000    0.000    0.000    0.000 
#
# Total GULP energy -134152.545503 kJ/mol
# GULP energy per Si atom -5589.689396 kJ/mol
# Density = 1.904143 g / cm^3
# Si number density = 19.084868 Si / 1000 Ang^3
#
#
#
# Elastic Constant Matrix: (Units=GPa)
#
#
# Indices 1 2 3 4 5 6 
#
# 1 19.3897 -0.2402 -9.4324 0.0000 0.0000 0.0000
# 2 -0.2402 109.8256 11.5002 0.0000 0.0000 0.0000
# 3 -9.4324 11.5002 43.9587 0.0000 0.0000 0.0000
# 4 0.0000 0.0000 0.0000 -131.1742 0.0000 0.0000
# 5 0.0000 0.0000 0.0000 0.0000 13.7046 0.0000
# 6 0.0000 0.0000 0.0000 0.0000 0.0000 -5.6513
#
#
#
# Elastic Compliance Matrix: (Units=1/GPa)
#
#
# Indices 1 2 3 4 5 6 
#
# 1 0.057739 -0.001204 0.012704 0.000000 0.000000 0.000000
# 2 -0.001204 0.009387 -0.002714 0.000000 0.000000 0.000000
# 3 0.012704 -0.002714 0.026185 0.000000 0.000000 0.000000
# 4 0.000000 0.000000 0.000000 -0.007623 0.000000 0.000000
# 5 0.000000 0.000000 0.000000 0.000000 0.072968 0.000000
# 6 0.000000 0.000000 0.000000 0.000000 0.000000 -0.176951
#
#
# Mechanical properties :
#
#
# Convention : Reuss Voigt Hill
#
# Bulk Modulus (GPa) = 9.01855 19.64770 14.33313
# Shear Modulus (GPa) = 4574.31106 -13.20110 2280.55498
#
# Velocity S-wave (km/s) = 49.01050 -2.63288 34.60562
# Velocity P-wave (km/s) = 56.63428 1.03658 40.05319
#
# Compressibility (1/GPa) = 0.11088253
#
# Stress axis : x y z
#
# Youngs Moduli (GPa) = 17.31936 106.53126 38.19033
#
# Poissons Ratio (x) = 0.12827 -0.48518
# Poissons Ratio (y) = 0.02085 0.10365
# Poissons Ratio (z) = -0.22003 0.28914
#
# Static dielectric constant tensor:
#      x y z
#    x 1.774220 0.000000 0.000000 
#    y 0.000000 1.644980 0.000000 
#    z 0.000000 0.000000 1.678500 
# 
# From -- ./inp_files/12832.got.cif
#   From: 2010.05.17/outbox.cif.g08.bks.cpg/sg24_7_cif.got.tgz:12832.got - 2010.06.04 00:33:39.
