data_PCOD9334849
_publ_section_title
;
Structure prediction by ZEFSAII (Michael W. Deem and Ramdas Pophale) SiO2 
 PCOD9334849
Probable space group: I 21 21 21
;
_chemical_formula_sum "Si O2"
_cell_formula_units_Z 64
_cell_length_a 8.308682
_cell_length_b 16.160607
_cell_length_c 24.346555
_cell_angle_alpha 90.000000
_cell_angle_beta 90.000000
_cell_angle_gamma 90.000000
_cell_volume 3269.093367
_symmetry_space_group_name_H-M "I 21 21 21"
_symmetry_group_IT_number 24
_symmetry_cell_setting 'orthorhombic'
loop_
_space_group_symop_operation_xyz
x,y,z
-x,1/2-y,z
x,-y,1/2-z
1/2-x,y,-z
1/2+x,1/2+y,1/2+z
1/2-x,-y,1/2+z
1/2+x,1/2-y,-z
-x,1/2+y,1/2-z
loop_
_atom_site_type_symbol
_atom_site_label
_atom_site_fract_x
_atom_site_fract_y
_atom_site_fract_z
Si Si1 0.476385 0.598739 0.754713
Si Si2 0.878689 0.580973 0.354520
Si Si3 0.687463 0.867526 0.170460
Si Si4 0.639562 0.444922 0.370203
Si Si5 0.466041 0.476385 0.027606
Si Si6 0.116565 0.823198 0.460110
Si Si7 0.846573 0.700748 0.149184
Si Si8 0.351724 0.520428 0.919532
O O1 0.505308 0.500000 0.750000
O O2 0.538359 0.628528 0.695562
O O3 0.292115 0.608265 0.775603
O O4 0.579102 0.650540 0.798967
O O5 0.736917 0.517214 0.338850
O O6 0.817721 0.638072 0.403977
O O7 0.021646 0.527172 0.381951
O O8 0.508988 0.905547 0.164263
O O9 0.713709 0.769274 0.165258
O O10 0.779225 0.907648 0.117762
O O11 0.580880 0.485779 0.426694
O O12 0.761046 0.370709 0.384721
O O13 0.298247 0.463719 0.060284
O O14 0.533418 0.396072 0.996375
O O15 0.433559 0.540895 0.977771
O O16 0.250000 0.787175 0.500000
O O17 0.000000 0.750000 0.444525
O O18 0.000000 0.750000 0.125276
#
# Coordination Sequence:
#
# PCOD9334849 Si02
#       8
#     8   8   8   8   8   8   8   8
#     4  11  20  39  60  89 122 167 221 258 314 395
#     4  11  21  38  63  93 121 171 220 259 313 393
#     4  10  21  37  62  92 126 166 205 273 325 377
#     4  11  20  38  64  94 126 164 215 265 318 385
#     4   9  20  37  61  90 127 162 213 262 302 386
#     4  11  24  39  62  94 131 169 212 265 334 386
#     4  10  21  38  64  89 125 166 204 260 325 388
#     4   9  18  35  61  89 120 166 210 252 315 376
#
# _framework density 19.577293000000001
#
# number of rings (size 3 to 8) (size 9 to 14) (size 15 to 20)
#    0.000    1.750    3.750    1.125    3.500    1.500 
#    2.250    0.000    0.000   40.500    0.000    0.000 
#    0.000    0.000    0.000    0.000    0.000    0.000 
#
# Total GULP energy -178243.357051 kJ/mol
# GULP energy per Si atom -5570.104908 kJ/mol
# Density = 1.953273 g / cm^3
# Si number density = 19.577293 Si / 1000 Ang^3
#
#
#
# Elastic Constant Matrix: (Units=GPa)
#
#
# Indices 1 2 3 4 5 6 
#
# 1 81.9981 16.2160 30.6471 0.0000 0.0000 0.0000
# 2 16.2160 45.6993 -6.0972 0.0000 0.0000 0.0000
# 3 30.6471 -6.0972 53.2826 0.0000 0.0000 0.0000
# 4 0.0000 0.0000 0.0000 15.1805 0.0000 0.0000
# 5 0.0000 0.0000 0.0000 0.0000 35.7098 0.0000
# 6 0.0000 0.0000 0.0000 0.0000 0.0000 31.1611
#
#
#
# Elastic Compliance Matrix: (Units=1/GPa)
#
#
# Indices 1 2 3 4 5 6 
#
# 1 0.017945 -0.007865 -0.011221 0.000000 0.000000 0.000000
# 2 -0.007865 0.025668 0.007461 0.000000 0.000000 0.000000
# 3 -0.011221 0.007461 0.026076 0.000000 0.000000 0.000000
# 4 0.000000 0.000000 0.000000 0.065874 0.000000 0.000000
# 5 0.000000 0.000000 0.000000 0.000000 0.028003 0.000000
# 6 0.000000 0.000000 0.000000 0.000000 0.000000 0.032091
#
#
# Mechanical properties :
#
#
# Convention : Reuss Voigt Hill
#
# Bulk Modulus (GPa) = 21.53386 29.16799 25.35093
# Shear Modulus (GPa) = 21.33215 25.75789 23.54502
#
# Velocity S-wave (km/s) = 3.30455 3.63120 3.47172
# Velocity P-wave (km/s) = 5.05800 5.70193 5.38959
#
# Compressibility (1/GPa) = 0.04643849
#
# Stress axis : x y z
#
# Youngs Moduli (GPa) = 55.72651 38.95852 38.34954
#
# Poissons Ratio (x) = 0.30640 0.43034
# Poissons Ratio (y) = 0.43827 -0.28612
# Poissons Ratio (z) = 0.62533 -0.29066
#
# Static dielectric constant tensor:
#      x y z
#    x 1.756370 0.000000 0.000000 
#    y 0.000000 1.695240 0.000000 
#    z 0.000000 0.000000 1.695490 
# 
# From -- ./inp_files/35285.got.cif
#   From: 2010.05.17/outbox.cif.g08.bks.cpg/sg24_18_cif.got.tgz:35285.got - 2010.06.04 00:33:39.
