data_PCOD9334864
_publ_section_title
;
Structure prediction by ZEFSAII (Michael W. Deem and Ramdas Pophale) SiO2 
 PCOD9334864
Probable space group: I 21 21 21
;
_chemical_formula_sum "Si O2"
_cell_formula_units_Z 32
_cell_length_a 7.887831
_cell_length_b 20.523347
_cell_length_c 9.545607
_cell_angle_alpha 90.000000
_cell_angle_beta 90.000000
_cell_angle_gamma 90.000000
_cell_volume 1545.287656
_symmetry_space_group_name_H-M "I 21 21 21"
_symmetry_group_IT_number 24
_symmetry_cell_setting 'orthorhombic'
loop_
_space_group_symop_operation_xyz
x,y,z
-x,1/2-y,z
x,-y,1/2-z
1/2-x,y,-z
1/2+x,1/2+y,1/2+z
1/2-x,-y,1/2+z
1/2+x,1/2-y,-z
-x,1/2+y,1/2-z
loop_
_atom_site_type_symbol
_atom_site_label
_atom_site_fract_x
_atom_site_fract_y
_atom_site_fract_z
Si Si1 0.439315 0.321304 0.441828
Si Si2 0.976679 0.059448 0.103923
Si Si3 0.894007 0.576213 0.111692
Si Si4 0.094475 0.425628 0.800530
O O1 0.500000 0.250000 0.400614
O O2 0.250000 0.318575 0.500000
O O3 0.549900 0.352342 0.566653
O O4 0.453184 0.373718 0.317164
O O5 0.795401 0.081487 0.164670
O O6 0.121591 0.073540 0.219705
O O7 0.998443 0.085939 0.948477
O O8 0.967172 0.980751 0.088361
O O9 0.750000 0.557445 0.000000
O O10 0.064031 0.500000 0.750000
#
# Coordination Sequence:
#
# PCOD9334864 Si02
#       4
#     8   8   8   8
#     4  12  24  43  67  98 138 190 234 283 357 436
#     4  10  21  37  67 101 136 170 227 302 347 409
#     4  11  22  38  62 102 141 176 223 285 356 417
#     4  11  19  38  71 102 131 177 238 291 358 416
#
# _framework density 20.708117999999999
#
# number of rings (size 3 to 8) (size 9 to 14) (size 15 to 20)
#    0.000    1.000    7.500    0.750    0.000    4.000 
#    0.000    1.250    5.500    0.000    0.000    0.000 
#    0.000    0.000    0.000    0.000    0.000    0.000 
#
# Total GULP energy -89299.215298 kJ/mol
# GULP energy per Si atom -5581.200956 kJ/mol
# Density = 2.066099 g / cm^3
# Si number density = 20.708118 Si / 1000 Ang^3
#
#
#
# Elastic Constant Matrix: (Units=GPa)
#
#
# Indices 1 2 3 4 5 6 
#
# 1 35.3966 11.8221 42.2763 0.0000 0.0000 0.0000
# 2 11.8221 136.1074 63.9926 0.0000 0.0000 0.0000
# 3 42.2763 63.9926 196.6370 0.0001 0.0000 0.0000
# 4 0.0000 0.0000 0.0001 29.6214 0.0000 0.0000
# 5 0.0000 0.0000 0.0000 0.0000 34.3636 0.0000
# 6 0.0000 0.0000 0.0000 0.0000 0.0000 19.4526
#
#
#
# Elastic Compliance Matrix: (Units=1/GPa)
#
#
# Indices 1 2 3 4 5 6 
#
# 1 0.038059 0.000639 -0.008391 0.000000 0.000000 0.000000
# 2 0.000639 0.008685 -0.002964 0.000000 0.000000 0.000000
# 3 -0.008391 -0.002964 0.007854 0.000000 0.000000 0.000000
# 4 0.000000 0.000000 0.000000 0.033759 0.000000 0.000000
# 5 0.000000 0.000000 0.000000 0.000000 0.029101 0.000000
# 6 0.000000 0.000000 0.000000 0.000000 0.000000 0.051407
#
#
# Mechanical properties :
#
#
# Convention : Reuss Voigt Hill
#
# Bulk Modulus (GPa) = 30.14973 67.14699 48.64836
# Shear Modulus (GPa) = 24.83214 33.35751 29.09482
#
# Velocity S-wave (km/s) = 3.46663 4.01788 3.75239
# Velocity P-wave (km/s) = 5.53302 7.34985 6.50518
#
# Compressibility (1/GPa) = 0.03316779
#
# Stress axis : x y z
#
# Youngs Moduli (GPa) = 26.27480 115.13945 127.32326
#
# Poissons Ratio (x) = -0.07360 1.06832
# Poissons Ratio (y) = -0.01679 0.37737
# Poissons Ratio (z) = 0.22046 0.34126
#
# Static dielectric constant tensor:
#      x y z
#    x 1.820980 0.000000 0.000000 
#    y 0.000000 1.690260 0.000000 
#    z 0.000000 0.000000 1.805810 
# 
# From -- ./inp_files/8908.got.cif
#   From: 2010.05.17/outbox.cif.g08.bks.cpg/sg24_5_cif.got.tgz:8908.got - 2010.06.04 00:33:39.
