data_PCOD9334714
_publ_section_title
;
Structure prediction by ZEFSAII (Michael W. Deem and Ramdas Pophale) SiO2 
 PCOD9334714
Probable space group: I 21 21 21
;
_chemical_formula_sum "Si O2"
_cell_formula_units_Z 32
_cell_length_a 10.524323
_cell_length_b 12.185649
_cell_length_c 10.422113
_cell_angle_alpha 90.000000
_cell_angle_beta 90.000000
_cell_angle_gamma 90.000000
_cell_volume 1336.591240
_symmetry_space_group_name_H-M "I 21 21 21"
_symmetry_group_IT_number 24
_symmetry_cell_setting 'orthorhombic'
loop_
_space_group_symop_operation_xyz
x,y,z
-x,1/2-y,z
x,-y,1/2-z
1/2-x,y,-z
1/2+x,1/2+y,1/2+z
1/2-x,-y,1/2+z
1/2+x,1/2-y,-z
-x,1/2+y,1/2-z
loop_
_atom_site_type_symbol
_atom_site_label
_atom_site_fract_x
_atom_site_fract_y
_atom_site_fract_z
Si Si1 0.020161 0.621845 0.040131
Si Si2 0.250000 0.150325 0.500000
Si Si3 0.073541 0.442841 0.866937
Si Si4 0.801676 0.195103 0.254269
Si Si5 0.500000 0.750000 0.548409
O O1 0.084525 0.626722 0.178083
O O2 0.000000 0.750000 0.001517
O O3 0.108420 0.546546 0.954361
O O4 0.877096 0.580299 0.020993
O O5 0.249071 0.226424 0.369906
O O6 0.998252 0.500000 0.750000
O O7 0.192554 0.379955 0.804775
O O8 0.006533 0.354793 0.956135
O O9 0.875240 0.254157 0.138324
#
# Coordination Sequence:
#
# PCOD9334714 Si02
#       5
#     8   4   8   8   4
#     4  10  23  49  77 119 151 214 269 341 406 485
#     4  10  20  48  82 102 168 210 266 342 406 484
#     4  12  29  46  80 117 164 216 277 330 408 487
#     4  11  24  49  78 118 162 209 278 336 408 486
#     4  12  28  50  72 124 162 214 274 346 396 492
#
# _framework density 23.941499
#
# number of rings (size 3 to 8) (size 9 to 14) (size 15 to 20)
#    0.000    1.000    3.750    3.750   12.250    0.000 
#    4.500    0.000    0.000    0.000    0.000    0.000 
#    0.000    0.000    0.000    0.000    0.000    0.000 
#
# Total GULP energy -89350.122077 kJ/mol
# GULP energy per Si atom -5584.382630 kJ/mol
# Density = 2.388701 g / cm^3
# Si number density = 23.941499 Si / 1000 Ang^3
#
#
#
# Elastic Constant Matrix: (Units=GPa)
#
#
# Indices 1 2 3 4 5 6 
#
# 1 119.6400 27.0501 69.8327 0.0000 0.0000 0.0000
# 2 27.0501 125.9723 86.0477 0.0000 0.0000 0.0000
# 3 69.8327 86.0477 183.0108 0.0000 0.0000 0.0000
# 4 0.0000 0.0000 0.0000 41.1574 0.0000 0.0000
# 5 0.0000 0.0000 0.0000 0.0000 54.3412 0.0000
# 6 0.0000 0.0000 0.0000 0.0000 0.0000 19.7734
#
#
#
# Elastic Compliance Matrix: (Units=1/GPa)
#
#
# Indices 1 2 3 4 5 6 
#
# 1 0.010799 0.000730 -0.004464 0.000000 0.000000 0.000000
# 2 0.000730 0.011743 -0.005800 0.000000 0.000000 0.000000
# 3 -0.004464 -0.005800 0.009895 0.000000 0.000000 0.000000
# 4 0.000000 0.000000 0.000000 0.024297 0.000000 0.000000
# 5 0.000000 0.000000 0.000000 0.000000 0.018402 0.000000
# 6 0.000000 0.000000 0.000000 0.000000 0.000000 0.050573
#
#
# Mechanical properties :
#
#
# Convention : Reuss Voigt Hill
#
# Bulk Modulus (GPa) = 74.79848 88.27601 81.53724
# Shear Modulus (GPa) = 33.50464 39.43390 36.46927
#
# Velocity S-wave (km/s) = 3.74496 4.06284 3.90714
# Velocity P-wave (km/s) = 7.07175 7.67858 7.38140
#
# Compressibility (1/GPa) = 0.01336926
#
# Stress axis : x y z
#
# Youngs Moduli (GPa) = 92.60227 85.15488 101.06501
#
# Poissons Ratio (x) = -0.06220 0.45116
# Poissons Ratio (y) = -0.06763 0.58619
# Poissons Ratio (z) = 0.41338 0.49391
#
# Static dielectric constant tensor:
#      x y z
#    x 2.020550 0.000000 0.000000 
#    y 0.000000 1.926400 0.000000 
#    z 0.000000 0.000000 1.973710 
# 
# From -- ./inp_files/10324.got.cif
#   From: 2010.05.17/outbox.cif.g08.bks.cpg/sg24_6_cif.got.tgz:10324.got - 2010.06.04 00:33:39.
