data_PCOD9334216
_publ_section_title
;
Structure prediction by ZEFSAII (Michael W. Deem and Ramdas Pophale) SiO2 
 PCOD9334216
Probable space group: I 21 21 21
;
_chemical_formula_sum "Si O2"
_cell_formula_units_Z 36
_cell_length_a 8.009187
_cell_length_b 20.145090
_cell_length_c 9.641619
_cell_angle_alpha 90.000000
_cell_angle_beta 90.000000
_cell_angle_gamma 90.000000
_cell_volume 1555.634663
_symmetry_space_group_name_H-M "I 21 21 21"
_symmetry_group_IT_number 24
_symmetry_cell_setting 'orthorhombic'
loop_
_space_group_symop_operation_xyz
x,y,z
-x,1/2-y,z
x,-y,1/2-z
1/2-x,y,-z
1/2+x,1/2+y,1/2+z
1/2-x,-y,1/2+z
1/2+x,1/2-y,-z
-x,1/2+y,1/2-z
loop_
_atom_site_type_symbol
_atom_site_label
_atom_site_fract_x
_atom_site_fract_y
_atom_site_fract_z
Si Si1 0.850647 0.445400 0.640223
Si Si2 0.250000 0.577632 0.500000
Si Si3 0.816183 0.000000 0.750000
Si Si4 0.342649 0.210492 0.291760
Si Si5 0.923351 0.344416 0.993999
Si Si6 0.500000 0.250000 0.757285
O O1 0.784261 0.500000 0.750000
O O2 0.750000 0.456498 0.500000
O O3 0.831528 0.367042 0.671991
O O4 0.051052 0.459374 0.652722
O O5 0.295775 0.537834 0.638466
O O6 0.413004 0.616941 0.448218
O O7 0.500000 0.250000 0.349254
O O8 0.367048 0.208386 0.123249
O O9 0.171580 0.248141 0.325013
O O10 0.750000 0.385512 0.000000
O O11 0.980777 0.312130 0.138173
#
# Coordination Sequence:
#
# PCOD9334216 Si02
#       6
#     8   4   4   8   8   4
#     4  10  24  50  74 108 151 204 259 312 392 463
#     4  12  22  46  66  98 148 180 244 312 364 448
#     4  10  26  44  70 106 138 200 250 312 378 450
#     4  11  21  41  69 105 149 190 247 316 377 458
#     4  10  20  36  65 101 140 183 239 301 373 435
#     4  10  22  32  66 112 130 192 242 298 378 438
#
# _framework density 23.141680000000001
#
# number of rings (size 3 to 8) (size 9 to 14) (size 15 to 20)
#    0.667    0.889    3.333    1.333    1.556    7.111 
#   12.000    1.111    0.000    0.000    0.000    0.000 
#    0.000    0.000    0.000    0.000    0.000    0.000 
#
# Total GULP energy -100307.544476 kJ/mol
# GULP energy per Si atom -5572.641360 kJ/mol
# Density = 2.308901 g / cm^3
# Si number density = 23.141680 Si / 1000 Ang^3
#
#
#
# Elastic Constant Matrix: (Units=GPa)
#
#
# Indices 1 2 3 4 5 6 
#
# 1 156.1951 58.6536 29.7003 -0.0002 -0.0003 0.0001
# 2 58.6536 99.6531 27.1755 0.0008 0.0000 -0.0002
# 3 29.7003 27.1755 67.4089 0.0045 0.0004 -0.0013
# 4 -0.0002 0.0008 0.0045 26.0381 0.0001 -0.0004
# 5 -0.0003 0.0000 0.0004 0.0001 25.7674 0.0001
# 6 0.0001 -0.0002 -0.0013 -0.0004 0.0001 -26.6117
#
#
#
# Elastic Compliance Matrix: (Units=1/GPa)
#
#
# Indices 1 2 3 4 5 6 
#
# 1 0.008436 -0.004440 -0.001927 0.000001 0.000000 0.000000
# 2 -0.004440 0.013611 -0.003531 0.000000 0.000000 0.000000
# 3 -0.001927 -0.003531 0.017107 -0.000003 0.000000 -0.000001
# 4 0.000001 0.000000 -0.000003 0.038405 0.000000 -0.000001
# 5 0.000000 0.000000 0.000000 0.000000 0.038809 0.000000
# 6 0.000000 0.000000 -0.000001 -0.000001 0.000000 -0.037577
#
#
# Mechanical properties :
#
#
# Convention : Reuss Voigt Hill
#
# Bulk Modulus (GPa) = 51.65639 61.59066 56.62353
# Shear Modulus (GPa) = 47.60150 18.88727 33.24438
#
# Velocity S-wave (km/s) = 4.54029 2.85995 3.79431
# Velocity P-wave (km/s) = 7.06087 6.13010 6.61188
#
# Compressibility (1/GPa) = 0.01935869
#
# Stress axis : x y z
#
# Youngs Moduli (GPa) = 118.54221 73.47110 58.45431
#
# Poissons Ratio (x) = 0.32618 0.11264
# Poissons Ratio (y) = 0.52628 0.20640
# Poissons Ratio (z) = 0.22843 0.25943
#
# Static dielectric constant tensor:
#      x y z
#    x 1.937790 0.000000 0.000000 
#    y 0.000000 1.955980 0.000000 
#    z 0.000000 0.000000 1.924890 
# 
# From -- ./inp_files/18386.got.cif
#   From: 2010.05.17/outbox.cif.g08.bks.cpg/sg24_10_cif.got.tgz:18386.got - 2010.06.04 00:33:39.
