data_PCOD9334646
_publ_section_title
;
Structure prediction by ZEFSAII (Michael W. Deem and Ramdas Pophale) SiO2 
 PCOD9334646
Probable space group: I 21 21 21
;
_chemical_formula_sum "Si O2"
_cell_formula_units_Z 56
_cell_length_a 14.119618
_cell_length_b 13.706455
_cell_length_c 14.048718
_cell_angle_alpha 90.000000
_cell_angle_beta 90.000000
_cell_angle_gamma 90.000000
_cell_volume 2718.847112
_symmetry_space_group_name_H-M "I 21 21 21"
_symmetry_group_IT_number 24
_symmetry_cell_setting 'orthorhombic'
loop_
_space_group_symop_operation_xyz
x,y,z
-x,1/2-y,z
x,-y,1/2-z
1/2-x,y,-z
1/2+x,1/2+y,1/2+z
1/2-x,-y,1/2+z
1/2+x,1/2-y,-z
-x,1/2+y,1/2-z
loop_
_atom_site_type_symbol
_atom_site_label
_atom_site_fract_x
_atom_site_fract_y
_atom_site_fract_z
Si Si1 0.009416 0.487421 0.510456
Si Si2 0.599897 0.805931 0.926324
Si Si3 0.639887 0.848325 0.517592
Si Si4 0.886744 0.769483 0.284320
Si Si5 0.642033 0.626699 0.471905
Si Si6 0.273809 0.888903 0.275113
Si Si7 0.407424 0.189737 0.387183
O O1 0.073887 0.417521 0.446717
O O2 0.079850 0.573452 0.541384
O O3 0.923537 0.552296 0.470657
O O4 0.955637 0.411139 0.577882
O O5 0.500000 0.750000 0.915877
O O6 0.644591 0.798876 0.822522
O O7 0.635541 0.751229 0.022442
O O8 0.750000 0.862386 0.500000
O O9 0.626174 0.848330 0.631824
O O10 0.613691 0.738070 0.488642
O O11 0.817073 0.677133 0.304880
O O12 0.000000 0.750000 0.284764
O O13 0.750000 0.612237 0.500000
O O14 0.647839 0.607307 0.359155
O O15 0.326891 0.836973 0.187275
O O16 0.246211 0.000000 0.250000
O O17 0.500000 0.250000 0.351598
#
# Coordination Sequence:
#
# PCOD9334646 Si02
#       7
#     8   8   8   8   8   8   8
#     4  10  20  41  69  92 132 178 222 270 339 411
#     4   8  20  42  66  93 129 175 218 270 338 397
#     4  11  23  42  63  95 135 179 226 277 339 411
#     4  11  23  45  64  95 136 172 218 275 348 406
#     4  11  22  39  64  98 133 172 222 281 350 390
#     4  12  24  42  69 105 132 171 239 286 341 415
#     4   9  21  44  66 100 136 173 224 285 348 398
#
# _framework density 20.596965000000001
#
# number of rings (size 3 to 8) (size 9 to 14) (size 15 to 20)
#    0.000    2.000    4.286    1.286    0.000    5.714 
#    5.143    0.000    0.000    0.000    0.000    0.000 
#    0.000    0.000    0.000    0.000    0.000    0.000 
#
# Total GULP energy -155872.197572 kJ/mol
# GULP energy per Si atom -5566.864199 kJ/mol
# Density = 2.055009 g / cm^3
# Si number density = 20.596965 Si / 1000 Ang^3
#
#
#
# Elastic Constant Matrix: (Units=GPa)
#
#
# Indices 1 2 3 4 5 6 
#
# 1 90.3291 42.2449 20.2479 0.0000 0.0000 0.0000
# 2 42.2449 124.6229 11.8135 0.0000 0.0000 0.0000
# 3 20.2479 11.8135 96.3947 0.0000 0.0000 0.0000
# 4 0.0000 0.0000 0.0000 -19.9305 0.0000 0.0000
# 5 0.0000 0.0000 0.0000 0.0000 29.1762 0.0000
# 6 0.0000 0.0000 0.0000 0.0000 0.0000 23.2375
#
#
#
# Elastic Compliance Matrix: (Units=1/GPa)
#
#
# Indices 1 2 3 4 5 6 
#
# 1 0.013654 -0.004408 -0.002328 0.000000 0.000000 0.000000
# 2 -0.004408 0.009541 -0.000243 0.000000 0.000000 0.000000
# 3 -0.002328 -0.000243 0.010893 0.000000 0.000000 0.000000
# 4 0.000000 0.000000 0.000000 -0.050174 0.000000 0.000000
# 5 0.000000 0.000000 0.000000 0.000000 0.034275 0.000000
# 6 0.000000 0.000000 0.000000 0.000000 0.000000 0.043034
#
#
# Mechanical properties :
#
#
# Convention : Reuss Voigt Hill
#
# Bulk Modulus (GPa) = 49.67714 51.10659 50.39186
# Shear Modulus (GPa) = 61.05741 22.29934 41.67837
#
# Velocity S-wave (km/s) = 5.45053 3.29394 4.50324
# Velocity P-wave (km/s) = 7.98636 6.27162 7.18036
#
# Compressibility (1/GPa) = 0.02012998
#
# Stress axis : x y z
#
# Youngs Moduli (GPa) = 73.23952 104.80607 91.80360
#
# Poissons Ratio (x) = 0.46196 0.21370
# Poissons Ratio (y) = 0.32282 0.02235
# Poissons Ratio (z) = 0.17049 0.02552
#
# Static dielectric constant tensor:
#      x y z
#    x 1.757740 0.000000 0.000000 
#    y 0.000000 1.761450 0.000000 
#    z 0.000000 0.000000 1.822130 
# 
# From -- ./inp_files/26493.got.cif
#   From: 2010.05.17/outbox.cif.g08.bks.cpg/sg24_14_cif.got.tgz:26493.got - 2010.06.04 00:33:39.
