data_PCOD9334108
_publ_section_title
;
Structure prediction by ZEFSAII (Michael W. Deem and Ramdas Pophale) SiO2 
 PCOD9334108
Probable space group: I 21 21 21
;
_chemical_formula_sum "Si O2"
_cell_formula_units_Z 48
_cell_length_a 8.669899
_cell_length_b 27.742827
_cell_length_c 9.080734
_cell_angle_alpha 90.000000
_cell_angle_beta 90.000000
_cell_angle_gamma 90.000000
_cell_volume 2184.166320
_symmetry_space_group_name_H-M "I 21 21 21"
_symmetry_group_IT_number 24
_symmetry_cell_setting 'orthorhombic'
loop_
_space_group_symop_operation_xyz
x,y,z
-x,1/2-y,z
x,-y,1/2-z
1/2-x,y,-z
1/2+x,1/2+y,1/2+z
1/2-x,-y,1/2+z
1/2+x,1/2-y,-z
-x,1/2+y,1/2-z
loop_
_atom_site_type_symbol
_atom_site_label
_atom_site_fract_x
_atom_site_fract_y
_atom_site_fract_z
Si Si1 0.777862 0.680287 0.829506
Si Si2 0.845193 0.037870 0.861168
Si Si3 0.094900 0.867548 0.412113
Si Si4 0.596057 0.145601 0.189040
Si Si5 0.593229 0.516925 0.580528
Si Si6 0.821336 0.770347 0.338359
O O1 0.637081 0.652488 0.746651
O O2 0.762246 0.734746 0.775430
O O3 0.947600 0.662389 0.781961
O O4 0.750000 0.675082 0.000000
O O5 0.890245 0.088000 0.785206
O O6 0.768740 0.000000 0.750000
O O7 0.750000 0.055976 0.000000
O O8 0.971358 0.006393 0.950022
O O9 0.250000 0.854757 0.500000
O O10 0.085097 0.924985 0.408321
O O11 0.959702 0.848254 0.517329
O O12 0.751435 0.176923 0.209468
O O13 0.581735 0.500000 0.750000
O O14 0.750000 0.501929 0.500000
O O15 0.750000 0.761010 0.500000
O O16 0.000000 0.750000 0.339641
#
# Coordination Sequence:
#
# PCOD9334108 Si02
#       6
#     8   8   8   8   8   8
#     4  11  23  39  62  97 136 169 209 266 330 393
#     4  11  24  43  65  94 129 171 222 275 329 391
#     4   8  17  36  60  88 124 171 217 257 310 384
#     4  10  22  44  68  91 127 173 220 266 321 396
#     4  10  20  35  61  94 130 171 220 275 328 387
#     4  12  24  41  68  96 125 169 224 273 326 397
#
# _framework density 21.976348999999999
#
# number of rings (size 3 to 8) (size 9 to 14) (size 15 to 20)
#    0.000    1.667    0.000    6.500    0.000    4.667 
#    0.000    2.500    0.000    0.000    0.000    0.000 
#    0.000    0.000    0.000    0.000    0.000    0.000 
#
# Total GULP energy -133707.292044 kJ/mol
# GULP energy per Si atom -5571.137168 kJ/mol
# Density = 2.192633 g / cm^3
# Si number density = 21.976349 Si / 1000 Ang^3
#
#
#
# Elastic Constant Matrix: (Units=GPa)
#
#
# Indices 1 2 3 4 5 6 
#
# 1 117.3032 42.9449 25.1039 0.0001 0.0000 -0.0003
# 2 42.9449 96.4316 49.6885 -0.0002 0.0001 -0.0002
# 3 25.1039 49.6885 121.2547 0.0010 0.0006 -0.0030
# 4 0.0001 -0.0002 0.0010 22.3996 0.0002 -0.0008
# 5 0.0000 0.0001 0.0006 0.0002 25.3858 0.0001
# 6 -0.0003 -0.0002 -0.0030 -0.0008 0.0001 61.4582
#
#
#
# Elastic Compliance Matrix: (Units=1/GPa)
#
#
# Indices 1 2 3 4 5 6 
#
# 1 0.010195 -0.004377 -0.000317 0.000000 0.000000 0.000000
# 2 -0.004377 0.015025 -0.005251 0.000000 0.000000 0.000000
# 3 -0.000317 -0.005251 0.010464 -0.000001 0.000000 0.000000
# 4 0.000000 0.000000 -0.000001 0.044644 0.000000 0.000001
# 5 0.000000 0.000000 0.000000 0.000000 0.039392 0.000000
# 6 0.000000 0.000000 0.000000 0.000001 0.000000 0.016271
#
#
# Mechanical properties :
#
#
# Convention : Reuss Voigt Hill
#
# Bulk Modulus (GPa) = 63.31211 63.38490 63.34851
# Shear Modulus (GPa) = 31.02774 36.33220 33.67997
#
# Velocity S-wave (km/s) = 3.76156 4.07042 3.91903
# Velocity P-wave (km/s) = 6.90924 7.14115 7.02615
#
# Compressibility (1/GPa) = 0.01579477
#
# Stress axis : x y z
#
# Youngs Moduli (GPa) = 98.08550 66.55641 95.56144
#
# Poissons Ratio (x) = 0.29131 0.03031
# Poissons Ratio (y) = 0.42931 0.50177
# Poissons Ratio (z) = 0.03111 0.34947
#
# Static dielectric constant tensor:
#      x y z
#    x 1.997520 0.000000 0.000000 
#    y 0.000000 1.867720 0.000000 
#    z 0.000000 0.000000 1.757540 
# 
# From -- ./inp_files/9766.got.cif
#   From: 2010.05.17/outbox.cif.g08.bks.cpg/sg24_5_cif.got.tgz:9766.got - 2010.06.04 00:33:39.
