data_PCOD9334266
_publ_section_title
;
Structure prediction by ZEFSAII (Michael W. Deem and Ramdas Pophale) SiO2 
 PCOD9334266
Probable space group: I 21 21 21
;
_chemical_formula_sum "Si O2"
_cell_formula_units_Z 44
_cell_length_a 13.681029
_cell_length_b 14.806886
_cell_length_c 11.839534
_cell_angle_alpha 90.000000
_cell_angle_beta 90.000000
_cell_angle_gamma 90.000000
_cell_volume 2398.375092
_symmetry_space_group_name_H-M "I 21 21 21"
_symmetry_group_IT_number 24
_symmetry_cell_setting 'orthorhombic'
loop_
_space_group_symop_operation_xyz
x,y,z
-x,1/2-y,z
x,-y,1/2-z
1/2-x,y,-z
1/2+x,1/2+y,1/2+z
1/2-x,-y,1/2+z
1/2+x,1/2-y,-z
-x,1/2+y,1/2-z
loop_
_atom_site_type_symbol
_atom_site_label
_atom_site_fract_x
_atom_site_fract_y
_atom_site_fract_z
Si Si1 0.498128 0.952801 0.371012
Si Si2 0.364762 0.722540 0.012857
Si Si3 0.104485 0.299458 0.770353
Si Si4 0.711463 0.358585 0.123801
Si Si5 0.354513 0.000000 0.750000
Si Si6 0.522259 0.398164 0.558201
O O1 0.589181 0.885349 0.351132
O O2 0.395263 0.902830 0.390651
O O3 0.486733 0.000000 0.250000
O O4 0.506670 0.023031 0.471920
O O5 0.386920 0.682905 0.137163
O O6 0.250000 0.722461 0.000000
O O7 0.424619 0.661634 0.923280
O O8 0.405793 0.824671 0.001380
O O9 0.190741 0.231818 0.804967
O O10 0.000000 0.250000 0.781994
O O11 0.784348 0.429276 0.184027
O O12 0.750000 0.336280 0.000000
O O13 0.422239 0.056879 0.663479
#
# Coordination Sequence:
#
# PCOD9334266 Si02
#       6
#     8   8   8   8   4   8
#     4  11  19  36  64  89 122 160 215 259 296 364
#     4  11  22  40  66  91 126 164 211 256 311 369
#     4  10  20  37  60  92 122 158 209 257 306 359
#     4  11  22  35  59  96 122 162 207 256 318 363
#     4  12  24  38  62  94 132 156 206 262 314 378
#     4  11  23  40  60  97 125 164 204 260 314 361
#
# _framework density 18.345753999999999
#
# number of rings (size 3 to 8) (size 9 to 14) (size 15 to 20)
#    0.000    1.091    6.364    2.182    2.545    0.000 
#    0.000    8.182    0.000    0.000    0.000    0.000 
#    0.000    0.000    0.000    0.000    0.000    0.000 
#
# Total GULP energy -122667.791271 kJ/mol
# GULP energy per Si atom -5575.808694 kJ/mol
# Density = 1.830400 g / cm^3
# Si number density = 18.345754 Si / 1000 Ang^3
#
#
#
# Elastic Constant Matrix: (Units=GPa)
#
#
# Indices 1 2 3 4 5 6 
#
# 1 97.7896 50.0318 26.5560 0.0000 0.0000 0.0000
# 2 50.0318 88.3956 34.6741 0.0000 0.0000 0.0000
# 3 26.5560 34.6741 73.2223 0.0000 0.0000 0.0000
# 4 0.0000 0.0000 0.0000 33.3974 0.0000 0.0000
# 5 0.0000 0.0000 0.0000 0.0000 -7.7642 0.0000
# 6 0.0000 0.0000 0.0000 0.0000 0.0000 34.7920
#
#
#
# Elastic Compliance Matrix: (Units=1/GPa)
#
#
# Indices 1 2 3 4 5 6 
#
# 1 0.014563 -0.007579 -0.001693 0.000000 0.000000 0.000000
# 2 -0.007579 0.017838 -0.005698 0.000000 0.000000 0.000000
# 3 -0.001693 -0.005698 0.016969 0.000000 0.000000 0.000000
# 4 0.000000 0.000000 0.000000 0.029942 0.000000 0.000000
# 5 0.000000 0.000000 0.000000 0.000000 -0.128797 0.000000
# 6 0.000000 0.000000 0.000000 0.000000 0.000000 0.028742
#
#
# Mechanical properties :
#
#
# Convention : Reuss Voigt Hill
#
# Bulk Modulus (GPa) = 51.46561 53.54793 52.50677
# Shear Modulus (GPa) = 318.99214 21.96142 170.47678
#
# Velocity S-wave (km/s) = 13.20058 3.46364 9.65019
# Velocity P-wave (km/s) = 16.13860 6.72661 12.36329
#
# Compressibility (1/GPa) = 0.01943045
#
# Stress axis : x y z
#
# Youngs Moduli (GPa) = 68.66601 56.06155 58.92957
#
# Poissons Ratio (x) = 0.42488 0.09976
# Poissons Ratio (y) = 0.52040 0.33580
# Poissons Ratio (z) = 0.11624 0.31945
#
# Static dielectric constant tensor:
#      x y z
#    x 1.631260 0.000000 0.000000 
#    y 0.000000 1.692080 0.000000 
#    z 0.000000 0.000000 1.613470 
# 
# From -- ./inp_files/20660.got.cif
#   From: 2010.05.17/outbox.cif.g08.bks.cpg/sg24_11_cif.got.tgz:20660.got - 2010.06.04 00:33:39.
