data_PCOD9334481
_publ_section_title
;
Structure prediction by ZEFSAII (Michael W. Deem and Ramdas Pophale) SiO2 
 PCOD9334481
Probable space group: I 21 21 21
;
_chemical_formula_sum "Si O2"
_cell_formula_units_Z 60
_cell_length_a 16.595262
_cell_length_b 13.861553
_cell_length_c 13.145168
_cell_angle_alpha 90.000000
_cell_angle_beta 90.000000
_cell_angle_gamma 90.000000
_cell_volume 3023.863230
_symmetry_space_group_name_H-M "I 21 21 21"
_symmetry_group_IT_number 24
_symmetry_cell_setting 'orthorhombic'
loop_
_space_group_symop_operation_xyz
x,y,z
-x,1/2-y,z
x,-y,1/2-z
1/2-x,y,-z
1/2+x,1/2+y,1/2+z
1/2-x,-y,1/2+z
1/2+x,1/2-y,-z
-x,1/2+y,1/2-z
loop_
_atom_site_type_symbol
_atom_site_label
_atom_site_fract_x
_atom_site_fract_y
_atom_site_fract_z
Si Si1 0.906948 0.213702 0.893915
Si Si2 0.557969 0.994492 0.064890
Si Si3 0.644787 0.296345 0.680567
Si Si4 0.154039 0.311392 0.517480
Si Si5 0.540517 0.513002 0.860795
Si Si6 0.834523 0.309901 0.705618
Si Si7 0.067599 0.000000 0.750000
Si Si8 0.588772 0.297689 0.898823
O O1 0.907704 0.101910 0.924194
O O2 0.855831 0.232980 0.793183
O O3 0.000000 0.250000 0.874602
O O4 0.874121 0.271364 0.992248
O O5 0.490103 0.990856 0.152167
O O6 0.622204 0.908849 0.068698
O O7 0.518484 0.978916 0.954940
O O8 0.622737 0.219010 0.593729
O O9 0.597421 0.394271 0.652122
O O10 0.739651 0.319463 0.685591
O O11 0.624061 0.259539 0.793329
O O12 0.250000 0.317407 0.500000
O O13 0.132054 0.226948 0.597403
O O14 0.500155 0.500000 0.750000
O O15 0.586833 0.412895 0.884523
O O16 0.875993 0.406561 0.746046
O O17 0.500000 0.250000 0.905431
#
# Coordination Sequence:
#
# PCOD9334481 Si02
#       8
#     8   8   8   8   8   8   4   8
#     4  11  21  42  63  92 127 164 217 267 324 386
#     4  12  23  40  67  94 124 169 221 272 310 394
#     4  10  24  41  64  92 131 171 212 263 332 390
#     4  10  25  45  62  91 131 174 216 267 327 384
#     4  10  21  36  63  95 122 164 209 262 319 380
#     4  11  24  43  63  92 135 170 210 270 327 395
#     4  12  24  36  68 102 122 168 216 266 330 384
#     4  10  20  39  62  92 128 162 208 265 322 388
#
# _framework density 19.842167
#
# number of rings (size 3 to 8) (size 9 to 14) (size 15 to 20)
#    0.000    1.333    4.000    1.600    6.533    1.600 
#    2.400    0.000    1.467    0.000    0.000    0.000 
#    0.000    0.000    0.000    0.000    0.000    0.000 
#
# Total GULP energy -167400.475764 kJ/mol
# GULP energy per Si atom -5580.015859 kJ/mol
# Density = 1.979700 g / cm^3
# Si number density = 19.842167 Si / 1000 Ang^3
#
#
#
# Elastic Constant Matrix: (Units=GPa)
#
#
# Indices 1 2 3 4 5 6 
#
# 1 29.6156 32.3527 27.5000 0.0000 0.0000 0.0000
# 2 32.3527 86.5088 15.6797 0.0000 0.0000 0.0000
# 3 27.5000 15.6797 125.6157 0.0000 0.0000 0.0000
# 4 0.0000 0.0000 0.0000 26.0747 0.0000 0.0000
# 5 0.0000 0.0000 0.0000 0.0000 31.6015 0.0000
# 6 0.0000 0.0000 0.0000 0.0000 0.0000 25.2516
#
#
#
# Elastic Compliance Matrix: (Units=1/GPa)
#
#
# Indices 1 2 3 4 5 6 
#
# 1 0.072975 -0.024960 -0.012860 0.000000 0.000000 0.000000
# 2 -0.024960 0.020365 0.002922 0.000000 0.000000 0.000000
# 3 -0.012860 0.002922 0.010411 0.000000 0.000000 0.000000
# 4 0.000000 0.000000 0.000000 0.038351 0.000000 0.000000
# 5 0.000000 0.000000 0.000000 0.000000 0.031644 0.000000
# 6 0.000000 0.000000 0.000000 0.000000 0.000000 0.039601
#
#
# Mechanical properties :
#
#
# Convention : Reuss Voigt Hill
#
# Bulk Modulus (GPa) = 29.45115 43.64497 36.54806
# Shear Modulus (GPa) = 16.98015 27.66608 22.32311
#
# Velocity S-wave (km/s) = 2.92851 3.73809 3.35779
# Velocity P-wave (km/s) = 5.12931 6.37769 5.78726
#
# Compressibility (1/GPa) = 0.03395453
#
# Stress axis : x y z
#
# Youngs Moduli (GPa) = 13.70339 49.10502 96.04884
#
# Poissons Ratio (x) = 1.22567 1.23520
# Poissons Ratio (y) = 0.34204 -0.28069
# Poissons Ratio (z) = 0.17623 -0.14350
#
# Static dielectric constant tensor:
#      x y z
#    x 1.706070 0.000000 0.000000 
#    y 0.000000 1.720020 0.000000 
#    z 0.000000 0.000000 1.722650 
# 
# From -- ./inp_files/21680.got.cif
#   From: 2010.05.17/outbox.cif.g08.bks.cpg/sg24_11_cif.got.tgz:21680.got - 2010.06.04 00:33:39.
