data_PCOD9334456
_publ_section_title
;
Structure prediction by ZEFSAII (Michael W. Deem and Ramdas Pophale) SiO2 
 PCOD9334456
Probable space group: I 21 21 21
;
_chemical_formula_sum "Si O2"
_cell_formula_units_Z 32
_cell_length_a 9.142383
_cell_length_b 6.909826
_cell_length_c 25.438403
_cell_angle_alpha 90.000000
_cell_angle_beta 90.000000
_cell_angle_gamma 90.000000
_cell_volume 1607.001809
_symmetry_space_group_name_H-M "I 21 21 21"
_symmetry_group_IT_number 24
_symmetry_cell_setting 'orthorhombic'
loop_
_space_group_symop_operation_xyz
x,y,z
-x,1/2-y,z
x,-y,1/2-z
1/2-x,y,-z
1/2+x,1/2+y,1/2+z
1/2-x,-y,1/2+z
1/2+x,1/2-y,-z
-x,1/2+y,1/2-z
loop_
_atom_site_type_symbol
_atom_site_label
_atom_site_fract_x
_atom_site_fract_y
_atom_site_fract_z
Si Si1 0.801873 0.595470 0.940516
Si Si2 0.000000 0.750000 0.799835
Si Si3 0.661365 0.331781 0.860329
Si Si4 0.260726 0.000000 0.250000
Si Si5 0.394591 0.500847 0.393906
O O1 0.685375 0.502147 0.901726
O O2 0.819258 0.818081 0.922535
O O3 0.956433 0.483029 0.928913
O O4 0.750000 0.579685 0.000000
O O5 0.043997 0.575559 0.838206
O O6 0.864440 0.677584 0.766721
O O7 0.500000 0.250000 0.864512
O O8 0.680612 0.421943 0.801975
O O9 0.782423 0.170574 0.878438
#
# Coordination Sequence:
#
# PCOD9334456 Si02
#       5
#     8   4   8   4   8
#     4  10  23  45  70 100 131 171 228 286 333 396
#     4  10  20  38  74  92 124 176 220 286 318 410
#     4  12  27  41  65 101 141 181 223 275 336 406
#     4  12  22  42  66 104 132 176 230 276 346 392
#     4  10  22  45  70  98 128 177 229 269 334 411
#
# _framework density 19.912859999999998
#
# number of rings (size 3 to 8) (size 9 to 14) (size 15 to 20)
#    0.000    1.500    5.000    2.250    0.000   10.000 
#    0.000    0.000    0.000    0.000    0.000    0.000 
#    0.000    0.000    0.000    0.000    0.000    0.000 
#
# Total GULP energy -89229.415924 kJ/mol
# GULP energy per Si atom -5576.838495 kJ/mol
# Density = 1.986754 g / cm^3
# Si number density = 19.912860 Si / 1000 Ang^3
#
#
#
# Elastic Constant Matrix: (Units=GPa)
#
#
# Indices 1 2 3 4 5 6 
#
# 1 106.2865 58.6515 73.2335 0.0000 0.0000 0.0000
# 2 58.6515 75.0129 49.7902 0.0000 0.0000 0.0000
# 3 73.2335 49.7902 176.5612 0.0000 0.0000 0.0000
# 4 0.0000 0.0000 0.0000 99.6922 0.0000 0.0000
# 5 0.0000 0.0000 0.0000 0.0000 -4.1474 0.0000
# 6 0.0000 0.0000 0.0000 0.0000 0.0000 36.3378
#
#
#
# Elastic Compliance Matrix: (Units=1/GPa)
#
#
# Indices 1 2 3 4 5 6 
#
# 1 0.019147 -0.011933 -0.004577 0.000000 0.000000 0.000000
# 2 -0.011933 0.023838 -0.001773 0.000000 0.000000 0.000000
# 3 -0.004577 -0.001773 0.008062 0.000000 0.000000 0.000000
# 4 0.000000 0.000000 0.000000 0.010031 0.000000 0.000000
# 5 0.000000 0.000000 0.000000 0.000000 -0.241114 0.000000
# 6 0.000000 0.000000 0.000000 0.000000 0.000000 0.027520
#
#
# Mechanical properties :
#
#
# Convention : Reuss Voigt Hill
#
# Bulk Modulus (GPa) = 69.05067 80.13457 74.59262
# Shear Modulus (GPa) = -44.99418 38.12221 -3.43598
#
# Velocity S-wave (km/s) = -4.75863 4.38019 -1.31501
# Velocity P-wave (km/s) = 2.13516 8.11859 5.93592
#
# Compressibility (1/GPa) = 0.01448212
#
# Stress axis : x y z
#
# Youngs Moduli (GPa) = 52.22839 41.95013 124.03964
#
# Poissons Ratio (x) = 0.50058 0.56767
# Poissons Ratio (y) = 0.62323 0.21990
# Poissons Ratio (z) = 0.23903 0.07437
#
# Static dielectric constant tensor:
#      x y z
#    x -0.252270 0.000000 0.000000 
#    y 0.000000 1.800010 0.000000 
#    z 0.000000 0.000000 1.677350 
# 
# From -- ./inp_files/15601.got.cif
#   From: 2010.05.17/outbox.cif.g08.bks.cpg/sg24_8_cif.got.tgz:15601.got - 2010.06.04 00:33:39.
