data_PCOD9334637
_publ_section_title
;
Structure prediction by ZEFSAII (Michael W. Deem and Ramdas Pophale) SiO2 
 PCOD9334637
Probable space group: I 21 21 21
;
_chemical_formula_sum "Si O2"
_cell_formula_units_Z 48
_cell_length_a 19.142500
_cell_length_b 8.014292
_cell_length_c 14.684023
_cell_angle_alpha 90.000000
_cell_angle_beta 90.000000
_cell_angle_gamma 90.000000
_cell_volume 2252.728605
_symmetry_space_group_name_H-M "I 21 21 21"
_symmetry_group_IT_number 24
_symmetry_cell_setting 'orthorhombic'
loop_
_space_group_symop_operation_xyz
x,y,z
-x,1/2-y,z
x,-y,1/2-z
1/2-x,y,-z
1/2+x,1/2+y,1/2+z
1/2-x,-y,1/2+z
1/2+x,1/2-y,-z
-x,1/2+y,1/2-z
loop_
_atom_site_type_symbol
_atom_site_label
_atom_site_fract_x
_atom_site_fract_y
_atom_site_fract_z
Si Si1 0.075839 0.162836 0.513624
Si Si2 0.948667 0.396686 0.830817
Si Si3 0.828182 0.833659 0.688855
Si Si4 0.333939 0.501359 0.000271
Si Si5 0.331382 0.332991 0.809284
Si Si6 0.562659 0.369796 0.684562
O O1 0.129054 0.319693 0.512075
O O2 0.088346 0.076046 0.414658
O O3 0.000000 0.250000 0.525072
O O4 0.077456 0.021384 0.590778
O O5 0.986000 0.500000 0.750000
O O6 0.882842 0.306097 0.783202
O O7 0.000000 0.250000 0.864334
O O8 0.748429 0.770153 0.685318
O O9 0.830481 0.000000 0.750000
O O10 0.849628 0.890057 0.587767
O O11 0.250000 0.527053 0.000000
O O12 0.354437 0.399506 0.908929
O O13 0.329089 0.500000 0.750000
O O14 0.379239 0.208479 0.751123
O O15 0.500000 0.250000 0.659855
O O16 0.526093 0.500000 0.750000
#
# Coordination Sequence:
#
# PCOD9334637 Si02
#       6
#     8   8   8   8   8   8
#     4  11  24  42  66  97 130 171 216 272 330 389
#     4  12  25  43  67  96 131 173 220 281 331 389
#     4  10  22  40  67  94 125 171 218 268 324 391
#     4  10  21  41  66  93 128 174 219 265 326 394
#     4  10  20  41  66  90 129 174 215 259 321 395
#     4  11  25  40  64  95 131 171 213 264 323 394
#
# _framework density 21.307493000000001
#
# number of rings (size 3 to 8) (size 9 to 14) (size 15 to 20)
#    0.000    1.333    1.667    3.500    4.667    1.333 
#    3.000    0.000    0.000    0.000    0.000    0.000 
#    0.000    0.000    0.000    0.000    0.000    0.000 
#
# Total GULP energy -133928.788751 kJ/mol
# GULP energy per Si atom -5580.366198 kJ/mol
# Density = 2.125900 g / cm^3
# Si number density = 21.307493 Si / 1000 Ang^3
#
#
#
# Elastic Constant Matrix: (Units=GPa)
#
#
# Indices 1 2 3 4 5 6 
#
# 1 59.4955 15.7176 16.3899 0.0000 0.0000 0.0000
# 2 15.7176 48.8203 29.6195 0.0000 0.0000 0.0000
# 3 16.3899 29.6195 147.0206 0.0000 0.0000 0.0000
# 4 0.0000 0.0000 0.0000 32.6692 0.0000 0.0000
# 5 0.0000 0.0000 0.0000 0.0000 39.4328 0.0000
# 6 0.0000 0.0000 0.0000 0.0000 0.0000 53.3379
#
#
#
# Elastic Compliance Matrix: (Units=1/GPa)
#
#
# Indices 1 2 3 4 5 6 
#
# 1 0.018494 -0.005358 -0.000982 0.000000 0.000000 0.000000
# 2 -0.005358 0.024888 -0.004417 0.000000 0.000000 0.000000
# 3 -0.000982 -0.004417 0.007801 0.000000 0.000000 0.000000
# 4 0.000000 0.000000 0.000000 0.030610 0.000000 0.000000
# 5 0.000000 0.000000 0.000000 0.000000 0.025360 0.000000
# 6 0.000000 0.000000 0.000000 0.000000 0.000000 0.018748
#
#
# Mechanical properties :
#
#
# Convention : Reuss Voigt Hill
#
# Bulk Modulus (GPa) = 33.70540 42.08783 37.89661
# Shear Modulus (GPa) = 31.78537 37.99527 34.89032
#
# Velocity S-wave (km/s) = 3.86650 4.22736 4.05095
# Velocity P-wave (km/s) = 5.98214 6.60477 6.30115
#
# Compressibility (1/GPa) = 0.02966884
#
# Stress axis : x y z
#
# Youngs Moduli (GPa) = 54.07117 40.17999 128.18739
#
# Poissons Ratio (x) = 0.21529 0.12591
# Poissons Ratio (y) = 0.28973 0.56617
# Poissons Ratio (z) = 0.05311 0.17746
#
# Static dielectric constant tensor:
#      x y z
#    x 1.804640 0.000000 0.000000 
#    y 0.000000 1.686430 0.000000 
#    z 0.000000 0.000000 1.644490 
# 
# From -- ./inp_files/27028.got.cif
#   From: 2010.05.17/outbox.cif.g08.bks.cpg/sg24_14_cif.got.tgz:27028.got - 2010.06.04 00:33:39.
