data_PCOD9334544
_publ_section_title
;
Structure prediction by ZEFSAII (Michael W. Deem and Ramdas Pophale) SiO2 
 PCOD9334544
Probable space group: I 21 21 21
;
_chemical_formula_sum "Si O2"
_cell_formula_units_Z 32
_cell_length_a 10.977347
_cell_length_b 7.602394
_cell_length_c 19.696732
_cell_angle_alpha 90.000000
_cell_angle_beta 90.000000
_cell_angle_gamma 90.000000
_cell_volume 1643.773376
_symmetry_space_group_name_H-M "I 21 21 21"
_symmetry_group_IT_number 24
_symmetry_cell_setting 'orthorhombic'
loop_
_space_group_symop_operation_xyz
x,y,z
-x,1/2-y,z
x,-y,1/2-z
1/2-x,y,-z
1/2+x,1/2+y,1/2+z
1/2-x,-y,1/2+z
1/2+x,1/2-y,-z
-x,1/2+y,1/2-z
loop_
_atom_site_type_symbol
_atom_site_label
_atom_site_fract_x
_atom_site_fract_y
_atom_site_fract_z
Si Si1 0.824399 0.388589 0.648595
Si Si2 0.869290 0.500000 0.250000
Si Si3 0.898583 0.991696 0.830107
Si Si4 0.749182 0.261119 0.079797
Si Si5 0.000000 0.750000 0.351268
O O1 0.724866 0.379684 0.708570
O O2 0.850062 0.185393 0.632930
O O3 0.772429 0.530859 0.595275
O O4 0.955010 0.469663 0.670193
O O5 0.954270 0.596112 0.302920
O O6 0.861881 0.000000 0.750000
O O7 0.847585 0.153696 0.874079
O O8 0.882207 0.203965 0.105427
O O9 0.750000 0.228206 0.000000
#
# Coordination Sequence:
#
# PCOD9334544 Si02
#       5
#     8   4   8   8   4
#     4  10  22  39  64  97 128 162 214 280 331 393
#     4  10  20  40  60  94 128 162 210 276 336 388
#     4  11  22  38  72 100 124 166 222 283 337 386
#     4  11  26  43  64  91 136 179 221 265 335 408
#     4  10  24  38  64  92 126 174 212 266 338 390
#
# _framework density 19.467404999999999
#
# number of rings (size 3 to 8) (size 9 to 14) (size 15 to 20)
#    0.000    1.500    1.250    3.750   12.250    1.000 
#    0.000    0.000    0.000    0.000    0.000    0.000 
#    0.000    0.000    0.000    0.000    0.000    0.000 
#
# Total GULP energy -89196.352652 kJ/mol
# GULP energy per Si atom -5574.772041 kJ/mol
# Density = 1.942310 g / cm^3
# Si number density = 19.467405 Si / 1000 Ang^3
#
#
#
# Elastic Constant Matrix: (Units=GPa)
#
#
# Indices 1 2 3 4 5 6 
#
# 1 103.2090 36.1322 37.5387 0.0000 0.0000 0.0000
# 2 36.1322 96.5336 38.1935 0.0000 0.0000 0.0000
# 3 37.5387 38.1935 126.8977 0.0000 0.0000 0.0000
# 4 0.0000 0.0000 0.0000 -5.8615 0.0000 0.0000
# 5 0.0000 0.0000 0.0000 0.0000 38.2216 0.0000
# 6 0.0000 0.0000 0.0000 0.0000 0.0000 24.9442
#
#
#
# Elastic Compliance Matrix: (Units=1/GPa)
#
#
# Indices 1 2 3 4 5 6 
#
# 1 0.011785 -0.003442 -0.002450 0.000000 0.000000 0.000000
# 2 -0.003442 0.012764 -0.002824 0.000000 0.000000 0.000000
# 3 -0.002450 -0.002824 0.009455 0.000000 0.000000 0.000000
# 4 0.000000 0.000000 0.000000 -0.170604 0.000000 0.000000
# 5 0.000000 0.000000 0.000000 0.000000 0.026163 0.000000
# 6 0.000000 0.000000 0.000000 0.000000 0.000000 0.040089
#
#
# Mechanical properties :
#
#
# Convention : Reuss Voigt Hill
#
# Bulk Modulus (GPa) = 60.33834 61.15213 60.74523
# Shear Modulus (GPa) = -105.50628 25.77926 -39.86351
#
# Velocity S-wave (km/s) = -7.36981 3.64294 -4.53007
# Velocity P-wave (km/s) = 6.43093 7.01252 1.97719
#
# Compressibility (1/GPa) = 0.01657321
#
# Stress axis : x y z
#
# Youngs Moduli (GPa) = 84.85214 78.34229 105.76277
#
# Poissons Ratio (x) = 0.26963 0.25916
# Poissons Ratio (y) = 0.29203 0.29865
# Poissons Ratio (z) = 0.20792 0.22122
#
# Static dielectric constant tensor:
#      x y z
#    x 1.739090 0.000000 0.000000 
#    y 0.000000 1.696460 0.000000 
#    z 0.000000 0.000000 1.678870 
# 
# From -- ./inp_files/14783.got.cif
#   From: 2010.05.17/outbox.cif.g08.bks.cpg/sg24_8_cif.got.tgz:14783.got - 2010.06.04 00:33:39.
