data_PCOD9334305
_publ_section_title
;
Structure prediction by ZEFSAII (Michael W. Deem and Ramdas Pophale) SiO2 
 PCOD9334305
Probable space group: I 21 21 21
;
_chemical_formula_sum "Si O2"
_cell_formula_units_Z 52
_cell_length_a 19.884623
_cell_length_b 7.665602
_cell_length_c 14.842515
_cell_angle_alpha 90.000000
_cell_angle_beta 90.000000
_cell_angle_gamma 90.000000
_cell_volume 2262.409026
_symmetry_space_group_name_H-M "I 21 21 21"
_symmetry_group_IT_number 24
_symmetry_cell_setting 'orthorhombic'
loop_
_space_group_symop_operation_xyz
x,y,z
-x,1/2-y,z
x,-y,1/2-z
1/2-x,y,-z
1/2+x,1/2+y,1/2+z
1/2-x,-y,1/2+z
1/2+x,1/2-y,-z
-x,1/2+y,1/2-z
loop_
_atom_site_type_symbol
_atom_site_label
_atom_site_fract_x
_atom_site_fract_y
_atom_site_fract_z
Si Si1 0.795969 0.695930 0.713610
Si Si2 0.862186 0.847648 0.546040
Si Si3 0.500000 0.250000 0.842493
Si Si4 0.355794 0.813884 0.653607
Si Si5 0.346736 0.805017 0.918755
Si Si6 0.693722 0.801156 0.099628
Si Si7 0.538040 0.929630 0.961457
O O1 0.796732 0.500000 0.750000
O O2 0.841405 0.718855 0.625301
O O3 0.717036 0.737410 0.693282
O O4 0.826748 0.803817 0.796642
O O5 0.857611 0.761947 0.448213
O O6 0.811231 0.006779 0.559893
O O7 0.932648 0.954967 0.543639
O O8 0.425509 0.246866 0.798875
O O9 0.500546 0.428048 0.901775
O O10 0.358724 0.022197 0.638276
O O11 0.270493 0.756192 0.899196
O O12 0.346082 0.822168 0.028898
O O13 0.398528 0.647489 0.905297
O O14 0.500000 0.750000 0.984692
#
# Coordination Sequence:
#
# PCOD9334305 Si02
#       7
#     8   8   4   8   8   8   8
#     4  12  23  38  61  95 137 172 210 273 341 392
#     4  10  24  38  62  97 133 169 220 274 332 399
#     4  10  22  38  62  96 124 176 232 266 318 394
#     4  11  22  38  64  93 131 172 222 269 324 396
#     4  10  20  37  65  92 126 167 218 268 327 390
#     4  10  22  38  59  95 129 164 209 267 335 390
#     4  10  20  39  66  96 126 167 222 279 321 389
#
# _framework density 22.984349999999999
#
# number of rings (size 3 to 8) (size 9 to 14) (size 15 to 20)
#    0.000    1.538    3.077    1.846   12.923    0.000 
#    0.000    0.000    5.077    0.000   98.000    0.000 
#    0.000    0.000    0.000    0.000    0.000    0.000 
#
# Total GULP energy -145037.327935 kJ/mol
# GULP energy per Si atom -5578.358767 kJ/mol
# Density = 2.293204 g / cm^3
# Si number density = 22.984350 Si / 1000 Ang^3
#
#
#
# Elastic Constant Matrix: (Units=GPa)
#
#
# Indices 1 2 3 4 5 6 
#
# 1 75.4796 27.2571 15.2296 0.0000 0.0000 0.0000
# 2 27.2571 81.5618 18.0709 0.0000 0.0000 0.0000
# 3 15.2296 18.0709 110.4488 0.0000 0.0000 0.0000
# 4 0.0000 0.0000 0.0000 16.5764 0.0000 0.0000
# 5 0.0000 0.0000 0.0000 0.0000 5.7681 0.0000
# 6 0.0000 0.0000 0.0000 0.0000 0.0000 44.8667
#
#
#
# Elastic Compliance Matrix: (Units=1/GPa)
#
#
# Indices 1 2 3 4 5 6 
#
# 1 0.015249 -0.004804 -0.001317 0.000000 0.000000 0.000000
# 2 -0.004804 0.014236 -0.001667 0.000000 0.000000 0.000000
# 3 -0.001317 -0.001667 0.009508 0.000000 0.000000 0.000000
# 4 0.000000 0.000000 0.000000 0.060327 0.000000 0.000000
# 5 0.000000 0.000000 0.000000 0.000000 0.173369 0.000000
# 6 0.000000 0.000000 0.000000 0.000000 0.000000 0.022288
#
#
# Mechanical properties :
#
#
# Convention : Reuss Voigt Hill
#
# Bulk Modulus (GPa) = 42.70302 43.17839 42.94071
# Shear Modulus (GPa) = 15.70560 27.23773 21.47167
#
# Velocity S-wave (km/s) = 2.61687 3.44620 3.05976
# Velocity P-wave (km/s) = 5.26784 5.88743 5.58623
#
# Compressibility (1/GPa) = 0.02341754
#
# Stress axis : x y z
#
# Youngs Moduli (GPa) = 65.57707 70.24691 105.17238
#
# Poissons Ratio (x) = 0.33750 0.13847
# Poissons Ratio (y) = 0.31506 0.17528
# Poissons Ratio (z) = 0.08634 0.11708
#
# Static dielectric constant tensor:
#      x y z
#    x 1.925770 0.000000 0.000000 
#    y 0.000000 1.917300 0.000000 
#    z 0.000000 0.000000 1.957730 
# 
# From -- ./inp_files/27471.got.cif
#   From: 2010.05.17/outbox.cif.g08.bks.cpg/sg24_14_cif.got.tgz:27471.got - 2010.06.04 00:33:39.
