data_PCOD9334467
_publ_section_title
;
Structure prediction by ZEFSAII (Michael W. Deem and Ramdas Pophale) SiO2 
 PCOD9334467
Probable space group: I 21 21 21
;
_chemical_formula_sum "Si O2"
_cell_formula_units_Z 44
_cell_length_a 8.005082
_cell_length_b 7.732303
_cell_length_c 33.259640
_cell_angle_alpha 90.000000
_cell_angle_beta 90.000000
_cell_angle_gamma 90.000000
_cell_volume 2058.695870
_symmetry_space_group_name_H-M "I 21 21 21"
_symmetry_group_IT_number 24
_symmetry_cell_setting 'orthorhombic'
loop_
_space_group_symop_operation_xyz
x,y,z
-x,1/2-y,z
x,-y,1/2-z
1/2-x,y,-z
1/2+x,1/2+y,1/2+z
1/2-x,-y,1/2+z
1/2+x,1/2-y,-z
-x,1/2+y,1/2-z
loop_
_atom_site_type_symbol
_atom_site_label
_atom_site_fract_x
_atom_site_fract_y
_atom_site_fract_z
Si Si1 0.311867 0.318016 0.366377
Si Si2 0.609288 0.926722 0.794053
Si Si3 0.554289 0.449071 0.511966
Si Si4 0.672902 0.500389 0.596399
Si Si5 0.500000 0.750000 0.652549
Si Si6 0.459881 0.555445 0.429984
O O1 0.500000 0.250000 0.363079
O O2 0.265569 0.387425 0.322693
O O3 0.324912 0.458424 0.402599
O O4 0.172966 0.173378 0.377022
O O5 0.500000 0.750000 0.790428
O O6 0.647903 0.000000 0.750000
O O7 0.529570 0.085959 0.818920
O O8 0.500000 0.250000 0.510053
O O9 0.750000 0.469313 0.500000
O O10 0.549359 0.506440 0.558332
O O11 0.441258 0.542177 0.478160
O O12 0.642002 0.670928 0.622851
O O13 0.859142 0.472867 0.578847
O O14 0.500000 0.750000 0.418220
#
# Coordination Sequence:
#
# PCOD9334467 Si02
#       6
#     8   8   8   8   4   8
#     4  10  22  44  70  93 133 179 223 273 337 401
#     4  12  25  46  71 103 135 169 214 280 345 407
#     4  10  21  38  56  86 128 174 223 273 325 376
#     4  10  22  38  61  94 128 176 223 267 328 397
#     4  12  24  40  68 100 132 172 222 268 338 410
#     4  10  20  39  60  88 131 177 225 277 322 384
#
# _framework density 21.372755000000002
#
# number of rings (size 3 to 8) (size 9 to 14) (size 15 to 20)
#    0.000    1.455    2.727    3.818    3.818    0.000 
#    3.273    5.455    0.000    0.000    0.000    0.000 
#    0.000    0.000    0.000    0.000    0.000    0.000 
#
# Total GULP energy -122581.300289 kJ/mol
# GULP energy per Si atom -5571.877286 kJ/mol
# Density = 2.132411 g / cm^3
# Si number density = 21.372755 Si / 1000 Ang^3
#
#
#
# Elastic Constant Matrix: (Units=GPa)
#
#
# Indices 1 2 3 4 5 6 
#
# 1 55.1377 20.9022 49.6487 0.0000 0.0000 0.0000
# 2 20.9022 119.7723 57.5170 0.0000 0.0000 0.0000
# 3 49.6487 57.5170 179.3827 0.0000 0.0000 0.0000
# 4 0.0000 0.0000 0.0000 62.8476 0.0000 0.0000
# 5 0.0000 0.0000 0.0000 0.0000 105.3223 0.0000
# 6 0.0000 0.0000 0.0000 0.0000 0.0000 33.8971
#
#
#
# Elastic Compliance Matrix: (Units=1/GPa)
#
#
# Indices 1 2 3 4 5 6 
#
# 1 0.024301 -0.001195 -0.006343 0.000000 0.000000 0.000000
# 2 -0.001195 0.009927 -0.002852 0.000000 0.000000 0.000000
# 3 -0.006343 -0.002852 0.008245 0.000000 0.000000 0.000000
# 4 0.000000 0.000000 0.000000 0.015911 0.000000 0.000000
# 5 0.000000 0.000000 0.000000 0.000000 0.009495 0.000000
# 6 0.000000 0.000000 0.000000 0.000000 0.000000 0.029501
#
#
# Mechanical properties :
#
#
# Convention : Reuss Voigt Hill
#
# Bulk Modulus (GPa) = 46.09819 67.82540 56.96179
# Shear Modulus (GPa) = 39.87519 55.49505 47.68512
#
# Velocity S-wave (km/s) = 4.32406 5.10115 4.72859
# Velocity P-wave (km/s) = 6.82243 8.15469 7.51813
#
# Compressibility (1/GPa) = 0.02169283
#
# Stress axis : x y z
#
# Youngs Moduli (GPa) = 41.15106 100.73035 121.28920
#
# Poissons Ratio (x) = 0.12037 0.76930
# Poissons Ratio (y) = 0.04918 0.34596
# Poissons Ratio (z) = 0.26101 0.28732
#
# Static dielectric constant tensor:
#      x y z
#    x 1.827480 0.000000 0.000000 
#    y 0.000000 1.414330 0.000000 
#    z 0.000000 0.000000 1.796370 
# 
# From -- ./inp_files/38222.got.cif
#   From: 2010.05.17/outbox.cif.g08.bks.cpg/sg24_20_cif.got.tgz:38222.got - 2010.06.04 00:33:39.
