data_PCOD9334293
_publ_section_title
;
Structure prediction by ZEFSAII (Michael W. Deem and Ramdas Pophale) SiO2 
 PCOD9334293
Probable space group: I 21 21 21
;
_chemical_formula_sum "Si O2"
_cell_formula_units_Z 40
_cell_length_a 21.941616
_cell_length_b 8.280510
_cell_length_c 10.871334
_cell_angle_alpha 90.000000
_cell_angle_beta 90.000000
_cell_angle_gamma 90.000000
_cell_volume 1975.188439
_symmetry_space_group_name_H-M "I 21 21 21"
_symmetry_group_IT_number 24
_symmetry_cell_setting 'orthorhombic'
loop_
_space_group_symop_operation_xyz
x,y,z
-x,1/2-y,z
x,-y,1/2-z
1/2-x,y,-z
1/2+x,1/2+y,1/2+z
1/2-x,-y,1/2+z
1/2+x,1/2-y,-z
-x,1/2+y,1/2-z
loop_
_atom_site_type_symbol
_atom_site_label
_atom_site_fract_x
_atom_site_fract_y
_atom_site_fract_z
Si Si1 0.898220 0.685435 0.228606
Si Si2 0.461213 0.102680 0.475645
Si Si3 0.500000 0.250000 0.930225
Si Si4 0.250000 0.146322 0.000000
Si Si5 0.765336 0.813802 0.236890
Si Si6 0.671272 0.410065 0.377843
O O1 0.879140 0.500000 0.250000
O O2 0.940475 0.668230 0.109504
O O3 0.836077 0.781600 0.204024
O O4 0.940039 0.753500 0.340586
O O5 0.500000 0.250000 0.421748
O O6 0.399869 0.105232 0.396494
O O7 0.490595 0.921829 0.495656
O O8 0.243761 0.242800 0.125595
O O9 0.306918 0.026656 0.013401
O O10 0.717183 0.739067 0.140024
O O11 0.753320 0.000000 0.250000
O O12 0.681753 0.500000 0.250000
#
# Coordination Sequence:
#
# PCOD9334293 Si02
#       6
#     8   8   4   4   8   8
#     4  10  20  37  63  93 132 166 210 272 339 404
#     4  11  23  40  65  91 129 175 216 274 335 395
#     4  10  22  40  60 102 128 170 218 268 334 408
#     4  10  20  42  66  86 126 180 208 260 344 384
#     4  11  24  38  66 102 131 169 227 287 333 410
#     4  10  22  45  63  89 129 176 221 264 334 413
#
# _framework density 20.251232000000002
#
# number of rings (size 3 to 8) (size 9 to 14) (size 15 to 20)
#    0.000    1.600    1.000    5.400    2.800    2.400 
#    9.000    0.000    0.000    0.000    0.000    0.000 
#    0.000    0.000    0.000    0.000    0.000    0.000 
#
# Total GULP energy -111468.590584 kJ/mol
# GULP energy per Si atom -5573.429529 kJ/mol
# Density = 2.020514 g / cm^3
# Si number density = 20.251232 Si / 1000 Ang^3
#
#
#
# Elastic Constant Matrix: (Units=GPa)
#
#
# Indices 1 2 3 4 5 6 
#
# 1 100.5576 85.2096 8.3644 0.0000 0.0000 0.0000
# 2 85.2096 146.9984 36.3108 0.0000 0.0000 0.0000
# 3 8.3644 36.3108 38.5967 0.0000 0.0000 0.0000
# 4 0.0000 0.0000 0.0000 13.6991 0.0000 0.0000
# 5 0.0000 0.0000 0.0000 0.0000 44.3565 0.0000
# 6 0.0000 0.0000 0.0000 0.0000 0.0000 24.4927
#
#
#
# Elastic Compliance Matrix: (Units=1/GPa)
#
#
# Indices 1 2 3 4 5 6 
#
# 1 0.021865 -0.014987 0.009361 0.000000 0.000000 0.000000
# 2 -0.014987 0.019134 -0.014753 0.000000 0.000000 0.000000
# 3 0.009361 -0.014753 0.037760 0.000000 0.000000 0.000000
# 4 0.000000 0.000000 0.000000 0.072997 0.000000 0.000000
# 5 0.000000 0.000000 0.000000 0.000000 0.022545 0.000000
# 6 0.000000 0.000000 0.000000 0.000000 0.000000 0.040828
#
#
# Mechanical properties :
#
#
# Convention : Reuss Voigt Hill
#
# Bulk Modulus (GPa) = 26.31530 60.65802 43.48666
# Shear Modulus (GPa) = 18.61815 26.92754 22.77284
#
# Velocity S-wave (km/s) = 3.03538 3.65043 3.35702
# Velocity P-wave (km/s) = 5.03064 6.91269 6.04535
#
# Compressibility (1/GPa) = 0.03800071
#
# Stress axis : x y z
#
# Youngs Moduli (GPa) = 45.73479 52.26226 26.48320
#
# Poissons Ratio (x) = 0.78324 -0.24790
# Poissons Ratio (y) = 0.68541 0.39071
# Poissons Ratio (z) = -0.42810 0.77104
#
# Static dielectric constant tensor:
#      x y z
#    x 1.803320 0.000000 0.000000 
#    y 0.000000 1.820870 0.000000 
#    z 0.000000 0.000000 1.740830 
# 
# From -- ./inp_files/21371.got.cif
#   From: 2010.05.17/outbox.cif.g08.bks.cpg/sg24_11_cif.got.tgz:21371.got - 2010.06.04 00:33:39.
