data_PCOD9334343
_publ_section_title
;
Structure prediction by ZEFSAII (Michael W. Deem and Ramdas Pophale) SiO2 
 PCOD9334343
Probable space group: I 21 21 21
;
_chemical_formula_sum "Si O2"
_cell_formula_units_Z 48
_cell_length_a 15.094496
_cell_length_b 9.059522
_cell_length_c 17.545185
_cell_angle_alpha 90.000000
_cell_angle_beta 90.000000
_cell_angle_gamma 90.000000
_cell_volume 2399.285075
_symmetry_space_group_name_H-M "I 21 21 21"
_symmetry_group_IT_number 24
_symmetry_cell_setting 'orthorhombic'
loop_
_space_group_symop_operation_xyz
x,y,z
-x,1/2-y,z
x,-y,1/2-z
1/2-x,y,-z
1/2+x,1/2+y,1/2+z
1/2-x,-y,1/2+z
1/2+x,1/2-y,-z
-x,1/2+y,1/2-z
loop_
_atom_site_type_symbol
_atom_site_label
_atom_site_fract_x
_atom_site_fract_y
_atom_site_fract_z
Si Si1 0.839643 0.954266 0.020404
Si Si2 0.194518 0.060312 0.070489
Si Si3 0.588627 0.339634 0.786803
Si Si4 0.291917 0.631179 0.809641
Si Si5 0.664012 0.306619 0.395222
Si Si6 0.526210 0.412829 0.491494
O O1 0.832373 0.807231 0.966815
O O2 0.937304 0.008991 0.998395
O O3 0.750000 0.040818 0.000000
O O4 0.831293 0.922071 0.109555
O O5 0.156730 0.149883 0.141994
O O6 0.261519 0.932116 0.098136
O O7 0.250000 0.129659 0.000000
O O8 0.106206 0.985029 0.036792
O O9 0.500000 0.250000 0.807873
O O10 0.567704 0.500000 0.750000
O O11 0.359861 0.250252 0.722541
O O12 0.284836 0.500000 0.750000
O O13 0.196446 0.706996 0.825513
O O14 0.568130 0.381018 0.407652
O O15 0.500000 0.250000 0.523444
#
# Coordination Sequence:
#
# PCOD9334343 Si02
#       6
#     8   8   8   8   8   8
#     4   9  18  32  57  93 113 152 215 265 304 351
#     4  10  20  38  60  82 122 163 215 247 302 382
#     4  12  27  38  58  92 129 165 201 259 336 392
#     4  11  22  36  56  87 132 159 190 257 328 382
#     4   9  17  34  56  88 109 165 215 251 287 369
#     4   9  16  27  59  87 109 144 209 259 282 344
#
# _framework density 20.005958
#
# number of rings (size 3 to 8) (size 9 to 14) (size 15 to 20)
#    0.000    2.000    1.667    7.000    4.667    0.000 
#    0.000    2.500    0.000    0.000  151.667    0.000 
#    0.000    0.000    0.000    0.000    0.000    0.000 
#
# Total GULP energy -133642.934685 kJ/mol
# GULP energy per Si atom -5568.455612 kJ/mol
# Density = 1.996042 g / cm^3
# Si number density = 20.005958 Si / 1000 Ang^3
#
#
#
# Elastic Constant Matrix: (Units=GPa)
#
#
# Indices 1 2 3 4 5 6 
#
# 1 160.9212 29.0271 51.2692 0.0000 0.0000 0.0000
# 2 29.0271 71.6520 44.7717 0.0000 0.0000 0.0000
# 3 51.2692 44.7717 95.9969 0.0000 0.0000 0.0000
# 4 0.0000 0.0000 0.0000 -20.8597 0.0000 0.0000
# 5 0.0000 0.0000 0.0000 0.0000 28.8182 0.0000
# 6 0.0000 0.0000 0.0000 0.0000 0.0000 13.7045
#
#
#
# Elastic Compliance Matrix: (Units=1/GPa)
#
#
# Indices 1 2 3 4 5 6 
#
# 1 0.007517 -0.000757 -0.003662 0.000000 0.000000 0.000000
# 2 -0.000757 0.019773 -0.008817 0.000000 0.000000 0.000000
# 3 -0.003662 -0.008817 0.016485 0.000000 0.000000 0.000000
# 4 0.000000 0.000000 0.000000 -0.047939 0.000000 0.000000
# 5 0.000000 0.000000 0.000000 0.000000 0.034700 0.000000
# 6 0.000000 0.000000 0.000000 0.000000 0.000000 0.072969
#
#
# Mechanical properties :
#
#
# Convention : Reuss Voigt Hill
#
# Bulk Modulus (GPa) = 57.79545 64.30069 61.04807
# Shear Modulus (GPa) = 36.83394 17.89940 27.36667
#
# Velocity S-wave (km/s) = 4.29552 2.99440 3.70256
# Velocity P-wave (km/s) = 7.31804 6.64574 6.98998
#
# Compressibility (1/GPa) = 0.01730240
#
# Stress axis : x y z
#
# Youngs Moduli (GPa) = 133.02428 50.57508 60.66218
#
# Poissons Ratio (x) = 0.03831 0.22212
# Poissons Ratio (y) = 0.10076 0.53487
# Poissons Ratio (z) = 0.48708 0.44593
#
# Static dielectric constant tensor:
#      x y z
#    x 1.811340 0.000000 0.000000 
#    y 0.000000 1.757400 0.000000 
#    z 0.000000 0.000000 1.717560 
# 
# From -- ./inp_files/30800.got.cif
#   From: 2010.05.17/outbox.cif.g08.bks.cpg/sg24_16_cif.got.tgz:30800.got - 2010.06.04 00:33:39.
