data_PCOD9334300
_publ_section_title
;
Structure prediction by ZEFSAII (Michael W. Deem and Ramdas Pophale) SiO2 
 PCOD9334300
Probable space group: I 21 21 21
;
_chemical_formula_sum "Si O2"
_cell_formula_units_Z 48
_cell_length_a 15.774066
_cell_length_b 13.188829
_cell_length_c 9.428805
_cell_angle_alpha 90.000000
_cell_angle_beta 90.000000
_cell_angle_gamma 90.000000
_cell_volume 1961.582350
_symmetry_space_group_name_H-M "I 21 21 21"
_symmetry_group_IT_number 24
_symmetry_cell_setting 'orthorhombic'
loop_
_space_group_symop_operation_xyz
x,y,z
-x,1/2-y,z
x,-y,1/2-z
1/2-x,y,-z
1/2+x,1/2+y,1/2+z
1/2-x,-y,1/2+z
1/2+x,1/2-y,-z
-x,1/2+y,1/2-z
loop_
_atom_site_type_symbol
_atom_site_label
_atom_site_fract_x
_atom_site_fract_y
_atom_site_fract_z
Si Si1 0.459211 0.560583 0.972619
Si Si2 0.122094 0.829675 0.009795
Si Si3 0.097241 0.735660 0.461205
Si Si4 0.619479 0.838910 0.222563
Si Si5 0.880908 0.460937 0.089115
Si Si6 0.813713 0.150827 0.300468
O O1 0.516745 0.465345 0.937279
O O2 0.373021 0.575223 0.888683
O O3 0.527838 0.647406 0.929085
O O4 0.439368 0.583117 0.136426
O O5 0.113940 0.765948 0.866993
O O6 0.174234 0.758877 0.116729
O O7 0.153108 0.945588 0.993385
O O8 0.098928 0.687897 0.617315
O O9 0.142037 0.847116 0.450716
O O10 0.148662 0.666111 0.353861
O O11 0.000000 0.750000 0.415520
O O12 0.715881 0.875809 0.205917
O O13 0.864380 0.500000 0.250000
#
# Coordination Sequence:
#
# PCOD9334300 Si02
#       6
#     8   8   8   8   8   8
#     4   9  19  37  65  85 116 159 214 247 295 367
#     4   9  18  35  60  86 115 156 209 239 296 363
#     4  12  23  39  60  87 121 163 209 254 310 370
#     4  11  22  36  56  96 127 158 191 251 328 371
#     4  10  20  37  64  91 115 154 226 254 288 354
#     4  11  19  36  62  90 122 159 201 251 309 376
#
# _framework density 24.470040999999998
#
# number of rings (size 3 to 8) (size 9 to 14) (size 15 to 20)
#    1.000    0.667    1.667    7.500    0.000    0.667 
#    0.000    5.000    0.000   10.000    0.000    0.000 
#    0.000    0.000    0.000    0.000    0.000    0.000 
#
# Total GULP energy -134128.641884 kJ/mol
# GULP energy per Si atom -5588.693412 kJ/mol
# Density = 2.441435 g / cm^3
# Si number density = 24.470041 Si / 1000 Ang^3
#
#
#
# Elastic Constant Matrix: (Units=GPa)
#
#
# Indices 1 2 3 4 5 6 
#
# 1 91.2864 -9.2245 -22.3150 0.0000 0.0000 0.0000
# 2 -9.2245 105.2605 15.0344 0.0000 0.0000 0.0000
# 3 -22.3150 15.0344 120.7415 0.0000 0.0000 0.0000
# 4 0.0000 0.0000 0.0000 22.6155 0.0000 0.0000
# 5 0.0000 0.0000 0.0000 0.0000 27.6698 0.0000
# 6 0.0000 0.0000 0.0000 0.0000 0.0000 -87.0969
#
#
#
# Elastic Compliance Matrix: (Units=1/GPa)
#
#
# Indices 1 2 3 4 5 6 
#
# 1 0.011526 0.000719 0.002041 0.000000 0.000000 0.000000
# 2 0.000719 0.009717 -0.001077 0.000000 0.000000 0.000000
# 3 0.002041 -0.001077 0.008793 0.000000 0.000000 0.000000
# 4 0.000000 0.000000 0.000000 0.044217 0.000000 0.000000
# 5 0.000000 0.000000 0.000000 0.000000 0.036140 0.000000
# 6 0.000000 0.000000 0.000000 0.000000 0.000000 -0.011481
#
#
# Mechanical properties :
#
#
# Convention : Reuss Voigt Hill
#
# Bulk Modulus (GPa) = 29.93934 31.58647 30.76290
# Shear Modulus (GPa) = 46.86820 14.89060 30.87940
#
# Velocity S-wave (km/s) = 4.38120 2.46950 3.55621
# Velocity P-wave (km/s) = 6.15263 4.58994 5.42781
#
# Compressibility (1/GPa) = 0.03340087
#
# Stress axis : x y z
#
# Youngs Moduli (GPa) = 86.76038 102.91177 113.72114
#
# Poissons Ratio (x) = -0.07395 -0.23207
# Poissons Ratio (y) = -0.06235 0.12249
# Poissons Ratio (z) = -0.17705 0.11085
#
# Static dielectric constant tensor:
#      x y z
#    x 1.960890 0.000000 0.000000 
#    y 0.000000 2.053040 0.000000 
#    z 0.000000 0.000000 1.922200 
# 
# From -- ./inp_files/14158.got.cif
#   From: 2010.05.17/outbox.cif.g08.bks.cpg/sg24_8_cif.got.tgz:14158.got - 2010.06.04 00:33:39.
