data_PCOD9334931
_publ_section_title
;
Structure prediction by ZEFSAII (Michael W. Deem and Ramdas Pophale) SiO2 
 PCOD9334931
Probable space group: I 21 21 21
;
_chemical_formula_sum "Si O2"
_cell_formula_units_Z 40
_cell_length_a 7.758556
_cell_length_b 9.594414
_cell_length_c 23.776863
_cell_angle_alpha 90.000000
_cell_angle_beta 90.000000
_cell_angle_gamma 90.000000
_cell_volume 1769.921109
_symmetry_space_group_name_H-M "I 21 21 21"
_symmetry_group_IT_number 24
_symmetry_cell_setting 'orthorhombic'
loop_
_space_group_symop_operation_xyz
x,y,z
-x,1/2-y,z
x,-y,1/2-z
1/2-x,y,-z
1/2+x,1/2+y,1/2+z
1/2-x,-y,1/2+z
1/2+x,1/2-y,-z
-x,1/2+y,1/2-z
loop_
_atom_site_type_symbol
_atom_site_label
_atom_site_fract_x
_atom_site_fract_y
_atom_site_fract_z
Si Si1 0.926918 0.094598 0.534594
Si Si2 0.116570 0.358070 0.264292
Si Si3 0.448630 0.591203 0.167369
Si Si4 0.180634 0.164790 0.824151
Si Si5 0.660190 0.343746 0.051818
O O1 0.750000 0.075673 0.500000
O O2 0.903704 0.072013 0.601710
O O3 0.000000 0.250000 0.525081
O O4 0.078755 0.983094 0.524312
O O5 0.013692 0.500000 0.250000
O O6 0.273682 0.423613 0.298771
O O7 0.191808 0.255062 0.215304
O O8 0.000000 0.250000 0.299122
O O9 0.500000 0.750000 0.175992
O O10 0.603896 0.490588 0.186129
O O11 0.254904 0.148170 0.888137
O O12 0.000000 0.250000 0.820272
O O13 0.500000 0.250000 0.067613
O O14 0.750000 0.269224 0.000000
#
# Coordination Sequence:
#
# PCOD9334931 Si02
#       5
#     8   8   8   8   8
#     4  10  21  40  64  94 130 168 213 259 313 379
#     4  12  27  43  63  96 132 166 217 284 337 378
#     4  10  23  41  68  94 125 178 224 257 316 398
#     4  10  21  43  67  89 125 175 221 255 311 399
#     4  10  21  38  63  96 125 163 210 257 317 378
#
# _framework density 22.599876999999999
#
# number of rings (size 3 to 8) (size 9 to 14) (size 15 to 20)
#    0.000    1.600    2.000    1.800    2.800    1.600 
#    3.600    0.000    0.000    0.000    0.000    0.000 
#    0.000    0.000    0.000    0.000    0.000    0.000 
#
# Total GULP energy -111421.845009 kJ/mol
# GULP energy per Si atom -5571.092250 kJ/mol
# Density = 2.254844 g / cm^3
# Si number density = 22.599877 Si / 1000 Ang^3
#
#
#
# Elastic Constant Matrix: (Units=GPa)
#
#
# Indices 1 2 3 4 5 6 
#
# 1 51.4304 22.6382 22.5205 0.0000 0.0000 0.0000
# 2 22.6382 150.1395 9.3859 0.0000 0.0000 0.0000
# 3 22.5205 9.3859 74.0540 0.0000 0.0000 0.0000
# 4 0.0000 0.0000 0.0000 20.0055 0.0000 0.0000
# 5 0.0000 0.0000 0.0000 0.0000 20.5282 0.0000
# 6 0.0000 0.0000 0.0000 0.0000 0.0000 31.0417
#
#
#
# Elastic Compliance Matrix: (Units=1/GPa)
#
#
# Indices 1 2 3 4 5 6 
#
# 1 0.023836 -0.003166 -0.006847 0.000000 0.000000 0.000000
# 2 -0.003166 0.007134 0.000059 0.000000 0.000000 0.000000
# 3 -0.006847 0.000059 0.015579 0.000000 0.000000 0.000000
# 4 0.000000 0.000000 0.000000 0.049986 0.000000 0.000000
# 5 0.000000 0.000000 0.000000 0.000000 0.048713 0.000000
# 6 0.000000 0.000000 0.000000 0.000000 0.000000 0.032215
#
#
# Mechanical properties :
#
#
# Convention : Reuss Voigt Hill
#
# Bulk Modulus (GPa) = 37.53901 42.74592 40.14246
# Shear Modulus (GPa) = 24.24220 29.05370 26.64795
#
# Velocity S-wave (km/s) = 3.27872 3.58937 3.43756
# Velocity P-wave (km/s) = 5.56594 6.01111 5.79280
#
# Compressibility (1/GPa) = 0.02663896
#
# Stress axis : x y z
#
# Youngs Moduli (GPa) = 41.95397 140.17045 64.19063
#
# Poissons Ratio (x) = 0.44377 0.43954
# Poissons Ratio (y) = 0.13282 -0.00376
# Poissons Ratio (z) = 0.28728 -0.00821
#
# Static dielectric constant tensor:
#      x y z
#    x 2.179620 0.000000 0.000000 
#    y 0.000000 1.977050 0.000000 
#    z 0.000000 0.000000 2.040870 
# 
# From -- ./inp_files/9246.got.cif
#   From: 2010.05.17/outbox.cif.g08.bks.cpg/sg24_5_cif.got.tgz:9246.got - 2010.06.04 00:33:39.
