data_PCOD9334552
_publ_section_title
;
Structure prediction by ZEFSAII (Michael W. Deem and Ramdas Pophale) SiO2 
 PCOD9334552
Probable space group: I 21 21 21
;
_chemical_formula_sum "Si O2"
_cell_formula_units_Z 52
_cell_length_a 8.483181
_cell_length_b 20.892956
_cell_length_c 13.641455
_cell_angle_alpha 90.000000
_cell_angle_beta 90.000000
_cell_angle_gamma 90.000000
_cell_volume 2417.794124
_symmetry_space_group_name_H-M "I 21 21 21"
_symmetry_group_IT_number 24
_symmetry_cell_setting 'orthorhombic'
loop_
_space_group_symop_operation_xyz
x,y,z
-x,1/2-y,z
x,-y,1/2-z
1/2-x,y,-z
1/2+x,1/2+y,1/2+z
1/2-x,-y,1/2+z
1/2+x,1/2-y,-z
-x,1/2+y,1/2-z
loop_
_atom_site_type_symbol
_atom_site_label
_atom_site_fract_x
_atom_site_fract_y
_atom_site_fract_z
Si Si1 0.666265 0.923639 0.603099
Si Si2 0.881491 0.169625 0.264806
Si Si3 0.567505 0.574360 0.251817
Si Si4 0.254887 0.563972 0.118094
Si Si5 0.500000 0.250000 0.086708
Si Si6 0.740716 0.701006 0.742321
Si Si7 0.069066 0.880402 0.523545
O O1 0.750000 0.916086 0.500000
O O2 0.701691 0.865407 0.673992
O O3 0.486696 0.924059 0.566523
O O4 0.711948 0.991505 0.645302
O O5 0.873574 0.115122 0.346239
O O6 0.788389 0.232458 0.301260
O O7 0.057514 0.183471 0.226611
O O8 0.624491 0.500000 0.250000
O O9 0.418451 0.577654 0.176674
O O10 0.678098 0.635127 0.222505
O O11 0.541186 0.588518 0.368977
O O12 0.250000 0.566092 0.000000
O O13 0.353710 0.227233 0.155056
O O14 0.476916 0.312809 0.021732
O O15 0.250000 0.867036 0.500000
#
# Coordination Sequence:
#
# PCOD9334552 Si02
#       7
#     8   8   8   8   4   8   8
#     4  11  21  36  64  97 129 169 211 258 322 398
#     4  11  22  41  61  92 131 163 214 272 317 377
#     4  11  22  43  66  91 133 174 210 265 328 380
#     4  11  24  43  66  92 122 171 225 270 321 377
#     4  10  20  40  62  94 138 172 198 250 322 396
#     4  10  23  39  65  93 122 170 213 255 323 390
#     4  11  24  39  63 100 133 169 213 256 321 400
#
# _framework density 21.507207000000001
#
# number of rings (size 3 to 8) (size 9 to 14) (size 15 to 20)
#    0.000    1.231    0.000    8.769    0.000    6.769 
#    0.000    3.846    0.000    0.000    0.000    0.000 
#    0.000    0.000    0.000    0.000    0.000    0.000 
#
# Total GULP energy -144828.661985 kJ/mol
# GULP energy per Si atom -5570.333153 kJ/mol
# Density = 2.145826 g / cm^3
# Si number density = 21.507207 Si / 1000 Ang^3
#
#
#
# Elastic Constant Matrix: (Units=GPa)
#
#
# Indices 1 2 3 4 5 6 
#
# 1 103.6986 67.7302 26.7610 0.0000 0.0000 0.0000
# 2 67.7302 192.1353 46.5095 0.0001 0.0000 0.0000
# 3 26.7610 46.5095 93.5320 0.0001 0.0000 0.0000
# 4 0.0000 0.0001 0.0001 28.9065 0.0000 0.0000
# 5 0.0000 0.0000 0.0000 0.0000 23.6983 0.0000
# 6 0.0000 0.0000 0.0000 0.0000 0.0000 33.9728
#
#
#
# Elastic Compliance Matrix: (Units=1/GPa)
#
#
# Indices 1 2 3 4 5 6 
#
# 1 0.012736 -0.004101 -0.001605 0.000000 0.000000 0.000000
# 2 -0.004101 0.007238 -0.002425 0.000000 0.000000 0.000000
# 3 -0.001605 -0.002425 0.012357 0.000000 0.000000 0.000000
# 4 0.000000 0.000000 0.000000 0.034594 0.000000 0.000000
# 5 0.000000 0.000000 0.000000 0.000000 0.042197 0.000000
# 6 0.000000 0.000000 0.000000 0.000000 0.000000 0.029435
#
#
# Mechanical properties :
#
#
# Convention : Reuss Voigt Hill
#
# Bulk Modulus (GPa) = 62.23676 74.59638 68.41657
# Shear Modulus (GPa) = 31.21568 33.87316 32.54442
#
# Velocity S-wave (km/s) = 3.81386 3.97289 3.89419
# Velocity P-wave (km/s) = 6.95662 7.47026 7.21801
#
# Compressibility (1/GPa) = 0.01606768
#
# Stress axis : x y z
#
# Youngs Moduli (GPa) = 78.51673 138.16861 80.92745
#
# Poissons Ratio (x) = 0.56666 0.12986
# Poissons Ratio (y) = 0.32201 0.19629
# Poissons Ratio (z) = 0.12599 0.33513
#
# Static dielectric constant tensor:
#      x y z
#    x 2.066500 0.000000 0.000000 
#    y 0.000000 1.816730 0.000000 
#    z 0.000000 0.000000 1.810660 
# 
# From -- ./inp_files/25012.got.cif
#   From: 2010.05.17/outbox.cif.g08.bks.cpg/sg24_13_cif.got.tgz:25012.got - 2010.06.04 00:33:39.
