data_PCOD9334673
_publ_section_title
;
Structure prediction by ZEFSAII (Michael W. Deem and Ramdas Pophale) SiO2 
 PCOD9334673
Probable space group: I 21 21 21
;
_chemical_formula_sum "Si O2"
_cell_formula_units_Z 48
_cell_length_a 24.248852
_cell_length_b 19.055329
_cell_length_c 5.199145
_cell_angle_alpha 90.000000
_cell_angle_beta 90.000000
_cell_angle_gamma 90.000000
_cell_volume 2402.368164
_symmetry_space_group_name_H-M "I 21 21 21"
_symmetry_group_IT_number 24
_symmetry_cell_setting 'orthorhombic'
loop_
_space_group_symop_operation_xyz
x,y,z
-x,1/2-y,z
x,-y,1/2-z
1/2-x,y,-z
1/2+x,1/2+y,1/2+z
1/2-x,-y,1/2+z
1/2+x,1/2-y,-z
-x,1/2+y,1/2-z
loop_
_atom_site_type_symbol
_atom_site_label
_atom_site_fract_x
_atom_site_fract_y
_atom_site_fract_z
Si Si1 0.134317 0.782679 0.536119
Si Si2 0.000000 0.250000 0.393509
Si Si3 0.288769 0.000000 0.750000
Si Si4 0.521472 0.500000 0.250000
Si Si5 0.185138 0.148367 0.447536
Si Si6 0.962706 0.646625 0.705550
Si Si7 0.424396 0.352213 0.939079
Si Si8 0.943744 0.000000 0.250000
O O1 0.170588 0.802368 0.292640
O O2 0.073884 0.817723 0.487936
O O3 0.123070 0.698925 0.545678
O O4 0.156292 0.820976 0.794498
O O5 0.039100 0.202539 0.571081
O O6 0.039762 0.305578 0.257200
O O7 0.250000 0.980408 0.500000
O O8 0.323464 0.067631 0.650914
O O9 0.558364 0.568973 0.257047
O O10 0.483689 0.491092 0.503786
O O11 0.250000 0.150552 0.500000
O O12 0.027646 0.636217 0.650414
O O13 0.411158 0.427810 0.813804
#
# Coordination Sequence:
#
# PCOD9334673 Si02
#       8
#     8   4   4   4   8   8   8   4
#     4  12  23  37  63  88 117 161 203 258 318 367
#     4  12  16  36  54  78 126 156 206 240 300 346
#     4  10  20  42  68  84 118 166 204 260 324 374
#     4  10  22  34  51  78 120 166 196 242 287 340
#     4  11  25  42  62  88 119 155 209 262 315 372
#     4  11  22  34  54  84 122 160 200 241 293 368
#     4  11  22  36  57  87 123 165 203 252 299 371
#     4  10  22  36  55  78 122 168 206 236 293 364
#
# _framework density 19.980284999999999
#
# number of rings (size 3 to 8) (size 9 to 14) (size 15 to 20)
#    0.000    1.000    5.000    3.500    0.000    1.333 
#    0.000    0.833    0.000    0.000    0.000    2.333 
#    0.000    0.000    0.000    0.000    0.000    0.000 
#
# Total GULP energy -133737.975440 kJ/mol
# GULP energy per Si atom -5572.415643 kJ/mol
# Density = 1.993481 g / cm^3
# Si number density = 19.980285 Si / 1000 Ang^3
#
#
#
# Elastic Constant Matrix: (Units=GPa)
#
#
# Indices 1 2 3 4 5 6 
#
# 1 41.3625 29.5608 21.4025 0.0000 0.0000 0.0000
# 2 29.5608 184.6215 42.6127 0.0000 0.0000 0.0000
# 3 21.4025 42.6127 115.2547 0.0000 0.0000 0.0000
# 4 0.0000 0.0000 0.0000 36.3239 0.0000 0.0000
# 5 0.0000 0.0000 0.0000 0.0000 30.6803 0.0000
# 6 0.0000 0.0000 0.0000 0.0000 0.0000 22.4841
#
#
#
# Elastic Compliance Matrix: (Units=1/GPa)
#
#
# Indices 1 2 3 4 5 6 
#
# 1 0.028891 -0.003704 -0.003996 0.000000 0.000000 0.000000
# 2 -0.003704 0.006397 -0.001677 0.000000 0.000000 0.000000
# 3 -0.003996 -0.001677 0.010039 0.000000 0.000000 0.000000
# 4 0.000000 0.000000 0.000000 0.027530 0.000000 0.000000
# 5 0.000000 0.000000 0.000000 0.000000 0.032594 0.000000
# 6 0.000000 0.000000 0.000000 0.000000 0.000000 0.044476
#
#
# Mechanical properties :
#
#
# Convention : Reuss Voigt Hill
#
# Bulk Modulus (GPa) = 37.63221 58.71009 48.17115
# Shear Modulus (GPa) = 28.16316 34.40850 31.28583
#
# Velocity S-wave (km/s) = 3.75847 4.15435 3.96136
# Velocity P-wave (km/s) = 6.14087 7.24288 6.71452
#
# Compressibility (1/GPa) = 0.02657298
#
# Stress axis : x y z
#
# Youngs Moduli (GPa) = 34.61304 156.33246 99.61613
#
# Poissons Ratio (x) = 0.57900 0.39803
# Poissons Ratio (y) = 0.12819 0.16708
# Poissons Ratio (z) = 0.13830 0.26221
#
# Static dielectric constant tensor:
#      x y z
#    x 1.751080 0.000000 0.000000 
#    y 0.000000 1.823890 0.000000 
#    z 0.000000 0.000000 1.798360 
# 
# From -- ./inp_files/6454.got.cif
#   From: 2010.05.17/outbox.cif.g08.bks.cpg/sg24_4_cif.got.tgz:6454.got - 2010.06.04 00:33:39.
