data_PCOD9334594
_publ_section_title
;
Structure prediction by ZEFSAII (Michael W. Deem and Ramdas Pophale) SiO2 
 PCOD9334594
Probable space group: I 21 21 21
;
_chemical_formula_sum "Si O2"
_cell_formula_units_Z 44
_cell_length_a 15.930493
_cell_length_b 8.230912
_cell_length_c 16.578800
_cell_angle_alpha 90.000000
_cell_angle_beta 90.000000
_cell_angle_gamma 90.000000
_cell_volume 2173.853471
_symmetry_space_group_name_H-M "I 21 21 21"
_symmetry_group_IT_number 24
_symmetry_cell_setting 'orthorhombic'
loop_
_space_group_symop_operation_xyz
x,y,z
-x,1/2-y,z
x,-y,1/2-z
1/2-x,y,-z
1/2+x,1/2+y,1/2+z
1/2-x,-y,1/2+z
1/2+x,1/2-y,-z
-x,1/2+y,1/2-z
loop_
_atom_site_type_symbol
_atom_site_label
_atom_site_fract_x
_atom_site_fract_y
_atom_site_fract_z
Si Si1 0.273435 0.000000 0.750000
Si Si2 0.000000 0.750000 0.596606
Si Si3 0.315726 0.265060 0.155012
Si Si4 0.750000 0.568582 0.500000
Si Si5 0.971648 0.922533 0.436372
Si Si6 0.819215 0.974101 0.157180
Si Si7 0.126567 0.884606 0.104122
O O1 0.217247 0.158493 0.769008
O O2 0.335310 0.007812 0.675125
O O3 0.915716 0.753481 0.648389
O O4 0.987711 0.897685 0.531820
O O5 0.281702 0.177617 0.073870
O O6 0.272711 0.443069 0.156147
O O7 0.673414 0.452325 0.525435
O O8 0.000000 0.750000 0.399921
O O9 0.876482 0.933666 0.408257
O O10 0.028914 0.070308 0.405139
O O11 0.838721 0.791262 0.129068
O O12 0.849383 0.000000 0.250000
#
# Coordination Sequence:
#
# PCOD9334594 Si02
#       7
#     4   4   8   4   8   8   8
#     4  10  22  38  64  88 132 180 224 270 332 428
#     4  10  22  42  74  88 126 182 234 290 330 410
#     4  11  21  44  64  96 130 182 233 273 358 412
#     4  10  20  40  68  86 128 174 222 282 332 414
#     4  10  22  40  64  99 127 176 226 279 342 399
#     4  12  25  39  63 100 139 174 217 290 358 424
#     4  11  22  39  63  99 131 174 227 278 348 412
#
# _framework density 20.240555000000001
#
# number of rings (size 3 to 8) (size 9 to 14) (size 15 to 20)
#    0.545    0.727    3.636    3.818    1.273    2.182 
#    1.636    0.000    0.000    0.000    0.000    0.000 
#    0.000    0.000    0.000    0.000    0.000    0.000 
#
# Total GULP energy -122478.954404 kJ/mol
# GULP energy per Si atom -5567.225200 kJ/mol
# Density = 2.019449 g / cm^3
# Si number density = 20.240555 Si / 1000 Ang^3
#
#
#
# Elastic Constant Matrix: (Units=GPa)
#
#
# Indices 1 2 3 4 5 6 
#
# 1 101.9232 1.6203 3.7889 0.0000 0.0000 0.0000
# 2 1.6203 71.1218 -1.5152 0.0000 0.0000 0.0000
# 3 3.7889 -1.5152 45.1821 0.0000 0.0000 0.0000
# 4 0.0000 0.0000 0.0000 22.6442 0.0000 0.0000
# 5 0.0000 0.0000 0.0000 0.0000 25.7547 0.0000
# 6 0.0000 0.0000 0.0000 0.0000 0.0000 25.3062
#
#
#
# Elastic Compliance Matrix: (Units=1/GPa)
#
#
# Indices 1 2 3 4 5 6 
#
# 1 0.009846 -0.000242 -0.000834 0.000000 0.000000 0.000000
# 2 -0.000242 0.014076 0.000492 0.000000 0.000000 0.000000
# 3 -0.000834 0.000492 0.022219 0.000000 0.000000 0.000000
# 4 0.000000 0.000000 0.000000 0.044161 0.000000 0.000000
# 5 0.000000 0.000000 0.000000 0.000000 0.038828 0.000000
# 6 0.000000 0.000000 0.000000 0.000000 0.000000 0.039516
#
#
# Mechanical properties :
#
#
# Convention : Reuss Voigt Hill
#
# Bulk Modulus (GPa) = 22.23477 25.11278 23.67378
# Shear Modulus (GPa) = 27.05546 29.02988 28.04267
#
# Velocity S-wave (km/s) = 3.66005 3.79125 3.72623
# Velocity P-wave (km/s) = 5.37312 5.62129 5.49860
#
# Compressibility (1/GPa) = 0.04497460
#
# Stress axis : x y z
#
# Youngs Moduli (GPa) = 101.56247 71.04089 45.00635
#
# Poissons Ratio (x) = 0.01720 0.03753
# Poissons Ratio (y) = 0.02459 -0.02216
# Poissons Ratio (z) = 0.08468 -0.03498
#
# Static dielectric constant tensor:
#      x y z
#    x 1.799080 0.000000 0.000000 
#    y 0.000000 1.859710 0.000000 
#    z 0.000000 0.000000 1.722020 
# 
# From -- ./inp_files/30681.got.cif
#   From: 2010.05.17/outbox.cif.g08.bks.cpg/sg24_16_cif.got.tgz:30681.got - 2010.06.04 00:33:39.
