data_PCOD9334036
_publ_section_title
;
Structure prediction by ZEFSAII (Michael W. Deem and Ramdas Pophale) SiO2 
 PCOD9334036
Probable space group: I 21 21 21
;
_chemical_formula_sum "Si O2"
_cell_formula_units_Z 40
_cell_length_a 32.200174
_cell_length_b 5.218637
_cell_length_c 12.993630
_cell_angle_alpha 90.000000
_cell_angle_beta 90.000000
_cell_angle_gamma 90.000000
_cell_volume 2183.462831
_symmetry_space_group_name_H-M "I 21 21 21"
_symmetry_group_IT_number 24
_symmetry_cell_setting 'orthorhombic'
loop_
_space_group_symop_operation_xyz
x,y,z
-x,1/2-y,z
x,-y,1/2-z
1/2-x,y,-z
1/2+x,1/2+y,1/2+z
1/2-x,-y,1/2+z
1/2+x,1/2-y,-z
-x,1/2+y,1/2-z
loop_
_atom_site_type_symbol
_atom_site_label
_atom_site_fract_x
_atom_site_fract_y
_atom_site_fract_z
Si Si1 0.500000 0.750000 0.180151
Si Si2 0.210690 0.142374 0.079482
Si Si3 0.306158 0.000000 0.250000
Si Si4 0.863950 0.382803 0.926865
Si Si5 0.910954 0.091157 0.629707
Si Si6 0.257701 0.345102 0.624354
O O1 0.509943 0.500000 0.250000
O O2 0.458525 0.679214 0.118864
O O3 0.225842 0.373904 0.150919
O O4 0.207576 0.870721 0.134287
O O5 0.250000 0.115186 0.000000
O O6 0.168061 0.170226 0.019049
O O7 0.334530 0.841471 0.327648
O O8 0.280640 0.793139 0.181491
O O9 0.882440 0.668398 0.906743
O O10 0.898957 0.166797 0.929760
O O11 0.906797 0.000000 0.750000
O O12 0.250000 0.376572 0.500000
#
# Coordination Sequence:
#
# PCOD9334036 Si02
#       6
#     4   8   4   8   8   8
#     4  10  20  36  46  64  98 130 156 212 276 316
#     4  10  20  35  45  64  99 129 154 218 258 300
#     4  12  22  34  54  74  98 134 184 236 244 298
#     4  12  22  32  51  74  96 126 181 225 251 298
#     4  11  21  32  48  71  94 126 169 218 265 310
#     4  10  21  34  47  66  95 133 163 216 267 297
#
# _framework density 18.319524000000001
#
# number of rings (size 3 to 8) (size 9 to 14) (size 15 to 20)
#    0.000    1.200    6.000    3.600    2.800    2.400 
#    0.000    0.000    0.000    0.000    0.000    0.000 
#    0.000    0.000    0.000    0.000    0.000   56.000 
#
# Total GULP energy -111414.981711 kJ/mol
# GULP energy per Si atom -5570.749086 kJ/mol
# Density = 1.827783 g / cm^3
# Si number density = 18.319524 Si / 1000 Ang^3
#
#
#
# Elastic Constant Matrix: (Units=GPa)
#
#
# Indices 1 2 3 4 5 6 
#
# 1 93.2770 26.7402 17.5293 0.0000 0.0000 0.0000
# 2 26.7402 134.6903 13.0954 0.0000 0.0000 0.0000
# 3 17.5293 13.0954 36.5049 0.0000 0.0000 0.0000
# 4 0.0000 0.0000 0.0000 28.7207 0.0000 0.0000
# 5 0.0000 0.0000 0.0000 0.0000 18.7995 0.0000
# 6 0.0000 0.0000 0.0000 0.0000 0.0000 29.0891
#
#
#
# Elastic Compliance Matrix: (Units=1/GPa)
#
#
# Indices 1 2 3 4 5 6 
#
# 1 0.012249 -0.001927 -0.005190 0.000000 0.000000 0.000000
# 2 -0.001927 0.007996 -0.001943 0.000000 0.000000 0.000000
# 3 -0.005190 -0.001943 0.030583 0.000000 0.000000 0.000000
# 4 0.000000 0.000000 0.000000 0.034818 0.000000 0.000000
# 5 0.000000 0.000000 0.000000 0.000000 0.053193 0.000000
# 6 0.000000 0.000000 0.000000 0.000000 0.000000 0.034377
#
#
# Mechanical properties :
#
#
# Convention : Reuss Voigt Hill
#
# Bulk Modulus (GPa) = 30.57492 42.13358 36.35425
# Shear Modulus (GPa) = 24.72326 29.12901 26.92614
#
# Velocity S-wave (km/s) = 3.67762 3.99187 3.83796
# Velocity P-wave (km/s) = 5.89569 6.65552 6.28710
#
# Compressibility (1/GPa) = 0.03270655
#
# Stress axis : x y z
#
# Youngs Moduli (GPa) = 81.64180 125.06353 32.69796
#
# Poissons Ratio (x) = 0.24101 0.16971
# Poissons Ratio (y) = 0.15733 0.06353
# Poissons Ratio (z) = 0.42375 0.24300
#
# Static dielectric constant tensor:
#      x y z
#    x 1.644810 0.000000 0.000000 
#    y 0.000000 1.750270 0.000000 
#    z 0.000000 0.000000 1.439000 
# 
# From -- ./inp_files/2682.got.cif
#   From: 2010.05.17/outbox.cif.g08.bks.cpg/sg24_2_cif.got.tgz:2682.got - 2010.06.04 00:33:39.
