data_PCOD9334529
_publ_section_title
;
Structure prediction by ZEFSAII (Michael W. Deem and Ramdas Pophale) SiO2 
 PCOD9334529
Probable space group: I 21 21 21
;
_chemical_formula_sum "Si O2"
_cell_formula_units_Z 48
_cell_length_a 17.877446
_cell_length_b 11.916590
_cell_length_c 10.383074
_cell_angle_alpha 90.000000
_cell_angle_beta 90.000000
_cell_angle_gamma 90.000000
_cell_volume 2211.991336
_symmetry_space_group_name_H-M "I 21 21 21"
_symmetry_group_IT_number 24
_symmetry_cell_setting 'orthorhombic'
loop_
_space_group_symop_operation_xyz
x,y,z
-x,1/2-y,z
x,-y,1/2-z
1/2-x,y,-z
1/2+x,1/2+y,1/2+z
1/2-x,-y,1/2+z
1/2+x,1/2-y,-z
-x,1/2+y,1/2-z
loop_
_atom_site_type_symbol
_atom_site_label
_atom_site_fract_x
_atom_site_fract_y
_atom_site_fract_z
Si Si1 0.103051 0.451372 0.606899
Si Si2 0.413961 0.227239 0.007567
Si Si3 0.429105 0.983573 0.092765
Si Si4 0.296578 0.641550 0.387913
Si Si5 0.160149 0.766502 0.000161
Si Si6 0.856228 0.869036 0.261001
O O1 0.105734 0.500000 0.750000
O O2 0.167712 0.530069 0.545934
O O3 0.131794 0.326906 0.598904
O O4 0.017744 0.464732 0.563197
O O5 0.500000 0.250000 0.033385
O O6 0.392886 0.296463 0.877670
O O7 0.367168 0.279154 0.125491
O O8 0.403525 0.094525 0.015823
O O9 0.381120 0.880428 0.038983
O O10 0.422334 0.000000 0.250000
O O11 0.250000 0.703149 0.500000
O O12 0.233878 0.622758 0.282672
O O13 0.250000 0.779449 0.000000
O O14 0.134411 0.706892 0.133886
O O15 0.883197 0.000000 0.250000
#
# Coordination Sequence:
#
# PCOD9334529 Si02
#       6
#     8   8   8   8   8   8
#     4  11  22  41  72 103 135 179 237 307 360 406
#     4  11  24  46  73 102 143 195 235 295 368 431
#     4  11  28  45  69 104 144 192 245 291 360 438
#     4  10  20  39  72 100 134 175 240 293 354 411
#     4  12  26  45  69 107 148 187 240 297 361 437
#     4  11  25  45  73 111 140 185 241 303 362 428
#
# _framework density 21.699905000000001
#
# number of rings (size 3 to 8) (size 9 to 14) (size 15 to 20)
#    0.000    1.000    1.667    5.500    4.667    4.000 
#    0.000    0.000    0.000    0.000    0.000    0.000 
#    0.000    0.000    0.000    0.000    0.000    0.000 
#
# Total GULP energy -133847.827711 kJ/mol
# GULP energy per Si atom -5576.992821 kJ/mol
# Density = 2.165051 g / cm^3
# Si number density = 21.699905 Si / 1000 Ang^3
#
#
#
# Elastic Constant Matrix: (Units=GPa)
#
#
# Indices 1 2 3 4 5 6 
#
# 1 125.6785 80.6731 45.9828 0.0000 0.0000 0.0000
# 2 80.6731 216.5026 43.5409 0.0000 0.0000 0.0000
# 3 45.9828 43.5409 95.2726 0.0000 0.0000 0.0000
# 4 0.0000 0.0000 0.0000 38.4770 0.0000 0.0000
# 5 0.0000 0.0000 0.0000 0.0000 29.3258 0.0000
# 6 0.0000 0.0000 0.0000 0.0000 0.0000 39.9118
#
#
#
# Elastic Compliance Matrix: (Units=1/GPa)
#
#
# Indices 1 2 3 4 5 6 
#
# 1 0.011712 -0.003554 -0.004029 0.000000 0.000000 0.000000
# 2 -0.003554 0.006165 -0.001102 0.000000 0.000000 0.000000
# 3 -0.004029 -0.001102 0.012944 0.000000 0.000000 0.000000
# 4 0.000000 0.000000 0.000000 0.025990 0.000000 0.000000
# 5 0.000000 0.000000 0.000000 0.000000 0.034100 0.000000
# 6 0.000000 0.000000 0.000000 0.000000 0.000000 0.025055
#
#
# Mechanical properties :
#
#
# Convention : Reuss Voigt Hill
#
# Bulk Modulus (GPa) = 74.33913 86.42746 80.38329
# Shear Modulus (GPa) = 36.27955 39.36005 37.81980
#
# Velocity S-wave (km/s) = 4.09329 4.26353 4.17928
# Velocity P-wave (km/s) = 7.52810 8.00949 7.77252
#
# Compressibility (1/GPa) = 0.01345187
#
# Stress axis : x y z
#
# Youngs Moduli (GPa) = 85.38218 162.21128 77.25457
#
# Poissons Ratio (x) = 0.57649 0.31122
# Poissons Ratio (y) = 0.30344 0.08514
# Poissons Ratio (z) = 0.34397 0.17877
#
# Static dielectric constant tensor:
#      x y z
#    x 1.881890 0.000000 0.000000 
#    y 0.000000 1.853360 0.000000 
#    z 0.000000 0.000000 1.973000 
# 
# From -- ./inp_files/21532.got.cif
#   From: 2010.05.17/outbox.cif.g08.bks.cpg/sg24_11_cif.got.tgz:21532.got - 2010.06.04 00:33:39.
