data_PCOD9334318
_publ_section_title
;
Structure prediction by ZEFSAII (Michael W. Deem and Ramdas Pophale) SiO2 
 PCOD9334318
Probable space group: I 21 21 21
;
_chemical_formula_sum "Si O2"
_cell_formula_units_Z 60
_cell_length_a 9.255324
_cell_length_b 16.603199
_cell_length_c 16.242557
_cell_angle_alpha 90.000000
_cell_angle_beta 90.000000
_cell_angle_gamma 90.000000
_cell_volume 2495.961025
_symmetry_space_group_name_H-M "I 21 21 21"
_symmetry_group_IT_number 24
_symmetry_cell_setting 'orthorhombic'
loop_
_space_group_symop_operation_xyz
x,y,z
-x,1/2-y,z
x,-y,1/2-z
1/2-x,y,-z
1/2+x,1/2+y,1/2+z
1/2-x,-y,1/2+z
1/2+x,1/2-y,-z
-x,1/2+y,1/2-z
loop_
_atom_site_type_symbol
_atom_site_label
_atom_site_fract_x
_atom_site_fract_y
_atom_site_fract_z
Si Si1 0.101580 0.011379 0.104197
Si Si2 0.903421 0.324071 0.021968
Si Si3 0.828931 0.937555 0.312813
Si Si4 0.321071 0.000000 0.250000
Si Si5 0.161013 0.605541 0.914659
Si Si6 0.429836 0.329779 0.681018
Si Si7 0.043785 0.424451 0.870877
Si Si8 0.406005 0.140728 0.511136
O O1 0.930257 0.013228 0.125459
O O2 0.210995 0.978737 0.174495
O O3 0.113065 0.955233 0.024646
O O4 0.131906 0.104050 0.085134
O O5 0.000000 0.250000 0.050912
O O6 0.976497 0.372662 0.945151
O O7 0.750000 0.287402 0.000000
O O8 0.942113 0.891396 0.255936
O O9 0.699034 0.885247 0.347444
O O10 0.757293 0.000000 0.250000
O O11 0.429827 0.936813 0.295779
O O12 0.265496 0.652863 0.851032
O O13 0.102214 0.515426 0.893250
O O14 0.250000 0.599176 0.000000
O O15 0.016471 0.654341 0.937855
O O16 0.500000 0.250000 0.717264
O O17 0.524345 0.338245 0.598464
O O18 0.250000 0.179307 0.500000
#
# Coordination Sequence:
#
# PCOD9334318 Si02
#       8
#     8   8   8   4   8   8   8   8
#     4  12  23  43  70 102 143 189 252 310 377 449
#     4  12  29  49  70 111 160 205 250 317 393 463
#     4  12  22  40  69 101 133 187 248 298 365 444
#     4  12  22  38  70 102 144 182 240 336 370 426
#     4  10  20  37  68  99 132 179 243 305 360 434
#     4  11  24  43  61  97 145 182 232 296 376 442
#     4  12  23  42  74 106 143 188 262 320 366 455
#     4  11  21  37  68 102 129 178 238 302 359 431
#
# _framework density 24.038837000000001
#
# number of rings (size 3 to 8) (size 9 to 14) (size 15 to 20)
#    0.000    0.533    6.667    2.000    1.867    2.133 
#    0.000    0.000    0.000    0.000    0.000    0.000 
#    0.000    0.000    0.000    0.000    0.000    0.000 
#
# Total GULP energy -167316.014707 kJ/mol
# GULP energy per Si atom -5577.200490 kJ/mol
# Density = 2.398412 g / cm^3
# Si number density = 24.038837 Si / 1000 Ang^3
#
#
#
# Elastic Constant Matrix: (Units=GPa)
#
#
# Indices 1 2 3 4 5 6 
#
# 1 157.2110 12.0896 29.9665 0.0000 0.0000 0.0000
# 2 12.0896 83.7114 6.8018 0.0000 0.0000 0.0000
# 3 29.9665 6.8018 59.9981 0.0000 0.0000 0.0000
# 4 0.0000 0.0000 0.0000 11.3831 0.0000 0.0000
# 5 0.0000 0.0000 0.0000 0.0000 36.7737 0.0000
# 6 0.0000 0.0000 0.0000 0.0000 0.0000 18.5221
#
#
#
# Elastic Compliance Matrix: (Units=1/GPa)
#
#
# Indices 1 2 3 4 5 6 
#
# 1 0.007075 -0.000742 -0.003450 0.000000 0.000000 0.000000
# 2 -0.000742 0.012135 -0.001005 0.000000 0.000000 0.000000
# 3 -0.003450 -0.001005 0.018504 0.000000 0.000000 0.000000
# 4 0.000000 0.000000 0.000000 0.087849 0.000000 0.000000
# 5 0.000000 0.000000 0.000000 0.000000 0.027193 0.000000
# 6 0.000000 0.000000 0.000000 0.000000 0.000000 0.053990
#
#
# Mechanical properties :
#
#
# Convention : Reuss Voigt Hill
#
# Bulk Modulus (GPa) = 36.60194 44.29291 40.44743
# Shear Modulus (GPa) = 22.09977 30.13996 26.11986
#
# Velocity S-wave (km/s) = 3.03535 3.54475 3.29989
# Velocity P-wave (km/s) = 5.24820 5.93458 5.60191
#
# Compressibility (1/GPa) = 0.02732095
#
# Stress axis : x y z
#
# Youngs Moduli (GPa) = 141.33302 82.40908 54.04179
#
# Poissons Ratio (x) = 0.06111 0.18644
# Poissons Ratio (y) = 0.10480 0.05433
# Poissons Ratio (z) = 0.48758 0.08284
#
# Static dielectric constant tensor:
#      x y z
#    x 2.034530 0.000000 0.000000 
#    y 0.000000 2.269950 0.000000 
#    z 0.000000 0.000000 1.971200 
# 
# From -- ./inp_files/29708.got.cif
#   From: 2010.05.17/outbox.cif.g08.bks.cpg/sg24_15_cif.got.tgz:29708.got - 2010.06.04 00:33:39.
