data_PCOD9334683
_publ_section_title
;
Structure prediction by ZEFSAII (Michael W. Deem and Ramdas Pophale) SiO2 
 PCOD9334683
Probable space group: I 21 21 21
;
_chemical_formula_sum "Si O2"
_cell_formula_units_Z 40
_cell_length_a 23.919471
_cell_length_b 5.978886
_cell_length_c 12.491054
_cell_angle_alpha 90.000000
_cell_angle_beta 90.000000
_cell_angle_gamma 90.000000
_cell_volume 1786.367995
_symmetry_space_group_name_H-M "I 21 21 21"
_symmetry_group_IT_number 24
_symmetry_cell_setting 'orthorhombic'
loop_
_space_group_symop_operation_xyz
x,y,z
-x,1/2-y,z
x,-y,1/2-z
1/2-x,y,-z
1/2+x,1/2+y,1/2+z
1/2-x,-y,1/2+z
1/2+x,1/2-y,-z
-x,1/2+y,1/2-z
loop_
_atom_site_type_symbol
_atom_site_label
_atom_site_fract_x
_atom_site_fract_y
_atom_site_fract_z
Si Si1 0.062593 0.675575 0.658492
Si Si2 0.651498 0.532607 0.092898
Si Si3 0.405234 0.408710 0.539341
Si Si4 0.500000 0.250000 0.694518
Si Si5 0.299648 0.691794 0.577883
Si Si6 0.754096 0.500000 0.750000
O O1 0.079291 0.500000 0.750000
O O2 0.109374 0.866536 0.653649
O O3 0.061620 0.581652 0.536680
O O4 0.000000 0.750000 0.685969
O O5 0.703961 0.606308 0.163342
O O6 0.617408 0.734754 0.046496
O O7 0.676160 0.393592 0.993747
O O8 0.445282 0.288848 0.622539
O O9 0.351011 0.523072 0.592138
O O10 0.506323 0.500000 0.750000
O O11 0.250000 0.598324 0.500000
O O12 0.278479 0.805708 0.687066
#
# Coordination Sequence:
#
# PCOD9334683 Si02
#       6
#     8   8   8   4   8   4
#     4  11  25  39  68 110 146 191 242 302 391 473
#     4  10  22  42  69 101 148 190 241 309 382 457
#     4  11  25  48  74 100 154 198 251 326 379 463
#     4  12  32  52  82 114 150 210 274 332 388 464
#     4   9  22  42  69 108 144 192 244 307 381 458
#     4  10  20  42  74 104 148 188 250 312 388 474
#
# _framework density 22.391805000000002
#
# number of rings (size 3 to 8) (size 9 to 14) (size 15 to 20)
#    0.000    1.600    0.000    2.400   12.600    4.000 
#    0.000    8.000    0.000    0.000    0.000    0.000 
#    0.000    0.000    0.000    0.000    0.000    0.000 
#
# Total GULP energy -111776.397803 kJ/mol
# GULP energy per Si atom -5588.819890 kJ/mol
# Density = 2.234084 g / cm^3
# Si number density = 22.391805 Si / 1000 Ang^3
#
#
#
# Elastic Constant Matrix: (Units=GPa)
#
#
# Indices 1 2 3 4 5 6 
#
# 1 133.3146 70.5141 70.7319 0.0000 0.0000 0.0000
# 2 70.5141 104.1571 78.4382 0.0000 0.0000 0.0000
# 3 70.7319 78.4382 112.6893 0.0000 0.0000 0.0000
# 4 0.0000 0.0000 0.0000 6.2732 0.0000 0.0000
# 5 0.0000 0.0000 0.0000 0.0000 230.7269 0.0000
# 6 0.0000 0.0000 0.0000 0.0000 0.0000 38.6098
#
#
#
# Elastic Compliance Matrix: (Units=1/GPa)
#
#
# Indices 1 2 3 4 5 6 
#
# 1 0.012534 -0.005382 -0.004121 0.000000 0.000000 0.000000
# 2 -0.005382 0.022489 -0.012275 0.000000 0.000000 0.000000
# 3 -0.004121 -0.012275 0.020005 0.000000 0.000000 0.000000
# 4 0.000000 0.000000 0.000000 0.159408 0.000000 0.000000
# 5 0.000000 0.000000 0.000000 0.000000 0.004334 0.000000
# 6 0.000000 0.000000 0.000000 0.000000 0.000000 0.025900
#
#
# Mechanical properties :
#
#
# Convention : Reuss Voigt Hill
#
# Bulk Modulus (GPa) = 87.17671 87.72548 87.45110
# Shear Modulus (GPa) = 17.12029 63.82045 40.47037
#
# Velocity S-wave (km/s) = 2.76810 5.34449 4.25593
# Velocity P-wave (km/s) = 7.01665 8.79473 7.95553
#
# Compressibility (1/GPa) = 0.01147095
#
# Stress axis : x y z
#
# Youngs Moduli (GPa) = 79.78045 44.46664 49.98766
#
# Poissons Ratio (x) = 0.23933 0.20601
# Poissons Ratio (y) = 0.42939 0.61361
# Poissons Ratio (z) = 0.32879 0.54584
#
# Static dielectric constant tensor:
#      x y z
#    x 1.808660 0.000000 0.000000 
#    y 0.000000 1.836680 0.000000 
#    z 0.000000 0.000000 1.854490 
# 
# From -- ./inp_files/22814.got.cif
#   From: 2010.05.17/outbox.cif.g08.bks.cpg/sg24_12_cif.got.tgz:22814.got - 2010.06.04 00:33:39.
