data_PCOD9334056
_publ_section_title
;
Structure prediction by ZEFSAII (Michael W. Deem and Ramdas Pophale) SiO2 
 PCOD9334056
Probable space group: I 21 21 21
;
_chemical_formula_sum "Si O2"
_cell_formula_units_Z 48
_cell_length_a 15.191619
_cell_length_b 9.320964
_cell_length_c 16.462209
_cell_angle_alpha 90.000000
_cell_angle_beta 90.000000
_cell_angle_gamma 90.000000
_cell_volume 2331.057582
_symmetry_space_group_name_H-M "I 21 21 21"
_symmetry_group_IT_number 24
_symmetry_cell_setting 'orthorhombic'
loop_
_space_group_symop_operation_xyz
x,y,z
-x,1/2-y,z
x,-y,1/2-z
1/2-x,y,-z
1/2+x,1/2+y,1/2+z
1/2-x,-y,1/2+z
1/2+x,1/2-y,-z
-x,1/2+y,1/2-z
loop_
_atom_site_type_symbol
_atom_site_label
_atom_site_fract_x
_atom_site_fract_y
_atom_site_fract_z
Si Si1 0.147221 0.051714 0.519669
Si Si2 0.224640 0.624566 0.301535
Si Si3 0.848118 0.235232 0.036236
Si Si4 0.828057 0.639958 0.794597
Si Si5 0.900719 0.026670 0.900740
Si Si6 0.000000 0.250000 0.793438
Si Si7 0.000000 0.750000 0.962998
O O1 0.250000 0.074306 0.500000
O O2 0.150700 0.085601 0.615445
O O3 0.073985 0.162082 0.487707
O O4 0.119041 0.892507 0.491055
O O5 0.179268 0.500000 0.250000
O O6 0.164821 0.703213 0.368733
O O7 0.263160 0.733868 0.234220
O O8 0.307334 0.550901 0.352585
O O9 0.750000 0.237274 0.000000
O O10 0.893391 0.105938 0.987654
O O11 0.792815 0.500000 0.750000
O O12 0.919865 0.690881 0.757574
O O13 0.967365 0.119444 0.847985
O O14 0.941574 0.869199 0.913889
#
# Coordination Sequence:
#
# PCOD9334056 Si02
#       7
#     8   8   8   8   8   4   4
#     4  11  23  39  58  88 129 171 214 261 315 383
#     4  10  21  36  58  89 123 165 215 267 318 375
#     4   9  19  39  60  82 124 176 216 255 314 384
#     4  11  20  33  56  87 124 164 203 253 314 380
#     4  10  20  35  55  87 129 169 205 250 316 390
#     4  10  21  34  54  88 133 170 200 242 315 398
#     4  12  23  34  58  92 125 164 208 260 315 370
#
# _framework density 20.591512000000002
#
# number of rings (size 3 to 8) (size 9 to 14) (size 15 to 20)
#    0.000    1.667    0.000    7.500    0.000    7.333 
#    0.000    0.000    0.000    0.000    0.000   22.167 
#    0.000    0.000    0.000    0.000    0.000    0.000 
#
# Total GULP energy -133852.121444 kJ/mol
# GULP energy per Si atom -5577.171727 kJ/mol
# Density = 2.054464 g / cm^3
# Si number density = 20.591512 Si / 1000 Ang^3
#
#
#
# Elastic Constant Matrix: (Units=GPa)
#
#
# Indices 1 2 3 4 5 6 
#
# 1 40.4824 31.5300 11.3506 0.0000 0.0000 0.0000
# 2 31.5300 168.7510 52.5368 0.0000 0.0000 0.0000
# 3 11.3506 52.5368 94.3316 0.0000 0.0000 0.0000
# 4 0.0000 0.0000 0.0000 -18.1658 0.0000 0.0000
# 5 0.0000 0.0000 0.0000 0.0000 10.3076 0.0000
# 6 0.0000 0.0000 0.0000 0.0000 0.0000 32.3029
#
#
#
# Elastic Compliance Matrix: (Units=1/GPa)
#
#
# Indices 1 2 3 4 5 6 
#
# 1 0.028934 -0.005229 -0.000569 0.000000 0.000000 0.000000
# 2 -0.005229 0.008114 -0.003890 0.000000 0.000000 0.000000
# 3 -0.000569 -0.003890 0.012836 0.000000 0.000000 0.000000
# 4 0.000000 0.000000 0.000000 -0.055049 0.000000 0.000000
# 5 0.000000 0.000000 0.000000 0.000000 0.097016 0.000000
# 6 0.000000 0.000000 0.000000 0.000000 0.000000 0.030957
#
#
# Mechanical properties :
#
#
# Convention : Reuss Voigt Hill
#
# Bulk Modulus (GPa) = 32.77844 54.93333 43.85588
# Shear Modulus (GPa) = 32.81833 18.76544 25.79188
#
# Velocity S-wave (km/s) = 3.99655 3.02208 3.54298
# Velocity P-wave (km/s) = 6.10324 6.23802 6.17100
#
# Compressibility (1/GPa) = 0.03050786
#
# Stress axis : x y z
#
# Youngs Moduli (GPa) = 34.56100 123.24585 77.90740
#
# Poissons Ratio (x) = 0.64444 0.04436
# Poissons Ratio (y) = 0.18072 0.30304
# Poissons Ratio (z) = 0.01968 0.47939
#
# Static dielectric constant tensor:
#      x y z
#    x 1.774320 0.000000 0.000000 
#    y 0.000000 1.781840 0.000000 
#    z 0.000000 0.000000 1.816670 
# 
# From -- ./inp_files/30768.got.cif
#   From: 2010.05.17/outbox.cif.g08.bks.cpg/sg24_16_cif.got.tgz:30768.got - 2010.06.04 00:33:39.
