data_PCOD9334315
_publ_section_title
;
Structure prediction by ZEFSAII (Michael W. Deem and Ramdas Pophale) SiO2 
 PCOD9334315
Probable space group: I 21 21 21
;
_chemical_formula_sum "Si O2"
_cell_formula_units_Z 48
_cell_length_a 8.299149
_cell_length_b 29.157263
_cell_length_c 9.111386
_cell_angle_alpha 90.000000
_cell_angle_beta 90.000000
_cell_angle_gamma 90.000000
_cell_volume 2204.777467
_symmetry_space_group_name_H-M "I 21 21 21"
_symmetry_group_IT_number 24
_symmetry_cell_setting 'orthorhombic'
loop_
_space_group_symop_operation_xyz
x,y,z
-x,1/2-y,z
x,-y,1/2-z
1/2-x,y,-z
1/2+x,1/2+y,1/2+z
1/2-x,-y,1/2+z
1/2+x,1/2-y,-z
-x,1/2+y,1/2-z
loop_
_atom_site_type_symbol
_atom_site_label
_atom_site_fract_x
_atom_site_fract_y
_atom_site_fract_z
Si Si1 0.250000 0.578583 0.000000
Si Si2 0.250000 0.937831 0.500000
Si Si3 0.470370 0.982440 0.098427
Si Si4 0.244012 0.100309 0.700948
Si Si5 0.000000 0.250000 0.191806
Si Si6 0.600389 0.850074 0.210443
Si Si7 0.579151 0.318996 0.555066
Si Si8 0.250000 0.696519 0.500000
O O1 0.094427 0.545706 0.000190
O O2 0.219456 0.611874 0.860246
O O3 0.306096 0.908072 0.636720
O O4 0.397143 0.971792 0.467265
O O5 0.322201 0.948487 0.142304
O O6 0.551237 0.000000 0.250000
O O7 0.371640 0.128730 0.603725
O O8 0.078534 0.128584 0.724925
O O9 0.037472 0.208121 0.300054
O O10 0.865805 0.230356 0.086725
O O11 0.663354 0.831742 0.366538
O O12 0.557276 0.816623 0.071092
O O13 0.750000 0.299582 0.500000
#
# Coordination Sequence:
#
# PCOD9334315 Si02
#       8
#     4   4   8   8   4   8   8   4
#     4  10  20  42  69  88 141 187 234 274 349 416
#     4  10  20  37  66  94 147 173 234 290 349 400
#     4   9  20  39  58 104 136 179 229 293 337 407
#     4   9  21  40  68  97 134 183 237 282 345 419
#     4  12  30  44  76 106 146 176 230 296 372 426
#     4  10  23  45  70  96 137 180 236 282 340 433
#     4  10  24  44  76 102 132 186 238 284 351 442
#     4  12  30  47  67 110 146 176 228 300 368 420
#
# _framework density 21.770904000000002
#
# number of rings (size 3 to 8) (size 9 to 14) (size 15 to 20)
#    0.000    2.000    0.000    1.000   15.167    0.000 
#    3.000    5.833    0.000    0.000    0.000    0.000 
#    0.000    0.000    0.000    0.000    0.000    0.000 
#
# Total GULP energy -133861.276105 kJ/mol
# GULP energy per Si atom -5577.553171 kJ/mol
# Density = 2.172135 g / cm^3
# Si number density = 21.770904 Si / 1000 Ang^3
#
#
#
# Elastic Constant Matrix: (Units=GPa)
#
#
# Indices 1 2 3 4 5 6 
#
# 1 61.8425 15.8464 60.3337 0.0000 0.0000 -0.0001
# 2 15.8464 62.7277 53.2533 0.0000 0.0000 0.0000
# 3 60.3337 53.2533 170.0173 -0.0006 0.0005 0.0000
# 4 0.0000 0.0000 -0.0006 -3.9918 -0.0002 0.0001
# 5 0.0000 0.0000 0.0005 -0.0002 47.3761 -0.0001
# 6 -0.0001 0.0000 0.0000 0.0001 -0.0001 32.4693
#
#
#
# Elastic Compliance Matrix: (Units=1/GPa)
#
#
# Indices 1 2 3 4 5 6 
#
# 1 0.024857 0.001647 -0.009337 0.000002 0.000000 0.000000
# 2 0.001647 0.021826 -0.007421 0.000001 0.000000 0.000000
# 3 -0.009337 -0.007421 0.011520 -0.000002 0.000000 0.000000
# 4 0.000002 0.000001 -0.000002 -0.250511 -0.000001 0.000001
# 5 0.000000 0.000000 0.000000 -0.000001 0.021108 0.000000
# 6 0.000000 0.000000 0.000000 0.000001 0.000000 0.030798
#
#
# Mechanical properties :
#
#
# Convention : Reuss Voigt Hill
#
# Bulk Modulus (GPa) = 35.73815 61.49492 48.61653
# Shear Modulus (GPa) = -49.57652 26.18099 -11.69776
#
# Velocity S-wave (km/s) = -4.77717 3.47157 -2.32051
# Velocity P-wave (km/s) = 3.73862 6.66159 3.89868
#
# Compressibility (1/GPa) = 0.02798130
#
# Stress axis : x y z
#
# Youngs Moduli (GPa) = 40.22973 45.81724 86.80897
#
# Poissons Ratio (x) = -0.07547 0.81053
# Poissons Ratio (y) = -0.06627 0.64420
# Poissons Ratio (z) = 0.37562 0.34000
#
# Static dielectric constant tensor:
#      x y z
#    x 1.808050 0.000000 0.000000 
#    y 0.000000 1.839120 0.000000 
#    z 0.000000 0.000000 1.818170 
# 
# From -- ./inp_files/9847.got.cif
#   From: 2010.05.17/outbox.cif.g08.bks.cpg/sg24_5_cif.got.tgz:9847.got - 2010.06.04 00:33:39.
