data_PCOD9334347
_publ_section_title
;
Structure prediction by ZEFSAII (Michael W. Deem and Ramdas Pophale) SiO2 
 PCOD9334347
Probable space group: I 21 21 21
;
_chemical_formula_sum "Si O2"
_cell_formula_units_Z 48
_cell_length_a 7.507653
_cell_length_b 28.540167
_cell_length_c 11.319631
_cell_angle_alpha 90.000000
_cell_angle_beta 90.000000
_cell_angle_gamma 90.000000
_cell_volume 2425.453603
_symmetry_space_group_name_H-M "I 21 21 21"
_symmetry_group_IT_number 24
_symmetry_cell_setting 'orthorhombic'
loop_
_space_group_symop_operation_xyz
x,y,z
-x,1/2-y,z
x,-y,1/2-z
1/2-x,y,-z
1/2+x,1/2+y,1/2+z
1/2-x,-y,1/2+z
1/2+x,1/2-y,-z
-x,1/2+y,1/2-z
loop_
_atom_site_type_symbol
_atom_site_label
_atom_site_fract_x
_atom_site_fract_y
_atom_site_fract_z
Si Si1 0.047924 0.060333 0.008964
Si Si2 0.946754 0.385262 0.792466
Si Si3 0.632992 0.015992 0.615547
Si Si4 0.545311 0.362076 0.816827
Si Si5 0.227749 0.376740 0.372211
Si Si6 0.540852 0.803261 0.473343
O O1 0.994708 0.070082 0.874042
O O2 0.250000 0.077873 0.000000
O O3 0.959666 0.096303 0.101594
O O4 0.045498 0.010444 0.073348
O O5 0.734818 0.381127 0.768642
O O6 0.077073 0.384467 0.682040
O O7 0.991124 0.339980 0.872076
O O8 0.750000 0.999707 0.500000
O O9 0.638746 0.071714 0.613661
O O10 0.675940 0.000000 0.750000
O O11 0.403852 0.350372 0.716284
O O12 0.564444 0.319492 0.908536
O O13 0.250000 0.354562 0.500000
O O14 0.500000 0.750000 0.442136
O O15 0.750000 0.807961 0.500000
#
# Coordination Sequence:
#
# PCOD9334347 Si02
#       6
#     8   8   8   8   8   8
#     4   9  19  35  56  82 113 153 199 257 324 363
#     4  10  21  39  61  86 121 162 198 254 322 368
#     4  11  21  35  54  80 112 152 212 259 304 362
#     4  10  20  38  60  86 123 157 196 249 318 374
#     4  11  23  38  56  83 115 169 211 246 302 370
#     4  11  20  35  65 104 127 144 190 253 316 380
#
# _framework density 19.790113000000002
#
# number of rings (size 3 to 8) (size 9 to 14) (size 15 to 20)
#    0.000    1.667    3.333    3.500    0.000    0.667 
#    6.000    0.833    0.000    1.000    0.000    0.000 
#    0.000    0.000    0.000    0.000    0.000    0.000 
#
# Total GULP energy -133669.529773 kJ/mol
# GULP energy per Si atom -5569.563741 kJ/mol
# Density = 1.974507 g / cm^3
# Si number density = 19.790113 Si / 1000 Ang^3
#
#
#
# Elastic Constant Matrix: (Units=GPa)
#
#
# Indices 1 2 3 4 5 6 
#
# 1 64.2803 -17.6440 19.8545 0.0000 0.0000 0.0000
# 2 -17.6440 38.4408 -11.7477 -0.0001 0.0000 0.0000
# 3 19.8545 -11.7477 109.4722 -0.0001 0.0000 0.0000
# 4 0.0000 -0.0001 -0.0001 12.9394 0.0000 0.0000
# 5 0.0000 0.0000 0.0000 0.0000 14.7012 0.0000
# 6 0.0000 0.0000 0.0000 0.0000 0.0000 20.7790
#
#
#
# Elastic Compliance Matrix: (Units=1/GPa)
#
#
# Indices 1 2 3 4 5 6 
#
# 1 0.018448 0.007697 -0.002520 0.000000 0.000000 0.000000
# 2 0.007697 0.030108 0.001835 0.000000 0.000000 0.000000
# 3 -0.002520 0.001835 0.009789 0.000000 0.000000 0.000000
# 4 0.000000 0.000000 0.000000 0.077283 0.000000 0.000000
# 5 0.000000 0.000000 0.000000 0.000000 0.068022 0.000000
# 6 0.000000 0.000000 0.000000 0.000000 0.000000 0.048125
#
#
# Mechanical properties :
#
#
# Convention : Reuss Voigt Hill
#
# Bulk Modulus (GPa) = 13.81799 21.45765 17.63782
# Shear Modulus (GPa) = 19.09321 24.46595 21.77958
#
# Velocity S-wave (km/s) = 3.10947 3.51988 3.32102
# Velocity P-wave (km/s) = 4.45973 5.23312 4.86183
#
# Compressibility (1/GPa) = 0.07236945
#
# Stress axis : x y z
#
# Youngs Moduli (GPa) = 54.20640 33.21397 102.15906
#
# Poissons Ratio (x) = -0.25566 0.25742
# Poissons Ratio (y) = -0.41725 -0.18745
# Poissons Ratio (z) = 0.13659 -0.06094
#
# Static dielectric constant tensor:
#      x y z
#    x 1.785580 0.000000 0.000000 
#    y 0.000000 1.677760 0.000000 
#    z 0.000000 0.000000 1.758030 
# 
# From -- ./inp_files/18693.got.cif
#   From: 2010.05.17/outbox.cif.g08.bks.cpg/sg24_10_cif.got.tgz:18693.got - 2010.06.04 00:33:39.
