data_PCOD9334353
_publ_section_title
;
Structure prediction by ZEFSAII (Michael W. Deem and Ramdas Pophale) SiO2 
 PCOD9334353
Probable space group: I 21 21 21
;
_chemical_formula_sum "Si O2"
_cell_formula_units_Z 36
_cell_length_a 8.190230
_cell_length_b 9.659735
_cell_length_c 19.801688
_cell_angle_alpha 90.000000
_cell_angle_beta 90.000000
_cell_angle_gamma 90.000000
_cell_volume 1566.619484
_symmetry_space_group_name_H-M "I 21 21 21"
_symmetry_group_IT_number 24
_symmetry_cell_setting 'orthorhombic'
loop_
_space_group_symop_operation_xyz
x,y,z
-x,1/2-y,z
x,-y,1/2-z
1/2-x,y,-z
1/2+x,1/2+y,1/2+z
1/2-x,-y,1/2+z
1/2+x,1/2-y,-z
-x,1/2+y,1/2-z
loop_
_atom_site_type_symbol
_atom_site_label
_atom_site_fract_x
_atom_site_fract_y
_atom_site_fract_z
Si Si1 0.265801 0.707275 0.424616
Si Si2 0.761541 0.664270 0.078311
Si Si3 0.186357 0.500000 0.750000
Si Si4 0.552612 0.439850 0.134178
Si Si5 0.887559 0.060991 0.377092
O O1 0.250000 0.761526 0.500000
O O2 0.428514 0.611425 0.423458
O O3 0.298309 0.832738 0.373169
O O4 0.130981 0.597470 0.401174
O O5 0.616067 0.592974 0.119849
O O6 0.777496 0.829705 0.081255
O O7 0.927972 0.608307 0.112097
O O8 0.750000 0.621848 0.000000
O O9 0.308930 0.573631 0.802416
O O10 0.058286 0.423318 0.799504
#
# Coordination Sequence:
#
# PCOD9334353 Si02
#       5
#     8   8   4   8   8
#     4  10  20  38  60  94 128 163 209 262 321 367
#     4  11  23  42  67  99 124 163 215 266 327 371
#     4  10  24  46  62  94 130 172 220 248 320 380
#     4  10  23  38  65  92 126 171 209 260 308 385
#     4  10  24  40  64  92 131 168 204 268 312 377
#
# _framework density 22.979416000000001
#
# number of rings (size 3 to 8) (size 9 to 14) (size 15 to 20)
#    0.000    1.778    0.000    2.667    0.000   19.556 
#    0.000    6.667    0.000    0.000    0.000    0.000 
#    0.000    0.000    0.000    0.000    0.000    0.000 
#
# Total GULP energy -100404.259910 kJ/mol
# GULP energy per Si atom -5578.014439 kJ/mol
# Density = 2.292711 g / cm^3
# Si number density = 22.979416 Si / 1000 Ang^3
#
#
#
# Elastic Constant Matrix: (Units=GPa)
#
#
# Indices 1 2 3 4 5 6 
#
# 1 81.6916 25.3823 45.8485 0.0000 0.0000 0.0000
# 2 25.3823 65.5841 23.0691 0.0000 0.0000 0.0000
# 3 45.8485 23.0691 139.5348 0.0000 0.0000 0.0000
# 4 0.0000 0.0000 0.0000 17.5811 0.0000 0.0000
# 5 0.0000 0.0000 0.0000 0.0000 37.1075 0.0000
# 6 0.0000 0.0000 0.0000 0.0000 0.0000 45.8978
#
#
#
# Elastic Compliance Matrix: (Units=1/GPa)
#
#
# Indices 1 2 3 4 5 6 
#
# 1 0.016261 -0.004687 -0.004568 0.000000 0.000000 0.000000
# 2 -0.004687 0.017540 -0.001360 0.000000 0.000000 0.000000
# 3 -0.004568 -0.001360 0.008893 0.000000 0.000000 0.000000
# 4 0.000000 0.000000 0.000000 0.056879 0.000000 0.000000
# 5 0.000000 0.000000 0.000000 0.000000 0.026949 0.000000
# 6 0.000000 0.000000 0.000000 0.000000 0.000000 0.021788
#
#
# Mechanical properties :
#
#
# Convention : Reuss Voigt Hill
#
# Bulk Modulus (GPa) = 46.58961 52.82337 49.70649
# Shear Modulus (GPa) = 28.29762 32.95132 30.62447
#
# Velocity S-wave (km/s) = 3.51299 3.79086 3.65457
# Velocity P-wave (km/s) = 6.06410 6.49600 6.28376
#
# Compressibility (1/GPa) = 0.02146401
#
# Stress axis : x y z
#
# Youngs Moduli (GPa) = 61.49599 57.01343 112.45350
#
# Poissons Ratio (x) = 0.26719 0.51372
# Poissons Ratio (y) = 0.28820 0.15293
# Poissons Ratio (z) = 0.28093 0.07753
#
# Static dielectric constant tensor:
#      x y z
#    x 1.906920 0.000000 0.000000 
#    y 0.000000 1.934100 0.000000 
#    z 0.000000 0.000000 1.881830 
# 
# From -- ./inp_files/32505.got.cif
#   From: 2010.05.17/outbox.cif.g08.bks.cpg/sg24_17_cif.got.tgz:32505.got - 2010.06.04 00:33:39.
