data_PCOD9334851
_publ_section_title
;
Structure prediction by ZEFSAII (Michael W. Deem and Ramdas Pophale) SiO2 
 PCOD9334851
Probable space group: I 21 21 21
;
_chemical_formula_sum "Si O2"
_cell_formula_units_Z 40
_cell_length_a 9.989270
_cell_length_b 19.076265
_cell_length_c 9.019561
_cell_angle_alpha 90.000000
_cell_angle_beta 90.000000
_cell_angle_gamma 90.000000
_cell_volume 1718.749159
_symmetry_space_group_name_H-M "I 21 21 21"
_symmetry_group_IT_number 24
_symmetry_cell_setting 'orthorhombic'
loop_
_space_group_symop_operation_xyz
x,y,z
-x,1/2-y,z
x,-y,1/2-z
1/2-x,y,-z
1/2+x,1/2+y,1/2+z
1/2-x,-y,1/2+z
1/2+x,1/2-y,-z
-x,1/2+y,1/2-z
loop_
_atom_site_type_symbol
_atom_site_label
_atom_site_fract_x
_atom_site_fract_y
_atom_site_fract_z
Si Si1 0.278694 0.821149 0.326662
Si Si2 0.840965 0.446097 0.642824
Si Si3 0.499399 0.174465 0.651587
Si Si4 0.736561 0.839058 0.330595
Si Si5 0.617292 0.937444 0.077670
O O1 0.250000 0.837269 0.500000
O O2 0.370430 0.876525 0.239602
O O3 0.141738 0.832376 0.232832
O O4 0.324566 0.739912 0.319824
O O5 0.765056 0.500000 0.750000
O O6 0.750000 0.432165 0.500000
O O7 0.983402 0.482137 0.602506
O O8 0.500000 0.250000 0.574109
O O9 0.612190 0.174035 0.776552
O O10 0.551593 0.118540 0.535277
O O11 0.750000 0.860967 0.500000
O O12 0.670664 0.896158 0.222405
O O13 0.750000 0.968328 0.000000
#
# Coordination Sequence:
#
# PCOD9334851 Si02
#       5
#     8   8   8   8   8
#     4  10  21  37  62  93 132 169 204 257 315 371
#     4  12  26  45  66  90 120 164 220 263 316 374
#     4   9  18  34  57  92 129 163 201 247 309 378
#     4   9  20  35  59  97 132 164 202 250 313 383
#     4  10  22  41  65  90 127 161 209 255 318 379
#
# _framework density 23.272736999999999
#
# number of rings (size 3 to 8) (size 9 to 14) (size 15 to 20)
#    0.000    2.000    2.000    0.600    5.600    0.800 
#    0.000    2.000    0.000    0.000    0.000    0.000 
#    0.000    0.000    0.000    0.000    0.000    0.000 
#
# Total GULP energy -111590.535930 kJ/mol
# GULP energy per Si atom -5579.526796 kJ/mol
# Density = 2.321977 g / cm^3
# Si number density = 23.272737 Si / 1000 Ang^3
#
#
#
# Elastic Constant Matrix: (Units=GPa)
#
#
# Indices 1 2 3 4 5 6 
#
# 1 97.6811 -2.1345 7.6377 0.0000 0.0000 0.0000
# 2 -2.1345 43.1491 34.1781 0.0001 0.0000 0.0000
# 3 7.6377 34.1781 137.9377 0.0004 0.0000 -0.0001
# 4 0.0000 0.0001 0.0004 27.5594 0.0000 0.0000
# 5 0.0000 0.0000 0.0000 0.0000 13.9495 0.0000
# 6 0.0000 0.0000 -0.0001 0.0000 0.0000 12.9812
#
#
#
# Elastic Compliance Matrix: (Units=1/GPa)
#
#
# Indices 1 2 3 4 5 6 
#
# 1 0.010332 0.001200 -0.000869 0.000000 0.000000 0.000000
# 2 0.001200 0.028974 -0.007246 0.000000 0.000000 0.000000
# 3 -0.000869 -0.007246 0.009093 0.000000 0.000000 0.000000
# 4 0.000000 0.000000 0.000000 0.036285 0.000000 0.000000
# 5 0.000000 0.000000 0.000000 0.000000 0.071687 0.000000
# 6 0.000000 0.000000 0.000000 0.000000 0.000000 0.077034
#
#
# Mechanical properties :
#
#
# Convention : Reuss Voigt Hill
#
# Bulk Modulus (GPa) = 28.92834 39.79228 34.36031
# Shear Modulus (GPa) = 19.32302 26.83713 23.08008
#
# Velocity S-wave (km/s) = 2.88459 3.39950 3.15258
# Velocity P-wave (km/s) = 4.85300 5.70475 5.29603
#
# Compressibility (1/GPa) = 0.03456817
#
# Stress axis : x y z
#
# Youngs Moduli (GPa) = 96.79058 34.51376 109.97369
#
# Poissons Ratio (x) = -0.04140 0.09560
# Poissons Ratio (y) = -0.11612 0.79682
# Poissons Ratio (z) = 0.08414 0.25007
#
# Static dielectric constant tensor:
#      x y z
#    x 1.928040 0.000000 0.000000 
#    y 0.000000 1.931180 0.000000 
#    z 0.000000 0.000000 1.898080 
# 
# From -- ./inp_files/9249.got.cif
#   From: 2010.05.17/outbox.cif.g08.bks.cpg/sg24_5_cif.got.tgz:9249.got - 2010.06.04 00:33:39.
