data_PCOD9334548
_publ_section_title
;
Structure prediction by ZEFSAII (Michael W. Deem and Ramdas Pophale) SiO2 
 PCOD9334548
Probable space group: I 21 21 21
;
_chemical_formula_sum "Si O2"
_cell_formula_units_Z 36
_cell_length_a 8.271856
_cell_length_b 19.196941
_cell_length_c 9.345629
_cell_angle_alpha 90.000000
_cell_angle_beta 90.000000
_cell_angle_gamma 90.000000
_cell_volume 1484.032910
_symmetry_space_group_name_H-M "I 21 21 21"
_symmetry_group_IT_number 24
_symmetry_cell_setting 'orthorhombic'
loop_
_space_group_symop_operation_xyz
x,y,z
-x,1/2-y,z
x,-y,1/2-z
1/2-x,y,-z
1/2+x,1/2+y,1/2+z
1/2-x,-y,1/2+z
1/2+x,1/2-y,-z
-x,1/2+y,1/2-z
loop_
_atom_site_type_symbol
_atom_site_label
_atom_site_fract_x
_atom_site_fract_y
_atom_site_fract_z
Si Si1 0.516684 0.399595 0.921727
Si Si2 0.333407 0.418879 0.210047
Si Si3 0.569113 0.372683 0.404232
Si Si4 0.244825 0.000000 0.250000
Si Si5 0.627597 0.689636 0.808569
O O1 0.342415 0.399863 0.845544
O O2 0.628877 0.461643 0.864176
O O3 0.607354 0.333077 0.855734
O O4 0.467442 0.405115 0.086293
O O5 0.327282 0.500000 0.250000
O O6 0.389708 0.373667 0.344137
O O7 0.647716 0.442709 0.334701
O O8 0.573774 0.369480 0.575115
O O9 0.682218 0.309216 0.347547
O O10 0.500000 0.750000 0.836517
#
# Coordination Sequence:
#
# PCOD9334548 Si02
#       5
#     8   8   8   4   8
#     4  10  24  38  63  93 133 176 209 287 337 400
#     4  11  23  39  59  99 134 166 214 269 353 407
#     4  10  23  38  70  96 129 177 220 287 331 402
#     4  10  20  40  62 100 132 166 222 278 358 398
#     4  10  24  45  63  95 132 183 234 269 327 401
#
# _framework density 24.258220999999999
#
# number of rings (size 3 to 8) (size 9 to 14) (size 15 to 20)
#    0.000    1.778    2.222    0.000    9.333    8.000 
#    0.000    5.556    0.000    0.000    0.000    0.000 
#    0.000    0.000    0.000    0.000    0.000    0.000 
#
# Total GULP energy -100546.493762 kJ/mol
# GULP energy per Si atom -5585.916320 kJ/mol
# Density = 2.420301 g / cm^3
# Si number density = 24.258221 Si / 1000 Ang^3
#
#
#
# Elastic Constant Matrix: (Units=GPa)
#
#
# Indices 1 2 3 4 5 6 
#
# 1 65.4784 5.7889 11.4038 0.0000 0.0000 -0.0001
# 2 5.7889 54.7109 -6.8257 0.0000 0.0000 -0.0001
# 3 11.4038 -6.8257 84.4066 -0.0003 0.0001 0.0003
# 4 0.0000 0.0000 -0.0003 16.5311 0.0001 0.0001
# 5 0.0000 0.0000 0.0001 0.0001 56.1501 -0.0001
# 6 -0.0001 -0.0001 0.0003 0.0001 -0.0001 3.0018
#
#
#
# Elastic Compliance Matrix: (Units=1/GPa)
#
#
# Indices 1 2 3 4 5 6 
#
# 1 0.015846 -0.001964 -0.002300 0.000000 0.000000 0.000001
# 2 -0.001964 0.018708 0.001778 0.000000 0.000000 0.000000
# 3 -0.002300 0.001778 0.012302 0.000000 0.000000 -0.000001
# 4 0.000000 0.000000 0.000000 0.060492 0.000000 -0.000003
# 5 0.000000 0.000000 0.000000 0.000000 0.017809 0.000000
# 6 0.000001 0.000000 -0.000001 -0.000003 0.000000 0.333128
#
#
# Mechanical properties :
#
#
# Convention : Reuss Voigt Hill
#
# Bulk Modulus (GPa) = 23.87470 25.03665 24.45567
# Shear Modulus (GPa) = 10.47740 28.08521 19.28130
#
# Velocity S-wave (km/s) = 2.08050 3.40628 2.82234
# Velocity P-wave (km/s) = 3.95406 5.08071 4.55237
#
# Compressibility (1/GPa) = 0.04188535
#
# Stress axis : x y z
#
# Youngs Moduli (GPa) = 63.10612 53.45449 81.28817
#
# Poissons Ratio (x) = 0.10496 0.18694
# Poissons Ratio (y) = 0.12392 -0.14454
# Poissons Ratio (z) = 0.14513 -0.09505
#
# Static dielectric constant tensor:
#      x y z
#    x 1.978990 0.000000 0.000000 
#    y 0.000000 1.972570 0.000000 
#    z 0.000000 0.000000 2.173830 
# 
# From -- ./inp_files/9084.got.cif
#   From: 2010.05.17/outbox.cif.g08.bks.cpg/sg24_5_cif.got.tgz:9084.got - 2010.06.04 00:33:39.
