data_PCOD9334119
_publ_section_title
;
Structure prediction by ZEFSAII (Michael W. Deem and Ramdas Pophale) SiO2 
 PCOD9334119
Probable space group: I 21 21 21
;
_chemical_formula_sum "Si O2"
_cell_formula_units_Z 36
_cell_length_a 9.597106
_cell_length_b 6.588546
_cell_length_c 25.064236
_cell_angle_alpha 90.000000
_cell_angle_beta 90.000000
_cell_angle_gamma 90.000000
_cell_volume 1584.836064
_symmetry_space_group_name_H-M "I 21 21 21"
_symmetry_group_IT_number 24
_symmetry_cell_setting 'orthorhombic'
loop_
_space_group_symop_operation_xyz
x,y,z
-x,1/2-y,z
x,-y,1/2-z
1/2-x,y,-z
1/2+x,1/2+y,1/2+z
1/2-x,-y,1/2+z
1/2+x,1/2-y,-z
-x,1/2+y,1/2-z
loop_
_atom_site_type_symbol
_atom_site_label
_atom_site_fract_x
_atom_site_fract_y
_atom_site_fract_z
Si Si1 0.750000 0.478101 0.000000
Si Si2 0.650810 0.249646 0.095274
Si Si3 0.175752 0.600964 0.127010
Si Si4 0.000000 0.750000 0.027943
Si Si5 0.000000 0.250000 0.182280
Si Si6 0.760997 0.504367 0.805570
O O1 0.759394 0.338088 0.052458
O O2 0.893235 0.607893 0.995264
O O3 0.500000 0.250000 0.069853
O O4 0.658431 0.393927 0.146619
O O5 0.686403 0.025128 0.114576
O O6 0.110514 0.658561 0.070255
O O7 0.068181 0.435970 0.150336
O O8 0.205434 0.786273 0.167526
O O9 0.868739 0.354832 0.209777
O O10 0.844224 0.500000 0.750000
#
# Coordination Sequence:
#
# PCOD9334119 Si02
#       6
#     4   8   8   4   4   8
#     4  12  28  44  76 112 146 204 254 310 380 442
#     4  11  28  48  70 107 147 195 253 310 368 454
#     4  11  22  46  70 102 150 187 243 306 369 435
#     4  12  24  45  74 106 146 198 245 310 360 442
#     4  10  20  35  68 106 142 180 233 300 366 438
#     4  11  24  44  71 107 143 195 245 306 376 445
#
# _framework density 22.715285000000002
#
# number of rings (size 3 to 8) (size 9 to 14) (size 15 to 20)
#    0.000    0.889    4.444    1.333    9.333    3.556 
#    4.000    0.000    0.000    0.000    0.000    0.000 
#    0.000    0.000    0.000    0.000    0.000    0.000 
#
# Total GULP energy -100405.765884 kJ/mol
# GULP energy per Si atom -5578.098105 kJ/mol
# Density = 2.266358 g / cm^3
# Si number density = 22.715285 Si / 1000 Ang^3
#
#
#
# Elastic Constant Matrix: (Units=GPa)
#
#
# Indices 1 2 3 4 5 6 
#
# 1 61.2574 22.9406 -4.0570 0.0000 0.0000 0.0000
# 2 22.9406 126.3492 39.5745 0.0000 0.0000 0.0000
# 3 -4.0570 39.5745 97.6797 0.0000 0.0000 0.0000
# 4 0.0000 0.0000 0.0000 19.4412 0.0000 0.0000
# 5 0.0000 0.0000 0.0000 0.0000 28.1016 0.0000
# 6 0.0000 0.0000 0.0000 0.0000 0.0000 17.5486
#
#
#
# Elastic Compliance Matrix: (Units=1/GPa)
#
#
# Indices 1 2 3 4 5 6 
#
# 1 0.017982 -0.004007 0.002370 0.000000 0.000000 0.000000
# 2 -0.004007 0.009958 -0.004201 0.000000 0.000000 0.000000
# 3 0.002370 -0.004201 0.012038 0.000000 0.000000 0.000000
# 4 0.000000 0.000000 0.000000 0.051437 0.000000 0.000000
# 5 0.000000 0.000000 0.000000 0.000000 0.035585 0.000000
# 6 0.000000 0.000000 0.000000 0.000000 0.000000 0.056985
#
#
# Mechanical properties :
#
#
# Convention : Reuss Voigt Hill
#
# Bulk Modulus (GPa) = 35.33248 44.68918 40.01083
# Shear Modulus (GPa) = 24.37896 28.14017 26.25957
#
# Velocity S-wave (km/s) = 3.27959 3.52351 3.40373
# Velocity P-wave (km/s) = 5.47076 6.02244 5.75322
#
# Compressibility (1/GPa) = 0.02830257
#
# Stress axis : x y z
#
# Youngs Moduli (GPa) = 55.61019 100.42221 83.07058
#
# Poissons Ratio (x) = 0.40243 -0.19692
# Poissons Ratio (y) = 0.22285 0.34897
# Poissons Ratio (z) = -0.13182 0.42186
#
# Static dielectric constant tensor:
#      x y z
#    x 1.984790 0.000000 0.000000 
#    y 0.000000 1.853230 0.000000 
#    z 0.000000 0.000000 1.880020 
# 
# From -- ./inp_files/35434.got.cif
#   From: 2010.05.17/outbox.cif.g08.bks.cpg/sg24_18_cif.got.tgz:35434.got - 2010.06.04 00:33:39.
