data_PCOD9334051
_publ_section_title
;
Structure prediction by ZEFSAII (Michael W. Deem and Ramdas Pophale) SiO2 
 PCOD9334051
Probable space group: I 21 21 21
;
_chemical_formula_sum "Si O2"
_cell_formula_units_Z 60
_cell_length_a 20.200223
_cell_length_b 5.240610
_cell_length_c 28.433562
_cell_angle_alpha 90.000000
_cell_angle_beta 90.000000
_cell_angle_gamma 90.000000
_cell_volume 3010.019258
_symmetry_space_group_name_H-M "I 21 21 21"
_symmetry_group_IT_number 24
_symmetry_cell_setting 'orthorhombic'
loop_
_space_group_symop_operation_xyz
x,y,z
-x,1/2-y,z
x,-y,1/2-z
1/2-x,y,-z
1/2+x,1/2+y,1/2+z
1/2-x,-y,1/2+z
1/2+x,1/2-y,-z
-x,1/2+y,1/2-z
loop_
_atom_site_type_symbol
_atom_site_label
_atom_site_fract_x
_atom_site_fract_y
_atom_site_fract_z
Si Si1 0.322486 0.164612 0.015653
Si Si2 0.731866 0.076634 0.841136
Si Si3 0.369822 0.417457 0.926189
Si Si4 0.067420 0.086664 0.387688
Si Si5 0.500000 0.750000 0.390240
Si Si6 0.635416 0.069749 0.109102
Si Si7 0.668329 0.432394 0.697212
Si Si8 0.935152 0.332518 0.540526
O O1 0.343486 0.382470 0.978919
O O2 0.250000 0.078315 0.000000
O O3 0.330789 0.242058 0.070307
O O4 0.380074 0.961648 0.009672
O O5 0.690580 0.109134 0.889533
O O6 0.806724 0.006223 0.855010
O O7 0.721879 0.349652 0.816562
O O8 0.699247 0.847815 0.811205
O O9 0.393694 0.702206 0.917626
O O10 0.423083 0.193540 0.912236
O O11 0.106286 0.050574 0.338338
O O12 0.000000 0.250000 0.379351
O O13 0.568137 0.831569 0.365583
O O14 0.527762 0.530896 0.424702
O O15 0.605314 0.854417 0.074813
O O16 0.647940 0.500000 0.750000
O O17 0.000000 0.250000 0.511114
#
# Coordination Sequence:
#
# PCOD9334051 Si02
#       8
#     8   8   8   8   4   8   8   8
#     4  11  22  34  53  80 118 162 218 255 302 347
#     4  10  21  37  63  86 122 153 192 248 310 363
#     4  10  22  38  53  84 119 161 204 258 294 351
#     4  10  22  42  60  84 120 163 208 247 311 371
#     4   8  18  36  52  76 116 140 204 240 296 338
#     4  10  20  35  55  82 117 157 206 250 296 357
#     4  10  22  41  65  93 122 149 194 256 314 380
#     4   9  20  36  52  76 114 158 204 263 292 351
#
# _framework density 19.933426999999998
#
# number of rings (size 3 to 8) (size 9 to 14) (size 15 to 20)
#    0.000    2.133    1.333    0.800    5.600    2.133 
#   12.000    4.000    0.000    0.000    0.000    1.867 
#    0.000    0.000    0.000    0.000    0.000    0.000 
#
# Total GULP energy -167011.048705 kJ/mol
# GULP energy per Si atom -5567.034957 kJ/mol
# Density = 1.988806 g / cm^3
# Si number density = 19.933427 Si / 1000 Ang^3
#
#
#
# Elastic Constant Matrix: (Units=GPa)
#
#
# Indices 1 2 3 4 5 6 
#
# 1 89.5358 -11.5864 -7.3848 0.0000 0.0000 0.0000
# 2 -11.5864 54.3521 -7.4493 0.0000 0.0000 0.0000
# 3 -7.3848 -7.4493 42.7825 0.0000 0.0000 0.0000
# 4 0.0000 0.0000 0.0000 18.4223 0.0000 0.0000
# 5 0.0000 0.0000 0.0000 0.0000 16.1181 0.0000
# 6 0.0000 0.0000 0.0000 0.0000 0.0000 19.9420
#
#
#
# Elastic Compliance Matrix: (Units=1/GPa)
#
#
# Indices 1 2 3 4 5 6 
#
# 1 0.011746 0.002850 0.002524 0.000000 0.000000 0.000000
# 2 0.002850 0.019540 0.003894 0.000000 0.000000 0.000000
# 3 0.002524 0.003894 0.024488 0.000000 0.000000 0.000000
# 4 0.000000 0.000000 0.000000 0.054282 0.000000 0.000000
# 5 0.000000 0.000000 0.000000 0.000000 0.062042 0.000000
# 6 0.000000 0.000000 0.000000 0.000000 0.000000 0.050145
#
#
# Mechanical properties :
#
#
# Convention : Reuss Voigt Hill
#
# Bulk Modulus (GPa) = 13.45744 14.86991 14.16368
# Shear Modulus (GPa) = 21.88405 25.10254 23.49329
#
# Velocity S-wave (km/s) = 3.31699 3.55254 3.43678
# Velocity P-wave (km/s) = 4.62987 4.92984 4.78221
#
# Compressibility (1/GPa) = 0.07430833
#
# Stress axis : x y z
#
# Youngs Moduli (GPa) = 85.13799 51.17763 40.83678
#
# Poissons Ratio (x) = -0.14584 -0.10306
# Poissons Ratio (y) = -0.24262 -0.15903
# Poissons Ratio (z) = -0.21486 -0.19930
#
# Static dielectric constant tensor:
#      x y z
#    x 1.780630 0.000000 0.000000 
#    y 0.000000 1.776870 0.000000 
#    z 0.000000 0.000000 1.687440 
# 
# From -- ./inp_files/37556.got.cif
#   From: 2010.05.17/outbox.cif.g08.bks.cpg/sg24_19_cif.got.tgz:37556.got - 2010.06.04 00:33:39.
