data_PCOD9334523
_publ_section_title
;
Structure prediction by ZEFSAII (Michael W. Deem and Ramdas Pophale) SiO2 
 PCOD9334523
Probable space group: I 21 21 21
;
_chemical_formula_sum "Si O2"
_cell_formula_units_Z 28
_cell_length_a 15.334266
_cell_length_b 5.516699
_cell_length_c 13.867037
_cell_angle_alpha 90.000000
_cell_angle_beta 90.000000
_cell_angle_gamma 90.000000
_cell_volume 1173.075476
_symmetry_space_group_name_H-M "I 21 21 21"
_symmetry_group_IT_number 24
_symmetry_cell_setting 'orthorhombic'
loop_
_space_group_symop_operation_xyz
x,y,z
-x,1/2-y,z
x,-y,1/2-z
1/2-x,y,-z
1/2+x,1/2+y,1/2+z
1/2-x,-y,1/2+z
1/2+x,1/2-y,-z
-x,1/2+y,1/2-z
loop_
_atom_site_type_symbol
_atom_site_label
_atom_site_fract_x
_atom_site_fract_y
_atom_site_fract_z
Si Si1 0.411505 0.867019 0.837423
Si Si2 0.343738 0.553546 0.006692
Si Si3 0.394510 0.751635 0.195067
Si Si4 0.500000 0.250000 0.978626
O O1 0.500000 0.750000 0.794246
O O2 0.363757 0.667360 0.901871
O O3 0.363272 0.000000 0.750000
O O4 0.447526 0.061386 0.913274
O O5 0.424934 0.385829 0.035594
O O6 0.250000 0.431567 0.000000
O O7 0.346903 0.751352 0.091213
O O8 0.500000 0.750000 0.182566
O O9 0.370237 0.500000 0.250000
O O10 0.372812 0.000000 0.250000
#
# Coordination Sequence:
#
# PCOD9334523 Si02
#       4
#     8   8   8   4
#     4  10  20  39  68  98 132 179 230 281 358 435
#     4  11  26  43  66 107 141 185 240 297 361 437
#     4  10  23  44  73 100 139 193 247 297 358 424
#     4  10  22  42  72  92 144 184 230 286 364 426
#
# _framework density 23.868880999999998
#
# number of rings (size 3 to 8) (size 9 to 14) (size 15 to 20)
#    0.000    1.714    1.429    2.571   10.000    2.286 
#    5.143    0.000    0.000    0.000    0.000    0.000 
#    0.000    0.000    0.000    0.000    0.000    0.000 
#
# Total GULP energy -78262.685727 kJ/mol
# GULP energy per Si atom -5590.191838 kJ/mol
# Density = 2.381455 g / cm^3
# Si number density = 23.868881 Si / 1000 Ang^3
#
#
#
# Elastic Constant Matrix: (Units=GPa)
#
#
# Indices 1 2 3 4 5 6 
#
# 1 102.4671 30.9247 32.8213 0.0000 0.0000 0.0000
# 2 30.9247 92.9972 17.3433 0.0000 0.0000 0.0000
# 3 32.8213 17.3433 91.8675 0.0000 0.0000 0.0000
# 4 0.0000 0.0000 0.0000 40.1985 0.0000 0.0000
# 5 0.0000 0.0000 0.0000 0.0000 5.1029 0.0000
# 6 0.0000 0.0000 0.0000 0.0000 0.0000 11.2030
#
#
#
# Elastic Compliance Matrix: (Units=1/GPa)
#
#
# Indices 1 2 3 4 5 6 
#
# 1 0.011915 -0.003284 -0.003637 0.000000 0.000000 0.000000
# 2 -0.003284 0.012051 -0.001102 0.000000 0.000000 0.000000
# 3 -0.003637 -0.001102 0.012393 0.000000 0.000000 0.000000
# 4 0.000000 0.000000 0.000000 0.024877 0.000000 0.000000
# 5 0.000000 0.000000 0.000000 0.000000 0.195967 0.000000
# 6 0.000000 0.000000 0.000000 0.000000 0.000000 0.089262
#
#
# Mechanical properties :
#
#
# Convention : Reuss Voigt Hill
#
# Bulk Modulus (GPa) = 49.22934 49.94559 49.58746
# Shear Modulus (GPa) = 13.53987 25.05039 19.29513
#
# Velocity S-wave (km/s) = 2.38431 3.24311 2.84629
# Velocity P-wave (km/s) = 5.31503 5.91558 5.62333
#
# Compressibility (1/GPa) = 0.02031309
#
# Stress axis : x y z
#
# Youngs Moduli (GPa) = 83.92568 82.98406 80.69327
#
# Poissons Ratio (x) = 0.27252 0.29348
# Poissons Ratio (y) = 0.27561 0.08890
# Poissons Ratio (z) = 0.30524 0.09142
#
# Static dielectric constant tensor:
#      x y z
#    x 1.914210 0.000000 0.000000 
#    y 0.000000 1.993630 0.000000 
#    z 0.000000 0.000000 1.916860 
# 
# From -- ./inp_files/4251.got.cif
#   From: 2010.05.17/outbox.cif.g08.bks.cpg/sg24_3_cif.got.tgz:4251.got - 2010.06.04 00:33:39.
