data_PCOD9334320
_publ_section_title
;
Structure prediction by ZEFSAII (Michael W. Deem and Ramdas Pophale) SiO2 
 PCOD9334320
Probable space group: I 21 21 21
;
_chemical_formula_sum "Si O2"
_cell_formula_units_Z 32
_cell_length_a 13.154390
_cell_length_b 8.098994
_cell_length_c 13.118325
_cell_angle_alpha 90.000000
_cell_angle_beta 90.000000
_cell_angle_gamma 90.000000
_cell_volume 1397.591263
_symmetry_space_group_name_H-M "I 21 21 21"
_symmetry_group_IT_number 24
_symmetry_cell_setting 'orthorhombic'
loop_
_space_group_symop_operation_xyz
x,y,z
-x,1/2-y,z
x,-y,1/2-z
1/2-x,y,-z
1/2+x,1/2+y,1/2+z
1/2-x,-y,1/2+z
1/2+x,1/2-y,-z
-x,1/2+y,1/2-z
loop_
_atom_site_type_symbol
_atom_site_label
_atom_site_fract_x
_atom_site_fract_y
_atom_site_fract_z
Si Si1 0.047159 0.434924 0.560796
Si Si2 0.420692 0.394509 0.659364
Si Si3 0.199967 0.271289 0.705629
Si Si4 0.169276 0.921607 0.591645
O O1 0.097830 0.472552 0.451760
O O2 0.127642 0.407294 0.651748
O O3 0.000000 0.250000 0.559909
O O4 0.950387 0.555497 0.567241
O O5 0.500000 0.250000 0.642052
O O6 0.467913 0.500000 0.750000
O O7 0.314444 0.331428 0.700886
O O8 0.196628 0.101296 0.639647
O O9 0.174402 0.215042 0.819910
O O10 0.250000 0.891691 0.500000
#
# Coordination Sequence:
#
# PCOD9334320 Si02
#       4
#     8   8   8   8
#     4   9  19  40  67  95 131 180 228 274 347 420
#     4  11  24  40  70  98 137 179 236 288 351 417
#     4  10  21  40  67  97 137 183 231 281 358 419
#     4  10  20  37  72 100 130 182 234 290 336 423
#
# _framework density 22.896538
#
# number of rings (size 3 to 8) (size 9 to 14) (size 15 to 20)
#    0.000    2.000    0.000    5.250    7.000    0.000 
#   13.500    2.500   11.000    0.000    0.000    0.000 
#    0.000    0.000    0.000    0.000    0.000    0.000 
#
# Total GULP energy -89330.668464 kJ/mol
# GULP energy per Si atom -5583.166779 kJ/mol
# Density = 2.284442 g / cm^3
# Si number density = 22.896538 Si / 1000 Ang^3
#
#
#
# Elastic Constant Matrix: (Units=GPa)
#
#
# Indices 1 2 3 4 5 6 
#
# 1 111.2936 38.1829 46.7579 0.0000 0.0000 0.0000
# 2 38.1829 56.0900 53.2094 0.0000 0.0000 0.0000
# 3 46.7579 53.2094 174.0061 0.0000 0.0000 0.0000
# 4 0.0000 0.0000 0.0000 15.6908 0.0000 0.0000
# 5 0.0000 0.0000 0.0000 0.0000 46.8912 0.0000
# 6 0.0000 0.0000 0.0000 0.0000 0.0000 23.6464
#
#
#
# Elastic Compliance Matrix: (Units=1/GPa)
#
#
# Indices 1 2 3 4 5 6 
#
# 1 0.011848 -0.007107 -0.001011 0.000000 0.000000 0.000000
# 2 -0.007107 0.029377 -0.007073 0.000000 0.000000 0.000000
# 3 -0.001011 -0.007073 0.008181 0.000000 0.000000 0.000000
# 4 0.000000 0.000000 0.000000 0.063732 0.000000 0.000000
# 5 0.000000 0.000000 0.000000 0.000000 0.021326 0.000000
# 6 0.000000 0.000000 0.000000 0.000000 0.000000 0.042290
#
#
# Mechanical properties :
#
#
# Convention : Reuss Voigt Hill
#
# Bulk Modulus (GPa) = 52.56367 68.63223 60.59795
# Shear Modulus (GPa) = 23.42181 30.79497 27.10839
#
# Velocity S-wave (km/s) = 3.20181 3.67135 3.44459
# Velocity P-wave (km/s) = 6.05605 6.92905 6.50721
#
# Compressibility (1/GPa) = 0.01902455
#
# Stress axis : x y z
#
# Youngs Moduli (GPa) = 84.40224 34.04079 122.22790
#
# Poissons Ratio (x) = 0.24192 0.12352
# Poissons Ratio (y) = 0.59983 0.86456
# Poissons Ratio (z) = 0.08529 0.24078
#
# Static dielectric constant tensor:
#      x y z
#    x 1.821900 0.000000 0.000000 
#    y 0.000000 1.810240 0.000000 
#    z 0.000000 0.000000 2.081460 
# 
# From -- ./inp_files/10277.got.cif
#   From: 2010.05.17/outbox.cif.g08.bks.cpg/sg24_6_cif.got.tgz:10277.got - 2010.06.04 00:33:39.
