data_PCOD9334821
_publ_section_title
;
Structure prediction by ZEFSAII (Michael W. Deem and Ramdas Pophale) SiO2 
 PCOD9334821
Probable space group: I 21 21 21
;
_chemical_formula_sum "Si O2"
_cell_formula_units_Z 32
_cell_length_a 25.852775
_cell_length_b 5.237131
_cell_length_c 9.523746
_cell_angle_alpha 90.000000
_cell_angle_beta 90.000000
_cell_angle_gamma 90.000000
_cell_volume 1289.461584
_symmetry_space_group_name_H-M "I 21 21 21"
_symmetry_group_IT_number 24
_symmetry_cell_setting 'orthorhombic'
loop_
_space_group_symop_operation_xyz
x,y,z
-x,1/2-y,z
x,-y,1/2-z
1/2-x,y,-z
1/2+x,1/2+y,1/2+z
1/2-x,-y,1/2+z
1/2+x,1/2-y,-z
-x,1/2+y,1/2-z
loop_
_atom_site_type_symbol
_atom_site_label
_atom_site_fract_x
_atom_site_fract_y
_atom_site_fract_z
Si Si1 0.937570 0.748336 0.159679
Si Si2 0.201743 0.056705 0.400260
Si Si3 0.895809 0.765548 0.839347
Si Si4 0.187921 0.542010 0.497099
O O1 0.920324 0.500000 0.250000
O O2 0.000000 0.750000 0.155846
O O3 0.923630 0.000000 0.250000
O O4 0.921031 0.739938 0.994453
O O5 0.250000 0.099290 0.500000
O O6 0.176379 0.331271 0.379572
O O7 0.224002 0.000000 0.250000
O O8 0.168603 0.826240 0.465284
O O9 0.894610 0.500000 0.750000
O O10 0.838892 0.886301 0.877074
O O11 0.920822 0.000000 0.750000
O O12 0.250000 0.585467 0.500000
#
# Coordination Sequence:
#
# PCOD9334821 Si02
#       4
#     8   8   8   8
#     4  10  23  46  74 104 140 180 219 266 336 418
#     4  10  21  37  58  84 115 163 220 274 331 391
#     4  12  26  44  69 103 137 174 228 288 338 392
#     4  10  23  39  58  85 127 173 217 270 331 389
#
# _framework density 24.816559000000002
#
# number of rings (size 3 to 8) (size 9 to 14) (size 15 to 20)
#    0.000    1.500    0.000    3.750    0.000   16.000 
#    0.000    0.000    0.000    0.000    0.000    0.000 
#    0.000    0.000    0.000    0.000    0.000    0.000 
#
# Total GULP energy -89138.375072 kJ/mol
# GULP energy per Si atom -5571.148442 kJ/mol
# Density = 2.476008 g / cm^3
# Si number density = 24.816559 Si / 1000 Ang^3
#
#
#
# Elastic Constant Matrix: (Units=GPa)
#
#
# Indices 1 2 3 4 5 6 
#
# 1 79.0071 44.1191 50.1974 0.0000 0.0000 0.0000
# 2 44.1191 272.3958 103.7857 0.0000 0.0000 0.0000
# 3 50.1974 103.7857 219.4284 0.0000 0.0000 0.0000
# 4 0.0000 0.0000 0.0000 66.6903 0.0000 0.0000
# 5 0.0000 0.0000 0.0000 0.0000 33.6814 0.0000
# 6 0.0000 0.0000 0.0000 0.0000 0.0000 35.3419
#
#
#
# Elastic Compliance Matrix: (Units=1/GPa)
#
#
# Indices 1 2 3 4 5 6 
#
# 1 0.015229 -0.001390 -0.002827 0.000000 0.000000 0.000000
# 2 -0.001390 0.004605 -0.001860 0.000000 0.000000 0.000000
# 3 -0.002827 -0.001860 0.006084 0.000000 0.000000 0.000000
# 4 0.000000 0.000000 0.000000 0.014995 0.000000 0.000000
# 5 0.000000 0.000000 0.000000 0.000000 0.029690 0.000000
# 6 0.000000 0.000000 0.000000 0.000000 0.000000 0.028295
#
#
# Mechanical properties :
#
#
# Convention : Reuss Voigt Hill
#
# Bulk Modulus (GPa) = 72.64847 107.44841 90.04844
# Shear Modulus (GPa) = 43.23827 51.99134 47.61480
#
# Velocity S-wave (km/s) = 4.17863 4.58211 4.38502
# Velocity P-wave (km/s) = 7.25390 8.44899 7.87415
#
# Compressibility (1/GPa) = 0.01376492
#
# Stress axis : x y z
#
# Youngs Moduli (GPa) = 65.66437 217.15801 164.37277
#
# Poissons Ratio (x) = 0.30177 0.46461
# Poissons Ratio (y) = 0.09125 0.30576
# Poissons Ratio (z) = 0.18560 0.40395
#
# Static dielectric constant tensor:
#      x y z
#    x 0.845410 0.000000 0.000000 
#    y 0.000000 2.127870 0.000000 
#    z 0.000000 0.000000 1.873530 
# 
# From -- ./inp_files/16627.got.cif
#   From: 2010.05.17/outbox.cif.g08.bks.cpg/sg24_9_cif.got.tgz:16627.got - 2010.06.04 00:33:39.
