data_PCOD9334721
_publ_section_title
;
Structure prediction by ZEFSAII (Michael W. Deem and Ramdas Pophale) SiO2 
 PCOD9334721
Probable space group: I 21 21 21
;
_chemical_formula_sum "Si O2"
_cell_formula_units_Z 52
_cell_length_a 26.408463
_cell_length_b 11.158973
_cell_length_c 8.247493
_cell_angle_alpha 90.000000
_cell_angle_beta 90.000000
_cell_angle_gamma 90.000000
_cell_volume 2430.464645
_symmetry_space_group_name_H-M "I 21 21 21"
_symmetry_group_IT_number 24
_symmetry_cell_setting 'orthorhombic'
loop_
_space_group_symop_operation_xyz
x,y,z
-x,1/2-y,z
x,-y,1/2-z
1/2-x,y,-z
1/2+x,1/2+y,1/2+z
1/2-x,-y,1/2+z
1/2+x,1/2-y,-z
-x,1/2+y,1/2-z
loop_
_atom_site_type_symbol
_atom_site_label
_atom_site_fract_x
_atom_site_fract_y
_atom_site_fract_z
Si Si1 0.500000 0.250000 0.352845
Si Si2 0.705592 0.315136 0.623026
Si Si3 0.544568 0.077650 0.907514
Si Si4 0.317117 0.095135 0.950467
Si Si5 0.899494 0.677732 0.003202
Si Si6 0.348278 0.000000 0.250000
Si Si7 0.930713 0.356590 0.143904
Si Si8 0.968080 0.000000 0.750000
O O1 0.447269 0.254382 0.447947
O O2 0.499671 0.122415 0.264588
O O3 0.750000 0.277702 0.500000
O O4 0.706969 0.313425 0.820359
O O5 0.697430 0.458421 0.593952
O O6 0.652348 0.259399 0.561961
O O7 0.562150 0.213745 0.881773
O O8 0.483056 0.084861 0.912215
O O9 0.558660 0.000000 0.750000
O O10 0.561190 0.023771 0.080855
O O11 0.377478 0.112786 0.936724
O O12 0.311861 0.087623 0.144510
O O13 0.882229 0.587510 0.860859
O O14 0.920846 0.617855 0.166607
#
# Coordination Sequence:
#
# PCOD9334721 Si02
#       8
#     4   8   8   8   8   4   8   4
#     4  12  24  40  60  94 132 176 224 274 336 420
#     4   9  19  36  56  84 122 167 213 272 340 402
#     4  11  24  37  58  83 121 169 223 281 333 404
#     4   9  20  33  54  78 119 161 209 265 325 403
#     4  10  21  35  57  84 125 175 221 268 331 413
#     4  10  21  32  54  92 118 176 226 264 341 392
#     4  10  21  38  53  82 118 169 220 273 339 404
#     4  12  27  40  62  90 132 176 232 282 347 416
#
# _framework density 21.395085000000002
#
# number of rings (size 3 to 8) (size 9 to 14) (size 15 to 20)
#    0.000    1.846    0.000    5.077   15.077    4.923 
#    0.000    0.000    0.000    0.000    0.000    0.000 
#   18.462    1.538    0.000    0.000    0.000    0.000 
#
# Total GULP energy -144847.266518 kJ/mol
# GULP energy per Si atom -5571.048712 kJ/mol
# Density = 2.134639 g / cm^3
# Si number density = 21.395085 Si / 1000 Ang^3
#
#
#
# Elastic Constant Matrix: (Units=GPa)
#
#
# Indices 1 2 3 4 5 6 
#
# 1 127.6545 11.2661 33.6032 0.0000 0.0000 0.0000
# 2 11.2661 63.9164 14.6667 0.0000 0.0000 0.0000
# 3 33.6032 14.6667 156.7594 0.0000 0.0000 0.0000
# 4 0.0000 0.0000 0.0000 16.0644 0.0000 0.0000
# 5 0.0000 0.0000 0.0000 0.0000 13.6420 0.0000
# 6 0.0000 0.0000 0.0000 0.0000 0.0000 21.6904
#
#
#
# Elastic Compliance Matrix: (Units=1/GPa)
#
#
# Indices 1 2 3 4 5 6 
#
# 1 0.008375 -0.001088 -0.001694 0.000000 0.000000 0.000000
# 2 -0.001088 0.016130 -0.001276 0.000000 0.000000 0.000000
# 3 -0.001694 -0.001276 0.006862 0.000000 0.000000 0.000000
# 4 0.000000 0.000000 0.000000 0.062250 0.000000 0.000000
# 5 0.000000 0.000000 0.000000 0.000000 0.073303 0.000000
# 6 0.000000 0.000000 0.000000 0.000000 0.000000 0.046103
#
#
# Mechanical properties :
#
#
# Convention : Reuss Voigt Hill
#
# Bulk Modulus (GPa) = 43.00611 51.93359 47.46985
# Shear Modulus (GPa) = 21.84470 29.53229 25.68849
#
# Velocity S-wave (km/s) = 3.19880 3.71931 3.46883
# Velocity P-wave (km/s) = 5.81271 6.53993 6.18702
#
# Compressibility (1/GPa) = 0.02325251
#
# Stress axis : x y z
#
# Youngs Moduli (GPa) = 119.39646 61.99644 145.73789
#
# Poissons Ratio (x) = 0.06743 0.24682
# Poissons Ratio (y) = 0.12986 0.18596
# Poissons Ratio (z) = 0.20221 0.07911
#
# Static dielectric constant tensor:
#      x y z
#    x 1.827500 0.000000 0.000000 
#    y 0.000000 1.851680 0.000000 
#    z 0.000000 0.000000 1.969140 
# 
# From -- ./inp_files/16434.got.cif
#   From: 2010.05.17/outbox.cif.g08.bks.cpg/sg24_9_cif.got.tgz:16434.got - 2010.06.04 00:33:39.
