data_PCOD9334791
_publ_section_title
;
Structure prediction by ZEFSAII (Michael W. Deem and Ramdas Pophale) SiO2 
 PCOD9334791
Probable space group: I 21 21 21
;
_chemical_formula_sum "Si O2"
_cell_formula_units_Z 48
_cell_length_a 14.451935
_cell_length_b 11.451680
_cell_length_c 15.199179
_cell_angle_alpha 90.000000
_cell_angle_beta 90.000000
_cell_angle_gamma 90.000000
_cell_volume 2515.447937
_symmetry_space_group_name_H-M "I 21 21 21"
_symmetry_group_IT_number 24
_symmetry_cell_setting 'orthorhombic'
loop_
_space_group_symop_operation_xyz
x,y,z
-x,1/2-y,z
x,-y,1/2-z
1/2-x,y,-z
1/2+x,1/2+y,1/2+z
1/2-x,-y,1/2+z
1/2+x,1/2-y,-z
-x,1/2+y,1/2-z
loop_
_atom_site_type_symbol
_atom_site_label
_atom_site_fract_x
_atom_site_fract_y
_atom_site_fract_z
Si Si1 0.147274 0.487345 0.537923
Si Si2 0.108168 0.735425 0.856159
Si Si3 0.203420 0.824533 0.404451
Si Si4 0.140819 0.003329 0.648356
Si Si5 0.276109 0.385053 0.202004
Si Si6 0.522499 0.617730 0.500751
O O1 0.250000 0.484359 0.500000
O O2 0.117227 0.358022 0.565728
O O3 0.156593 0.564766 0.626347
O O4 0.071234 0.549092 0.477172
O O5 0.150420 0.861625 0.877562
O O6 0.163539 0.682693 0.774039
O O7 0.000000 0.750000 0.834937
O O8 0.250000 0.796343 0.500000
O O9 0.209942 0.709493 0.344369
O O10 0.101186 0.871210 0.424949
O O11 0.267082 0.926008 0.363097
O O12 0.110898 0.000000 0.750000
O O13 0.066757 0.947101 0.582799
O O14 0.234237 0.500000 0.250000
O O15 0.500000 0.750000 0.475564
#
# Coordination Sequence:
#
# PCOD9334791 Si02
#       6
#     8   8   8   8   8   8
#     4  11  23  39  59  91 125 165 201 252 313 367
#     4  11  23  37  60  95 125 158 197 262 322 368
#     4  10  21  38  60  90 126 165 202 247 306 382
#     4  11  22  37  62  91 127 155 203 254 317 373
#     4  10  21  36  60  92 125 157 199 256 318 365
#     4  11  23  37  62  91 120 162 210 252 300 371
#
# _framework density 19.082087999999999
#
# number of rings (size 3 to 8) (size 9 to 14) (size 15 to 20)
#    0.000    1.333    3.333    3.500    2.333    2.000 
#    0.000    0.000    0.000    8.000    0.000    0.000 
#    0.000    0.000    0.000    0.000    0.000    0.000 
#
# Total GULP energy -134056.369508 kJ/mol
# GULP energy per Si atom -5585.682063 kJ/mol
# Density = 1.903866 g / cm^3
# Si number density = 19.082088 Si / 1000 Ang^3
#
#
#
# Elastic Constant Matrix: (Units=GPa)
#
#
# Indices 1 2 3 4 5 6 
#
# 1 102.5538 45.9169 35.3776 0.0000 0.0000 0.0000
# 2 45.9169 146.7562 34.3898 0.0000 0.0000 0.0000
# 3 35.3776 34.3898 46.8576 0.0000 0.0000 0.0000
# 4 0.0000 0.0000 0.0000 29.7418 0.0000 0.0000
# 5 0.0000 0.0000 0.0000 0.0000 19.4308 0.0000
# 6 0.0000 0.0000 0.0000 0.0000 0.0000 17.8594
#
#
#
# Elastic Compliance Matrix: (Units=1/GPa)
#
#
# Indices 1 2 3 4 5 6 
#
# 1 0.013780 -0.002263 -0.008744 0.000000 0.000000 0.000000
# 2 -0.002263 0.008601 -0.004604 0.000000 0.000000 0.000000
# 3 -0.008744 -0.004604 0.031322 0.000000 0.000000 0.000000
# 4 0.000000 0.000000 0.000000 0.033623 0.000000 0.000000
# 5 0.000000 0.000000 0.000000 0.000000 0.051465 0.000000
# 6 0.000000 0.000000 0.000000 0.000000 0.000000 0.055993
#
#
# Mechanical properties :
#
#
# Convention : Reuss Voigt Hill
#
# Bulk Modulus (GPa) = 44.47936 58.61512 51.54724
# Shear Modulus (GPa) = 21.41350 25.43862 23.42606
#
# Velocity S-wave (km/s) = 3.35353 3.65515 3.50758
# Velocity P-wave (km/s) = 6.19314 6.97119 6.59365
#
# Compressibility (1/GPa) = 0.02248234
#
# Stress axis : x y z
#
# Youngs Moduli (GPa) = 72.56755 116.26777 31.92679
#
# Poissons Ratio (x) = 0.26307 0.27915
# Poissons Ratio (y) = 0.16420 0.14699
# Poissons Ratio (z) = 0.63450 0.53530
#
# Static dielectric constant tensor:
#      x y z
#    x 1.674340 0.000000 0.000000 
#    y 0.000000 1.682040 0.000000 
#    z 0.000000 0.000000 1.666260 
# 
# From -- ./inp_files/26438.got.cif
#   From: 2010.05.17/outbox.cif.g08.bks.cpg/sg24_14_cif.got.tgz:26438.got - 2010.06.04 00:33:39.
