data_PCOD9334720
_publ_section_title
;
Structure prediction by ZEFSAII (Michael W. Deem and Ramdas Pophale) SiO2 
 PCOD9334720
Probable space group: I 21 21 21
;
_chemical_formula_sum "Si O2"
_cell_formula_units_Z 48
_cell_length_a 7.695142
_cell_length_b 19.962348
_cell_length_c 15.039242
_cell_angle_alpha 90.000000
_cell_angle_beta 90.000000
_cell_angle_gamma 90.000000
_cell_volume 2310.224623
_symmetry_space_group_name_H-M "I 21 21 21"
_symmetry_group_IT_number 24
_symmetry_cell_setting 'orthorhombic'
loop_
_space_group_symop_operation_xyz
x,y,z
-x,1/2-y,z
x,-y,1/2-z
1/2-x,y,-z
1/2+x,1/2+y,1/2+z
1/2-x,-y,1/2+z
1/2+x,1/2-y,-z
-x,1/2+y,1/2-z
loop_
_atom_site_type_symbol
_atom_site_label
_atom_site_fract_x
_atom_site_fract_y
_atom_site_fract_z
Si Si1 0.001851 0.566432 0.914665
Si Si2 0.069802 0.324421 0.447784
Si Si3 0.920899 0.427182 0.958611
Si Si4 0.481098 0.593705 0.778658
Si Si5 0.124822 0.080805 0.765935
Si Si6 0.148894 0.475223 0.117529
O O1 0.186590 0.524471 0.903731
O O2 0.876670 0.503893 0.932083
O O3 0.966630 0.605787 0.823812
O O4 0.977052 0.617349 0.995324
O O5 0.250000 0.325000 0.500000
O O6 0.000000 0.250000 0.454410
O O7 0.072138 0.347333 0.345217
O O8 0.957559 0.398515 0.860427
O O9 0.750000 0.394822 0.000000
O O10 0.068293 0.435615 0.033926
O O11 0.672474 0.601341 0.736962
O O12 0.488024 0.528548 0.842878
O O13 0.342171 0.575250 0.701455
O O14 0.108522 0.000000 0.750000
#
# Coordination Sequence:
#
# PCOD9334720 Si02
#       6
#     8   8   8   8   8   8
#     4  11  23  35  55  84 122 164 203 254 311 369
#     4  12  27  42  59  86 123 176 220 248 303 378
#     4  11  19  33  52  86 120 148 195 238 323 387
#     4  11  21  38  56  81 121 161 206 260 322 368
#     4  10  21  32  53  85 116 158 192 243 315 386
#     4  11  20  35  59  84 121 154 197 271 322 375
#
# _framework density 20.777201000000002
#
# number of rings (size 3 to 8) (size 9 to 14) (size 15 to 20)
#    0.000    1.000    6.667    1.500    9.333    0.000 
#    0.000    0.000    0.000    0.000    0.000    1.167 
#    5.000    0.000    0.000    0.000    0.000    0.000 
#
# Total GULP energy -133612.366421 kJ/mol
# GULP energy per Si atom -5567.181934 kJ/mol
# Density = 2.072991 g / cm^3
# Si number density = 20.777201 Si / 1000 Ang^3
#
#
#
# Elastic Constant Matrix: (Units=GPa)
#
#
# Indices 1 2 3 4 5 6 
#
# 1 67.9643 -6.3674 30.9066 0.0000 0.0000 0.0000
# 2 -6.3674 37.2782 23.5957 0.0000 0.0000 0.0000
# 3 30.9066 23.5957 175.1726 0.0000 0.0000 0.0000
# 4 0.0000 0.0000 0.0000 7.2908 0.0000 0.0000
# 5 0.0000 0.0000 0.0000 0.0000 32.7560 0.0000
# 6 0.0000 0.0000 0.0000 0.0000 0.0000 10.7509
#
#
#
# Elastic Compliance Matrix: (Units=1/GPa)
#
#
# Indices 1 2 3 4 5 6 
#
# 1 0.016875 0.005211 -0.003679 0.000000 0.000000 0.000000
# 2 0.005211 0.030935 -0.005086 0.000000 0.000000 0.000000
# 3 -0.003679 -0.005086 0.007043 0.000000 0.000000 0.000000
# 4 0.000000 0.000000 0.000000 0.137160 0.000000 0.000000
# 5 0.000000 0.000000 0.000000 0.000000 0.030529 0.000000
# 6 0.000000 0.000000 0.000000 0.000000 0.000000 0.093016
#
#
# Mechanical properties :
#
#
# Convention : Reuss Voigt Hill
#
# Bulk Modulus (GPa) = 20.94504 41.85388 31.39946
# Shear Modulus (GPa) = 14.76754 25.64488 20.20621
#
# Velocity S-wave (km/s) = 2.66889 3.51704 3.12191
# Velocity P-wave (km/s) = 4.42719 6.05646 5.30475
#
# Compressibility (1/GPa) = 0.04774399
#
# Stress axis : x y z
#
# Youngs Moduli (GPa) = 59.25928 32.32595 141.98605
#
# Poissons Ratio (x) = -0.16846 0.52241
# Poissons Ratio (y) = -0.30881 0.72219
# Poissons Ratio (z) = 0.21803 0.16442
#
# Static dielectric constant tensor:
#      x y z
#    x 2.257810 0.000000 0.000000 
#    y 0.000000 1.760110 0.000000 
#    z 0.000000 0.000000 1.944110 
# 
# From -- ./inp_files/24934.got.cif
#   From: 2010.05.17/outbox.cif.g08.bks.cpg/sg24_13_cif.got.tgz:24934.got - 2010.06.04 00:33:39.
