data_PCOD9334065
_publ_section_title
;
Structure prediction by ZEFSAII (Michael W. Deem and Ramdas Pophale) SiO2 
 PCOD9334065
Probable space group: I 21 21 21
;
_chemical_formula_sum "Si O2"
_cell_formula_units_Z 36
_cell_length_a 4.909543
_cell_length_b 22.975441
_cell_length_c 15.700336
_cell_angle_alpha 90.000000
_cell_angle_beta 90.000000
_cell_angle_gamma 90.000000
_cell_volume 1770.980874
_symmetry_space_group_name_H-M "I 21 21 21"
_symmetry_group_IT_number 24
_symmetry_cell_setting 'orthorhombic'
loop_
_space_group_symop_operation_xyz
x,y,z
-x,1/2-y,z
x,-y,1/2-z
1/2-x,y,-z
1/2+x,1/2+y,1/2+z
1/2-x,-y,1/2+z
1/2+x,1/2-y,-z
-x,1/2+y,1/2-z
loop_
_atom_site_type_symbol
_atom_site_label
_atom_site_fract_x
_atom_site_fract_y
_atom_site_fract_z
Si Si1 0.193631 0.369724 0.095006
Si Si2 0.750000 0.707075 0.000000
Si Si3 0.649236 0.933145 0.762053
Si Si4 0.326950 0.135011 0.328513
Si Si5 0.200359 0.194860 0.843880
O O1 0.080402 0.412959 0.165783
O O2 0.495345 0.354834 0.126086
O O3 0.979833 0.315371 0.103476
O O4 0.250000 0.389893 0.000000
O O5 0.500000 0.750000 0.979214
O O6 0.821188 0.666661 0.919024
O O7 0.387480 0.917710 0.818994
O O8 0.884468 0.892602 0.802154
O O9 0.726547 0.000000 0.750000
O O10 0.243819 0.182885 0.255970
O O11 0.000000 0.250000 0.854072
#
# Coordination Sequence:
#
# PCOD9334065 Si02
#       5
#     8   4   8   8   8
#     4  10  21  36  54  84 115 147 194 244 285 352
#     4  12  24  40  64  94 134 166 202 264 314 372
#     4  10  21  41  64  83 121 161 202 255 309 356
#     4  10  22  39  60  91 120 158 208 248 299 377
#     4  10  20  35  57  79 114 156 191 231 292 351
#
# _framework density 20.327717
#
# number of rings (size 3 to 8) (size 9 to 14) (size 15 to 20)
#    0.000    1.778    0.000    4.000    0.000    5.333 
#    4.000    0.000    0.000    1.333    0.000    0.000 
#    0.000    0.000    0.000    0.000    0.000    0.000 
#
# Total GULP energy -100279.800705 kJ/mol
# GULP energy per Si atom -5571.100039 kJ/mol
# Density = 2.028145 g / cm^3
# Si number density = 20.327717 Si / 1000 Ang^3
#
#
#
# Elastic Constant Matrix: (Units=GPa)
#
#
# Indices 1 2 3 4 5 6 
#
# 1 103.7707 6.4016 7.5475 0.0000 0.0000 0.0000
# 2 6.4016 75.7812 35.6432 0.0000 0.0000 0.0000
# 3 7.5475 35.6432 118.5284 0.0000 0.0000 0.0000
# 4 0.0000 0.0000 0.0000 6.1445 0.0000 0.0000
# 5 0.0000 0.0000 0.0000 0.0000 22.1742 0.0000
# 6 0.0000 0.0000 0.0000 0.0000 0.0000 23.8053
#
#
#
# Elastic Compliance Matrix: (Units=1/GPa)
#
#
# Indices 1 2 3 4 5 6 
#
# 1 0.009706 -0.000616 -0.000433 0.000000 0.000000 0.000000
# 2 -0.000616 0.015409 -0.004594 0.000000 0.000000 0.000000
# 3 -0.000433 -0.004594 0.009846 0.000000 0.000000 0.000000
# 4 0.000000 0.000000 0.000000 0.162748 0.000000 0.000000
# 5 0.000000 0.000000 0.000000 0.000000 0.045097 0.000000
# 6 0.000000 0.000000 0.000000 0.000000 0.000000 0.042007
#
#
# Mechanical properties :
#
#
# Convention : Reuss Voigt Hill
#
# Bulk Modulus (GPa) = 42.24055 44.14056 43.19055
# Shear Modulus (GPa) = 16.44779 26.99067 21.71923
#
# Velocity S-wave (km/s) = 2.84761 3.64782 3.27227
# Velocity P-wave (km/s) = 5.62465 6.28520 5.96408
#
# Compressibility (1/GPa) = 0.02367394
#
# Stress axis : x y z
#
# Youngs Moduli (GPa) = 103.02769 64.89749 101.56444
#
# Poissons Ratio (x) = 0.04000 0.04395
# Poissons Ratio (y) = 0.06351 0.46663
# Poissons Ratio (z) = 0.04458 0.29817
#
# Static dielectric constant tensor:
#      x y z
#    x 1.743430 0.000000 0.000000 
#    y 0.000000 1.790570 0.000000 
#    z 0.000000 0.000000 1.749760 
# 
# From -- ./inp_files/23610.got.cif
#   From: 2010.05.17/outbox.cif.g08.bks.cpg/sg24_12_cif.got.tgz:23610.got - 2010.06.04 00:33:39.
