data_PCOD9334299
_publ_section_title
;
Structure prediction by ZEFSAII (Michael W. Deem and Ramdas Pophale) SiO2 
 PCOD9334299
Probable space group: I 21 21 21
;
_chemical_formula_sum "Si O2"
_cell_formula_units_Z 52
_cell_length_a 17.604509
_cell_length_b 7.729589
_cell_length_c 18.704203
_cell_angle_alpha 90.000000
_cell_angle_beta 90.000000
_cell_angle_gamma 90.000000
_cell_volume 2545.186003
_symmetry_space_group_name_H-M "I 21 21 21"
_symmetry_group_IT_number 24
_symmetry_cell_setting 'orthorhombic'
loop_
_space_group_symop_operation_xyz
x,y,z
-x,1/2-y,z
x,-y,1/2-z
1/2-x,y,-z
1/2+x,1/2+y,1/2+z
1/2-x,-y,1/2+z
1/2+x,1/2-y,-z
-x,1/2+y,1/2-z
loop_
_atom_site_type_symbol
_atom_site_label
_atom_site_fract_x
_atom_site_fract_y
_atom_site_fract_z
Si Si1 0.041768 0.434634 0.896521
Si Si2 0.818637 0.726086 0.549836
Si Si3 0.500000 0.250000 0.880708
Si Si4 0.391760 0.789957 0.745521
Si Si5 0.892045 0.000000 0.750000
Si Si6 0.500000 0.750000 0.871682
Si Si7 0.436635 0.034224 0.515409
Si Si8 0.282885 0.183503 0.214691
O O1 0.119133 0.376401 0.936485
O O2 0.059102 0.518616 0.821191
O O3 0.000000 0.250000 0.884846
O O4 0.987266 0.548587 0.945133
O O5 0.750000 0.784019 0.500000
O O6 0.861472 0.567355 0.509275
O O7 0.788753 0.671752 0.628391
O O8 0.428867 0.269630 0.828600
O O9 0.484766 0.090341 0.931550
O O10 0.436985 0.698308 0.809951
O O11 0.301808 0.768346 0.740954
O O12 0.405954 0.000000 0.750000
O O13 0.840285 0.167927 0.761506
O O14 0.564131 0.694661 0.931669
O O15 0.302503 0.000000 0.250000
#
# Coordination Sequence:
#
# PCOD9334299 Si02
#       8
#     8   8   4   8   4   4   8   8
#     4   9  20  41  62  92 119 159 210 257 313 380
#     4  10  20  37  64  88 118 166 199 249 320 379
#     4  11  18  34  62  79 114 158 202 245 294 374
#     4  10  21  37  59  88 123 166 202 253 316 379
#     4  10  22  44  64  90 124 160 216 262 312 388
#     4  11  24  36  58  95 126 160 210 263 318 382
#     4  11  21  38  60  89 121 154 207 256 309 375
#     4  10  23  40  64  91 127 164 210 257 319 386
#
# _framework density 20.430726
#
# number of rings (size 3 to 8) (size 9 to 14) (size 15 to 20)
#    0.000    1.846    3.846    0.923    2.154    2.462 
#   16.615    0.000    0.000    0.000    0.000    0.000 
#    0.000    0.000    0.000    0.000    0.000    0.000 
#
# Total GULP energy -144800.599247 kJ/mol
# GULP energy per Si atom -5569.253817 kJ/mol
# Density = 2.038422 g / cm^3
# Si number density = 20.430726 Si / 1000 Ang^3
#
#
#
# Elastic Constant Matrix: (Units=GPa)
#
#
# Indices 1 2 3 4 5 6 
#
# 1 72.3082 3.3406 43.9658 0.0000 0.0000 0.0000
# 2 3.3406 26.1035 25.4954 0.0000 0.0000 0.0000
# 3 43.9658 25.4954 140.6390 0.0000 0.0000 0.0000
# 4 0.0000 0.0000 0.0000 39.4092 0.0000 0.0000
# 5 0.0000 0.0000 0.0000 0.0000 20.5580 0.0000
# 6 0.0000 0.0000 0.0000 0.0000 0.0000 -23.9133
#
#
#
# Elastic Compliance Matrix: (Units=1/GPa)
#
#
# Indices 1 2 3 4 5 6 
#
# 1 0.017371 0.003744 -0.006109 0.000000 0.000000 0.000000
# 2 0.003744 0.047358 -0.009756 0.000000 0.000000 0.000000
# 3 -0.006109 -0.009756 0.010789 0.000000 0.000000 0.000000
# 4 0.000000 0.000000 0.000000 0.025375 0.000000 0.000000
# 5 0.000000 0.000000 0.000000 0.000000 0.048643 0.000000
# 6 0.000000 0.000000 0.000000 0.000000 0.000000 -0.041818
#
#
# Mechanical properties :
#
#
# Convention : Reuss Voigt Hill
#
# Bulk Modulus (GPa) = 19.50220 42.73938 31.12079
# Shear Modulus (GPa) = 33.54528 18.29404 25.91966
#
# Velocity S-wave (km/s) = 4.05644 2.99560 3.56569
# Velocity P-wave (km/s) = 5.61300 5.73842 5.67606
#
# Compressibility (1/GPa) = 0.05127627
#
# Stress axis : x y z
#
# Youngs Moduli (GPa) = 57.56605 21.11568 92.68913
#
# Poissons Ratio (x) = -0.07905 0.56626
# Poissons Ratio (y) = -0.21552 0.90424
# Poissons Ratio (z) = 0.35168 0.20600
#
# Static dielectric constant tensor:
#      x y z
#    x 1.706280 0.000000 0.000000 
#    y 0.000000 1.735690 0.000000 
#    z 0.000000 0.000000 1.708460 
# 
# From -- ./inp_files/14440.got.cif
#   From: 2010.05.17/outbox.cif.g08.bks.cpg/sg24_8_cif.got.tgz:14440.got - 2010.06.04 00:33:39.
