data_PCOD9334147
_publ_section_title
;
Structure prediction by ZEFSAII (Michael W. Deem and Ramdas Pophale) SiO2 
 PCOD9334147
Probable space group: I 21 21 21
;
_chemical_formula_sum "Si O2"
_cell_formula_units_Z 36
_cell_length_a 24.404754
_cell_length_b 4.974000
_cell_length_c 14.535971
_cell_angle_alpha 90.000000
_cell_angle_beta 90.000000
_cell_angle_gamma 90.000000
_cell_volume 1764.510565
_symmetry_space_group_name_H-M "I 21 21 21"
_symmetry_group_IT_number 24
_symmetry_cell_setting 'orthorhombic'
loop_
_space_group_symop_operation_xyz
x,y,z
-x,1/2-y,z
x,-y,1/2-z
1/2-x,y,-z
1/2+x,1/2+y,1/2+z
1/2-x,-y,1/2+z
1/2+x,1/2-y,-z
-x,1/2+y,1/2-z
loop_
_atom_site_type_symbol
_atom_site_label
_atom_site_fract_x
_atom_site_fract_y
_atom_site_fract_z
Si Si1 0.540503 0.501391 0.953073
Si Si2 0.722709 0.232797 0.191326
Si Si3 0.652234 0.621630 0.488673
Si Si4 0.959533 0.500000 0.250000
Si Si5 0.300332 0.395361 0.570431
O O1 0.500000 0.750000 0.963604
O O2 0.568158 0.507793 0.849977
O O3 0.500000 0.250000 0.958285
O O4 0.590744 0.481984 0.023072
O O5 0.736355 0.500000 0.250000
O O6 0.687296 0.657134 0.395335
O O7 0.774395 0.946007 0.343966
O O8 0.691337 0.000000 0.250000
O O9 0.682370 0.413213 0.558422
O O10 0.650914 0.916482 0.534159
O O11 0.000000 0.750000 0.251569
O O12 0.250000 0.420035 0.500000
#
# Coordination Sequence:
#
# PCOD9334147 Si02
#       5
#     8   8   8   4   8
#     4  10  20  36  58  84 115 153 200 246 298 357
#     4  11  22  38  60  88 125 161 201 249 304 366
#     4  11  21  37  61  86 117 160 202 243 302 362
#     4   8  16  32  52  72 106 142 180 238 288 334
#     4  10  20  37  57  82 116 155 195 244 296 356
#
# _framework density 20.402258
#
# number of rings (size 3 to 8) (size 9 to 14) (size 15 to 20)
#    0.000    1.778    0.000    7.333    0.000    0.000 
#    6.000    0.000    0.000    2.667    0.000    0.000 
#    0.000    0.000    0.000    0.000    0.000    0.000 
#
# Total GULP energy -100219.684436 kJ/mol
# GULP energy per Si atom -5567.760246 kJ/mol
# Density = 2.035582 g / cm^3
# Si number density = 20.402258 Si / 1000 Ang^3
#
#
#
# Elastic Constant Matrix: (Units=GPa)
#
#
# Indices 1 2 3 4 5 6 
#
# 1 77.0775 21.7459 30.4898 0.0000 0.0000 0.0000
# 2 21.7459 159.7877 38.2883 0.0000 0.0000 0.0000
# 3 30.4898 38.2883 75.3591 0.0000 0.0000 0.0000
# 4 0.0000 0.0000 0.0000 35.5041 0.0000 0.0000
# 5 0.0000 0.0000 0.0000 0.0000 14.3163 0.0000
# 6 0.0000 0.0000 0.0000 0.0000 0.0000 20.8307
#
#
#
# Elastic Compliance Matrix: (Units=1/GPa)
#
#
# Indices 1 2 3 4 5 6 
#
# 1 0.015513 -0.000691 -0.005925 0.000000 0.000000 0.000000
# 2 -0.000691 0.007157 -0.003356 0.000000 0.000000 0.000000
# 3 -0.005925 -0.003356 0.017372 0.000000 0.000000 0.000000
# 4 0.000000 0.000000 0.000000 0.028166 0.000000 0.000000
# 5 0.000000 0.000000 0.000000 0.000000 0.069850 0.000000
# 6 0.000000 0.000000 0.000000 0.000000 0.000000 0.048006
#
#
# Mechanical properties :
#
#
# Convention : Reuss Voigt Hill
#
# Bulk Modulus (GPa) = 49.76103 54.80803 52.28453
# Shear Modulus (GPa) = 23.50632 28.91022 26.20827
#
# Velocity S-wave (km/s) = 3.39801 3.76840 3.58799
# Velocity P-wave (km/s) = 6.31175 6.77174 6.54579
#
# Compressibility (1/GPa) = 0.02009605
#
# Stress axis : x y z
#
# Youngs Moduli (GPa) = 64.46273 139.72999 57.56265
#
# Poissons Ratio (x) = 0.09661 0.34106
# Poissons Ratio (y) = 0.04457 0.19320
# Poissons Ratio (z) = 0.38195 0.46899
#
# Static dielectric constant tensor:
#      x y z
#    x 1.699110 0.000000 0.000000 
#    y 0.000000 1.740970 0.000000 
#    z 0.000000 0.000000 1.853890 
# 
# From -- ./inp_files/27355.got.cif
#   From: 2010.05.17/outbox.cif.g08.bks.cpg/sg24_14_cif.got.tgz:27355.got - 2010.06.04 00:33:39.
