data_PCOD9334848
_publ_section_title
;
Structure prediction by ZEFSAII (Michael W. Deem and Ramdas Pophale) SiO2 
 PCOD9334848
Probable space group: I 21 21 21
;
_chemical_formula_sum "Si O2"
_cell_formula_units_Z 48
_cell_length_a 15.283540
_cell_length_b 18.367852
_cell_length_c 9.409083
_cell_angle_alpha 90.000000
_cell_angle_beta 90.000000
_cell_angle_gamma 90.000000
_cell_volume 2641.372360
_symmetry_space_group_name_H-M "I 21 21 21"
_symmetry_group_IT_number 24
_symmetry_cell_setting 'orthorhombic'
loop_
_space_group_symop_operation_xyz
x,y,z
-x,1/2-y,z
x,-y,1/2-z
1/2-x,y,-z
1/2+x,1/2+y,1/2+z
1/2-x,-y,1/2+z
1/2+x,1/2-y,-z
-x,1/2+y,1/2-z
loop_
_atom_site_type_symbol
_atom_site_label
_atom_site_fract_x
_atom_site_fract_y
_atom_site_fract_z
Si Si1 0.500000 0.250000 0.926802
Si Si2 0.444390 0.614163 0.739528
Si Si3 0.330072 0.047520 0.111042
Si Si4 0.489527 0.511845 0.981351
Si Si5 0.865252 0.000000 0.750000
Si Si6 0.830649 0.285135 0.891034
Si Si7 0.253832 0.641767 0.326355
O O1 0.497723 0.319667 0.826372
O O2 0.585014 0.255487 0.025469
O O3 0.482619 0.584821 0.887427
O O4 0.453149 0.549894 0.624393
O O5 0.342735 0.636922 0.740209
O O6 0.348081 0.131864 0.156808
O O7 0.310077 0.000000 0.250000
O O8 0.250000 0.045791 0.000000
O O9 0.415173 0.013257 0.034191
O O10 0.426740 0.515250 0.115923
O O11 0.807130 0.071179 0.778341
O O12 0.799876 0.219019 0.789710
O O13 0.750000 0.292945 0.000000
O O14 0.250000 0.638896 0.500000
#
# Coordination Sequence:
#
# PCOD9334848 Si02
#       7
#     4   8   8   8   4   8   8
#     4  12  18  36  64  94 128 170 220 272 330 388
#     4  11  23  37  64  93 125 162 213 274 319 388
#     4  11  25  42  65  93 124 170 224 280 329 386
#     4  11  23  40  62  94 123 165 214 262 333 392
#     4  12  22  38  64  88 128 170 204 262 338 406
#     4  10  21  37  62  92 122 167 222 263 318 407
#     4  11  21  38  59  95 125 162 217 264 325 396
#
# _framework density 18.172370999999998
#
# number of rings (size 3 to 8) (size 9 to 14) (size 15 to 20)
#    0.000    1.000    7.500    1.000    2.333    0.000 
#    0.000    1.667    0.000    0.000    0.000    0.000 
#    0.000    0.000    0.000    0.000    0.000    0.000 
#
# Total GULP energy -133911.270098 kJ/mol
# GULP energy per Si atom -5579.636254 kJ/mol
# Density = 1.813101 g / cm^3
# Si number density = 18.172371 Si / 1000 Ang^3
#
#
#
# Elastic Constant Matrix: (Units=GPa)
#
#
# Indices 1 2 3 4 5 6 
#
# 1 97.9789 24.5380 15.4564 0.0000 0.0000 0.0000
# 2 24.5380 126.2303 37.6153 0.0000 0.0000 0.0000
# 3 15.4564 37.6153 68.8591 0.0000 0.0000 0.0000
# 4 0.0000 0.0000 0.0000 -154.0343 0.0000 0.0000
# 5 0.0000 0.0000 0.0000 0.0000 36.5478 0.0000
# 6 0.0000 0.0000 0.0000 0.0000 0.0000 35.7921
#
#
#
# Elastic Compliance Matrix: (Units=1/GPa)
#
#
# Indices 1 2 3 4 5 6 
#
# 1 0.010863 -0.001654 -0.001535 0.000000 0.000000 0.000000
# 2 -0.001654 0.009714 -0.004935 0.000000 0.000000 0.000000
# 3 -0.001535 -0.004935 0.017563 0.000000 0.000000 0.000000
# 4 0.000000 0.000000 0.000000 -0.006492 0.000000 0.000000
# 5 0.000000 0.000000 0.000000 0.000000 0.027361 0.000000
# 6 0.000000 0.000000 0.000000 0.000000 0.000000 0.027939
#
#
# Mechanical properties :
#
#
# Convention : Reuss Voigt Hill
#
# Bulk Modulus (GPa) = 45.67988 49.80976 47.74482
# Shear Modulus (GPa) = 45.25144 -1.97499 21.63822
#
# Velocity S-wave (km/s) = 4.99553 -1.04363 3.45443
# Velocity P-wave (km/s) = 7.64626 5.10068 6.49931
#
# Compressibility (1/GPa) = 0.02189148
#
# Stress axis : x y z
#
# Youngs Moduli (GPa) = 92.05840 102.94146 56.93850
#
# Poissons Ratio (x) = 0.17030 0.08738
# Poissons Ratio (y) = 0.15229 0.28100
# Poissons Ratio (z) = 0.14127 0.50804
#
# Static dielectric constant tensor:
#      x y z
#    x 1.712430 0.000000 0.000000 
#    y 0.000000 1.659590 0.000000 
#    z 0.000000 0.000000 1.589450 
# 
# From -- ./inp_files/12846.got.cif
#   From: 2010.05.17/outbox.cif.g08.bks.cpg/sg24_7_cif.got.tgz:12846.got - 2010.06.04 00:33:39.
