data_PCOD9334869
_publ_section_title
;
Structure prediction by ZEFSAII (Michael W. Deem and Ramdas Pophale) SiO2 
 PCOD9334869
Probable space group: I 21 21 21
;
_chemical_formula_sum "Si O2"
_cell_formula_units_Z 48
_cell_length_a 18.140101
_cell_length_b 9.131458
_cell_length_c 13.904212
_cell_angle_alpha 90.000000
_cell_angle_beta 90.000000
_cell_angle_gamma 90.000000
_cell_volume 2303.171128
_symmetry_space_group_name_H-M "I 21 21 21"
_symmetry_group_IT_number 24
_symmetry_cell_setting 'orthorhombic'
loop_
_space_group_symop_operation_xyz
x,y,z
-x,1/2-y,z
x,-y,1/2-z
1/2-x,y,-z
1/2+x,1/2+y,1/2+z
1/2-x,-y,1/2+z
1/2+x,1/2-y,-z
-x,1/2+y,1/2-z
loop_
_atom_site_type_symbol
_atom_site_label
_atom_site_fract_x
_atom_site_fract_y
_atom_site_fract_z
Si Si1 0.914458 0.606707 0.166613
Si Si2 0.790844 0.285833 0.812619
Si Si3 0.058577 0.618292 0.666962
Si Si4 0.021948 0.575574 0.454589
Si Si5 0.140802 0.359145 0.201515
Si Si6 0.754777 0.409908 0.611528
O O1 0.941908 0.500000 0.250000
O O2 0.906233 0.764243 0.219886
O O3 0.830377 0.568109 0.141238
O O4 0.964696 0.550676 0.079086
O O5 0.859076 0.183806 0.835734
O O6 0.708752 0.232757 0.838995
O O7 0.786928 0.307265 0.696191
O O8 0.798282 0.438957 0.869842
O O9 0.051209 0.500000 0.750000
O O10 0.042687 0.547225 0.563893
O O11 0.000000 0.750000 0.681409
O O12 0.089341 0.578304 0.381089
O O13 0.000000 0.750000 0.450958
O O14 0.176456 0.500000 0.250000
O O15 0.750000 0.363749 0.500000
#
# Coordination Sequence:
#
# PCOD9334869 Si02
#       6
#     8   8   8   8   8   8
#     4  11  20  41  64 102 138 162 226 285 341 422
#     4  10  22  43  66  97 136 174 230 291 339 419
#     4  11  28  48  67  94 135 187 239 291 343 417
#     4  11  23  39  68  99 131 180 226 271 349 422
#     4  11  23  40  66 101 136 174 210 283 361 411
#     4  10  21  37  72 101 129 178 226 285 351 418
#
# _framework density 20.840831999999999
#
# number of rings (size 3 to 8) (size 9 to 14) (size 15 to 20)
#    0.000    1.333    5.000    1.000    9.333    0.000 
#    9.000    0.000    0.000    0.000    0.000    0.000 
#    0.000    0.000    0.000    0.000    0.000    0.000 
#
# Total GULP energy -133835.999117 kJ/mol
# GULP energy per Si atom -5576.499963 kJ/mol
# Density = 2.079340 g / cm^3
# Si number density = 20.840832 Si / 1000 Ang^3
#
#
#
# Elastic Constant Matrix: (Units=GPa)
#
#
# Indices 1 2 3 4 5 6 
#
# 1 86.1164 23.0521 42.9667 0.0000 0.0000 0.0000
# 2 23.0521 54.3344 13.1521 0.0000 0.0000 0.0000
# 3 42.9667 13.1521 106.3101 0.0000 0.0000 0.0000
# 4 0.0000 0.0000 0.0000 28.9290 0.0000 0.0000
# 5 0.0000 0.0000 0.0000 0.0000 -14.5197 0.0000
# 6 0.0000 0.0000 0.0000 0.0000 0.0000 24.0015
#
#
#
# Elastic Compliance Matrix: (Units=1/GPa)
#
#
# Indices 1 2 3 4 5 6 
#
# 1 0.015928 -0.005360 -0.005774 0.000000 0.000000 0.000000
# 2 -0.005360 0.020776 -0.000404 0.000000 0.000000 0.000000
# 3 -0.005774 -0.000404 0.011790 0.000000 0.000000 0.000000
# 4 0.000000 0.000000 0.000000 0.034567 0.000000 0.000000
# 5 0.000000 0.000000 0.000000 0.000000 -0.068872 0.000000
# 6 0.000000 0.000000 0.000000 0.000000 0.000000 0.041664
#
#
# Mechanical properties :
#
#
# Convention : Reuss Voigt Hill
#
# Bulk Modulus (GPa) = 39.34246 45.01140 42.17693
# Shear Modulus (GPa) = 57.20589 18.85483 38.03036
#
# Velocity S-wave (km/s) = 5.24486 3.01110 4.27640
# Velocity P-wave (km/s) = 7.45631 5.80806 6.68319
#
# Compressibility (1/GPa) = 0.02541783
#
# Stress axis : x y z
#
# Youngs Moduli (GPa) = 62.78230 48.13161 84.81582
#
# Poissons Ratio (x) = 0.25798 0.48976
# Poissons Ratio (y) = 0.33651 0.03427
# Poissons Ratio (z) = 0.36253 0.01945
#
# Static dielectric constant tensor:
#      x y z
#    x 1.731360 0.000000 0.000000 
#    y 0.000000 1.864950 0.000000 
#    z 0.000000 0.000000 1.779000 
# 
# From -- ./inp_files/27055.got.cif
#   From: 2010.05.17/outbox.cif.g08.bks.cpg/sg24_14_cif.got.tgz:27055.got - 2010.06.04 00:33:39.
