data_PCOD9334181
_publ_section_title
;
Structure prediction by ZEFSAII (Michael W. Deem and Ramdas Pophale) SiO2 
 PCOD9334181
Probable space group: I 21 21 21
;
_chemical_formula_sum "Si O2"
_cell_formula_units_Z 28
_cell_length_a 31.629821
_cell_length_b 4.760884
_cell_length_c 7.814334
_cell_angle_alpha 90.000000
_cell_angle_beta 90.000000
_cell_angle_gamma 90.000000
_cell_volume 1176.728586
_symmetry_space_group_name_H-M "I 21 21 21"
_symmetry_group_IT_number 24
_symmetry_cell_setting 'orthorhombic'
loop_
_space_group_symop_operation_xyz
x,y,z
-x,1/2-y,z
x,-y,1/2-z
1/2-x,y,-z
1/2+x,1/2+y,1/2+z
1/2-x,-y,1/2+z
1/2+x,1/2-y,-z
-x,1/2+y,1/2-z
loop_
_atom_site_type_symbol
_atom_site_label
_atom_site_fract_x
_atom_site_fract_y
_atom_site_fract_z
Si Si1 0.456331 0.623198 0.938184
Si Si2 0.692565 0.638984 0.439417
Si Si3 0.750000 0.831050 0.000000
Si Si4 0.404045 0.885360 0.442766
O O1 0.500000 0.750000 0.007263
O O2 0.464775 0.500000 0.750000
O O3 0.435551 0.374767 0.045020
O O4 0.422318 0.871289 0.937494
O O5 0.694408 0.500000 0.250000
O O6 0.717333 0.932471 0.430300
O O7 0.644090 0.689710 0.487697
O O8 0.715751 0.406983 0.560003
O O9 0.403800 0.000000 0.250000
#
# Coordination Sequence:
#
# PCOD9334181 Si02
#       4
#     8   8   4   8
#     4  12  25  45  67  94 134 175 212 265 334 396
#     4  10  21  40  62  90 128 167 210 270 327 368
#     4  10  20  36  60  88 122 164 206 242 314 392
#     4  11  24  44  71  98 129 170 222 275 322 381
#
# _framework density 23.794779999999999
#
# number of rings (size 3 to 8) (size 9 to 14) (size 15 to 20)
#    0.000    1.143    0.000    6.857    0.000    6.857 
#    0.000   30.000    0.000    0.000    0.000    0.000 
#    0.000    0.000    0.000    0.000    0.000    0.000 
#
# Total GULP energy -78133.275111 kJ/mol
# GULP energy per Si atom -5580.948222 kJ/mol
# Density = 2.374062 g / cm^3
# Si number density = 23.794780 Si / 1000 Ang^3
#
#
#
# Elastic Constant Matrix: (Units=GPa)
#
#
# Indices 1 2 3 4 5 6 
#
# 1 197.3193 84.6584 33.7246 0.0000 0.0000 0.0000
# 2 84.6584 191.2407 42.7333 0.0000 0.0000 0.0000
# 3 33.7246 42.7333 25.0670 0.0000 0.0000 0.0000
# 4 0.0000 0.0000 0.0000 31.0948 0.0000 0.0000
# 5 0.0000 0.0000 0.0000 0.0000 29.9527 0.0000
# 6 0.0000 0.0000 0.0000 0.0000 0.0000 238.5934
#
#
#
# Elastic Compliance Matrix: (Units=1/GPa)
#
#
# Indices 1 2 3 4 5 6 
#
# 1 0.006863 -0.001575 -0.006549 0.000000 0.000000 0.000000
# 2 -0.001575 0.008808 -0.012897 0.000000 0.000000 0.000000
# 3 -0.006549 -0.012897 0.070690 0.000000 0.000000 0.000000
# 4 0.000000 0.000000 0.000000 0.032160 0.000000 0.000000
# 5 0.000000 0.000000 0.000000 0.000000 0.033386 0.000000
# 6 0.000000 0.000000 0.000000 0.000000 0.000000 0.004191
#
#
# Mechanical properties :
#
#
# Convention : Reuss Voigt Hill
#
# Bulk Modulus (GPa) = 22.56314 81.76217 52.16266
# Shear Modulus (GPa) = 23.48398 76.76223 50.12311
#
# Velocity S-wave (km/s) = 3.14497 5.68596 4.59461
# Velocity P-wave (km/s) = 4.76348 8.80584 7.07932
#
# Compressibility (1/GPa) = 0.04432007
#
# Stress axis : x y z
#
# Youngs Moduli (GPa) = 145.71334 113.53355 14.14634
#
# Poissons Ratio (x) = 0.17878 0.09264
# Poissons Ratio (y) = 0.22946 0.18244
# Poissons Ratio (z) = 0.95421 1.46423
#
# Static dielectric constant tensor:
#      x y z
#    x 1.883740 0.000000 0.000000 
#    y 0.000000 1.920810 0.000000 
#    z 0.000000 0.000000 2.004780 
# 
# From -- ./inp_files/16160.got.cif
#   From: 2010.05.17/outbox.cif.g08.bks.cpg/sg24_9_cif.got.tgz:16160.got - 2010.06.04 00:33:39.
