data_PCOD9334427
_publ_section_title
;
Structure prediction by ZEFSAII (Michael W. Deem and Ramdas Pophale) SiO2 
 PCOD9334427
Probable space group: I 21 21 21
;
_chemical_formula_sum "Si O2"
_cell_formula_units_Z 40
_cell_length_a 9.653682
_cell_length_b 7.328780
_cell_length_c 29.593776
_cell_angle_alpha 90.000000
_cell_angle_beta 90.000000
_cell_angle_gamma 90.000000
_cell_volume 2093.751116
_symmetry_space_group_name_H-M "I 21 21 21"
_symmetry_group_IT_number 24
_symmetry_cell_setting 'orthorhombic'
loop_
_space_group_symop_operation_xyz
x,y,z
-x,1/2-y,z
x,-y,1/2-z
1/2-x,y,-z
1/2+x,1/2+y,1/2+z
1/2-x,-y,1/2+z
1/2+x,1/2-y,-z
-x,1/2+y,1/2-z
loop_
_atom_site_type_symbol
_atom_site_label
_atom_site_fract_x
_atom_site_fract_y
_atom_site_fract_z
Si Si1 0.786810 0.500000 0.750000
Si Si2 0.670790 0.986199 0.367024
Si Si3 0.000000 0.750000 0.699506
Si Si4 0.347244 0.830593 0.837898
Si Si5 0.854871 0.838914 0.537147
Si Si6 0.649088 0.323511 0.900270
O O1 0.698716 0.578163 0.791227
O O2 0.882184 0.662231 0.730408
O O3 0.554635 0.911316 0.333222
O O4 0.621781 0.972265 0.419495
O O5 0.790397 0.830209 0.366179
O O6 0.737230 0.175734 0.352512
O O7 0.500000 0.750000 0.833122
O O8 0.354713 0.984874 0.876129
O O9 0.750000 0.921974 0.500000
O O10 0.758771 0.680639 0.559155
O O11 0.000000 0.750000 0.522536
O O12 0.500000 0.250000 0.914888
#
# Coordination Sequence:
#
# PCOD9334427 Si02
#       6
#     4   8   4   8   8   8
#     4  12  26  38  64  92 126 170 226 276 318 394
#     4  10  22  40  66  87 129 170 215 264 327 394
#     4  12  22  46  58  92 126 174 224 270 334 386
#     4  12  24  40  65  95 126 175 219 272 332 390
#     4  10  20  38  66  98 129 169 214 269 327 391
#     4  10  20  41  64  90 128 172 215 263 329 393
#
# _framework density 19.104465999999999
#
# number of rings (size 3 to 8) (size 9 to 14) (size 15 to 20)
#    1.200    0.000    5.000    1.800    0.000    2.400 
#    0.000    1.000    0.000    0.000    0.000    0.000 
#    0.000    0.000    0.000    0.000    0.000    0.000 
#
# Total GULP energy -111482.456058 kJ/mol
# GULP energy per Si atom -5574.122803 kJ/mol
# Density = 1.906098 g / cm^3
# Si number density = 19.104466 Si / 1000 Ang^3
#
#
#
# Elastic Constant Matrix: (Units=GPa)
#
#
# Indices 1 2 3 4 5 6 
#
# 1 82.2323 19.9867 24.4253 0.0000 0.0000 0.0000
# 2 19.9867 82.8240 19.0652 0.0000 0.0000 0.0000
# 3 24.4253 19.0652 81.0593 0.0000 0.0000 0.0000
# 4 0.0000 0.0000 0.0000 9.6544 0.0000 0.0000
# 5 0.0000 0.0000 0.0000 0.0000 8.8951 0.0000
# 6 0.0000 0.0000 0.0000 0.0000 0.0000 31.6933
#
#
#
# Elastic Compliance Matrix: (Units=1/GPa)
#
#
# Indices 1 2 3 4 5 6 
#
# 1 0.013834 -0.002515 -0.003577 0.000000 0.000000 0.000000
# 2 -0.002515 0.013222 -0.002352 0.000000 0.000000 0.000000
# 3 -0.003577 -0.002352 0.013968 0.000000 0.000000 0.000000
# 4 0.000000 0.000000 0.000000 0.103580 0.000000 0.000000
# 5 0.000000 0.000000 0.000000 0.000000 0.112421 0.000000
# 6 0.000000 0.000000 0.000000 0.000000 0.000000 0.031552
#
#
# Mechanical properties :
#
#
# Convention : Reuss Voigt Hill
#
# Bulk Modulus (GPa) = 41.43203 41.45223 41.44213
# Shear Modulus (GPa) = 15.94839 22.22445 19.08642
#
# Velocity S-wave (km/s) = 2.89242 3.41444 3.16421
# Velocity P-wave (km/s) = 5.73489 6.10649 5.92361
#
# Compressibility (1/GPa) = 0.02413592
#
# Stress axis : x y z
#
# Youngs Moduli (GPa) = 72.28315 75.63082 71.59356
#
# Poissons Ratio (x) = 0.19022 0.25610
# Poissons Ratio (y) = 0.18180 0.16839
# Poissons Ratio (z) = 0.25857 0.17788
#
# Static dielectric constant tensor:
#      x y z
#    x 1.705630 0.000000 0.000000 
#    y 0.000000 1.636440 0.000000 
#    z 0.000000 0.000000 1.691830 
# 
# From -- ./inp_files/35047.got.cif
#   From: 2010.05.17/outbox.cif.g08.bks.cpg/sg24_18_cif.got.tgz:35047.got - 2010.06.04 00:33:39.
