data_PCOD9334737
_publ_section_title
;
Structure prediction by ZEFSAII (Michael W. Deem and Ramdas Pophale) SiO2 
 PCOD9334737
Probable space group: I 21 21 21
;
_chemical_formula_sum "Si O2"
_cell_formula_units_Z 56
_cell_length_a 20.873128
_cell_length_b 15.032127
_cell_length_c 9.383932
_cell_angle_alpha 90.000000
_cell_angle_beta 90.000000
_cell_angle_gamma 90.000000
_cell_volume 2944.372987
_symmetry_space_group_name_H-M "I 21 21 21"
_symmetry_group_IT_number 24
_symmetry_cell_setting 'orthorhombic'
loop_
_space_group_symop_operation_xyz
x,y,z
-x,1/2-y,z
x,-y,1/2-z
1/2-x,y,-z
1/2+x,1/2+y,1/2+z
1/2-x,-y,1/2+z
1/2+x,1/2-y,-z
-x,1/2+y,1/2-z
loop_
_atom_site_type_symbol
_atom_site_label
_atom_site_fract_x
_atom_site_fract_y
_atom_site_fract_z
Si Si1 0.571221 0.898121 0.885176
Si Si2 0.441684 0.181817 0.943759
Si Si3 0.970517 0.046000 0.893235
Si Si4 0.927728 0.593432 0.179105
Si Si5 0.250000 0.601458 0.500000
Si Si6 0.927209 0.727113 0.930429
Si Si7 0.179765 0.500000 0.250000
Si Si8 0.866161 0.800369 0.656605
O O1 0.504857 0.905058 0.801550
O O2 0.632007 0.921264 0.793182
O O3 0.577222 0.801493 0.949163
O O4 0.563117 0.971332 0.009851
O O5 0.500000 0.250000 0.921268
O O6 0.405818 0.163714 0.796562
O O7 0.473875 0.095072 0.017645
O O8 0.392893 0.226485 0.050691
O O9 0.917080 0.117996 0.848675
O O10 0.996018 0.000000 0.750000
O O11 0.905196 0.500000 0.250000
O O12 0.920158 0.632884 0.017169
O O13 0.218300 0.536300 0.383747
O O14 0.199593 0.660679 0.591852
O O15 0.875092 0.753452 0.811217
O O16 0.000000 0.750000 0.870384
#
# Coordination Sequence:
#
# PCOD9334737 Si02
#       8
#     8   8   8   8   4   8   4   8
#     4  11  20  36  61  89 133 164 201 259 326 390
#     4  10  21  34  56  84 123 163 202 251 326 377
#     4  11  19  33  61  92 132 166 204 262 331 393
#     4  11  21  35  59  96 126 162 197 252 331 413
#     4  12  30  42  62  84 130 180 246 256 314 374
#     4  10  22  36  61  92 132 166 207 256 330 399
#     4  12  26  42  60  92 122 184 222 266 306 384
#     4  11  24  41  55  86 125 180 212 271 303 375
#
# _framework density 19.019328999999999
#
# number of rings (size 3 to 8) (size 9 to 14) (size 15 to 20)
#    0.000    1.143    5.000    2.571    9.000    0.000 
#    0.000    0.000    0.000    0.000    0.000    3.000 
#    0.000    0.000    0.000    0.000    0.000    0.000 
#
# Total GULP energy -156065.533463 kJ/mol
# GULP energy per Si atom -5573.769052 kJ/mol
# Density = 1.897604 g / cm^3
# Si number density = 19.019329 Si / 1000 Ang^3
#
#
#
# Elastic Constant Matrix: (Units=GPa)
#
#
# Indices 1 2 3 4 5 6 
#
# 1 40.7062 13.5148 6.0567 0.0000 0.0000 0.0000
# 2 13.5148 72.9542 33.8696 0.0000 0.0000 0.0000
# 3 6.0567 33.8696 69.7512 0.0000 0.0000 0.0000
# 4 0.0000 0.0000 0.0000 45.0284 0.0000 0.0000
# 5 0.0000 0.0000 0.0000 0.0000 29.6813 0.0000
# 6 0.0000 0.0000 0.0000 0.0000 0.0000 -8.0786
#
#
#
# Elastic Compliance Matrix: (Units=1/GPa)
#
#
# Indices 1 2 3 4 5 6 
#
# 1 0.026177 -0.004898 0.000105 0.000000 0.000000 0.000000
# 2 -0.004898 0.018613 -0.008613 0.000000 0.000000 0.000000
# 3 0.000105 -0.008613 0.018510 0.000000 0.000000 0.000000
# 4 0.000000 0.000000 0.000000 0.022208 0.000000 0.000000
# 5 0.000000 0.000000 0.000000 0.000000 0.033691 0.000000
# 6 0.000000 0.000000 0.000000 0.000000 0.000000 -0.123784
#
#
# Mechanical properties :
#
#
# Convention : Reuss Voigt Hill
#
# Bulk Modulus (GPa) = 27.40583 32.25485 29.83034
# Shear Modulus (GPa) = 145.39455 21.99092 83.69274
#
# Velocity S-wave (km/s) = 8.75281 3.40404 6.64075
# Velocity P-wave (km/s) = 10.79767 5.69612 8.63236
#
# Compressibility (1/GPa) = 0.03648858
#
# Stress axis : x y z
#
# Youngs Moduli (GPa) = 38.20170 53.72531 54.02570
#
# Poissons Ratio (x) = 0.26316 -0.00570
# Poissons Ratio (y) = 0.18712 0.46531
# Poissons Ratio (z) = -0.00403 0.46273
#
# Static dielectric constant tensor:
#      x y z
#    x 1.650950 0.000000 0.000000 
#    y 0.000000 1.741210 0.000000 
#    z 0.000000 0.000000 1.771010 
# 
# From -- ./inp_files/15292.got.cif
#   From: 2010.05.17/outbox.cif.g08.bks.cpg/sg24_8_cif.got.tgz:15292.got - 2010.06.04 00:33:39.
