data_PCOD9334702
_publ_section_title
;
Structure prediction by ZEFSAII (Michael W. Deem and Ramdas Pophale) SiO2 
 PCOD9334702
Probable space group: I 21 21 21
;
_chemical_formula_sum "Si O2"
_cell_formula_units_Z 36
_cell_length_a 17.631739
_cell_length_b 7.109072
_cell_length_c 13.842152
_cell_angle_alpha 90.000000
_cell_angle_beta 90.000000
_cell_angle_gamma 90.000000
_cell_volume 1735.048723
_symmetry_space_group_name_H-M "I 21 21 21"
_symmetry_group_IT_number 24
_symmetry_cell_setting 'orthorhombic'
loop_
_space_group_symop_operation_xyz
x,y,z
-x,1/2-y,z
x,-y,1/2-z
1/2-x,y,-z
1/2+x,1/2+y,1/2+z
1/2-x,-y,1/2+z
1/2+x,1/2-y,-z
-x,1/2+y,1/2-z
loop_
_atom_site_type_symbol
_atom_site_label
_atom_site_fract_x
_atom_site_fract_y
_atom_site_fract_z
Si Si1 0.705146 0.872591 0.656192
Si Si2 0.907500 0.523278 0.357766
Si Si3 0.333572 0.296280 0.519242
Si Si4 0.619884 0.959347 0.358120
Si Si5 0.500000 0.250000 0.010342
O O1 0.660327 0.677004 0.654395
O O2 0.687624 0.000000 0.750000
O O3 0.678131 0.999218 0.566955
O O4 0.796532 0.863769 0.650717
O O5 0.940298 0.500000 0.250000
O O6 0.875843 0.333227 0.404619
O O7 0.966463 0.597282 0.436566
O O8 0.250000 0.214061 0.500000
O O9 0.370930 0.343928 0.416705
O O10 0.592692 0.000000 0.250000
O O11 0.564322 0.832103 0.420457
#
# Coordination Sequence:
#
# PCOD9334702 Si02
#       5
#     8   8   8   8   4
#     4  10  20  44  72 100 134 167 230 293 332 382
#     4  12  26  42  70 106 135 178 227 274 343 411
#     4  10  22  40  70 101 130 171 223 286 336 383
#     4  10  24  46  67  96 140 182 225 284 332 393
#     4  12  28  42  64 100 146 188 210 270 340 422
#
# _framework density 20.748697
#
# number of rings (size 3 to 8) (size 9 to 14) (size 15 to 20)
#    0.000    1.333    4.444    0.000    3.111    5.333 
#    0.000    1.111    0.000    0.000    0.000    0.000 
#    0.000    0.000    0.000    0.000    0.000    0.000 
#
# Total GULP energy -100568.642671 kJ/mol
# GULP energy per Si atom -5587.146815 kJ/mol
# Density = 2.070147 g / cm^3
# Si number density = 20.748697 Si / 1000 Ang^3
#
#
#
# Elastic Constant Matrix: (Units=GPa)
#
#
# Indices 1 2 3 4 5 6 
#
# 1 27.2813 6.0437 23.1867 0.0000 0.0000 0.0000
# 2 6.0437 44.1225 23.7055 0.0000 0.0000 0.0000
# 3 23.1867 23.7055 180.1822 0.0000 0.0000 0.0000
# 4 0.0000 0.0000 0.0000 35.9287 0.0000 0.0000
# 5 0.0000 0.0000 0.0000 0.0000 12.1725 0.0000
# 6 0.0000 0.0000 0.0000 0.0000 0.0000 9.3790
#
#
#
# Elastic Compliance Matrix: (Units=1/GPa)
#
#
# Indices 1 2 3 4 5 6 
#
# 1 0.041530 -0.003032 -0.004945 0.000000 0.000000 0.000000
# 2 -0.003032 0.024609 -0.002848 0.000000 0.000000 0.000000
# 3 -0.004945 -0.002848 0.006561 0.000000 0.000000 0.000000
# 4 0.000000 0.000000 0.000000 0.027833 0.000000 0.000000
# 5 0.000000 0.000000 0.000000 0.000000 0.082152 0.000000
# 6 0.000000 0.000000 0.000000 0.000000 0.000000 0.106621
#
#
# Mechanical properties :
#
#
# Convention : Reuss Voigt Hill
#
# Bulk Modulus (GPa) = 19.58824 39.71754 29.65289
# Shear Modulus (GPa) = 15.24518 24.73939 19.99228
#
# Velocity S-wave (km/s) = 2.71357 3.45677 3.10747
# Velocity P-wave (km/s) = 4.39081 5.92588 5.21513
#
# Compressibility (1/GPa) = 0.05105104
#
# Stress axis : x y z
#
# Youngs Moduli (GPa) = 24.07905 40.63498 152.41627
#
# Poissons Ratio (x) = 0.12319 0.75376
# Poissons Ratio (y) = 0.07300 0.43402
# Poissons Ratio (z) = 0.11908 0.11571
#
# Static dielectric constant tensor:
#      x y z
#    x 1.794080 0.000000 0.000000 
#    y 0.000000 1.746680 0.000000 
#    z 0.000000 0.000000 1.771000 
# 
# From -- ./inp_files/27347.got.cif
#   From: 2010.05.17/outbox.cif.g08.bks.cpg/sg24_14_cif.got.tgz:27347.got - 2010.06.04 00:33:39.
