data_PCOD9334193
_publ_section_title
;
Structure prediction by ZEFSAII (Michael W. Deem and Ramdas Pophale) SiO2 
 PCOD9334193
Probable space group: I 21 21 21
;
_chemical_formula_sum "Si O2"
_cell_formula_units_Z 32
_cell_length_a 5.629360
_cell_length_b 33.000762
_cell_length_c 7.406028
_cell_angle_alpha 90.000000
_cell_angle_beta 90.000000
_cell_angle_gamma 90.000000
_cell_volume 1375.841296
_symmetry_space_group_name_H-M "I 21 21 21"
_symmetry_group_IT_number 24
_symmetry_cell_setting 'orthorhombic'
loop_
_space_group_symop_operation_xyz
x,y,z
-x,1/2-y,z
x,-y,1/2-z
1/2-x,y,-z
1/2+x,1/2+y,1/2+z
1/2-x,-y,1/2+z
1/2+x,1/2-y,-z
-x,1/2+y,1/2-z
loop_
_atom_site_type_symbol
_atom_site_label
_atom_site_fract_x
_atom_site_fract_y
_atom_site_fract_z
Si Si1 0.391123 0.918686 0.809154
Si Si2 0.986837 0.669970 0.299814
Si Si3 0.375344 0.000000 0.250000
Si Si4 0.993353 0.798348 0.713175
Si Si5 0.750000 0.966630 0.000000
O O1 0.434752 0.877926 0.700441
O O2 0.649597 0.936986 0.849623
O O3 0.258469 0.957549 0.728131
O O4 0.250000 0.910013 0.000000
O O5 0.747474 0.687495 0.209870
O O6 0.998336 0.687683 0.502756
O O7 0.243728 0.682547 0.217542
O O8 0.539761 0.006821 0.423537
O O9 0.000000 0.750000 0.722573
#
# Coordination Sequence:
#
# PCOD9334193 Si02
#       5
#     8   8   4   8   4
#     4  10  23  41  61  90 126 173 218 262 324 387
#     4  10  20  36  61  95 124 164 207 263 319 394
#     4  10  22  44  64  92 124 176 218 280 330 388
#     4  10  20  39  64  98 128 163 207 274 340 379
#     4  10  22  44  64  84 128 174 210 280 324 392
#
# _framework density 23.258496000000001
#
# number of rings (size 3 to 8) (size 9 to 14) (size 15 to 20)
#    0.000    2.000    0.000    4.500    7.000    0.000 
#   22.500    0.000    0.000    4.500    0.000    0.000 
#    0.000    0.000    0.000    0.000    0.000    0.000 
#
# Total GULP energy -89297.569498 kJ/mol
# GULP energy per Si atom -5581.098094 kJ/mol
# Density = 2.320556 g / cm^3
# Si number density = 23.258496 Si / 1000 Ang^3
#
#
#
# Elastic Constant Matrix: (Units=GPa)
#
#
# Indices 1 2 3 4 5 6 
#
# 1 205.0878 88.9464 9.2260 0.0002 0.0000 0.0000
# 2 88.9464 225.8229 17.1999 -0.0008 -0.0002 -0.0002
# 3 9.2260 17.1999 39.0430 -0.0022 -0.0001 -0.0004
# 4 0.0002 -0.0008 -0.0022 14.9149 -0.0001 -0.0002
# 5 0.0000 -0.0002 -0.0001 -0.0001 2.1173 -0.0001
# 6 0.0000 -0.0002 -0.0004 -0.0002 -0.0001 -9.2638
#
#
#
# Elastic Compliance Matrix: (Units=1/GPa)
#
#
# Indices 1 2 3 4 5 6 
#
# 1 0.005886 -0.002289 -0.000382 0.000000 0.000000 0.000000
# 2 -0.002289 0.005472 -0.001870 0.000000 0.000000 0.000000
# 3 -0.000382 -0.001870 0.026527 0.000004 0.000002 -0.000001
# 4 0.000000 0.000000 0.000004 0.067047 0.000004 -0.000001
# 5 0.000000 0.000000 0.000002 0.000004 0.472310 -0.000007
# 6 0.000000 0.000000 -0.000001 -0.000001 -0.000007 -0.107947
#
#
# Mechanical properties :
#
#
# Convention : Reuss Voigt Hill
#
# Bulk Modulus (GPa) = 34.71940 77.85537 56.28738
# Shear Modulus (GPa) = 10.24633 25.19241 17.71937
#
# Velocity S-wave (km/s) = 2.10118 3.29469 2.76315
# Velocity P-wave (km/s) = 4.56581 6.92964 5.86799
#
# Compressibility (1/GPa) = 0.02880234
#
# Stress axis : x y z
#
# Youngs Moduli (GPa) = 169.89458 182.73718 37.69761
#
# Poissons Ratio (x) = 0.41833 0.01442
# Poissons Ratio (y) = 0.38893 0.07049
# Poissons Ratio (z) = 0.06497 0.34168
#
# Static dielectric constant tensor:
#      x y z
#    x 1.977030 0.000000 0.000000 
#    y 0.000000 1.861970 0.000000 
#    z 0.000000 0.000000 1.928630 
# 
# From -- ./inp_files/1168.got.cif
#   From: 2010.05.17/outbox.cif.g08.bks.cpg/sg24_1_cif.got.tgz:1168.got - 2010.06.04 00:33:39.
