data_PCOD9334050
_publ_section_title
;
Structure prediction by ZEFSAII (Michael W. Deem and Ramdas Pophale) SiO2 
 PCOD9334050
Probable space group: I 21 21 21
;
_chemical_formula_sum "Si O2"
_cell_formula_units_Z 48
_cell_length_a 22.524742
_cell_length_b 17.638707
_cell_length_c 5.414200
_cell_angle_alpha 90.000000
_cell_angle_beta 90.000000
_cell_angle_gamma 90.000000
_cell_volume 2151.101316
_symmetry_space_group_name_H-M "I 21 21 21"
_symmetry_group_IT_number 24
_symmetry_cell_setting 'orthorhombic'
loop_
_space_group_symop_operation_xyz
x,y,z
-x,1/2-y,z
x,-y,1/2-z
1/2-x,y,-z
1/2+x,1/2+y,1/2+z
1/2-x,-y,1/2+z
1/2+x,1/2-y,-z
-x,1/2+y,1/2-z
loop_
_atom_site_type_symbol
_atom_site_label
_atom_site_fract_x
_atom_site_fract_y
_atom_site_fract_z
Si Si1 0.250000 0.364436 0.500000
Si Si2 0.967351 0.584180 0.496907
Si Si3 0.695607 0.000000 0.750000
Si Si4 0.118395 0.327874 0.501960
Si Si5 0.930127 0.339215 0.502850
Si Si6 0.597461 0.922604 0.496584
Si Si7 0.649915 0.524097 0.999821
O O1 0.265148 0.425634 0.713839
O O2 0.189872 0.317703 0.525267
O O3 0.961742 0.634515 0.744436
O O4 0.912368 0.525411 0.498768
O O5 0.031119 0.544333 0.496017
O O6 0.962199 0.634433 0.248945
O O7 0.649621 0.016171 0.971967
O O8 0.083933 0.248894 0.503015
O O9 0.105642 0.370070 0.241682
O O10 0.102291 0.375220 0.746208
O O11 0.869405 0.388823 0.500607
O O12 0.680638 0.500000 0.250000
O O13 0.680847 0.500000 0.750000
#
# Coordination Sequence:
#
# PCOD9334050 Si02
#       7
#     4   8   4   8   8   8   8
#     4  10  22  44  62  84 112 152 204 266 286 332
#     4  10  20  35  56  82 122 151 189 230 281 354
#     4  10  22  40  66  84 114 152 206 256 298 326
#     4  11  24  40  58  83 112 152 199 241 304 345
#     4  10  20  35  55  81 116 157 188 229 288 356
#     4  11  24  37  58  88 113 152 194 238 291 362
#     4   8  16  30  49  76 103 149 180 215 264 328
#
# _framework density 22.314150000000001
#
# number of rings (size 3 to 8) (size 9 to 14) (size 15 to 20)
#    0.000    2.000    0.000    3.000    3.500    8.000 
#    9.000    0.000    0.000    0.000    0.000   10.500 
#    0.000    0.000    0.000    0.000    0.000    0.000 
#
# Total GULP energy -134106.632266 kJ/mol
# GULP energy per Si atom -5587.776344 kJ/mol
# Density = 2.226336 g / cm^3
# Si number density = 22.314150 Si / 1000 Ang^3
#
#
#
# Elastic Constant Matrix: (Units=GPa)
#
#
# Indices 1 2 3 4 5 6 
#
# 1 105.6036 8.8973 16.2863 0.0000 0.0000 0.0000
# 2 8.8973 80.0683 46.5161 0.0000 0.0000 0.0000
# 3 16.2863 46.5161 209.6001 0.0000 0.0000 0.0000
# 4 0.0000 0.0000 0.0000 33.3411 0.0000 0.0000
# 5 0.0000 0.0000 0.0000 0.0000 9.9201 0.0000
# 6 0.0000 0.0000 0.0000 0.0000 0.0000 97.9021
#
#
#
# Elastic Compliance Matrix: (Units=1/GPa)
#
#
# Indices 1 2 3 4 5 6 
#
# 1 0.009621 -0.000729 -0.000586 0.000000 0.000000 0.000000
# 2 -0.000729 0.014393 -0.003138 0.000000 0.000000 0.000000
# 3 -0.000586 -0.003138 0.005513 0.000000 0.000000 0.000000
# 4 0.000000 0.000000 0.000000 0.029993 0.000000 0.000000
# 5 0.000000 0.000000 0.000000 0.000000 0.100805 0.000000
# 6 0.000000 0.000000 0.000000 0.000000 0.000000 0.010214
#
#
# Mechanical properties :
#
#
# Convention : Reuss Voigt Hill
#
# Bulk Modulus (GPa) = 48.49038 59.85238 54.17138
# Shear Modulus (GPa) = 26.83584 49.80416 38.32000
#
# Velocity S-wave (km/s) = 3.47167 4.72948 4.14852
# Velocity P-wave (km/s) = 6.15207 7.53026 6.87578
#
# Compressibility (1/GPa) = 0.02062265
#
# Stress axis : x y z
#
# Youngs Moduli (GPa) = 103.93800 69.47758 181.39486
#
# Poissons Ratio (x) = 0.05063 0.10627
# Poissons Ratio (y) = 0.07575 0.56915
# Poissons Ratio (z) = 0.06089 0.21799
#
# Static dielectric constant tensor:
#      x y z
#    x 1.825450 0.000000 0.000000 
#    y 0.000000 1.785540 0.000000 
#    z 0.000000 0.000000 1.862130 
# 
# From -- ./inp_files/4869.got.cif
#   From: 2010.05.17/outbox.cif.g08.bks.cpg/sg24_3_cif.got.tgz:4869.got - 2010.06.04 00:33:39.
