data_PCOD9334145
_publ_section_title
;
Structure prediction by ZEFSAII (Michael W. Deem and Ramdas Pophale) SiO2 
 PCOD9334145
Probable space group: I 21 21 21
;
_chemical_formula_sum "Si O2"
_cell_formula_units_Z 64
_cell_length_a 12.978342
_cell_length_b 31.113315
_cell_length_c 8.051119
_cell_angle_alpha 90.000000
_cell_angle_beta 90.000000
_cell_angle_gamma 90.000000
_cell_volume 3251.035756
_symmetry_space_group_name_H-M "I 21 21 21"
_symmetry_group_IT_number 24
_symmetry_cell_setting 'orthorhombic'
loop_
_space_group_symop_operation_xyz
x,y,z
-x,1/2-y,z
x,-y,1/2-z
1/2-x,y,-z
1/2+x,1/2+y,1/2+z
1/2-x,-y,1/2+z
1/2+x,1/2-y,-z
-x,1/2+y,1/2-z
loop_
_atom_site_type_symbol
_atom_site_label
_atom_site_fract_x
_atom_site_fract_y
_atom_site_fract_z
Si Si1 0.980209 0.800846 0.781663
Si Si2 0.139019 0.876399 0.781594
Si Si3 0.129547 0.125119 0.322037
Si Si4 0.260115 0.549389 0.300611
Si Si5 0.010968 0.547089 0.677036
Si Si6 0.367025 0.336440 0.971056
Si Si7 0.952325 0.922509 0.339240
Si Si8 0.529007 0.200152 0.661851
O O1 0.903313 0.811553 0.633426
O O2 0.000000 0.750000 0.777865
O O3 0.079008 0.831624 0.747448
O O4 0.942872 0.810718 0.970388
O O5 0.259537 0.875691 0.733976
O O6 0.075447 0.917149 0.712683
O O7 0.140305 0.879645 0.981055
O O8 0.052856 0.087570 0.264839
O O9 0.069324 0.170139 0.294858
O O10 0.254520 0.500000 0.250000
O O11 0.250000 0.552932 0.500000
O O12 0.376371 0.563196 0.254908
O O13 0.154083 0.570969 0.238416
O O14 0.988733 0.500000 0.750000
O O15 0.026857 0.541779 0.478121
O O16 0.432344 0.379549 0.946947
O O17 0.386155 0.310530 0.800612
O O18 0.250000 0.348690 0.000000
O O19 0.500000 0.250000 0.669718
#
# Coordination Sequence:
#
# PCOD9334145 Si02
#       8
#     8   8   8   8   8   8   8   8
#     4  10  21  38  62  87 118 165 204 247 312 360
#     4  10  20  40  58  81 118 153 199 253 292 365
#     4   9  21  37  59  81 113 161 193 246 312 341
#     4   9  19  34  56  82 114 150 188 238 296 349
#     4  10  20  36  58  83 114 153 192 237 296 354
#     4  11  21  35  58  87 123 155 195 254 310 359
#     4  10  20  37  56  85 117 153 196 243 300 358
#     4   9  20  39  58  85 121 155 209 255 294 370
#
# _framework density 19.686033999999999
#
# number of rings (size 3 to 8) (size 9 to 14) (size 15 to 20)
#    0.000    2.250    1.250    1.500    0.000    5.000 
#    0.000    5.625    0.000    0.000    0.000    0.000 
#    0.000    0.000    0.000    0.000    0.000    0.000 
#
# Total GULP energy -178326.120550 kJ/mol
# GULP energy per Si atom -5572.691267 kJ/mol
# Density = 1.964123 g / cm^3
# Si number density = 19.686034 Si / 1000 Ang^3
#
#
#
# Elastic Constant Matrix: (Units=GPa)
#
#
# Indices 1 2 3 4 5 6 
#
# 1 113.6619 24.1177 23.7571 -0.0004 0.0028 0.0002
# 2 24.1177 58.4150 5.5467 0.0008 0.0031 -0.0002
# 3 23.7571 5.5467 39.8883 0.0043 0.0084 -0.0008
# 4 -0.0004 0.0008 0.0043 32.1904 -0.0015 -0.0008
# 5 0.0028 0.0031 0.0084 -0.0015 6.0298 0.0003
# 6 0.0002 -0.0002 -0.0008 -0.0008 0.0003 20.7595
#
#
#
# Elastic Compliance Matrix: (Units=1/GPa)
#
#
# Indices 1 2 3 4 5 6 
#
# 1 0.010870 -0.003925 -0.005928 0.000001 0.000005 0.000000
# 2 -0.003925 0.018765 -0.000272 0.000000 -0.000007 0.000000
# 3 -0.005928 -0.000272 0.028639 -0.000004 -0.000037 0.000001
# 4 0.000001 0.000000 -0.000004 0.031065 0.000008 0.000001
# 5 0.000005 -0.000007 -0.000037 0.000008 0.165843 -0.000002
# 6 0.000000 0.000000 0.000001 0.000001 -0.000002 0.048171
#
#
# Mechanical properties :
#
#
# Convention : Reuss Voigt Hill
#
# Bulk Modulus (GPa) = 26.29928 35.42313 30.86121
# Shear Modulus (GPa) = 14.86867 22.36552 18.61709
#
# Velocity S-wave (km/s) = 2.75124 3.37428 3.07856
# Velocity P-wave (km/s) = 4.84570 5.76317 5.32423
#
# Compressibility (1/GPa) = 0.03802386
#
# Stress axis : x y z
#
# Youngs Moduli (GPa) = 91.99679 53.29018 34.91786
#
# Poissons Ratio (x) = 0.20916 0.20700
# Poissons Ratio (y) = 0.36108 0.00949
# Poissons Ratio (z) = 0.54538 0.01448
#
# Static dielectric constant tensor:
#      x y z
#    x 1.739900 0.000000 0.000000 
#    y 0.000000 1.713340 0.000000 
#    z 0.000000 0.000000 1.742490 
# 
# From -- ./inp_files/11647.got.cif
#   From: 2010.05.17/outbox.cif.g08.bks.cpg/sg24_6_cif.got.tgz:11647.got - 2010.06.04 00:33:39.
