data_PCOD9334574
_publ_section_title
;
Structure prediction by ZEFSAII (Michael W. Deem and Ramdas Pophale) SiO2 
 PCOD9334574
Probable space group: I 21 21 21
;
_chemical_formula_sum "Si O2"
_cell_formula_units_Z 40
_cell_length_a 15.842732
_cell_length_b 9.428492
_cell_length_c 11.229913
_cell_angle_alpha 90.000000
_cell_angle_beta 90.000000
_cell_angle_gamma 90.000000
_cell_volume 1677.446602
_symmetry_space_group_name_H-M "I 21 21 21"
_symmetry_group_IT_number 24
_symmetry_cell_setting 'orthorhombic'
loop_
_space_group_symop_operation_xyz
x,y,z
-x,1/2-y,z
x,-y,1/2-z
1/2-x,y,-z
1/2+x,1/2+y,1/2+z
1/2-x,-y,1/2+z
1/2+x,1/2-y,-z
-x,1/2+y,1/2-z
loop_
_atom_site_type_symbol
_atom_site_label
_atom_site_fract_x
_atom_site_fract_y
_atom_site_fract_z
Si Si1 0.939672 0.617347 0.501687
Si Si2 0.707594 0.149541 0.753453
Si Si3 0.750000 0.734874 0.500000
Si Si4 0.414176 0.000000 0.250000
Si Si5 0.578142 0.669164 0.866550
Si Si6 0.823215 0.722554 0.914021
O O1 0.839618 0.653729 0.508011
O O2 0.963251 0.563074 0.635801
O O3 0.942800 0.489779 0.405857
O O4 0.000000 0.750000 0.473814
O O5 0.744114 0.172826 0.882138
O O6 0.654737 0.290292 0.719916
O O7 0.780248 0.147127 0.652844
O O8 0.659555 0.000000 0.750000
O O9 0.356147 0.881021 0.187992
O O10 0.500000 0.750000 0.813041
O O11 0.602911 0.747998 0.991610
O O12 0.750000 0.658061 0.000000
#
# Coordination Sequence:
#
# PCOD9334574 Si02
#       6
#     8   8   4   4   8   8
#     4  11  27  46  77 114 154 204 269 319 396 470
#     4  11  26  44  74 108 148 201 259 320 397 470
#     4  12  28  48  76 110 150 200 266 332 376 492
#     4  10  20  40  66 104 152 194 248 316 386 450
#     4  10  25  47  77 102 158 199 250 317 400 469
#     4   9  20  39  68 101 137 192 244 302 381 460
#
# _framework density 23.845766000000001
#
# number of rings (size 3 to 8) (size 9 to 14) (size 15 to 20)
#    0.000    1.600    2.000    0.000   18.200    4.800 
#    1.800    0.000    0.000    0.000    0.000    0.000 
#    0.000    0.000    0.000    0.000    0.000    0.000 
#
# Total GULP energy -111672.875069 kJ/mol
# GULP energy per Si atom -5583.643753 kJ/mol
# Density = 2.379149 g / cm^3
# Si number density = 23.845766 Si / 1000 Ang^3
#
#
#
# Elastic Constant Matrix: (Units=GPa)
#
#
# Indices 1 2 3 4 5 6 
#
# 1 73.6908 38.1928 18.8032 0.0000 0.0000 0.0000
# 2 38.1928 140.6294 55.9170 0.0000 0.0000 0.0000
# 3 18.8032 55.9170 131.0705 0.0000 0.0000 0.0000
# 4 0.0000 0.0000 0.0000 9.4850 0.0000 0.0000
# 5 0.0000 0.0000 0.0000 0.0000 10.1201 0.0000
# 6 0.0000 0.0000 0.0000 0.0000 0.0000 36.6740
#
#
#
# Elastic Compliance Matrix: (Units=1/GPa)
#
#
# Indices 1 2 3 4 5 6 
#
# 1 0.015823 -0.004088 -0.000526 0.000000 0.000000 0.000000
# 2 -0.004088 0.009620 -0.003517 0.000000 0.000000 0.000000
# 3 -0.000526 -0.003517 0.009206 0.000000 0.000000 0.000000
# 4 0.000000 0.000000 0.000000 0.105429 0.000000 0.000000
# 5 0.000000 0.000000 0.000000 0.000000 0.098813 0.000000
# 6 0.000000 0.000000 0.000000 0.000000 0.000000 0.027267
#
#
# Mechanical properties :
#
#
# Convention : Reuss Voigt Hill
#
# Bulk Modulus (GPa) = 54.39096 63.46853 58.92974
# Shear Modulus (GPa) = 17.32804 26.75434 22.04119
#
# Velocity S-wave (km/s) = 2.69861 3.35322 3.04357
# Velocity P-wave (km/s) = 5.70692 6.45493 6.09242
#
# Compressibility (1/GPa) = 0.01838541
#
# Stress axis : x y z
#
# Youngs Moduli (GPa) = 63.19798 103.95200 108.63020
#
# Poissons Ratio (x) = 0.42498 0.05712
# Poissons Ratio (y) = 0.25837 0.38211
# Poissons Ratio (z) = 0.03323 0.36565
#
# Static dielectric constant tensor:
#      x y z
#    x 1.976600 0.000000 0.000000 
#    y 0.000000 1.902510 0.000000 
#    z 0.000000 0.000000 1.917400 
# 
# From -- ./inp_files/21386.got.cif
#   From: 2010.05.17/outbox.cif.g08.bks.cpg/sg24_11_cif.got.tgz:21386.got - 2010.06.04 00:33:39.
