data_PCOD9334385
_publ_section_title
;
Structure prediction by ZEFSAII (Michael W. Deem and Ramdas Pophale) SiO2 
 PCOD9334385
Probable space group: I 21 21 21
;
_chemical_formula_sum "Si O2"
_cell_formula_units_Z 32
_cell_length_a 31.780245
_cell_length_b 10.416299
_cell_length_c 5.154439
_cell_angle_alpha 90.000000
_cell_angle_beta 90.000000
_cell_angle_gamma 90.000000
_cell_volume 1706.287005
_symmetry_space_group_name_H-M "I 21 21 21"
_symmetry_group_IT_number 24
_symmetry_cell_setting 'orthorhombic'
loop_
_space_group_symop_operation_xyz
x,y,z
-x,1/2-y,z
x,-y,1/2-z
1/2-x,y,-z
1/2+x,1/2+y,1/2+z
1/2-x,-y,1/2+z
1/2+x,1/2-y,-z
-x,1/2+y,1/2-z
loop_
_atom_site_type_symbol
_atom_site_label
_atom_site_fract_x
_atom_site_fract_y
_atom_site_fract_z
Si Si1 0.443125 0.500000 0.250000
Si Si2 0.221170 0.000000 0.250000
Si Si3 0.483699 0.883912 0.914693
Si Si4 0.404846 0.235316 0.320289
Si Si5 0.139367 0.142688 0.184061
O O1 0.475034 0.450905 0.468939
O O2 0.415191 0.375189 0.206226
O O3 0.250000 0.016838 0.500000
O O4 0.189516 0.121305 0.210362
O O5 0.500000 0.750000 0.784301
O O6 0.464870 0.000000 0.750000
O O7 0.449306 0.837166 0.125533
O O8 0.381258 0.234105 0.598524
O O9 0.375773 0.170578 0.105083
O O10 0.123842 0.000000 0.250000
#
# Coordination Sequence:
#
# PCOD9334385 Si02
#       5
#     4   4   8   8   8
#     4  10  26  36  57  80 116 168 214 256 301 332
#     4  10  20  38  63  98 126 140 180 234 299 378
#     4  10  24  39  56  82 116 168 216 266 309 343
#     4  11  23  41  56  84 121 159 207 252 289 366
#     4  10  23  37  63  90 119 153 185 233 317 345
#
# _framework density 18.754170999999999
#
# number of rings (size 3 to 8) (size 9 to 14) (size 15 to 20)
#    0.750    1.000    0.000    3.000   14.000    1.000 
#    0.000    0.000    0.000    0.000    0.000   17.500 
#    0.000    0.000    0.000    0.000    0.000    0.000 
#
# Total GULP energy -89153.618867 kJ/mol
# GULP energy per Si atom -5572.101179 kJ/mol
# Density = 1.871149 g / cm^3
# Si number density = 18.754171 Si / 1000 Ang^3
#
#
#
# Elastic Constant Matrix: (Units=GPa)
#
#
# Indices 1 2 3 4 5 6 
#
# 1 108.6531 28.3748 33.6270 -0.0013 -0.0003 -0.0005
# 2 28.3748 116.5974 24.9009 -0.0003 -0.0005 0.0010
# 3 33.6270 24.9009 84.4625 -0.0017 -0.0018 0.0015
# 4 -0.0013 -0.0003 -0.0017 22.1180 0.0001 0.0026
# 5 -0.0003 -0.0005 -0.0018 0.0001 37.2029 0.0010
# 6 -0.0005 0.0010 0.0015 0.0026 0.0010 -15.6803
#
#
#
# Elastic Compliance Matrix: (Units=1/GPa)
#
#
# Indices 1 2 3 4 5 6 
#
# 1 0.010852 -0.001834 -0.003780 0.000000 0.000000 -0.000001
# 2 -0.001834 0.009463 -0.002060 0.000000 0.000000 0.000000
# 3 -0.003780 -0.002060 0.013952 0.000001 0.000001 0.000001
# 4 0.000000 0.000000 0.000001 0.045212 0.000000 0.000007
# 5 0.000000 0.000000 0.000001 0.000000 0.026880 0.000002
# 6 -0.000001 0.000000 0.000001 0.000007 0.000002 -0.063774
#
#
# Mechanical properties :
#
#
# Convention : Reuss Voigt Hill
#
# Bulk Modulus (GPa) = 52.85447 53.72426 53.28937
# Shear Modulus (GPa) = 77.83584 23.58213 50.70898
#
# Velocity S-wave (km/s) = 6.44929 3.54988 5.20552
# Velocity P-wave (km/s) = 9.14886 6.74618 8.03781
#
# Compressibility (1/GPa) = 0.01891988
#
# Stress axis : x y z
#
# Youngs Moduli (GPa) = 92.14581 105.67871 71.67561
#
# Poissons Ratio (x) = 0.19379 0.27094
# Poissons Ratio (y) = 0.16897 0.14763
# Poissons Ratio (z) = 0.34831 0.21766
#
# Static dielectric constant tensor:
#      x y z
#    x 1.675530 0.000000 0.000000 
#    y 0.000000 1.705490 0.000000 
#    z 0.000000 0.000000 1.727770 
# 
# From -- ./inp_files/7533.got.cif
#   From: 2010.05.17/outbox.cif.g08.bks.cpg/sg24_4_cif.got.tgz:7533.got - 2010.06.04 00:33:39.
