data_PCOD9334964
_publ_section_title
;
Structure prediction by ZEFSAII (Michael W. Deem and Ramdas Pophale) SiO2 
 PCOD9334964
Probable space group: I 21 21 21
;
_chemical_formula_sum "Si O2"
_cell_formula_units_Z 48
_cell_length_a 17.064332
_cell_length_b 8.186683
_cell_length_c 14.524000
_cell_angle_alpha 90.000000
_cell_angle_beta 90.000000
_cell_angle_gamma 90.000000
_cell_volume 2029.006819
_symmetry_space_group_name_H-M "I 21 21 21"
_symmetry_group_IT_number 24
_symmetry_cell_setting 'orthorhombic'
loop_
_space_group_symop_operation_xyz
x,y,z
-x,1/2-y,z
x,-y,1/2-z
1/2-x,y,-z
1/2+x,1/2+y,1/2+z
1/2-x,-y,1/2+z
1/2+x,1/2-y,-z
-x,1/2+y,1/2-z
loop_
_atom_site_type_symbol
_atom_site_label
_atom_site_fract_x
_atom_site_fract_y
_atom_site_fract_z
Si Si1 0.660159 0.003012 0.525957
Si Si2 0.582023 0.827920 0.806687
Si Si3 0.909229 0.694163 0.378144
Si Si4 0.917977 0.327920 0.806687
Si Si5 0.590772 0.194163 0.378144
Si Si6 0.339841 0.003011 0.025957
O O1 0.750000 0.019978 0.500000
O O2 0.634926 0.127388 0.607066
O O3 0.606828 0.032384 0.435703
O O4 0.642124 0.827628 0.568685
O O5 0.500000 0.750000 0.837277
O O6 0.614064 0.704975 0.728683
O O7 0.568787 0.000000 0.750000
O O8 0.893172 0.532384 0.435703
O O9 0.000000 0.750000 0.383018
O O10 0.931213 0.500000 0.750000
O O11 0.885936 0.204975 0.728683
O O12 0.865074 0.372612 0.892934
O O13 0.000000 0.250000 0.837277
O O14 0.500000 0.250000 0.383018
O O15 0.642124 0.327627 0.431316
O O16 0.250000 0.019977 0.000000
#
# Coordination Sequence:
#
# PCOD9334964 Si02
#       6
#     8   8   8   8   8   8
#     4  11  22  37  58  88 125 157 193 248 306 357
#     4   9  20  38  60  86 118 157 204 248 291 351
#     4  10  21  39  61  85 116 160 208 247 289 351
#     4   9  20  38  60  86 118 157 204 248 291 351
#     4  10  21  39  61  85 116 160 208 247 289 351
#     4  11  22  37  58  88 125 157 193 248 306 357
#
# _framework density 23.656894000000001
#
# number of rings (size 3 to 8) (size 9 to 14) (size 15 to 20)
#    0.000    2.000    0.000    3.000    0.000    6.667 
#    0.000    3.333    0.000    0.000    0.000    0.000 
#    0.000    0.000    0.000    0.000    0.000    0.000 
#
# Total GULP energy -134322.600123 kJ/mol
# GULP energy per Si atom -5596.775005 kJ/mol
# Density = 2.360305 g / cm^3
# Si number density = 23.656894 Si / 1000 Ang^3
#
#
#
# Elastic Constant Matrix: (Units=GPa)
#
#
# Indices 1 2 3 4 5 6 
#
# 1 118.7352 25.0115 66.7148 0.0000 0.0000 0.0000
# 2 25.0115 52.5062 39.0436 0.0000 0.0000 0.0000
# 3 66.7148 39.0436 139.1608 0.0000 0.0000 0.0000
# 4 0.0000 0.0000 0.0000 52.9881 0.0000 0.0000
# 5 0.0000 0.0000 0.0000 0.0000 64.5909 0.0000
# 6 0.0000 0.0000 0.0000 0.0000 0.0000 36.7426
#
#
#
# Elastic Compliance Matrix: (Units=1/GPa)
#
#
# Indices 1 2 3 4 5 6 
#
# 1 0.011655 -0.001765 -0.005092 0.000000 0.000000 0.000000
# 2 -0.001765 0.024334 -0.005981 0.000000 0.000000 0.000000
# 3 -0.005092 -0.005981 0.011305 0.000000 0.000000 0.000000
# 4 0.000000 0.000000 0.000000 0.018872 0.000000 0.000000
# 5 0.000000 0.000000 0.000000 0.000000 0.015482 0.000000
# 6 0.000000 0.000000 0.000000 0.000000 0.000000 0.027216
#
#
# Mechanical properties :
#
#
# Convention : Reuss Voigt Hill
#
# Bulk Modulus (GPa) = 46.25966 63.54909 54.90438
# Shear Modulus (GPa) = 35.27402 42.83982 39.05692
#
# Velocity S-wave (km/s) = 3.86562 4.26006 4.06763
# Velocity P-wave (km/s) = 6.28657 7.14973 6.73200
#
# Compressibility (1/GPa) = 0.02161711
#
# Stress axis : x y z
#
# Youngs Moduli (GPa) = 85.79838 41.09537 88.45459
#
# Poissons Ratio (x) = 0.07255 0.45044
# Poissons Ratio (y) = 0.15146 0.52903
# Poissons Ratio (z) = 0.43691 0.24578
#
# Static dielectric constant tensor:
#      x y z
#    x 1.822410 0.000000 0.000000 
#    y 0.000000 2.035170 0.000000 
#    z 0.000000 0.000000 1.912080 
# 
# From -- ./inp_files/27023.got.cif
#   From: 2010.05.17/outbox.cif.g08.bks.cpg/sg24_14_cif.got.tgz:27023.got - 2010.06.04 00:33:39.
