data_PCOD9334478
_publ_section_title
;
Structure prediction by ZEFSAII (Michael W. Deem and Ramdas Pophale) SiO2 
 PCOD9334478
Probable space group: I 21 21 21
;
_chemical_formula_sum "Si O2"
_cell_formula_units_Z 64
_cell_length_a 14.764530
_cell_length_b 9.318454
_cell_length_c 22.765446
_cell_angle_alpha 90.000000
_cell_angle_beta 90.000000
_cell_angle_gamma 90.000000
_cell_volume 3132.129106
_symmetry_space_group_name_H-M "I 21 21 21"
_symmetry_group_IT_number 24
_symmetry_cell_setting 'orthorhombic'
loop_
_space_group_symop_operation_xyz
x,y,z
-x,1/2-y,z
x,-y,1/2-z
1/2-x,y,-z
1/2+x,1/2+y,1/2+z
1/2-x,-y,1/2+z
1/2+x,1/2-y,-z
-x,1/2+y,1/2-z
loop_
_atom_site_type_symbol
_atom_site_label
_atom_site_fract_x
_atom_site_fract_y
_atom_site_fract_z
Si Si1 0.274952 0.306580 0.712283
Si Si2 0.106519 0.270054 0.629048
Si Si3 0.601382 0.617314 0.607891
Si Si4 0.688382 0.894261 0.658934
Si Si5 0.783459 0.521233 0.935307
Si Si6 0.059454 0.106980 0.303718
Si Si7 0.907739 0.723790 0.520103
Si Si8 0.309291 0.502005 0.450042
O O1 0.175705 0.300302 0.682959
O O2 0.328386 0.442488 0.682348
O O3 0.266542 0.329219 0.782071
O O4 0.337688 0.168326 0.700605
O O5 0.120678 0.399949 0.583058
O O6 0.000000 0.250000 0.642514
O O7 0.154031 0.135225 0.597159
O O8 0.615837 0.770370 0.640891
O O9 0.698070 0.537953 0.600502
O O10 0.543862 0.496484 0.640701
O O11 0.570790 0.651179 0.542161
O O12 0.749807 0.923460 0.601464
O O13 0.750000 0.571955 0.000000
O O14 0.842376 0.381464 0.946931
O O15 0.000000 0.250000 0.301984
O O16 0.042188 0.000000 0.250000
O O17 0.000000 0.750000 0.553998
O O18 0.858391 0.874070 0.513504
O O19 0.250000 0.423200 0.500000
#
# Coordination Sequence:
#
# PCOD9334478 Si02
#       8
#     8   8   8   8   8   8   8   8
#     4  10  23  42  67  94 134 176 224 273 344 402
#     4  11  23  40  66  96 138 179 227 287 339 411
#     4  11  21  42  65  89 130 176 218 272 343 410
#     4  10  20  39  70  91 125 174 221 274 333 407
#     4  10  20  39  62  90 131 179 216 272 348 412
#     4  12  27  43  68 100 130 175 226 274 340 413
#     4  11  22  36  59  95 128 163 221 278 334 405
#     4  11  20  39  66  96 125 174 228 273 346 405
#
# _framework density 20.433385999999999
#
# number of rings (size 3 to 8) (size 9 to 14) (size 15 to 20)
#    0.000    1.250    5.000    1.500    1.750    1.500 
#    0.000    3.125   13.750    0.000    0.000    0.000 
#    0.000    0.000    0.000    0.000    0.000    0.000 
#
# Total GULP energy -178476.142340 kJ/mol
# GULP energy per Si atom -5577.379448 kJ/mol
# Density = 2.038688 g / cm^3
# Si number density = 20.433386 Si / 1000 Ang^3
#
#
#
# Elastic Constant Matrix: (Units=GPa)
#
#
# Indices 1 2 3 4 5 6 
#
# 1 72.4621 35.3141 16.9358 0.0000 0.0000 0.0000
# 2 35.3141 114.8458 26.4245 0.0000 0.0000 0.0000
# 3 16.9358 26.4245 80.0514 0.0000 0.0000 0.0000
# 4 0.0000 0.0000 0.0000 236.0606 0.0000 0.0000
# 5 0.0000 0.0000 0.0000 0.0000 -12.0878 0.0000
# 6 0.0000 0.0000 0.0000 0.0000 0.0000 -172.3567
#
#
#
# Elastic Compliance Matrix: (Units=1/GPa)
#
#
# Indices 1 2 3 4 5 6 
#
# 1 0.016514 -0.004625 -0.001967 0.000000 0.000000 0.000000
# 2 -0.004625 0.010719 -0.002560 0.000000 0.000000 0.000000
# 3 -0.001967 -0.002560 0.013753 0.000000 0.000000 0.000000
# 4 0.000000 0.000000 0.000000 0.004236 0.000000 0.000000
# 5 0.000000 0.000000 0.000000 0.000000 -0.082728 0.000000
# 6 0.000000 0.000000 0.000000 0.000000 0.000000 -0.005802
#
#
# Mechanical properties :
#
#
# Convention : Reuss Voigt Hill
#
# Bulk Modulus (GPa) = 44.08805 47.18979 45.63892
# Shear Modulus (GPa) = -286.64055 22.90221 -131.86917
#
# Velocity S-wave (km/s) = -11.85686 3.35150 -8.04215
# Velocity P-wave (km/s) = 12.87724 6.17425 7.99068
#
# Compressibility (1/GPa) = 0.02268188
#
# Stress axis : x y z
#
# Youngs Moduli (GPa) = 60.55394 93.29649 72.71145
#
# Poissons Ratio (x) = 0.43153 0.14302
# Poissons Ratio (y) = 0.28009 0.18611
# Poissons Ratio (z) = 0.11911 0.23880
#
# Static dielectric constant tensor:
#      x y z
#    x 1.630370 0.000000 0.000000 
#    y 0.000000 1.746850 0.000000 
#    z 0.000000 0.000000 1.723450 
# 
# From -- ./inp_files/27888.got.cif
#   From: 2010.05.17/outbox.cif.g08.bks.cpg/sg24_14_cif.got.tgz:27888.got - 2010.06.04 00:33:39.
