data_PCOD9334569
_publ_section_title
;
Structure prediction by ZEFSAII (Michael W. Deem and Ramdas Pophale) SiO2 
 PCOD9334569
Probable space group: I 21 21 21
;
_chemical_formula_sum "Si O2"
_cell_formula_units_Z 60
_cell_length_a 7.843970
_cell_length_b 15.100086
_cell_length_c 23.178228
_cell_angle_alpha 90.000000
_cell_angle_beta 90.000000
_cell_angle_gamma 90.000000
_cell_volume 2745.336444
_symmetry_space_group_name_H-M "I 21 21 21"
_symmetry_group_IT_number 24
_symmetry_cell_setting 'orthorhombic'
loop_
_space_group_symop_operation_xyz
x,y,z
-x,1/2-y,z
x,-y,1/2-z
1/2-x,y,-z
1/2+x,1/2+y,1/2+z
1/2-x,-y,1/2+z
1/2+x,1/2-y,-z
-x,1/2+y,1/2-z
loop_
_atom_site_type_symbol
_atom_site_label
_atom_site_fract_x
_atom_site_fract_y
_atom_site_fract_z
Si Si1 0.353664 0.559055 0.137362
Si Si2 0.713046 0.367581 0.354757
Si Si3 0.191909 0.286947 0.434389
Si Si4 0.796362 0.000000 0.250000
Si Si5 0.941150 0.347890 0.243210
Si Si6 0.298336 0.226444 0.933843
Si Si7 0.877797 0.444109 0.124252
Si Si8 0.254206 0.586543 0.430861
O O1 0.518533 0.610432 0.158496
O O2 0.224147 0.629534 0.108031
O O3 0.302584 0.495886 0.190463
O O4 0.386783 0.488314 0.086969
O O5 0.709740 0.294294 0.404534
O O6 0.805098 0.457494 0.376069
O O7 0.814445 0.338144 0.297316
O O8 0.250000 0.306215 0.500000
O O9 0.000000 0.250000 0.435014
O O10 0.902314 0.910449 0.238683
O O11 0.000000 0.250000 0.224600
O O12 0.875787 0.406013 0.189475
O O13 0.500000 0.250000 0.928456
O O14 0.269661 0.130578 0.908051
O O15 0.207553 0.313991 0.909124
O O16 0.250000 0.220655 0.000000
O O17 0.068965 0.440737 0.096410
O O18 0.250000 0.590191 0.500000
#
# Coordination Sequence:
#
# PCOD9334569 Si02
#       8
#     8   8   8   4   8   8   8   8
#     4  12  26  43  67 105 140 182 233 294 360 426
#     4  12  26  43  68 100 145 175 230 297 352 427
#     4  12  26  49  76 105 141 188 240 296 367 442
#     4  12  24  42  72  96 136 186 240 288 360 426
#     4  12  23  44  73  97 132 186 237 287 349 427
#     4   9  20  36  61  88 125 164 215 270 326 400
#     4  11  22  40  66  95 130 181 229 277 351 420
#     4  10  20  40  65  94 131 177 232 285 344 425
#
# _framework density 21.855245
#
# number of rings (size 3 to 8) (size 9 to 14) (size 15 to 20)
#    0.000    0.800    2.667    5.600    1.867    4.800 
#    0.000    0.000    0.000    0.000    0.000    0.000 
#    0.000    0.000    0.000    0.000    0.000    0.000 
#
# Total GULP energy -167486.462806 kJ/mol
# GULP energy per Si atom -5582.882094 kJ/mol
# Density = 2.180550 g / cm^3
# Si number density = 21.855245 Si / 1000 Ang^3
#
#
#
# Elastic Constant Matrix: (Units=GPa)
#
#
# Indices 1 2 3 4 5 6 
#
# 1 47.9909 -4.4092 13.2184 0.0000 0.0000 0.0000
# 2 -4.4092 117.8173 23.8816 0.0000 0.0000 0.0000
# 3 13.2184 23.8816 105.0580 0.0000 0.0000 0.0000
# 4 0.0000 0.0000 0.0000 40.3588 0.0000 0.0000
# 5 0.0000 0.0000 0.0000 0.0000 20.1767 0.0000
# 6 0.0000 0.0000 0.0000 0.0000 0.0000 12.6466
#
#
#
# Elastic Compliance Matrix: (Units=1/GPa)
#
#
# Indices 1 2 3 4 5 6 
#
# 1 0.021816 0.001439 -0.003072 0.000000 0.000000 0.000000
# 2 0.001439 0.008993 -0.002225 0.000000 0.000000 0.000000
# 3 -0.003072 -0.002225 0.010411 0.000000 0.000000 0.000000
# 4 0.000000 0.000000 0.000000 0.024778 0.000000 0.000000
# 5 0.000000 0.000000 0.000000 0.000000 0.049562 0.000000
# 6 0.000000 0.000000 0.000000 0.000000 0.000000 0.079072
#
#
# Mechanical properties :
#
#
# Convention : Reuss Voigt Hill
#
# Bulk Modulus (GPa) = 29.84813 37.36087 33.60450
# Shear Modulus (GPa) = 23.41752 30.51480 26.96616
#
# Velocity S-wave (km/s) = 3.27690 3.74066 3.51644
# Velocity P-wave (km/s) = 5.29191 5.98235 5.64769
#
# Compressibility (1/GPa) = 0.03350293
#
# Stress axis : x y z
#
# Youngs Moduli (GPa) = 45.83872 111.20213 96.05312
#
# Poissons Ratio (x) = -0.16003 0.29507
# Poissons Ratio (y) = -0.06597 0.21374
# Poissons Ratio (z) = 0.14082 0.24745
#
# Static dielectric constant tensor:
#      x y z
#    x 1.876170 0.000000 0.000000 
#    y 0.000000 1.872160 0.000000 
#    z 0.000000 0.000000 1.833370 
# 
# From -- ./inp_files/35267.got.cif
#   From: 2010.05.17/outbox.cif.g08.bks.cpg/sg24_18_cif.got.tgz:35267.got - 2010.06.04 00:33:39.
