data_PCOD9334942
_publ_section_title
;
Structure prediction by ZEFSAII (Michael W. Deem and Ramdas Pophale) SiO2 
 PCOD9334942
Probable space group: I 21 21 21
;
_chemical_formula_sum "Si O2"
_cell_formula_units_Z 48
_cell_length_a 27.975167
_cell_length_b 8.819631
_cell_length_c 8.610499
_cell_angle_alpha 90.000000
_cell_angle_beta 90.000000
_cell_angle_gamma 90.000000
_cell_volume 2124.474016
_symmetry_space_group_name_H-M "I 21 21 21"
_symmetry_group_IT_number 24
_symmetry_cell_setting 'orthorhombic'
loop_
_space_group_symop_operation_xyz
x,y,z
-x,1/2-y,z
x,-y,1/2-z
1/2-x,y,-z
1/2+x,1/2+y,1/2+z
1/2-x,-y,1/2+z
1/2+x,1/2-y,-z
-x,1/2+y,1/2-z
loop_
_atom_site_type_symbol
_atom_site_label
_atom_site_fract_x
_atom_site_fract_y
_atom_site_fract_z
Si Si1 0.137402 0.500000 0.750000
Si Si2 0.888791 0.706449 0.932005
Si Si3 0.301066 0.270929 0.038232
Si Si4 0.463053 0.000000 0.250000
Si Si5 0.946090 0.000000 0.250000
Si Si6 0.186685 0.000000 0.750000
Si Si7 0.386178 0.782381 0.693769
Si Si8 0.979552 0.407909 0.060354
O O1 0.111079 0.623364 0.860411
O O2 0.168746 0.391165 0.861325
O O3 0.932889 0.615272 0.857549
O O4 0.845241 0.608371 0.860183
O O5 0.884577 0.704955 0.118939
O O6 0.288226 0.121358 0.139439
O O7 0.250000 0.342474 0.000000
O O8 0.335743 0.219828 0.895995
O O9 0.489132 0.906692 0.379090
O O10 0.911223 0.119849 0.172636
O O11 0.986441 0.957902 0.121938
O O12 0.424043 0.897523 0.611625
O O13 0.000000 0.250000 0.125039
#
# Coordination Sequence:
#
# PCOD9334942 Si02
#       8
#     4   8   8   4   4   4   8   8
#     4  10  22  41  61  92 133 168 211 273 335 410
#     4  10  21  38  66  93 125 170 215 265 336 407
#     4  11  25  44  68  99 133 175 229 286 352 422
#     4  11  22  38  61  94 130 170 220 282 343 413
#     4  10  22  39  59  90 128 170 225 277 338 420
#     4   9  22  42  61  94 131 164 214 278 334 399
#     4  11  22  39  64  92 127 174 220 276 336 403
#     4  10  22  38  58  88 126 167 219 275 335 409
#
# _framework density 22.593828999999999
#
# number of rings (size 3 to 8) (size 9 to 14) (size 15 to 20)
#    0.000    1.667    0.000    5.000    0.000    8.000 
#    0.000    6.667    0.000    0.000    0.000    0.000 
#    0.000    0.000    0.000    0.000    0.000    0.000 
#
# Total GULP energy -133709.848934 kJ/mol
# GULP energy per Si atom -5571.243706 kJ/mol
# Density = 2.254240 g / cm^3
# Si number density = 22.593829 Si / 1000 Ang^3
#
#
#
# Elastic Constant Matrix: (Units=GPa)
#
#
# Indices 1 2 3 4 5 6 
#
# 1 69.9251 4.1974 27.1515 0.0000 0.0000 0.0000
# 2 4.1974 116.3722 29.4303 0.0000 0.0000 0.0000
# 3 27.1515 29.4303 162.1677 0.0000 0.0000 0.0000
# 4 0.0000 0.0000 0.0000 36.2717 0.0000 0.0000
# 5 0.0000 0.0000 0.0000 0.0000 23.2117 0.0000
# 6 0.0000 0.0000 0.0000 0.0000 0.0000 1.0971
#
#
#
# Elastic Compliance Matrix: (Units=1/GPa)
#
#
# Indices 1 2 3 4 5 6 
#
# 1 0.015297 0.000101 -0.002579 0.000000 0.000000 0.000000
# 2 0.000101 0.009007 -0.001651 0.000000 0.000000 0.000000
# 3 -0.002579 -0.001651 0.006898 0.000000 0.000000 0.000000
# 4 0.000000 0.000000 0.000000 0.027570 0.000000 0.000000
# 5 0.000000 0.000000 0.000000 0.000000 0.043082 0.000000
# 6 0.000000 0.000000 0.000000 0.000000 0.000000 0.911528
#
#
# Mechanical properties :
#
#
# Convention : Reuss Voigt Hill
#
# Bulk Modulus (GPa) = 43.58959 52.22481 47.90720
# Shear Modulus (GPa) = 4.85772 31.29515 18.07644
#
# Velocity S-wave (km/s) = 1.46789 3.72576 2.83160
# Velocity P-wave (km/s) = 4.71248 6.45548 5.65158
#
# Compressibility (1/GPa) = 0.02294126
#
# Stress axis : x y z
#
# Youngs Moduli (GPa) = 65.37442 111.02301 144.96921
#
# Poissons Ratio (x) = -0.01117 0.37392
# Poissons Ratio (y) = -0.00658 0.23941
# Poissons Ratio (z) = 0.16862 0.18335
#
# Static dielectric constant tensor:
#      x y z
#    x 1.851470 0.000000 0.000000 
#    y 0.000000 2.006750 0.000000 
#    z 0.000000 0.000000 2.030040 
# 
# From -- ./inp_files/16895.got.cif
#   From: 2010.05.17/outbox.cif.g08.bks.cpg/sg24_9_cif.got.tgz:16895.got - 2010.06.04 00:33:39.
