data_PCOD9334744
_publ_section_title
;
Structure prediction by ZEFSAII (Michael W. Deem and Ramdas Pophale) SiO2 
 PCOD9334744
Probable space group: I 21 21 21
;
_chemical_formula_sum "Si O2"
_cell_formula_units_Z 40
_cell_length_a 9.901807
_cell_length_b 27.508858
_cell_length_c 8.486691
_cell_angle_alpha 90.000000
_cell_angle_beta 90.000000
_cell_angle_gamma 90.000000
_cell_volume 2311.667719
_symmetry_space_group_name_H-M "I 21 21 21"
_symmetry_group_IT_number 24
_symmetry_cell_setting 'orthorhombic'
loop_
_space_group_symop_operation_xyz
x,y,z
-x,1/2-y,z
x,-y,1/2-z
1/2-x,y,-z
1/2+x,1/2+y,1/2+z
1/2-x,-y,1/2+z
1/2+x,1/2-y,-z
-x,1/2+y,1/2-z
loop_
_atom_site_type_symbol
_atom_site_label
_atom_site_fract_x
_atom_site_fract_y
_atom_site_fract_z
Si Si1 0.895522 0.706599 0.573454
Si Si2 0.789585 0.948291 0.316947
Si Si3 0.291396 0.132974 0.327629
Si Si4 0.539907 0.610824 0.606604
Si Si5 0.013765 0.943117 0.726027
O O1 0.750000 0.721596 0.500000
O O2 0.857901 0.677009 0.730860
O O3 0.963278 0.665483 0.461538
O O4 0.000000 0.750000 0.595384
O O5 0.750000 0.955410 0.500000
O O6 0.645410 0.934898 0.242427
O O7 0.905110 0.907943 0.308466
O O8 0.837319 0.000000 0.250000
O O9 0.250000 0.149045 0.500000
O O10 0.167908 0.111917 0.222255
O O11 0.398148 0.089503 0.340699
O O12 0.550697 0.575999 0.451173
O O13 0.039543 0.000000 0.750000
#
# Coordination Sequence:
#
# PCOD9334744 Si02
#       5
#     8   8   8   8   8
#     4   9  19  37  60  79  98 130 173 218 264 314
#     4   9  18  31  49  74 106 139 175 213 250 297
#     4  10  21  35  51  77 110 137 169 214 260 313
#     4   9  19  35  53  77 106 136 176 216 256 313
#     4   9  18  32  50  75 105 142 182 215 248 297
#
# _framework density 17.303523999999999
#
# number of rings (size 3 to 8) (size 9 to 14) (size 15 to 20)
#    0.000    2.800    0.000    1.800    0.000   11.200 
#    0.000    4.000    0.000    0.000    0.000    0.000 
#    0.000    0.000    0.000    0.000    0.000    0.000 
#
# Total GULP energy -111413.697905 kJ/mol
# GULP energy per Si atom -5570.684895 kJ/mol
# Density = 1.726414 g / cm^3
# Si number density = 17.303524 Si / 1000 Ang^3
#
#
#
# Elastic Constant Matrix: (Units=GPa)
#
#
# Indices 1 2 3 4 5 6 
#
# 1 116.7159 95.5493 40.5627 -0.0013 0.0001 -0.0007
# 2 95.5493 112.2366 35.9374 0.0009 0.0014 0.0002
# 3 40.5627 35.9374 28.9666 -0.0076 0.0085 -0.0065
# 4 -0.0013 0.0009 -0.0076 7.8305 0.0016 0.0009
# 5 0.0001 0.0014 0.0085 0.0016 11.4094 -0.0020
# 6 -0.0007 0.0002 -0.0065 0.0009 -0.0020 39.8376
#
#
#
# Elastic Compliance Matrix: (Units=1/GPa)
#
#
# Indices 1 2 3 4 5 6 
#
# 1 0.033691 -0.022523 -0.019236 -0.000010 0.000017 -0.000002
# 2 -0.022523 0.029838 -0.005480 -0.000013 0.000001 -0.000001
# 3 -0.019236 -0.005480 0.068257 0.000064 -0.000050 0.000011
# 4 -0.000010 -0.000013 0.000064 0.127705 -0.000018 -0.000003
# 5 0.000017 0.000001 -0.000050 -0.000018 0.087647 0.000004
# 6 -0.000002 -0.000001 0.000011 -0.000003 0.000004 0.025102
#
#
# Mechanical properties :
#
#
# Convention : Reuss Voigt Hill
#
# Bulk Modulus (GPa) = 26.80225 66.89089 46.84657
# Shear Modulus (GPa) = 10.43506 17.54016 13.98761
#
# Velocity S-wave (km/s) = 2.45839 3.18728 2.84627
# Velocity P-wave (km/s) = 4.85606 7.23093 6.15905
#
# Compressibility (1/GPa) = 0.03731030
#
# Stress axis : x y z
#
# Youngs Moduli (GPa) = 29.68138 33.51383 14.65046
#
# Poissons Ratio (x) = 0.75483 0.28181
# Poissons Ratio (y) = 0.66851 0.08028
# Poissons Ratio (z) = 0.57094 0.18365
#
# Static dielectric constant tensor:
#      x y z
#    x 1.618490 0.000000 0.000000 
#    y 0.000000 1.553760 0.000000 
#    z 0.000000 0.000000 1.614410 
# 
# From -- ./inp_files/9290.got.cif
#   From: 2010.05.17/outbox.cif.g08.bks.cpg/sg24_5_cif.got.tgz:9290.got - 2010.06.04 00:33:39.
