data_PCOD9334071
_publ_section_title
;
Structure prediction by ZEFSAII (Michael W. Deem and Ramdas Pophale) SiO2 
 PCOD9334071
Probable space group: I 21 21 21
;
_chemical_formula_sum "Si O2"
_cell_formula_units_Z 44
_cell_length_a 8.448262
_cell_length_b 17.379076
_cell_length_c 14.152037
_cell_angle_alpha 90.000000
_cell_angle_beta 90.000000
_cell_angle_gamma 90.000000
_cell_volume 2077.844350
_symmetry_space_group_name_H-M "I 21 21 21"
_symmetry_group_IT_number 24
_symmetry_cell_setting 'orthorhombic'
loop_
_space_group_symop_operation_xyz
x,y,z
-x,1/2-y,z
x,-y,1/2-z
1/2-x,y,-z
1/2+x,1/2+y,1/2+z
1/2-x,-y,1/2+z
1/2+x,1/2-y,-z
-x,1/2+y,1/2-z
loop_
_atom_site_type_symbol
_atom_site_label
_atom_site_fract_x
_atom_site_fract_y
_atom_site_fract_z
Si Si1 0.466538 0.115083 0.460298
Si Si2 0.750000 0.476618 0.000000
Si Si3 0.141811 0.856826 0.349604
Si Si4 0.152721 0.822296 0.141024
Si Si5 0.354284 0.311568 0.298515
Si Si6 0.718543 0.183289 0.891265
O O1 0.314792 0.151794 0.408401
O O2 0.475308 0.159486 0.560253
O O3 0.605284 0.131900 0.385733
O O4 0.405246 0.029616 0.482905
O O5 0.780761 0.424005 0.090539
O O6 0.140751 0.869607 0.237428
O O7 0.226812 0.776168 0.376913
O O8 0.959653 0.843837 0.374973
O O9 0.194121 0.736410 0.177066
O O10 0.500000 0.250000 0.291217
O O11 0.327411 0.347721 0.194754
O O12 0.750000 0.164709 0.000000
#
# Coordination Sequence:
#
# PCOD9334071 Si02
#       6
#     8   4   8   8   8   8
#     4   9  19  35  57  89 115 154 201 232 302 367
#     4  10  20  36  64  88 118 164 196 246 302 374
#     4  10  20  35  57  88 118 156 196 254 304 360
#     4   8  17  35  52  85 116 149 196 243 294 340
#     4   9  18  35  55  86 123 148 196 254 297 353
#     4  10  21  35  57  88 119 146 201 257 311 347
#
# _framework density 21.175792000000001
#
# number of rings (size 3 to 8) (size 9 to 14) (size 15 to 20)
#    0.000    2.909    0.909    0.000    2.545    4.364 
#   36.000    0.000    0.000    8.727    9.455    0.000 
#    0.000    0.000    0.000    0.000    0.000    0.000 
#
# Total GULP energy -122597.617651 kJ/mol
# GULP energy per Si atom -5572.618984 kJ/mol
# Density = 2.112760 g / cm^3
# Si number density = 21.175792 Si / 1000 Ang^3
#
#
#
# Elastic Constant Matrix: (Units=GPa)
#
#
# Indices 1 2 3 4 5 6 
#
# 1 29.6047 16.3866 47.9530 0.0000 0.0000 0.0000
# 2 16.3866 55.5080 47.1936 0.0000 0.0000 0.0000
# 3 47.9530 47.1936 239.3750 0.0000 0.0000 0.0000
# 4 0.0000 0.0000 0.0000 29.4150 0.0000 0.0000
# 5 0.0000 0.0000 0.0000 0.0000 30.4681 0.0000
# 6 0.0000 0.0000 0.0000 0.0000 0.0000 2.3375
#
#
#
# Elastic Compliance Matrix: (Units=1/GPa)
#
#
# Indices 1 2 3 4 5 6 
#
# 1 0.052747 -0.007914 -0.009006 0.000000 0.000000 0.000000
# 2 -0.007914 0.022831 -0.002916 0.000000 0.000000 0.000000
# 3 -0.009006 -0.002916 0.006557 0.000000 0.000000 0.000000
# 4 0.000000 0.000000 0.000000 0.033996 0.000000 0.000000
# 5 0.000000 0.000000 0.000000 0.000000 0.032821 0.000000
# 6 0.000000 0.000000 0.000000 0.000000 0.000000 0.427805
#
#
# Mechanical properties :
#
#
# Convention : Reuss Voigt Hill
#
# Bulk Modulus (GPa) = 23.55046 60.83936 42.19491
# Shear Modulus (GPa) = 7.92915 26.64107 17.28511
#
# Velocity S-wave (km/s) = 1.93715 3.55081 2.86014
# Velocity P-wave (km/s) = 4.01858 6.75307 5.55666
#
# Compressibility (1/GPa) = 0.04246202
#
# Stress axis : x y z
#
# Youngs Moduli (GPa) = 18.95825 43.80038 152.51822
#
# Poissons Ratio (x) = 0.34665 1.37363
# Poissons Ratio (y) = 0.15004 0.44470
# Poissons Ratio (z) = 0.17074 0.12771
#
# Static dielectric constant tensor:
#      x y z
#    x 1.816420 0.000000 0.000000 
#    y 0.000000 1.791850 0.000000 
#    z 0.000000 0.000000 1.812870 
# 
# From -- ./inp_files/24696.got.cif
#   From: 2010.05.17/outbox.cif.g08.bks.cpg/sg24_13_cif.got.tgz:24696.got - 2010.06.04 00:33:39.
