data_PCOD9334484
_publ_section_title
;
Structure prediction by ZEFSAII (Michael W. Deem and Ramdas Pophale) SiO2 
 PCOD9334484
Probable space group: I 21 21 21
;
_chemical_formula_sum "Si O2"
_cell_formula_units_Z 56
_cell_length_a 21.389188
_cell_length_b 8.422432
_cell_length_c 14.498764
_cell_angle_alpha 90.000000
_cell_angle_beta 90.000000
_cell_angle_gamma 90.000000
_cell_volume 2611.937567
_symmetry_space_group_name_H-M "I 21 21 21"
_symmetry_group_IT_number 24
_symmetry_cell_setting 'orthorhombic'
loop_
_space_group_symop_operation_xyz
x,y,z
-x,1/2-y,z
x,-y,1/2-z
1/2-x,y,-z
1/2+x,1/2+y,1/2+z
1/2-x,-y,1/2+z
1/2+x,1/2-y,-z
-x,1/2+y,1/2-z
loop_
_atom_site_type_symbol
_atom_site_label
_atom_site_fract_x
_atom_site_fract_y
_atom_site_fract_z
Si Si1 0.932679 0.190151 0.548975
Si Si2 0.247055 0.309770 0.750185
Si Si3 0.067300 0.690126 0.549037
Si Si4 0.661481 0.690399 0.593519
Si Si5 0.398131 0.693107 0.249950
Si Si6 0.431730 0.189237 0.750039
Si Si7 0.838791 0.309643 0.406366
O O1 0.928710 0.247932 0.654880
O O2 0.867077 0.244641 0.501670
O O3 0.000000 0.250000 0.510014
O O4 0.933927 0.000006 0.545000
O O5 0.252504 0.500000 0.750000
O O6 0.279501 0.248381 0.845474
O O7 0.174854 0.262959 0.749863
O O8 0.280076 0.248150 0.655381
O O9 0.132786 0.744764 0.501541
O O10 0.071329 0.747902 0.654931
O O11 0.000000 0.750000 0.510024
O O12 0.605610 0.742746 0.661280
O O13 0.666186 0.499988 0.586699
O O14 0.400871 0.500000 0.250000
O O15 0.500000 0.250000 0.750781
O O16 0.395145 0.242501 0.660607
O O17 0.430158 0.000000 0.750000
#
# Coordination Sequence:
#
# PCOD9334484 Si02
#       7
#     8   8   8   8   8   8   8
#     4  11  22  39  61  87 117 154 197 244 293 347
#     4  10  20  39  63  87 115 155 199 239 286 348
#     4  11  22  39  61  87 117 154 197 244 293 347
#     4  10  21  37  55  83 119 153 189 238 292 347
#     4   9  22  41  61  84 116 156 200 244 291 345
#     4   9  18  30  47  71 106 143 178 221 275 333
#     4  10  21  37  55  83 119 153 189 238 292 347
#
# _framework density 21.440021000000002
#
# number of rings (size 3 to 8) (size 9 to 14) (size 15 to 20)
#    0.000    2.000    0.000    4.286    0.000    6.857 
#    0.000   13.571    0.000    0.000    0.000    0.000 
#    0.000    0.000    0.000    0.000    0.000    0.000 
#
# Total GULP energy -156077.605147 kJ/mol
# GULP energy per Si atom -5574.200184 kJ/mol
# Density = 2.139122 g / cm^3
# Si number density = 21.440021 Si / 1000 Ang^3
#
#
#
# Elastic Constant Matrix: (Units=GPa)
#
#
# Indices 1 2 3 4 5 6 
#
# 1 111.5498 15.8886 17.9744 0.0000 0.0000 0.0000
# 2 15.8886 57.5597 16.9325 0.0000 0.0000 0.0000
# 3 17.9744 16.9325 91.4296 0.0000 0.0000 0.0000
# 4 0.0000 0.0000 0.0000 21.3685 0.0000 0.0000
# 5 0.0000 0.0000 0.0000 0.0000 29.3185 0.0000
# 6 0.0000 0.0000 0.0000 0.0000 0.0000 21.0916
#
#
#
# Elastic Compliance Matrix: (Units=1/GPa)
#
#
# Indices 1 2 3 4 5 6 
#
# 1 0.009513 -0.002195 -0.001464 0.000000 0.000000 0.000000
# 2 -0.002195 0.018881 -0.003065 0.000000 0.000000 0.000000
# 3 -0.001464 -0.003065 0.011793 0.000000 0.000000 0.000000
# 4 0.000000 0.000000 0.000000 0.046798 0.000000 0.000000
# 5 0.000000 0.000000 0.000000 0.000000 0.034108 0.000000
# 6 0.000000 0.000000 0.000000 0.000000 0.000000 0.047412
#
#
# Mechanical properties :
#
#
# Convention : Reuss Voigt Hill
#
# Bulk Modulus (GPa) = 37.39915 40.23667 38.81791
# Shear Modulus (GPa) = 26.19634 28.33862 27.26748
#
# Velocity S-wave (km/s) = 3.49928 3.63955 3.57010
# Velocity P-wave (km/s) = 5.81447 6.03901 5.92780
#
# Compressibility (1/GPa) = 0.02673857
#
# Stress axis : x y z
#
# Youngs Moduli (GPa) = 105.11767 52.96348 84.79775
#
# Poissons Ratio (x) = 0.11628 0.12411
# Poissons Ratio (y) = 0.23078 0.25991
# Poissons Ratio (z) = 0.15385 0.16234
#
# Static dielectric constant tensor:
#      x y z
#    x 1.752790 0.000000 0.000000 
#    y 0.000000 1.726680 0.000000 
#    z 0.000000 0.000000 1.708570 
# 
# From -- ./inp_files/27535.got.cif
#   From: 2010.05.17/outbox.cif.g08.bks.cpg/sg24_14_cif.got.tgz:27535.got - 2010.06.04 00:33:39.
