data_PCOD9334927
_publ_section_title
;
Structure prediction by ZEFSAII (Michael W. Deem and Ramdas Pophale) SiO2 
 PCOD9334927
Probable space group: I 21 21 21
;
_chemical_formula_sum "Si O2"
_cell_formula_units_Z 56
_cell_length_a 13.550782
_cell_length_b 9.057959
_cell_length_c 23.008994
_cell_angle_alpha 90.000000
_cell_angle_beta 90.000000
_cell_angle_gamma 90.000000
_cell_volume 2824.179784
_symmetry_space_group_name_H-M "I 21 21 21"
_symmetry_group_IT_number 24
_symmetry_cell_setting 'orthorhombic'
loop_
_space_group_symop_operation_xyz
x,y,z
-x,1/2-y,z
x,-y,1/2-z
1/2-x,y,-z
1/2+x,1/2+y,1/2+z
1/2-x,-y,1/2+z
1/2+x,1/2-y,-z
-x,1/2+y,1/2-z
loop_
_atom_site_type_symbol
_atom_site_label
_atom_site_fract_x
_atom_site_fract_y
_atom_site_fract_z
Si Si1 0.704569 0.552314 0.685178
Si Si2 0.939398 0.594773 0.691884
Si Si3 0.248792 0.452062 0.430642
Si Si4 0.395650 0.790937 0.883204
Si Si5 0.468648 0.418560 0.414596
Si Si6 0.533068 0.463614 0.964173
Si Si7 0.636505 0.772842 0.591366
O O1 0.676946 0.500000 0.750000
O O2 0.819547 0.602488 0.686446
O O3 0.676896 0.405381 0.648752
O O4 0.645380 0.683887 0.651938
O O5 0.959921 0.500000 0.750000
O O6 0.000000 0.750000 0.693365
O O7 0.976003 0.499307 0.637348
O O8 0.250000 0.426578 0.500000
O O9 0.165171 0.351190 0.401931
O O10 0.352802 0.412569 0.403636
O O11 0.229315 0.623342 0.418141
O O12 0.500000 0.750000 0.852147
O O13 0.431902 0.881322 0.939558
O O14 0.500000 0.250000 0.422985
O O15 0.487727 0.512348 0.473156
O O16 0.623125 0.349418 0.958997
O O17 0.454376 0.386109 0.920468
#
# Coordination Sequence:
#
# PCOD9334927 Si02
#       7
#     8   8   8   8   8   8   8
#     4  10  24  46  66  93 130 175 231 280 334 410
#     4  11  25  46  71  96 135 180 232 292 345 406
#     4  12  22  37  63  97 133 168 221 273 339 414
#     4  11  21  41  62  92 131 175 211 278 341 406
#     4  12  24  40  64 100 134 180 227 276 347 422
#     4  10  21  39  62  89 137 168 211 268 349 405
#     4  10  21  38  63  91 128 170 206 281 330 398
#
# _framework density 19.828766000000002
#
# number of rings (size 3 to 8) (size 9 to 14) (size 15 to 20)
#    0.000    1.143    2.857    3.429    2.000    2.286 
#    5.143    3.571    0.000    0.000    0.000    0.000 
#    0.000    0.000    0.000    0.000    0.000    0.000 
#
# Total GULP energy -156141.170921 kJ/mol
# GULP energy per Si atom -5576.470390 kJ/mol
# Density = 1.978363 g / cm^3
# Si number density = 19.828766 Si / 1000 Ang^3
#
#
#
# Elastic Constant Matrix: (Units=GPa)
#
#
# Indices 1 2 3 4 5 6 
#
# 1 86.8752 52.9483 40.6133 0.0000 0.0000 0.0000
# 2 52.9483 136.0607 45.0042 0.0000 0.0000 0.0000
# 3 40.6133 45.0042 109.0162 0.0000 0.0000 0.0000
# 4 0.0000 0.0000 0.0000 21.0003 0.0000 0.0000
# 5 0.0000 0.0000 0.0000 0.0000 22.0968 0.0000
# 6 0.0000 0.0000 0.0000 0.0000 0.0000 44.7539
#
#
#
# Elastic Compliance Matrix: (Units=1/GPa)
#
#
# Indices 1 2 3 4 5 6 
#
# 1 0.016501 -0.005082 -0.004049 0.000000 0.000000 0.000000
# 2 -0.005082 0.010077 -0.002267 0.000000 0.000000 0.000000
# 3 -0.004049 -0.002267 0.011617 0.000000 0.000000 0.000000
# 4 0.000000 0.000000 0.000000 0.047618 0.000000 0.000000
# 5 0.000000 0.000000 0.000000 0.000000 0.045255 0.000000
# 6 0.000000 0.000000 0.000000 0.000000 0.000000 0.022344
#
#
# Mechanical properties :
#
#
# Convention : Reuss Voigt Hill
#
# Bulk Modulus (GPa) = 64.93877 67.67597 66.30737
# Shear Modulus (GPa) = 27.57198 30.46263 29.01731
#
# Velocity S-wave (km/s) = 3.73299 3.92380 3.82958
# Velocity P-wave (km/s) = 7.16946 7.39815 7.28470
#
# Compressibility (1/GPa) = 0.01539912
#
# Stress axis : x y z
#
# Youngs Moduli (GPa) = 60.60157 99.23469 86.07843
#
# Poissons Ratio (x) = 0.50432 0.34857
# Poissons Ratio (y) = 0.30798 0.19512
# Poissons Ratio (z) = 0.24540 0.22494
#
# Static dielectric constant tensor:
#      x y z
#    x 1.775120 0.000000 0.000000 
#    y 0.000000 1.697690 0.000000 
#    z 0.000000 0.000000 1.701000 
# 
# From -- ./inp_files/33760.got.cif
#   From: 2010.05.17/outbox.cif.g08.bks.cpg/sg24_17_cif.got.tgz:33760.got - 2010.06.04 00:33:39.
