data_PCOD9334488
_publ_section_title
;
Structure prediction by ZEFSAII (Michael W. Deem and Ramdas Pophale) SiO2 
 PCOD9334488
Probable space group: I 21 21 21
;
_chemical_formula_sum "Si O2"
_cell_formula_units_Z 28
_cell_length_a 24.018337
_cell_length_b 5.262164
_cell_length_c 10.796445
_cell_angle_alpha 90.000000
_cell_angle_beta 90.000000
_cell_angle_gamma 90.000000
_cell_volume 1364.545715
_symmetry_space_group_name_H-M "I 21 21 21"
_symmetry_group_IT_number 24
_symmetry_cell_setting 'orthorhombic'
loop_
_space_group_symop_operation_xyz
x,y,z
-x,1/2-y,z
x,-y,1/2-z
1/2-x,y,-z
1/2+x,1/2+y,1/2+z
1/2-x,-y,1/2+z
1/2+x,1/2-y,-z
-x,1/2+y,1/2-z
loop_
_atom_site_type_symbol
_atom_site_label
_atom_site_fract_x
_atom_site_fract_y
_atom_site_fract_z
Si Si1 0.868043 0.500000 0.750000
Si Si2 0.683277 0.999987 0.607585
Si Si3 0.207795 0.500000 0.750000
Si Si4 0.877557 0.499983 0.478070
Si Si5 0.462313 0.000000 0.750000
O O1 0.829068 0.749085 0.750000
O O2 0.899608 0.499997 0.618935
O O3 0.660314 0.251603 0.543533
O O4 0.659867 0.000000 0.750000
O O5 0.749222 0.999992 0.634672
O O6 0.660314 0.748358 0.543543
O O7 0.924238 0.499978 0.372730
O O8 0.500000 0.750000 0.749989
#
# Coordination Sequence:
#
# PCOD9334488 Si02
#       5
#     4   8   4   8   4
#     4  12  26  37  60  91 136 165 196 245 312 366
#     4  10  20  39  63  88 127 167 214 253 270 337
#     4  10  22  39  56  97 120 185 212 237 278 348
#     4  12  23  43  62  93 126 159 198 260 316 348
#     4  12  24  44  72  92 106 150 212 256 308 384
#
# _framework density 20.519651
#
# number of rings (size 3 to 8) (size 9 to 14) (size 15 to 20)
#    0.857    0.000    2.857    5.143    0.000    6.857 
#    0.000    1.429    0.000    0.000    0.000    0.000 
#    0.000    0.000    0.000    0.000    0.000    0.000 
#
# Total GULP energy -78272.519332 kJ/mol
# GULP energy per Si atom -5590.894238 kJ/mol
# Density = 2.047295 g / cm^3
# Si number density = 20.519651 Si / 1000 Ang^3
#
#
#
# Elastic Constant Matrix: (Units=GPa)
#
#
# Indices 1 2 3 4 5 6 
#
# 1 90.2567 50.0822 48.5536 0.0000 0.0000 0.0000
# 2 50.0822 192.3642 31.9413 0.0000 0.0000 0.0000
# 3 48.5536 31.9413 208.0605 0.0000 0.0000 0.0000
# 4 0.0000 0.0000 0.0000 0.9284 0.0000 0.0000
# 5 0.0000 0.0000 0.0000 0.0000 13.9639 0.0000
# 6 0.0000 0.0000 0.0000 0.0000 0.0000 28.4252
#
#
#
# Elastic Compliance Matrix: (Units=1/GPa)
#
#
# Indices 1 2 3 4 5 6 
#
# 1 0.014444 -0.003285 -0.002866 0.000000 0.000000 0.000000
# 2 -0.003285 0.006081 -0.000167 0.000000 0.000000 0.000000
# 3 -0.002866 -0.000167 0.005501 0.000000 0.000000 0.000000
# 4 0.000000 0.000000 0.000000 1.077084 0.000000 0.000000
# 5 0.000000 0.000000 0.000000 0.000000 0.071613 0.000000
# 6 0.000000 0.000000 0.000000 0.000000 0.000000 0.035180
#
#
# Mechanical properties :
#
#
# Convention : Reuss Voigt Hill
#
# Bulk Modulus (GPa) = 74.68240 83.53727 79.10983
# Shear Modulus (GPa) = 4.07497 32.67047 18.37272
#
# Velocity S-wave (km/s) = 1.41074 3.99451 2.99552
# Velocity P-wave (km/s) = 6.25525 7.87871 7.11345
#
# Compressibility (1/GPa) = 0.01339004
#
# Stress axis : x y z
#
# Youngs Moduli (GPa) = 69.23249 164.43696 181.78922
#
# Poissons Ratio (x) = 0.54010 0.52109
# Poissons Ratio (y) = 0.22740 0.03038
# Poissons Ratio (z) = 0.19845 0.02748
#
# Static dielectric constant tensor:
#      x y z
#    x 1.682590 0.000000 0.000000 
#    y 0.000000 1.665200 0.000000 
#    z 0.000000 0.000000 1.853490 
# 
# From -- ./inp_files/22396.got.cif
#   From: 2010.05.17/outbox.cif.g08.bks.cpg/sg24_12_cif.got.tgz:22396.got - 2010.06.04 00:33:39.
