data_PCOD9334461
_publ_section_title
;
Structure prediction by ZEFSAII (Michael W. Deem and Ramdas Pophale) SiO2 
 PCOD9334461
Probable space group: I 21 21 21
;
_chemical_formula_sum "Si O2"
_cell_formula_units_Z 48
_cell_length_a 8.212566
_cell_length_b 11.052871
_cell_length_c 27.654771
_cell_angle_alpha 90.000000
_cell_angle_beta 90.000000
_cell_angle_gamma 90.000000
_cell_volume 2510.290836
_symmetry_space_group_name_H-M "I 21 21 21"
_symmetry_group_IT_number 24
_symmetry_cell_setting 'orthorhombic'
loop_
_space_group_symop_operation_xyz
x,y,z
-x,1/2-y,z
x,-y,1/2-z
1/2-x,y,-z
1/2+x,1/2+y,1/2+z
1/2-x,-y,1/2+z
1/2+x,1/2-y,-z
-x,1/2+y,1/2-z
loop_
_atom_site_type_symbol
_atom_site_label
_atom_site_fract_x
_atom_site_fract_y
_atom_site_fract_z
Si Si1 0.682185 0.809248 0.723976
Si Si2 0.799348 0.442596 0.798460
Si Si3 0.178448 0.287838 0.951300
Si Si4 0.719705 0.034478 0.873295
Si Si5 0.098120 0.123459 0.108204
Si Si6 0.901761 0.874855 0.812643
O O1 0.500000 0.750000 0.730457
O O2 0.806796 0.699586 0.712147
O O3 0.685016 0.902161 0.679091
O O4 0.762788 0.865032 0.771625
O O5 0.717252 0.500000 0.750000
O O6 0.697572 0.437355 0.848038
O O7 0.965713 0.517887 0.803963
O O8 0.172164 0.376318 0.905425
O O9 0.285433 0.172558 0.933683
O O10 0.000000 0.250000 0.964026
O O11 0.250000 0.343608 0.000000
O O12 0.549240 0.032644 0.901725
O O13 0.808224 0.910812 0.861436
O O14 0.000000 0.250000 0.121306
O O15 0.000000 0.750000 0.815119
#
# Coordination Sequence:
#
# PCOD9334461 Si02
#       6
#     8   8   8   8   8   8
#     4  12  23  40  58  85 118 166 207 254 304 355
#     4  12  21  37  56  77 120 160 205 249 296 348
#     4  11  21  37  64  95 124 149 189 253 320 371
#     4  11  22  38  60  85 123 158 199 249 308 356
#     4  10  20  39  58  89 117 157 197 250 311 360
#     4  12  28  36  53  86 121 168 210 243 289 357
#
# _framework density 19.121290999999999
#
# number of rings (size 3 to 8) (size 9 to 14) (size 15 to 20)
#    0.000    0.667    6.667    4.000    2.333    0.000 
#    0.000    0.000    0.000    0.000    0.000   10.500 
#    0.000    0.000    0.000    0.000    0.000    0.000 
#
# Total GULP energy -133734.257149 kJ/mol
# GULP energy per Si atom -5572.260715 kJ/mol
# Density = 1.907777 g / cm^3
# Si number density = 19.121291 Si / 1000 Ang^3
#
#
#
# Elastic Constant Matrix: (Units=GPa)
#
#
# Indices 1 2 3 4 5 6 
#
# 1 98.2514 35.3526 23.2326 0.0000 0.0000 0.0000
# 2 35.3526 50.6604 16.6452 0.0000 0.0000 0.0000
# 3 23.2326 16.6452 61.1985 0.0000 0.0000 0.0000
# 4 0.0000 0.0000 0.0000 15.3389 0.0000 0.0000
# 5 0.0000 0.0000 0.0000 0.0000 26.2606 0.0000
# 6 0.0000 0.0000 0.0000 0.0000 0.0000 29.2313
#
#
#
# Elastic Compliance Matrix: (Units=1/GPa)
#
#
# Indices 1 2 3 4 5 6 
#
# 1 0.014053 -0.008844 -0.002929 0.000000 0.000000 0.000000
# 2 -0.008844 0.027242 -0.004052 0.000000 0.000000 0.000000
# 3 -0.002929 -0.004052 0.018554 0.000000 0.000000 0.000000
# 4 0.000000 0.000000 0.000000 0.065194 0.000000 0.000000
# 5 0.000000 0.000000 0.000000 0.000000 0.038080 0.000000
# 6 0.000000 0.000000 0.000000 0.000000 0.000000 0.034210
#
#
# Mechanical properties :
#
#
# Convention : Reuss Voigt Hill
#
# Bulk Modulus (GPa) = 35.46283 40.06346 37.76315
# Shear Modulus (GPa) = 20.97455 23.15815 22.06635
#
# Velocity S-wave (km/s) = 3.31557 3.48389 3.40077
# Velocity P-wave (km/s) = 5.76575 6.09763 5.93401
#
# Compressibility (1/GPa) = 0.02819854
#
# Stress axis : x y z
#
# Youngs Moduli (GPa) = 71.15948 36.70746 53.89536
#
# Poissons Ratio (x) = 0.32465 0.15788
# Poissons Ratio (y) = 0.62935 0.21839
# Poissons Ratio (z) = 0.20845 0.14874
#
# Static dielectric constant tensor:
#      x y z
#    x 1.768650 0.000000 0.000000 
#    y 0.000000 1.700880 0.000000 
#    z 0.000000 0.000000 1.683380 
# 
# From -- ./inp_files/35135.got.cif
#   From: 2010.05.17/outbox.cif.g08.bks.cpg/sg24_18_cif.got.tgz:35135.got - 2010.06.04 00:33:39.
