data_PCOD9334348
_publ_section_title
;
Structure prediction by ZEFSAII (Michael W. Deem and Ramdas Pophale) SiO2 
 PCOD9334348
Probable space group: I 21 21 21
;
_chemical_formula_sum "Si O2"
_cell_formula_units_Z 52
_cell_length_a 7.611508
_cell_length_b 12.835349
_cell_length_c 27.683545
_cell_angle_alpha 90.000000
_cell_angle_beta 90.000000
_cell_angle_gamma 90.000000
_cell_volume 2704.581623
_symmetry_space_group_name_H-M "I 21 21 21"
_symmetry_group_IT_number 24
_symmetry_cell_setting 'orthorhombic'
loop_
_space_group_symop_operation_xyz
x,y,z
-x,1/2-y,z
x,-y,1/2-z
1/2-x,y,-z
1/2+x,1/2+y,1/2+z
1/2-x,-y,1/2+z
1/2+x,1/2-y,-z
-x,1/2+y,1/2-z
loop_
_atom_site_type_symbol
_atom_site_label
_atom_site_fract_x
_atom_site_fract_y
_atom_site_fract_z
Si Si1 0.480568 0.520092 0.545381
Si Si2 0.565263 0.013876 0.062722
Si Si3 0.253580 0.520126 0.804714
Si Si4 0.000000 0.750000 0.412293
Si Si5 0.051195 0.130410 0.368968
Si Si6 0.651689 0.817845 0.364669
Si Si7 0.445919 0.868641 0.150024
O O1 0.272884 0.496999 0.553394
O O2 0.525130 0.506256 0.489196
O O3 0.505725 0.641782 0.558366
O O4 0.569267 0.441892 0.583328
O O5 0.561215 0.126744 0.088572
O O6 0.494224 0.932697 0.101617
O O7 0.306606 0.500000 0.750000
O O8 0.399141 0.582196 0.835377
O O9 0.219639 0.411127 0.831496
O O10 0.069861 0.582474 0.808833
O O11 0.822366 0.754778 0.381064
O O12 0.238195 0.126376 0.342206
O O13 0.000000 0.250000 0.380865
O O14 0.500000 0.750000 0.340751
O O15 0.500000 0.750000 0.142871
#
# Coordination Sequence:
#
# PCOD9334348 Si02
#       7
#     8   8   8   4   8   8   8
#     4  10  20  38  62  93 129 176 213 260 312 381
#     4   9  20  38  59  93 131 166 216 256 309 381
#     4  11  25  47  65  94 127 159 221 274 325 398
#     4  10  20  38  60  86 132 170 208 254 318 376
#     4  12  23  44  68  92 131 173 210 268 327 382
#     4  10  22  40  61  90 128 166 204 266 321 377
#     4  11  22  42  69  91 126 171 210 266 328 381
#
# _framework density 19.226635999999999
#
# number of rings (size 3 to 8) (size 9 to 14) (size 15 to 20)
#    0.000    1.538    6.154    0.000    5.385    2.462 
#    1.385    0.000    0.000    0.000    0.000    0.000 
#    0.000    0.000    0.000    0.000    0.000    0.000 
#
# Total GULP energy -145127.791335 kJ/mol
# GULP energy per Si atom -5581.838128 kJ/mol
# Density = 1.918288 g / cm^3
# Si number density = 19.226636 Si / 1000 Ang^3
#
#
#
# Elastic Constant Matrix: (Units=GPa)
#
#
# Indices 1 2 3 4 5 6 
#
# 1 71.1543 24.7883 7.9374 0.0000 0.0000 0.0000
# 2 24.7883 87.4408 34.5855 0.0000 0.0000 0.0000
# 3 7.9374 34.5855 86.9836 0.0000 0.0000 0.0000
# 4 0.0000 0.0000 0.0000 0.1314 0.0000 0.0000
# 5 0.0000 0.0000 0.0000 0.0000 6.0180 0.0000
# 6 0.0000 0.0000 0.0000 0.0000 0.0000 36.0635
#
#
#
# Elastic Compliance Matrix: (Units=1/GPa)
#
#
# Indices 1 2 3 4 5 6 
#
# 1 0.015606 -0.004581 0.000397 0.000000 0.000000 0.000000
# 2 -0.004581 0.014915 -0.005512 0.000000 0.000000 0.000000
# 3 0.000397 -0.005512 0.013652 0.000000 0.000000 0.000000
# 4 0.000000 0.000000 0.000000 7.609714 0.000000 0.000000
# 5 0.000000 0.000000 0.000000 0.000000 0.166169 0.000000
# 6 0.000000 0.000000 0.000000 0.000000 0.000000 0.027729
#
#
# Mechanical properties :
#
#
# Convention : Reuss Voigt Hill
#
# Bulk Modulus (GPa) = 40.35416 42.24457 41.29936
# Shear Modulus (GPa) = 0.63489 20.32708 10.48098
#
# Velocity S-wave (km/s) = 0.57526 3.25504 2.33733
# Velocity P-wave (km/s) = 4.63416 6.01221 5.36759
#
# Compressibility (1/GPa) = 0.02478059
#
# Stress axis : x y z
#
# Youngs Moduli (GPa) = 64.07958 67.04493 73.24961
#
# Poissons Ratio (x) = 0.30715 -0.02912
# Poissons Ratio (y) = 0.29356 0.40378
# Poissons Ratio (z) = -0.02547 0.36958
#
# Static dielectric constant tensor:
#      x y z
#    x 1.707350 0.000000 0.000000 
#    y 0.000000 1.676250 0.000000 
#    z 0.000000 0.000000 1.658600 
# 
# From -- ./inp_files/36873.got.cif
#   From: 2010.05.17/outbox.cif.g08.bks.cpg/sg24_19_cif.got.tgz:36873.got - 2010.06.04 00:33:39.
