data_PCOD9334811
_publ_section_title
;
Structure prediction by ZEFSAII (Michael W. Deem and Ramdas Pophale) SiO2 
 PCOD9334811
Probable space group: I 21 21 21
;
_chemical_formula_sum "Si O2"
_cell_formula_units_Z 60
_cell_length_a 8.950420
_cell_length_b 23.745349
_cell_length_c 13.691365
_cell_angle_alpha 90.000000
_cell_angle_beta 90.000000
_cell_angle_gamma 90.000000
_cell_volume 2909.837395
_symmetry_space_group_name_H-M "I 21 21 21"
_symmetry_group_IT_number 24
_symmetry_cell_setting 'orthorhombic'
loop_
_space_group_symop_operation_xyz
x,y,z
-x,1/2-y,z
x,-y,1/2-z
1/2-x,y,-z
1/2+x,1/2+y,1/2+z
1/2-x,-y,1/2+z
1/2+x,1/2-y,-z
-x,1/2+y,1/2-z
loop_
_atom_site_type_symbol
_atom_site_label
_atom_site_fract_x
_atom_site_fract_y
_atom_site_fract_z
Si Si1 0.081081 0.192807 0.189266
Si Si2 0.571982 0.425127 0.274228
Si Si3 0.598846 0.566561 0.788143
Si Si4 0.297943 0.500000 0.250000
Si Si5 0.429323 0.801553 0.283814
Si Si6 0.588610 0.444901 0.045444
Si Si7 0.424645 0.331727 0.012941
Si Si8 0.380931 0.476090 0.571881
O O1 0.078609 0.125947 0.227266
O O2 0.256224 0.205919 0.192232
O O3 0.000000 0.250000 0.233333
O O4 0.015165 0.189129 0.080563
O O5 0.730155 0.434111 0.327621
O O6 0.412840 0.453767 0.292276
O O7 0.548847 0.359123 0.272529
O O8 0.606821 0.445506 0.162176
O O9 0.585609 0.500000 0.750000
O O10 0.464456 0.570424 0.864764
O O11 0.197827 0.515995 0.344326
O O12 0.500000 0.750000 0.227375
O O13 0.517967 0.807305 0.385406
O O14 0.750000 0.431825 0.000000
O O15 0.467777 0.397003 0.022766
O O16 0.513676 0.497320 0.992299
O O17 0.250000 0.322407 0.000000
O O18 0.250000 0.458520 0.500000
#
# Coordination Sequence:
#
# PCOD9334811 Si02
#       8
#     8   8   8   4   8   8   8   8
#     4  11  23  38  58  87 121 168 219 265 328 392
#     4  10  22  39  62  87 125 172 211 263 317 393
#     4  11  22  41  65  90 128 174 216 267 329 385
#     4  12  24  38  60  92 132 158 218 270 326 374
#     4  10  21  37  55  82 120 166 212 258 317 391
#     4  11  22  37  57  87 126 171 220 256 322 397
#     4  11  21  32  54  81 122 168 216 264 309 381
#     4  12  25  39  60  95 129 168 216 269 330 387
#
# _framework density 20.619707999999999
#
# number of rings (size 3 to 8) (size 9 to 14) (size 15 to 20)
#    0.000    1.067    2.667    6.000    1.867    1.067 
#    0.000    0.000    0.000    0.000    0.000    7.467 
#    0.000    0.000    0.000    0.000    0.000    0.000 
#
# Total GULP energy -167100.244141 kJ/mol
# GULP energy per Si atom -5570.008138 kJ/mol
# Density = 2.057278 g / cm^3
# Si number density = 20.619708 Si / 1000 Ang^3
#
#
#
# Elastic Constant Matrix: (Units=GPa)
#
#
# Indices 1 2 3 4 5 6 
#
# 1 110.1711 36.9028 9.0202 -0.0001 0.0000 0.0000
# 2 36.9028 109.2479 -1.1338 0.0000 0.0000 0.0000
# 3 9.0202 -1.1338 35.6345 0.0001 0.0000 0.0000
# 4 -0.0001 0.0000 0.0001 -36.9416 0.0000 0.0000
# 5 0.0000 0.0000 0.0000 0.0000 35.0835 0.0000
# 6 0.0000 0.0000 0.0000 0.0000 0.0000 36.0742
#
#
#
# Elastic Compliance Matrix: (Units=1/GPa)
#
#
# Indices 1 2 3 4 5 6 
#
# 1 0.010502 -0.003576 -0.002772 0.000000 0.000000 0.000000
# 2 -0.003576 0.010374 0.001235 0.000000 0.000000 0.000000
# 3 -0.002772 0.001235 0.028804 0.000000 0.000000 0.000000
# 4 0.000000 0.000000 0.000000 -0.027070 0.000000 0.000000
# 5 0.000000 0.000000 0.000000 0.000000 0.028503 0.000000
# 6 0.000000 0.000000 0.000000 0.000000 0.000000 0.027721
#
#
# Mechanical properties :
#
#
# Convention : Reuss Voigt Hill
#
# Bulk Modulus (GPa) = 25.34605 38.29244 31.81924
# Shear Modulus (GPa) = 48.91844 20.86084 34.88964
#
# Velocity S-wave (km/s) = 4.87602 3.18416 4.11792
# Velocity P-wave (km/s) = 6.63473 5.66830 6.17047
#
# Compressibility (1/GPa) = 0.03945388
#
# Stress axis : x y z
#
# Youngs Moduli (GPa) = 95.22360 96.39224 34.71772
#
# Poissons Ratio (x) = 0.34471 0.09624
# Poissons Ratio (y) = 0.34053 -0.04289
# Poissons Ratio (z) = 0.26397 -0.11907
#
# Static dielectric constant tensor:
#      x y z
#    x 1.781480 0.000000 0.000000 
#    y 0.000000 1.886840 0.000000 
#    z 0.000000 0.000000 1.775620 
# 
# From -- ./inp_files/25195.got.cif
#   From: 2010.05.17/outbox.cif.g08.bks.cpg/sg24_13_cif.got.tgz:25195.got - 2010.06.04 00:33:39.
