data_PCOD9334339
_publ_section_title
;
Structure prediction by ZEFSAII (Michael W. Deem and Ramdas Pophale) SiO2 
 PCOD9334339
Probable space group: I 21 21 21
;
_chemical_formula_sum "Si O2"
_cell_formula_units_Z 56
_cell_length_a 17.313654
_cell_length_b 8.405053
_cell_length_c 19.851060
_cell_angle_alpha 90.000000
_cell_angle_beta 90.000000
_cell_angle_gamma 90.000000
_cell_volume 2888.769516
_symmetry_space_group_name_H-M "I 21 21 21"
_symmetry_group_IT_number 24
_symmetry_cell_setting 'orthorhombic'
loop_
_space_group_symop_operation_xyz
x,y,z
-x,1/2-y,z
x,-y,1/2-z
1/2-x,y,-z
1/2+x,1/2+y,1/2+z
1/2-x,-y,1/2+z
1/2+x,1/2-y,-z
-x,1/2+y,1/2-z
loop_
_atom_site_type_symbol
_atom_site_label
_atom_site_fract_x
_atom_site_fract_y
_atom_site_fract_z
Si Si1 0.456279 0.081165 0.990687
Si Si2 0.330375 0.790696 0.593945
Si Si3 0.889378 0.023838 0.457323
Si Si4 0.065896 0.378458 0.311502
Si Si5 0.286990 0.313758 0.758829
Si Si6 0.675708 0.506620 0.404292
Si Si7 0.817222 0.500000 0.750000
Si Si8 0.250000 0.250960 0.500000
O O1 0.500000 0.250000 0.990755
O O2 0.396687 0.055544 0.050620
O O3 0.399994 0.086022 0.924167
O O4 0.530153 0.964970 0.997850
O O5 0.346706 0.647047 0.542323
O O6 0.327723 0.716673 0.668876
O O7 0.246436 0.868810 0.587796
O O8 0.923971 0.038440 0.382505
O O9 0.823168 0.148348 0.474196
O O10 0.052939 0.500000 0.250000
O O11 0.147175 0.294263 0.296602
O O12 0.000000 0.250000 0.313671
O O13 0.260197 0.500000 0.750000
O O14 0.228537 0.168473 0.751135
O O15 0.649384 0.495390 0.326260
O O16 0.714770 0.352069 0.438565
#
# Coordination Sequence:
#
# PCOD9334339 Si02
#       8
#     8   8   8   8   8   8   4   4
#     4  10  23  39  66  92 125 169 220 266 322 391
#     4  10  20  40  64  89 131 173 213 262 318 394
#     4  11  25  40  63  92 129 169 218 265 328 388
#     4  11  24  36  55  90 133 174 208 255 320 404
#     4  10  20  38  58  95 135 172 219 257 321 409
#     4  11  23  44  67  97 127 167 220 270 331 395
#     4  10  24  40  72  90 128 174 214 284 342 380
#     4  12  26  40  68  98 132 164 220 278 332 390
#
# _framework density 19.385417
#
# number of rings (size 3 to 8) (size 9 to 14) (size 15 to 20)
#    0.000    1.429    4.286    0.857    9.000    1.143 
#    0.000    0.000    3.143    0.000    0.000    0.000 
#    0.000    0.000    0.000    0.000    0.000    0.000 
#
# Total GULP energy -155891.483869 kJ/mol
# GULP energy per Si atom -5567.552995 kJ/mol
# Density = 1.934129 g / cm^3
# Si number density = 19.385417 Si / 1000 Ang^3
#
#
#
# Elastic Constant Matrix: (Units=GPa)
#
#
# Indices 1 2 3 4 5 6 
#
# 1 109.8515 28.0322 39.0854 0.0000 0.0000 0.0000
# 2 28.0322 50.6509 25.2094 0.0000 0.0000 0.0000
# 3 39.0854 25.2094 85.5946 0.0000 0.0000 0.0000
# 4 0.0000 0.0000 0.0000 24.7858 0.0000 0.0000
# 5 0.0000 0.0000 0.0000 0.0000 20.0115 0.0000
# 6 0.0000 0.0000 0.0000 0.0000 0.0000 39.2376
#
#
#
# Elastic Compliance Matrix: (Units=1/GPa)
#
#
# Indices 1 2 3 4 5 6 
#
# 1 0.011670 -0.004460 -0.004015 0.000000 0.000000 0.000000
# 2 -0.004460 0.024839 -0.005279 0.000000 0.000000 0.000000
# 3 -0.004015 -0.005279 0.015071 0.000000 0.000000 0.000000
# 4 0.000000 0.000000 0.000000 0.040346 0.000000 0.000000
# 5 0.000000 0.000000 0.000000 0.000000 0.049971 0.000000
# 6 0.000000 0.000000 0.000000 0.000000 0.000000 0.025486
#
#
# Mechanical properties :
#
#
# Convention : Reuss Voigt Hill
#
# Bulk Modulus (GPa) = 41.54323 47.86121 44.70222
# Shear Modulus (GPa) = 24.64082 27.05832 25.84957
#
# Velocity S-wave (km/s) = 3.56912 3.74010 3.65561
# Velocity P-wave (km/s) = 6.20173 6.58742 6.39748
#
# Compressibility (1/GPa) = 0.02407131
#
# Stress axis : x y z
#
# Youngs Moduli (GPa) = 85.68974 40.25963 66.35155
#
# Poissons Ratio (x) = 0.17957 0.26642
# Poissons Ratio (y) = 0.38219 0.35026
# Poissons Ratio (z) = 0.34407 0.21253
#
# Static dielectric constant tensor:
#      x y z
#    x 1.675190 0.000000 0.000000 
#    y 0.000000 1.758640 0.000000 
#    z 0.000000 0.000000 1.686550 
# 
# From -- ./inp_files/33801.got.cif
#   From: 2010.05.17/outbox.cif.g08.bks.cpg/sg24_17_cif.got.tgz:33801.got - 2010.06.04 00:33:39.
