data_PCOD9334160
_publ_section_title
;
Structure prediction by ZEFSAII (Michael W. Deem and Ramdas Pophale) SiO2 
 PCOD9334160
Probable space group: I 21 21 21
;
_chemical_formula_sum "Si O2"
_cell_formula_units_Z 64
_cell_length_a 22.475079
_cell_length_b 13.674853
_cell_length_c 9.970567
_cell_angle_alpha 90.000000
_cell_angle_beta 90.000000
_cell_angle_gamma 90.000000
_cell_volume 3064.387977
_symmetry_space_group_name_H-M "I 21 21 21"
_symmetry_group_IT_number 24
_symmetry_cell_setting 'orthorhombic'
loop_
_space_group_symop_operation_xyz
x,y,z
-x,1/2-y,z
x,-y,1/2-z
1/2-x,y,-z
1/2+x,1/2+y,1/2+z
1/2-x,-y,1/2+z
1/2+x,1/2-y,-z
-x,1/2+y,1/2-z
loop_
_atom_site_type_symbol
_atom_site_label
_atom_site_fract_x
_atom_site_fract_y
_atom_site_fract_z
Si Si1 0.359491 0.164466 0.012043
Si Si2 0.794206 0.393087 0.713204
Si Si3 0.409740 0.290267 0.212650
Si Si4 0.606618 0.556556 0.985018
Si Si5 0.672352 0.306405 0.714445
Si Si6 0.979168 0.601559 0.814072
Si Si7 0.817684 0.912263 0.846460
Si Si8 0.674612 0.087475 0.651623
O O1 0.320624 0.143686 0.145023
O O2 0.396466 0.261100 0.058631
O O3 0.325440 0.185507 0.875221
O O4 0.392542 0.061442 0.982463
O O5 0.767920 0.500000 0.750000
O O6 0.845075 0.411971 0.601189
O O7 0.739226 0.328284 0.664173
O O8 0.440877 0.192091 0.262820
O O9 0.455412 0.374578 0.259027
O O10 0.349848 0.316236 0.291629
O O11 0.629684 0.613139 0.854122
O O12 0.540931 0.591253 0.031852
O O13 0.651924 0.196593 0.680605
O O14 0.958957 0.500000 0.750000
O O15 0.746586 0.904731 0.837877
O O16 0.835764 0.000000 0.750000
O O17 0.837371 0.935518 0.996780
O O18 0.655334 0.000000 0.750000
#
# Coordination Sequence:
#
# PCOD9334160 Si02
#       8
#     8   8   8   8   8   8   8   8
#     4  11  22  38  59  96 133 167 206 263 316 386
#     4  10  20  36  58  92 131 173 212 251 298 378
#     4  11  22  37  67  94 117 156 218 261 317 375
#     4  11  21  39  62  92 132 166 209 266 321 378
#     4  12  24  35  62  93 135 173 207 248 330 393
#     4  11  21  40  63  94 119 155 207 274 315 366
#     4  10  22  41  65  90 118 163 221 266 314 378
#     4  10  24  41  57  86 132 168 203 262 318 378
#
# _framework density 20.885083000000002
#
# number of rings (size 3 to 8) (size 9 to 14) (size 15 to 20)
#    0.000    1.250    2.500    4.125    5.250    2.000 
#    2.250    0.000    0.000    7.500    0.000    0.000 
#    0.000    0.000    0.000    0.000    0.000    0.000 
#
# Total GULP energy -178479.789166 kJ/mol
# GULP energy per Si atom -5577.493411 kJ/mol
# Density = 2.083755 g / cm^3
# Si number density = 20.885083 Si / 1000 Ang^3
#
#
#
# Elastic Constant Matrix: (Units=GPa)
#
#
# Indices 1 2 3 4 5 6 
#
# 1 45.8134 20.6159 21.1789 0.0000 0.0000 0.0000
# 2 20.6159 100.1094 39.3891 0.0000 0.0000 0.0000
# 3 21.1789 39.3891 110.2381 0.0000 0.0000 0.0000
# 4 0.0000 0.0000 0.0000 32.6567 0.0000 0.0000
# 5 0.0000 0.0000 0.0000 0.0000 24.4175 0.0000
# 6 0.0000 0.0000 0.0000 0.0000 0.0000 -13.3510
#
#
#
# Elastic Compliance Matrix: (Units=1/GPa)
#
#
# Indices 1 2 3 4 5 6 
#
# 1 0.025147 -0.003814 -0.003469 0.000000 0.000000 0.000000
# 2 -0.003814 0.012202 -0.003627 0.000000 0.000000 0.000000
# 3 -0.003469 -0.003627 0.011034 0.000000 0.000000 0.000000
# 4 0.000000 0.000000 0.000000 0.030622 0.000000 0.000000
# 5 0.000000 0.000000 0.000000 0.000000 0.040954 0.000000
# 6 0.000000 0.000000 0.000000 0.000000 0.000000 -0.074901
#
#
# Mechanical properties :
#
#
# Convention : Reuss Voigt Hill
#
# Bulk Modulus (GPa) = 37.64553 46.50321 42.07437
# Shear Modulus (GPa) = 66.02306 20.40977 43.21642
#
# Velocity S-wave (km/s) = 5.62860 3.12948 4.55383
# Velocity P-wave (km/s) = 7.76568 5.94750 6.91659
#
# Compressibility (1/GPa) = 0.02656358
#
# Stress axis : x y z
#
# Youngs Moduli (GPa) = 39.76548 81.95658 90.63211
#
# Poissons Ratio (x) = 0.31258 0.31436
# Poissons Ratio (y) = 0.15166 0.32872
# Poissons Ratio (z) = 0.13793 0.29726
#
# Static dielectric constant tensor:
#      x y z
#    x 1.811040 0.000000 0.000000 
#    y 0.000000 1.546830 0.000000 
#    z 0.000000 0.000000 1.759420 
# 
# From -- ./inp_files/16047.got.cif
#   From: 2010.05.17/outbox.cif.g08.bks.cpg/sg24_9_cif.got.tgz:16047.got - 2010.06.04 00:33:39.
