data_PCOD9334261
_publ_section_title
;
Structure prediction by ZEFSAII (Michael W. Deem and Ramdas Pophale) SiO2 
 PCOD9334261
Probable space group: I 21 21 21
;
_chemical_formula_sum "Si O2"
_cell_formula_units_Z 40
_cell_length_a 8.899137
_cell_length_b 7.974075
_cell_length_c 27.440198
_cell_angle_alpha 90.000000
_cell_angle_beta 90.000000
_cell_angle_gamma 90.000000
_cell_volume 1947.221919
_symmetry_space_group_name_H-M "I 21 21 21"
_symmetry_group_IT_number 24
_symmetry_cell_setting 'orthorhombic'
loop_
_space_group_symop_operation_xyz
x,y,z
-x,1/2-y,z
x,-y,1/2-z
1/2-x,y,-z
1/2+x,1/2+y,1/2+z
1/2-x,-y,1/2+z
1/2+x,1/2-y,-z
-x,1/2+y,1/2-z
loop_
_atom_site_type_symbol
_atom_site_label
_atom_site_fract_x
_atom_site_fract_y
_atom_site_fract_z
Si Si1 0.750000 0.629145 0.000000
Si Si2 0.970422 0.063307 0.966288
Si Si3 0.064258 0.573396 0.342047
Si Si4 0.661600 0.175854 0.221709
Si Si5 0.337294 0.571010 0.937429
Si Si6 0.850986 0.500000 0.250000
O O1 0.629525 0.527560 0.030710
O O2 0.662293 0.748862 0.962785
O O3 0.000000 0.250000 0.949923
O O4 0.908289 0.053613 0.022069
O O5 0.839946 0.976358 0.935020
O O6 0.227164 0.621816 0.321253
O O7 0.083170 0.446875 0.386249
O O8 0.000000 0.750000 0.360971
O O9 0.959179 0.511181 0.297490
O O10 0.500000 0.250000 0.207622
O O11 0.750780 0.329203 0.249253
O O12 0.639116 0.000000 0.250000
#
# Coordination Sequence:
#
# PCOD9334261 Si02
#       6
#     4   8   8   8   8   4
#     4  10  20  40  60  94 122 162 208 260 314 382
#     4  10  20  37  63  86 124 165 204 249 316 376
#     4  10  22  40  65  95 130 169 222 263 324 395
#     4  11  22  42  68  94 129 171 221 270 340 389
#     4  10  20  37  60  89 125 158 203 262 308 371
#     4  10  22  44  70  92 130 178 216 284 320 396
#
# _framework density 20.542085
#
# number of rings (size 3 to 8) (size 9 to 14) (size 15 to 20)
#    0.000    2.000    2.000    4.200    0.000    0.800 
#    7.200    4.000    0.000    0.000    0.000    0.000 
#    0.000    0.000    0.000    0.000    0.000    0.000 
#
# Total GULP energy -111620.081294 kJ/mol
# GULP energy per Si atom -5581.004065 kJ/mol
# Density = 2.049533 g / cm^3
# Si number density = 20.542085 Si / 1000 Ang^3
#
#
#
# Elastic Constant Matrix: (Units=GPa)
#
#
# Indices 1 2 3 4 5 6 
#
# 1 107.0810 17.9928 5.0972 0.0000 0.0000 0.0000
# 2 17.9928 90.7597 7.9197 0.0000 0.0000 0.0000
# 3 5.0972 7.9197 46.1490 0.0000 0.0000 0.0000
# 4 0.0000 0.0000 0.0000 190.0843 0.0000 0.0000
# 5 0.0000 0.0000 0.0000 0.0000 9.9771 0.0000
# 6 0.0000 0.0000 0.0000 0.0000 0.0000 36.7474
#
#
#
# Elastic Compliance Matrix: (Units=1/GPa)
#
#
# Indices 1 2 3 4 5 6 
#
# 1 0.009686 -0.001855 -0.000752 0.000000 0.000000 0.000000
# 2 -0.001855 0.011541 -0.001776 0.000000 0.000000 0.000000
# 3 -0.000752 -0.001776 0.022057 0.000000 0.000000 0.000000
# 4 0.000000 0.000000 0.000000 0.005261 0.000000 0.000000
# 5 0.000000 0.000000 0.000000 0.000000 0.100229 0.000000
# 6 0.000000 0.000000 0.000000 0.000000 0.000000 0.027213
#
#
# Mechanical properties :
#
#
# Convention : Reuss Voigt Hill
#
# Bulk Modulus (GPa) = 28.96891 34.00100 31.48496
# Shear Modulus (GPa) = 25.47682 61.56044 43.51863
#
# Velocity S-wave (km/s) = 3.52550 5.48024 4.60772
# Velocity P-wave (km/s) = 5.54122 7.52541 6.60821
#
# Compressibility (1/GPa) = 0.03451977
#
# Stress axis : x y z
#
# Youngs Moduli (GPa) = 103.24030 86.64960 45.33771
#
# Poissons Ratio (x) = 0.16071 0.03407
# Poissons Ratio (y) = 0.19148 0.08050
# Poissons Ratio (z) = 0.07759 0.15386
#
# Static dielectric constant tensor:
#      x y z
#    x -1.974520 0.000000 0.000000 
#    y 0.000000 1.753340 0.000000 
#    z 0.000000 0.000000 1.729900 
# 
# From -- ./inp_files/38199.got.cif
#   From: 2010.05.17/outbox.cif.g08.bks.cpg/sg24_20_cif.got.tgz:38199.got - 2010.06.04 00:33:39.
