data_PCOD9334189
_publ_section_title
;
Structure prediction by ZEFSAII (Michael W. Deem and Ramdas Pophale) SiO2 
 PCOD9334189
Probable space group: I 21 21 21
;
_chemical_formula_sum "Si O2"
_cell_formula_units_Z 60
_cell_length_a 5.166888
_cell_length_b 30.143766
_cell_length_c 18.557420
_cell_angle_alpha 90.000000
_cell_angle_beta 90.000000
_cell_angle_gamma 90.000000
_cell_volume 2890.308196
_symmetry_space_group_name_H-M "I 21 21 21"
_symmetry_group_IT_number 24
_symmetry_cell_setting 'orthorhombic'
loop_
_space_group_symop_operation_xyz
x,y,z
-x,1/2-y,z
x,-y,1/2-z
1/2-x,y,-z
1/2+x,1/2+y,1/2+z
1/2-x,-y,1/2+z
1/2+x,1/2-y,-z
-x,1/2+y,1/2-z
loop_
_atom_site_type_symbol
_atom_site_label
_atom_site_fract_x
_atom_site_fract_y
_atom_site_fract_z
Si Si1 0.194933 0.583410 0.189388
Si Si2 0.250000 0.719737 0.000000
Si Si3 0.035878 0.966861 0.696943
Si Si4 0.391732 0.675141 0.148804
Si Si5 0.116297 0.204042 0.263005
Si Si6 0.996108 0.580097 0.451353
Si Si7 0.825303 0.988563 0.081535
Si Si8 0.853974 0.380455 0.185828
O O1 0.322035 0.549039 0.245179
O O2 0.392990 0.621681 0.161953
O O3 0.087063 0.555186 0.123090
O O4 0.978990 0.605795 0.238358
O O5 0.500000 0.750000 0.979533
O O6 0.155502 0.689865 0.933060
O O7 0.145975 0.919126 0.673485
O O8 0.912915 0.991485 0.628493
O O9 0.200811 0.000000 0.750000
O O10 0.640180 0.700502 0.182072
O O11 0.135083 0.689015 0.191867
O O12 0.205248 0.170659 0.199532
O O13 0.000000 0.250000 0.233622
O O14 0.750000 0.591249 0.500000
O O15 0.031616 0.612480 0.383682
O O16 0.250000 0.580209 0.500000
O O17 0.975878 0.529505 0.421604
O O18 0.750000 0.978029 0.000000
#
# Coordination Sequence:
#
# PCOD9334189 Si02
#       8
#     8   4   8   8   8   8   8   8
#     4  10  22  38  57  89 124 168 214 267 315 379
#     4  12  24  40  66  88 122 172 212 262 328 392
#     4  10  20  36  61  86 123 170 215 263 316 378
#     4  11  23  41  62  91 127 161 213 264 322 375
#     4  11  23  41  66  94 122 159 209 271 315 383
#     4  11  24  40  62  92 126 169 214 266 318 391
#     4  10  21  39  59  88 127 171 215 261 319 378
#     4  11  22  38  63  88 126 162 215 258 331 376
#
# _framework density 20.759032000000001
#
# number of rings (size 3 to 8) (size 9 to 14) (size 15 to 20)
#    0.000    1.333    2.667    4.000    2.800    0.000 
#    0.000    0.000    1.467    0.800    0.000    0.000 
#    0.000    0.000    0.000    0.000    0.000    0.000 
#
# Total GULP energy -167279.386197 kJ/mol
# GULP energy per Si atom -5575.979540 kJ/mol
# Density = 2.071178 g / cm^3
# Si number density = 20.759032 Si / 1000 Ang^3
#
#
#
# Elastic Constant Matrix: (Units=GPa)
#
#
# Indices 1 2 3 4 5 6 
#
# 1 86.0793 22.0278 21.5180 0.0000 0.0000 0.0000
# 2 22.0278 88.1574 55.1737 0.0000 0.0000 0.0000
# 3 21.5180 55.1737 116.5799 0.0000 0.0000 0.0000
# 4 0.0000 0.0000 0.0000 42.3757 0.0000 0.0000
# 5 0.0000 0.0000 0.0000 0.0000 20.2990 0.0000
# 6 0.0000 0.0000 0.0000 0.0000 0.0000 22.4627
#
#
#
# Elastic Compliance Matrix: (Units=1/GPa)
#
#
# Indices 1 2 3 4 5 6 
#
# 1 0.012524 -0.002391 -0.001180 0.000000 0.000000 0.000000
# 2 -0.002391 0.016574 -0.007402 0.000000 0.000000 0.000000
# 3 -0.001180 -0.007402 0.012299 0.000000 0.000000 0.000000
# 4 0.000000 0.000000 0.000000 0.023598 0.000000 0.000000
# 5 0.000000 0.000000 0.000000 0.000000 0.049263 0.000000
# 6 0.000000 0.000000 0.000000 0.000000 0.000000 0.044518
#
#
# Mechanical properties :
#
#
# Convention : Reuss Voigt Hill
#
# Bulk Modulus (GPa) = 51.41447 54.25064 52.83256
# Shear Modulus (GPa) = 26.70841 29.83395 28.27118
#
# Velocity S-wave (km/s) = 3.59080 3.79510 3.69436
# Velocity P-wave (km/s) = 6.48173 6.73750 6.61085
#
# Compressibility (1/GPa) = 0.01944978
#
# Stress axis : x y z
#
# Youngs Moduli (GPa) = 79.84665 60.33691 81.30730
#
# Poissons Ratio (x) = 0.14425 0.09596
# Poissons Ratio (y) = 0.19089 0.60188
# Poissons Ratio (z) = 0.09423 0.44664
#
# Static dielectric constant tensor:
#      x y z
#    x 1.799300 0.000000 0.000000 
#    y 0.000000 2.112880 0.000000 
#    z 0.000000 0.000000 1.801020 
# 
# From -- ./inp_files/28961.got.cif
#   From: 2010.05.17/outbox.cif.g08.bks.cpg/sg24_15_cif.got.tgz:28961.got - 2010.06.04 00:33:39.
