data_PCOD9334928
_publ_section_title
;
Structure prediction by ZEFSAII (Michael W. Deem and Ramdas Pophale) SiO2 
 PCOD9334928
Probable space group: I 21 21 21
;
_chemical_formula_sum "Si O2"
_cell_formula_units_Z 36
_cell_length_a 9.211542
_cell_length_b 21.052956
_cell_length_c 8.938254
_cell_angle_alpha 90.000000
_cell_angle_beta 90.000000
_cell_angle_gamma 90.000000
_cell_volume 1733.397282
_symmetry_space_group_name_H-M "I 21 21 21"
_symmetry_group_IT_number 24
_symmetry_cell_setting 'orthorhombic'
loop_
_space_group_symop_operation_xyz
x,y,z
-x,1/2-y,z
x,-y,1/2-z
1/2-x,y,-z
1/2+x,1/2+y,1/2+z
1/2-x,-y,1/2+z
1/2+x,1/2-y,-z
-x,1/2+y,1/2-z
loop_
_atom_site_type_symbol
_atom_site_label
_atom_site_fract_x
_atom_site_fract_y
_atom_site_fract_z
Si Si1 0.275016 0.187926 0.829440
Si Si2 0.500000 0.750000 0.871537
Si Si3 0.603835 0.981017 0.080737
Si Si4 0.908095 0.641513 0.921320
Si Si5 0.614851 0.549578 0.612586
O O1 0.361353 0.239809 0.734076
O O2 0.128321 0.169730 0.741613
O O3 0.368026 0.121988 0.832090
O O4 0.250000 0.206638 0.000000
O O5 0.497464 0.689424 0.979783
O O6 0.485196 0.925468 0.085719
O O7 0.635525 0.000000 0.250000
O O8 0.750000 0.959714 0.000000
O O9 0.529905 0.036517 0.982307
O O10 0.750000 0.636162 0.000000
O O11 0.621408 0.500000 0.750000
O O12 0.750000 0.539287 0.500000
#
# Coordination Sequence:
#
# PCOD9334928 Si02
#       5
#     8   4   8   8   8
#     4  10  21  38  63  92 119 155 206 255 298 353
#     4  10  22  40  60  88 118 156 210 252 292 356
#     4  12  25  40  60  92 129 161 198 251 309 359
#     4  10  22  42  67  89 118 164 207 243 298 372
#     4  11  20  37  65  94 122 158 202 249 299 364
#
# _framework density 20.768464000000002
#
# number of rings (size 3 to 8) (size 9 to 14) (size 15 to 20)
#    0.000    1.333    0.000    8.667    0.000    3.556 
#    0.000    3.333    0.000    0.000    0.000    0.000 
#    0.000    0.000    0.000    0.000    0.000    0.000 
#
# Total GULP energy -100658.272327 kJ/mol
# GULP energy per Si atom -5592.126240 kJ/mol
# Density = 2.072119 g / cm^3
# Si number density = 20.768464 Si / 1000 Ang^3
#
#
#
# Elastic Constant Matrix: (Units=GPa)
#
#
# Indices 1 2 3 4 5 6 
#
# 1 67.2450 24.7285 32.2933 0.0000 0.0000 0.0000
# 2 24.7285 67.7025 38.9993 -0.0001 0.0001 0.0001
# 3 32.2933 38.9993 154.6875 -0.0001 -0.0005 -0.0002
# 4 0.0000 -0.0001 -0.0001 15.3709 0.0000 0.0000
# 5 0.0000 0.0001 -0.0005 0.0000 10.5435 0.0000
# 6 0.0000 0.0001 -0.0002 0.0000 0.0000 20.8066
#
#
#
# Elastic Compliance Matrix: (Units=1/GPa)
#
#
# Indices 1 2 3 4 5 6 
#
# 1 0.017937 -0.005141 -0.002449 0.000000 0.000000 0.000000
# 2 -0.005141 0.018754 -0.003655 0.000000 0.000000 0.000000
# 3 -0.002449 -0.003655 0.007897 0.000000 0.000000 0.000000
# 4 0.000000 0.000000 0.000000 0.065058 0.000000 0.000000
# 5 0.000000 0.000000 0.000000 0.000000 0.094845 0.000000
# 6 0.000000 0.000000 0.000000 0.000000 0.000000 0.048062
#
#
# Mechanical properties :
#
#
# Convention : Reuss Voigt Hill
#
# Bulk Modulus (GPa) = 45.25043 53.51969 49.38506
# Shear Modulus (GPa) = 17.70484 22.25180 19.97832
#
# Velocity S-wave (km/s) = 2.92291 3.27681 3.10490
# Velocity P-wave (km/s) = 5.76424 6.33579 6.05676
#
# Compressibility (1/GPa) = 0.02209924
#
# Stress axis : x y z
#
# Youngs Moduli (GPa) = 55.74919 53.32291 126.62642
#
# Poissons Ratio (x) = 0.27415 0.31005
# Poissons Ratio (y) = 0.28662 0.46279
# Poissons Ratio (z) = 0.13650 0.19488
#
# Static dielectric constant tensor:
#      x y z
#    x 1.726080 0.000000 0.000000 
#    y 0.000000 1.740330 0.000000 
#    z 0.000000 0.000000 1.774610 
# 
# From -- ./inp_files/9067.got.cif
#   From: 2010.05.17/outbox.cif.g08.bks.cpg/sg24_5_cif.got.tgz:9067.got - 2010.06.04 00:33:39.
