data_PCOD9334198
_publ_section_title
;
Structure prediction by ZEFSAII (Michael W. Deem and Ramdas Pophale) SiO2 
 PCOD9334198
Probable space group: I 21 21 21
;
_chemical_formula_sum "Si O2"
_cell_formula_units_Z 48
_cell_length_a 10.986470
_cell_length_b 25.578833
_cell_length_c 8.908826
_cell_angle_alpha 90.000000
_cell_angle_beta 90.000000
_cell_angle_gamma 90.000000
_cell_volume 2503.567916
_symmetry_space_group_name_H-M "I 21 21 21"
_symmetry_group_IT_number 24
_symmetry_cell_setting 'orthorhombic'
loop_
_space_group_symop_operation_xyz
x,y,z
-x,1/2-y,z
x,-y,1/2-z
1/2-x,y,-z
1/2+x,1/2+y,1/2+z
1/2-x,-y,1/2+z
1/2+x,1/2-y,-z
-x,1/2+y,1/2-z
loop_
_atom_site_type_symbol
_atom_site_label
_atom_site_fract_x
_atom_site_fract_y
_atom_site_fract_z
Si Si1 0.750000 0.397199 0.000000
Si Si2 0.250000 0.296085 0.500000
Si Si3 0.584055 0.442902 0.240086
Si Si4 0.114244 0.558175 0.193271
Si Si5 0.500000 0.250000 0.633624
Si Si6 0.250000 0.904658 0.000000
Si Si7 0.357959 0.603181 0.147216
Si Si8 0.916464 0.642530 0.246013
O O1 0.845881 0.432947 0.912821
O O2 0.680940 0.362800 0.877307
O O3 0.370619 0.263212 0.548301
O O4 0.305143 0.338865 0.381974
O O5 0.526162 0.500000 0.250000
O O6 0.681364 0.438314 0.374694
O O7 0.483274 0.398914 0.265042
O O8 0.085296 0.500000 0.250000
O O9 0.253165 0.571712 0.233354
O O10 0.018385 0.598103 0.263857
O O11 0.114841 0.573572 0.013605
O O12 0.475656 0.198651 0.730683
O O13 0.152679 0.870242 0.090000
#
# Coordination Sequence:
#
# PCOD9334198 Si02
#       8
#     4   4   8   8   4   4   8   8
#     4  10  27  40  54  89 133 158 219 254 328 390
#     4  10  21  38  68 107 121 164 220 285 312 388
#     4  11  21  36  60  88 124 172 209 263 313 386
#     4  10  20  36  62  87 127 159 202 261 315 374
#     4  12  20  40  70  94 130 164 220 274 340 372
#     4  10  20  38  58  86 122 162 211 269 312 368
#     4  10  20  40  58  96 127 158 221 264 312 388
#     4  11  22  41  63  89 122 166 210 264 317 388
#
# _framework density 19.172637000000002
#
# number of rings (size 3 to 8) (size 9 to 14) (size 15 to 20)
#    0.000    1.667    5.000    1.500    2.333    4.000 
#    0.000    1.667    0.000    2.000    0.000    0.000 
#    0.000    0.000    0.000    0.000    0.000    0.000 
#
# Total GULP energy -133764.209413 kJ/mol
# GULP energy per Si atom -5573.508726 kJ/mol
# Density = 1.912900 g / cm^3
# Si number density = 19.172637 Si / 1000 Ang^3
#
#
#
# Elastic Constant Matrix: (Units=GPa)
#
#
# Indices 1 2 3 4 5 6 
#
# 1 106.1513 41.0209 18.9240 0.0000 0.0000 0.0000
# 2 41.0209 128.3299 14.8407 0.0000 0.0000 0.0000
# 3 18.9240 14.8407 53.4787 0.0004 -0.0001 0.0001
# 4 0.0000 0.0000 0.0004 6.5772 0.0000 0.0000
# 5 0.0000 0.0000 -0.0001 0.0000 30.7566 0.0000
# 6 0.0000 0.0000 0.0001 0.0000 0.0000 32.2498
#
#
#
# Elastic Compliance Matrix: (Units=1/GPa)
#
#
# Indices 1 2 3 4 5 6 
#
# 1 0.011217 -0.003230 -0.003073 0.000000 0.000000 0.000000
# 2 -0.003230 0.008981 -0.001349 0.000000 0.000000 0.000000
# 3 -0.003073 -0.001349 0.020161 -0.000001 0.000000 0.000000
# 4 0.000000 0.000000 -0.000001 0.152041 0.000000 0.000000
# 5 0.000000 0.000000 0.000000 0.000000 0.032513 0.000000
# 6 0.000000 0.000000 0.000000 0.000000 0.000000 0.031008
#
#
# Mechanical properties :
#
#
# Convention : Reuss Voigt Hill
#
# Bulk Modulus (GPa) = 39.91354 48.61455 44.26404
# Shear Modulus (GPa) = 17.88425 28.12834 23.00629
#
# Velocity S-wave (km/s) = 3.05749 3.83444 3.46779
# Velocity P-wave (km/s) = 5.77300 6.70933 6.25870
#
# Compressibility (1/GPa) = 0.02505416
#
# Stress axis : x y z
#
# Youngs Moduli (GPa) = 89.15431 111.34695 49.60121
#
# Poissons Ratio (x) = 0.35965 0.15241
# Poissons Ratio (y) = 0.28797 0.06693
# Poissons Ratio (z) = 0.27395 0.15024
#
# Static dielectric constant tensor:
#      x y z
#    x 1.722170 0.000000 0.000000 
#    y 0.000000 1.665690 0.000000 
#    z 0.000000 0.000000 1.687520 
# 
# From -- ./inp_files/11343.got.cif
#   From: 2010.05.17/outbox.cif.g08.bks.cpg/sg24_6_cif.got.tgz:11343.got - 2010.06.04 00:33:39.
