data_PCOD9334685
_publ_section_title
;
Structure prediction by ZEFSAII (Michael W. Deem and Ramdas Pophale) SiO2 
 PCOD9334685
Probable space group: I 21 21 21
;
_chemical_formula_sum "Si O2"
_cell_formula_units_Z 24
_cell_length_a 14.549406
_cell_length_b 7.191654
_cell_length_c 8.370688
_cell_angle_alpha 90.000000
_cell_angle_beta 90.000000
_cell_angle_gamma 90.000000
_cell_volume 875.861028
_symmetry_space_group_name_H-M "I 21 21 21"
_symmetry_group_IT_number 24
_symmetry_cell_setting 'orthorhombic'
loop_
_space_group_symop_operation_xyz
x,y,z
-x,1/2-y,z
x,-y,1/2-z
1/2-x,y,-z
1/2+x,1/2+y,1/2+z
1/2-x,-y,1/2+z
1/2+x,1/2-y,-z
-x,1/2+y,1/2-z
loop_
_atom_site_type_symbol
_atom_site_label
_atom_site_fract_x
_atom_site_fract_y
_atom_site_fract_z
Si Si1 0.444118 0.500000 0.750000
Si Si2 0.384234 0.158935 0.905493
Si Si3 0.250000 0.161860 0.500000
Si Si4 0.393372 0.779411 0.242942
O O1 0.384492 0.313884 0.765019
O O2 0.518142 0.451490 0.889622
O O3 0.375581 0.271183 0.072526
O O4 0.313072 0.991548 0.909610
O O5 0.317827 0.279496 0.386043
O O6 0.500000 0.750000 0.200798
O O7 0.381921 0.000000 0.250000
#
# Coordination Sequence:
#
# PCOD9334685 Si02
#       4
#     4   8   4   8
#     4  10  20  42  78 102 148 206 240 318 368 458
#     4  10  22  43  73 111 150 195 260 305 378 452
#     4  10  24  44  80 110 152 200 252 316 384 450
#     4  10  21  46  75 108 151 199 249 315 378 457
#
# _framework density 27.401608
#
# number of rings (size 3 to 8) (size 9 to 14) (size 15 to 20)
#    0.000    2.000    3.333    0.000    7.000    0.000 
#   24.000    0.000   29.333   10.000    0.000    0.000 
#    0.000    0.000    0.000    0.000    0.000    0.000 
#
# Total GULP energy -66971.379049 kJ/mol
# GULP energy per Si atom -5580.948254 kJ/mol
# Density = 2.733924 g / cm^3
# Si number density = 27.401608 Si / 1000 Ang^3
#
#
#
# Elastic Constant Matrix: (Units=GPa)
#
#
# Indices 1 2 3 4 5 6 
#
# 1 159.1614 38.1587 76.6939 0.0000 0.0000 0.0000
# 2 38.1587 135.0939 48.7257 0.0000 0.0000 0.0000
# 3 76.6939 48.7257 177.4556 0.0000 0.0000 0.0000
# 4 0.0000 0.0000 0.0000 17.9068 0.0000 0.0000
# 5 0.0000 0.0000 0.0000 0.0000 57.2891 0.0000
# 6 0.0000 0.0000 0.0000 0.0000 0.0000 44.0622
#
#
#
# Elastic Compliance Matrix: (Units=1/GPa)
#
#
# Indices 1 2 3 4 5 6 
#
# 1 0.008090 -0.001137 -0.003184 0.000000 0.000000 0.000000
# 2 -0.001137 0.008376 -0.001809 0.000000 0.000000 0.000000
# 3 -0.003184 -0.001809 0.007508 0.000000 0.000000 0.000000
# 4 0.000000 0.000000 0.000000 0.055845 0.000000 0.000000
# 5 0.000000 0.000000 0.000000 0.000000 0.017455 0.000000
# 6 0.000000 0.000000 0.000000 0.000000 0.000000 0.022695
#
#
# Mechanical properties :
#
#
# Convention : Reuss Voigt Hill
#
# Bulk Modulus (GPa) = 85.36297 88.76306 87.06302
# Shear Modulus (GPa) = 36.72904 44.39379 40.56142
#
# Velocity S-wave (km/s) = 3.66512 4.02943 3.85158
# Velocity P-wave (km/s) = 7.00935 7.35610 7.18481
#
# Compressibility (1/GPa) = 0.01171468
#
# Stress axis : x y z
#
# Youngs Moduli (GPa) = 123.61286 119.39438 133.19159
#
# Poissons Ratio (x) = 0.13570 0.42411
# Poissons Ratio (y) = 0.14049 0.24089
# Poissons Ratio (z) = 0.39361 0.21593
#
# Static dielectric constant tensor:
#      x y z
#    x 2.291270 0.000000 0.000000 
#    y 0.000000 2.062890 0.000000 
#    z 0.000000 0.000000 2.386330 
# 
# From -- ./inp_files/11788.got.cif
#   From: 2010.05.17/outbox.cif.g08.bks.cpg/sg24_6_cif.got.tgz:11788.got - 2010.06.04 00:33:39.
