data_PCOD9334983
_publ_section_title
;
Structure prediction by ZEFSAII (Michael W. Deem and Ramdas Pophale) SiO2 
 PCOD9334983
Probable space group: I 21 21 21
;
_chemical_formula_sum "Si O2"
_cell_formula_units_Z 48
_cell_length_a 9.121811
_cell_length_b 26.312840
_cell_length_c 9.028189
_cell_angle_alpha 90.000000
_cell_angle_beta 90.000000
_cell_angle_gamma 90.000000
_cell_volume 2166.952725
_symmetry_space_group_name_H-M "I 21 21 21"
_symmetry_group_IT_number 24
_symmetry_cell_setting 'orthorhombic'
loop_
_space_group_symop_operation_xyz
x,y,z
-x,1/2-y,z
x,-y,1/2-z
1/2-x,y,-z
1/2+x,1/2+y,1/2+z
1/2-x,-y,1/2+z
1/2+x,1/2-y,-z
-x,1/2+y,1/2-z
loop_
_atom_site_type_symbol
_atom_site_label
_atom_site_fract_x
_atom_site_fract_y
_atom_site_fract_z
Si Si1 0.631403 0.532794 0.106526
Si Si2 0.302136 0.145875 0.341734
Si Si3 0.053415 0.693762 0.690023
Si Si4 0.135234 0.535707 0.112874
Si Si5 0.112172 0.147767 0.085431
Si Si6 0.303424 0.382143 0.835624
O O1 0.587048 0.500000 0.250000
O O2 0.707254 0.584742 0.164415
O O3 0.750000 0.505621 0.000000
O O4 0.500836 0.547591 0.994246
O O5 0.250000 0.163032 0.500000
O O6 0.468704 0.158153 0.305243
O O7 0.198424 0.172647 0.220969
O O8 0.219271 0.672255 0.684782
O O9 0.000000 0.750000 0.728764
O O10 0.974928 0.682350 0.531747
O O11 0.090693 0.500000 0.250000
O O12 0.221364 0.581828 0.194695
O O13 0.250000 0.510413 0.000000
O O14 0.979705 0.116671 0.153922
O O15 0.250000 0.122434 0.000000
O O16 0.250000 0.398414 0.000000
#
# Coordination Sequence:
#
# PCOD9334983 Si02
#       6
#     8   8   8   8   8   8
#     4  11  24  41  65  95 129 171 220 269 323 392
#     4  10  21  40  60  88 127 164 207 266 331 387
#     4  10  22  41  64  92 122 162 217 268 323 396
#     4  12  25  41  61  91 132 174 221 271 324 388
#     4   9  20  36  61  89 123 163 206 264 321 384
#     4  10  21  39  63  91 124 168 217 268 326 387
#
# _framework density 22.150922999999999
#
# number of rings (size 3 to 8) (size 9 to 14) (size 15 to 20)
#    0.000    1.667    0.000    4.500    0.000   12.000 
#    0.000    5.000    0.000    0.000    0.000    0.000 
#    0.000    0.000    0.000    0.000    0.000    0.000 
#
# Total GULP energy -133638.267368 kJ/mol
# GULP energy per Si atom -5568.261140 kJ/mol
# Density = 2.210051 g / cm^3
# Si number density = 22.150923 Si / 1000 Ang^3
#
#
#
# Elastic Constant Matrix: (Units=GPa)
#
#
# Indices 1 2 3 4 5 6 
#
# 1 120.1575 19.0850 28.3406 -0.0011 0.0002 0.0001
# 2 19.0850 72.2578 17.8606 0.0003 -0.0003 0.0000
# 3 28.3406 17.8606 123.3561 -0.0059 0.0015 0.0006
# 4 -0.0011 0.0003 -0.0059 -27.2856 -0.0012 -0.0006
# 5 0.0002 -0.0003 0.0015 -0.0012 38.8122 0.0003
# 6 0.0001 0.0000 0.0006 -0.0006 0.0003 9.9300
#
#
#
# Elastic Compliance Matrix: (Units=1/GPa)
#
#
# Indices 1 2 3 4 5 6 
#
# 1 0.009056 -0.001947 -0.001799 0.000000 0.000000 0.000000
# 2 -0.001947 0.014772 -0.001691 0.000001 0.000000 0.000000
# 3 -0.001799 -0.001691 0.008765 -0.000002 0.000000 -0.000001
# 4 0.000000 0.000001 -0.000002 -0.036649 -0.000001 -0.000002
# 5 0.000000 0.000000 0.000000 -0.000001 0.025765 -0.000001
# 6 0.000000 0.000000 -0.000001 -0.000002 -0.000001 0.100705
#
#
# Mechanical properties :
#
#
# Convention : Reuss Voigt Hill
#
# Bulk Modulus (GPa) = 46.04529 49.59377 47.81953
# Shear Modulus (GPa) = 35.58028 20.99033 28.28531
#
# Velocity S-wave (km/s) = 4.01217 3.08166 3.57730
# Velocity P-wave (km/s) = 6.50351 5.92451 6.22075
#
# Compressibility (1/GPa) = 0.02171775
#
# Stress axis : x y z
#
# Youngs Moduli (GPa) = 110.42483 67.69684 114.09357
#
# Poissons Ratio (x) = 0.13183 0.20521
# Poissons Ratio (y) = 0.21503 0.19298
# Poissons Ratio (z) = 0.19861 0.11450
#
# Static dielectric constant tensor:
#      x y z
#    x 1.871160 0.000000 0.000000 
#    y 0.000000 1.840220 0.000000 
#    z 0.000000 0.000000 1.868360 
# 
# From -- ./inp_files/9729.got.cif
#   From: 2010.05.17/outbox.cif.g08.bks.cpg/sg24_5_cif.got.tgz:9729.got - 2010.06.04 00:33:39.
