data_PCOD9334575
_publ_section_title
;
Structure prediction by ZEFSAII (Michael W. Deem and Ramdas Pophale) SiO2 
 PCOD9334575
Probable space group: I 21 21 21
;
_chemical_formula_sum "Si O2"
_cell_formula_units_Z 56
_cell_length_a 13.923286
_cell_length_b 11.851824
_cell_length_c 15.029159
_cell_angle_alpha 90.000000
_cell_angle_beta 90.000000
_cell_angle_gamma 90.000000
_cell_volume 2480.056739
_symmetry_space_group_name_H-M "I 21 21 21"
_symmetry_group_IT_number 24
_symmetry_cell_setting 'orthorhombic'
loop_
_space_group_symop_operation_xyz
x,y,z
-x,1/2-y,z
x,-y,1/2-z
1/2-x,y,-z
1/2+x,1/2+y,1/2+z
1/2-x,-y,1/2+z
1/2+x,1/2-y,-z
-x,1/2+y,1/2-z
loop_
_atom_site_type_symbol
_atom_site_label
_atom_site_fract_x
_atom_site_fract_y
_atom_site_fract_z
Si Si1 0.768856 0.068569 0.161393
Si Si2 0.113674 0.766083 0.428699
Si Si3 0.176326 0.988331 0.083116
Si Si4 0.308926 0.365420 0.426496
Si Si5 0.480531 0.117086 0.460309
Si Si6 0.385207 0.749276 0.361523
Si Si7 0.672137 0.647148 0.187811
O O1 0.838231 0.165199 0.125811
O O2 0.666033 0.132303 0.166050
O O3 0.794110 0.000000 0.250000
O O4 0.762181 0.966537 0.093274
O O5 0.139161 0.766851 0.534424
O O6 0.000000 0.750000 0.424370
O O7 0.147229 0.885658 0.390323
O O8 0.231929 0.917154 0.157928
O O9 0.250000 0.993808 0.000000
O O10 0.080503 0.931663 0.041585
O O11 0.250000 0.294383 0.500000
O O12 0.410734 0.422223 0.448874
O O13 0.322095 0.276843 0.347058
O O14 0.500000 0.250000 0.473591
O O15 0.417501 0.100425 0.370730
O O16 0.500000 0.750000 0.352974
O O17 0.347556 0.844063 0.292524
#
# Coordination Sequence:
#
# PCOD9334575 Si02
#       7
#     8   8   8   8   8   8   8
#     4  12  26  47  71 103 146 188 248 308 367 443
#     4  11  27  50  75 103 146 200 255 302 378 448
#     4  10  21  42  67  99 147 198 241 294 367 447
#     4  11  21  36  70 103 139 186 245 300 362 429
#     4   9  19  35  63 104 149 189 240 293 365 451
#     4  11  23  43  73 114 151 187 237 306 376 445
#     4  10  20  40  66 106 151 185 231 297 374 443
#
# _framework density 22.580127999999998
#
# number of rings (size 3 to 8) (size 9 to 14) (size 15 to 20)
#    0.000    1.429    1.429    5.571    6.000    0.000 
#    0.000    7.857    0.000    0.000    0.000    0.000 
#    0.000    0.000    0.000    0.000    0.000    0.000 
#
# Total GULP energy -156505.464272 kJ/mol
# GULP energy per Si atom -5589.480867 kJ/mol
# Density = 2.252873 g / cm^3
# Si number density = 22.580128 Si / 1000 Ang^3
#
#
#
# Elastic Constant Matrix: (Units=GPa)
#
#
# Indices 1 2 3 4 5 6 
#
# 1 123.4879 78.6639 70.7651 0.0000 0.0000 0.0000
# 2 78.6639 104.4435 60.2301 0.0000 0.0000 0.0000
# 3 70.7651 60.2301 122.9269 0.0000 0.0000 0.0000
# 4 0.0000 0.0000 0.0000 40.5320 0.0000 0.0000
# 5 0.0000 0.0000 0.0000 0.0000 13.8864 0.0000
# 6 0.0000 0.0000 0.0000 0.0000 0.0000 34.1131
#
#
#
# Elastic Compliance Matrix: (Units=1/GPa)
#
#
# Indices 1 2 3 4 5 6 
#
# 1 0.017567 -0.010313 -0.005060 0.000000 0.000000 0.000000
# 2 -0.010313 0.019400 -0.003568 0.000000 0.000000 0.000000
# 3 -0.005060 -0.003568 0.012796 0.000000 0.000000 0.000000
# 4 0.000000 0.000000 0.000000 0.024672 0.000000 0.000000
# 5 0.000000 0.000000 0.000000 0.000000 0.072013 0.000000
# 6 0.000000 0.000000 0.000000 0.000000 0.000000 0.029314
#
#
# Mechanical properties :
#
#
# Convention : Reuss Voigt Hill
#
# Bulk Modulus (GPa) = 84.17126 85.57517 84.87322
# Shear Modulus (GPa) = 22.97741 27.11958 25.04850
#
# Velocity S-wave (km/s) = 3.19344 3.46936 3.33425
# Velocity P-wave (km/s) = 7.13828 7.35046 7.24515
#
# Compressibility (1/GPa) = 0.01188054
#
# Stress axis : x y z
#
# Youngs Moduli (GPa) = 56.92432 51.54632 78.14957
#
# Poissons Ratio (x) = 0.53161 0.39541
# Poissons Ratio (y) = 0.58708 0.27886
# Poissons Ratio (z) = 0.28802 0.18393
#
# Static dielectric constant tensor:
#      x y z
#    x 1.861400 0.000000 0.000000 
#    y 0.000000 1.847370 0.000000 
#    z 0.000000 0.000000 1.948820 
# 
# From -- ./inp_files/26515.got.cif
#   From: 2010.05.17/outbox.cif.g08.bks.cpg/sg24_14_cif.got.tgz:26515.got - 2010.06.04 00:33:39.
