data_PCOD9334153
_publ_section_title
;
Structure prediction by ZEFSAII (Michael W. Deem and Ramdas Pophale) SiO2 
 PCOD9334153
Probable space group: I 21 21 21
;
_chemical_formula_sum "Si O2"
_cell_formula_units_Z 36
_cell_length_a 7.217916
_cell_length_b 24.545545
_cell_length_c 10.914766
_cell_angle_alpha 90.000000
_cell_angle_beta 90.000000
_cell_angle_gamma 90.000000
_cell_volume 1933.743792
_symmetry_space_group_name_H-M "I 21 21 21"
_symmetry_group_IT_number 24
_symmetry_cell_setting 'orthorhombic'
loop_
_space_group_symop_operation_xyz
x,y,z
-x,1/2-y,z
x,-y,1/2-z
1/2-x,y,-z
1/2+x,1/2+y,1/2+z
1/2-x,-y,1/2+z
1/2+x,1/2-y,-z
-x,1/2+y,1/2-z
loop_
_atom_site_type_symbol
_atom_site_label
_atom_site_fract_x
_atom_site_fract_y
_atom_site_fract_z
Si Si1 0.500000 0.750000 0.235302
Si Si2 0.777405 0.039218 0.361205
Si Si3 0.912119 0.379646 0.329411
Si Si4 0.649947 0.296617 0.879980
Si Si5 0.506748 0.860406 0.098949
O O1 0.318949 0.767229 0.310209
O O2 0.550794 0.802727 0.156964
O O3 0.750000 0.015838 0.500000
O O4 0.651691 0.093343 0.365601
O O5 0.983247 0.062429 0.331410
O O6 0.722958 0.000000 0.250000
O O7 0.936833 0.342555 0.209009
O O8 0.991400 0.352331 0.453155
O O9 0.692286 0.381546 0.352674
O O10 0.500000 0.250000 0.911222
O O11 0.750000 0.320826 0.000000
#
# Coordination Sequence:
#
# PCOD9334153 Si02
#       5
#     4   8   8   8   8
#     4  10  20  36  58  88 114 154 194 238 300 350
#     4  10  21  41  61  87 116 153 199 251 295 345
#     4   9  20  37  56  82 114 149 194 243 287 344
#     4  11  21  35  52  79 120 157 190 235 289 351
#     4   9  19  37  60  85 117 147 196 246 291 351
#
# _framework density 18.616736
#
# number of rings (size 3 to 8) (size 9 to 14) (size 15 to 20)
#    0.000    2.222    1.111    1.333    1.556    0.889 
#   16.000    0.000    0.000    0.000    0.000    0.000 
#    0.000    0.000    0.000    0.000    0.000    0.000 
#
# Total GULP energy -100314.848324 kJ/mol
# GULP energy per Si atom -5573.047129 kJ/mol
# Density = 1.857436 g / cm^3
# Si number density = 18.616736 Si / 1000 Ang^3
#
#
#
# Elastic Constant Matrix: (Units=GPa)
#
#
# Indices 1 2 3 4 5 6 
#
# 1 51.6864 23.9608 27.5529 0.0000 0.0000 0.0000
# 2 23.9608 57.0022 61.5264 0.0000 0.0000 0.0000
# 3 27.5529 61.5264 129.0722 0.0000 0.0000 0.0000
# 4 0.0000 0.0000 0.0000 34.4406 0.0000 0.0000
# 5 0.0000 0.0000 0.0000 0.0000 21.8950 0.0000
# 6 0.0000 0.0000 0.0000 0.0000 0.0000 22.6788
#
#
#
# Elastic Compliance Matrix: (Units=1/GPa)
#
#
# Indices 1 2 3 4 5 6 
#
# 1 0.024056 -0.009412 -0.000649 0.000000 0.000000 0.000000
# 2 -0.009412 0.039817 -0.016971 0.000000 0.000000 0.000000
# 3 -0.000649 -0.016971 0.015976 0.000000 0.000000 0.000000
# 4 0.000000 0.000000 0.000000 0.029035 0.000000 0.000000
# 5 0.000000 0.000000 0.000000 0.000000 0.045673 0.000000
# 6 0.000000 0.000000 0.000000 0.000000 0.000000 0.044094
#
#
# Mechanical properties :
#
#
# Convention : Reuss Voigt Hill
#
# Bulk Modulus (GPa) = 38.78014 51.53789 45.15902
# Shear Modulus (GPa) = 19.13429 24.11760 21.62595
#
# Velocity S-wave (km/s) = 3.20941 3.60318 3.41198
# Velocity P-wave (km/s) = 5.88301 6.71225 6.31126
#
# Compressibility (1/GPa) = 0.02578639
#
# Stress axis : x y z
#
# Youngs Moduli (GPa) = 41.56891 25.11459 62.59397
#
# Poissons Ratio (x) = 0.23637 0.04062
# Poissons Ratio (y) = 0.39123 1.06229
# Poissons Ratio (z) = 0.02698 0.42622
#
# Static dielectric constant tensor:
#      x y z
#    x 1.689380 0.000000 0.000000 
#    y 0.000000 1.607480 0.000000 
#    z 0.000000 0.000000 1.677610 
# 
# From -- ./inp_files/9080.got.cif
#   From: 2010.05.17/outbox.cif.g08.bks.cpg/sg24_5_cif.got.tgz:9080.got - 2010.06.04 00:33:39.
