data_PCOD9334777
_publ_section_title
;
Structure prediction by ZEFSAII (Michael W. Deem and Ramdas Pophale) SiO2 
 PCOD9334777
Probable space group: I 21 21 21
;
_chemical_formula_sum "Si O2"
_cell_formula_units_Z 56
_cell_length_a 27.125415
_cell_length_b 16.373940
_cell_length_c 6.687590
_cell_angle_alpha 90.000000
_cell_angle_beta 90.000000
_cell_angle_gamma 90.000000
_cell_volume 2970.292548
_symmetry_space_group_name_H-M "I 21 21 21"
_symmetry_group_IT_number 24
_symmetry_cell_setting 'orthorhombic'
loop_
_space_group_symop_operation_xyz
x,y,z
-x,1/2-y,z
x,-y,1/2-z
1/2-x,y,-z
1/2+x,1/2+y,1/2+z
1/2-x,-y,1/2+z
1/2+x,1/2-y,-z
-x,1/2+y,1/2-z
loop_
_atom_site_type_symbol
_atom_site_label
_atom_site_fract_x
_atom_site_fract_y
_atom_site_fract_z
Si Si1 0.194977 0.731771 0.555474
Si Si2 0.618118 0.301633 0.316132
Si Si3 0.364843 0.316932 0.658256
Si Si4 0.035521 0.685495 0.630111
Si Si5 0.530900 0.420156 0.394661
Si Si6 0.799947 0.082573 0.628751
Si Si7 0.457913 0.413189 0.750850
O O1 0.250000 0.758109 0.500000
O O2 0.163916 0.803142 0.664382
O O3 0.164115 0.698886 0.364205
O O4 0.201873 0.656571 0.711369
O O5 0.637116 0.263591 0.522734
O O6 0.583250 0.232626 0.208183
O O7 0.585038 0.380479 0.365153
O O8 0.340344 0.389781 0.531941
O O9 0.421804 0.341609 0.679094
O O10 0.038417 0.610108 0.482000
O O11 0.000000 0.750000 0.520385
O O12 0.004983 0.650489 0.812995
O O13 0.527787 0.500000 0.250000
O O14 0.507465 0.427567 0.618263
O O15 0.750000 0.074009 0.500000
O O16 0.810295 0.000000 0.750000
O O17 0.430929 0.500000 0.750000
#
# Coordination Sequence:
#
# PCOD9334777 Si02
#       7
#     8   8   8   8   8   8   8
#     4  11  22  41  61  86 119 159 213 257 306 359
#     4  10  23  39  63  88 117 159 203 259 303 366
#     4  11  24  37  56  87 120 159 208 251 298 360
#     4  10  21  36  56  83 119 160 201 238 296 360
#     4  11  23  41  58  89 126 155 199 253 309 370
#     4  11  24  36  55  82 119 163 205 251 303 347
#     4  12  24  34  56  84 123 167 199 244 296 356
#
# _framework density 18.853362000000001
#
# number of rings (size 3 to 8) (size 9 to 14) (size 15 to 20)
#    0.000    1.143    5.714    0.429    4.000    0.571 
#    0.000    0.000    0.000    0.000    3.714    0.000 
#    0.000    0.000    0.000    0.000    0.000    0.000 
#
# Total GULP energy -155945.745883 kJ/mol
# GULP energy per Si atom -5569.490924 kJ/mol
# Density = 1.881045 g / cm^3
# Si number density = 18.853362 Si / 1000 Ang^3
#
#
#
# Elastic Constant Matrix: (Units=GPa)
#
#
# Indices 1 2 3 4 5 6 
#
# 1 85.9693 17.4911 33.5527 0.0000 0.0000 0.0000
# 2 17.4911 40.9853 12.1815 0.0000 0.0000 0.0000
# 3 33.5527 12.1815 90.8383 0.0000 0.0000 0.0000
# 4 0.0000 0.0000 0.0000 19.7637 0.0000 0.0000
# 5 0.0000 0.0000 0.0000 0.0000 -39.3020 0.0000
# 6 0.0000 0.0000 0.0000 0.0000 0.0000 26.2662
#
#
#
# Elastic Compliance Matrix: (Units=1/GPa)
#
#
# Indices 1 2 3 4 5 6 
#
# 1 0.014433 -0.004765 -0.004692 0.000000 0.000000 0.000000
# 2 -0.004765 0.026985 -0.001859 0.000000 0.000000 0.000000
# 3 -0.004692 -0.001859 0.012991 0.000000 0.000000 0.000000
# 4 0.000000 0.000000 0.000000 0.050598 0.000000 0.000000
# 5 0.000000 0.000000 0.000000 0.000000 -0.025444 0.000000
# 6 0.000000 0.000000 0.000000 0.000000 0.000000 0.038072
#
#
# Mechanical properties :
#
#
# Convention : Reuss Voigt Hill
#
# Bulk Modulus (GPa) = 31.46890 38.24926 34.85908
# Shear Modulus (GPa) = 33.14379 11.65008 22.39693
#
# Velocity S-wave (km/s) = 4.19737 2.48852 3.45041
# Velocity P-wave (km/s) = 6.34178 5.34685 5.86545
#
# Compressibility (1/GPa) = 0.03177740
#
# Stress axis : x y z
#
# Youngs Moduli (GPa) = 69.28692 37.05775 76.97694
#
# Poissons Ratio (x) = 0.17657 0.36118
# Poissons Ratio (y) = 0.33014 0.14308
# Poissons Ratio (z) = 0.32509 0.06888
#
# Static dielectric constant tensor:
#      x y z
#    x 1.705150 0.000000 0.000000 
#    y 0.000000 1.775260 0.000000 
#    z 0.000000 0.000000 1.754590 
# 
# From -- ./inp_files/7751.got.cif
#   From: 2010.05.17/outbox.cif.g08.bks.cpg/sg24_4_cif.got.tgz:7751.got - 2010.06.04 00:33:39.
