data_PCOD9334813
_publ_section_title
;
Structure prediction by ZEFSAII (Michael W. Deem and Ramdas Pophale) SiO2 
 PCOD9334813
Probable space group: I 21 21 21
;
_chemical_formula_sum "Si O2"
_cell_formula_units_Z 52
_cell_length_a 12.753474
_cell_length_b 26.282392
_cell_length_c 8.283159
_cell_angle_alpha 90.000000
_cell_angle_beta 90.000000
_cell_angle_gamma 90.000000
_cell_volume 2776.447000
_symmetry_space_group_name_H-M "I 21 21 21"
_symmetry_group_IT_number 24
_symmetry_cell_setting 'orthorhombic'
loop_
_space_group_symop_operation_xyz
x,y,z
-x,1/2-y,z
x,-y,1/2-z
1/2-x,y,-z
1/2+x,1/2+y,1/2+z
1/2-x,-y,1/2+z
1/2+x,1/2-y,-z
-x,1/2+y,1/2-z
loop_
_atom_site_type_symbol
_atom_site_label
_atom_site_fract_x
_atom_site_fract_y
_atom_site_fract_z
Si Si1 0.047597 0.867512 0.313895
Si Si2 0.630617 0.184301 0.979019
Si Si3 0.794010 0.556772 0.182432
Si Si4 0.319312 0.222487 0.775971
Si Si5 0.142670 0.140212 0.823994
Si Si6 0.461318 0.691916 0.161803
Si Si7 0.750000 0.798925 0.000000
O O1 0.093930 0.915397 0.217567
O O2 0.093756 0.817994 0.222827
O O3 0.096752 0.867207 0.496360
O O4 0.928395 0.853990 0.357371
O O5 0.631584 0.241332 0.909864
O O6 0.750000 0.167885 0.000000
O O7 0.579717 0.189874 0.153796
O O8 0.797872 0.500000 0.250000
O O9 0.710881 0.591313 0.279669
O O10 0.750000 0.557060 0.000000
O O11 0.220699 0.188274 0.825134
O O12 0.280188 0.261768 0.644847
O O13 0.059265 0.153557 0.682500
O O14 0.500000 0.750000 0.123919
O O15 0.360870 0.675813 0.053182
#
# Coordination Sequence:
#
# PCOD9334813 Si02
#       7
#     8   8   8   8   8   8   4
#     4  10  22  34  57  83 107 155 194 241 289 348
#     4  11  19  36  54  76 111 161 208 238 272 338
#     4  11  23  40  63  90 118 141 182 240 302 363
#     4  11  20  32  48  77 112 155 201 233 279 338
#     4  10  21  37  57  76 114 155 194 236 294 345
#     4  11  21  35  50  73 114 162 197 240 284 337
#     4  12  24  28  46  76 118 158 200 246 284 338
#
# _framework density 18.728973
#
# number of rings (size 3 to 8) (size 9 to 14) (size 15 to 20)
#    0.000    1.231    3.077    6.000    4.308    2.462 
#    0.000    0.000    0.000    0.000    0.000    8.615 
#    2.308    0.000    0.000    0.000    0.000    0.000 
#
# Total GULP energy -145051.064250 kJ/mol
# GULP energy per Si atom -5578.887087 kJ/mol
# Density = 1.868634 g / cm^3
# Si number density = 18.728973 Si / 1000 Ang^3
#
#
#
# Elastic Constant Matrix: (Units=GPa)
#
#
# Indices 1 2 3 4 5 6 
#
# 1 109.5332 45.5058 12.9651 -0.0001 0.0000 0.0002
# 2 45.5058 98.9730 22.6613 -0.0015 0.0006 0.0006
# 3 12.9651 22.6613 51.5402 -0.0055 0.0038 0.0019
# 4 -0.0001 -0.0015 -0.0055 16.8989 0.0010 0.0007
# 5 0.0000 0.0006 0.0038 0.0010 36.7175 -0.0008
# 6 0.0002 0.0006 0.0019 0.0007 -0.0008 15.5752
#
#
#
# Elastic Compliance Matrix: (Units=1/GPa)
#
#
# Indices 1 2 3 4 5 6 
#
# 1 0.011303 -0.005055 -0.000621 -0.000001 0.000000 0.000000
# 2 -0.005055 0.013495 -0.004662 0.000000 0.000000 0.000000
# 3 -0.000621 -0.004662 0.021608 0.000007 -0.000002 -0.000002
# 4 -0.000001 0.000000 0.000007 0.059175 -0.000002 -0.000003
# 5 0.000000 0.000000 -0.000002 -0.000002 0.027235 0.000001
# 6 0.000000 0.000000 -0.000002 -0.000003 0.000001 0.064204
#
#
# Mechanical properties :
#
#
# Convention : Reuss Voigt Hill
#
# Bulk Modulus (GPa) = 38.86310 46.92341 42.89326
# Shear Modulus (GPa) = 22.09707 25.76595 23.93151
#
# Velocity S-wave (km/s) = 3.43860 3.71310 3.57848
# Velocity P-wave (km/s) = 6.04653 6.59478 6.32660
#
# Compressibility (1/GPa) = 0.02573135
#
# Stress axis : x y z
#
# Youngs Moduli (GPa) = 88.47073 74.09976 46.27843
#
# Poissons Ratio (x) = 0.37456 0.02873
# Poissons Ratio (y) = 0.44720 0.21575
# Poissons Ratio (z) = 0.05493 0.34546
#
# Static dielectric constant tensor:
#      x y z
#    x 1.755480 0.000000 0.000000 
#    y 0.000000 1.603960 0.000000 
#    z 0.000000 0.000000 1.737110 
# 
# From -- ./inp_files/11475.got.cif
#   From: 2010.05.17/outbox.cif.g08.bks.cpg/sg24_6_cif.got.tgz:11475.got - 2010.06.04 00:33:39.
