data_PCOD9334091
_publ_section_title
;
Structure prediction by ZEFSAII (Michael W. Deem and Ramdas Pophale) SiO2 
 PCOD9334091
Probable space group: I 21 21 21
;
_chemical_formula_sum "Si O2"
_cell_formula_units_Z 44
_cell_length_a 8.216337
_cell_length_b 15.958058
_cell_length_c 17.657236
_cell_angle_alpha 90.000000
_cell_angle_beta 90.000000
_cell_angle_gamma 90.000000
_cell_volume 2315.159970
_symmetry_space_group_name_H-M "I 21 21 21"
_symmetry_group_IT_number 24
_symmetry_cell_setting 'orthorhombic'
loop_
_space_group_symop_operation_xyz
x,y,z
-x,1/2-y,z
x,-y,1/2-z
1/2-x,y,-z
1/2+x,1/2+y,1/2+z
1/2-x,-y,1/2+z
1/2+x,1/2-y,-z
-x,1/2+y,1/2-z
loop_
_atom_site_type_symbol
_atom_site_label
_atom_site_fract_x
_atom_site_fract_y
_atom_site_fract_z
Si Si1 0.925531 0.344144 0.690189
Si Si2 0.750000 0.597282 0.500000
Si Si3 0.153623 0.509229 0.878502
Si Si4 0.981736 0.974757 0.046941
Si Si5 0.348499 0.803749 0.929656
Si Si6 0.549396 0.653242 0.356563
O O1 0.777627 0.336144 0.632130
O O2 0.864791 0.362600 0.775470
O O3 0.000000 0.250000 0.689031
O O4 0.055716 0.415906 0.664251
O O5 0.625639 0.541811 0.549646
O O6 0.647291 0.643185 0.434915
O O7 0.348308 0.521025 0.886092
O O8 0.095035 0.416586 0.853406
O O9 0.098165 0.511491 0.965478
O O10 0.064226 0.885346 0.038980
O O11 0.500000 0.750000 0.899693
O O12 0.250000 0.761698 0.000000
O O13 0.500000 0.750000 0.354831
#
# Coordination Sequence:
#
# PCOD9334091 Si02
#       6
#     8   4   8   8   8   8
#     4  11  22  40  58  87 125 163 204 252 309 378
#     4  10  20  42  62  86 114 156 206 266 322 366
#     4  10  20  37  61  87 118 162 202 249 306 376
#     4  10  20  35  59  89 121 154 206 247 298 376
#     4  12  22  34  58  90 128 169 201 245 308 380
#     4  10  23  41  63  84 116 159 206 265 324 367
#
# _framework density 19.005165999999999
#
# number of rings (size 3 to 8) (size 9 to 14) (size 15 to 20)
#    0.000    1.455    2.727    3.273    2.545    2.909 
#    0.000    8.182    0.000    0.000    0.000    0.000 
#    0.000    0.000    0.000    0.000    0.000    0.000 
#
# Total GULP energy -122476.948022 kJ/mol
# GULP energy per Si atom -5567.134001 kJ/mol
# Density = 1.896191 g / cm^3
# Si number density = 19.005166 Si / 1000 Ang^3
#
#
#
# Elastic Constant Matrix: (Units=GPa)
#
#
# Indices 1 2 3 4 5 6 
#
# 1 91.0382 30.6495 25.6811 0.0000 0.0000 0.0000
# 2 30.6495 95.8592 14.3870 0.0000 0.0000 0.0000
# 3 25.6811 14.3870 69.4500 0.0000 0.0000 0.0000
# 4 0.0000 0.0000 0.0000 89.4102 0.0000 0.0000
# 5 0.0000 0.0000 0.0000 0.0000 12.7455 0.0000
# 6 0.0000 0.0000 0.0000 0.0000 0.0000 11.8153
#
#
#
# Elastic Compliance Matrix: (Units=1/GPa)
#
#
# Indices 1 2 3 4 5 6 
#
# 1 0.013399 -0.003654 -0.004198 0.000000 0.000000 0.000000
# 2 -0.003654 0.011763 -0.001086 0.000000 0.000000 0.000000
# 3 -0.004198 -0.001086 0.016176 0.000000 0.000000 0.000000
# 4 0.000000 0.000000 0.000000 0.011184 0.000000 0.000000
# 5 0.000000 0.000000 0.000000 0.000000 0.078459 0.000000
# 6 0.000000 0.000000 0.000000 0.000000 0.000000 0.084636
#
#
# Mechanical properties :
#
#
# Convention : Reuss Voigt Hill
#
# Bulk Modulus (GPa) = 42.61974 44.19807 43.40891
# Shear Modulus (GPa) = 20.72003 35.16954 27.94478
#
# Velocity S-wave (km/s) = 3.30545 4.30644 3.83871
# Velocity P-wave (km/s) = 6.08621 6.93062 6.52210
#
# Compressibility (1/GPa) = 0.02346331
#
# Stress axis : x y z
#
# Youngs Moduli (GPa) = 74.63406 85.01067 61.82030
#
# Poissons Ratio (x) = 0.31063 0.25950
# Poissons Ratio (y) = 0.27272 0.06711
# Poissons Ratio (z) = 0.31328 0.09229
#
# Static dielectric constant tensor:
#      x y z
#    x 1.759420 0.000000 0.000000 
#    y 0.000000 1.683360 0.000000 
#    z 0.000000 0.000000 1.682520 
# 
# From -- ./inp_files/12658.got.cif
#   From: 2010.05.17/outbox.cif.g08.bks.cpg/sg24_7_cif.got.tgz:12658.got - 2010.06.04 00:33:39.
