data_PCOD9334454
_publ_section_title
;
Structure prediction by ZEFSAII (Michael W. Deem and Ramdas Pophale) SiO2 
 PCOD9334454
Probable space group: I 21 21 21
;
_chemical_formula_sum "Si O2"
_cell_formula_units_Z 60
_cell_length_a 27.311603
_cell_length_b 12.652077
_cell_length_c 9.036546
_cell_angle_alpha 90.000000
_cell_angle_beta 90.000000
_cell_angle_gamma 90.000000
_cell_volume 3122.564953
_symmetry_space_group_name_H-M "I 21 21 21"
_symmetry_group_IT_number 24
_symmetry_cell_setting 'orthorhombic'
loop_
_space_group_symop_operation_xyz
x,y,z
-x,1/2-y,z
x,-y,1/2-z
1/2-x,y,-z
1/2+x,1/2+y,1/2+z
1/2-x,-y,1/2+z
1/2+x,1/2-y,-z
-x,1/2+y,1/2-z
loop_
_atom_site_type_symbol
_atom_site_label
_atom_site_fract_x
_atom_site_fract_y
_atom_site_fract_z
Si Si1 0.731874 0.388663 0.829850
Si Si2 0.911329 0.295500 0.861374
Si Si3 0.963729 0.837874 0.881553
Si Si4 0.137832 0.364550 0.451799
Si Si5 0.803988 0.931628 0.540222
Si Si6 0.189015 0.729456 0.787954
Si Si7 0.967027 0.500000 0.750000
Si Si8 0.354395 0.254477 0.858315
O O1 0.739128 0.500000 0.750000
O O2 0.764087 0.299087 0.747761
O O3 0.675374 0.352053 0.824284
O O4 0.750000 0.394566 0.000000
O O5 0.945115 0.209107 0.777192
O O6 0.858379 0.287227 0.782017
O O7 0.934832 0.409376 0.828383
O O8 0.899524 0.268213 0.031333
O O9 0.000000 0.750000 0.946972
O O10 0.996542 0.940584 0.861310
O O11 0.915020 0.855189 0.973335
O O12 0.157536 0.482316 0.483026
O O13 0.176199 0.291508 0.542263
O O14 0.134019 0.322026 0.286507
O O15 0.750000 0.970351 0.500000
O O16 0.807448 0.885418 0.706779
O O17 0.815300 0.825659 0.448054
#
# Coordination Sequence:
#
# PCOD9334454 Si02
#       8
#     8   8   8   8   8   8   4   8
#     4  12  25  43  62  88 126 180 220 269 300 375
#     4   9  20  39  66  88 120 163 198 276 316 377
#     4   9  21  43  64  92 120 154 214 273 312 394
#     4  11  25  35  67  97 127 171 205 261 325 401
#     4  11  21  40  62  91 135 176 212 256 316 379
#     4  10  21  40  61  88 129 168 224 258 305 368
#     4  10  20  38  72  96 108 154 230 260 328 382
#     4  11  23  43  57  95 138 163 210 260 328 376
#
# _framework density 19.214971999999999
#
# number of rings (size 3 to 8) (size 9 to 14) (size 15 to 20)
#    0.000    1.600    4.000    0.800   10.267    1.067 
#    4.800    2.000    0.000    0.000    0.000    0.000 
#    0.000    0.000    0.000    0.000    0.000    0.000 
#
# Total GULP energy -167440.456974 kJ/mol
# GULP energy per Si atom -5581.348566 kJ/mol
# Density = 1.917124 g / cm^3
# Si number density = 19.214972 Si / 1000 Ang^3
#
#
#
# Elastic Constant Matrix: (Units=GPa)
#
#
# Indices 1 2 3 4 5 6 
#
# 1 96.5203 31.8052 20.3812 0.0000 0.0000 0.0000
# 2 31.8052 94.2570 24.2439 0.0000 0.0000 0.0000
# 3 20.3812 24.2439 79.0500 0.0000 0.0000 0.0000
# 4 0.0000 0.0000 0.0000 20.7395 0.0000 0.0000
# 5 0.0000 0.0000 0.0000 0.0000 21.5280 0.0000
# 6 0.0000 0.0000 0.0000 0.0000 0.0000 27.2080
#
#
#
# Elastic Compliance Matrix: (Units=1/GPa)
#
#
# Indices 1 2 3 4 5 6 
#
# 1 0.011941 -0.003515 -0.002001 0.000000 0.000000 0.000000
# 2 -0.003515 0.012552 -0.002944 0.000000 0.000000 0.000000
# 3 -0.002001 -0.002944 0.014069 0.000000 0.000000 0.000000
# 4 0.000000 0.000000 0.000000 0.048217 0.000000 0.000000
# 5 0.000000 0.000000 0.000000 0.000000 0.046451 0.000000
# 6 0.000000 0.000000 0.000000 0.000000 0.000000 0.036754
#
#
# Mechanical properties :
#
#
# Convention : Reuss Voigt Hill
#
# Bulk Modulus (GPa) = 46.20151 46.96531 46.58341
# Shear Modulus (GPa) = 25.75761 26.78824 26.27293
#
# Velocity S-wave (km/s) = 3.66525 3.73786 3.70173
# Velocity P-wave (km/s) = 6.48142 6.56688 6.52429
#
# Compressibility (1/GPa) = 0.02164431
#
# Stress axis : x y z
#
# Youngs Moduli (GPa) = 83.74396 79.66629 71.07911
#
# Poissons Ratio (x) = 0.28000 0.14222
# Poissons Ratio (y) = 0.29433 0.20922
# Poissons Ratio (z) = 0.16756 0.23450
#
# Static dielectric constant tensor:
#      x y z
#    x 1.642420 0.000000 0.000000 
#    y 0.000000 1.722090 0.000000 
#    z 0.000000 0.000000 1.706430 
# 
# From -- ./inp_files/16440.got.cif
#   From: 2010.05.17/outbox.cif.g08.bks.cpg/sg24_9_cif.got.tgz:16440.got - 2010.06.04 00:33:39.
