data_PCOD9334474
_publ_section_title
;
Structure prediction by ZEFSAII (Michael W. Deem and Ramdas Pophale) SiO2 
 PCOD9334474
Probable space group: I 21 21 21
;
_chemical_formula_sum "Si O2"
_cell_formula_units_Z 44
_cell_length_a 18.537683
_cell_length_b 12.643805
_cell_length_c 9.540650
_cell_angle_alpha 90.000000
_cell_angle_beta 90.000000
_cell_angle_gamma 90.000000
_cell_volume 2236.202891
_symmetry_space_group_name_H-M "I 21 21 21"
_symmetry_group_IT_number 24
_symmetry_cell_setting 'orthorhombic'
loop_
_space_group_symop_operation_xyz
x,y,z
-x,1/2-y,z
x,-y,1/2-z
1/2-x,y,-z
1/2+x,1/2+y,1/2+z
1/2-x,-y,1/2+z
1/2+x,1/2-y,-z
-x,1/2+y,1/2-z
loop_
_atom_site_type_symbol
_atom_site_label
_atom_site_fract_x
_atom_site_fract_y
_atom_site_fract_z
Si Si1 0.561300 0.828826 0.786980
Si Si2 0.000000 0.250000 0.794104
Si Si3 0.466421 0.913758 0.048754
Si Si4 0.666193 0.275241 0.500746
Si Si5 0.061985 0.594091 0.515243
Si Si6 0.811909 0.058676 0.615735
O O1 0.500000 0.750000 0.728226
O O2 0.632451 0.777653 0.857377
O O3 0.577450 0.896918 0.650111
O O4 0.517302 0.875904 0.919333
O O5 0.013441 0.152792 0.686766
O O6 0.060336 0.295864 0.900819
O O7 0.485130 0.037113 0.047538
O O8 0.385237 0.875338 0.022438
O O9 0.750000 0.303903 0.500000
O O10 0.660821 0.180483 0.384905
O O11 0.121004 0.515166 0.577320
O O12 0.750000 0.059128 0.500000
O O13 0.780116 0.000000 0.750000
#
# Coordination Sequence:
#
# PCOD9334474 Si02
#       6
#     8   4   8   8   8   8
#     4  10  20  39  61  92 117 161 201 258 313 367
#     4  12  22  38  58  90 120 158 212 262 308 364
#     4  11  20  38  63  85 119 160 206 251 313 374
#     4  10  21  37  63  87 125 162 205 245 319 379
#     4  12  23  37  63  91 124 156 214 264 313 372
#     4  11  24  36  56  90 127 166 202 255 325 384
#
# _framework density 19.676210999999999
#
# number of rings (size 3 to 8) (size 9 to 14) (size 15 to 20)
#    0.000    1.091    5.455    3.273    5.091    0.000 
#    0.000    0.000    0.000    9.818    0.000    0.000 
#    0.000    0.000    0.000    0.000    0.000    0.000 
#
# Total GULP energy -122523.634651 kJ/mol
# GULP energy per Si atom -5569.256120 kJ/mol
# Density = 1.963143 g / cm^3
# Si number density = 19.676211 Si / 1000 Ang^3
#
#
#
# Elastic Constant Matrix: (Units=GPa)
#
#
# Indices 1 2 3 4 5 6 
#
# 1 115.5500 13.3839 24.5368 0.0000 0.0000 0.0000
# 2 13.3839 39.9133 19.0346 0.0000 0.0000 0.0000
# 3 24.5368 19.0346 110.7001 0.0000 0.0000 0.0000
# 4 0.0000 0.0000 0.0000 10.8499 0.0000 0.0000
# 5 0.0000 0.0000 0.0000 0.0000 23.5770 0.0000
# 6 0.0000 0.0000 0.0000 0.0000 0.0000 25.5590
#
#
#
# Elastic Compliance Matrix: (Units=1/GPa)
#
#
# Indices 1 2 3 4 5 6 
#
# 1 0.009275 -0.002320 -0.001657 0.000000 0.000000 0.000000
# 2 -0.002320 0.027873 -0.004278 0.000000 0.000000 0.000000
# 3 -0.001657 -0.004278 0.010136 0.000000 0.000000 0.000000
# 4 0.000000 0.000000 0.000000 0.092167 0.000000 0.000000
# 5 0.000000 0.000000 0.000000 0.000000 0.042414 0.000000
# 6 0.000000 0.000000 0.000000 0.000000 0.000000 0.039125
#
#
# Mechanical properties :
#
#
# Convention : Reuss Voigt Hill
#
# Bulk Modulus (GPa) = 32.49564 42.23044 37.36304
# Shear Modulus (GPa) = 20.18097 25.94438 23.06267
#
# Velocity S-wave (km/s) = 3.20606 3.63515 3.42732
# Velocity P-wave (km/s) = 5.50056 6.25526 5.89001
#
# Compressibility (1/GPa) = 0.03077336
#
# Stress axis : x y z
#
# Youngs Moduli (GPa) = 107.81893 35.87748 98.65512
#
# Poissons Ratio (x) = 0.08323 0.16346
# Poissons Ratio (y) = 0.25013 0.42209
# Poissons Ratio (z) = 0.17864 0.15350
#
# Static dielectric constant tensor:
#      x y z
#    x 1.698930 0.000000 0.000000 
#    y 0.000000 1.812990 0.000000 
#    z 0.000000 0.000000 1.746100 
# 
# From -- ./inp_files/14053.got.cif
#   From: 2010.05.17/outbox.cif.g08.bks.cpg/sg24_8_cif.got.tgz:14053.got - 2010.06.04 00:33:39.
