data_PCOD9334751
_publ_section_title
;
Structure prediction by ZEFSAII (Michael W. Deem and Ramdas Pophale) SiO2 
 PCOD9334751
Probable space group: I 21 21 21
;
_chemical_formula_sum "Si O2"
_cell_formula_units_Z 40
_cell_length_a 7.402900
_cell_length_b 9.169015
_cell_length_c 25.296012
_cell_angle_alpha 90.000000
_cell_angle_beta 90.000000
_cell_angle_gamma 90.000000
_cell_volume 1717.025024
_symmetry_space_group_name_H-M "I 21 21 21"
_symmetry_group_IT_number 24
_symmetry_cell_setting 'orthorhombic'
loop_
_space_group_symop_operation_xyz
x,y,z
-x,1/2-y,z
x,-y,1/2-z
1/2-x,y,-z
1/2+x,1/2+y,1/2+z
1/2-x,-y,1/2+z
1/2+x,1/2-y,-z
-x,1/2+y,1/2-z
loop_
_atom_site_type_symbol
_atom_site_label
_atom_site_fract_x
_atom_site_fract_y
_atom_site_fract_z
Si Si1 0.916810 0.902583 0.938240
Si Si2 0.252869 0.032468 0.129496
Si Si3 0.000000 0.750000 0.683264
Si Si4 0.443670 0.084426 0.972931
Si Si5 0.717736 0.222229 0.336199
Si Si6 0.187224 0.500000 0.750000
O O1 0.767824 0.852509 0.894686
O O2 0.000000 0.750000 0.955635
O O3 0.064490 0.986248 0.902201
O O4 0.919801 0.990881 0.992500
O O5 0.322014 0.185172 0.153869
O O6 0.091270 0.051810 0.088212
O O7 0.209309 0.887900 0.163957
O O8 0.934209 0.889817 0.715814
O O9 0.500000 0.250000 0.978676
O O10 0.250000 0.061322 0.000000
O O11 0.500000 0.250000 0.328002
O O12 0.782616 0.109578 0.291552
#
# Coordination Sequence:
#
# PCOD9334751 Si02
#       6
#     8   8   4   8   8   4
#     4   8  16  32  49  70 108 148 184 224 276 328
#     4   9  19  32  50  71 117 148 185 230 287 334
#     4  12  18  30  50  82 116 148 178 250 282 350
#     4  10  21  35  56  81 113 159 193 231 283 336
#     4   9  16  30  46  76 111 154 180 234 286 344
#     4  12  18  26  52  82 118 144 192 230 314 328
#
# _framework density 23.296106999999999
#
# number of rings (size 3 to 8) (size 9 to 14) (size 15 to 20)
#    0.000    2.800    5.000    0.000    5.600    0.000 
#    0.000    7.000    0.000    0.000    0.000    4.200 
#    0.000    0.000    0.000    0.000    0.000    0.000 
#
# Total GULP energy -111351.947829 kJ/mol
# GULP energy per Si atom -5567.597391 kJ/mol
# Density = 2.324308 g / cm^3
# Si number density = 23.296107 Si / 1000 Ang^3
#
#
#
# Elastic Constant Matrix: (Units=GPa)
#
#
# Indices 1 2 3 4 5 6 
#
# 1 65.0590 20.3304 22.8675 0.0000 0.0000 0.0000
# 2 20.3304 154.0916 82.0401 0.0000 0.0000 0.0000
# 3 22.8675 82.0401 113.8804 0.0000 0.0000 0.0000
# 4 0.0000 0.0000 0.0000 61.8890 0.0000 0.0000
# 5 0.0000 0.0000 0.0000 0.0000 123.5307 0.0000
# 6 0.0000 0.0000 0.0000 0.0000 0.0000 7.6631
#
#
#
# Elastic Compliance Matrix: (Units=1/GPa)
#
#
# Indices 1 2 3 4 5 6 
#
# 1 0.016581 -0.000673 -0.002845 0.000000 0.000000 0.000000
# 2 -0.000673 0.010555 -0.007469 0.000000 0.000000 0.000000
# 3 -0.002845 -0.007469 0.014733 0.000000 0.000000 0.000000
# 4 0.000000 0.000000 0.000000 0.016158 0.000000 0.000000
# 5 0.000000 0.000000 0.000000 0.000000 0.008095 0.000000
# 6 0.000000 0.000000 0.000000 0.000000 0.000000 0.130496
#
#
# Mechanical properties :
#
#
# Convention : Reuss Voigt Hill
#
# Bulk Modulus (GPa) = 50.26171 64.83410 57.54790
# Shear Modulus (GPa) = 22.20029 52.46942 37.33486
#
# Velocity S-wave (km/s) = 3.09036 4.75097 4.00762
# Velocity P-wave (km/s) = 5.86138 7.61489 6.79493
#
# Compressibility (1/GPa) = 0.01989586
#
# Stress axis : x y z
#
# Youngs Moduli (GPa) = 60.31054 94.74347 67.87600
#
# Poissons Ratio (x) = 0.06378 0.19308
# Poissons Ratio (y) = 0.04060 0.50694
# Poissons Ratio (z) = 0.17156 0.70760
#
# Static dielectric constant tensor:
#      x y z
#    x 1.918760 0.000000 0.000000 
#    y 0.000000 1.423950 0.000000 
#    z 0.000000 0.000000 1.997070 
# 
# From -- ./inp_files/36782.got.cif
#   From: 2010.05.17/outbox.cif.g08.bks.cpg/sg24_19_cif.got.tgz:36782.got - 2010.06.04 00:33:39.
