data_PCOD9334659
_publ_section_title
;
Structure prediction by ZEFSAII (Michael W. Deem and Ramdas Pophale) SiO2 
 PCOD9334659
Probable space group: I 21 21 21
;
_chemical_formula_sum "Si O2"
_cell_formula_units_Z 52
_cell_length_a 20.449223
_cell_length_b 19.733941
_cell_length_c 6.022251
_cell_angle_alpha 90.000000
_cell_angle_beta 90.000000
_cell_angle_gamma 90.000000
_cell_volume 2430.241813
_symmetry_space_group_name_H-M "I 21 21 21"
_symmetry_group_IT_number 24
_symmetry_cell_setting 'orthorhombic'
loop_
_space_group_symop_operation_xyz
x,y,z
-x,1/2-y,z
x,-y,1/2-z
1/2-x,y,-z
1/2+x,1/2+y,1/2+z
1/2-x,-y,1/2+z
1/2+x,1/2-y,-z
-x,1/2+y,1/2-z
loop_
_atom_site_type_symbol
_atom_site_label
_atom_site_fract_x
_atom_site_fract_y
_atom_site_fract_z
Si Si1 0.651105 0.642818 0.713509
Si Si2 0.715803 0.500000 0.750000
Si Si3 0.143976 0.248330 0.842275
Si Si4 0.112933 0.500000 0.250000
Si Si5 0.559679 0.927483 0.137412
Si Si6 0.172763 0.614402 0.544142
Si Si7 0.962523 0.311917 0.516655
Si Si8 0.250000 0.231404 0.500000
O O1 0.672938 0.566170 0.708384
O O2 0.657095 0.680006 0.477893
O O3 0.581654 0.651609 0.832824
O O4 0.700998 0.684024 0.867000
O O5 0.750000 0.490000 0.500000
O O6 0.082445 0.228920 0.692811
O O7 0.204158 0.268774 0.678615
O O8 0.140331 0.312066 0.009272
O O9 0.069026 0.447751 0.384087
O O10 0.155744 0.548114 0.402669
O O11 0.630719 0.903705 0.231918
O O12 0.507392 0.867075 0.143270
O O13 0.541535 0.000000 0.250000
O O14 0.250000 0.622542 0.500000
O O15 0.000000 0.250000 0.400808
#
# Coordination Sequence:
#
# PCOD9334659 Si02
#       8
#     8   4   8   4   8   8   8   4
#     4  11  25  41  72 104 142 192 245 301 380 453
#     4  12  26  47  78 114 163 204 254 324 396 474
#     4  11  24  42  71 105 142 186 241 303 375 447
#     4  10  26  41  72  94 137 180 230 288 364 442
#     4  10  24  47  66  99 137 182 233 295 363 443
#     4  11  24  41  69 101 138 182 229 301 363 445
#     4  11  25  45  69 101 143 188 250 310 370 448
#     4  10  20  42  62 104 142 178 228 300 360 446
#
# _framework density 21.397046
#
# number of rings (size 3 to 8) (size 9 to 14) (size 15 to 20)
#    0.000    1.231    2.308    2.308    7.538    6.154 
#    0.000    0.000    0.000    0.000    0.000    0.000 
#    0.000    0.000    0.000    0.000    0.000    0.000 
#
# Total GULP energy -144850.740690 kJ/mol
# GULP energy per Si atom -5571.182334 kJ/mol
# Density = 2.134835 g / cm^3
# Si number density = 21.397046 Si / 1000 Ang^3
#
#
#
# Elastic Constant Matrix: (Units=GPa)
#
#
# Indices 1 2 3 4 5 6 
#
# 1 103.9883 50.4990 36.3791 0.0000 0.0000 0.0000
# 2 50.4990 151.7035 22.4462 0.0000 0.0000 0.0000
# 3 36.3791 22.4462 60.3171 0.0000 0.0000 0.0000
# 4 0.0000 0.0000 0.0000 24.8136 0.0000 0.0000
# 5 0.0000 0.0000 0.0000 0.0000 -70.4356 0.0000
# 6 0.0000 0.0000 0.0000 0.0000 0.0000 68.9179
#
#
#
# Elastic Compliance Matrix: (Units=1/GPa)
#
#
# Indices 1 2 3 4 5 6 
#
# 1 0.013790 -0.003556 -0.006994 0.000000 0.000000 0.000000
# 2 -0.003556 0.007893 -0.000793 0.000000 0.000000 0.000000
# 3 -0.006994 -0.000793 0.021092 0.000000 0.000000 0.000000
# 4 0.000000 0.000000 0.000000 0.040300 0.000000 0.000000
# 5 0.000000 0.000000 0.000000 0.000000 -0.014197 0.000000
# 6 0.000000 0.000000 0.000000 0.000000 0.000000 0.014510
#
#
# Mechanical properties :
#
#
# Convention : Reuss Voigt Hill
#
# Bulk Modulus (GPa) = 49.77484 59.40638 54.59061
# Shear Modulus (GPa) = 44.33838 18.43816 31.38827
#
# Velocity S-wave (km/s) = 4.55705 2.93868 3.83423
# Velocity P-wave (km/s) = 7.14156 6.27205 6.72088
#
# Compressibility (1/GPa) = 0.02009047
#
# Stress axis : x y z
#
# Youngs Moduli (GPa) = 72.51702 126.70006 47.41065
#
# Poissons Ratio (x) = 0.45049 0.33159
# Poissons Ratio (y) = 0.25784 0.03758
# Poissons Ratio (z) = 0.50718 0.10043
#
# Static dielectric constant tensor:
#      x y z
#    x 1.835240 0.000000 0.000000 
#    y 0.000000 1.987720 0.000000 
#    z 0.000000 0.000000 1.833620 
# 
# From -- ./inp_files/5709.got.cif
#   From: 2010.05.17/outbox.cif.g08.bks.cpg/sg24_3_cif.got.tgz:5709.got - 2010.06.04 00:33:39.
