data_PCOD9334648
_publ_section_title
;
Structure prediction by ZEFSAII (Michael W. Deem and Ramdas Pophale) SiO2 
 PCOD9334648
Probable space group: I 21 21 21
;
_chemical_formula_sum "Si O2"
_cell_formula_units_Z 32
_cell_length_a 12.659258
_cell_length_b 9.042699
_cell_length_c 11.353104
_cell_angle_alpha 90.000000
_cell_angle_beta 90.000000
_cell_angle_gamma 90.000000
_cell_volume 1299.633634
_symmetry_space_group_name_H-M "I 21 21 21"
_symmetry_group_IT_number 24
_symmetry_cell_setting 'orthorhombic'
loop_
_space_group_symop_operation_xyz
x,y,z
-x,1/2-y,z
x,-y,1/2-z
1/2-x,y,-z
1/2+x,1/2+y,1/2+z
1/2-x,-y,1/2+z
1/2+x,1/2-y,-z
-x,1/2+y,1/2-z
loop_
_atom_site_type_symbol
_atom_site_label
_atom_site_fract_x
_atom_site_fract_y
_atom_site_fract_z
Si Si1 0.340308 0.266049 0.217803
Si Si2 0.364195 0.825113 0.016780
Si Si3 0.994528 0.592368 0.568476
Si Si4 0.389758 0.672765 0.773369
O O1 0.103022 0.500000 0.250000
O O2 0.398156 0.126623 0.158358
O O3 0.398485 0.399124 0.146213
O O4 0.214832 0.270228 0.205450
O O5 0.368762 0.748207 0.144335
O O6 0.457048 0.945829 0.005322
O O7 0.250000 0.901994 0.000000
O O8 0.366180 0.710873 0.909729
O O9 0.000000 0.750000 0.499762
O O10 0.500000 0.750000 0.747463
#
# Coordination Sequence:
#
# PCOD9334648 Si02
#       4
#     8   8   8   8
#     4   8  20  40  71 105 149 189 255 313 377 443
#     4  10  20  41  70 113 147 202 250 316 384 452
#     4   8  19  37  74 109 156 185 252 314 380 442
#     4  11  26  46  69 100 153 207 252 309 386 458
#
# _framework density 24.622323999999999
#
# number of rings (size 3 to 8) (size 9 to 14) (size 15 to 20)
#    1.500    1.000    0.000    0.750    3.500    8.000 
#    9.000    3.750    0.000    0.000    0.000    0.000 
#    0.000    0.000    0.000    0.000    0.000    0.000 
#
# Total GULP energy -89305.288118 kJ/mol
# GULP energy per Si atom -5581.580507 kJ/mol
# Density = 2.456628 g / cm^3
# Si number density = 24.622324 Si / 1000 Ang^3
#
#
#
# Elastic Constant Matrix: (Units=GPa)
#
#
# Indices 1 2 3 4 5 6 
#
# 1 206.5089 7.2588 6.4096 0.0000 0.0000 0.0000
# 2 7.2588 69.6565 9.8082 0.0000 0.0000 0.0000
# 3 6.4096 9.8082 86.1504 0.0000 0.0000 0.0000
# 4 0.0000 0.0000 0.0000 37.4428 0.0000 0.0000
# 5 0.0000 0.0000 0.0000 0.0000 -8.8882 0.0000
# 6 0.0000 0.0000 0.0000 0.0000 0.0000 23.9886
#
#
#
# Elastic Compliance Matrix: (Units=1/GPa)
#
#
# Indices 1 2 3 4 5 6 
#
# 1 0.004868 -0.000464 -0.000309 0.000000 0.000000 0.000000
# 2 -0.000464 0.014634 -0.001632 0.000000 0.000000 0.000000
# 3 -0.000309 -0.001632 0.011816 0.000000 0.000000 0.000000
# 4 0.000000 0.000000 0.000000 0.026707 0.000000 0.000000
# 5 0.000000 0.000000 0.000000 0.000000 -0.112508 0.000000
# 6 0.000000 0.000000 0.000000 0.000000 0.000000 0.041687
#
#
# Mechanical properties :
#
#
# Convention : Reuss Voigt Hill
#
# Bulk Modulus (GPa) = 37.72244 45.47432 41.59838
# Shear Modulus (GPa) = 5878.03426 33.09790 2955.56608
#
# Velocity S-wave (km/s) = 48.91279 3.67034 34.68380
# Velocity P-wave (km/s) = 56.61538 6.03910 40.26023
#
# Compressibility (1/GPa) = 0.02650942
#
# Stress axis : x y z
#
# Youngs Moduli (GPa) = 205.41003 68.33290 84.62826
#
# Poissons Ratio (x) = 0.03169 0.02618
# Poissons Ratio (y) = 0.09526 0.13808
# Poissons Ratio (z) = 0.06356 0.11149
#
# Static dielectric constant tensor:
#      x y z
#    x 1.993800 0.000000 0.000000 
#    y 0.000000 2.042640 0.000000 
#    z 0.000000 0.000000 1.974070 
# 
# From -- ./inp_files/10589.got.cif
#   From: 2010.05.17/outbox.cif.g08.bks.cpg/sg24_6_cif.got.tgz:10589.got - 2010.06.04 00:33:39.
