data_PCOD9334304
_publ_section_title
;
Structure prediction by ZEFSAII (Michael W. Deem and Ramdas Pophale) SiO2 
 PCOD9334304
Probable space group: I 21 21 21
;
_chemical_formula_sum "Si O2"
_cell_formula_units_Z 56
_cell_length_a 11.116008
_cell_length_b 11.825258
_cell_length_c 21.762668
_cell_angle_alpha 90.000000
_cell_angle_beta 90.000000
_cell_angle_gamma 90.000000
_cell_volume 2860.695364
_symmetry_space_group_name_H-M "I 21 21 21"
_symmetry_group_IT_number 24
_symmetry_cell_setting 'orthorhombic'
loop_
_space_group_symop_operation_xyz
x,y,z
-x,1/2-y,z
x,-y,1/2-z
1/2-x,y,-z
1/2+x,1/2+y,1/2+z
1/2-x,-y,1/2+z
1/2+x,1/2-y,-z
-x,1/2+y,1/2-z
loop_
_atom_site_type_symbol
_atom_site_label
_atom_site_fract_x
_atom_site_fract_y
_atom_site_fract_z
Si Si1 0.293703 0.542227 0.680859
Si Si2 0.200768 0.168889 0.411742
Si Si3 0.869845 0.271201 0.152722
Si Si4 0.389290 0.189497 0.984564
Si Si5 0.922525 0.567810 0.977163
Si Si6 0.924569 0.487774 0.322322
Si Si7 0.308515 0.415221 0.433828
O O1 0.267578 0.500000 0.750000
O O2 0.284621 0.678497 0.681390
O O3 0.432976 0.506004 0.664699
O O4 0.217510 0.496232 0.623825
O O5 0.313085 0.086987 0.429430
O O6 0.107896 0.153557 0.467804
O O7 0.131786 0.124251 0.351710
O O8 0.251725 0.294916 0.413687
O O9 0.885200 0.246352 0.081005
O O10 0.849764 0.404294 0.153258
O O11 0.000000 0.250000 0.183948
O O12 0.500000 0.250000 0.019733
O O13 0.250000 0.199355 0.000000
O O14 0.418726 0.056309 0.991507
O O15 0.049715 0.591133 0.946552
O O16 0.912935 0.500000 0.250000
O O17 0.250000 0.448729 0.500000
#
# Coordination Sequence:
#
# PCOD9334304 Si02
#       7
#     8   8   8   8   8   8   8
#     4  10  24  41  59  93 138 170 213 273 336 398
#     4  11  22  42  62  92 130 163 217 272 334 397
#     4   9  19  35  55  84 119 158 205 256 321 388
#     4  11  22  36  62  91 130 169 209 271 331 395
#     4  11  22  42  59  90 132 169 211 271 343 388
#     4  10  20  37  65  89 119 167 213 269 329 400
#     4  12  26  37  66  95 126 175 222 272 332 410
#
# _framework density 19.575662000000001
#
# number of rings (size 3 to 8) (size 9 to 14) (size 15 to 20)
#    0.000    1.429    4.286    1.286    8.000    1.714 
#    0.000    0.714    0.000    0.000    0.000    0.000 
#    0.000    0.000    0.000    0.000    0.000    0.000 
#
# Total GULP energy -156004.597008 kJ/mol
# GULP energy per Si atom -5571.592750 kJ/mol
# Density = 1.953111 g / cm^3
# Si number density = 19.575662 Si / 1000 Ang^3
#
#
#
# Elastic Constant Matrix: (Units=GPa)
#
#
# Indices 1 2 3 4 5 6 
#
# 1 107.4821 24.5274 39.1044 0.0000 0.0000 0.0000
# 2 24.5274 49.7399 3.1163 0.0000 0.0000 0.0000
# 3 39.1044 3.1163 74.0117 0.0000 0.0000 0.0000
# 4 0.0000 0.0000 0.0000 21.3360 0.0000 0.0000
# 5 0.0000 0.0000 0.0000 0.0000 15.0038 0.0000
# 6 0.0000 0.0000 0.0000 0.0000 0.0000 31.6854
#
#
#
# Elastic Compliance Matrix: (Units=1/GPa)
#
#
# Indices 1 2 3 4 5 6 
#
# 1 0.013112 -0.006047 -0.006673 0.000000 0.000000 0.000000
# 2 -0.006047 0.022947 0.002229 0.000000 0.000000 0.000000
# 3 -0.006673 0.002229 0.016943 0.000000 0.000000 0.000000
# 4 0.000000 0.000000 0.000000 0.046869 0.000000 0.000000
# 5 0.000000 0.000000 0.000000 0.000000 0.066650 0.000000
# 6 0.000000 0.000000 0.000000 0.000000 0.000000 0.031560
#
#
# Mechanical properties :
#
#
# Convention : Reuss Voigt Hill
#
# Bulk Modulus (GPa) = 31.23140 40.52554 35.87847
# Shear Modulus (GPa) = 21.76403 24.57076 23.16740
#
# Velocity S-wave (km/s) = 3.33797 3.54668 3.44391
# Velocity P-wave (km/s) = 5.55382 6.12526 5.84653
#
# Compressibility (1/GPa) = 0.03201905
#
# Stress axis : x y z
#
# Youngs Moduli (GPa) = 76.26783 43.57864 59.02061
#
# Poissons Ratio (x) = 0.26354 0.39384
# Poissons Ratio (y) = 0.46123 -0.13156
# Poissons Ratio (z) = 0.50893 -0.09714
#
# Static dielectric constant tensor:
#      x y z
#    x 1.808930 0.000000 0.000000 
#    y 0.000000 1.799090 0.000000 
#    z 0.000000 0.000000 1.401680 
# 
# From -- ./inp_files/33378.got.cif
#   From: 2010.05.17/outbox.cif.g08.bks.cpg/sg24_17_cif.got.tgz:33378.got - 2010.06.04 00:33:39.
