data_PCOD9334473
_publ_section_title
;
Structure prediction by ZEFSAII (Michael W. Deem and Ramdas Pophale) SiO2 
 PCOD9334473
Probable space group: I 21 21 21
;
_chemical_formula_sum "Si O2"
_cell_formula_units_Z 64
_cell_length_a 19.782084
_cell_length_b 8.715232
_cell_length_c 19.625552
_cell_angle_alpha 90.000000
_cell_angle_beta 90.000000
_cell_angle_gamma 90.000000
_cell_volume 3383.552154
_symmetry_space_group_name_H-M "I 21 21 21"
_symmetry_group_IT_number 24
_symmetry_cell_setting 'orthorhombic'
loop_
_space_group_symop_operation_xyz
x,y,z
-x,1/2-y,z
x,-y,1/2-z
1/2-x,y,-z
1/2+x,1/2+y,1/2+z
1/2-x,-y,1/2+z
1/2+x,1/2-y,-z
-x,1/2+y,1/2-z
loop_
_atom_site_type_symbol
_atom_site_label
_atom_site_fract_x
_atom_site_fract_y
_atom_site_fract_z
Si Si1 0.936624 0.134990 0.064075
Si Si2 0.048869 0.395718 0.314892
Si Si3 0.325815 0.819002 0.180575
Si Si4 0.669777 0.664302 0.344634
Si Si5 0.555937 0.877360 0.413417
Si Si6 0.784292 0.827184 0.424405
Si Si7 0.293726 0.598883 0.817773
Si Si8 0.051734 0.618294 0.809919
O O1 0.863792 0.216049 0.075334
O O2 0.000000 0.250000 0.066815
O O3 0.951108 0.004033 0.118962
O O4 0.926719 0.066088 0.988550
O O5 0.029318 0.500000 0.250000
O O6 0.128340 0.354781 0.306353
O O7 0.000000 0.250000 0.320249
O O8 0.333821 0.825670 0.262832
O O9 0.252435 0.746790 0.170812
O O10 0.381829 0.695865 0.159892
O O11 0.339791 0.981737 0.145214
O O12 0.617340 0.787258 0.376468
O O13 0.740695 0.712322 0.377884
O O14 0.500000 0.750000 0.422072
O O15 0.523562 0.011185 0.368834
O O16 0.750000 0.834551 0.500000
O O17 0.784236 0.988249 0.383078
O O18 0.272865 0.500000 0.750000
O O19 0.068038 0.500000 0.750000
O O20 0.000000 0.750000 0.786956
#
# Coordination Sequence:
#
# PCOD9334473 Si02
#       8
#     8   8   8   8   8   8   8   8
#     4  10  23  40  65  88 118 162 201 245 306 369
#     4  10  22  41  65  93 122 151 199 252 311 369
#     4  11  23  37  60  90 123 155 200 259 300 358
#     4  11  22  38  60  90 121 157 202 250 310 358
#     4  11  22  40  60  85 120 164 209 248 298 365
#     4  11  21  38  65  87 119 161 204 243 301 372
#     4  10  20  39  61  91 118 157 199 247 307 369
#     4  12  24  36  59  86 123 166 206 251 298 352
#
# _framework density 18.915033000000001
#
# number of rings (size 3 to 8) (size 9 to 14) (size 15 to 20)
#    0.000    1.250    3.750    2.625    1.750    1.500 
#    2.250    0.625    0.000    0.000    0.000    0.000 
#    0.000    0.000    0.000    0.000    0.000    0.000 
#
# Total GULP energy -178449.655401 kJ/mol
# GULP energy per Si atom -5576.551731 kJ/mol
# Density = 1.887198 g / cm^3
# Si number density = 18.915033 Si / 1000 Ang^3
#
#
#
# Elastic Constant Matrix: (Units=GPa)
#
#
# Indices 1 2 3 4 5 6 
#
# 1 90.7027 35.5423 10.5666 0.0000 0.0000 0.0000
# 2 35.5423 89.6329 27.5595 0.0000 0.0000 0.0000
# 3 10.5666 27.5595 80.5799 0.0000 0.0000 0.0000
# 4 0.0000 0.0000 0.0000 20.1581 0.0000 0.0000
# 5 0.0000 0.0000 0.0000 0.0000 14.2060 0.0000
# 6 0.0000 0.0000 0.0000 0.0000 0.0000 30.5896
#
#
#
# Elastic Compliance Matrix: (Units=1/GPa)
#
#
# Indices 1 2 3 4 5 6 
#
# 1 0.013054 -0.005196 0.000065 0.000000 0.000000 0.000000
# 2 -0.005196 0.014536 -0.004290 0.000000 0.000000 0.000000
# 3 0.000065 -0.004290 0.013869 0.000000 0.000000 0.000000
# 4 0.000000 0.000000 0.000000 0.049608 0.000000 0.000000
# 5 0.000000 0.000000 0.000000 0.000000 0.070393 0.000000
# 6 0.000000 0.000000 0.000000 0.000000 0.000000 0.032691
#
#
# Mechanical properties :
#
#
# Convention : Reuss Voigt Hill
#
# Bulk Modulus (GPa) = 44.21545 45.36137 44.78841
# Shear Modulus (GPa) = 22.67255 25.47388 24.07321
#
# Velocity S-wave (km/s) = 3.46591 3.67379 3.57137
# Velocity P-wave (km/s) = 6.28039 6.48301 6.38250
#
# Compressibility (1/GPa) = 0.02261653
#
# Stress axis : x y z
#
# Youngs Moduli (GPa) = 76.60722 68.79364 72.10448
#
# Poissons Ratio (x) = 0.35747 -0.00472
# Poissons Ratio (y) = 0.39807 0.30934
# Poissons Ratio (z) = -0.00501 0.29514
#
# Static dielectric constant tensor:
#      x y z
#    x 1.785310 0.000000 0.000000 
#    y 0.000000 1.648220 0.000000 
#    z 0.000000 0.000000 1.696610 
# 
# From -- ./inp_files/31396.got.cif
#   From: 2010.05.17/outbox.cif.g08.bks.cpg/sg24_16_cif.got.tgz:31396.got - 2010.06.04 00:33:39.
