data_PCOD9334507
_publ_section_title
;
Structure prediction by ZEFSAII (Michael W. Deem and Ramdas Pophale) SiO2 
 PCOD9334507
Probable space group: I 21 21 21
;
_chemical_formula_sum "Si O2"
_cell_formula_units_Z 60
_cell_length_a 8.212761
_cell_length_b 31.684666
_cell_length_c 11.379286
_cell_angle_alpha 90.000000
_cell_angle_beta 90.000000
_cell_angle_gamma 90.000000
_cell_volume 2961.101749
_symmetry_space_group_name_H-M "I 21 21 21"
_symmetry_group_IT_number 24
_symmetry_cell_setting 'orthorhombic'
loop_
_space_group_symop_operation_xyz
x,y,z
-x,1/2-y,z
x,-y,1/2-z
1/2-x,y,-z
1/2+x,1/2+y,1/2+z
1/2-x,-y,1/2+z
1/2+x,1/2-y,-z
-x,1/2+y,1/2-z
loop_
_atom_site_type_symbol
_atom_site_label
_atom_site_fract_x
_atom_site_fract_y
_atom_site_fract_z
Si Si1 0.928014 0.205989 0.777372
Si Si2 0.443222 0.876293 0.692786
Si Si3 0.808272 0.876860 0.629747
Si Si4 0.497899 0.957454 0.311149
Si Si5 0.070126 0.181026 0.531635
Si Si6 0.553459 0.202649 0.715791
Si Si7 0.750000 0.430678 0.000000
Si Si8 0.303860 0.091412 0.383502
O O1 0.943142 0.158611 0.834161
O O2 0.733004 0.206238 0.768750
O O3 0.000000 0.250000 0.829611
O O4 0.999074 0.202944 0.646165
O O5 0.638999 0.880033 0.702232
O O6 0.431748 0.825376 0.703529
O O7 0.365549 0.900030 0.580474
O O8 0.348984 0.894580 0.804681
O O9 0.750000 0.865058 0.500000
O O10 0.877326 0.923953 0.635079
O O11 0.357861 0.959109 0.411555
O O12 0.417696 0.934084 0.201109
O O13 0.561577 0.000000 0.250000
O O14 0.250000 0.198830 0.500000
O O15 0.103750 0.132902 0.569549
O O16 0.958522 0.183987 0.416385
O O17 0.500000 0.250000 0.703827
O O18 0.250000 0.067237 0.500000
#
# Coordination Sequence:
#
# PCOD9334507 Si02
#       8
#     8   8   8   8   8   8   4   8
#     4  11  24  38  62  92 130 178 227 279 334 400
#     4  10  21  40  68  90 126 185 215 272 333 405
#     4  11  23  46  67  93 136 179 231 275 346 400
#     4  11  24  43  72 101 134 176 219 282 337 415
#     4  11  19  36  60  90 132 174 210 271 335 394
#     4  11  22  36  58  93 133 171 225 275 333 398
#     4  10  22  42  72  98 126 172 224 266 346 398
#     4  10  20  39  66  96 131 165 224 267 333 405
#
# _framework density 20.262729
#
# number of rings (size 3 to 8) (size 9 to 14) (size 15 to 20)
#    0.000    1.333    5.333    1.600    0.933    0.000 
#    0.000    7.333    2.933    0.000    0.000    0.000 
#    0.000    0.000    0.000    0.000    0.000    0.000 
#
# Total GULP energy -167137.654545 kJ/mol
# GULP energy per Si atom -5571.255151 kJ/mol
# Density = 2.021661 g / cm^3
# Si number density = 20.262729 Si / 1000 Ang^3
#
#
#
# Elastic Constant Matrix: (Units=GPa)
#
#
# Indices 1 2 3 4 5 6 
#
# 1 37.0068 16.3837 0.3411 0.0000 0.0000 0.0000
# 2 16.3837 88.0714 24.4994 0.0001 0.0000 0.0000
# 3 0.3411 24.4994 63.5429 0.0002 0.0001 0.0000
# 4 0.0000 0.0001 0.0002 18.0865 0.0000 0.0000
# 5 0.0000 0.0000 0.0001 0.0000 28.2180 0.0000
# 6 0.0000 0.0000 0.0000 0.0000 0.0000 16.1780
#
#
#
# Elastic Compliance Matrix: (Units=1/GPa)
#
#
# Indices 1 2 3 4 5 6 
#
# 1 0.029722 -0.006144 0.002209 0.000000 0.000000 0.000000
# 2 -0.006144 0.013988 -0.005360 0.000000 0.000000 0.000000
# 3 0.002209 -0.005360 0.017792 0.000000 0.000000 0.000000
# 4 0.000000 0.000000 0.000000 0.055290 0.000000 0.000000
# 5 0.000000 0.000000 0.000000 0.000000 0.035438 0.000000
# 6 0.000000 0.000000 0.000000 0.000000 0.000000 0.061812
#
#
# Mechanical properties :
#
#
# Convention : Reuss Voigt Hill
#
# Bulk Modulus (GPa) = 23.30309 30.11882 26.71096
# Shear Modulus (GPa) = 20.24809 22.32294 21.28552
#
# Velocity S-wave (km/s) = 3.16456 3.32275 3.24462
# Velocity P-wave (km/s) = 4.98779 5.44218 5.21993
#
# Compressibility (1/GPa) = 0.04291277
#
# Stress axis : x y z
#
# Youngs Moduli (GPa) = 33.64554 71.48764 56.20418
#
# Poissons Ratio (x) = 0.43919 -0.12416
# Poissons Ratio (y) = 0.20670 0.30127
# Poissons Ratio (z) = -0.07433 0.38320
#
# Static dielectric constant tensor:
#      x y z
#    x 1.802940 0.000000 0.000000 
#    y 0.000000 1.814770 0.000000 
#    z 0.000000 0.000000 1.767840 
# 
# From -- ./inp_files/18881.got.cif
#   From: 2010.05.17/outbox.cif.g08.bks.cpg/sg24_10_cif.got.tgz:18881.got - 2010.06.04 00:33:39.
