data_PCOD9334357
_publ_section_title
;
Structure prediction by ZEFSAII (Michael W. Deem and Ramdas Pophale) SiO2 
 PCOD9334357
Probable space group: I 21 21 21
;
_chemical_formula_sum "Si O2"
_cell_formula_units_Z 48
_cell_length_a 14.561054
_cell_length_b 6.247570
_cell_length_c 28.573606
_cell_angle_alpha 90.000000
_cell_angle_beta 90.000000
_cell_angle_gamma 90.000000
_cell_volume 2599.375344
_symmetry_space_group_name_H-M "I 21 21 21"
_symmetry_group_IT_number 24
_symmetry_cell_setting 'orthorhombic'
loop_
_space_group_symop_operation_xyz
x,y,z
-x,1/2-y,z
x,-y,1/2-z
1/2-x,y,-z
1/2+x,1/2+y,1/2+z
1/2-x,-y,1/2+z
1/2+x,1/2-y,-z
-x,1/2+y,1/2-z
loop_
_atom_site_type_symbol
_atom_site_label
_atom_site_fract_x
_atom_site_fract_y
_atom_site_fract_z
Si Si1 0.274187 0.699217 0.888072
Si Si2 0.089702 0.644090 0.358288
Si Si3 0.842076 0.451863 0.476586
Si Si4 0.093055 0.630816 0.943367
Si Si5 0.500000 0.750000 0.493005
Si Si6 0.678656 0.470062 0.702040
Si Si7 0.000000 0.250000 0.302141
O O1 0.334947 0.482829 0.888103
O O2 0.318627 0.862285 0.925654
O O3 0.172486 0.643936 0.905210
O O4 0.278023 0.818137 0.837997
O O5 0.039361 0.451150 0.330555
O O6 0.000000 0.750000 0.381696
O O7 0.142059 0.817307 0.325207
O O8 0.750000 0.550297 0.500000
O O9 0.868512 0.255526 0.510937
O O10 0.929281 0.605379 0.478193
O O11 0.000000 0.750000 0.928100
O O12 0.062851 0.398450 0.960163
O O13 0.735428 0.500000 0.750000
O O14 0.590982 0.334882 0.721699
#
# Coordination Sequence:
#
# PCOD9334357 Si02
#       7
#     8   8   8   8   4   8   4
#     4  10  21  38  57  84 119 152 193 246 294 351
#     4   9  19  36  50  76 111 151 191 229 279 340
#     4   9  20  38  56  81 118 151 188 241 290 342
#     4   9  20  39  59  83 112 145 196 248 298 354
#     4  10  20  38  61  82 110 158 196 238 293 356
#     4  10  21  34  54  80 111 154 195 237 286 346
#     4   8  18  32  47  70 108 148 190 232 267 324
#
# _framework density 18.465973000000002
#
# number of rings (size 3 to 8) (size 9 to 14) (size 15 to 20)
#    0.000    2.667    0.000    0.000    3.500    9.333 
#   36.000    0.000    0.000    0.000    4.333    0.000 
#    0.000    0.000    0.000    0.000    0.000    0.000 
#
# Total GULP energy -133705.378225 kJ/mol
# GULP energy per Si atom -5571.057426 kJ/mol
# Density = 1.842394 g / cm^3
# Si number density = 18.465973 Si / 1000 Ang^3
#
#
#
# Elastic Constant Matrix: (Units=GPa)
#
#
# Indices 1 2 3 4 5 6 
#
# 1 102.2688 33.0272 59.8523 0.0000 0.0000 0.0000
# 2 33.0272 75.1739 34.9879 0.0000 0.0000 0.0000
# 3 59.8523 34.9879 109.4415 0.0000 0.0000 0.0000
# 4 0.0000 0.0000 0.0000 6.3547 0.0000 0.0000
# 5 0.0000 0.0000 0.0000 0.0000 8.7280 0.0000
# 6 0.0000 0.0000 0.0000 0.0000 0.0000 17.3525
#
#
#
# Elastic Compliance Matrix: (Units=1/GPa)
#
#
# Indices 1 2 3 4 5 6 
#
# 1 0.015033 -0.003264 -0.007178 0.000000 0.000000 0.000000
# 2 -0.003264 0.016336 -0.003438 0.000000 0.000000 0.000000
# 3 -0.007178 -0.003438 0.014162 0.000000 0.000000 0.000000
# 4 0.000000 0.000000 0.000000 0.157365 0.000000 0.000000
# 5 0.000000 0.000000 0.000000 0.000000 0.114574 0.000000
# 6 0.000000 0.000000 0.000000 0.000000 0.000000 0.057629
#
#
# Mechanical properties :
#
#
# Convention : Reuss Voigt Hill
#
# Bulk Modulus (GPa) = 56.26738 60.29101 58.27919
# Shear Modulus (GPa) = 12.23147 17.08814 14.65981
#
# Velocity S-wave (km/s) = 2.57646 3.04532 2.82065
# Velocity P-wave (km/s) = 6.27598 6.71461 6.49899
#
# Compressibility (1/GPa) = 0.01777229
#
# Stress axis : x y z
#
# Youngs Moduli (GPa) = 66.51989 61.21279 70.61208
#
# Poissons Ratio (x) = 0.19979 0.50685
# Poissons Ratio (y) = 0.21711 0.24274
# Poissons Ratio (z) = 0.47748 0.21043
#
# Static dielectric constant tensor:
#      x y z
#    x 1.655330 0.000000 0.000000 
#    y 0.000000 1.690350 0.000000 
#    z 0.000000 0.000000 1.650340 
# 
# From -- ./inp_files/24033.got.cif
#   From: 2010.05.17/outbox.cif.g08.bks.cpg/sg24_13_cif.got.tgz:24033.got - 2010.06.04 00:33:39.
