data_PCOD9334731
_publ_section_title
;
Structure prediction by ZEFSAII (Michael W. Deem and Ramdas Pophale) SiO2 
 PCOD9334731
Probable space group: I 21 21 21
;
_chemical_formula_sum "Si O2"
_cell_formula_units_Z 64
_cell_length_a 32.197326
_cell_length_b 8.485197
_cell_length_c 12.382844
_cell_angle_alpha 90.000000
_cell_angle_beta 90.000000
_cell_angle_gamma 90.000000
_cell_volume 3383.001079
_symmetry_space_group_name_H-M "I 21 21 21"
_symmetry_group_IT_number 24
_symmetry_cell_setting 'orthorhombic'
loop_
_space_group_symop_operation_xyz
x,y,z
-x,1/2-y,z
x,-y,1/2-z
1/2-x,y,-z
1/2+x,1/2+y,1/2+z
1/2-x,-y,1/2+z
1/2+x,1/2-y,-z
-x,1/2+y,1/2-z
loop_
_atom_site_type_symbol
_atom_site_label
_atom_site_fract_x
_atom_site_fract_y
_atom_site_fract_z
Si Si1 0.733004 0.207145 0.155687
Si Si2 0.612208 0.181811 0.935033
Si Si3 0.818920 0.325960 0.205125
Si Si4 0.640735 0.315533 0.147320
Si Si5 0.621531 0.816633 0.878920
Si Si6 0.222302 0.352890 0.598290
Si Si7 0.545651 0.816148 0.725208
Si Si8 0.365736 0.817165 0.107568
O O1 0.778798 0.273333 0.133068
O O2 0.691196 0.308343 0.146465
O O3 0.739683 0.180969 0.283653
O O4 0.720905 0.043314 0.098156
O O5 0.642897 0.305948 0.877512
O O6 0.565717 0.211439 0.892816
O O7 0.623261 0.006192 0.892804
O O8 0.620936 0.198209 0.060847
O O9 0.811004 0.500000 0.250000
O O10 0.836993 0.232470 0.311417
O O11 0.631171 0.494265 0.113401
O O12 0.624642 0.272761 0.267492
O O13 0.582235 0.762998 0.806686
O O14 0.613809 0.744898 0.997667
O O15 0.250000 0.298710 0.500000
O O16 0.179554 0.260464 0.592242
O O17 0.500000 0.750000 0.738478
O O18 0.542331 0.000000 0.750000
#
# Coordination Sequence:
#
# PCOD9334731 Si02
#       8
#     8   8   8   8   8   8   8   8
#     4  10  23  33  50  72 102 144 196 242 286 326
#     4  10  22  38  59  82 117 148 188 227 284 346
#     4  11  23  34  53  78 110 147 191 242 299 331
#     4  10  22  38  51  78 109 151 196 242 283 323
#     4  10  21  39  58  84 113 149 188 229 283 346
#     4  10  21  34  49  70  97 142 192 237 289 329
#     4   9  20  38  63  95 119 142 170 220 278 346
#     4  10  21  37  56  74 109 147 197 240 282 326
#
# _framework density 18.918113999999999
#
# number of rings (size 3 to 8) (size 9 to 14) (size 15 to 20)
#    0.000    2.000    0.000    3.375   10.500    4.500 
#    0.000    0.000    0.000    0.750    0.000    0.000 
#    0.000    0.000    0.000    0.000    0.000    0.000 
#
# Total GULP energy -178227.301616 kJ/mol
# GULP energy per Si atom -5569.603176 kJ/mol
# Density = 1.887506 g / cm^3
# Si number density = 18.918114 Si / 1000 Ang^3
#
#
#
# Elastic Constant Matrix: (Units=GPa)
#
#
# Indices 1 2 3 4 5 6 
#
# 1 83.5701 9.7288 26.6216 0.0000 0.0000 0.0000
# 2 9.7288 21.5474 11.0827 0.0000 0.0000 0.0000
# 3 26.6216 11.0827 112.0354 0.0000 0.0000 0.0000
# 4 0.0000 0.0000 0.0000 27.9461 0.0000 0.0000
# 5 0.0000 0.0000 0.0000 0.0000 14.4174 0.0000
# 6 0.0000 0.0000 0.0000 0.0000 0.0000 18.0706
#
#
#
# Elastic Compliance Matrix: (Units=1/GPa)
#
#
# Indices 1 2 3 4 5 6 
#
# 1 0.013372 -0.004639 -0.002719 0.000000 0.000000 0.000000
# 2 -0.004639 0.050507 -0.003894 0.000000 0.000000 0.000000
# 3 -0.002719 -0.003894 0.009957 0.000000 0.000000 0.000000
# 4 0.000000 0.000000 0.000000 0.035783 0.000000 0.000000
# 5 0.000000 0.000000 0.000000 0.000000 0.069361 0.000000
# 6 0.000000 0.000000 0.000000 0.000000 0.000000 0.055339
#
#
# Mechanical properties :
#
#
# Convention : Reuss Voigt Hill
#
# Bulk Modulus (GPa) = 19.48085 34.66877 27.07481
# Shear Modulus (GPa) = 18.25268 23.40147 20.82708
#
# Velocity S-wave (km/s) = 3.10953 3.52090 3.32159
# Velocity P-wave (km/s) = 4.81789 5.90715 5.39011
#
# Compressibility (1/GPa) = 0.05133247
#
# Stress axis : x y z
#
# Youngs Moduli (GPa) = 74.78264 19.79930 100.43288
#
# Poissons Ratio (x) = 0.09186 0.27303
# Poissons Ratio (y) = 0.34694 0.39107
# Poissons Ratio (z) = 0.20330 0.07709
#
# Static dielectric constant tensor:
#      x y z
#    x 1.667110 0.000000 0.000000 
#    y 0.000000 1.696060 0.000000 
#    z 0.000000 0.000000 1.746900 
# 
# From -- ./inp_files/23185.got.cif
#   From: 2010.05.17/outbox.cif.g08.bks.cpg/sg24_12_cif.got.tgz:23185.got - 2010.06.04 00:33:39.
