data_PCOD9334420
_publ_section_title
;
Structure prediction by ZEFSAII (Michael W. Deem and Ramdas Pophale) SiO2 
 PCOD9334420
Probable space group: I 21 21 21
;
_chemical_formula_sum "Si O2"
_cell_formula_units_Z 28
_cell_length_a 8.672024
_cell_length_b 5.629166
_cell_length_c 26.838437
_cell_angle_alpha 90.000000
_cell_angle_beta 90.000000
_cell_angle_gamma 90.000000
_cell_volume 1310.152190
_symmetry_space_group_name_H-M "I 21 21 21"
_symmetry_group_IT_number 24
_symmetry_cell_setting 'orthorhombic'
loop_
_space_group_symop_operation_xyz
x,y,z
-x,1/2-y,z
x,-y,1/2-z
1/2-x,y,-z
1/2+x,1/2+y,1/2+z
1/2-x,-y,1/2+z
1/2+x,1/2-y,-z
-x,1/2+y,1/2-z
loop_
_atom_site_type_symbol
_atom_site_label
_atom_site_fract_x
_atom_site_fract_y
_atom_site_fract_z
Si Si1 0.408657 0.000000 0.250000
Si Si2 0.679801 0.820787 0.796396
Si Si3 0.750000 0.598880 0.000000
Si Si4 0.000000 0.750000 0.468983
Si Si5 0.836782 0.108558 0.406904
O O1 0.500000 0.750000 0.261007
O O2 0.289437 0.909400 0.208060
O O3 0.500000 0.750000 0.793903
O O4 0.718379 0.924943 0.850676
O O5 0.705527 0.000000 0.750000
O O6 0.593416 0.445478 0.999023
O O7 0.755107 0.749191 0.949070
O O8 0.126936 0.638707 0.432811
O O9 0.000000 0.250000 0.402744
#
# Coordination Sequence:
#
# PCOD9334420 Si02
#       5
#     4   8   4   4   8
#     4  12  26  48  66 100 154 190 224 306 370 424
#     4  11  23  41  74 104 135 187 253 294 350 436
#     4  10  20  40  60  94 136 174 226 284 352 410
#     4  10  20  38  66  88 136 176 220 294 346 410
#     4   9  21  38  63 101 130 174 233 292 341 413
#
# _framework density 21.371563999999999
#
# number of rings (size 3 to 8) (size 9 to 14) (size 15 to 20)
#    0.000    1.714    2.857    0.857    2.000    2.286 
#    2.571    4.286    0.000    0.000    0.000    0.000 
#    0.000    0.000    0.000    0.000    0.000    0.000 
#
# Total GULP energy -77993.005698 kJ/mol
# GULP energy per Si atom -5570.928978 kJ/mol
# Density = 2.132292 g / cm^3
# Si number density = 21.371564 Si / 1000 Ang^3
#
#
#
# Elastic Constant Matrix: (Units=GPa)
#
#
# Indices 1 2 3 4 5 6 
#
# 1 83.3503 49.0400 41.2444 0.0000 0.0000 0.0000
# 2 49.0400 115.1402 72.4358 0.0000 0.0000 0.0000
# 3 41.2444 72.4358 194.2715 0.0000 0.0000 0.0000
# 4 0.0000 0.0000 0.0000 -78.7531 0.0000 0.0000
# 5 0.0000 0.0000 0.0000 0.0000 3.0515 0.0000
# 6 0.0000 0.0000 0.0000 0.0000 0.0000 29.7864
#
#
#
# Elastic Compliance Matrix: (Units=1/GPa)
#
#
# Indices 1 2 3 4 5 6 
#
# 1 0.016198 -0.006187 -0.001132 0.000000 0.000000 0.000000
# 2 -0.006187 0.013710 -0.003798 0.000000 0.000000 0.000000
# 3 -0.001132 -0.003798 0.006804 0.000000 0.000000 0.000000
# 4 0.000000 0.000000 0.000000 -0.012698 0.000000 0.000000
# 5 0.000000 0.000000 0.000000 0.000000 0.327709 0.000000
# 6 0.000000 0.000000 0.000000 0.000000 0.000000 0.033572
#
#
# Mechanical properties :
#
#
# Convention : Reuss Voigt Hill
#
# Bulk Modulus (GPa) = 69.07382 79.80027 74.43705
# Shear Modulus (GPa) = 12.12548 6.15310 9.13929
#
# Velocity S-wave (km/s) = 2.38453 1.69863 2.07018
# Velocity P-wave (km/s) = 6.32233 6.42399 6.37336
#
# Compressibility (1/GPa) = 0.01447727
#
# Stress axis : x y z
#
# Youngs Moduli (GPa) = 61.73706 72.94153 146.97228
#
# Poissons Ratio (x) = 0.45127 0.16638
# Poissons Ratio (y) = 0.38195 0.55824
# Poissons Ratio (z) = 0.06989 0.27705
#
# Static dielectric constant tensor:
#      x y z
#    x 2.065280 0.000000 0.000000 
#    y 0.000000 1.870470 0.000000 
#    z 0.000000 0.000000 1.777000 
# 
# From -- ./inp_files/1034.got.cif
#   From: 2010.05.17/outbox.cif.g08.bks.cpg/sg24_1_cif.got.tgz:1034.got - 2010.06.04 00:33:39.
