data_PCOD9334111
_publ_section_title
;
Structure prediction by ZEFSAII (Michael W. Deem and Ramdas Pophale) SiO2 
 PCOD9334111
Probable space group: I 21 21 21
;
_chemical_formula_sum "Si O2"
_cell_formula_units_Z 40
_cell_length_a 8.493081
_cell_length_b 8.869783
_cell_length_c 25.409783
_cell_angle_alpha 90.000000
_cell_angle_beta 90.000000
_cell_angle_gamma 90.000000
_cell_volume 1914.164322
_symmetry_space_group_name_H-M "I 21 21 21"
_symmetry_group_IT_number 24
_symmetry_cell_setting 'orthorhombic'
loop_
_space_group_symop_operation_xyz
x,y,z
-x,1/2-y,z
x,-y,1/2-z
1/2-x,y,-z
1/2+x,1/2+y,1/2+z
1/2-x,-y,1/2+z
1/2+x,1/2-y,-z
-x,1/2+y,1/2-z
loop_
_atom_site_type_symbol
_atom_site_label
_atom_site_fract_x
_atom_site_fract_y
_atom_site_fract_z
Si Si1 0.853653 0.365491 0.127793
Si Si2 0.184097 0.717329 0.725255
Si Si3 0.740151 0.661845 0.161984
Si Si4 0.886249 0.033236 0.646331
Si Si5 0.338093 0.687042 0.451197
O O1 0.750935 0.317239 0.178132
O O2 0.865649 0.544835 0.137915
O O3 0.762168 0.323248 0.074512
O O4 0.000000 0.250000 0.128876
O O5 0.266849 0.779362 0.778125
O O6 0.184475 0.551440 0.697821
O O7 0.000000 0.750000 0.733992
O O8 0.565966 0.583108 0.158192
O O9 0.714350 0.819527 0.132524
O O10 0.877044 0.919963 0.597822
O O11 0.500000 0.750000 0.472629
O O12 0.250000 0.613134 0.500000
#
# Coordination Sequence:
#
# PCOD9334111 Si02
#       5
#     8   8   8   8   8
#     4  11  23  40  59  91 135 177 227 279 334 424
#     4  11  19  34  62  95 129 180 227 268 335 414
#     4  11  20  34  66  94 134 174 226 284 337 405
#     4  10  20  35  62 102 128 165 232 288 337 413
#     4  11  22  43  68  91 121 171 234 291 355 415
#
# _framework density 20.896849
#
# number of rings (size 3 to 8) (size 9 to 14) (size 15 to 20)
#    0.000    1.200    6.000    3.000    0.000    0.000 
#    0.000   13.000    4.400    0.000    0.000    0.000 
#    0.000    0.000    0.000    0.000    0.000    0.000 
#
# Total GULP energy -111467.603624 kJ/mol
# GULP energy per Si atom -5573.380181 kJ/mol
# Density = 2.084929 g / cm^3
# Si number density = 20.896849 Si / 1000 Ang^3
#
#
#
# Elastic Constant Matrix: (Units=GPa)
#
#
# Indices 1 2 3 4 5 6 
#
# 1 53.3538 28.8228 17.3069 0.0000 0.0000 0.0000
# 2 28.8228 135.5327 6.5398 0.0000 0.0000 0.0000
# 3 17.3069 6.5398 85.0215 0.0000 0.0000 0.0000
# 4 0.0000 0.0000 0.0000 26.3582 0.0000 0.0000
# 5 0.0000 0.0000 0.0000 0.0000 19.4794 0.0000
# 6 0.0000 0.0000 0.0000 0.0000 0.0000 31.6912
#
#
#
# Elastic Compliance Matrix: (Units=1/GPa)
#
#
# Indices 1 2 3 4 5 6 
#
# 1 0.022607 -0.004603 -0.004248 0.000000 0.000000 0.000000
# 2 -0.004603 0.008343 0.000295 0.000000 0.000000 0.000000
# 3 -0.004248 0.000295 0.012604 0.000000 0.000000 0.000000
# 4 0.000000 0.000000 0.000000 0.037939 0.000000 0.000000
# 5 0.000000 0.000000 0.000000 0.000000 0.051336 0.000000
# 6 0.000000 0.000000 0.000000 0.000000 0.000000 0.031555
#
#
# Mechanical properties :
#
#
# Convention : Reuss Voigt Hill
#
# Bulk Modulus (GPa) = 37.81717 42.13854 39.97786
# Shear Modulus (GPa) = 26.27310 30.25499 28.26405
#
# Velocity S-wave (km/s) = 3.54966 3.80916 3.68169
# Velocity P-wave (km/s) = 5.91070 6.28928 6.10293
#
# Compressibility (1/GPa) = 0.02644301
#
# Stress axis : x y z
#
# Youngs Moduli (GPa) = 44.23366 119.86269 79.34172
#
# Poissons Ratio (x) = 0.55170 0.33703
# Poissons Ratio (y) = 0.20360 -0.02342
# Poissons Ratio (z) = 0.18790 -0.03538
#
# Static dielectric constant tensor:
#      x y z
#    x 1.714390 0.000000 0.000000 
#    y 0.000000 1.835500 0.000000 
#    z 0.000000 0.000000 1.712670 
# 
# From -- ./inp_files/9495.got.cif
#   From: 2010.05.17/outbox.cif.g08.bks.cpg/sg24_5_cif.got.tgz:9495.got - 2010.06.04 00:33:39.
