data_PCOD9334476
_publ_section_title
;
Structure prediction by ZEFSAII (Michael W. Deem and Ramdas Pophale) SiO2 
 PCOD9334476
Probable space group: I 21 21 21
;
_chemical_formula_sum "Si O2"
_cell_formula_units_Z 60
_cell_length_a 9.203019
_cell_length_b 11.995876
_cell_length_c 28.681726
_cell_angle_alpha 90.000000
_cell_angle_beta 90.000000
_cell_angle_gamma 90.000000
_cell_volume 3166.413067
_symmetry_space_group_name_H-M "I 21 21 21"
_symmetry_group_IT_number 24
_symmetry_cell_setting 'orthorhombic'
loop_
_space_group_symop_operation_xyz
x,y,z
-x,1/2-y,z
x,-y,1/2-z
1/2-x,y,-z
1/2+x,1/2+y,1/2+z
1/2-x,-y,1/2+z
1/2+x,1/2-y,-z
-x,1/2+y,1/2-z
loop_
_atom_site_type_symbol
_atom_site_label
_atom_site_fract_x
_atom_site_fract_y
_atom_site_fract_z
Si Si1 0.837222 0.111145 0.452285
Si Si2 0.000000 0.250000 0.275381
Si Si3 0.647541 0.533875 0.803467
Si Si4 0.327747 0.235687 0.048368
Si Si5 0.826452 0.621570 0.047969
Si Si6 0.091186 0.355068 0.183394
Si Si7 0.348110 0.969811 0.383975
Si Si8 0.692383 0.058019 0.111223
O O1 0.750000 0.080738 0.500000
O O2 0.828849 0.244762 0.448428
O O3 0.007439 0.080285 0.453532
O O4 0.767680 0.053380 0.407366
O O5 0.901120 0.336592 0.303862
O O6 0.901699 0.178788 0.238295
O O7 0.671230 0.500000 0.750000
O O8 0.510276 0.462625 0.820824
O O9 0.781885 0.488853 0.833120
O O10 0.500000 0.250000 0.040320
O O11 0.303241 0.141549 0.087733
O O12 0.278548 0.352600 0.070170
O O13 0.250000 0.208988 0.000000
O O14 0.727136 0.569541 0.087699
O O15 0.750000 0.590009 0.000000
O O16 0.237682 0.385761 0.156969
O O17 0.000000 0.250000 0.162717
O O18 0.521920 0.965334 0.383394
#
# Coordination Sequence:
#
# PCOD9334476 Si02
#       8
#     8   4   8   8   8   8   8   8
#     4  10  21  36  56  83 116 155 199 244 286 347
#     4   8  20  38  64  88 112 144 200 248 302 356
#     4  10  20  39  62  87 115 151 195 247 302 362
#     4  10  23  38  54  84 122 159 197 238 283 346
#     4  10  21  38  58  83 116 156 196 241 299 350
#     4   9  19  36  62  85 110 150 194 241 296 349
#     4  11  23  37  59  85 121 158 194 242 301 359
#     4  11  22  37  57  88 120 156 198 241 292 359
#
# _framework density 18.948886000000002
#
# number of rings (size 3 to 8) (size 9 to 14) (size 15 to 20)
#    0.400    1.600    0.000    3.200    0.000    8.533 
#    0.000    2.000    0.000    1.600    0.000    0.000 
#    0.000    0.000    0.000    0.000    0.000    0.000 
#
# Total GULP energy -167288.542141 kJ/mol
# GULP energy per Si atom -5576.284738 kJ/mol
# Density = 1.890576 g / cm^3
# Si number density = 18.948886 Si / 1000 Ang^3
#
#
#
# Elastic Constant Matrix: (Units=GPa)
#
#
# Indices 1 2 3 4 5 6 
#
# 1 110.2597 45.0397 50.7380 0.0000 0.0000 0.0000
# 2 45.0397 58.3414 22.6924 0.0000 0.0000 0.0000
# 3 50.7380 22.6924 69.5612 0.0000 0.0000 0.0000
# 4 0.0000 0.0000 0.0000 5.9003 0.0000 0.0000
# 5 0.0000 0.0000 0.0000 0.0000 18.8563 0.0000
# 6 0.0000 0.0000 0.0000 0.0000 0.0000 8.6652
#
#
#
# Elastic Compliance Matrix: (Units=1/GPa)
#
#
# Indices 1 2 3 4 5 6 
#
# 1 0.017446 -0.009757 -0.009542 0.000000 0.000000 0.000000
# 2 -0.009757 0.025088 -0.001068 0.000000 0.000000 0.000000
# 3 -0.009542 -0.001068 0.021684 0.000000 0.000000 0.000000
# 4 0.000000 0.000000 0.000000 0.169481 0.000000 0.000000
# 5 0.000000 0.000000 0.000000 0.000000 0.053033 0.000000
# 6 0.000000 0.000000 0.000000 0.000000 0.000000 0.115404
#
#
# Mechanical properties :
#
#
# Convention : Reuss Voigt Hill
#
# Bulk Modulus (GPa) = 42.58061 52.78919 47.68490
# Shear Modulus (GPa) = 11.09388 14.66385 12.87886
#
# Velocity S-wave (km/s) = 2.42226 2.78486 2.60986
# Velocity P-wave (km/s) = 5.50847 6.18545 5.85675
#
# Compressibility (1/GPa) = 0.02348487
#
# Stress axis : x y z
#
# Youngs Moduli (GPa) = 57.31929 39.85959 46.11638
#
# Poissons Ratio (x) = 0.38891 0.44006
# Poissons Ratio (y) = 0.55926 0.04923
# Poissons Ratio (z) = 0.54696 0.04255
#
# Static dielectric constant tensor:
#      x y z
#    x 1.631420 0.000000 0.000000 
#    y 0.000000 1.691200 0.000000 
#    z 0.000000 0.000000 1.747960 
# 
# From -- ./inp_files/38382.got.cif
#   From: 2010.05.17/outbox.cif.g08.bks.cpg/sg24_20_cif.got.tgz:38382.got - 2010.06.04 00:33:39.
