data_PCOD9334088
_publ_section_title
;
Structure prediction by ZEFSAII (Michael W. Deem and Ramdas Pophale) SiO2 
 PCOD9334088
Probable space group: I 21 21 21
;
_chemical_formula_sum "Si O2"
_cell_formula_units_Z 64
_cell_length_a 7.782145
_cell_length_b 20.945767
_cell_length_c 17.577971
_cell_angle_alpha 90.000000
_cell_angle_beta 90.000000
_cell_angle_gamma 90.000000
_cell_volume 2865.261935
_symmetry_space_group_name_H-M "I 21 21 21"
_symmetry_group_IT_number 24
_symmetry_cell_setting 'orthorhombic'
loop_
_space_group_symop_operation_xyz
x,y,z
-x,1/2-y,z
x,-y,1/2-z
1/2-x,y,-z
1/2+x,1/2+y,1/2+z
1/2-x,-y,1/2+z
1/2+x,1/2-y,-z
-x,1/2+y,1/2-z
loop_
_atom_site_type_symbol
_atom_site_label
_atom_site_fract_x
_atom_site_fract_y
_atom_site_fract_z
Si Si1 0.819785 0.318106 0.257399
Si Si2 0.004220 0.037335 0.558998
Si Si3 0.730388 0.130279 0.621498
Si Si4 0.784323 0.082907 0.912382
Si Si5 0.771088 0.819212 0.280832
Si Si6 0.294415 0.765995 0.080621
Si Si7 0.012514 0.018824 0.385396
Si Si8 0.686539 0.448989 0.293610
O O1 0.737970 0.256678 0.215129
O O2 0.784100 0.300686 0.346004
O O3 0.731103 0.386226 0.247321
O O4 0.020932 0.322179 0.233964
O O5 0.842959 0.084612 0.568288
O O6 0.065047 0.029985 0.473027
O O7 0.119619 0.068927 0.623158
O O8 0.944202 0.966291 0.584134
O O9 0.808760 0.150253 0.703666
O O10 0.698612 0.197249 0.581521
O O11 0.568811 0.086087 0.639300
O O12 0.788613 0.140608 0.853219
O O13 0.626634 0.037234 0.886745
O O14 0.750000 0.103033 0.000000
O O15 0.500000 0.750000 0.087318
O O16 0.250000 0.797993 0.000000
O O17 0.157722 0.006343 0.324319
O O18 0.567552 0.500000 0.250000
#
# Coordination Sequence:
#
# PCOD9334088 Si02
#       8
#     8   8   8   8   8   8   8   8
#     4  10  23  39  57  94 118 170 215 262 317 377
#     4  10  22  36  57  92 124 158 203 259 316 382
#     4  10  20  35  59  86 120 161 203 243 306 364
#     4   9  20  39  66  94 118 159 212 266 329 385
#     4  10  20  38  65  87 127 157 215 268 306 391
#     4  11  24  37  58  87 131 173 214 255 307 378
#     4  10  20  37  59  87 123 158 204 258 314 386
#     4  12  24  37  58  85 123 160 206 256 326 381
#
# _framework density 22.336525000000002
#
# number of rings (size 3 to 8) (size 9 to 14) (size 15 to 20)
#    0.000    1.750    1.250    3.750    5.250    3.000 
#    0.000    0.000    0.000    7.500    0.000    0.000 
#    0.000    0.000    0.000    0.000    0.000    0.000 
#
# Total GULP energy -178550.316808 kJ/mol
# GULP energy per Si atom -5579.697400 kJ/mol
# Density = 2.228569 g / cm^3
# Si number density = 22.336525 Si / 1000 Ang^3
#
#
#
# Elastic Constant Matrix: (Units=GPa)
#
#
# Indices 1 2 3 4 5 6 
#
# 1 25.6563 1.5316 1.0615 0.0000 0.0000 0.0000
# 2 1.5316 154.7047 54.5373 0.0000 0.0000 0.0000
# 3 1.0615 54.5373 103.2977 0.0000 0.0000 0.0000
# 4 0.0000 0.0000 0.0000 32.2342 0.0000 0.0000
# 5 0.0000 0.0000 0.0000 0.0000 21.4062 0.0000
# 6 0.0000 0.0000 0.0000 0.0000 0.0000 9.3677
#
#
#
# Elastic Compliance Matrix: (Units=1/GPa)
#
#
# Indices 1 2 3 4 5 6 
#
# 1 0.039005 -0.000301 -0.000242 0.000000 0.000000 0.000000
# 2 -0.000301 0.007944 -0.004191 0.000000 0.000000 0.000000
# 3 -0.000242 -0.004191 0.011896 0.000000 0.000000 0.000000
# 4 0.000000 0.000000 0.000000 0.031023 0.000000 0.000000
# 5 0.000000 0.000000 0.000000 0.000000 0.046715 0.000000
# 6 0.000000 0.000000 0.000000 0.000000 0.000000 0.106750
#
#
# Mechanical properties :
#
#
# Convention : Reuss Voigt Hill
#
# Bulk Modulus (GPa) = 20.25231 44.21327 32.23279
# Shear Modulus (GPa) = 18.56937 27.70350 23.13643
#
# Velocity S-wave (km/s) = 2.88643 3.52558 3.22189
# Velocity P-wave (km/s) = 4.49391 6.03408 5.32002
#
# Compressibility (1/GPa) = 0.04937708
#
# Stress axis : x y z
#
# Youngs Moduli (GPa) = 25.63789 125.87427 84.06135
#
# Poissons Ratio (x) = 0.03787 0.02034
# Poissons Ratio (y) = 0.00771 0.35232
# Poissons Ratio (z) = 0.00620 0.52757
#
# Static dielectric constant tensor:
#      x y z
#    x 1.970790 0.000000 0.000000 
#    y 0.000000 1.834030 0.000000 
#    z 0.000000 0.000000 1.888500 
# 
# From -- ./inp_files/29824.got.cif
#   From: 2010.05.17/outbox.cif.g08.bks.cpg/sg24_15_cif.got.tgz:29824.got - 2010.06.04 00:33:39.
