data_PCOD9334270
_publ_section_title
;
Structure prediction by ZEFSAII (Michael W. Deem and Ramdas Pophale) SiO2 
 PCOD9334270
Probable space group: I 21 21 21
;
_chemical_formula_sum "Si O2"
_cell_formula_units_Z 60
_cell_length_a 11.434442
_cell_length_b 9.828628
_cell_length_c 27.682772
_cell_angle_alpha 90.000000
_cell_angle_beta 90.000000
_cell_angle_gamma 90.000000
_cell_volume 3111.124921
_symmetry_space_group_name_H-M "I 21 21 21"
_symmetry_group_IT_number 24
_symmetry_cell_setting 'orthorhombic'
loop_
_space_group_symop_operation_xyz
x,y,z
-x,1/2-y,z
x,-y,1/2-z
1/2-x,y,-z
1/2+x,1/2+y,1/2+z
1/2-x,-y,1/2+z
1/2+x,1/2-y,-z
-x,1/2+y,1/2-z
loop_
_atom_site_type_symbol
_atom_site_label
_atom_site_fract_x
_atom_site_fract_y
_atom_site_fract_z
Si Si1 0.222551 0.031587 0.692462
Si Si2 0.618778 0.164315 0.563560
Si Si3 0.866285 0.728339 0.327158
Si Si4 0.630381 0.212882 0.713093
Si Si5 0.250000 0.125661 0.500000
Si Si6 0.267760 0.499008 0.651604
Si Si7 0.512597 0.085821 0.363175
Si Si8 0.998363 0.584263 0.972903
O O1 0.279620 0.180895 0.689138
O O2 0.100415 0.028197 0.664264
O O3 0.207545 0.000000 0.750000
O O4 0.313084 0.922278 0.670186
O O5 0.500000 0.250000 0.576141
O O6 0.711623 0.274737 0.543697
O O7 0.676929 0.080652 0.606218
O O8 0.583568 0.065403 0.518532
O O9 0.863158 0.763133 0.270097
O O10 0.000000 0.750000 0.343389
O O11 0.787153 0.840984 0.352817
O O12 0.500000 0.250000 0.697472
O O13 0.660008 0.062218 0.696418
O O14 0.366106 0.044792 0.486472
O O15 0.133716 0.460449 0.660106
O O16 0.500000 0.250000 0.362278
O O17 0.523824 0.037668 0.419009
O O18 0.000000 0.750000 0.970049
#
# Coordination Sequence:
#
# PCOD9334270 Si02
#       8
#     8   8   8   8   4   8   8   8
#     4  10  22  40  58  84 122 157 195 242 288 346
#     4   9  17  29  49  85 116 146 189 245 300 338
#     4  10  23  41  56  82 117 156 193 240 294 340
#     4  10  20  37  61  84 112 149 197 250 290 335
#     4   8  14  28  48  76 118 146 174 242 302 338
#     4  12  21  33  58  88 116 151 195 234 291 356
#     4  11  21  36  57  89 119 153 191 241 293 346
#     4   8  16  30  49  78 118 144 179 240 297 337
#
# _framework density 19.285627999999999
#
# number of rings (size 3 to 8) (size 9 to 14) (size 15 to 20)
#    0.000    2.400    1.333    4.000    0.000    3.733 
#    2.400    0.000    0.000    0.000   10.400    0.000 
#    0.000    0.000    0.000    0.000    0.000    0.000 
#
# Total GULP energy -167299.422122 kJ/mol
# GULP energy per Si atom -5576.647404 kJ/mol
# Density = 1.924173 g / cm^3
# Si number density = 19.285628 Si / 1000 Ang^3
#
#
#
# Elastic Constant Matrix: (Units=GPa)
#
#
# Indices 1 2 3 4 5 6 
#
# 1 109.4094 12.4416 13.8201 0.0000 0.0000 0.0000
# 2 12.4416 55.9797 0.8469 0.0000 0.0000 0.0000
# 3 13.8201 0.8469 44.1139 0.0000 0.0000 0.0000
# 4 0.0000 0.0000 0.0000 4.5541 0.0000 0.0000
# 5 0.0000 0.0000 0.0000 0.0000 18.5171 0.0000
# 6 0.0000 0.0000 0.0000 0.0000 0.0000 19.9884
#
#
#
# Elastic Compliance Matrix: (Units=1/GPa)
#
#
# Indices 1 2 3 4 5 6 
#
# 1 0.009763 -0.002124 -0.003018 0.000000 0.000000 0.000000
# 2 -0.002124 0.018331 0.000314 0.000000 0.000000 0.000000
# 3 -0.003018 0.000314 0.023608 0.000000 0.000000 0.000000
# 4 0.000000 0.000000 0.000000 0.219582 0.000000 0.000000
# 5 0.000000 0.000000 0.000000 0.000000 0.054004 0.000000
# 6 0.000000 0.000000 0.000000 0.000000 0.000000 0.050029
#
#
# Mechanical properties :
#
#
# Convention : Reuss Voigt Hill
#
# Bulk Modulus (GPa) = 23.78404 29.30226 26.54315
# Shear Modulus (GPa) = 12.53169 20.77153 16.65161
#
# Velocity S-wave (km/s) = 2.55187 3.28540 2.94159
# Velocity P-wave (km/s) = 4.58716 5.44230 5.03292
#
# Compressibility (1/GPa) = 0.04204500
#
# Stress axis : x y z
#
# Youngs Moduli (GPa) = 102.43057 54.55252 42.35857
#
# Poissons Ratio (x) = 0.11588 0.12783
# Poissons Ratio (y) = 0.21757 -0.01328
# Poissons Ratio (z) = 0.30911 -0.01710
#
# Static dielectric constant tensor:
#      x y z
#    x 1.694720 0.000000 0.000000 
#    y 0.000000 1.645040 0.000000 
#    z 0.000000 0.000000 1.725960 
# 
# From -- ./inp_files/38593.got.cif
#   From: 2010.05.17/outbox.cif.g08.bks.cpg/sg24_20_cif.got.tgz:38593.got - 2010.06.04 00:33:39.
