data_PCOD9334682
_publ_section_title
;
Structure prediction by ZEFSAII (Michael W. Deem and Ramdas Pophale) SiO2 
 PCOD9334682
Probable space group: I 21 21 21
;
_chemical_formula_sum "Si O2"
_cell_formula_units_Z 44
_cell_length_a 8.215525
_cell_length_b 12.342655
_cell_length_c 20.064469
_cell_angle_alpha 90.000000
_cell_angle_beta 90.000000
_cell_angle_gamma 90.000000
_cell_volume 2034.565061
_symmetry_space_group_name_H-M "I 21 21 21"
_symmetry_group_IT_number 24
_symmetry_cell_setting 'orthorhombic'
loop_
_space_group_symop_operation_xyz
x,y,z
-x,1/2-y,z
x,-y,1/2-z
1/2-x,y,-z
1/2+x,1/2+y,1/2+z
1/2-x,-y,1/2+z
1/2+x,1/2-y,-z
-x,1/2+y,1/2-z
loop_
_atom_site_type_symbol
_atom_site_label
_atom_site_fract_x
_atom_site_fract_y
_atom_site_fract_z
Si Si1 0.450921 0.500000 0.250000
Si Si2 0.808174 0.777238 0.574297
Si Si3 0.192405 0.740822 0.928944
Si Si4 0.725421 0.017624 0.622186
Si Si5 0.736613 0.379204 0.193435
Si Si6 0.126143 0.099843 0.332058
O O1 0.339669 0.524548 0.186955
O O2 0.562278 0.395451 0.230067
O O3 0.750000 0.746967 0.500000
O O4 0.000000 0.750000 0.576291
O O5 0.258556 0.791673 0.636723
O O6 0.755741 0.900810 0.589266
O O7 0.226486 0.613803 0.926513
O O8 0.302299 0.801292 0.873979
O O9 0.000000 0.750000 0.918032
O O10 0.250000 0.786327 0.000000
O O11 0.544252 0.049909 0.645271
O O12 0.865653 0.370309 0.253674
O O13 0.753616 0.497519 0.160270
#
# Coordination Sequence:
#
# PCOD9334682 Si02
#       6
#     4   8   8   8   8   8
#     4  10  20  42  74 102 140 184 246 310 370 434
#     4  12  29  49  75 107 154 207 254 313 381 461
#     4  12  26  46  72 103 147 193 241 302 370 449
#     4  12  25  46  73 110 144 191 248 312 379 449
#     4  10  23  48  70 106 143 190 251 307 374 443
#     4  10  24  45  74 109 143 189 244 311 375 439
#
# _framework density 21.626245000000001
#
# number of rings (size 3 to 8) (size 9 to 14) (size 15 to 20)
#    0.000    1.091    1.818    5.455    5.091    1.455 
#    6.545    0.000    0.000    0.000    0.000    0.000 
#    0.000    0.000    0.000    0.000    0.000    0.000 
#
# Total GULP energy -122914.566884 kJ/mol
# GULP energy per Si atom -5587.025767 kJ/mol
# Density = 2.157702 g / cm^3
# Si number density = 21.626245 Si / 1000 Ang^3
#
#
#
# Elastic Constant Matrix: (Units=GPa)
#
#
# Indices 1 2 3 4 5 6 
#
# 1 113.8854 28.0913 37.4715 0.0000 0.0000 0.0000
# 2 28.0913 145.2171 63.2455 0.0000 0.0000 0.0000
# 3 37.4715 63.2455 130.2495 0.0000 0.0000 0.0000
# 4 0.0000 0.0000 0.0000 30.4153 0.0000 0.0000
# 5 0.0000 0.0000 0.0000 0.0000 8.9442 0.0000
# 6 0.0000 0.0000 0.0000 0.0000 0.0000 16.6822
#
#
#
# Elastic Compliance Matrix: (Units=1/GPa)
#
#
# Indices 1 2 3 4 5 6 
#
# 1 0.009780 -0.000845 -0.002403 0.000000 0.000000 0.000000
# 2 -0.000845 0.008806 -0.004033 0.000000 0.000000 0.000000
# 3 -0.002403 -0.004033 0.010327 0.000000 0.000000 0.000000
# 4 0.000000 0.000000 0.000000 0.032878 0.000000 0.000000
# 5 0.000000 0.000000 0.000000 0.000000 0.111804 0.000000
# 6 0.000000 0.000000 0.000000 0.000000 0.000000 0.059944
#
#
# Mechanical properties :
#
#
# Convention : Reuss Voigt Hill
#
# Bulk Modulus (GPa) = 69.68265 71.88537 70.78401
# Shear Modulus (GPa) = 19.77178 28.57794 24.17486
#
# Velocity S-wave (km/s) = 3.02694 3.63912 3.34705
# Velocity P-wave (km/s) = 6.67141 7.13930 6.90932
#
# Compressibility (1/GPa) = 0.01435077
#
# Stress axis : x y z
#
# Youngs Moduli (GPa) = 102.24992 113.55705 96.83181
#
# Poissons Ratio (x) = 0.09598 0.23270
# Poissons Ratio (y) = 0.08642 0.39051
# Poissons Ratio (z) = 0.24572 0.45796
#
# Static dielectric constant tensor:
#      x y z
#    x 1.885260 0.000000 0.000000 
#    y 0.000000 1.784200 0.000000 
#    z 0.000000 0.000000 1.815840 
# 
# From -- ./inp_files/29418.got.cif
#   From: 2010.05.17/outbox.cif.g08.bks.cpg/sg24_15_cif.got.tgz:29418.got - 2010.06.04 00:33:39.
