data_PCOD9334973
_publ_section_title
;
Structure prediction by ZEFSAII (Michael W. Deem and Ramdas Pophale) SiO2 
 PCOD9334973
Probable space group: I 21 21 21
;
_chemical_formula_sum "Si O2"
_cell_formula_units_Z 36
_cell_length_a 5.334086
_cell_length_b 24.442831
_cell_length_c 14.282389
_cell_angle_alpha 90.000000
_cell_angle_beta 90.000000
_cell_angle_gamma 90.000000
_cell_volume 1862.140201
_symmetry_space_group_name_H-M "I 21 21 21"
_symmetry_group_IT_number 24
_symmetry_cell_setting 'orthorhombic'
loop_
_space_group_symop_operation_xyz
x,y,z
-x,1/2-y,z
x,-y,1/2-z
1/2-x,y,-z
1/2+x,1/2+y,1/2+z
1/2-x,-y,1/2+z
1/2+x,1/2-y,-z
-x,1/2+y,1/2-z
loop_
_atom_site_type_symbol
_atom_site_label
_atom_site_fract_x
_atom_site_fract_y
_atom_site_fract_z
Si Si1 0.121546 0.197558 0.910796
Si Si2 0.787283 0.376209 0.246786
Si Si3 0.750716 0.282935 0.611849
Si Si4 0.774035 0.059636 0.796721
Si Si5 0.750000 0.106500 0.000000
O O1 0.301907 0.167330 0.838466
O O2 0.000000 0.250000 0.860729
O O3 0.955268 0.149214 0.957861
O O4 0.250000 0.224594 0.000000
O O5 0.743614 0.341298 0.339131
O O6 0.545096 0.413338 0.223903
O O7 0.046172 0.408123 0.251547
O O8 0.500000 0.250000 0.639680
O O9 0.750000 0.288764 0.500000
O O10 0.000000 0.250000 0.637745
O O11 0.710142 0.067695 0.908374
O O12 0.777128 0.000000 0.750000
#
# Coordination Sequence:
#
# PCOD9334973 Si02
#       5
#     8   8   8   8   4
#     4  11  20  33  58  91 126 159 193 230 308 383
#     4  11  23  40  62  91 124 159 205 253 300 367
#     4  10  21  39  62  90 126 162 197 246 304 361
#     4  11  24  43  63  86 119 163 209 260 306 349
#     4  10  22  40  58  86 126 158 198 256 302 356
#
# _framework density 19.332592999999999
#
# number of rings (size 3 to 8) (size 9 to 14) (size 15 to 20)
#    0.000    1.333    3.333    2.667    0.000    2.667 
#    4.000    0.000    0.000    0.000    0.000    0.000 
#    0.000    0.000    0.000    0.000    0.000    0.000 
#
# Total GULP energy -100336.572278 kJ/mol
# GULP energy per Si atom -5574.254015 kJ/mol
# Density = 1.928859 g / cm^3
# Si number density = 19.332593 Si / 1000 Ang^3
#
#
#
# Elastic Constant Matrix: (Units=GPa)
#
#
# Indices 1 2 3 4 5 6 
#
# 1 35.7129 -7.8483 6.9803 0.0000 0.0000 0.0000
# 2 -7.8483 88.4855 40.2722 0.0000 0.0000 0.0000
# 3 6.9803 40.2722 71.1287 0.0000 0.0000 0.0000
# 4 0.0000 0.0000 0.0000 53.7038 0.0000 0.0000
# 5 0.0000 0.0000 0.0000 0.0000 -30.9024 0.0000
# 6 0.0000 0.0000 0.0000 0.0000 0.0000 32.0929
#
#
#
# Elastic Compliance Matrix: (Units=1/GPa)
#
#
# Indices 1 2 3 4 5 6 
#
# 1 0.030388 0.005459 -0.006073 0.000000 0.000000 0.000000
# 2 0.005459 0.016205 -0.009711 0.000000 0.000000 0.000000
# 3 -0.006073 -0.009711 0.020153 0.000000 0.000000 0.000000
# 4 0.000000 0.000000 0.000000 0.018621 0.000000 0.000000
# 5 0.000000 0.000000 0.000000 0.000000 -0.032360 0.000000
# 6 0.000000 0.000000 0.000000 0.000000 0.000000 0.031160
#
#
# Mechanical properties :
#
#
# Convention : Reuss Voigt Hill
#
# Bulk Modulus (GPa) = 21.69348 30.45950 26.07649
# Shear Modulus (GPa) = 41.60364 21.37373 31.48868
#
# Velocity S-wave (km/s) = 4.64399 3.32863 4.04020
# Velocity P-wave (km/s) = 6.32464 5.52836 5.93986
#
# Compressibility (1/GPa) = 0.04609680
#
# Stress axis : x y z
#
# Youngs Moduli (GPa) = 32.90785 61.70846 49.61976
#
# Poissons Ratio (x) = -0.33689 0.30135
# Poissons Ratio (y) = -0.17966 0.48186
# Poissons Ratio (z) = 0.19986 0.59925
#
# Static dielectric constant tensor:
#      x y z
#    x 1.720950 0.000000 0.000000 
#    y 0.000000 1.664540 0.000000 
#    z 0.000000 0.000000 1.685940 
# 
# From -- ./inp_files/3329.got.cif
#   From: 2010.05.17/outbox.cif.g08.bks.cpg/sg24_2_cif.got.tgz:3329.got - 2010.06.04 00:33:39.
