data_PCOD9334209
_publ_section_title
;
Structure prediction by ZEFSAII (Michael W. Deem and Ramdas Pophale) SiO2 
 PCOD9334209
Probable space group: I 21 21 21
;
_chemical_formula_sum "Si O2"
_cell_formula_units_Z 44
_cell_length_a 16.335529
_cell_length_b 9.942177
_cell_length_c 15.594379
_cell_angle_alpha 90.000000
_cell_angle_beta 90.000000
_cell_angle_gamma 90.000000
_cell_volume 2532.694332
_symmetry_space_group_name_H-M "I 21 21 21"
_symmetry_group_IT_number 24
_symmetry_cell_setting 'orthorhombic'
loop_
_space_group_symop_operation_xyz
x,y,z
-x,1/2-y,z
x,-y,1/2-z
1/2-x,y,-z
1/2+x,1/2+y,1/2+z
1/2-x,-y,1/2+z
1/2+x,1/2-y,-z
-x,1/2+y,1/2-z
loop_
_atom_site_type_symbol
_atom_site_label
_atom_site_fract_x
_atom_site_fract_y
_atom_site_fract_z
Si Si1 0.500000 0.250000 0.607698
Si Si2 0.500000 0.250000 0.889632
Si Si3 0.067058 0.002545 0.004188
Si Si4 0.371039 0.342415 0.747045
Si Si5 0.044675 0.107674 0.682801
Si Si6 0.263175 0.867675 0.195462
Si Si7 0.750000 0.455504 0.500000
O O1 0.546066 0.364496 0.553950
O O2 0.432534 0.318927 0.667690
O O3 0.477904 0.123371 0.948568
O O4 0.423396 0.290009 0.828679
O O5 0.042340 0.969383 0.907526
O O6 0.164108 0.032789 0.002956
O O7 0.352507 0.500000 0.750000
O O8 0.290370 0.254084 0.731584
O O9 0.139167 0.140102 0.706915
O O10 0.000000 0.250000 0.678597
O O11 0.010552 0.000000 0.750000
O O12 0.236162 0.000000 0.250000
O O13 0.250881 0.879118 0.092077
#
# Coordination Sequence:
#
# PCOD9334209 Si02
#       7
#     4   4   8   8   8   8   4
#     4  11  20  36  57  88 122 160 199 236 302 389
#     4  11  24  36  61  96 128 160 195 262 314 379
#     4  11  21  39  62  88 122 162 210 249 305 373
#     4  11  22  35  58  93 129 156 191 252 321 372
#     4  10  23  40  62  86 113 163 213 258 306 359
#     4  10  21  38  61  87 118 161 210 250 304 378
#     4  10  20  36  64  86 118 168 208 246 290 382
#
# _framework density 17.372803000000001
#
# number of rings (size 3 to 8) (size 9 to 14) (size 15 to 20)
#    0.000    1.455    4.545    1.091    1.273    0.727 
#    0.000    0.000    4.000    2.182    0.000    0.000 
#    0.000    0.000    0.000    0.000    0.000    0.000 
#
# Total GULP energy -122672.072825 kJ/mol
# GULP energy per Si atom -5576.003310 kJ/mol
# Density = 1.733326 g / cm^3
# Si number density = 17.372803 Si / 1000 Ang^3
#
#
#
# Elastic Constant Matrix: (Units=GPa)
#
#
# Indices 1 2 3 4 5 6 
#
# 1 58.4056 37.9009 43.7085 0.0000 0.0000 0.0000
# 2 37.9009 116.3824 66.2775 0.0000 0.0000 0.0000
# 3 43.7085 66.2775 108.6845 0.0000 0.0000 0.0000
# 4 0.0000 0.0000 0.0000 27.6748 0.0000 0.0000
# 5 0.0000 0.0000 0.0000 0.0000 25.3367 0.0000
# 6 0.0000 0.0000 0.0000 0.0000 0.0000 27.6566
#
#
#
# Elastic Compliance Matrix: (Units=1/GPa)
#
#
# Indices 1 2 3 4 5 6 
#
# 1 0.025534 -0.003780 -0.007964 0.000000 0.000000 0.000000
# 2 -0.003780 0.013724 -0.006849 0.000000 0.000000 0.000000
# 3 -0.007964 -0.006849 0.016580 0.000000 0.000000 0.000000
# 4 0.000000 0.000000 0.000000 0.036134 0.000000 0.000000
# 5 0.000000 0.000000 0.000000 0.000000 0.039468 0.000000
# 6 0.000000 0.000000 0.000000 0.000000 0.000000 0.036158
#
#
# Mechanical properties :
#
#
# Convention : Reuss Voigt Hill
#
# Bulk Modulus (GPa) = 53.61085 64.36070 58.98578
# Shear Modulus (GPa) = 23.69661 25.17268 24.43465
#
# Velocity S-wave (km/s) = 3.69725 3.81066 3.75439
# Velocity P-wave (km/s) = 7.01087 7.51590 7.26777
#
# Compressibility (1/GPa) = 0.01865294
#
# Stress axis : x y z
#
# Youngs Moduli (GPa) = 39.16279 72.86720 60.31402
#
# Poissons Ratio (x) = 0.27547 0.48031
# Poissons Ratio (y) = 0.14805 0.41306
# Poissons Ratio (z) = 0.31187 0.49903
#
# Static dielectric constant tensor:
#      x y z
#    x 1.584540 0.000000 0.000000 
#    y 0.000000 1.507030 0.000000 
#    z 0.000000 0.000000 1.617140 
# 
# From -- ./inp_files/12708.got.cif
#   From: 2010.05.17/outbox.cif.g08.bks.cpg/sg24_7_cif.got.tgz:12708.got - 2010.06.04 00:33:39.
