data_PCOD9334256
_publ_section_title
;
Structure prediction by ZEFSAII (Michael W. Deem and Ramdas Pophale) SiO2 
 PCOD9334256
Probable space group: I 21 21 21
;
_chemical_formula_sum "Si O2"
_cell_formula_units_Z 60
_cell_length_a 15.557341
_cell_length_b 5.388484
_cell_length_c 27.742977
_cell_angle_alpha 90.000000
_cell_angle_beta 90.000000
_cell_angle_gamma 90.000000
_cell_volume 2325.707163
_symmetry_space_group_name_H-M "I 21 21 21"
_symmetry_group_IT_number 24
_symmetry_cell_setting 'orthorhombic'
loop_
_space_group_symop_operation_xyz
x,y,z
-x,1/2-y,z
x,-y,1/2-z
1/2-x,y,-z
1/2+x,1/2+y,1/2+z
1/2-x,-y,1/2+z
1/2+x,1/2-y,-z
-x,1/2+y,1/2-z
loop_
_atom_site_type_symbol
_atom_site_label
_atom_site_fract_x
_atom_site_fract_y
_atom_site_fract_z
Si Si1 0.896439 0.882545 0.798464
Si Si2 0.197862 0.709185 0.377635
Si Si3 0.799624 0.169823 0.291902
Si Si4 0.642234 0.110878 0.547384
Si Si5 0.088498 0.902809 0.961606
Si Si6 0.086325 0.094746 0.360850
Si Si7 0.500000 0.250000 0.971044
Si Si8 0.875693 0.600040 0.644747
O O1 0.800494 0.790465 0.779787
O O2 0.896256 0.119411 0.835929
O O3 0.936905 0.000000 0.750000
O O4 0.919538 0.618625 0.823389
O O5 0.207738 0.487665 0.340531
O O6 0.206643 0.597165 0.431201
O O7 0.100620 0.805120 0.370446
O O8 0.271553 0.896289 0.359561
O O9 0.836607 0.000000 0.250000
O O10 0.864692 0.377137 0.309380
O O11 0.650311 0.225756 0.493970
O O12 0.636353 0.314699 0.589939
O O13 0.547446 0.984657 0.550951
O O14 0.103827 0.018425 0.909583
O O15 0.000000 0.750000 0.957371
O O16 0.074105 0.136097 0.995952
O O17 0.000000 0.250000 0.356844
#
# Coordination Sequence:
#
# PCOD9334256 Si02
#       8
#     8   8   8   8   8   8   4   8
#     4  10  21  41  70  98 129 172 218 270 339 412
#     4  10  21  38  61  85 125 167 216 275 325 382
#     4   9  20  37  56  83 117 161 215 267 322 386
#     4  10  20  37  60  84 122 168 219 256 315 394
#     4  10  23  40  66  96 131 174 221 267 334 405
#     4  11  20  35  55  84 119 165 212 267 322 383
#     4  10  20  40  60  88 116 174 216 256 316 398
#     4  11  23  41  69 101 133 166 226 278 333 396
#
# _framework density 25.798605999999999
#
# number of rings (size 3 to 8) (size 9 to 14) (size 15 to 20)
#    0.000    1.867    1.333    3.200    3.733    2.133 
#    2.400    4.000    0.000    1.600    0.000    0.000 
#    0.000    0.000    0.000    0.000    0.000    0.000 
#
# Total GULP energy -167048.643715 kJ/mol
# GULP energy per Si atom -5568.288124 kJ/mol
# Density = 2.573989 g / cm^3
# Si number density = 25.798606 Si / 1000 Ang^3
#
#
#
# Elastic Constant Matrix: (Units=GPa)
#
#
# Indices 1 2 3 4 5 6 
#
# 1 53.2888 27.3049 10.8331 0.0000 0.0000 0.0000
# 2 27.3049 104.7926 39.9875 0.0000 0.0000 0.0000
# 3 10.8331 39.9875 141.7083 0.0000 0.0000 0.0000
# 4 0.0000 0.0000 0.0000 41.3338 0.0000 0.0000
# 5 0.0000 0.0000 0.0000 0.0000 18.9633 0.0000
# 6 0.0000 0.0000 0.0000 0.0000 0.0000 27.3949
#
#
#
# Elastic Compliance Matrix: (Units=1/GPa)
#
#
# Indices 1 2 3 4 5 6 
#
# 1 0.021658 -0.005616 -0.000071 0.000000 0.000000 0.000000
# 2 -0.005616 0.012151 -0.002999 0.000000 0.000000 0.000000
# 3 -0.000071 -0.002999 0.007909 0.000000 0.000000 0.000000
# 4 0.000000 0.000000 0.000000 0.024193 0.000000 0.000000
# 5 0.000000 0.000000 0.000000 0.000000 0.052733 0.000000
# 6 0.000000 0.000000 0.000000 0.000000 0.000000 0.036503
#
#
# Mechanical properties :
#
#
# Convention : Reuss Voigt Hill
#
# Bulk Modulus (GPa) = 41.07769 50.67120 45.87445
# Shear Modulus (GPa) = 27.68028 32.31600 29.99814
#
# Velocity S-wave (km/s) = 3.27913 3.54309 3.41366
# Velocity P-wave (km/s) = 5.50399 6.03503 5.77562
#
# Compressibility (1/GPa) = 0.02434411
#
# Stress axis : x y z
#
# Youngs Moduli (GPa) = 46.17282 82.30105 126.44589
#
# Poissons Ratio (x) = 0.46221 0.00896
# Poissons Ratio (y) = 0.25931 0.37925
# Poissons Ratio (z) = 0.00327 0.24685
#
# Static dielectric constant tensor:
#      x y z
#    x 2.333620 0.000000 0.000000 
#    y 0.000000 2.228950 0.000000 
#    z 0.000000 0.000000 2.021050 
# 
# From -- ./inp_files/37554.got.cif
#   From: 2010.05.17/outbox.cif.g08.bks.cpg/sg24_19_cif.got.tgz:37554.got - 2010.06.04 00:33:39.
