data_PCOD9334271
_publ_section_title
;
Structure prediction by ZEFSAII (Michael W. Deem and Ramdas Pophale) SiO2 
 PCOD9334271
Probable space group: I 21 21 21
;
_chemical_formula_sum "Si O2"
_cell_formula_units_Z 64
_cell_length_a 27.805608
_cell_length_b 13.030941
_cell_length_c 8.422085
_cell_angle_alpha 90.000000
_cell_angle_beta 90.000000
_cell_angle_gamma 90.000000
_cell_volume 3051.601323
_symmetry_space_group_name_H-M "I 21 21 21"
_symmetry_group_IT_number 24
_symmetry_cell_setting 'orthorhombic'
loop_
_space_group_symop_operation_xyz
x,y,z
-x,1/2-y,z
x,-y,1/2-z
1/2-x,y,-z
1/2+x,1/2+y,1/2+z
1/2-x,-y,1/2+z
1/2+x,1/2-y,-z
-x,1/2+y,1/2-z
loop_
_atom_site_type_symbol
_atom_site_label
_atom_site_fract_x
_atom_site_fract_y
_atom_site_fract_z
Si Si1 0.463783 0.329954 0.022099
Si Si2 0.847723 0.096040 0.470981
Si Si3 0.371727 0.021833 0.439638
Si Si4 0.695499 0.669683 0.456026
Si Si5 0.699702 0.296120 0.419585
Si Si6 0.643835 0.867618 0.596314
Si Si7 0.053173 0.609548 0.847253
Si Si8 0.478514 0.975573 0.935711
O O1 0.500000 0.250000 0.943539
O O2 0.451575 0.307703 0.206344
O O3 0.412810 0.349416 0.939990
O O4 0.498288 0.427342 0.022445
O O5 0.810531 0.177641 0.539969
O O6 0.851013 0.116840 0.283625
O O7 0.898164 0.120462 0.554977
O O8 0.839866 0.973736 0.488266
O O9 0.341900 0.125313 0.473970
O O10 0.379211 0.000000 0.250000
O O11 0.340019 0.924491 0.493639
O O12 0.422720 0.030504 0.525127
O O13 0.750000 0.644578 0.500000
O O14 0.698225 0.690248 0.268664
O O15 0.674804 0.771350 0.539134
O O16 0.750000 0.326286 0.500000
O O17 0.058350 0.500000 0.750000
O O18 0.009733 0.611323 0.974558
O O19 0.487032 0.000000 0.750000
#
# Coordination Sequence:
#
# PCOD9334271 Si02
#       8
#     8   8   8   8   8   8   8   8
#     4  11  22  37  60  89 125 166 211 258 310 374
#     4  11  23  41  66  93 131 167 213 266 316 382
#     4  10  23  44  65  92 128 169 212 267 323 385
#     4  11  24  43  68  93 126 167 215 265 329 388
#     4  11  25  43  67  95 126 164 216 270 325 384
#     4  11  23  41  66  94 129 170 212 264 323 377
#     4  10  20  37  61  87 125 167 207 253 311 372
#     4  11  22  37  60  90 124 163 206 252 307 374
#
# _framework density 20.972594999999998
#
# number of rings (size 3 to 8) (size 9 to 14) (size 15 to 20)
#    0.000    1.250    2.500    4.500    0.000    6.500 
#    0.000    1.250    0.000    0.000    0.000    0.000 
#    0.000    0.000    0.000    0.000    0.000    0.000 
#
# Total GULP energy -178625.085055 kJ/mol
# GULP energy per Si atom -5582.033908 kJ/mol
# Density = 2.092486 g / cm^3
# Si number density = 20.972595 Si / 1000 Ang^3
#
#
#
# Elastic Constant Matrix: (Units=GPa)
#
#
# Indices 1 2 3 4 5 6 
#
# 1 80.3222 -10.0553 15.5666 0.0000 0.0000 0.0000
# 2 -10.0553 36.7082 -1.7291 0.0000 0.0000 0.0000
# 3 15.5666 -1.7291 42.6377 0.0000 0.0000 0.0000
# 4 0.0000 0.0000 0.0000 12.7015 0.0000 0.0000
# 5 0.0000 0.0000 0.0000 0.0000 38.8343 0.0000
# 6 0.0000 0.0000 0.0000 0.0000 0.0000 30.6407
#
#
#
# Elastic Compliance Matrix: (Units=1/GPa)
#
#
# Indices 1 2 3 4 5 6 
#
# 1 0.013848 0.003562 -0.004911 0.000000 0.000000 0.000000
# 2 0.003562 0.028210 -0.000156 0.000000 0.000000 0.000000
# 3 -0.004911 -0.000156 0.025240 0.000000 0.000000 0.000000
# 4 0.000000 0.000000 0.000000 0.078731 0.000000 0.000000
# 5 0.000000 0.000000 0.000000 0.000000 0.025750 0.000000
# 6 0.000000 0.000000 0.000000 0.000000 0.000000 0.032636
#
#
# Mechanical properties :
#
#
# Convention : Reuss Voigt Hill
#
# Bulk Modulus (GPa) = 15.55538 18.58139 17.06839
# Shear Modulus (GPa) = 21.84785 26.82771 24.33778
#
# Velocity S-wave (km/s) = 3.23109 3.58044 3.41024
# Velocity P-wave (km/s) = 4.62093 5.09626 4.86440
#
# Compressibility (1/GPa) = 0.06428645
#
# Stress axis : x y z
#
# Youngs Moduli (GPa) = 72.21502 35.44821 39.61951
#
# Poissons Ratio (x) = -0.12626 0.19458
# Poissons Ratio (y) = -0.25722 0.00620
# Poissons Ratio (z) = 0.35466 0.00554
#
# Static dielectric constant tensor:
#      x y z
#    x 1.712310 0.000000 0.000000 
#    y 0.000000 1.809350 0.000000 
#    z 0.000000 0.000000 1.783630 
# 
# From -- ./inp_files/16070.got.cif
#   From: 2010.05.17/outbox.cif.g08.bks.cpg/sg24_9_cif.got.tgz:16070.got - 2010.06.04 00:33:39.
