data_PCOD9334893
_publ_section_title
;
Structure prediction by ZEFSAII (Michael W. Deem and Ramdas Pophale) SiO2 
 PCOD9334893
Probable space group: I 21 21 21
;
_chemical_formula_sum "Si O2"
_cell_formula_units_Z 48
_cell_length_a 8.171013
_cell_length_b 7.813355
_cell_length_c 39.359827
_cell_angle_alpha 90.000000
_cell_angle_beta 90.000000
_cell_angle_gamma 90.000000
_cell_volume 2512.850430
_symmetry_space_group_name_H-M "I 21 21 21"
_symmetry_group_IT_number 24
_symmetry_cell_setting 'orthorhombic'
loop_
_space_group_symop_operation_xyz
x,y,z
-x,1/2-y,z
x,-y,1/2-z
1/2-x,y,-z
1/2+x,1/2+y,1/2+z
1/2-x,-y,1/2+z
1/2+x,1/2-y,-z
-x,1/2+y,1/2-z
loop_
_atom_site_type_symbol
_atom_site_label
_atom_site_fract_x
_atom_site_fract_y
_atom_site_fract_z
Si Si1 0.304502 0.555641 0.461950
Si Si2 0.800175 0.056234 0.212099
Si Si3 0.695498 0.444359 0.038050
Si Si4 0.305066 0.250000 0.585984
Si Si5 0.799453 0.250000 0.336603
Si Si6 0.300175 0.056235 0.787901
O O1 0.250000 0.506497 0.500000
O O2 0.500000 0.559143 0.461543
O O3 0.243348 0.750000 0.455488
O O4 0.247184 0.417748 0.434761
O O5 0.746750 0.250000 0.205118
O O6 0.000000 0.055721 0.212127
O O7 0.749925 0.000000 0.250000
O O8 0.747414 0.917580 0.184401
O O9 0.752816 0.582252 0.065238
O O10 0.750000 0.493503 0.000000
O O11 0.500000 0.250000 0.587712
O O12 0.241762 0.250000 0.624621
O O13 0.747414 0.417580 0.315599
O O14 0.000000 0.250000 0.336756
O O15 0.249926 0.000000 0.750000
#
# Coordination Sequence:
#
# PCOD9334893 Si02
#       6
#     8   8   8   8   8   8
#     4  10  21  38  60  83 107 139 182 226 269 318
#     4   9  14  22  38  57  83 123 170 214 254 304
#     4  10  21  38  60  83 107 139 182 226 269 318
#     4  11  22  34  51  77 116 152 180 218 268 327
#     4   9  18  28  38  63  97 136 176 210 259 315
#     4   9  14  22  38  57  83 123 170 214 254 304
#
# _framework density 19.101814000000001
#
# number of rings (size 3 to 8) (size 9 to 14) (size 15 to 20)
#    0.000    2.333    1.667    2.000    0.000    3.333 
#    0.000    3.333    0.000    0.000    0.000    0.000 
#    0.000    5.333    0.000    0.000    0.000    0.000 
#
# Total GULP energy -133968.707417 kJ/mol
# GULP energy per Si atom -5582.029476 kJ/mol
# Density = 1.905834 g / cm^3
# Si number density = 19.101814 Si / 1000 Ang^3
#
#
#
# Elastic Constant Matrix: (Units=GPa)
#
#
# Indices 1 2 3 4 5 6 
#
# 1 20.4719 13.4648 17.5488 0.0000 0.0000 0.0000
# 2 13.4648 191.5690 138.5371 0.0000 0.0000 0.0000
# 3 17.5488 138.5371 207.6690 0.0000 0.0000 0.0000
# 4 0.0000 0.0000 0.0000 4.5344 0.0000 0.0000
# 5 0.0000 0.0000 0.0000 0.0000 11.5463 0.0000
# 6 0.0000 0.0000 0.0000 0.0000 0.0000 125.3383
#
#
#
# Elastic Compliance Matrix: (Units=1/GPa)
#
#
# Indices 1 2 3 4 5 6 
#
# 1 0.052749 -0.000935 -0.003834 0.000000 0.000000 0.000000
# 2 -0.000935 0.010102 -0.006660 0.000000 0.000000 0.000000
# 3 -0.003834 -0.006660 0.009582 0.000000 0.000000 0.000000
# 4 0.000000 0.000000 0.000000 0.220535 0.000000 0.000000
# 5 0.000000 0.000000 0.000000 0.000000 0.086608 0.000000
# 6 0.000000 0.000000 0.000000 0.000000 0.000000 0.007978
#
#
# Mechanical properties :
#
#
# Convention : Reuss Voigt Hill
#
# Bulk Modulus (GPa) = 20.17133 84.31237 52.24185
# Shear Modulus (GPa) = 11.71132 44.96109 28.33620
#
# Velocity S-wave (km/s) = 2.47877 4.85682 3.85571
# Velocity P-wave (km/s) = 4.33304 8.69976 6.87245
#
# Compressibility (1/GPa) = 0.04957530
#
# Stress axis : x y z
#
# Youngs Moduli (GPa) = 18.95781 98.98748 104.35803
#
# Poissons Ratio (x) = 0.09258 0.40006
# Poissons Ratio (y) = 0.01773 0.69505
# Poissons Ratio (z) = 0.07268 0.65928
#
# Static dielectric constant tensor:
#      x y z
#    x 1.685480 0.000000 0.000000 
#    y 0.000000 1.673230 0.000000 
#    z 0.000000 0.000000 1.636550 
# 
# From -- ./inp_files/38294.got.cif
#   From: 2010.05.17/outbox.cif.g08.bks.cpg/sg24_20_cif.got.tgz:38294.got - 2010.06.04 00:33:39.
