data_PCOD9334365
_publ_section_title
;
Structure prediction by ZEFSAII (Michael W. Deem and Ramdas Pophale) SiO2 
 PCOD9334365
Probable space group: I 21 21 21
;
_chemical_formula_sum "Si O2"
_cell_formula_units_Z 28
_cell_length_a 33.072623
_cell_length_b 7.421999
_cell_length_c 5.407704
_cell_angle_alpha 90.000000
_cell_angle_beta 90.000000
_cell_angle_gamma 90.000000
_cell_volume 1327.401926
_symmetry_space_group_name_H-M "I 21 21 21"
_symmetry_group_IT_number 24
_symmetry_cell_setting 'orthorhombic'
loop_
_space_group_symop_operation_xyz
x,y,z
-x,1/2-y,z
x,-y,1/2-z
1/2-x,y,-z
1/2+x,1/2+y,1/2+z
1/2-x,-y,1/2+z
1/2+x,1/2-y,-z
-x,1/2+y,1/2-z
loop_
_atom_site_type_symbol
_atom_site_label
_atom_site_fract_x
_atom_site_fract_y
_atom_site_fract_z
Si Si1 0.452775 0.214175 0.006546
Si Si2 0.224371 0.287098 0.246784
Si Si3 0.080737 0.823491 0.004406
Si Si4 0.345287 0.000000 0.750000
O O1 0.500000 0.250000 0.020165
O O2 0.428000 0.275394 0.248919
O O3 0.431706 0.279329 0.753417
O O4 0.448461 0.997269 0.001410
O O5 0.214721 0.500000 0.250000
O O6 0.250000 0.245980 0.500000
O O7 0.184712 0.166659 0.211475
O O8 0.250000 0.252582 0.000000
O O9 0.124070 0.920556 0.042449
#
# Coordination Sequence:
#
# PCOD9334365 Si02
#       4
#     8   8   8   4
#     4   9  16  31  50  70 106 134 185 236 276 328
#     4  10  22  38  60  90 118 155 195 234 285 351
#     4   9  20  30  51  82  98 148 190 229 289 335
#     4  10  20  38  62  84 126 150 192 244 292 346
#
# _framework density 21.093836
#
# number of rings (size 3 to 8) (size 9 to 14) (size 15 to 20)
#    0.000    2.857    0.000    1.714    0.000    9.143 
#    0.000    0.000   50.286    0.000    0.000    0.000 
#    0.000    0.000    0.000    0.000    0.000    0.000 
#
# Total GULP energy -77946.726407 kJ/mol
# GULP energy per Si atom -5567.623315 kJ/mol
# Density = 2.104583 g / cm^3
# Si number density = 21.093836 Si / 1000 Ang^3
#
#
#
# Elastic Constant Matrix: (Units=GPa)
#
#
# Indices 1 2 3 4 5 6 
#
# 1 177.5146 66.9261 74.5307 0.0000 0.0000 0.0000
# 2 66.9261 68.0721 27.9071 -0.0001 0.0001 0.0000
# 3 74.5307 27.9071 233.0740 -0.0001 0.0000 -0.0001
# 4 0.0000 -0.0001 -0.0001 -3.3868 0.0001 0.0000
# 5 0.0000 0.0001 0.0000 0.0001 42.2125 0.0002
# 6 0.0000 0.0000 -0.0001 0.0000 0.0002 0.5816
#
#
#
# Elastic Compliance Matrix: (Units=1/GPa)
#
#
# Indices 1 2 3 4 5 6 
#
# 1 0.009832 -0.008810 -0.002089 0.000000 0.000000 -0.000001
# 2 -0.008810 0.023343 0.000022 -0.000001 0.000000 0.000001
# 3 -0.002089 0.000022 0.004956 0.000000 0.000000 0.000000
# 4 0.000000 -0.000001 0.000000 -0.295267 0.000000 -0.000005
# 5 0.000000 0.000000 0.000000 0.000000 0.023690 -0.000008
# 6 -0.000001 0.000001 0.000000 -0.000005 -0.000008 1.719314
#
#
# Mechanical properties :
#
#
# Convention : Reuss Voigt Hill
#
# Bulk Modulus (GPa) = 61.06147 90.82094 75.94120
# Shear Modulus (GPa) = 3.30452 28.50125 15.90288
#
# Velocity S-wave (km/s) = 1.25299 3.67981 2.74872
# Velocity P-wave (km/s) = 5.57707 7.82329 6.79365
#
# Compressibility (1/GPa) = 0.01637694
#
# Stress axis : x y z
#
# Youngs Moduli (GPa) = 101.70856 42.83958 201.78098
#
# Poissons Ratio (x) = 0.37742 0.42155
# Poissons Ratio (y) = 0.89605 -0.00449
# Poissons Ratio (z) = 0.21248 -0.00095
#
# Static dielectric constant tensor:
#      x y z
#    x 1.754720 0.000000 0.000000 
#    y 0.000000 1.716190 0.000000 
#    z 0.000000 0.000000 2.055830 
# 
# From -- ./inp_files/7428.got.cif
#   From: 2010.05.17/outbox.cif.g08.bks.cpg/sg24_4_cif.got.tgz:7428.got - 2010.06.04 00:33:39.
