data_PCOD9334220
_publ_section_title
;
Structure prediction by ZEFSAII (Michael W. Deem and Ramdas Pophale) SiO2 
 PCOD9334220
Probable space group: I 21 21 21
;
_chemical_formula_sum "Si O2"
_cell_formula_units_Z 60
_cell_length_a 5.491498
_cell_length_b 17.225601
_cell_length_c 26.321654
_cell_angle_alpha 90.000000
_cell_angle_beta 90.000000
_cell_angle_gamma 90.000000
_cell_volume 2489.879842
_symmetry_space_group_name_H-M "I 21 21 21"
_symmetry_group_IT_number 24
_symmetry_cell_setting 'orthorhombic'
loop_
_space_group_symop_operation_xyz
x,y,z
-x,1/2-y,z
x,-y,1/2-z
1/2-x,y,-z
1/2+x,1/2+y,1/2+z
1/2-x,-y,1/2+z
1/2+x,1/2-y,-z
-x,1/2+y,1/2-z
loop_
_atom_site_type_symbol
_atom_site_label
_atom_site_fract_x
_atom_site_fract_y
_atom_site_fract_z
Si Si1 0.052151 0.366494 0.589465
Si Si2 0.039625 0.579112 0.747893
Si Si3 0.007589 0.337102 0.855953
Si Si4 0.304288 0.314597 0.681860
Si Si5 0.250000 0.883164 0.000000
Si Si6 0.827133 0.555964 0.163579
Si Si7 0.491848 0.162424 0.920597
Si Si8 0.441446 0.501478 0.930404
O O1 0.207742 0.307021 0.623870
O O2 0.194648 0.448588 0.578323
O O3 0.935295 0.339068 0.536940
O O4 0.838416 0.390055 0.627588
O O5 0.204196 0.500000 0.750000
O O6 0.116961 0.661361 0.774303
O O7 0.988968 0.601733 0.689768
O O8 0.828446 0.550265 0.786039
O O9 0.776068 0.342568 0.894115
O O10 0.000000 0.250000 0.834513
O O11 0.272246 0.342876 0.882869
O O12 0.500000 0.250000 0.695279
O O13 0.439627 0.395857 0.678175
O O14 0.405999 0.939532 0.964362
O O15 0.929629 0.492131 0.124947
O O16 0.500000 0.250000 0.943544
O O17 0.541817 0.084707 0.953455
#
# Coordination Sequence:
#
# PCOD9334220 Si02
#       8
#     8   8   8   8   4   8   8   8
#     4   9  20  38  60  97 118 161 208 267 331 403
#     4  11  24  35  57  87 129 170 231 282 323 384
#     4  10  24  40  60  87 129 178 230 276 330 387
#     4  10  23  39  62  92 128 176 218 272 342 409
#     4  10  20  36  66 100 122 156 210 272 328 402
#     4   9  21  37  58  86 120 163 210 269 327 386
#     4  10  23  41  62  88 128 181 220 269 331 398
#     4  10  20  37  67  90 125 159 217 262 332 395
#
# _framework density 24.097549999999998
#
# number of rings (size 3 to 8) (size 9 to 14) (size 15 to 20)
#    0.000    2.133    0.000    1.200   13.067    2.667 
#    0.000    0.000    2.933    0.000  124.800    0.000 
#    0.000    0.000    0.000    0.000    0.000    0.000 
#
# Total GULP energy -167077.021002 kJ/mol
# GULP energy per Si atom -5569.234033 kJ/mol
# Density = 2.404270 g / cm^3
# Si number density = 24.097550 Si / 1000 Ang^3
#
#
#
# Elastic Constant Matrix: (Units=GPa)
#
#
# Indices 1 2 3 4 5 6 
#
# 1 80.4486 8.4297 29.0984 0.0000 0.0000 0.0000
# 2 8.4297 99.0014 0.8207 0.0000 -0.0001 0.0000
# 3 29.0984 0.8207 64.6313 0.0000 -0.0001 0.0000
# 4 0.0000 0.0000 0.0000 11.5753 -0.0001 0.0000
# 5 0.0000 -0.0001 -0.0001 -0.0001 1444.8441 0.0000
# 6 0.0000 0.0000 0.0000 0.0000 0.0000 23.7648
#
#
#
# Elastic Compliance Matrix: (Units=1/GPa)
#
#
# Indices 1 2 3 4 5 6 
#
# 1 0.014994 -0.001221 -0.006735 0.000000 0.000000 0.000000
# 2 -0.001221 0.010201 0.000420 0.000000 0.000000 0.000000
# 3 -0.006735 0.000420 0.018499 0.000000 0.000000 0.000000
# 4 0.000000 0.000000 0.000000 0.086391 0.000000 0.000000
# 5 0.000000 0.000000 0.000000 0.000000 0.000692 0.000000
# 6 0.000000 0.000000 0.000000 0.000000 0.000000 0.042079
#
#
# Mechanical properties :
#
#
# Convention : Reuss Voigt Hill
#
# Bulk Modulus (GPa) = 34.93690 35.64210 35.28950
# Shear Modulus (GPa) = 25.32031 309.75235 167.53633
#
# Velocity S-wave (km/s) = 3.24503 11.34989 8.34716
# Velocity P-wave (km/s) = 5.34508 13.65954 10.37191
#
# Compressibility (1/GPa) = 0.02862303
#
# Stress axis : x y z
#
# Youngs Moduli (GPa) = 66.69163 98.02635 54.05581
#
# Poissons Ratio (x) = 0.11968 0.36408
# Poissons Ratio (y) = 0.08142 -0.02271
# Poissons Ratio (z) = 0.44919 -0.04118
#
# Static dielectric constant tensor:
#      x y z
#    x 2.169810 0.000000 0.000000 
#    y 0.000000 -8.660110 0.000000 
#    z 0.000000 0.000000 2.589390 
# 
# From -- ./inp_files/36564.got.cif
#   From: 2010.05.17/outbox.cif.g08.bks.cpg/sg24_19_cif.got.tgz:36564.got - 2010.06.04 00:33:39.
