data_PCOD9334389
_publ_section_title
;
Structure prediction by ZEFSAII (Michael W. Deem and Ramdas Pophale) SiO2 
 PCOD9334389
Probable space group: I 21 21 21
;
_chemical_formula_sum "Si O2"
_cell_formula_units_Z 48
_cell_length_a 14.601136
_cell_length_b 6.080526
_cell_length_c 27.745642
_cell_angle_alpha 90.000000
_cell_angle_beta 90.000000
_cell_angle_gamma 90.000000
_cell_volume 2463.329877
_symmetry_space_group_name_H-M "I 21 21 21"
_symmetry_group_IT_number 24
_symmetry_cell_setting 'orthorhombic'
loop_
_space_group_symop_operation_xyz
x,y,z
-x,1/2-y,z
x,-y,1/2-z
1/2-x,y,-z
1/2+x,1/2+y,1/2+z
1/2-x,-y,1/2+z
1/2+x,1/2-y,-z
-x,1/2+y,1/2-z
loop_
_atom_site_type_symbol
_atom_site_label
_atom_site_fract_x
_atom_site_fract_y
_atom_site_fract_z
Si Si1 0.714889 0.401150 0.203273
Si Si2 0.000000 0.750000 0.985801
Si Si3 0.404429 0.708285 0.153920
Si Si4 0.164945 0.042545 0.971689
Si Si5 0.602795 0.000000 0.250000
Si Si6 0.913309 0.877470 0.448462
Si Si7 0.260299 0.358232 0.112081
O O1 0.766901 0.500000 0.250000
O O2 0.652415 0.582976 0.175073
O O3 0.765483 0.273074 0.160713
O O4 0.657025 0.212508 0.230668
O O5 0.917137 0.621789 0.960071
O O6 0.049465 0.578703 0.021056
O O7 0.500000 0.750000 0.127250
O O8 0.442595 0.573558 0.200721
O O9 0.333043 0.548554 0.126120
O O10 0.195404 0.183577 0.925426
O O11 0.250000 0.930056 0.000000
O O12 0.128258 0.212233 0.011738
O O13 0.832098 0.943166 0.412733
O O14 0.000000 0.750000 0.425359
#
# Coordination Sequence:
#
# PCOD9334389 Si02
#       7
#     8   4   8   8   4   8   8
#     4   9  19  37  55  82 113 154 197 244 291 348
#     4  10  20  38  64  84 112 156 202 248 308 364
#     4  10  21  33  52  81 114 157 198 237 282 351
#     4   9  20  38  59  83 119 154 194 250 304 358
#     4   8  18  32  54  72 108 152 198 244 274 326
#     4   9  20  39  60  86 112 150 199 254 309 368
#     4  10  21  38  58  85 122 153 199 249 300 364
#
# _framework density 19.485818999999999
#
# number of rings (size 3 to 8) (size 9 to 14) (size 15 to 20)
#    0.000    2.667    0.000    0.000    3.500    9.333 
#   12.000    0.000    0.000    0.000   13.000    0.000 
#    0.000    0.000    0.000    0.000    0.000    0.000 
#
# Total GULP energy -133615.575319 kJ/mol
# GULP energy per Si atom -5567.315638 kJ/mol
# Density = 1.944147 g / cm^3
# Si number density = 19.485819 Si / 1000 Ang^3
#
#
#
# Elastic Constant Matrix: (Units=GPa)
#
#
# Indices 1 2 3 4 5 6 
#
# 1 93.8826 28.0978 48.9382 0.0000 0.0000 0.0000
# 2 28.0978 62.2315 23.1259 0.0000 0.0000 0.0000
# 3 48.9382 23.1259 91.7146 0.0000 0.0000 0.0000
# 4 0.0000 0.0000 0.0000 25.0199 0.0000 0.0000
# 5 0.0000 0.0000 0.0000 0.0000 5.8182 0.0000
# 6 0.0000 0.0000 0.0000 0.0000 0.0000 26.9291
#
#
#
# Elastic Compliance Matrix: (Units=1/GPa)
#
#
# Indices 1 2 3 4 5 6 
#
# 1 0.015781 -0.004409 -0.007309 0.000000 0.000000 0.000000
# 2 -0.004409 0.018962 -0.002429 0.000000 0.000000 0.000000
# 3 -0.007309 -0.002429 0.015416 0.000000 0.000000 0.000000
# 4 0.000000 0.000000 0.000000 0.039968 0.000000 0.000000
# 5 0.000000 0.000000 0.000000 0.000000 0.171874 0.000000
# 6 0.000000 0.000000 0.000000 0.000000 0.000000 0.037135
#
#
# Mechanical properties :
#
#
# Convention : Reuss Voigt Hill
#
# Bulk Modulus (GPa) = 45.73371 49.79471 47.76421
# Shear Modulus (GPa) = 14.93793 21.39789 18.16791
#
# Velocity S-wave (km/s) = 2.77177 3.31739 3.05678
# Velocity P-wave (km/s) = 5.81075 6.34691 6.08474
#
# Compressibility (1/GPa) = 0.02186571
#
# Stress axis : x y z
#
# Youngs Moduli (GPa) = 63.36679 52.73619 64.86864
#
# Poissons Ratio (x) = 0.23252 0.47412
# Poissons Ratio (y) = 0.27940 0.15754
# Poissons Ratio (z) = 0.46314 0.12808
#
# Static dielectric constant tensor:
#      x y z
#    x 1.710770 0.000000 0.000000 
#    y 0.000000 1.741870 0.000000 
#    z 0.000000 0.000000 1.719960 
# 
# From -- ./inp_files/7121.got.cif
#   From: 2010.05.17/outbox.cif.g08.bks.cpg/sg24_4_cif.got.tgz:7121.got - 2010.06.04 00:33:39.
