data_PCOD9334349
_publ_section_title
;
Structure prediction by ZEFSAII (Michael W. Deem and Ramdas Pophale) SiO2 
 PCOD9334349
Probable space group: I 21 21 21
;
_chemical_formula_sum "Si O2"
_cell_formula_units_Z 40
_cell_length_a 16.767909
_cell_length_b 15.589411
_cell_length_c 7.642741
_cell_angle_alpha 90.000000
_cell_angle_beta 90.000000
_cell_angle_gamma 90.000000
_cell_volume 1997.826445
_symmetry_space_group_name_H-M "I 21 21 21"
_symmetry_group_IT_number 24
_symmetry_cell_setting 'orthorhombic'
loop_
_space_group_symop_operation_xyz
x,y,z
-x,1/2-y,z
x,-y,1/2-z
1/2-x,y,-z
1/2+x,1/2+y,1/2+z
1/2-x,-y,1/2+z
1/2+x,1/2-y,-z
-x,1/2+y,1/2-z
loop_
_atom_site_type_symbol
_atom_site_label
_atom_site_fract_x
_atom_site_fract_y
_atom_site_fract_z
Si Si1 0.938019 0.672565 0.472430
Si Si2 0.839650 0.760690 0.757560
Si Si3 0.651931 0.756089 0.830682
Si Si4 0.683153 0.936554 0.874809
Si Si5 0.077075 0.565109 0.596993
O O1 0.875141 0.689070 0.628102
O O2 0.896843 0.689715 0.286294
O O3 0.000000 0.750000 0.491857
O O4 0.995207 0.592904 0.503910
O O5 0.743926 0.752169 0.766153
O O6 0.873448 0.852207 0.678373
O O7 0.863690 0.747030 0.961428
O O8 0.634375 0.857380 0.795774
O O9 0.732207 0.000000 0.750000
O O10 0.750000 0.896333 0.000000
O O11 0.628820 0.005772 0.969263
O O12 0.055741 0.500000 0.750000
#
# Coordination Sequence:
#
# PCOD9334349 Si02
#       5
#     8   8   8   8   8
#     4  10  23  36  55  87 124 161 196 242 299 372
#     4  10  20  38  60  88 117 157 203 253 293 358
#     4  11  20  37  60  87 115 159 207 247 298 349
#     4  12  21  33  58  91 128 158 200 253 308 372
#     4  11  21  40  57  90 128 161 197 245 323 367
#
# _framework density 20.021761000000001
#
# number of rings (size 3 to 8) (size 9 to 14) (size 15 to 20)
#    0.000    1.200    4.000    4.800    0.000    2.400 
#    3.600    0.000    0.000    0.000   10.400    0.000 
#    0.000    0.000    0.000    0.000    0.000    0.000 
#
# Total GULP energy -111427.482410 kJ/mol
# GULP energy per Si atom -5571.374121 kJ/mol
# Density = 1.997619 g / cm^3
# Si number density = 20.021761 Si / 1000 Ang^3
#
#
#
# Elastic Constant Matrix: (Units=GPa)
#
#
# Indices 1 2 3 4 5 6 
#
# 1 75.7585 33.3327 39.0804 0.0000 0.0000 0.0000
# 2 33.3327 42.6393 9.3857 0.0000 0.0000 0.0000
# 3 39.0804 9.3857 60.4270 0.0000 0.0000 0.0000
# 4 0.0000 0.0000 0.0000 31.4809 0.0000 0.0000
# 5 0.0000 0.0000 0.0000 0.0000 31.4359 0.0000
# 6 0.0000 0.0000 0.0000 0.0000 0.0000 32.6959
#
#
#
# Elastic Compliance Matrix: (Units=1/GPa)
#
#
# Indices 1 2 3 4 5 6 
#
# 1 0.030830 -0.020410 -0.016769 0.000000 0.000000 0.000000
# 2 -0.020410 0.037794 0.007330 0.000000 0.000000 0.000000
# 3 -0.016769 0.007330 0.026256 0.000000 0.000000 0.000000
# 4 0.000000 0.000000 0.000000 0.031765 0.000000 0.000000
# 5 0.000000 0.000000 0.000000 0.000000 0.031811 0.000000
# 6 0.000000 0.000000 0.000000 0.000000 0.000000 0.030585
#
#
# Mechanical properties :
#
#
# Convention : Reuss Voigt Hill
#
# Bulk Modulus (GPa) = 28.42408 38.04694 33.23551
# Shear Modulus (GPa) = 19.19628 25.59094 22.39361
#
# Velocity S-wave (km/s) = 3.09976 3.57901 3.34797
# Velocity P-wave (km/s) = 5.19988 6.01025 5.61969
#
# Compressibility (1/GPa) = 0.03518144
#
# Stress axis : x y z
#
# Youngs Moduli (GPa) = 32.43563 26.45899 38.08712
#
# Poissons Ratio (x) = 0.54003 0.63868
# Poissons Ratio (y) = 0.66201 -0.27916
# Poissons Ratio (z) = 0.54391 -0.19393
#
# Static dielectric constant tensor:
#      x y z
#    x 1.733860 0.000000 0.000000 
#    y 0.000000 1.717790 0.000000 
#    z 0.000000 0.000000 1.974530 
# 
# From -- ./inp_files/12343.got.cif
#   From: 2010.05.17/outbox.cif.g08.bks.cpg/sg24_7_cif.got.tgz:12343.got - 2010.06.04 00:33:39.
