data_PCOD9334945
_publ_section_title
;
Structure prediction by ZEFSAII (Michael W. Deem and Ramdas Pophale) SiO2 
 PCOD9334945
Probable space group: I 21 21 21
;
_chemical_formula_sum "Si O2"
_cell_formula_units_Z 60
_cell_length_a 18.025336
_cell_length_b 11.675764
_cell_length_c 13.485811
_cell_angle_alpha 90.000000
_cell_angle_beta 90.000000
_cell_angle_gamma 90.000000
_cell_volume 2838.217973
_symmetry_space_group_name_H-M "I 21 21 21"
_symmetry_group_IT_number 24
_symmetry_cell_setting 'orthorhombic'
loop_
_space_group_symop_operation_xyz
x,y,z
-x,1/2-y,z
x,-y,1/2-z
1/2-x,y,-z
1/2+x,1/2+y,1/2+z
1/2-x,-y,1/2+z
1/2+x,1/2-y,-z
-x,1/2+y,1/2-z
loop_
_atom_site_type_symbol
_atom_site_label
_atom_site_fract_x
_atom_site_fract_y
_atom_site_fract_z
Si Si1 0.727028 0.517387 0.612938
Si Si2 0.718749 0.760337 0.610982
Si Si3 0.896980 0.342394 0.378791
Si Si4 0.194379 0.623323 0.781807
Si Si5 0.416080 0.795113 0.112749
Si Si6 0.363859 0.000000 0.250000
Si Si7 0.312888 0.494510 0.582963
Si Si8 0.441224 0.591847 0.835969
O O1 0.750000 0.495693 0.500000
O O2 0.683350 0.636658 0.628210
O O3 0.677907 0.410332 0.647926
O O4 0.804444 0.541040 0.667833
O O5 0.750000 0.749207 0.500000
O O6 0.782358 0.799212 0.688317
O O7 0.670539 0.874499 0.610471
O O8 0.896318 0.325813 0.498635
O O9 0.912711 0.222382 0.322663
O O10 0.971803 0.411813 0.355915
O O11 0.160596 0.500000 0.750000
O O12 0.141612 0.698248 0.850443
O O13 0.270549 0.583301 0.835703
O O14 0.500000 0.750000 0.114212
O O15 0.407736 0.900998 0.190969
O O16 0.250000 0.497267 0.500000
O O17 0.393044 0.441772 0.566789
O O18 0.423895 0.500000 0.750000
#
# Coordination Sequence:
#
# PCOD9334945 Si02
#       8
#     8   8   8   8   8   4   8   8
#     4  11  23  43  71 103 144 178 243 298 369 440
#     4   9  19  38  61  96 136 171 223 290 342 418
#     4  11  26  46  70 102 139 195 236 308 374 437
#     4  10  21  39  66 102 130 186 235 285 362 423
#     4  12  25  46  68 103 151 187 245 301 365 456
#     4  12  26  42  74 110 140 194 248 312 372 450
#     4  10  21  38  67  95 131 179 236 290 351 424
#     4  11  24  45  66  99 140 180 243 301 372 440
#
# _framework density 21.140025000000001
#
# number of rings (size 3 to 8) (size 9 to 14) (size 15 to 20)
#    0.000    1.333    4.000    2.000    3.733    1.600 
#    4.800    0.000    0.000    0.000    0.000    0.000 
#    0.000    0.000    0.000    0.000    0.000    0.000 
#
# Total GULP energy -167204.139375 kJ/mol
# GULP energy per Si atom -5573.471313 kJ/mol
# Density = 2.109191 g / cm^3
# Si number density = 21.140025 Si / 1000 Ang^3
#
#
#
# Elastic Constant Matrix: (Units=GPa)
#
#
# Indices 1 2 3 4 5 6 
#
# 1 62.2764 43.1809 7.2951 0.0000 0.0000 0.0000
# 2 43.1809 115.0864 37.9152 0.0000 0.0000 0.0000
# 3 7.2951 37.9152 107.7557 0.0000 0.0000 0.0000
# 4 0.0000 0.0000 0.0000 29.3935 0.0000 0.0000
# 5 0.0000 0.0000 0.0000 0.0000 28.8878 0.0000
# 6 0.0000 0.0000 0.0000 0.0000 0.0000 30.4274
#
#
#
# Elastic Compliance Matrix: (Units=1/GPa)
#
#
# Indices 1 2 3 4 5 6 
#
# 1 0.021944 -0.008759 0.001597 0.000000 0.000000 0.000000
# 2 -0.008759 0.013325 -0.004096 0.000000 0.000000 0.000000
# 3 0.001597 -0.004096 0.010613 0.000000 0.000000 0.000000
# 4 0.000000 0.000000 0.000000 0.034021 0.000000 0.000000
# 5 0.000000 0.000000 0.000000 0.000000 0.034617 0.000000
# 6 0.000000 0.000000 0.000000 0.000000 0.000000 0.032865
#
#
# Mechanical properties :
#
#
# Convention : Reuss Voigt Hill
#
# Bulk Modulus (GPa) = 42.79857 51.32231 47.06044
# Shear Modulus (GPa) = 28.13880 30.85689 29.49785
#
# Velocity S-wave (km/s) = 3.65234 3.82467 3.73950
# Velocity P-wave (km/s) = 6.17052 6.62074 6.39959
#
# Compressibility (1/GPa) = 0.02336526
#
# Stress axis : x y z
#
# Youngs Moduli (GPa) = 45.57049 75.04697 94.22190
#
# Poissons Ratio (x) = 0.65737 -0.15043
# Poissons Ratio (y) = 0.39917 0.38589
# Poissons Ratio (z) = -0.07275 0.30736
#
# Static dielectric constant tensor:
#      x y z
#    x 1.732990 0.000000 0.000000 
#    y 0.000000 1.830500 0.000000 
#    z 0.000000 0.000000 1.852780 
# 
# From -- ./inp_files/27193.got.cif
#   From: 2010.05.17/outbox.cif.g08.bks.cpg/sg24_14_cif.got.tgz:27193.got - 2010.06.04 00:33:39.
