data_PCOD9334989
_publ_section_title
;
Structure prediction by ZEFSAII (Michael W. Deem and Ramdas Pophale) SiO2 
 PCOD9334989
Probable space group: I 21 21 21
;
_chemical_formula_sum "Si O2"
_cell_formula_units_Z 28
_cell_length_a 5.031093
_cell_length_b 13.759794
_cell_length_c 17.778195
_cell_angle_alpha 90.000000
_cell_angle_beta 90.000000
_cell_angle_gamma 90.000000
_cell_volume 1230.727608
_symmetry_space_group_name_H-M "I 21 21 21"
_symmetry_group_IT_number 24
_symmetry_cell_setting 'orthorhombic'
loop_
_space_group_symop_operation_xyz
x,y,z
-x,1/2-y,z
x,-y,1/2-z
1/2-x,y,-z
1/2+x,1/2+y,1/2+z
1/2-x,-y,1/2+z
1/2+x,1/2-y,-z
-x,1/2+y,1/2-z
loop_
_atom_site_type_symbol
_atom_site_label
_atom_site_fract_x
_atom_site_fract_y
_atom_site_fract_z
Si Si1 0.760067 0.687152 0.607691
Si Si2 0.191078 0.425018 0.320904
Si Si3 0.802250 0.465580 0.583037
Si Si4 0.000000 0.750000 0.753948
O O1 0.500000 0.750000 0.601374
O O2 0.728430 0.579257 0.579782
O O3 0.836804 0.681831 0.696024
O O4 0.000000 0.750000 0.572679
O O5 0.196319 0.500000 0.250000
O O6 0.398723 0.460071 0.385327
O O7 0.302852 0.320195 0.297381
O O8 0.898963 0.420153 0.356351
O O9 0.750000 0.423563 0.500000
#
# Coordination Sequence:
#
# PCOD9334989 Si02
#       4
#     8   8   8   4
#     4  10  21  39  64 102 135 172 232 286 360 406
#     4  12  24  44  73 101 138 182 243 289 345 418
#     4  12  26  44  66 102 146 185 224 290 365 422
#     4  10  24  40  72 102 130 174 242 296 332 400
#
# _framework density 22.750767
#
# number of rings (size 3 to 8) (size 9 to 14) (size 15 to 20)
#    0.857    0.000    2.857    5.143    4.000    1.143 
#    0.000    2.857    0.000    0.000    0.000    0.000 
#    0.000    0.000    0.000    0.000    0.000    0.000 
#
# Total GULP energy -78334.426708 kJ/mol
# GULP energy per Si atom -5595.316193 kJ/mol
# Density = 2.269898 g / cm^3
# Si number density = 22.750767 Si / 1000 Ang^3
#
#
#
# Elastic Constant Matrix: (Units=GPa)
#
#
# Indices 1 2 3 4 5 6 
#
# 1 96.8536 -14.2127 0.2292 0.0000 0.0000 0.0000
# 2 -14.2127 66.1432 9.0856 0.0000 0.0000 0.0000
# 3 0.2292 9.0856 111.6001 0.0000 0.0000 0.0000
# 4 0.0000 0.0000 0.0000 10.2870 0.0000 0.0000
# 5 0.0000 0.0000 0.0000 0.0000 2.3457 0.0000
# 6 0.0000 0.0000 0.0000 0.0000 0.0000 37.2727
#
#
#
# Elastic Compliance Matrix: (Units=1/GPa)
#
#
# Indices 1 2 3 4 5 6 
#
# 1 0.010666 0.002321 -0.000211 0.000000 0.000000 0.000000
# 2 0.002321 0.015795 -0.001291 0.000000 0.000000 0.000000
# 3 -0.000211 -0.001291 0.009066 0.000000 0.000000 0.000000
# 4 0.000000 0.000000 0.000000 0.097210 0.000000 0.000000
# 5 0.000000 0.000000 0.000000 0.000000 0.426315 0.000000
# 6 0.000000 0.000000 0.000000 0.000000 0.000000 0.026829
#
#
# Mechanical properties :
#
#
# Convention : Reuss Voigt Hill
#
# Bulk Modulus (GPa) = 26.90680 29.42238 28.16459
# Shear Modulus (GPa) = 8.38038 28.61405 18.49722
#
# Velocity S-wave (km/s) = 1.92134 3.55028 2.85447
# Velocity P-wave (km/s) = 4.09567 5.45587 4.82395
#
# Compressibility (1/GPa) = 0.03716532
#
# Stress axis : x y z
#
# Youngs Moduli (GPa) = 93.75654 63.31246 110.30135
#
# Poissons Ratio (x) = -0.14694 0.02326
# Poissons Ratio (y) = -0.21759 0.14236
# Poissons Ratio (z) = 0.01977 0.08171
#
# Static dielectric constant tensor:
#      x y z
#    x 1.820320 0.000000 0.000000 
#    y 0.000000 1.783160 0.000000 
#    z 0.000000 0.000000 1.958780 
# 
# From -- ./inp_files/31849.got.cif
#   From: 2010.05.17/outbox.cif.g08.bks.cpg/sg24_16_cif.got.tgz:31849.got - 2010.06.04 00:33:39.
