data_PCOD9334616
_publ_section_title
;
Structure prediction by ZEFSAII (Michael W. Deem and Ramdas Pophale) SiO2 
 PCOD9334616
Probable space group: I 21 21 21
;
_chemical_formula_sum "Si O2"
_cell_formula_units_Z 40
_cell_length_a 5.691209
_cell_length_b 11.091565
_cell_length_c 26.275211
_cell_angle_alpha 90.000000
_cell_angle_beta 90.000000
_cell_angle_gamma 90.000000
_cell_volume 1658.607312
_symmetry_space_group_name_H-M "I 21 21 21"
_symmetry_group_IT_number 24
_symmetry_cell_setting 'orthorhombic'
loop_
_space_group_symop_operation_xyz
x,y,z
-x,1/2-y,z
x,-y,1/2-z
1/2-x,y,-z
1/2+x,1/2+y,1/2+z
1/2-x,-y,1/2+z
1/2+x,1/2-y,-z
-x,1/2+y,1/2-z
loop_
_atom_site_type_symbol
_atom_site_label
_atom_site_fract_x
_atom_site_fract_y
_atom_site_fract_z
Si Si1 0.750176 0.791727 0.441974
Si Si2 0.807222 0.439780 0.326028
Si Si3 0.302225 0.535021 0.899243
Si Si4 0.903144 0.088533 0.797570
Si Si5 0.500000 0.750000 0.746720
Si Si6 0.000000 0.750000 0.877295
O O1 0.500000 0.750000 0.418349
O O2 0.750000 0.743324 0.500000
O O3 0.000000 0.750000 0.418178
O O4 0.759003 0.936341 0.441844
O O5 0.682963 0.563507 0.309602
O O6 0.951908 0.365683 0.283853
O O7 0.610214 0.343593 0.338496
O O8 0.932531 0.448687 0.380861
O O9 0.209760 0.464844 0.848748
O O10 0.180371 0.664103 0.907335
O O11 0.737605 0.203155 0.782962
O O12 0.875674 0.000000 0.750000
#
# Coordination Sequence:
#
# PCOD9334616 Si02
#       6
#     8   8   8   8   4   4
#     4  10  25  50  78 109 148 189 235 304 379 445
#     4  11  22  43  64  92 132 189 238 292 363 421
#     4  11  23  43  72 101 135 185 244 293 360 442
#     4  11  25  40  59  94 134 187 237 291 348 421
#     4  12  22  46  60  85 142 186 239 298 356 422
#     4  10  20  40  70  95 134 182 229 294 370 428
#
# _framework density 24.116617999999999
#
# number of rings (size 3 to 8) (size 9 to 14) (size 15 to 20)
#    0.000    1.200    4.000    1.200    9.800    0.000 
#    3.600    0.000    4.400    0.000    0.000    0.000 
#    0.000    0.000    0.000    0.000    0.000    0.000 
#
# Total GULP energy -111341.891696 kJ/mol
# GULP energy per Si atom -5567.094585 kJ/mol
# Density = 2.406173 g / cm^3
# Si number density = 24.116618 Si / 1000 Ang^3
#
#
#
# Elastic Constant Matrix: (Units=GPa)
#
#
# Indices 1 2 3 4 5 6 
#
# 1 139.9583 63.6336 6.2630 0.0000 0.0000 0.0000
# 2 63.6336 160.0862 4.5630 0.0000 0.0000 0.0000
# 3 6.2630 4.5630 32.0546 0.0000 0.0000 0.0000
# 4 0.0000 0.0000 0.0000 4.2859 0.0000 0.0000
# 5 0.0000 0.0000 0.0000 0.0000 1.2092 0.0000
# 6 0.0000 0.0000 0.0000 0.0000 0.0000 46.1946
#
#
#
# Elastic Compliance Matrix: (Units=1/GPa)
#
#
# Indices 1 2 3 4 5 6 
#
# 1 0.008769 -0.003451 -0.001222 0.000000 0.000000 0.000000
# 2 -0.003451 0.007630 -0.000412 0.000000 0.000000 0.000000
# 3 -0.001222 -0.000412 0.031494 0.000000 0.000000 0.000000
# 4 0.000000 0.000000 0.000000 0.233325 0.000000 0.000000
# 5 0.000000 0.000000 0.000000 0.000000 0.826981 0.000000
# 6 0.000000 0.000000 0.000000 0.000000 0.000000 0.021648
#
#
# Mechanical properties :
#
#
# Convention : Reuss Voigt Hill
#
# Bulk Modulus (GPa) = 26.50868 53.44649 39.97759
# Shear Modulus (GPa) = 4.33806 27.51391 15.92598
#
# Velocity S-wave (km/s) = 1.34264 3.38134 2.57256
# Velocity P-wave (km/s) = 3.66324 6.12000 5.04350
#
# Compressibility (1/GPa) = 0.03772349
#
# Stress axis : x y z
#
# Youngs Moduli (GPa) = 114.04419 131.06190 31.75191
#
# Poissons Ratio (x) = 0.45225 0.03880
# Poissons Ratio (y) = 0.39352 0.01308
# Poissons Ratio (z) = 0.13937 0.05399
#
# Static dielectric constant tensor:
#      x y z
#    x 2.235870 0.000000 0.000000 
#    y 0.000000 2.031830 0.000000 
#    z 0.000000 0.000000 1.950370 
# 
# From -- ./inp_files/37835.got.cif
#   From: 2010.05.17/outbox.cif.g08.bks.cpg/sg24_19_cif.got.tgz:37835.got - 2010.06.04 00:33:39.
