data_PCOD9334230
_publ_section_title
;
Structure prediction by ZEFSAII (Michael W. Deem and Ramdas Pophale) SiO2 
 PCOD9334230
Probable space group: I 21 21 21
;
_chemical_formula_sum "Si O2"
_cell_formula_units_Z 28
_cell_length_a 17.323235
_cell_length_b 9.202464
_cell_length_c 7.110023
_cell_angle_alpha 90.000000
_cell_angle_beta 90.000000
_cell_angle_gamma 90.000000
_cell_volume 1133.454601
_symmetry_space_group_name_H-M "I 21 21 21"
_symmetry_group_IT_number 24
_symmetry_cell_setting 'orthorhombic'
loop_
_space_group_symop_operation_xyz
x,y,z
-x,1/2-y,z
x,-y,1/2-z
1/2-x,y,-z
1/2+x,1/2+y,1/2+z
1/2-x,-y,1/2+z
1/2+x,1/2-y,-z
-x,1/2+y,1/2-z
loop_
_atom_site_type_symbol
_atom_site_label
_atom_site_fract_x
_atom_site_fract_y
_atom_site_fract_z
Si Si1 0.181235 0.331037 0.112688
Si Si2 0.468009 0.412131 0.075004
Si Si3 0.750000 0.724007 0.000000
Si Si4 0.635821 0.515643 0.526371
O O1 0.209986 0.305380 0.325132
O O2 0.167690 0.177836 0.001607
O O3 0.250000 0.407098 0.000000
O O4 0.097318 0.400627 0.083589
O O5 0.500000 0.250000 0.120218
O O6 0.433341 0.500000 0.250000
O O7 0.545878 0.495779 0.018972
O O8 0.815905 0.610978 0.928454
O O9 0.644432 0.500000 0.750000
#
# Coordination Sequence:
#
# PCOD9334230 Si02
#       4
#     8   8   4   8
#     4  10  21  39  65 103 144 185 248 303 372 442
#     4  10  23  42  67 104 154 194 244 313 381 448
#     4  10  20  36  72 104 142 186 252 316 360 434
#     4   9  19  36  64 102 141 186 246 309 365 440
#
# _framework density 24.703241999999999
#
# number of rings (size 3 to 8) (size 9 to 14) (size 15 to 20)
#    0.000    2.286    1.429    0.000    8.000    0.000 
#    5.143    2.857    0.000    0.000    0.000    0.000 
#    0.000    0.000    0.000    0.000    0.000    0.000 
#
# Total GULP energy -78252.601827 kJ/mol
# GULP energy per Si atom -5589.471559 kJ/mol
# Density = 2.464702 g / cm^3
# Si number density = 24.703242 Si / 1000 Ang^3
#
#
#
# Elastic Constant Matrix: (Units=GPa)
#
#
# Indices 1 2 3 4 5 6 
#
# 1 213.5233 50.7388 61.6956 0.0000 0.0000 0.0000
# 2 50.7388 81.5388 65.0644 0.0000 0.0000 0.0000
# 3 61.6956 65.0644 141.5951 0.0000 0.0000 0.0000
# 4 0.0000 0.0000 0.0000 33.0344 0.0000 0.0000
# 5 0.0000 0.0000 0.0000 0.0000 50.4590 0.0000
# 6 0.0000 0.0000 0.0000 0.0000 0.0000 -17.0176
#
#
#
# Elastic Compliance Matrix: (Units=1/GPa)
#
#
# Indices 1 2 3 4 5 6 
#
# 1 0.005652 -0.002450 -0.001337 0.000000 0.000000 0.000000
# 2 -0.002450 0.020427 -0.008319 0.000000 0.000000 0.000000
# 3 -0.001337 -0.008319 0.011467 0.000000 0.000000 0.000000
# 4 0.000000 0.000000 0.000000 0.030271 0.000000 0.000000
# 5 0.000000 0.000000 0.000000 0.000000 0.019818 0.000000
# 6 0.000000 0.000000 0.000000 0.000000 0.000000 -0.058763
#
#
# Mechanical properties :
#
#
# Convention : Reuss Voigt Hill
#
# Bulk Modulus (GPa) = 74.99281 87.96163 81.47722
# Shear Modulus (GPa) = 86.91262 30.57237 58.74249
#
# Velocity S-wave (km/s) = 5.93793 3.52175 4.88169
# Velocity P-wave (km/s) = 8.79974 7.22645 8.05162
#
# Compressibility (1/GPa) = 0.01333461
#
# Stress axis : x y z
#
# Youngs Moduli (GPa) = 176.93458 48.95528 87.20448
#
# Poissons Ratio (x) = 0.11996 0.11656
# Poissons Ratio (y) = 0.43355 0.72543
# Poissons Ratio (z) = 0.23650 0.40724
#
# Static dielectric constant tensor:
#      x y z
#    x 1.954140 0.000000 0.000000 
#    y 0.000000 2.124100 0.000000 
#    z 0.000000 0.000000 1.930000 
# 
# From -- ./inp_files/10137.got.cif
#   From: 2010.05.17/outbox.cif.g08.bks.cpg/sg24_6_cif.got.tgz:10137.got - 2010.06.04 00:33:39.
