data_PCOD9334549
_publ_section_title
;
Structure prediction by ZEFSAII (Michael W. Deem and Ramdas Pophale) SiO2 
 PCOD9334549
Probable space group: I 21 21 21
;
_chemical_formula_sum "Si O2"
_cell_formula_units_Z 52
_cell_length_a 14.726486
_cell_length_b 7.820426
_cell_length_c 17.577527
_cell_angle_alpha 90.000000
_cell_angle_beta 90.000000
_cell_angle_gamma 90.000000
_cell_volume 2024.357978
_symmetry_space_group_name_H-M "I 21 21 21"
_symmetry_group_IT_number 24
_symmetry_cell_setting 'orthorhombic'
loop_
_space_group_symop_operation_xyz
x,y,z
-x,1/2-y,z
x,-y,1/2-z
1/2-x,y,-z
1/2+x,1/2+y,1/2+z
1/2-x,-y,1/2+z
1/2+x,1/2-y,-z
-x,1/2+y,1/2-z
loop_
_atom_site_type_symbol
_atom_site_label
_atom_site_fract_x
_atom_site_fract_y
_atom_site_fract_z
Si Si1 0.750000 0.686581 0.500000
Si Si2 0.624688 0.896564 0.604797
Si Si3 0.283821 0.337333 0.195574
Si Si4 0.048916 0.065202 0.334962
Si Si5 0.462640 0.558440 0.338225
Si Si6 0.787402 0.266904 0.414232
Si Si7 0.345996 0.993781 0.140054
O O1 0.797396 0.577115 0.566290
O O2 0.665935 0.795805 0.533612
O O3 0.520869 0.934747 0.623848
O O4 0.669490 0.083624 0.599919
O O5 0.679953 0.805038 0.672564
O O6 0.275654 0.500000 0.250000
O O7 0.358502 0.422158 0.136009
O O8 0.327771 0.145791 0.201666
O O9 0.133628 0.099545 0.390463
O O10 0.000000 0.250000 0.326399
O O11 0.070469 0.000000 0.250000
O O12 0.500000 0.750000 0.343812
O O13 0.459379 0.500000 0.250000
O O14 0.547422 0.456720 0.372671
O O15 0.750000 0.266921 0.500000
O O16 0.706690 0.314965 0.356102
#
# Coordination Sequence:
#
# PCOD9334549 Si02
#       7
#     4   8   8   8   8   8   8
#     4  10  20  40  62  86 128 170 222 254 328 384
#     4  10  21  41  64  89 124 174 215 265 327 396
#     4   9  19  37  60  89 125 163 209 255 316 394
#     4  10  24  44  68  99 133 175 224 275 340 399
#     4   9  19  36  56  86 125 157 203 252 315 383
#     4  11  23  43  62  93 133 167 217 275 332 395
#     4  10  21  37  59  89 122 165 211 266 320 377
#
# _framework density 25.687158
#
# number of rings (size 3 to 8) (size 9 to 14) (size 15 to 20)
#    0.000    2.154    1.538    0.462    0.000    9.231 
#   11.077    0.000    0.000    0.000    0.000    0.000 
#    0.000    0.000    0.000    0.000    0.000    0.000 
#
# Total GULP energy -144965.962039 kJ/mol
# GULP energy per Si atom -5575.613925 kJ/mol
# Density = 2.562869 g / cm^3
# Si number density = 25.687158 Si / 1000 Ang^3
#
#
#
# Elastic Constant Matrix: (Units=GPa)
#
#
# Indices 1 2 3 4 5 6 
#
# 1 131.6640 4.1374 20.6690 0.0000 0.0000 0.0000
# 2 4.1374 119.5506 12.9006 0.0000 0.0000 0.0000
# 3 20.6690 12.9006 95.5571 0.0000 0.0000 0.0000
# 4 0.0000 0.0000 0.0000 21.6702 0.0000 0.0000
# 5 0.0000 0.0000 0.0000 0.0000 30.2011 0.0000
# 6 0.0000 0.0000 0.0000 0.0000 0.0000 26.6745
#
#
#
# Elastic Compliance Matrix: (Units=1/GPa)
#
#
# Indices 1 2 3 4 5 6 
#
# 1 0.007863 -0.000090 -0.001689 0.000000 0.000000 0.000000
# 2 -0.000090 0.008489 -0.001127 0.000000 0.000000 0.000000
# 3 -0.001689 -0.001127 0.010982 0.000000 0.000000 0.000000
# 4 0.000000 0.000000 0.000000 0.046146 0.000000 0.000000
# 5 0.000000 0.000000 0.000000 0.000000 0.033111 0.000000
# 6 0.000000 0.000000 0.000000 0.000000 0.000000 0.037489
#
#
# Mechanical properties :
#
#
# Convention : Reuss Voigt Hill
#
# Bulk Modulus (GPa) = 46.45915 46.90951 46.68433
# Shear Modulus (GPa) = 31.83365 36.31347 34.07356
#
# Velocity S-wave (km/s) = 3.52416 3.76398 3.64604
# Velocity P-wave (km/s) = 5.88943 6.09848 5.99487
#
# Compressibility (1/GPa) = 0.02152429
#
# Stress axis : x y z
#
# Youngs Moduli (GPa) = 127.17795 117.79472 91.05558
#
# Poissons Ratio (x) = 0.01059 0.15376
# Poissons Ratio (y) = 0.01143 0.10259
# Poissons Ratio (z) = 0.21476 0.13271
#
# Static dielectric constant tensor:
#      x y z
#    x 2.077300 0.000000 0.000000 
#    y 0.000000 2.103080 0.000000 
#    z 0.000000 0.000000 2.145140 
# 
# From -- ./inp_files/33721.got.cif
#   From: 2010.05.17/outbox.cif.g08.bks.cpg/sg24_17_cif.got.tgz:33721.got - 2010.06.04 00:33:39.
