data_PCOD9334861
_publ_section_title
;
Structure prediction by ZEFSAII (Michael W. Deem and Ramdas Pophale) SiO2 
 PCOD9334861
Probable space group: I 21 21 21
;
_chemical_formula_sum "Si O2"
_cell_formula_units_Z 64
_cell_length_a 14.615683
_cell_length_b 9.204420
_cell_length_c 22.442426
_cell_angle_alpha 90.000000
_cell_angle_beta 90.000000
_cell_angle_gamma 90.000000
_cell_volume 3019.154545
_symmetry_space_group_name_H-M "I 21 21 21"
_symmetry_group_IT_number 24
_symmetry_cell_setting 'orthorhombic'
loop_
_space_group_symop_operation_xyz
x,y,z
-x,1/2-y,z
x,-y,1/2-z
1/2-x,y,-z
1/2+x,1/2+y,1/2+z
1/2-x,-y,1/2+z
1/2+x,1/2-y,-z
-x,1/2+y,1/2-z
loop_
_atom_site_type_symbol
_atom_site_label
_atom_site_fract_x
_atom_site_fract_y
_atom_site_fract_z
Si Si1 0.351189 0.917546 0.310410
Si Si2 0.645764 0.505105 0.813354
Si Si3 0.525812 0.421055 0.400610
Si Si4 0.386017 0.577790 0.312876
Si Si5 0.593346 0.304009 0.901257
Si Si6 0.894613 0.761731 0.123488
Si Si7 0.354817 0.048187 0.516909
Si Si8 0.668203 0.043437 0.819640
O O1 0.391086 0.754406 0.311329
O O2 0.374814 0.000000 0.250000
O O3 0.240920 0.918596 0.313951
O O4 0.389082 0.021526 0.361566
O O5 0.602206 0.500000 0.750000
O O6 0.573930 0.441637 0.859035
O O7 0.666933 0.668548 0.830757
O O8 0.500000 0.250000 0.396348
O O9 0.442999 0.510830 0.368535
O O10 0.565535 0.453486 0.466773
O O11 0.414328 0.500000 0.250000
O O12 0.278183 0.547952 0.319284
O O13 0.500000 0.250000 0.929213
O O14 0.651029 0.388648 0.951205
O O15 0.631251 0.188472 0.853192
O O16 0.881647 0.680225 0.061150
O O17 0.000000 0.750000 0.141559
O O18 0.862579 0.922700 0.133053
O O19 0.250000 0.080157 0.500000
O O20 0.641363 0.000000 0.750000
#
# Coordination Sequence:
#
# PCOD9334861 Si02
#       8
#     8   8   8   8   8   8   8   8
#     4  11  23  43  70 102 147 188 234 295 363 440
#     4  10  21  37  65  94 132 187 225 268 359 431
#     4  12  26  44  75 103 137 188 245 295 366 427
#     4  11  25  43  69 112 154 186 237 302 368 446
#     4  11  23  43  66  98 140 178 235 301 352 421
#     4  11  24  43  66  97 140 179 239 305 353 427
#     4  11  27  50  72  93 133 191 252 294 355 431
#     4  11  24  41  71 111 150 184 230 296 376 439
#
# _framework density 21.197987000000001
#
# number of rings (size 3 to 8) (size 9 to 14) (size 15 to 20)
#    0.000    1.000    1.250    5.625    8.750    4.000 
#    0.000    0.625    0.000    0.000    0.000    0.000 
#    0.000    0.000    0.000    0.000    0.000    0.000 
#
# Total GULP energy -178197.455928 kJ/mol
# GULP energy per Si atom -5568.670498 kJ/mol
# Density = 2.114974 g / cm^3
# Si number density = 21.197987 Si / 1000 Ang^3
#
#
#
# Elastic Constant Matrix: (Units=GPa)
#
#
# Indices 1 2 3 4 5 6 
#
# 1 85.7329 37.6980 22.9731 0.0000 0.0000 0.0000
# 2 37.6980 144.9381 48.8528 0.0000 0.0000 0.0000
# 3 22.9731 48.8528 112.7351 0.0000 0.0000 0.0000
# 4 0.0000 0.0000 0.0000 28.6922 0.0000 0.0000
# 5 0.0000 0.0000 0.0000 0.0000 27.1091 0.0000
# 6 0.0000 0.0000 0.0000 0.0000 0.0000 33.4372
#
#
#
# Elastic Compliance Matrix: (Units=1/GPa)
#
#
# Indices 1 2 3 4 5 6 
#
# 1 0.013363 -0.002995 -0.001425 0.000000 0.000000 0.000000
# 2 -0.002995 0.008751 -0.003182 0.000000 0.000000 0.000000
# 3 -0.001425 -0.003182 0.010540 0.000000 0.000000 0.000000
# 4 0.000000 0.000000 0.000000 0.034853 0.000000 0.000000
# 5 0.000000 0.000000 0.000000 0.000000 0.036888 0.000000
# 6 0.000000 0.000000 0.000000 0.000000 0.000000 0.029907
#
#
# Mechanical properties :
#
#
# Convention : Reuss Voigt Hill
#
# Bulk Modulus (GPa) = 57.30930 62.49488 59.90209
# Shear Modulus (GPa) = 32.19116 33.43984 32.81550
#
# Velocity S-wave (km/s) = 3.90114 3.97609 3.93879
# Velocity P-wave (km/s) = 6.88374 7.11509 7.00037
#
# Compressibility (1/GPa) = 0.01744917
#
# Stress axis : x y z
#
# Youngs Moduli (GPa) = 74.83287 114.27217 94.88058
#
# Poissons Ratio (x) = 0.34229 0.13522
# Poissons Ratio (y) = 0.22415 0.30189
# Poissons Ratio (z) = 0.10665 0.36359
#
# Static dielectric constant tensor:
#      x y z
#    x 1.773950 0.000000 0.000000 
#    y 0.000000 1.767570 0.000000 
#    z 0.000000 0.000000 1.876670 
# 
# From -- ./inp_files/35856.got.cif
#   From: 2010.05.17/outbox.cif.g08.bks.cpg/sg24_18_cif.got.tgz:35856.got - 2010.06.04 00:33:39.
