data_PCOD9334608
_publ_section_title
;
Structure prediction by ZEFSAII (Michael W. Deem and Ramdas Pophale) SiO2 
 PCOD9334608
Probable space group: I 21 21 21
;
_chemical_formula_sum "Si O2"
_cell_formula_units_Z 28
_cell_length_a 11.451883
_cell_length_b 7.672868
_cell_length_c 12.094605
_cell_angle_alpha 90.000000
_cell_angle_beta 90.000000
_cell_angle_gamma 90.000000
_cell_volume 1062.738266
_symmetry_space_group_name_H-M "I 21 21 21"
_symmetry_group_IT_number 24
_symmetry_cell_setting 'orthorhombic'
loop_
_space_group_symop_operation_xyz
x,y,z
-x,1/2-y,z
x,-y,1/2-z
1/2-x,y,-z
1/2+x,1/2+y,1/2+z
1/2-x,-y,1/2+z
1/2+x,1/2-y,-z
-x,1/2+y,1/2-z
loop_
_atom_site_type_symbol
_atom_site_label
_atom_site_fract_x
_atom_site_fract_y
_atom_site_fract_z
Si Si1 0.545324 0.000000 0.750000
Si Si2 0.771129 0.709774 0.232002
Si Si3 0.100097 0.136402 0.464242
Si Si4 0.865133 0.720800 0.567548
O O1 0.625242 0.167168 0.780009
O O2 0.471844 0.051596 0.640980
O O3 0.774932 0.500000 0.250000
O O4 0.798165 0.738068 0.102864
O O5 0.660189 0.765500 0.304327
O O6 0.000000 0.250000 0.520903
O O7 0.139868 0.985486 0.544308
O O8 0.750000 0.789650 0.500000
O O9 0.000000 0.750000 0.537397
#
# Coordination Sequence:
#
# PCOD9334608 Si02
#       4
#     4   8   8   8
#     4  10  20  40  70 104 132 188 246 280 348 444
#     4  11  22  41  68 100 140 183 232 297 356 409
#     4  10  21  41  71 102 137 189 243 293 348 435
#     4  12  24  44  72 106 141 189 238 295 361 428
#
# _framework density 26.347033
#
# number of rings (size 3 to 8) (size 9 to 14) (size 15 to 20)
#    0.000    1.143    4.286    1.714    0.000    1.143 
#    7.714    1.429    0.000    0.000    0.000    0.000 
#    0.000    0.000    0.000    0.000    0.000    0.000 
#
# Total GULP energy -77951.708103 kJ/mol
# GULP energy per Si atom -5567.979150 kJ/mol
# Density = 2.628707 g / cm^3
# Si number density = 26.347033 Si / 1000 Ang^3
#
#
#
# Elastic Constant Matrix: (Units=GPa)
#
#
# Indices 1 2 3 4 5 6 
#
# 1 157.0009 15.0948 56.3556 0.0000 0.0000 0.0000
# 2 15.0948 53.3961 6.0436 0.0000 0.0000 0.0000
# 3 56.3556 6.0436 118.3349 0.0000 0.0000 0.0000
# 4 0.0000 0.0000 0.0000 23.7572 0.0000 0.0000
# 5 0.0000 0.0000 0.0000 0.0000 -6.3633 0.0000
# 6 0.0000 0.0000 0.0000 0.0000 0.0000 58.0056
#
#
#
# Elastic Compliance Matrix: (Units=1/GPa)
#
#
# Indices 1 2 3 4 5 6 
#
# 1 0.007852 -0.001807 -0.003647 0.000000 0.000000 0.000000
# 2 -0.001807 0.019253 -0.000123 0.000000 0.000000 0.000000
# 3 -0.003647 -0.000123 0.010194 0.000000 0.000000 0.000000
# 4 0.000000 0.000000 0.000000 0.042093 0.000000 0.000000
# 5 0.000000 0.000000 0.000000 0.000000 -0.157151 0.000000
# 6 0.000000 0.000000 0.000000 0.000000 0.000000 0.017240
#
#
# Mechanical properties :
#
#
# Convention : Reuss Voigt Hill
#
# Bulk Modulus (GPa) = 38.24844 53.74664 45.99754
# Shear Modulus (GPa) = -122.99721 31.82909 -45.58406
#
# Velocity S-wave (km/s) = -6.83995 3.47950 -4.16401
# Velocity P-wave (km/s) = 6.91601 6.04867 2.37116
#
# Compressibility (1/GPa) = 0.02614486
#
# Stress axis : x y z
#
# Youngs Moduli (GPa) = 127.35087 51.94080 98.09852
#
# Poissons Ratio (x) = 0.09386 0.35779
# Poissons Ratio (y) = 0.23012 0.01204
# Poissons Ratio (z) = 0.46449 0.00637
#
# Static dielectric constant tensor:
#      x y z
#    x 2.395400 0.000000 0.000000 
#    y 0.000000 2.108770 0.000000 
#    z 0.000000 0.000000 2.109700 
# 
# From -- ./inp_files/25396.got.cif
#   From: 2010.05.17/outbox.cif.g08.bks.cpg/sg24_13_cif.got.tgz:25396.got - 2010.06.04 00:33:39.
