data_PCOD9334402
_publ_section_title
;
Structure prediction by ZEFSAII (Michael W. Deem and Ramdas Pophale) SiO2 
 PCOD9334402
Probable space group: I 21 21 21
;
_chemical_formula_sum "Si O2"
_cell_formula_units_Z 64
_cell_length_a 25.232022
_cell_length_b 8.408993
_cell_length_c 13.933580
_cell_angle_alpha 90.000000
_cell_angle_beta 90.000000
_cell_angle_gamma 90.000000
_cell_volume 2956.369826
_symmetry_space_group_name_H-M "I 21 21 21"
_symmetry_group_IT_number 24
_symmetry_cell_setting 'orthorhombic'
loop_
_space_group_symop_operation_xyz
x,y,z
-x,1/2-y,z
x,-y,1/2-z
1/2-x,y,-z
1/2+x,1/2+y,1/2+z
1/2-x,-y,1/2+z
1/2+x,1/2-y,-z
-x,1/2+y,1/2-z
loop_
_atom_site_type_symbol
_atom_site_label
_atom_site_fract_x
_atom_site_fract_y
_atom_site_fract_z
Si Si1 0.373671 0.647918 0.495346
Si Si2 0.053264 0.351592 0.178437
Si Si3 0.213413 0.166287 0.086474
Si Si4 0.340282 0.595906 0.148405
Si Si5 0.056683 0.813384 0.863706
Si Si6 0.053640 0.829462 0.634019
Si Si7 0.158853 0.687160 0.241148
Si Si8 0.259273 0.803163 0.889856
O O1 0.415908 0.598427 0.578804
O O2 0.343860 0.801942 0.538871
O O3 0.335691 0.515374 0.447419
O O4 0.402461 0.710361 0.401364
O O5 0.040989 0.500000 0.250000
O O6 0.100254 0.252154 0.233006
O O7 0.000000 0.250000 0.160971
O O8 0.204339 0.262171 0.183592
O O9 0.234689 0.994076 0.117399
O O10 0.250000 0.224408 0.000000
O O11 0.344309 0.500000 0.250000
O O12 0.393848 0.696079 0.125568
O O13 0.290709 0.716813 0.159221
O O14 0.051225 0.830898 0.748573
O O15 0.000000 0.750000 0.900161
O O16 0.063971 0.992218 0.901626
O O17 0.000000 0.750000 0.596966
O O18 0.154150 0.500000 0.250000
O O19 0.183902 0.736957 0.141945
O O20 0.250000 0.770848 0.000000
#
# Coordination Sequence:
#
# PCOD9334402 Si02
#       8
#     8   8   8   8   8   8   8   8
#     4  11  24  43  72 100 145 184 245 304 365 438
#     4  10  24  46  73 106 135 185 243 303 368 425
#     4  10  25  43  64  95 137 181 235 290 362 426
#     4  12  26  45  71 109 143 192 246 295 369 451
#     4  10  22  38  65  97 145 193 233 282 351 424
#     4  10  20  38  64  96 141 187 230 283 343 427
#     4  10  23  44  72  99 137 186 232 301 367 428
#     4  11  27  44  69 101 140 186 240 300 366 438
#
# _framework density 21.64817
#
# number of rings (size 3 to 8) (size 9 to 14) (size 15 to 20)
#    0.000    1.500    1.250    1.875   14.000    2.000 
#    2.250    3.125    0.000    0.000    0.000    0.000 
#    0.000    0.000    0.000    0.000    0.000    0.000 
#
# Total GULP energy -178229.658559 kJ/mol
# GULP energy per Si atom -5569.676830 kJ/mol
# Density = 2.159890 g / cm^3
# Si number density = 21.648170 Si / 1000 Ang^3
#
#
#
# Elastic Constant Matrix: (Units=GPa)
#
#
# Indices 1 2 3 4 5 6 
#
# 1 112.6400 53.3271 25.4904 0.0000 0.0000 0.0000
# 2 53.3271 95.4496 29.0892 0.0000 0.0000 0.0000
# 3 25.4904 29.0892 71.7039 0.0000 0.0000 0.0000
# 4 0.0000 0.0000 0.0000 22.4684 0.0000 0.0000
# 5 0.0000 0.0000 0.0000 0.0000 19.0352 0.0000
# 6 0.0000 0.0000 0.0000 0.0000 0.0000 29.8844
#
#
#
# Elastic Compliance Matrix: (Units=1/GPa)
#
#
# Indices 1 2 3 4 5 6 
#
# 1 0.012272 -0.006306 -0.001804 0.000000 0.000000 0.000000
# 2 -0.006306 0.015196 -0.003923 0.000000 0.000000 0.000000
# 3 -0.001804 -0.003923 0.016179 0.000000 0.000000 0.000000
# 4 0.000000 0.000000 0.000000 0.044507 0.000000 0.000000
# 5 0.000000 0.000000 0.000000 0.000000 0.052534 0.000000
# 6 0.000000 0.000000 0.000000 0.000000 0.000000 0.033462
#
#
# Mechanical properties :
#
#
# Convention : Reuss Voigt Hill
#
# Bulk Modulus (GPa) = 51.07293 55.06742 53.07017
# Shear Modulus (GPa) = 24.42089 25.73672 25.07881
#
# Velocity S-wave (km/s) = 3.36234 3.45173 3.40733
# Velocity P-wave (km/s) = 6.22232 6.43262 6.32834
#
# Compressibility (1/GPa) = 0.01957985
#
# Stress axis : x y z
#
# Youngs Moduli (GPa) = 81.48827 65.80891 61.80851
#
# Poissons Ratio (x) = 0.41501 0.11151
# Poissons Ratio (y) = 0.51389 0.24246
# Poissons Ratio (z) = 0.14702 0.25815
#
# Static dielectric constant tensor:
#      x y z
#    x 1.709140 0.000000 0.000000 
#    y 0.000000 1.879570 0.000000 
#    z 0.000000 0.000000 1.858730 
# 
# From -- ./inp_files/27867.got.cif
#   From: 2010.05.17/outbox.cif.g08.bks.cpg/sg24_14_cif.got.tgz:27867.got - 2010.06.04 00:33:39.
