data_PCOD9334902
_publ_section_title
;
Structure prediction by ZEFSAII (Michael W. Deem and Ramdas Pophale) SiO2 
 PCOD9334902
Probable space group: I 21 21 21
;
_chemical_formula_sum "Si O2"
_cell_formula_units_Z 44
_cell_length_a 23.422326
_cell_length_b 5.037247
_cell_length_c 15.548148
_cell_angle_alpha 90.000000
_cell_angle_beta 90.000000
_cell_angle_gamma 90.000000
_cell_volume 1834.433337
_symmetry_space_group_name_H-M "I 21 21 21"
_symmetry_group_IT_number 24
_symmetry_cell_setting 'orthorhombic'
loop_
_space_group_symop_operation_xyz
x,y,z
-x,1/2-y,z
x,-y,1/2-z
1/2-x,y,-z
1/2+x,1/2+y,1/2+z
1/2-x,-y,1/2+z
1/2+x,1/2-y,-z
-x,1/2+y,1/2-z
loop_
_atom_site_type_symbol
_atom_site_label
_atom_site_fract_x
_atom_site_fract_y
_atom_site_fract_z
Si Si1 0.695455 0.500000 0.750000
Si Si2 0.873136 0.215853 0.393326
Si Si3 0.307179 0.236252 0.191433
Si Si4 0.040272 0.498658 0.567141
Si Si5 0.147734 0.741383 0.495416
Si Si6 0.000000 0.250000 0.312700
Si Si7 0.458484 0.500000 0.250000
O O1 0.655988 0.307177 0.695865
O O2 0.741122 0.647865 0.689242
O O3 0.863448 0.465987 0.458966
O O4 0.941339 0.209414 0.367174
O O5 0.831228 0.974335 0.426272
O O6 0.311665 0.500000 0.250000
O O7 0.336377 0.000000 0.250000
O O8 0.327269 0.247352 0.091887
O O9 0.087898 0.579922 0.501844
O O10 0.071656 0.471213 0.659444
O O11 0.000000 0.750000 0.572654
O O12 0.000000 0.250000 0.551804
O O13 0.992123 0.500000 0.250000
O O14 0.500000 0.750000 0.252885
#
# Coordination Sequence:
#
# PCOD9334902 Si02
#       7
#     4   8   8   8   8   4   4
#     4  10  28  54  79 106 150 201 260 320 398 462
#     4  12  28  47  80 113 156 199 254 320 389 464
#     4  10  25  50  79 107 149 201 259 323 386 462
#     4  10  21  38  60  91 139 191 237 289 355 430
#     4  12  27  45  72 115 153 196 257 321 381 452
#     4  12  26  50  82 114 154 204 258 306 386 472
#     4   8  16  32  51  78 110 171 232 272 322 402
#
# _framework density 23.985607000000002
#
# number of rings (size 3 to 8) (size 9 to 14) (size 15 to 20)
#    0.545    0.727    0.909    3.273    7.636    0.727 
#    6.545    0.000    0.000    0.000    0.000    0.000 
#    0.000    0.000    0.000    0.000    0.000    0.000 
#
# Total GULP energy -122621.942614 kJ/mol
# GULP energy per Si atom -5573.724664 kJ/mol
# Density = 2.393101 g / cm^3
# Si number density = 23.985607 Si / 1000 Ang^3
#
#
#
# Elastic Constant Matrix: (Units=GPa)
#
#
# Indices 1 2 3 4 5 6 
#
# 1 97.6932 23.1572 41.0645 0.0000 0.0000 0.0000
# 2 23.1572 162.9508 38.8633 0.0000 0.0000 0.0000
# 3 41.0645 38.8633 118.5895 0.0000 0.0000 0.0000
# 4 0.0000 0.0000 0.0000 37.8571 0.0000 0.0000
# 5 0.0000 0.0000 0.0000 0.0000 74.7736 0.0000
# 6 0.0000 0.0000 0.0000 0.0000 0.0000 -42.5823
#
#
#
# Elastic Compliance Matrix: (Units=1/GPa)
#
#
# Indices 1 2 3 4 5 6 
#
# 1 0.012070 -0.000779 -0.003924 0.000000 0.000000 0.000000
# 2 -0.000779 0.006707 -0.001928 0.000000 0.000000 0.000000
# 3 -0.003924 -0.001928 0.010423 0.000000 0.000000 0.000000
# 4 0.000000 0.000000 0.000000 0.026415 0.000000 0.000000
# 5 0.000000 0.000000 0.000000 0.000000 0.013374 0.000000
# 6 0.000000 0.000000 0.000000 0.000000 0.000000 -0.023484
#
#
# Mechanical properties :
#
#
# Convention : Reuss Voigt Hill
#
# Bulk Modulus (GPa) = 62.74588 65.04482 63.89535
# Shear Modulus (GPa) = 78.02474 32.41958 55.22216
#
# Velocity S-wave (km/s) = 5.70968 3.68044 4.80344
# Velocity P-wave (km/s) = 8.34768 6.72592 7.58030
#
# Compressibility (1/GPa) = 0.01593730
#
# Stress axis : x y z
#
# Youngs Moduli (GPa) = 82.84722 149.08767 95.93963
#
# Poissons Ratio (x) = 0.11620 0.37649
# Poissons Ratio (y) = 0.06457 0.18499
# Poissons Ratio (z) = 0.32511 0.28747
#
# Static dielectric constant tensor:
#      x y z
#    x 2.097890 0.000000 0.000000 
#    y 0.000000 1.494250 0.000000 
#    z 0.000000 0.000000 4.472810 
# 
# From -- ./inp_files/27990.got.cif
#   From: 2010.05.17/outbox.cif.g08.bks.cpg/sg24_14_cif.got.tgz:27990.got - 2010.06.04 00:33:39.
