data_PCOD9334770
_publ_section_title
;
Structure prediction by ZEFSAII (Michael W. Deem and Ramdas Pophale) SiO2 
 PCOD9334770
Probable space group: I 21 21 21
;
_chemical_formula_sum "Si O2"
_cell_formula_units_Z 60
_cell_length_a 17.151589
_cell_length_b 6.478710
_cell_length_c 25.931333
_cell_angle_alpha 90.000000
_cell_angle_beta 90.000000
_cell_angle_gamma 90.000000
_cell_volume 2881.494162
_symmetry_space_group_name_H-M "I 21 21 21"
_symmetry_group_IT_number 24
_symmetry_cell_setting 'orthorhombic'
loop_
_space_group_symop_operation_xyz
x,y,z
-x,1/2-y,z
x,-y,1/2-z
1/2-x,y,-z
1/2+x,1/2+y,1/2+z
1/2-x,-y,1/2+z
1/2+x,1/2-y,-z
-x,1/2+y,1/2-z
loop_
_atom_site_type_symbol
_atom_site_label
_atom_site_fract_x
_atom_site_fract_y
_atom_site_fract_z
Si Si1 0.075075 0.885256 0.623526
Si Si2 0.857756 0.984102 0.157059
Si Si3 0.570163 0.374942 0.891653
Si Si4 0.826763 0.006587 0.842291
Si Si5 0.156070 0.776162 0.941095
Si Si6 0.841169 0.287221 0.445138
Si Si7 0.421059 0.822625 0.217035
Si Si8 0.000000 0.750000 0.174177
O O1 0.138939 0.734901 0.650236
O O2 0.000000 0.750000 0.609599
O O3 0.112594 0.017596 0.577552
O O4 0.051844 0.057151 0.665633
O O5 0.765676 0.991299 0.168770
O O6 0.862682 0.867659 0.101232
O O7 0.918054 0.855968 0.194148
O O8 0.885885 0.216469 0.146008
O O9 0.500000 0.250000 0.917203
O O10 0.623774 0.489989 0.932131
O O11 0.531929 0.555807 0.857807
O O12 0.849221 0.895564 0.896624
O O13 0.869360 0.869027 0.799361
O O14 0.248517 0.813528 0.944216
O O15 0.131330 0.713199 0.998686
O O16 0.500000 0.750000 0.245088
O O17 0.379564 0.000000 0.250000
#
# Coordination Sequence:
#
# PCOD9334770 Si02
#       8
#     8   8   8   8   8   8   8   4
#     4  11  21  36  53  76 107 143 180 227 281 338
#     4   9  17  31  52  75 109 144 184 231 274 323
#     4   9  16  27  46  70  95 135 180 224 274 315
#     4  10  21  36  53  79 109 142 179 227 278 332
#     4   9  20  32  48  67  99 142 185 231 277 328
#     4   9  17  32  45  67  99 140 189 234 276 318
#     4  11  23  39  62  85 109 143 178 224 282 342
#     4   8  16  30  50  74 106 136 172 222 266 312
#
# _framework density 20.822528999999999
#
# number of rings (size 3 to 8) (size 9 to 14) (size 15 to 20)
#    0.000    2.400    1.333    1.200    0.000    2.667 
#    0.000    9.333    0.000    0.000    0.000    0.000 
#    4.000    0.000    0.000    0.000    0.000    0.000 
#
# Total GULP energy -167158.122977 kJ/mol
# GULP energy per Si atom -5571.937433 kJ/mol
# Density = 2.077514 g / cm^3
# Si number density = 20.822529 Si / 1000 Ang^3
#
#
#
# Elastic Constant Matrix: (Units=GPa)
#
#
# Indices 1 2 3 4 5 6 
#
# 1 97.7444 43.7490 9.6573 0.0000 0.0000 0.0000
# 2 43.7490 98.7950 17.0406 0.0000 0.0000 0.0000
# 3 9.6573 17.0406 34.0393 0.0000 0.0000 0.0000
# 4 0.0000 0.0000 0.0000 18.2341 0.0000 0.0000
# 5 0.0000 0.0000 0.0000 0.0000 9.2415 0.0000
# 6 0.0000 0.0000 0.0000 0.0000 0.0000 39.0230
#
#
#
# Elastic Compliance Matrix: (Units=1/GPa)
#
#
# Indices 1 2 3 4 5 6 
#
# 1 0.012783 -0.005511 -0.000868 0.000000 0.000000 0.000000
# 2 -0.005511 0.013454 -0.005172 0.000000 0.000000 0.000000
# 3 -0.000868 -0.005172 0.032213 0.000000 0.000000 0.000000
# 4 0.000000 0.000000 0.000000 0.054842 0.000000 0.000000
# 5 0.000000 0.000000 0.000000 0.000000 0.108207 0.000000
# 6 0.000000 0.000000 0.000000 0.000000 0.000000 0.025626
#
#
# Mechanical properties :
#
#
# Convention : Reuss Voigt Hill
#
# Bulk Modulus (GPa) = 28.28917 41.27472 34.78195
# Shear Modulus (GPa) = 17.72981 23.97518 20.85249
#
# Velocity S-wave (km/s) = 2.92117 3.39692 3.16799
# Velocity P-wave (km/s) = 4.99930 5.93722 5.48833
#
# Compressibility (1/GPa) = 0.03534921
#
# Stress axis : x y z
#
# Youngs Moduli (GPa) = 78.22793 74.32471 31.04315
#
# Poissons Ratio (x) = 0.40961 0.02694
# Poissons Ratio (y) = 0.43112 0.16055
# Poissons Ratio (z) = 0.06789 0.38441
#
# Static dielectric constant tensor:
#      x y z
#    x 1.789670 0.000000 0.000000 
#    y 0.000000 1.734910 0.000000 
#    z 0.000000 0.000000 1.775530 
# 
# From -- ./inp_files/37547.got.cif
#   From: 2010.05.17/outbox.cif.g08.bks.cpg/sg24_19_cif.got.tgz:37547.got - 2010.06.04 00:33:39.
