data_PCOD9334906
_publ_section_title
;
Structure prediction by ZEFSAII (Michael W. Deem and Ramdas Pophale) SiO2 
 PCOD9334906
Probable space group: I 21 21 21
;
_chemical_formula_sum "Si O2"
_cell_formula_units_Z 32
_cell_length_a 35.789081
_cell_length_b 5.018026
_cell_length_c 8.547431
_cell_angle_alpha 90.000000
_cell_angle_beta 90.000000
_cell_angle_gamma 90.000000
_cell_volume 1535.037740
_symmetry_space_group_name_H-M "I 21 21 21"
_symmetry_group_IT_number 24
_symmetry_cell_setting 'orthorhombic'
loop_
_space_group_symop_operation_xyz
x,y,z
-x,1/2-y,z
x,-y,1/2-z
1/2-x,y,-z
1/2+x,1/2+y,1/2+z
1/2-x,-y,1/2+z
1/2+x,1/2-y,-z
-x,1/2+y,1/2-z
loop_
_atom_site_type_symbol
_atom_site_label
_atom_site_fract_x
_atom_site_fract_y
_atom_site_fract_z
Si Si1 0.606460 0.905915 0.424649
Si Si2 0.140078 0.097846 0.421122
Si Si3 0.723695 0.737081 0.855215
Si Si4 0.026717 0.501963 0.433265
O O1 0.620975 0.608817 0.459303
O O2 0.615115 0.000000 0.250000
O O3 0.627312 0.105120 0.542178
O O4 0.562905 0.955913 0.460899
O O5 0.184943 0.111173 0.418865
O O6 0.127716 0.000000 0.250000
O O7 0.741034 0.500000 0.750000
O O8 0.716527 0.000000 0.750000
O O9 0.750000 0.807695 0.000000
O O10 0.038729 0.500000 0.250000
O O11 0.000000 0.250000 0.463866
O O12 0.000000 0.750000 0.454680
#
# Coordination Sequence:
#
# PCOD9334906 Si02
#       4
#     8   8   8   8
#     4  12  25  40  63  96 129 164 209 269 326 369
#     4  11  23  43  65  89 126 172 215 254 311 391
#     4  11  24  43  67  97 129 168 214 266 325 383
#     4  10  21  38  61  88 120 164 212 255 310 383
#
# _framework density 20.846395000000001
#
# number of rings (size 3 to 8) (size 9 to 14) (size 15 to 20)
#    0.000    1.000    0.000    8.250    0.000    6.000 
#    0.000    0.000    0.000    0.000    0.000    0.000 
#    0.000    0.000    0.000    0.000    0.000    0.000 
#
# Total GULP energy -89459.363715 kJ/mol
# GULP energy per Si atom -5591.210232 kJ/mol
# Density = 2.079895 g / cm^3
# Si number density = 20.846395 Si / 1000 Ang^3
#
#
#
# Elastic Constant Matrix: (Units=GPa)
#
#
# Indices 1 2 3 4 5 6 
#
# 1 63.7029 8.5728 30.6674 0.0000 0.0000 0.0000
# 2 8.5728 108.3811 2.0564 0.0000 0.0000 0.0000
# 3 30.6674 2.0564 60.4360 0.0000 0.0000 0.0000
# 4 0.0000 0.0000 0.0000 34.8593 0.0000 0.0000
# 5 0.0000 0.0000 0.0000 0.0000 16.8256 0.0000
# 6 0.0000 0.0000 0.0000 0.0000 0.0000 50.8554
#
#
#
# Elastic Compliance Matrix: (Units=1/GPa)
#
#
# Indices 1 2 3 4 5 6 
#
# 1 0.021001 -0.001460 -0.010607 0.000000 0.000000 0.000000
# 2 -0.001460 0.009334 0.000423 0.000000 0.000000 0.000000
# 3 -0.010607 0.000423 0.021914 0.000000 0.000000 0.000000
# 4 0.000000 0.000000 0.000000 0.028687 0.000000 0.000000
# 5 0.000000 0.000000 0.000000 0.000000 0.059433 0.000000
# 6 0.000000 0.000000 0.000000 0.000000 0.000000 0.019664
#
#
# Mechanical properties :
#
#
# Convention : Reuss Voigt Hill
#
# Bulk Modulus (GPa) = 34.52789 35.01258 34.77024
# Shear Modulus (GPa) = 25.91030 33.25630 29.58330
#
# Velocity S-wave (km/s) = 3.52932 3.99846 3.77119
# Velocity P-wave (km/s) = 5.76256 6.17647 5.97311
#
# Compressibility (1/GPa) = 0.02896209
#
# Stress axis : x y z
#
# Youngs Moduli (GPa) = 47.61775 107.13354 45.63226
#
# Poissons Ratio (x) = 0.15640 0.48401
# Poissons Ratio (y) = 0.06952 -0.01931
# Poissons Ratio (z) = 0.50507 -0.04534
#
# Static dielectric constant tensor:
#      x y z
#    x 1.712220 0.000000 0.000000 
#    y 0.000000 1.710400 0.000000 
#    z 0.000000 0.000000 1.751200 
# 
# From -- ./inp_files/1159.got.cif
#   From: 2010.05.17/outbox.cif.g08.bks.cpg/sg24_1_cif.got.tgz:1159.got - 2010.06.04 00:33:39.
