data_PCOD9334701
_publ_section_title
;
Structure prediction by ZEFSAII (Michael W. Deem and Ramdas Pophale) SiO2 
 PCOD9334701
Probable space group: I 21 21 21
;
_chemical_formula_sum "Si O2"
_cell_formula_units_Z 32
_cell_length_a 7.345672
_cell_length_b 11.086535
_cell_length_c 16.904253
_cell_angle_alpha 90.000000
_cell_angle_beta 90.000000
_cell_angle_gamma 90.000000
_cell_volume 1376.649396
_symmetry_space_group_name_H-M "I 21 21 21"
_symmetry_group_IT_number 24
_symmetry_cell_setting 'orthorhombic'
loop_
_space_group_symop_operation_xyz
x,y,z
-x,1/2-y,z
x,-y,1/2-z
1/2-x,y,-z
1/2+x,1/2+y,1/2+z
1/2-x,-y,1/2+z
1/2+x,1/2-y,-z
-x,1/2+y,1/2-z
loop_
_atom_site_type_symbol
_atom_site_label
_atom_site_fract_x
_atom_site_fract_y
_atom_site_fract_z
Si Si1 0.034351 0.930758 0.028640
Si Si2 0.500000 0.250000 0.673972
Si Si3 0.500000 0.750000 0.099006
Si Si4 0.500000 0.250000 0.124473
Si Si5 0.250000 0.364716 0.000000
Si Si6 0.191110 0.869095 0.758459
O O1 0.017899 0.862421 0.113175
O O2 0.250000 0.937373 0.000000
O O3 0.928420 0.846108 0.964969
O O4 0.922554 0.054303 0.027798
O O5 0.331903 0.240424 0.733247
O O6 0.412636 0.844650 0.159995
O O7 0.559944 0.355345 0.183986
O O8 0.330788 0.285498 0.070504
O O9 0.278706 0.000000 0.750000
#
# Coordination Sequence:
#
# PCOD9334701 Si02
#       6
#     8   4   4   4   4   8
#     4  11  23  44  79 110 143 186 244 309 364 433
#     4  11  24  40  74 113 146 182 248 297 358 450
#     4  10  20  44  70 106 144 176 244 304 356 422
#     4  11  30  48  70 103 146 192 250 303 358 452
#     4  12  28  48  74 104 142 198 244 306 370 430
#     4  11  24  45  69 101 148 194 232 300 368 433
#
# _framework density 23.244845000000002
#
# number of rings (size 3 to 8) (size 9 to 14) (size 15 to 20)
#    0.000    1.000    2.500    3.000    5.250    5.000 
#    0.000    1.250    0.000    0.000    0.000    0.000 
#    0.000    0.000    0.000    0.000    0.000    0.000 
#
# Total GULP energy -89097.339968 kJ/mol
# GULP energy per Si atom -5568.583748 kJ/mol
# Density = 2.319194 g / cm^3
# Si number density = 23.244845 Si / 1000 Ang^3
#
#
#
# Elastic Constant Matrix: (Units=GPa)
#
#
# Indices 1 2 3 4 5 6 
#
# 1 112.8734 28.1719 53.1163 0.0000 0.0000 0.0000
# 2 28.1719 53.8292 22.0320 0.0000 0.0000 0.0000
# 3 53.1163 22.0320 119.8196 0.0000 0.0000 0.0000
# 4 0.0000 0.0000 0.0000 -29.4495 0.0000 0.0000
# 5 0.0000 0.0000 0.0000 0.0000 -171.4165 0.0000
# 6 0.0000 0.0000 0.0000 0.0000 0.0000 37.7072
#
#
#
# Elastic Compliance Matrix: (Units=1/GPa)
#
#
# Indices 1 2 3 4 5 6 
#
# 1 0.012118 -0.004481 -0.004548 0.000000 0.000000 0.000000
# 2 -0.004481 0.021746 -0.002012 0.000000 0.000000 0.000000
# 3 -0.004548 -0.002012 0.010732 0.000000 0.000000 0.000000
# 4 0.000000 0.000000 0.000000 -0.033956 0.000000 0.000000
# 5 0.000000 0.000000 0.000000 0.000000 -0.005834 0.000000
# 6 0.000000 0.000000 0.000000 0.000000 0.000000 0.026520
#
#
# Mechanical properties :
#
#
# Convention : Reuss Voigt Hill
#
# Bulk Modulus (GPa) = 44.41668 54.79583 49.60626
# Shear Modulus (GPa) = 82.08499 -20.41830 30.83335
#
# Velocity S-wave (km/s) = 5.94894 -2.96700 3.64601
# Velocity P-wave (km/s) = 8.14470 3.44776 6.25393
#
# Compressibility (1/GPa) = 0.02251406
#
# Stress axis : x y z
#
# Youngs Moduli (GPa) = 82.52173 45.98579 93.17866
#
# Poissons Ratio (x) = 0.20604 0.42378
# Poissons Ratio (y) = 0.36974 0.18750
# Poissons Ratio (z) = 0.37532 0.09254
#
# Static dielectric constant tensor:
#      x y z
#    x 2.136660 0.000000 0.000000 
#    y 0.000000 2.094250 0.000000 
#    z 0.000000 0.000000 1.828380 
# 
# From -- ./inp_files/12016.got.cif
#   From: 2010.05.17/outbox.cif.g08.bks.cpg/sg24_7_cif.got.tgz:12016.got - 2010.06.04 00:33:39.
