data_PCOD9334099
_publ_section_title
;
Structure prediction by ZEFSAII (Michael W. Deem and Ramdas Pophale) SiO2 
 PCOD9334099
Probable space group: I 21 21 21
;
_chemical_formula_sum "Si O2"
_cell_formula_units_Z 40
_cell_length_a 10.008484
_cell_length_b 18.810160
_cell_length_c 8.646289
_cell_angle_alpha 90.000000
_cell_angle_beta 90.000000
_cell_angle_gamma 90.000000
_cell_volume 1627.760616
_symmetry_space_group_name_H-M "I 21 21 21"
_symmetry_group_IT_number 24
_symmetry_cell_setting 'orthorhombic'
loop_
_space_group_symop_operation_xyz
x,y,z
-x,1/2-y,z
x,-y,1/2-z
1/2-x,y,-z
1/2+x,1/2+y,1/2+z
1/2-x,-y,1/2+z
1/2+x,1/2-y,-z
-x,1/2+y,1/2-z
loop_
_atom_site_type_symbol
_atom_site_label
_atom_site_fract_x
_atom_site_fract_y
_atom_site_fract_z
Si Si1 0.166550 0.764499 0.342685
Si Si2 0.836375 0.572056 0.319593
Si Si3 0.163216 0.353060 0.699098
Si Si4 0.594155 0.928225 0.900103
Si Si5 0.487175 0.449425 0.101723
O O1 0.250000 0.747012 0.500000
O O2 0.205692 0.846091 0.306212
O O3 0.246415 0.716006 0.219473
O O4 0.000000 0.750000 0.347283
O O5 0.770694 0.500000 0.250000
O O6 0.967499 0.575092 0.208159
O O7 0.882764 0.562180 0.497375
O O8 0.090774 0.367660 0.535318
O O9 0.275172 0.414389 0.698180
O O10 0.065963 0.373925 0.838741
O O11 0.599364 0.003389 0.985367
O O12 0.500093 0.500000 0.250000
#
# Coordination Sequence:
#
# PCOD9334099 Si02
#       5
#     8   8   8   8   8
#     4  12  25  45  73 101 141 187 239 294 356 427
#     4  10  21  41  70  98 135 190 236 285 354 433
#     4  10  20  35  60  99 138 173 226 288 360 409
#     4   9  19  34  61  97 140 172 220 294 355 410
#     4   9  19  34  62 105 140 174 225 296 352 414
#
# _framework density 24.573639
#
# number of rings (size 3 to 8) (size 9 to 14) (size 15 to 20)
#    0.000    2.000    2.000    1.200    0.000   13.600 
#    0.000    1.000   52.800    0.000    0.000    0.000 
#    0.000    0.000    0.000    0.000    0.000    0.000 
#
# Total GULP energy -111493.308164 kJ/mol
# GULP energy per Si atom -5574.665408 kJ/mol
# Density = 2.451771 g / cm^3
# Si number density = 24.573639 Si / 1000 Ang^3
#
#
#
# Elastic Constant Matrix: (Units=GPa)
#
#
# Indices 1 2 3 4 5 6 
#
# 1 79.1320 34.2478 9.5591 0.0000 0.0000 0.0000
# 2 34.2478 165.5692 53.8882 -0.0001 -0.0001 0.0000
# 3 9.5591 53.8882 104.9499 0.0000 -0.0001 -0.0001
# 4 0.0000 -0.0001 0.0000 37.1842 -0.0001 0.0000
# 5 0.0000 -0.0001 -0.0001 -0.0001 -2.6164 0.0000
# 6 0.0000 0.0000 -0.0001 0.0000 0.0000 29.0319
#
#
#
# Elastic Compliance Matrix: (Units=1/GPa)
#
#
# Indices 1 2 3 4 5 6 
#
# 1 0.013885 -0.002954 0.000252 0.000000 0.000000 0.000000
# 2 -0.002954 0.007880 -0.003777 0.000000 0.000000 0.000000
# 3 0.000252 -0.003777 0.011445 0.000000 0.000000 0.000000
# 4 0.000000 0.000000 0.000000 0.026893 -0.000001 0.000000
# 5 0.000000 0.000000 0.000000 -0.000001 -0.382205 0.000000
# 6 0.000000 0.000000 0.000000 0.000000 0.000000 0.034445
#
#
# Mechanical properties :
#
#
# Convention : Reuss Voigt Hill
#
# Bulk Modulus (GPa) = 49.37807 60.56014 54.96911
# Shear Modulus (GPa) = -18.66039 29.51700 5.42830
#
# Velocity S-wave (km/s) = -2.75865 3.46954 1.48788
# Velocity P-wave (km/s) = 3.16080 6.38343 5.03681
#
# Compressibility (1/GPa) = 0.02025190
#
# Stress axis : x y z
#
# Youngs Moduli (GPa) = 72.01901 126.90020 87.37576
#
# Poissons Ratio (x) = 0.37489 -0.02204
# Poissons Ratio (y) = 0.21276 0.33003
# Poissons Ratio (z) = -0.01816 0.47932
#
# Static dielectric constant tensor:
#      x y z
#    x 2.037250 0.000000 0.000000 
#    y 0.000000 1.968180 0.000000 
#    z 0.000000 0.000000 1.994840 
# 
# From -- ./inp_files/10668.got.cif
#   From: 2010.05.17/outbox.cif.g08.bks.cpg/sg24_6_cif.got.tgz:10668.got - 2010.06.04 00:33:39.
