data_PCOD9334804
_publ_section_title
;
Structure prediction by ZEFSAII (Michael W. Deem and Ramdas Pophale) SiO2 
 PCOD9334804
Probable space group: I 21 21 21
;
_chemical_formula_sum "Si O2"
_cell_formula_units_Z 48
_cell_length_a 8.906784
_cell_length_b 9.035857
_cell_length_c 27.490123
_cell_angle_alpha 90.000000
_cell_angle_beta 90.000000
_cell_angle_gamma 90.000000
_cell_volume 2212.416825
_symmetry_space_group_name_H-M "I 21 21 21"
_symmetry_group_IT_number 24
_symmetry_cell_setting 'orthorhombic'
loop_
_space_group_symop_operation_xyz
x,y,z
-x,1/2-y,z
x,-y,1/2-z
1/2-x,y,-z
1/2+x,1/2+y,1/2+z
1/2-x,-y,1/2+z
1/2+x,1/2-y,-z
-x,1/2+y,1/2-z
loop_
_atom_site_type_symbol
_atom_site_label
_atom_site_fract_x
_atom_site_fract_y
_atom_site_fract_z
Si Si1 0.169411 0.000972 0.805772
Si Si2 0.444127 0.581550 0.592956
Si Si3 0.515571 0.073253 0.798353
Si Si4 0.580968 0.406343 0.517112
Si Si5 0.500000 0.750000 0.360629
Si Si6 0.626036 0.002638 0.068807
Si Si7 0.500000 0.250000 0.367561
O O1 0.349966 0.002128 0.804990
O O2 0.116134 0.155369 0.829086
O O3 0.117132 0.000000 0.750000
O O4 0.096142 0.864842 0.835137
O O5 0.500000 0.750000 0.590107
O O6 0.407428 0.548993 0.649377
O O7 0.576026 0.485290 0.569354
O O8 0.300193 0.537662 0.560631
O O9 0.500000 0.250000 0.790780
O O10 0.585198 0.000000 0.750000
O O11 0.500000 0.250000 0.521180
O O12 0.750000 0.387490 0.500000
O O13 0.488136 0.497254 0.476255
O O14 0.578810 0.867972 0.394886
O O15 0.605143 0.847906 0.097250
#
# Coordination Sequence:
#
# PCOD9334804 Si02
#       7
#     8   8   8   8   4   8   4
#     4  10  21  39  63  98 137 184 237 286 343 407
#     4  11  26  44  69 101 139 183 233 285 345 411
#     4  10  23  42  65  98 138 181 234 285 345 410
#     4  12  28  45  71 101 139 180 232 287 351 420
#     4  10  21  36  68  92 138 184 227 290 348 404
#     4  11  24  44  68  99 140 180 235 285 350 421
#     4  10  23  40  68  94 138 180 233 286 352 406
#
# _framework density 21.695730999999999
#
# number of rings (size 3 to 8) (size 9 to 14) (size 15 to 20)
#    0.000    1.333    0.833    4.000    8.167    3.333 
#    0.000    4.167    0.000    0.000    0.000    0.000 
#    0.000    0.000    0.000    0.000    0.000    0.000 
#
# Total GULP energy -134188.677440 kJ/mol
# GULP energy per Si atom -5591.194893 kJ/mol
# Density = 2.164635 g / cm^3
# Si number density = 21.695731 Si / 1000 Ang^3
#
#
#
# Elastic Constant Matrix: (Units=GPa)
#
#
# Indices 1 2 3 4 5 6 
#
# 1 81.3884 29.9607 27.6759 0.0000 0.0000 0.0000
# 2 29.9607 101.5370 55.1679 0.0000 0.0000 0.0000
# 3 27.6759 55.1679 128.2058 0.0000 0.0000 0.0000
# 4 0.0000 0.0000 0.0000 -14.8834 0.0000 0.0000
# 5 0.0000 0.0000 0.0000 0.0000 31.4964 0.0000
# 6 0.0000 0.0000 0.0000 0.0000 0.0000 22.3888
#
#
#
# Elastic Compliance Matrix: (Units=1/GPa)
#
#
# Indices 1 2 3 4 5 6 
#
# 1 0.014040 -0.003258 -0.001629 0.000000 0.000000 0.000000
# 2 -0.003258 0.013610 -0.005153 0.000000 0.000000 0.000000
# 3 -0.001629 -0.005153 0.010369 0.000000 0.000000 0.000000
# 4 0.000000 0.000000 0.000000 -0.067189 0.000000 0.000000
# 5 0.000000 0.000000 0.000000 0.000000 0.031750 0.000000
# 6 0.000000 0.000000 0.000000 0.000000 0.000000 0.044665
#
#
# Mechanical properties :
#
#
# Convention : Reuss Voigt Hill
#
# Bulk Modulus (GPa) = 55.74433 59.63780 57.69106
# Shear Modulus (GPa) = 68.20905 21.02214 44.61559
#
# Velocity S-wave (km/s) = 5.61313 3.11618 4.53970
# Velocity P-wave (km/s) = 8.23159 6.36360 7.35712
#
# Compressibility (1/GPa) = 0.01793904
#
# Stress axis : x y z
#
# Youngs Moduli (GPa) = 71.22543 73.47697 96.44100
#
# Poissons Ratio (x) = 0.23937 0.15710
# Poissons Ratio (y) = 0.23203 0.49697
# Poissons Ratio (z) = 0.11603 0.37864
#
# Static dielectric constant tensor:
#      x y z
#    x 1.885210 0.000000 0.000000 
#    y 0.000000 1.804830 0.000000 
#    z 0.000000 0.000000 1.815260 
# 
# From -- ./inp_files/16864.got.cif
#   From: 2010.05.17/outbox.cif.g08.bks.cpg/sg24_9_cif.got.tgz:16864.got - 2010.06.04 00:33:39.
