data_PCOD9334907
_publ_section_title
;
Structure prediction by ZEFSAII (Michael W. Deem and Ramdas Pophale) SiO2 
 PCOD9334907
Probable space group: I 21 21 21
;
_chemical_formula_sum "Si O2"
_cell_formula_units_Z 64
_cell_length_a 17.080954
_cell_length_b 12.466075
_cell_length_c 14.664428
_cell_angle_alpha 90.000000
_cell_angle_beta 90.000000
_cell_angle_gamma 90.000000
_cell_volume 3122.532635
_symmetry_space_group_name_H-M "I 21 21 21"
_symmetry_group_IT_number 24
_symmetry_cell_setting 'orthorhombic'
loop_
_space_group_symop_operation_xyz
x,y,z
-x,1/2-y,z
x,-y,1/2-z
1/2-x,y,-z
1/2+x,1/2+y,1/2+z
1/2-x,-y,1/2+z
1/2+x,1/2-y,-z
-x,1/2+y,1/2-z
loop_
_atom_site_type_symbol
_atom_site_label
_atom_site_fract_x
_atom_site_fract_y
_atom_site_fract_z
Si Si1 0.786123 0.514081 0.859501
Si Si2 0.917856 0.207208 0.335240
Si Si3 0.737542 0.237926 0.363003
Si Si4 0.608190 0.218965 0.869771
Si Si5 0.131698 0.938777 0.463178
Si Si6 0.331221 0.469037 0.448977
Si Si7 0.466617 0.496975 0.909239
Si Si8 0.759284 0.103997 0.809333
O O1 0.796292 0.500000 0.750000
O O2 0.785921 0.641015 0.879275
O O3 0.702578 0.470514 0.895493
O O4 0.845646 0.459075 0.931379
O O5 0.831737 0.223489 0.379333
O O6 0.906546 0.256715 0.234326
O O7 0.000000 0.250000 0.376325
O O8 0.936064 0.079967 0.333265
O O9 0.686042 0.151533 0.416454
O O10 0.722858 0.200354 0.259112
O O11 0.615247 0.314261 0.941051
O O12 0.544366 0.128034 0.887603
O O13 0.688621 0.150939 0.868124
O O14 0.056814 0.009114 0.435072
O O15 0.250000 0.495417 0.500000
O O16 0.408511 0.477863 0.507374
O O17 0.329861 0.554707 0.366846
O O18 0.731678 0.000000 0.750000
#
# Coordination Sequence:
#
# PCOD9334907 Si02
#       8
#     8   8   8   8   8   8   8   8
#     4  11  25  48  69  88 126 175 226 273 331 404
#     4  11  21  34  59  92 130 170 205 260 334 395
#     4  10  21  38  61  88 121 164 216 264 319 389
#     4  11  21  38  58  90 133 170 208 263 326 384
#     4  11  27  42  63  96 127 171 226 278 329 398
#     4  11  20  35  61  93 125 166 204 260 324 388
#     4  12  23  37  60  93 133 163 210 269 330 392
#     4   9  18  36  60  94 123 160 214 260 320 391
#
# _framework density 20.496184
#
# number of rings (size 3 to 8) (size 9 to 14) (size 15 to 20)
#    0.000    1.250    2.500    5.250    1.750    5.000 
#    0.000    1.875    0.000    0.000    0.000    0.000 
#    0.000    0.000    0.000    0.000    0.000    0.000 
#
# Total GULP energy -178510.430304 kJ/mol
# GULP energy per Si atom -5578.450947 kJ/mol
# Density = 2.044953 g / cm^3
# Si number density = 20.496184 Si / 1000 Ang^3
#
#
#
# Elastic Constant Matrix: (Units=GPa)
#
#
# Indices 1 2 3 4 5 6 
#
# 1 51.6322 8.3904 20.2447 0.0000 0.0000 0.0000
# 2 8.3904 91.0101 25.2986 0.0000 0.0000 0.0000
# 3 20.2447 25.2986 92.4004 0.0000 0.0000 0.0000
# 4 0.0000 0.0000 0.0000 32.6558 0.0000 0.0000
# 5 0.0000 0.0000 0.0000 0.0000 18.9275 0.0000
# 6 0.0000 0.0000 0.0000 0.0000 0.0000 10.6705
#
#
#
# Elastic Compliance Matrix: (Units=1/GPa)
#
#
# Indices 1 2 3 4 5 6 
#
# 1 0.021231 -0.000719 -0.004455 0.000000 0.000000 0.000000
# 2 -0.000719 0.011917 -0.003105 0.000000 0.000000 0.000000
# 3 -0.004455 -0.003105 0.012649 0.000000 0.000000 0.000000
# 4 0.000000 0.000000 0.000000 0.030622 0.000000 0.000000
# 5 0.000000 0.000000 0.000000 0.000000 0.052833 0.000000
# 6 0.000000 0.000000 0.000000 0.000000 0.000000 0.093717
#
#
# Mechanical properties :
#
#
# Convention : Reuss Voigt Hill
#
# Bulk Modulus (GPa) = 34.20103 38.10114 36.15108
# Shear Modulus (GPa) = 20.05822 24.52469 22.29146
#
# Velocity S-wave (km/s) = 3.13170 3.46287 3.30144
# Velocity P-wave (km/s) = 5.45889 5.88374 5.67529
#
# Compressibility (1/GPa) = 0.02923889
#
# Stress axis : x y z
#
# Youngs Moduli (GPa) = 47.10023 83.91171 79.05929
#
# Poissons Ratio (x) = 0.06033 0.35220
# Poissons Ratio (y) = 0.03387 0.24551
# Poissons Ratio (z) = 0.20983 0.26057
#
# Static dielectric constant tensor:
#      x y z
#    x 1.738350 0.000000 0.000000 
#    y 0.000000 1.765240 0.000000 
#    z 0.000000 0.000000 1.864900 
# 
# From -- ./inp_files/27242.got.cif
#   From: 2010.05.17/outbox.cif.g08.bks.cpg/sg24_14_cif.got.tgz:27242.got - 2010.06.04 00:33:39.
