data_PCOD9334098
_publ_section_title
;
Structure prediction by ZEFSAII (Michael W. Deem and Ramdas Pophale) SiO2 
 PCOD9334098
Probable space group: I 21 21 21
;
_chemical_formula_sum "Si O2"
_cell_formula_units_Z 56
_cell_length_a 16.567332
_cell_length_b 13.697960
_cell_length_c 11.822413
_cell_angle_alpha 90.000000
_cell_angle_beta 90.000000
_cell_angle_gamma 90.000000
_cell_volume 2682.962458
_symmetry_space_group_name_H-M "I 21 21 21"
_symmetry_group_IT_number 24
_symmetry_cell_setting 'orthorhombic'
loop_
_space_group_symop_operation_xyz
x,y,z
-x,1/2-y,z
x,-y,1/2-z
1/2-x,y,-z
1/2+x,1/2+y,1/2+z
1/2-x,-y,1/2+z
1/2+x,1/2-y,-z
-x,1/2+y,1/2-z
loop_
_atom_site_type_symbol
_atom_site_label
_atom_site_fract_x
_atom_site_fract_y
_atom_site_fract_z
Si Si1 0.234470 0.769912 0.247352
Si Si2 0.408165 0.726448 0.892576
Si Si3 0.965890 0.614926 0.721030
Si Si4 0.799198 0.577589 0.608285
Si Si5 0.142139 0.371608 0.825559
Si Si6 0.336872 0.568641 0.059893
Si Si7 0.648782 0.353976 0.417934
O O1 0.150260 0.721026 0.216025
O O2 0.241253 0.880511 0.293209
O O3 0.287460 0.707834 0.336015
O O4 0.285841 0.779167 0.131424
O O5 0.500000 0.750000 0.864640
O O6 0.394917 0.635436 0.980136
O O7 0.375858 0.821989 0.958820
O O8 0.983916 0.500000 0.750000
O O9 0.889470 0.616255 0.636482
O O10 0.929286 0.655658 0.837431
O O11 0.048906 0.660625 0.679395
O O12 0.750000 0.609794 0.500000
O O13 0.816915 0.462524 0.594829
O O14 0.145744 0.453230 0.923266
O O15 0.158273 0.404515 0.693912
O O16 0.250000 0.578633 0.000000
#
# Coordination Sequence:
#
# PCOD9334098 Si02
#       7
#     8   8   8   8   8   8   8
#     4  11  22  39  62  90 123 168 214 258 321 376
#     4  12  23  36  64  95 128 165 211 261 318 386
#     4   9  18  33  57  90 118 151 198 257 310 360
#     4  10  22  38  61  86 129 164 207 258 322 390
#     4  11  21  36  63  88 128 156 209 274 311 380
#     4  11  21  38  61  91 121 163 206 263 331 374
#     4  10  20  35  60  94 125 162 205 255 319 380
#
# _framework density 20.872450000000001
#
# number of rings (size 3 to 8) (size 9 to 14) (size 15 to 20)
#    0.000    1.429    4.286    3.429    2.000    2.286 
#    0.000    0.000    6.286    1.714    0.000    0.000 
#    0.000    0.000    0.000    0.000    0.000    0.000 
#
# Total GULP energy -155965.327441 kJ/mol
# GULP energy per Si atom -5570.190266 kJ/mol
# Density = 2.082494 g / cm^3
# Si number density = 20.872450 Si / 1000 Ang^3
#
#
#
# Elastic Constant Matrix: (Units=GPa)
#
#
# Indices 1 2 3 4 5 6 
#
# 1 139.0217 46.8920 46.0283 0.0000 0.0000 0.0000
# 2 46.8920 95.7349 23.8142 0.0000 0.0000 0.0000
# 3 46.0283 23.8142 57.5638 0.0000 0.0000 0.0000
# 4 0.0000 0.0000 0.0000 14.7387 0.0000 0.0000
# 5 0.0000 0.0000 0.0000 0.0000 25.2023 0.0000
# 6 0.0000 0.0000 0.0000 0.0000 0.0000 17.9077
#
#
#
# Elastic Compliance Matrix: (Units=1/GPa)
#
#
# Indices 1 2 3 4 5 6 
#
# 1 0.010731 -0.003480 -0.007141 0.000000 0.000000 0.000000
# 2 -0.003480 0.012772 -0.002501 0.000000 0.000000 0.000000
# 3 -0.007141 -0.002501 0.024117 0.000000 0.000000 0.000000
# 4 0.000000 0.000000 0.000000 0.067849 0.000000 0.000000
# 5 0.000000 0.000000 0.000000 0.000000 0.039679 0.000000
# 6 0.000000 0.000000 0.000000 0.000000 0.000000 0.055842
#
#
# Mechanical properties :
#
#
# Convention : Reuss Voigt Hill
#
# Bulk Modulus (GPa) = 46.78219 58.42106 52.60162
# Shear Modulus (GPa) = 20.46165 23.27546 21.86855
#
# Velocity S-wave (km/s) = 3.13440 3.34298 3.24037
# Velocity P-wave (km/s) = 5.96333 6.55370 6.26547
#
# Compressibility (1/GPa) = 0.02137566
#
# Stress axis : x y z
#
# Youngs Moduli (GPa) = 93.18604 78.29493 41.46472
#
# Poissons Ratio (x) = 0.27246 0.29610
# Poissons Ratio (y) = 0.32428 0.10372
# Poissons Ratio (z) = 0.66545 0.19584
#
# Static dielectric constant tensor:
#      x y z
#    x 1.775360 0.000000 0.000000 
#    y 0.000000 1.896820 0.000000 
#    z 0.000000 0.000000 1.767000 
# 
# From -- ./inp_files/26644.got.cif
#   From: 2010.05.17/outbox.cif.g08.bks.cpg/sg24_14_cif.got.tgz:26644.got - 2010.06.04 00:33:39.
