data_PCOD9334386
_publ_section_title
;
Structure prediction by ZEFSAII (Michael W. Deem and Ramdas Pophale) SiO2 
 PCOD9334386
Probable space group: I 21 21 21
;
_chemical_formula_sum "Si O2"
_cell_formula_units_Z 56
_cell_length_a 16.038827
_cell_length_b 5.311264
_cell_length_c 27.601534
_cell_angle_alpha 90.000000
_cell_angle_beta 90.000000
_cell_angle_gamma 90.000000
_cell_volume 2351.276543
_symmetry_space_group_name_H-M "I 21 21 21"
_symmetry_group_IT_number 24
_symmetry_cell_setting 'orthorhombic'
loop_
_space_group_symop_operation_xyz
x,y,z
-x,1/2-y,z
x,-y,1/2-z
1/2-x,y,-z
1/2+x,1/2+y,1/2+z
1/2-x,-y,1/2+z
1/2+x,1/2-y,-z
-x,1/2+y,1/2-z
loop_
_atom_site_type_symbol
_atom_site_label
_atom_site_fract_x
_atom_site_fract_y
_atom_site_fract_z
Si Si1 0.909639 0.243120 0.841319
Si Si2 0.762177 0.509117 0.192253
Si Si3 0.080712 0.915218 0.931553
Si Si4 0.909060 0.317842 0.458088
Si Si5 0.195136 0.297257 0.048913
Si Si6 0.952399 0.492118 0.190977
Si Si7 0.295729 0.393542 0.378119
O O1 0.826665 0.378386 0.820935
O O2 0.920701 0.351879 0.895566
O O3 0.000000 0.250000 0.816551
O O4 0.879153 0.961026 0.848476
O O5 0.761122 0.500000 0.250000
O O6 0.856008 0.430157 0.179362
O O7 0.759930 0.771423 0.162935
O O8 0.169248 0.784724 0.920184
O O9 0.000000 0.750000 0.919192
O O10 0.075166 0.941915 0.988810
O O11 0.854764 0.544865 0.436132
O O12 0.000000 0.250000 0.437488
O O13 0.860244 0.050727 0.460705
O O14 0.252536 0.379076 0.094072
O O15 0.250000 0.251843 0.000000
O O16 0.956538 0.500000 0.250000
O O17 0.000000 0.750000 0.175576
O O18 0.000000 0.250000 0.171879
#
# Coordination Sequence:
#
# PCOD9334386 Si02
#       7
#     8   8   8   8   8   8   8
#     4  11  23  41  68  99 141 193 242 303 360 441
#     4  10  25  45  69 108 145 187 244 308 376 448
#     4  10  20  38  63  98 137 183 250 301 353 427
#     4  11  25  42  69 101 143 191 240 303 371 444
#     4  12  24  42  68 105 140 187 246 306 366 444
#     4   9  19  39  71 104 132 169 228 293 355 428
#     4  11  24  41  68  98 140 190 239 307 369 439
#
# _framework density 23.816852000000001
#
# number of rings (size 3 to 8) (size 9 to 14) (size 15 to 20)
#    0.000    1.429    2.857    1.714    6.000    0.571 
#    2.571    0.714    3.143    0.000    0.000    0.000 
#    0.000    0.000    0.000    0.000    0.000    0.000 
#
# Total GULP energy -156162.409846 kJ/mol
# GULP energy per Si atom -5577.228923 kJ/mol
# Density = 2.376264 g / cm^3
# Si number density = 23.816852 Si / 1000 Ang^3
#
#
#
# Elastic Constant Matrix: (Units=GPa)
#
#
# Indices 1 2 3 4 5 6 
#
# 1 209.1696 69.0720 42.5904 0.0000 0.0000 0.0000
# 2 69.0720 94.8178 18.6905 0.0000 0.0000 0.0000
# 3 42.5904 18.6905 93.1451 0.0000 0.0000 0.0000
# 4 0.0000 0.0000 0.0000 -1.5652 0.0000 0.0000
# 5 0.0000 0.0000 0.0000 0.0000 17.1689 0.0000
# 6 0.0000 0.0000 0.0000 0.0000 0.0000 60.9503
#
#
#
# Elastic Compliance Matrix: (Units=1/GPa)
#
#
# Indices 1 2 3 4 5 6 
#
# 1 0.006690 -0.004447 -0.002167 0.000000 0.000000 0.000000
# 2 -0.004447 0.013936 -0.000763 0.000000 0.000000 0.000000
# 3 -0.002167 -0.000763 0.011880 0.000000 0.000000 0.000000
# 4 0.000000 0.000000 0.000000 -0.638910 0.000000 0.000000
# 5 0.000000 0.000000 0.000000 0.000000 0.058245 0.000000
# 6 0.000000 0.000000 0.000000 0.000000 0.000000 0.016407
#
#
# Mechanical properties :
#
#
# Convention : Reuss Voigt Hill
#
# Bulk Modulus (GPa) = 56.32854 73.09317 64.71086
# Shear Modulus (GPa) = -9.78319 33.09612 11.65647
#
# Velocity S-wave (km/s) = -2.02894 3.73179 2.21469
# Velocity P-wave (km/s) = 4.26770 7.02315 5.81111
#
# Compressibility (1/GPa) = 0.01775299
#
# Stress axis : x y z
#
# Youngs Moduli (GPa) = 149.46806 71.75544 84.17578
#
# Poissons Ratio (x) = 0.31907 0.18240
# Poissons Ratio (y) = 0.66463 0.06425
# Poissons Ratio (z) = 0.32388 0.05477
#
# Static dielectric constant tensor:
#      x y z
#    x 2.003360 0.000000 0.000000 
#    y 0.000000 1.983630 0.000000 
#    z 0.000000 0.000000 1.901920 
# 
# From -- ./inp_files/38714.got.cif
#   From: 2010.05.17/outbox.cif.g08.bks.cpg/sg24_20_cif.got.tgz:38714.got - 2010.06.04 00:33:39.
