data_PCOD9334856
_publ_section_title
;
Structure prediction by ZEFSAII (Michael W. Deem and Ramdas Pophale) SiO2 
 PCOD9334856
Probable space group: I 21 21 21
;
_chemical_formula_sum "Si O2"
_cell_formula_units_Z 64
_cell_length_a 31.823744
_cell_length_b 12.294224
_cell_length_c 8.273695
_cell_angle_alpha 90.000000
_cell_angle_beta 90.000000
_cell_angle_gamma 90.000000
_cell_volume 3237.068584
_symmetry_space_group_name_H-M "I 21 21 21"
_symmetry_group_IT_number 24
_symmetry_cell_setting 'orthorhombic'
loop_
_space_group_symop_operation_xyz
x,y,z
-x,1/2-y,z
x,-y,1/2-z
1/2-x,y,-z
1/2+x,1/2+y,1/2+z
1/2-x,-y,1/2+z
1/2+x,1/2-y,-z
-x,1/2+y,1/2-z
loop_
_atom_site_type_symbol
_atom_site_label
_atom_site_fract_x
_atom_site_fract_y
_atom_site_fract_z
Si Si1 0.124499 0.624732 0.443479
Si Si2 0.452488 0.228954 0.445753
Si Si3 0.952488 0.728955 0.554251
Si Si4 0.084628 1.000000 0.553179
Si Si5 0.182259 0.000000 0.946894
Si Si6 0.294765 0.760979 0.056703
Si Si7 0.294765 0.760978 0.443296
Si Si8 0.124499 0.375266 0.443476
O O1 0.081911 0.683424 0.500389
O O2 0.165006 0.692714 0.500691
O O3 0.126399 0.499999 0.502262
O O4 0.124761 0.623801 0.250001
O O5 0.500000 0.250000 0.500851
O O6 0.452569 0.228960 0.250002
O O7 0.418089 0.316574 0.499616
O O8 0.437375 0.110207 0.501877
O O9 0.937374 0.610209 0.498125
O O10 0.000000 0.750000 0.499153
O O11 0.133315 0.000000 0.507231
O O12 0.083487 0.000000 0.750000
O O13 0.201382 0.113959 0.004594
O O14 0.184646 0.000000 0.750000
O O15 0.201382 0.886043 0.004594
O O16 0.295557 0.763687 0.250000
O O17 0.250000 0.715529 0.000000
O O18 0.334993 0.692715 0.000688
O O19 0.250000 0.715528 0.500000
#
# Coordination Sequence:
#
# PCOD9334856 Si02
#       8
#     8   8   8   8   8   8   8   8
#     4  11  25  43  60  83 120 161 202 248 295 348
#     4  10  21  37  63  93 121 156 198 245 296 352
#     4  10  21  37  63  93 121 156 198 245 296 352
#     4   9  16  33  57  89 124 151 190 244 294 345
#     4   9  17  33  59  89 122 154 188 239 295 347
#     4  11  22  39  63  90 120 154 196 244 298 358
#     4  11  22  39  63  90 120 154 196 244 298 358
#     4  11  25  43  60  83 120 161 202 248 295 348
#
# _framework density 19.770973999999999
#
# number of rings (size 3 to 8) (size 9 to 14) (size 15 to 20)
#    0.000    1.750    2.500    1.875    1.750    3.000 
#    0.000    3.750    0.000    0.000    0.000    0.000 
#    0.000    0.000    0.000    0.000    0.000    0.000 
#
# Total GULP energy -178763.702142 kJ/mol
# GULP energy per Si atom -5586.365692 kJ/mol
# Density = 1.972597 g / cm^3
# Si number density = 19.770974 Si / 1000 Ang^3
#
#
#
# Elastic Constant Matrix: (Units=GPa)
#
#
# Indices 1 2 3 4 5 6 
#
# 1 197.8923 86.9031 18.8126 0.0000 0.0000 0.0000
# 2 86.9031 153.3837 17.7988 0.0000 0.0000 0.0000
# 3 18.8126 17.7988 23.5285 0.0000 0.0000 0.0000
# 4 0.0000 0.0000 0.0000 16.3252 0.0000 0.0000
# 5 0.0000 0.0000 0.0000 0.0000 27.4771 0.0000
# 6 0.0000 0.0000 0.0000 0.0000 0.0000 19.0830
#
#
#
# Elastic Compliance Matrix: (Units=1/GPa)
#
#
# Indices 1 2 3 4 5 6 
#
# 1 0.006892 -0.003579 -0.002803 0.000000 0.000000 0.000000
# 2 -0.003579 0.009006 -0.003951 0.000000 0.000000 0.000000
# 3 -0.002803 -0.003951 0.047731 0.000000 0.000000 0.000000
# 4 0.000000 0.000000 0.000000 0.061255 0.000000 0.000000
# 5 0.000000 0.000000 0.000000 0.000000 0.036394 0.000000
# 6 0.000000 0.000000 0.000000 0.000000 0.000000 0.052403
#
#
# Mechanical properties :
#
#
# Convention : Reuss Voigt Hill
#
# Bulk Modulus (GPa) = 23.27576 69.09261 46.18419
# Shear Modulus (GPa) = 20.10721 29.32972 24.71846
#
# Velocity S-wave (km/s) = 3.19251 3.85577 3.53971
# Velocity P-wave (km/s) = 5.03863 7.40574 6.33375
#
# Compressibility (1/GPa) = 0.04296315
#
# Stress axis : x y z
#
# Youngs Moduli (GPa) = 145.10583 111.03680 20.95064
#
# Poissons Ratio (x) = 0.39744 0.05872
# Poissons Ratio (y) = 0.51938 0.08277
# Poissons Ratio (z) = 0.40667 0.43870
#
# Static dielectric constant tensor:
#      x y z
#    x 1.664630 0.000000 0.000000 
#    y 0.000000 1.697150 0.000000 
#    z 0.000000 0.000000 1.686300 
# 
# From -- ./inp_files/16993.got.cif
#   From: 2010.05.17/outbox.cif.g08.bks.cpg/sg24_9_cif.got.tgz:16993.got - 2010.06.04 00:33:39.
