data_PCOD9334421
_publ_section_title
;
Structure prediction by ZEFSAII (Michael W. Deem and Ramdas Pophale) SiO2 
 PCOD9334421
Probable space group: I 21 21 21
;
_chemical_formula_sum "Si O2"
_cell_formula_units_Z 60
_cell_length_a 5.867519
_cell_length_b 20.348286
_cell_length_c 23.335658
_cell_angle_alpha 90.000000
_cell_angle_beta 90.000000
_cell_angle_gamma 90.000000
_cell_volume 2786.136495
_symmetry_space_group_name_H-M "I 21 21 21"
_symmetry_group_IT_number 24
_symmetry_cell_setting 'orthorhombic'
loop_
_space_group_symop_operation_xyz
x,y,z
-x,1/2-y,z
x,-y,1/2-z
1/2-x,y,-z
1/2+x,1/2+y,1/2+z
1/2-x,-y,1/2+z
1/2+x,1/2-y,-z
-x,1/2+y,1/2-z
loop_
_atom_site_type_symbol
_atom_site_label
_atom_site_fract_x
_atom_site_fract_y
_atom_site_fract_z
Si Si1 0.093426 0.443201 0.290494
Si Si2 0.078226 0.543832 0.449234
Si Si3 0.888859 0.184443 0.214057
Si Si4 0.813562 0.426649 0.409080
Si Si5 0.751031 0.274308 0.432823
Si Si6 0.500000 0.750000 0.359873
Si Si7 0.768062 0.631407 0.382010
Si Si8 0.552925 0.015828 0.140584
O O1 0.986188 0.500000 0.250000
O O2 0.133611 0.375689 0.257210
O O3 0.335727 0.473949 0.309300
O O4 0.942359 0.430223 0.347217
O O5 0.250000 0.557768 0.500000
O O6 0.231240 0.545608 0.392112
O O7 0.967576 0.471166 0.451272
O O8 0.881363 0.595840 0.436094
O O9 0.663299 0.209174 0.182483
O O10 0.000000 0.250000 0.241237
O O11 0.052639 0.159295 0.163396
O O12 0.767106 0.352918 0.427523
O O13 0.578389 0.465308 0.400416
O O14 0.500000 0.250000 0.409696
O O15 0.750000 0.254238 0.500000
O O16 0.000000 0.250000 0.409056
O O17 0.622138 0.694970 0.397479
O O18 0.620136 0.575321 0.349877
#
# Coordination Sequence:
#
# PCOD9334421 Si02
#       8
#     8   8   8   8   8   4   8   8
#     4  11  22  39  60  91 135 168 217 275 329 403
#     4  10  22  37  62  96 126 160 210 273 327 394
#     4  10  22  39  62  93 122 168 219 262 318 395
#     4  10  24  39  61  92 131 171 220 275 334 397
#     4  10  24  43  69  97 132 184 236 286 341 413
#     4  10  20  38  66  90 120 170 214 262 322 398
#     4  10  20  39  61  95 122 161 220 259 324 400
#     4  10  22  38  60  94 122 168 207 266 333 382
#
# _framework density 21.535198999999999
#
# number of rings (size 3 to 8) (size 9 to 14) (size 15 to 20)
#    0.000    1.867    0.000    4.000    5.600    6.400 
#    0.000    1.333    0.000    0.000   78.000    0.000 
#    0.000    0.000    0.000    0.000    0.000    0.000 
#
# Total GULP energy -167484.994444 kJ/mol
# GULP energy per Si atom -5582.833148 kJ/mol
# Density = 2.148618 g / cm^3
# Si number density = 21.535199 Si / 1000 Ang^3
#
#
#
# Elastic Constant Matrix: (Units=GPa)
#
#
# Indices 1 2 3 4 5 6 
#
# 1 113.0264 65.8123 21.2952 0.0000 0.0000 0.0000
# 2 65.8123 174.0769 40.9694 0.0000 0.0000 0.0000
# 3 21.2952 40.9694 44.2625 0.0000 0.0000 0.0000
# 4 0.0000 0.0000 0.0000 16.4705 0.0000 0.0000
# 5 0.0000 0.0000 0.0000 0.0000 18.0539 0.0000
# 6 0.0000 0.0000 0.0000 0.0000 0.0000 42.8760
#
#
#
# Elastic Compliance Matrix: (Units=1/GPa)
#
#
# Indices 1 2 3 4 5 6 
#
# 1 0.011472 -0.003884 -0.001924 0.000000 0.000000 0.000000
# 2 -0.003884 0.008660 -0.006147 0.000000 0.000000 0.000000
# 3 -0.001924 -0.006147 0.029208 0.000000 0.000000 0.000000
# 4 0.000000 0.000000 0.000000 0.060714 0.000000 0.000000
# 5 0.000000 0.000000 0.000000 0.000000 0.055390 0.000000
# 6 0.000000 0.000000 0.000000 0.000000 0.000000 0.023323
#
#
# Mechanical properties :
#
#
# Convention : Reuss Voigt Hill
#
# Bulk Modulus (GPa) = 39.32484 65.27994 52.30239
# Shear Modulus (GPa) = 22.60886 29.03268 25.82077
#
# Velocity S-wave (km/s) = 3.24366 3.67570 3.46642
# Velocity P-wave (km/s) = 5.68585 6.95653 6.35304
#
# Compressibility (1/GPa) = 0.02542922
#
# Stress axis : x y z
#
# Youngs Moduli (GPa) = 87.17136 115.47723 34.23778
#
# Poissons Ratio (x) = 0.44854 0.06587
# Poissons Ratio (y) = 0.33859 0.21045
# Poissons Ratio (z) = 0.16771 0.70980
#
# Static dielectric constant tensor:
#      x y z
#    x 1.841850 0.000000 0.000000 
#    y 0.000000 1.764700 0.000000 
#    z 0.000000 0.000000 1.793490 
# 
# From -- ./inp_files/34799.got.cif
#   From: 2010.05.17/outbox.cif.g08.bks.cpg/sg24_18_cif.got.tgz:34799.got - 2010.06.04 00:33:39.
