data_PCOD9334387
_publ_section_title
;
Structure prediction by ZEFSAII (Michael W. Deem and Ramdas Pophale) SiO2 
 PCOD9334387
Probable space group: I 21 21 21
;
_chemical_formula_sum "Si O2"
_cell_formula_units_Z 32
_cell_length_a 8.227825
_cell_length_b 14.237850
_cell_length_c 11.332933
_cell_angle_alpha 90.000000
_cell_angle_beta 90.000000
_cell_angle_gamma 90.000000
_cell_volume 1327.613868
_symmetry_space_group_name_H-M "I 21 21 21"
_symmetry_group_IT_number 24
_symmetry_cell_setting 'orthorhombic'
loop_
_space_group_symop_operation_xyz
x,y,z
-x,1/2-y,z
x,-y,1/2-z
1/2-x,y,-z
1/2+x,1/2+y,1/2+z
1/2-x,-y,1/2+z
1/2+x,1/2-y,-z
-x,1/2+y,1/2-z
loop_
_atom_site_type_symbol
_atom_site_label
_atom_site_fract_x
_atom_site_fract_y
_atom_site_fract_z
Si Si1 0.089627 0.596208 0.679356
Si Si2 0.071815 0.353019 0.280003
Si Si3 0.068609 0.857340 0.450124
Si Si4 0.750000 0.150218 0.500000
Si Si5 0.000000 0.750000 0.831797
O O1 0.095776 0.500000 0.750000
O O2 0.262706 0.646578 0.701218
O O3 0.961510 0.663800 0.745546
O O4 0.041511 0.587545 0.544595
O O5 0.130176 0.398511 0.404161
O O6 0.000000 0.250000 0.309814
O O7 0.946938 0.394031 0.184071
O O8 0.250000 0.858781 0.500000
O O9 0.000000 0.750000 0.451050
O O10 0.641531 0.214876 0.416199
#
# Coordination Sequence:
#
# PCOD9334387 Si02
#       5
#     8   8   8   4   4
#     4  11  24  44  68 104 140 188 239 297 371 434
#     4  10  21  41  68  97 134 184 239 293 357 428
#     4  11  22  40  72 103 138 184 247 306 364 430
#     4  10  20  38  64 100 132 188 238 280 366 434
#     4  10  22  40  68  88 140 178 230 296 350 440
#
# _framework density 24.103394000000002
#
# number of rings (size 3 to 8) (size 9 to 14) (size 15 to 20)
#    0.000    1.500    2.500    3.750    7.000    0.000 
#   20.250    1.250    0.000    0.000    0.000    0.000 
#    0.000    0.000    0.000    0.000    0.000    0.000 
#
# Total GULP energy -89309.534856 kJ/mol
# GULP energy per Si atom -5581.845928 kJ/mol
# Density = 2.404853 g / cm^3
# Si number density = 24.103394 Si / 1000 Ang^3
#
#
#
# Elastic Constant Matrix: (Units=GPa)
#
#
# Indices 1 2 3 4 5 6 
#
# 1 94.2363 19.6450 60.0133 0.0000 0.0000 0.0000
# 2 19.6450 87.7973 45.3047 0.0000 0.0000 0.0000
# 3 60.0133 45.3047 208.9657 0.0001 0.0000 0.0000
# 4 0.0000 0.0000 0.0001 35.4224 0.0000 0.0000
# 5 0.0000 0.0000 0.0000 0.0000 43.7112 0.0000
# 6 0.0000 0.0000 0.0000 0.0000 0.0000 7.5233
#
#
#
# Elastic Compliance Matrix: (Units=1/GPa)
#
#
# Indices 1 2 3 4 5 6 
#
# 1 0.013083 -0.001113 -0.003516 0.000000 0.000000 0.000000
# 2 -0.001113 0.012919 -0.002481 0.000000 0.000000 0.000000
# 3 -0.003516 -0.002481 0.006333 0.000000 0.000000 0.000000
# 4 0.000000 0.000000 0.000000 0.028231 0.000000 0.000000
# 5 0.000000 0.000000 0.000000 0.000000 0.022877 0.000000
# 6 0.000000 0.000000 0.000000 0.000000 0.000000 0.132920
#
#
# Mechanical properties :
#
#
# Convention : Reuss Voigt Hill
#
# Bulk Modulus (GPa) = 55.20390 71.21391 63.20890
# Shear Modulus (GPa) = 21.13075 35.06713 28.09894
#
# Velocity S-wave (km/s) = 2.96408 3.81840 3.41804
# Velocity P-wave (km/s) = 5.88787 7.00354 6.46980
#
# Compressibility (1/GPa) = 0.01811466
#
# Stress axis : x y z
#
# Youngs Moduli (GPa) = 76.43655 77.40348 157.89832
#
# Poissons Ratio (x) = 0.08615 0.55516
# Poissons Ratio (y) = 0.08508 0.39180
# Poissons Ratio (z) = 0.26875 0.19206
#
# Static dielectric constant tensor:
#      x y z
#    x 1.994610 0.000000 0.000000 
#    y 0.000000 1.938160 0.000000 
#    z 0.000000 0.000000 2.012470 
# 
# From -- ./inp_files/18079.got.cif
#   From: 2010.05.17/outbox.cif.g08.bks.cpg/sg24_10_cif.got.tgz:18079.got - 2010.06.04 00:33:39.
