data_PCOD9334225
_publ_section_title
;
Structure prediction by ZEFSAII (Michael W. Deem and Ramdas Pophale) SiO2 
 PCOD9334225
Probable space group: I 21 21 21
;
_chemical_formula_sum "Si O2"
_cell_formula_units_Z 60
_cell_length_a 8.097467
_cell_length_b 13.301126
_cell_length_c 25.328775
_cell_angle_alpha 90.000000
_cell_angle_beta 90.000000
_cell_angle_gamma 90.000000
_cell_volume 2728.046574
_symmetry_space_group_name_H-M "I 21 21 21"
_symmetry_group_IT_number 24
_symmetry_cell_setting 'orthorhombic'
loop_
_space_group_symop_operation_xyz
x,y,z
-x,1/2-y,z
x,-y,1/2-z
1/2-x,y,-z
1/2+x,1/2+y,1/2+z
1/2-x,-y,1/2+z
1/2+x,1/2-y,-z
-x,1/2+y,1/2-z
loop_
_atom_site_type_symbol
_atom_site_label
_atom_site_fract_x
_atom_site_fract_y
_atom_site_fract_z
Si Si1 0.192269 0.968330 0.443725
Si Si2 0.689492 0.775604 0.839326
Si Si3 0.359623 0.470138 0.362566
Si Si4 0.172647 0.500000 0.750000
Si Si5 0.676761 0.110557 0.941276
Si Si6 0.689688 0.216313 0.777130
Si Si7 0.181996 0.212928 0.887873
Si Si8 0.607957 0.662651 0.072294
O O1 0.250000 0.925403 0.500000
O O2 0.287298 0.904367 0.399054
O O3 0.998811 0.945154 0.438501
O O4 0.247993 0.085120 0.445455
O O5 0.500000 0.750000 0.846499
O O6 0.710665 0.894273 0.848293
O O7 0.742671 0.743969 0.780409
O O8 0.805643 0.723529 0.881172
O O9 0.432444 0.484613 0.303723
O O10 0.289155 0.562789 0.394929
O O11 0.475864 0.412800 0.403039
O O12 0.282131 0.403641 0.768614
O O13 0.686704 0.227061 0.924430
O O14 0.750000 0.097150 0.000000
O O15 0.500000 0.250000 0.784928
O O16 0.788008 0.258209 0.827000
O O17 0.000000 0.250000 0.903902
O O18 0.500000 0.750000 0.041349
#
# Coordination Sequence:
#
# PCOD9334225 Si02
#       8
#     8   8   8   4   8   8   8   8
#     4  12  26  45  69 100 136 180 233 287 352 419
#     4   9  19  38  61  90 130 171 220 279 342 400
#     4  10  20  37  63  92 128 173 218 274 337 398
#     4  10  20  36  68  90 138 178 224 280 344 404
#     4  12  24  43  69  97 139 182 229 283 347 418
#     4  10  21  39  62  96 135 180 232 283 344 416
#     4  12  25  42  66  99 139 180 231 285 349 421
#     4  10  22  43  66  96 134 170 228 283 348 414
#
# _framework density 21.993758
#
# number of rings (size 3 to 8) (size 9 to 14) (size 15 to 20)
#    0.000    1.333    1.333    4.800    0.000    2.667 
#    0.000    6.000    0.000    0.000    0.000    0.000 
#    0.000    0.000    0.000    0.000    0.000    0.000 
#
# Total GULP energy -167264.018872 kJ/mol
# GULP energy per Si atom -5575.467296 kJ/mol
# Density = 2.194370 g / cm^3
# Si number density = 21.993758 Si / 1000 Ang^3
#
#
#
# Elastic Constant Matrix: (Units=GPa)
#
#
# Indices 1 2 3 4 5 6 
#
# 1 69.7612 15.3185 -1.3594 0.0000 0.0000 0.0000
# 2 15.3185 97.2762 9.4934 0.0000 0.0000 0.0000
# 3 -1.3594 9.4934 64.3217 0.0000 0.0000 0.0000
# 4 0.0000 0.0000 0.0000 30.6354 0.0000 0.0000
# 5 0.0000 0.0000 0.0000 0.0000 18.5676 0.0000
# 6 0.0000 0.0000 0.0000 0.0000 0.0000 32.9633
#
#
#
# Elastic Compliance Matrix: (Units=1/GPa)
#
#
# Indices 1 2 3 4 5 6 
#
# 1 0.014876 -0.002408 0.000670 0.000000 0.000000 0.000000
# 2 -0.002408 0.010820 -0.001648 0.000000 0.000000 0.000000
# 3 0.000670 -0.001648 0.015804 0.000000 0.000000 0.000000
# 4 0.000000 0.000000 0.000000 0.032642 0.000000 0.000000
# 5 0.000000 0.000000 0.000000 0.000000 0.053857 0.000000
# 6 0.000000 0.000000 0.000000 0.000000 0.000000 0.030337
#
#
# Mechanical properties :
#
#
# Convention : Reuss Voigt Hill
#
# Bulk Modulus (GPa) = 28.79475 30.91825 29.85650
# Shear Modulus (GPa) = 28.29896 30.29370 29.29633
#
# Velocity S-wave (km/s) = 3.59093 3.71533 3.65366
# Velocity P-wave (km/s) = 5.50578 5.70028 5.60387
#
# Compressibility (1/GPa) = 0.03472855
#
# Stress axis : x y z
#
# Youngs Moduli (GPa) = 67.22045 92.42123 63.27420
#
# Poissons Ratio (x) = 0.22255 -0.04238
# Poissons Ratio (y) = 0.16187 0.10427
# Poissons Ratio (z) = -0.04502 0.15230
#
# Static dielectric constant tensor:
#      x y z
#    x 1.810840 0.000000 0.000000 
#    y 0.000000 2.161010 0.000000 
#    z 0.000000 0.000000 1.810710 
# 
# From -- ./inp_files/36932.got.cif
#   From: 2010.05.17/outbox.cif.g08.bks.cpg/sg24_19_cif.got.tgz:36932.got - 2010.06.04 00:33:39.
