data_PCOD9334097
_publ_section_title
;
Structure prediction by ZEFSAII (Michael W. Deem and Ramdas Pophale) SiO2 
 PCOD9334097
Probable space group: I 21 21 21
;
_chemical_formula_sum "Si O2"
_cell_formula_units_Z 48
_cell_length_a 18.641775
_cell_length_b 7.867786
_cell_length_c 16.536096
_cell_angle_alpha 90.000000
_cell_angle_beta 90.000000
_cell_angle_gamma 90.000000
_cell_volume 2425.340872
_symmetry_space_group_name_H-M "I 21 21 21"
_symmetry_group_IT_number 24
_symmetry_cell_setting 'orthorhombic'
loop_
_space_group_symop_operation_xyz
x,y,z
-x,1/2-y,z
x,-y,1/2-z
1/2-x,y,-z
1/2+x,1/2+y,1/2+z
1/2-x,-y,1/2+z
1/2+x,1/2-y,-z
-x,1/2+y,1/2-z
loop_
_atom_site_type_symbol
_atom_site_label
_atom_site_fract_x
_atom_site_fract_y
_atom_site_fract_z
Si Si1 0.724506 0.162190 0.707331
Si Si2 0.683712 0.975110 0.062316
Si Si3 0.198074 0.086015 0.430070
Si Si4 0.068488 0.817034 0.980822
Si Si5 0.306942 0.181705 0.142205
Si Si6 0.463897 0.065600 0.163251
O O1 0.784900 0.091431 0.646984
O O2 0.684550 0.290912 0.646755
O O3 0.765049 0.256190 0.778872
O O4 0.686428 0.000000 0.750000
O O5 0.620207 0.845784 0.037902
O O6 0.663985 0.168136 0.084477
O O7 0.750000 0.993859 0.000000
O O8 0.250000 0.164132 0.500000
O O9 0.122197 0.056432 0.472457
O O10 0.247296 0.931178 0.402243
O O11 0.000000 0.750000 0.029664
O O12 0.032970 0.920688 0.906062
O O13 0.378160 0.086929 0.169268
O O14 0.500000 0.250000 0.145730
O O15 0.492802 0.000000 0.250000
#
# Coordination Sequence:
#
# PCOD9334097 Si02
#       6
#     8   8   8   8   8   8
#     4  10  20  35  60  94 121 159 211 263 321 392
#     4  11  20  38  64  95 125 163 215 273 326 390
#     4  12  20  41  63  89 124 165 218 278 325 383
#     4  12  24  40  63  89 132 175 216 267 341 394
#     4  11  23  36  65  96 125 164 223 269 325 396
#     4  12  25  41  60  92 138 183 216 259 323 400
#
# _framework density 19.791032000000001
#
# number of rings (size 3 to 8) (size 9 to 14) (size 15 to 20)
#    0.000    0.667    5.000    4.500    0.000    2.000 
#    0.000    0.000    0.000    2.000    0.000    0.000 
#    0.000    0.000    0.000    0.000    0.000    0.000 
#
# Total GULP energy -133687.931536 kJ/mol
# GULP energy per Si atom -5570.330481 kJ/mol
# Density = 1.974599 g / cm^3
# Si number density = 19.791032 Si / 1000 Ang^3
#
#
#
# Elastic Constant Matrix: (Units=GPa)
#
#
# Indices 1 2 3 4 5 6 
#
# 1 97.2081 26.4395 27.8635 0.0000 0.0000 0.0000
# 2 26.4395 83.3586 28.5916 0.0000 0.0000 0.0000
# 3 27.8635 28.5916 83.4010 0.0000 0.0000 0.0000
# 4 0.0000 0.0000 0.0000 25.3368 0.0000 0.0000
# 5 0.0000 0.0000 0.0000 0.0000 3.8645 0.0000
# 6 0.0000 0.0000 0.0000 0.0000 0.0000 17.5591
#
#
#
# Elastic Compliance Matrix: (Units=1/GPa)
#
#
# Indices 1 2 3 4 5 6 
#
# 1 0.011902 -0.002732 -0.003040 0.000000 0.000000 0.000000
# 2 -0.002732 0.014222 -0.003963 0.000000 0.000000 0.000000
# 3 -0.003040 -0.003963 0.014364 0.000000 0.000000 0.000000
# 4 0.000000 0.000000 0.000000 0.039468 0.000000 0.000000
# 5 0.000000 0.000000 0.000000 0.000000 0.258766 0.000000
# 6 0.000000 0.000000 0.000000 0.000000 0.000000 0.056951
#
#
# Mechanical properties :
#
#
# Convention : Reuss Voigt Hill
#
# Bulk Modulus (GPa) = 47.57664 47.75077 47.66370
# Shear Modulus (GPa) = 11.84417 21.42363 16.63390
#
# Velocity S-wave (km/s) = 2.44900 3.29369 2.90224
# Velocity P-wave (km/s) = 5.66467 6.21646 5.94697
#
# Compressibility (1/GPa) = 0.02101872
#
# Stress axis : x y z
#
# Youngs Moduli (GPa) = 84.02216 70.31239 69.61719
#
# Poissons Ratio (x) = 0.19212 0.21160
# Poissons Ratio (y) = 0.22958 0.27588
# Poissons Ratio (z) = 0.25539 0.27863
#
# Static dielectric constant tensor:
#      x y z
#    x 1.692970 0.000000 0.000000 
#    y 0.000000 1.853610 0.000000 
#    z 0.000000 0.000000 1.749860 
# 
# From -- ./inp_files/12801.got.cif
#   From: 2010.05.17/outbox.cif.g08.bks.cpg/sg24_7_cif.got.tgz:12801.got - 2010.06.04 00:33:39.
