data_PCOD9334640
_publ_section_title
;
Structure prediction by ZEFSAII (Michael W. Deem and Ramdas Pophale) SiO2 
 PCOD9334640
Probable space group: I 21 21 21
;
_chemical_formula_sum "Si O2"
_cell_formula_units_Z 56
_cell_length_a 16.152483
_cell_length_b 5.704130
_cell_length_c 28.467935
_cell_angle_alpha 90.000000
_cell_angle_beta 90.000000
_cell_angle_gamma 90.000000
_cell_volume 2622.917755
_symmetry_space_group_name_H-M "I 21 21 21"
_symmetry_group_IT_number 24
_symmetry_cell_setting 'orthorhombic'
loop_
_space_group_symop_operation_xyz
x,y,z
-x,1/2-y,z
x,-y,1/2-z
1/2-x,y,-z
1/2+x,1/2+y,1/2+z
1/2-x,-y,1/2+z
1/2+x,1/2-y,-z
-x,1/2+y,1/2-z
loop_
_atom_site_type_symbol
_atom_site_label
_atom_site_fract_x
_atom_site_fract_y
_atom_site_fract_z
Si Si1 0.976212 0.507546 0.103636
Si Si2 0.953589 0.004355 0.908984
Si Si3 0.422803 0.886114 0.202842
Si Si4 0.817268 0.801861 0.655348
Si Si5 0.750000 0.675211 0.000000
Si Si6 0.299147 0.110900 0.923398
Si Si7 0.805983 0.000000 0.750000
Si Si8 0.601639 0.979925 0.516115
O O1 0.877895 0.520895 0.097707
O O2 0.000000 0.750000 0.128641
O O3 0.026836 0.510388 0.053485
O O4 0.000000 0.250000 0.123597
O O5 0.000000 0.750000 0.911776
O O6 0.876379 0.011960 0.872154
O O7 0.000000 0.250000 0.896177
O O8 0.926731 0.053242 0.962980
O O9 0.500000 0.750000 0.180385
O O10 0.359010 0.703458 0.225068
O O11 0.461232 0.000000 0.250000
O O12 0.375051 0.081262 0.172147
O O13 0.748815 0.738263 0.617481
O O14 0.770427 0.883409 0.702958
O O15 0.767498 0.534931 0.952511
O O16 0.667255 0.811138 0.986878
O O17 0.342933 0.273191 0.962297
#
# Coordination Sequence:
#
# PCOD9334640 Si02
#       8
#     8   8   8   8   4   8   4   8
#     4  10  20  41  67  94 132 182 241 285 339 423
#     4  12  29  44  65 101 145 193 247 301 350 424
#     4  10  21  40  67  94 127 186 238 293 357 439
#     4  11  27  43  64 103 138 188 245 307 376 433
#     4  12  22  36  64  88 138 194 226 296 350 416
#     4  11  24  42  64  98 140 186 249 300 362 432
#     4  10  24  44  68  86 140 178 248 300 368 438
#     4  11  24  42  65  97 141 195 241 285 360 421
#
# _framework density 21.350270999999999
#
# number of rings (size 3 to 8) (size 9 to 14) (size 15 to 20)
#    0.000    1.143    2.143    3.857    8.000    1.143 
#    2.571    0.000    0.000    0.000    0.000    0.000 
#   57.857    0.000    0.000    0.000    0.000    0.000 
#
# Total GULP energy -156090.818181 kJ/mol
# GULP energy per Si atom -5574.672078 kJ/mol
# Density = 2.130168 g / cm^3
# Si number density = 21.350271 Si / 1000 Ang^3
#
#
#
# Elastic Constant Matrix: (Units=GPa)
#
#
# Indices 1 2 3 4 5 6 
#
# 1 76.2551 26.2316 21.4549 0.0000 0.0000 0.0000
# 2 26.2316 110.7130 17.1165 0.0000 0.0000 0.0000
# 3 21.4549 17.1165 76.7602 0.0000 0.0000 0.0000
# 4 0.0000 0.0000 0.0000 25.4747 0.0000 0.0000
# 5 0.0000 0.0000 0.0000 0.0000 -1.4775 0.0000
# 6 0.0000 0.0000 0.0000 0.0000 0.0000 24.1976
#
#
#
# Elastic Compliance Matrix: (Units=1/GPa)
#
#
# Indices 1 2 3 4 5 6 
#
# 1 0.015162 -0.003042 -0.003559 0.000000 0.000000 0.000000
# 2 -0.003042 0.009965 -0.001372 0.000000 0.000000 0.000000
# 3 -0.003559 -0.001372 0.014328 0.000000 0.000000 0.000000
# 4 0.000000 0.000000 0.000000 0.039255 0.000000 0.000000
# 5 0.000000 0.000000 0.000000 0.000000 -0.676831 0.000000
# 6 0.000000 0.000000 0.000000 0.000000 0.000000 0.041326
#
#
# Mechanical properties :
#
#
# Convention : Reuss Voigt Hill
#
# Bulk Modulus (GPa) = 42.53745 43.70381 43.12063
# Shear Modulus (GPa) = -9.38065 22.90066 6.76000
#
# Velocity S-wave (km/s) = -2.09839 3.27864 1.78132
# Velocity P-wave (km/s) = 3.75445 5.90313 4.94686
#
# Compressibility (1/GPa) = 0.02350870
#
# Stress axis : x y z
#
# Youngs Moduli (GPa) = 65.95520 100.34909 69.79157
#
# Poissons Ratio (x) = 0.30527 0.24842
# Poissons Ratio (y) = 0.20064 0.09574
# Poissons Ratio (z) = 0.23477 0.13766
#
# Static dielectric constant tensor:
#      x y z
#    x 1.798950 0.000000 0.000000 
#    y 0.000000 1.940510 0.000000 
#    z 0.000000 0.000000 1.823360 
# 
# From -- ./inp_files/38754.got.cif
#   From: 2010.05.17/outbox.cif.g08.bks.cpg/sg24_20_cif.got.tgz:38754.got - 2010.06.04 00:33:39.
