data_PCOD9334533
_publ_section_title
;
Structure prediction by ZEFSAII (Michael W. Deem and Ramdas Pophale) SiO2 
 PCOD9334533
Probable space group: I 21 21 21
;
_chemical_formula_sum "Si O2"
_cell_formula_units_Z 40
_cell_length_a 5.166330
_cell_length_b 27.581311
_cell_length_c 14.600676
_cell_angle_alpha 90.000000
_cell_angle_beta 90.000000
_cell_angle_gamma 90.000000
_cell_volume 2080.510981
_symmetry_space_group_name_H-M "I 21 21 21"
_symmetry_group_IT_number 24
_symmetry_cell_setting 'orthorhombic'
loop_
_space_group_symop_operation_xyz
x,y,z
-x,1/2-y,z
x,-y,1/2-z
1/2-x,y,-z
1/2+x,1/2+y,1/2+z
1/2-x,-y,1/2+z
1/2+x,1/2-y,-z
-x,1/2+y,1/2-z
loop_
_atom_site_type_symbol
_atom_site_label
_atom_site_fract_x
_atom_site_fract_y
_atom_site_fract_z
Si Si1 0.751827 0.216058 0.394809
Si Si2 0.994822 0.000000 0.750000
Si Si3 0.250000 0.957461 0.500000
Si Si4 0.884236 0.036975 0.406058
Si Si5 0.900683 0.404011 0.824761
Si Si6 0.919893 0.126018 0.273807
O O1 0.500000 0.250000 0.379365
O O2 0.750000 0.197465 0.500000
O O3 0.802558 0.172574 0.324934
O O4 0.000000 0.250000 0.387783
O O5 0.817990 0.988441 0.837376
O O6 0.163564 0.953675 0.729072
O O7 0.390466 0.920980 0.429580
O O8 0.421442 0.994803 0.560293
O O9 0.750000 0.053489 0.500000
O O10 0.971077 0.085169 0.352039
O O11 0.680498 0.367809 0.786759
O O12 0.189257 0.391351 0.793069
#
# Coordination Sequence:
#
# PCOD9334533 Si02
#       6
#     8   4   4   8   8   8
#     4  10  21  41  66  91 121 150 189 245 313 383
#     4  10  20  40  50  80 118 166 210 262 286 350
#     4  12  22  38  56  86 118 180 206 248 292 342
#     4  11  22  35  55  79 120 162 208 243 291 343
#     4  11  23  37  58  80 123 156 209 248 289 348
#     4  11  24  39  58  91 117 156 196 254 300 362
#
# _framework density 19.226047000000001
#
# number of rings (size 3 to 8) (size 9 to 14) (size 15 to 20)
#    0.000    1.200    2.000    5.400    2.800    0.800 
#    5.400    0.000    0.000    0.000    0.000   14.000 
#    0.000    0.000    0.000    0.000    0.000    0.000 
#
# Total GULP energy -111569.618768 kJ/mol
# GULP energy per Si atom -5578.480938 kJ/mol
# Density = 1.918229 g / cm^3
# Si number density = 19.226047 Si / 1000 Ang^3
#
#
#
# Elastic Constant Matrix: (Units=GPa)
#
#
# Indices 1 2 3 4 5 6 
#
# 1 57.7750 -2.7372 33.4859 0.0000 0.0000 0.0000
# 2 -2.7372 47.3796 29.0688 0.0000 0.0000 0.0000
# 3 33.4859 29.0688 113.4916 0.0000 0.0000 0.0000
# 4 0.0000 0.0000 0.0000 31.1166 0.0000 0.0000
# 5 0.0000 0.0000 0.0000 0.0000 25.8626 0.0000
# 6 0.0000 0.0000 0.0000 0.0000 0.0000 21.5752
#
#
#
# Elastic Compliance Matrix: (Units=1/GPa)
#
#
# Indices 1 2 3 4 5 6 
#
# 1 0.022377 0.006340 -0.008226 0.000000 0.000000 0.000000
# 2 0.006340 0.026837 -0.008744 0.000000 0.000000 0.000000
# 3 -0.008226 -0.008744 0.013478 0.000000 0.000000 0.000000
# 4 0.000000 0.000000 0.000000 0.032137 0.000000 0.000000
# 5 0.000000 0.000000 0.000000 0.000000 0.038666 0.000000
# 6 0.000000 0.000000 0.000000 0.000000 0.000000 0.046349
#
#
# Mechanical properties :
#
#
# Convention : Reuss Voigt Hill
#
# Bulk Modulus (GPa) = 24.13685 37.58680 30.86183
# Shear Modulus (GPa) = 23.26487 26.29946 24.78217
#
# Velocity S-wave (km/s) = 3.48238 3.70254 3.59414
# Velocity P-wave (km/s) = 5.36198 6.15392 5.77155
#
# Compressibility (1/GPa) = 0.04143043
#
# Stress axis : x y z
#
# Youngs Moduli (GPa) = 44.68947 37.26152 74.19467
#
# Poissons Ratio (x) = -0.23623 0.61033
# Poissons Ratio (y) = -0.28332 0.64879
# Poissons Ratio (z) = 0.36762 0.32583
#
# Static dielectric constant tensor:
#      x y z
#    x 1.722540 0.000000 0.000000 
#    y 0.000000 1.643660 0.000000 
#    z 0.000000 0.000000 1.704050 
# 
# From -- ./inp_files/17652.got.cif
#   From: 2010.05.17/outbox.cif.g08.bks.cpg/sg24_9_cif.got.tgz:17652.got - 2010.06.04 00:33:39.
