data_PCOD9334466
_publ_section_title
;
Structure prediction by ZEFSAII (Michael W. Deem and Ramdas Pophale) SiO2 
 PCOD9334466
Probable space group: I 21 21 21
;
_chemical_formula_sum "Si O2"
_cell_formula_units_Z 48
_cell_length_a 14.145354
_cell_length_b 14.500749
_cell_length_c 11.442121
_cell_angle_alpha 90.000000
_cell_angle_beta 90.000000
_cell_angle_gamma 90.000000
_cell_volume 2346.987583
_symmetry_space_group_name_H-M "I 21 21 21"
_symmetry_group_IT_number 24
_symmetry_cell_setting 'orthorhombic'
loop_
_space_group_symop_operation_xyz
x,y,z
-x,1/2-y,z
x,-y,1/2-z
1/2-x,y,-z
1/2+x,1/2+y,1/2+z
1/2-x,-y,1/2+z
1/2+x,1/2-y,-z
-x,1/2+y,1/2-z
loop_
_atom_site_type_symbol
_atom_site_label
_atom_site_fract_x
_atom_site_fract_y
_atom_site_fract_z
Si Si1 0.440057 0.500000 0.750000
Si Si2 0.532182 0.525660 0.503044
Si Si3 0.539035 0.848905 0.084325
Si Si4 0.301625 0.327871 0.754753
Si Si5 0.750000 0.827775 0.000000
Si Si6 0.108248 0.359694 0.844445
Si Si7 0.394397 0.215321 0.956040
O O1 0.500605 0.509080 0.634443
O O2 0.380560 0.405864 0.740084
O O3 0.539495 0.425336 0.446681
O O4 0.447102 0.570249 0.426699
O O5 0.608167 0.607363 0.513800
O O6 0.500000 0.750000 0.043466
O O7 0.644555 0.870925 0.030420
O O8 0.552790 0.846308 0.224021
O O9 0.272858 0.285774 0.628541
O O10 0.213329 0.385243 0.806778
O O11 0.330949 0.252224 0.850457
O O12 0.120737 0.268898 0.922802
O O13 0.500000 0.250000 0.921096
#
# Coordination Sequence:
#
# PCOD9334466 Si02
#       7
#     4   8   8   8   4   8   8
#     4  12  22  32  58  90 122 158 206 254 338 370
#     4  11  23  38  60  95 124 165 217 264 321 401
#     4  11  23  40  63  93 131 173 213 277 335 383
#     4  11  22  36  59  90 130 162 208 268 322 388
#     4  10  24  38  60  94 126 164 216 262 340 386
#     4  10  22  37  62  93 128 166 210 263 325 391
#     4  10  20  39  60  87 126 171 214 254 320 398
#
# _framework density 20.451749
#
# number of rings (size 3 to 8) (size 9 to 14) (size 15 to 20)
#    0.000    1.333    5.000    2.500    4.667    2.000 
#    0.000    0.000    3.667    0.000    0.000    0.000 
#    0.000    0.000    0.000    0.000    0.000    0.000 
#
# Total GULP energy -133628.917759 kJ/mol
# GULP energy per Si atom -5567.871573 kJ/mol
# Density = 2.040520 g / cm^3
# Si number density = 20.451749 Si / 1000 Ang^3
#
#
#
# Elastic Constant Matrix: (Units=GPa)
#
#
# Indices 1 2 3 4 5 6 
#
# 1 23.3543 -0.4740 13.1157 0.0000 0.0000 0.0000
# 2 -0.4740 128.0947 35.1868 0.0000 0.0000 0.0000
# 3 13.1157 35.1868 147.0195 0.0000 0.0000 0.0000
# 4 0.0000 0.0000 0.0000 -17.3955 0.0000 0.0000
# 5 0.0000 0.0000 0.0000 0.0000 17.6888 0.0000
# 6 0.0000 0.0000 0.0000 0.0000 0.0000 12.8313
#
#
#
# Elastic Compliance Matrix: (Units=1/GPa)
#
#
# Indices 1 2 3 4 5 6 
#
# 1 0.045300 0.001368 -0.004369 0.000000 0.000000 0.000000
# 2 0.001368 0.008397 -0.002132 0.000000 0.000000 0.000000
# 3 -0.004369 -0.002132 0.007702 0.000000 0.000000 0.000000
# 4 0.000000 0.000000 0.000000 -0.057486 0.000000 0.000000
# 5 0.000000 0.000000 0.000000 0.000000 0.056533 0.000000
# 6 0.000000 0.000000 0.000000 0.000000 0.000000 0.077934
#
#
# Mechanical properties :
#
#
# Convention : Reuss Voigt Hill
#
# Bulk Modulus (GPa) = 19.55666 43.79171 31.67418
# Shear Modulus (GPa) = 30.17688 19.33427 24.75557
#
# Velocity S-wave (km/s) = 3.84541 3.07801 3.48291
# Velocity P-wave (km/s) = 5.41289 5.83874 5.62984
#
# Compressibility (1/GPa) = 0.05113349
#
# Stress axis : x y z
#
# Youngs Moduli (GPa) = 22.07519 119.08488 129.84069
#
# Poissons Ratio (x) = -0.16287 0.56721
# Poissons Ratio (y) = -0.03019 0.27679
# Poissons Ratio (z) = 0.09644 0.25386
#
# Static dielectric constant tensor:
#      x y z
#    x 1.778160 0.000000 0.000000 
#    y 0.000000 1.769180 0.000000 
#    z 0.000000 0.000000 1.720360 
# 
# From -- ./inp_files/20778.got.cif
#   From: 2010.05.17/outbox.cif.g08.bks.cpg/sg24_11_cif.got.tgz:20778.got - 2010.06.04 00:33:39.
