data_PCOD9334002
_publ_section_title
;
Structure prediction by ZEFSAII (Michael W. Deem and Ramdas Pophale) SiO2 
 PCOD9334002
Probable space group: I 21 21 21
;
_chemical_formula_sum "Si O2"
_cell_formula_units_Z 48
_cell_length_a 15.117390
_cell_length_b 5.386008
_cell_length_c 29.749744
_cell_angle_alpha 90.000000
_cell_angle_beta 90.000000
_cell_angle_gamma 90.000000
_cell_volume 2422.295064
_symmetry_space_group_name_H-M "I 21 21 21"
_symmetry_group_IT_number 24
_symmetry_cell_setting 'orthorhombic'
loop_
_space_group_symop_operation_xyz
x,y,z
-x,1/2-y,z
x,-y,1/2-z
1/2-x,y,-z
1/2+x,1/2+y,1/2+z
1/2-x,-y,1/2+z
1/2+x,1/2-y,-z
-x,1/2+y,1/2-z
loop_
_atom_site_type_symbol
_atom_site_label
_atom_site_fract_x
_atom_site_fract_y
_atom_site_fract_z
Si Si1 0.250000 0.348198 0.000000
Si Si2 0.188407 0.579765 0.798070
Si Si3 0.554698 0.500000 0.750000
Si Si4 0.722334 0.453101 0.086737
Si Si5 0.410158 0.339935 0.461936
Si Si6 0.923375 0.908246 0.627290
Si Si7 0.707611 0.432363 0.819126
O O1 0.265279 0.183758 0.955676
O O2 0.159549 0.501324 0.991065
O O3 0.150573 0.500000 0.750000
O O4 0.116111 0.598698 0.837387
O O5 0.235782 0.844887 0.796450
O O6 0.253191 0.345994 0.810687
O O7 0.500000 0.750000 0.758303
O O8 0.615067 0.446838 0.793674
O O9 0.658973 0.658501 0.064026
O O10 0.655278 0.268989 0.111682
O O11 0.789177 0.508035 0.127718
O O12 0.500000 0.250000 0.486833
O O13 0.454683 0.485492 0.420128
O O14 0.000000 0.750000 0.649432
#
# Coordination Sequence:
#
# PCOD9334002 Si02
#       7
#     4   8   4   8   8   8   8
#     4  10  24  38  62 100 128 172 230 280 344 412
#     4  11  20  37  61  94 129 177 211 258 323 390
#     4  12  24  42  70 100 128 172 230 290 348 410
#     4  10  21  39  63  88 126 170 218 268 335 407
#     4  11  20  38  67  91 126 172 223 275 336 407
#     4  10  20  34  56  93 123 163 213 265 317 391
#     4  11  22  40  67  92 128 171 224 274 331 406
#
# _framework density 19.815916999999999
#
# number of rings (size 3 to 8) (size 9 to 14) (size 15 to 20)
#    0.000    1.333    5.000    1.500    0.000    0.000 
#    0.000    4.167    7.333    0.000    0.000    0.000 
#    0.000    0.000    0.000    0.000    0.000    0.000 
#
# Total GULP energy -133649.539509 kJ/mol
# GULP energy per Si atom -5568.730813 kJ/mol
# Density = 1.977082 g / cm^3
# Si number density = 19.815917 Si / 1000 Ang^3
#
#
#
# Elastic Constant Matrix: (Units=GPa)
#
#
# Indices 1 2 3 4 5 6 
#
# 1 72.4482 17.9799 40.8325 0.0000 0.0000 0.0000
# 2 17.9799 69.3060 14.3882 0.0000 0.0000 0.0000
# 3 40.8325 14.3882 110.9975 0.0000 0.0000 0.0000
# 4 0.0000 0.0000 0.0000 29.3912 0.0000 0.0000
# 5 0.0000 0.0000 0.0000 0.0000 68.8061 0.0000
# 6 0.0000 0.0000 0.0000 0.0000 0.0000 26.9657
#
#
#
# Elastic Compliance Matrix: (Units=1/GPa)
#
#
# Indices 1 2 3 4 5 6 
#
# 1 0.018168 -0.003418 -0.006241 0.000000 0.000000 0.000000
# 2 -0.003418 0.015471 -0.000748 0.000000 0.000000 0.000000
# 3 -0.006241 -0.000748 0.011402 0.000000 0.000000 0.000000
# 4 0.000000 0.000000 0.000000 0.034024 0.000000 0.000000
# 5 0.000000 0.000000 0.000000 0.000000 0.014534 0.000000
# 6 0.000000 0.000000 0.000000 0.000000 0.000000 0.037084
#
#
# Mechanical properties :
#
#
# Convention : Reuss Voigt Hill
#
# Bulk Modulus (GPa) = 41.27437 44.35030 42.81234
# Shear Modulus (GPa) = 31.33391 37.00269 34.16830
#
# Velocity S-wave (km/s) = 3.98081 4.32594 4.15696
# Velocity P-wave (km/s) = 6.48099 6.88342 6.68523
#
# Compressibility (1/GPa) = 0.02422811
#
# Stress axis : x y z
#
# Youngs Moduli (GPa) = 55.04055 64.63805 87.70480
#
# Poissons Ratio (x) = 0.22092 0.54733
# Poissons Ratio (y) = 0.18812 0.06561
# Poissons Ratio (z) = 0.34348 0.04836
#
# Static dielectric constant tensor:
#      x y z
#    x 1.665700 0.000000 0.000000 
#    y 0.000000 1.720720 0.000000 
#    z 0.000000 0.000000 1.735400 
# 
# From -- ./inp_files/3779.got.cif
#   From: 2010.05.17/outbox.cif.g08.bks.cpg/sg24_2_cif.got.tgz:3779.got - 2010.06.04 00:33:39.
