data_PCOD9334738
_publ_section_title
;
Structure prediction by ZEFSAII (Michael W. Deem and Ramdas Pophale) SiO2 
 PCOD9334738
Probable space group: I 21 21 21
;
_chemical_formula_sum "Si O2"
_cell_formula_units_Z 48
_cell_length_a 31.073102
_cell_length_b 14.428176
_cell_length_c 5.408366
_cell_angle_alpha 90.000000
_cell_angle_beta 90.000000
_cell_angle_gamma 90.000000
_cell_volume 2424.722910
_symmetry_space_group_name_H-M "I 21 21 21"
_symmetry_group_IT_number 24
_symmetry_cell_setting 'orthorhombic'
loop_
_space_group_symop_operation_xyz
x,y,z
-x,1/2-y,z
x,-y,1/2-z
1/2-x,y,-z
1/2+x,1/2+y,1/2+z
1/2-x,-y,1/2+z
1/2+x,1/2-y,-z
-x,1/2+y,1/2-z
loop_
_atom_site_type_symbol
_atom_site_label
_atom_site_fract_x
_atom_site_fract_y
_atom_site_fract_z
Si Si1 0.945157 0.672376 0.463161
Si Si2 0.629680 0.635481 0.136840
Si Si3 0.594166 0.500000 0.750000
Si Si4 0.408647 0.312449 0.584108
Si Si5 0.907568 0.000000 0.250000
Si Si6 0.531157 0.095727 0.161217
Si Si7 0.727011 0.611755 0.251897
O O1 0.908516 0.650393 0.666109
O O2 0.937292 0.586796 0.280570
O O3 0.935445 0.765824 0.310567
O O4 0.991917 0.657238 0.571051
O O5 0.676656 0.634707 0.252403
O O6 0.623427 0.541975 0.971919
O O7 0.623647 0.729636 0.979273
O O8 0.384744 0.408978 0.645347
O O9 0.441631 0.345699 0.365884
O O10 0.937024 0.951621 0.460177
O O11 0.508772 0.000000 0.250000
O O12 0.730629 0.500000 0.250000
O O13 0.750000 0.646118 0.500000
O O14 0.750000 0.644995 0.000000
#
# Coordination Sequence:
#
# PCOD9334738 Si02
#       7
#     8   8   4   8   4   8   8
#     4  11  22  37  57  84 120 162 207 258 312 371
#     4  11  23  37  59  89 125 163 207 250 308 376
#     4  10  21  34  58  86 122 166 204 256 302 376
#     4  10  24  38  58  82 120 155 217 262 315 368
#     4  10  21  40  58  78 114 158 210 264 318 360
#     4  10  21  38  57  82 117 164 211 261 312 365
#     4  10  23  39  64  92 129 171 204 244 303 379
#
# _framework density 19.796077
#
# number of rings (size 3 to 8) (size 9 to 14) (size 15 to 20)
#    0.000    1.667    0.000    4.000    8.167    8.000 
#    0.000    1.667    0.000    0.000    0.000    0.000 
#   12.500    0.000    0.000    0.000    0.000    0.000 
#
# Total GULP energy -133769.553616 kJ/mol
# GULP energy per Si atom -5573.731401 kJ/mol
# Density = 1.975102 g / cm^3
# Si number density = 19.796077 Si / 1000 Ang^3
#
#
#
# Elastic Constant Matrix: (Units=GPa)
#
#
# Indices 1 2 3 4 5 6 
#
# 1 71.9700 13.3042 39.4491 0.0000 0.0000 0.0000
# 2 13.3042 144.0504 28.5767 0.0000 0.0000 0.0000
# 3 39.4491 28.5767 98.8298 -0.0002 0.0001 -0.0001
# 4 0.0000 0.0000 -0.0002 36.3062 0.0000 0.0000
# 5 0.0000 0.0000 0.0001 0.0000 27.0661 0.0000
# 6 0.0000 0.0000 -0.0001 0.0000 0.0000 10.2236
#
#
#
# Elastic Compliance Matrix: (Units=1/GPa)
#
#
# Indices 1 2 3 4 5 6 
#
# 1 0.017795 -0.000249 -0.007031 0.000000 0.000000 0.000000
# 2 -0.000249 0.007368 -0.002031 0.000000 0.000000 0.000000
# 3 -0.007031 -0.002031 0.013512 0.000000 0.000000 0.000000
# 4 0.000000 0.000000 0.000000 0.027544 0.000000 0.000000
# 5 0.000000 0.000000 0.000000 0.000000 0.036947 0.000000
# 6 0.000000 0.000000 0.000000 0.000000 0.000000 0.097813
#
#
# Mechanical properties :
#
#
# Convention : Reuss Voigt Hill
#
# Bulk Modulus (GPa) = 49.86781 53.05670 51.46226
# Shear Modulus (GPa) = 22.09610 30.28717 26.19164
#
# Velocity S-wave (km/s) = 3.34456 3.91571 3.64135
# Velocity P-wave (km/s) = 6.33721 6.87776 6.61301
#
# Compressibility (1/GPa) = 0.02005302
#
# Stress axis : x y z
#
# Youngs Moduli (GPa) = 56.19688 135.72337 74.00699
#
# Poissons Ratio (x) = 0.03375 0.52034
# Poissons Ratio (y) = 0.01397 0.15032
# Poissons Ratio (z) = 0.39512 0.27568
#
# Static dielectric constant tensor:
#      x y z
#    x 1.654140 0.000000 0.000000 
#    y 0.000000 1.802510 0.000000 
#    z 0.000000 0.000000 1.941700 
# 
# From -- ./inp_files/7147.got.cif
#   From: 2010.05.17/outbox.cif.g08.bks.cpg/sg24_4_cif.got.tgz:7147.got - 2010.06.04 00:33:39.
