data_PCOD9334001
_publ_section_title
;
Structure prediction by ZEFSAII (Michael W. Deem and Ramdas Pophale) SiO2 
 PCOD9334001
Probable space group: I 21 21 21
;
_chemical_formula_sum "Si O2"
_cell_formula_units_Z 48
_cell_length_a 26.744186
_cell_length_b 11.675037
_cell_length_c 7.705430
_cell_angle_alpha 90.000000
_cell_angle_beta 90.000000
_cell_angle_gamma 90.000000
_cell_volume 2405.938540
_symmetry_space_group_name_H-M "I 21 21 21"
_symmetry_group_IT_number 24
_symmetry_cell_setting 'orthorhombic'
loop_
_space_group_symop_operation_xyz
x,y,z
-x,1/2-y,z
x,-y,1/2-z
1/2-x,y,-z
1/2+x,1/2+y,1/2+z
1/2-x,-y,1/2+z
1/2+x,1/2-y,-z
-x,1/2+y,1/2-z
loop_
_atom_site_type_symbol
_atom_site_label
_atom_site_fract_x
_atom_site_fract_y
_atom_site_fract_z
Si Si1 0.617273 0.809706 0.547944
Si Si2 0.117273 0.309705 0.452058
Si Si3 0.694945 0.368835 0.042907
Si Si4 0.305055 0.131164 0.457093
Si Si5 0.692840 0.000000 0.543398
Si Si6 0.038028 0.360070 0.750001
O O1 0.604795 0.832538 0.750001
O O2 0.645428 0.688813 0.534084
O O3 0.571668 0.836427 0.421165
O O4 0.662088 0.891289 0.482397
O O5 0.145428 0.188811 0.465917
O O6 0.162089 0.391288 0.517603
O O7 0.071668 0.336426 0.578838
O O8 0.690005 0.365955 0.249999
O O9 0.696937 0.499999 0.981652
O O10 0.750000 0.316864 0.000000
O O11 0.250000 0.183135 0.500000
O O12 0.750000 1.000000 0.500000
O O13 0.689616 0.000000 0.750000
O O14 0.023656 0.500000 0.750000
O O15 0.000000 0.250000 0.750001
#
# Coordination Sequence:
#
# PCOD9334001 Si02
#       6
#     8   8   8   8   8   8
#     4  11  23  42  66  96 134 175 223 287 348 424
#     4  11  23  42  66  96 134 175 223 287 348 424
#     4  10  20  34  56  92 139 187 231 277 338 421
#     4  10  20  34  56  92 139 187 231 277 338 421
#     4  10  22  34  60 100 136 176 214 257 337 421
#     4  12  28  50  76 100 134 180 240 310 366 416
#
# _framework density 19.950635999999999
#
# number of rings (size 3 to 8) (size 9 to 14) (size 15 to 20)
#    0.000    1.333    3.333    2.000    2.333    6.667 
#    0.000    0.000    0.000    0.000    0.000    0.000 
#    0.000    0.000    0.000    0.000    0.000    0.000 
#
# Total GULP energy -133747.881574 kJ/mol
# GULP energy per Si atom -5572.828399 kJ/mol
# Density = 1.990523 g / cm^3
# Si number density = 19.950636 Si / 1000 Ang^3
#
#
#
# Elastic Constant Matrix: (Units=GPa)
#
#
# Indices 1 2 3 4 5 6 
#
# 1 112.5911 60.2522 45.3789 0.0000 0.0000 0.0000
# 2 60.2522 106.7152 21.0876 0.0000 0.0000 0.0000
# 3 45.3789 21.0876 104.2054 0.0000 0.0000 0.0000
# 4 0.0000 0.0000 0.0000 37.5071 0.0000 0.0000
# 5 0.0000 0.0000 0.0000 0.0000 37.5679 0.0000
# 6 0.0000 0.0000 0.0000 0.0000 0.0000 8.1821
#
#
#
# Elastic Compliance Matrix: (Units=1/GPa)
#
#
# Indices 1 2 3 4 5 6 
#
# 1 0.014843 -0.007399 -0.004966 0.000000 0.000000 0.000000
# 2 -0.007399 0.013449 0.000500 0.000000 0.000000 0.000000
# 3 -0.004966 0.000500 0.011658 0.000000 0.000000 0.000000
# 4 0.000000 0.000000 0.000000 0.026662 0.000000 0.000000
# 5 0.000000 0.000000 0.000000 0.000000 0.026618 0.000000
# 6 0.000000 0.000000 0.000000 0.000000 0.000000 0.122217
#
#
# Mechanical properties :
#
#
# Convention : Reuss Voigt Hill
#
# Bulk Modulus (GPa) = 61.65174 64.10547 62.87860
# Shear Modulus (GPa) = 20.44284 29.77095 25.10689
#
# Velocity S-wave (km/s) = 3.20452 3.86713 3.55131
# Velocity P-wave (km/s) = 6.68290 7.22090 6.95710
#
# Compressibility (1/GPa) = 0.01622014
#
# Stress axis : x y z
#
# Youngs Moduli (GPa) = 67.37227 74.35275 85.77854
#
# Poissons Ratio (x) = 0.55014 0.42601
# Poissons Ratio (y) = 0.49849 -0.04292
# Poissons Ratio (z) = 0.33460 -0.03721
#
# Static dielectric constant tensor:
#      x y z
#    x 1.703610 0.000000 0.000000 
#    y 0.000000 1.804120 0.000000 
#    z 0.000000 0.000000 1.708780 
# 
# From -- ./inp_files/11273.got.cif
#   From: 2010.05.17/outbox.cif.g08.bks.cpg/sg24_6_cif.got.tgz:11273.got - 2010.06.04 00:33:39.
