data_PCOD9334025
_publ_section_title
;
Structure prediction by ZEFSAII (Michael W. Deem and Ramdas Pophale) SiO2 
 PCOD9334025
Probable space group: I 21 21 21
;
_chemical_formula_sum "Si O2"
_cell_formula_units_Z 64
_cell_length_a 11.898394
_cell_length_b 14.639635
_cell_length_c 14.870295
_cell_angle_alpha 90.000000
_cell_angle_beta 90.000000
_cell_angle_gamma 90.000000
_cell_volume 2590.229105
_symmetry_space_group_name_H-M "I 21 21 21"
_symmetry_group_IT_number 24
_symmetry_cell_setting 'orthorhombic'
loop_
_space_group_symop_operation_xyz
x,y,z
-x,1/2-y,z
x,-y,1/2-z
1/2-x,y,-z
1/2+x,1/2+y,1/2+z
1/2-x,-y,1/2+z
1/2+x,1/2-y,-z
-x,1/2+y,1/2-z
loop_
_atom_site_type_symbol
_atom_site_label
_atom_site_fract_x
_atom_site_fract_y
_atom_site_fract_z
Si Si1 0.089091 0.995448 0.845213
Si Si2 0.314758 0.979345 0.902635
Si Si3 0.040620 0.843175 0.397895
Si Si4 0.440210 0.661363 0.091925
Si Si5 0.282064 0.359760 0.896317
Si Si6 0.760989 0.946341 0.111546
Si Si7 0.523582 0.153648 0.610226
Si Si8 0.384495 0.203891 0.099656
O O1 0.112878 0.098424 0.873991
O O2 0.030612 0.000000 0.750000
O O3 0.212545 0.951407 0.838390
O O4 0.015773 0.930148 0.906895
O O5 0.409251 0.902146 0.902650
O O6 0.376289 0.073878 0.873719
O O7 0.250000 0.988700 0.000000
O O8 0.097647 0.804878 0.490634
O O9 0.000000 0.750000 0.348387
O O10 0.914908 0.883568 0.403299
O O11 0.500000 0.750000 0.131984
O O12 0.325744 0.632416 0.137601
O O13 0.422893 0.681348 0.986610
O O14 0.230148 0.452206 0.855632
O O15 0.220928 0.265152 0.866322
O O16 0.250000 0.356549 0.000000
O O17 0.881265 0.913156 0.147628
O O18 0.750000 0.951904 0.000000
O O19 0.500000 0.250000 0.656375
O O20 0.500000 0.250000 0.132161
#
# Coordination Sequence:
#
# PCOD9334025 Si02
#       8
#     8   8   8   8   8   8   8   8
#     4  12  27  42  59  86 126 172 211 254 305 371
#     4  12  22  38  63  89 123 160 208 257 308 362
#     4  11  20  30  54  93 124 152 188 243 310 370
#     4  10  21  38  61  88 124 158 204 256 309 365
#     4  11  18  30  52  91 133 152 180 243 311 377
#     4   9  19  32  53  91 130 151 188 250 313 368
#     4  10  20  34  61  96 121 156 196 261 320 355
#     4  11  21  34  59  88 124 164 198 242 309 373
#
# _framework density 24.708238999999999
#
# number of rings (size 3 to 8) (size 9 to 14) (size 15 to 20)
#    0.000    1.250    6.250    1.500    3.500    1.000 
#    0.000    0.000    0.000    3.000    0.000    0.000 
#    0.000    0.000    0.000    0.000    0.000    0.000 
#
# Total GULP energy -178329.450237 kJ/mol
# GULP energy per Si atom -5572.795320 kJ/mol
# Density = 2.465200 g / cm^3
# Si number density = 24.708239 Si / 1000 Ang^3
#
#
#
# Elastic Constant Matrix: (Units=GPa)
#
#
# Indices 1 2 3 4 5 6 
#
# 1 122.5777 38.1094 -9.1695 0.0000 0.0000 0.0000
# 2 38.1094 171.9917 3.8666 0.0000 0.0000 0.0000
# 3 -9.1695 3.8666 46.3914 0.0000 0.0000 0.0000
# 4 0.0000 0.0000 0.0000 -6.1152 0.0000 0.0000
# 5 0.0000 0.0000 0.0000 0.0000 -4.1805 0.0000
# 6 0.0000 0.0000 0.0000 0.0000 0.0000 38.8506
#
#
#
# Elastic Compliance Matrix: (Units=1/GPa)
#
#
# Indices 1 2 3 4 5 6 
#
# 1 0.008932 -0.002023 0.001934 0.000000 0.000000 0.000000
# 2 -0.002023 0.006283 -0.000923 0.000000 0.000000 0.000000
# 3 0.001934 -0.000923 0.022015 0.000000 0.000000 0.000000
# 4 0.000000 0.000000 0.000000 -0.163528 0.000000 0.000000
# 5 0.000000 0.000000 0.000000 0.000000 -0.239208 0.000000
# 6 0.000000 0.000000 0.000000 0.000000 0.000000 0.025740
#
#
# Mechanical properties :
#
#
# Convention : Reuss Voigt Hill
#
# Bulk Modulus (GPa) = 28.40458 45.17487 36.78973
# Shear Modulus (GPa) = -15.33705 26.25462 5.45878
#
# Velocity S-wave (km/s) = -2.49414 3.26327 1.48798
# Velocity P-wave (km/s) = 1.79628 5.70277 4.22778
#
# Compressibility (1/GPa) = 0.03520559
#
# Stress axis : x y z
#
# Youngs Moduli (GPa) = 111.96259 159.15626 45.42375
#
# Poissons Ratio (x) = 0.32189 -0.08785
# Poissons Ratio (y) = 0.22644 0.04195
# Poissons Ratio (z) = -0.21653 0.14697
#
# Static dielectric constant tensor:
#      x y z
#    x 1.974790 0.000000 0.000000 
#    y 0.000000 2.079540 0.000000 
#    z 0.000000 0.000000 2.062020 
# 
# From -- ./inp_files/30376.got.cif
#   From: 2010.05.17/outbox.cif.g08.bks.cpg/sg24_16_cif.got.tgz:30376.got - 2010.06.04 00:33:39.
