data_PCOD9334333
_publ_section_title
;
Structure prediction by ZEFSAII (Michael W. Deem and Ramdas Pophale) SiO2 
 PCOD9334333
Probable space group: I 21 21 21
;
_chemical_formula_sum "Si O2"
_cell_formula_units_Z 60
_cell_length_a 5.384804
_cell_length_b 17.269836
_cell_length_c 27.848060
_cell_angle_alpha 90.000000
_cell_angle_beta 90.000000
_cell_angle_gamma 90.000000
_cell_volume 2589.721483
_symmetry_space_group_name_H-M "I 21 21 21"
_symmetry_group_IT_number 24
_symmetry_cell_setting 'orthorhombic'
loop_
_space_group_symop_operation_xyz
x,y,z
-x,1/2-y,z
x,-y,1/2-z
1/2-x,y,-z
1/2+x,1/2+y,1/2+z
1/2-x,-y,1/2+z
1/2+x,1/2-y,-z
-x,1/2+y,1/2-z
loop_
_atom_site_type_symbol
_atom_site_label
_atom_site_fract_x
_atom_site_fract_y
_atom_site_fract_z
Si Si1 0.058309 0.371898 0.579975
Si Si2 0.050777 0.585266 0.762351
Si Si3 0.950183 0.373146 0.842618
Si Si4 0.253741 0.296661 0.665987
Si Si5 0.250000 0.895938 0.000000
Si Si6 0.748383 0.542226 0.154366
Si Si7 0.549017 0.166489 0.898218
Si Si8 0.428048 0.500941 0.927494
O O1 0.252149 0.320945 0.609577
O O2 0.171149 0.455202 0.565222
O O3 0.933672 0.344094 0.531638
O O4 0.855670 0.389400 0.621041
O O5 0.153067 0.500000 0.750000
O O6 0.227691 0.629715 0.799167
O O7 0.997624 0.633050 0.714227
O O8 0.794260 0.568510 0.791462
O O9 0.923549 0.465754 0.850992
O O10 0.685266 0.341896 0.861486
O O11 0.186004 0.339099 0.870906
O O12 0.500000 0.250000 0.677119
O O13 0.000000 0.250000 0.675103
O O14 0.111042 0.952231 0.037601
O O15 0.999232 0.516713 0.128465
O O16 0.500000 0.250000 0.921696
O O17 0.552123 0.091064 0.932615
#
# Coordination Sequence:
#
# PCOD9334333 Si02
#       8
#     8   8   8   8   4   8   8   8
#     4  10  20  40  69  94 128 169 218 278 338 417
#     4   9  20  41  66  98 134 184 241 288 327 392
#     4  10  20  38  57  90 126 173 230 279 318 383
#     4  11  27  45  69 100 145 189 226 280 356 417
#     4  10  22  38  72 104 122 162 230 288 330 410
#     4   8  17  35  58  92 121 169 219 274 327 388
#     4  11  23  39  62  89 132 179 219 270 348 407
#     4  10  20  38  68  92 128 166 226 276 340 408
#
# _framework density 23.168516
#
# number of rings (size 3 to 8) (size 9 to 14) (size 15 to 20)
#    0.000    2.133    1.333    0.800    5.600    2.667 
#    2.400    2.667    5.867    0.000    0.000    0.000 
#    0.000    0.000    0.000    0.000    0.000    0.000 
#
# Total GULP energy -167434.224095 kJ/mol
# GULP energy per Si atom -5581.140803 kJ/mol
# Density = 2.311578 g / cm^3
# Si number density = 23.168516 Si / 1000 Ang^3
#
#
#
# Elastic Constant Matrix: (Units=GPa)
#
#
# Indices 1 2 3 4 5 6 
#
# 1 109.5376 31.2936 25.3055 0.0000 0.0000 0.0000
# 2 31.2936 98.7256 21.5660 0.0000 0.0000 0.0000
# 3 25.3055 21.5660 86.0373 0.0000 0.0000 0.0000
# 4 0.0000 0.0000 0.0000 12.3739 0.0000 0.0000
# 5 0.0000 0.0000 0.0000 0.0000 24.8778 0.0000
# 6 0.0000 0.0000 0.0000 0.0000 0.0000 27.8010
#
#
#
# Elastic Compliance Matrix: (Units=1/GPa)
#
#
# Indices 1 2 3 4 5 6 
#
# 1 0.010480 -0.002802 -0.002380 0.000000 0.000000 0.000000
# 2 -0.002802 0.011465 -0.002050 0.000000 0.000000 0.000000
# 3 -0.002380 -0.002050 0.012837 0.000000 0.000000 0.000000
# 4 0.000000 0.000000 0.000000 0.080816 0.000000 0.000000
# 5 0.000000 0.000000 0.000000 0.000000 0.040197 0.000000
# 6 0.000000 0.000000 0.000000 0.000000 0.000000 0.035970
#
#
# Mechanical properties :
#
#
# Convention : Reuss Voigt Hill
#
# Bulk Modulus (GPa) = 49.21722 50.07009 49.64366
# Shear Modulus (GPa) = 23.47430 27.41956 25.44693
#
# Velocity S-wave (km/s) = 3.18653 3.44391 3.31772
# Velocity P-wave (km/s) = 5.90152 6.12146 6.01249
#
# Compressibility (1/GPa) = 0.02031809
#
# Stress axis : x y z
#
# Youngs Moduli (GPa) = 95.42376 87.22237 77.90202
#
# Poissons Ratio (x) = 0.24439 0.18540
# Poissons Ratio (y) = 0.26737 0.15967
# Poissons Ratio (z) = 0.22711 0.17878
#
# Static dielectric constant tensor:
#      x y z
#    x 1.917700 0.000000 0.000000 
#    y 0.000000 1.945360 0.000000 
#    z 0.000000 0.000000 1.879070 
# 
# From -- ./inp_files/36565.got.cif
#   From: 2010.05.17/outbox.cif.g08.bks.cpg/sg24_19_cif.got.tgz:36565.got - 2010.06.04 00:33:39.
