data_PCOD9334229
_publ_section_title
;
Structure prediction by ZEFSAII (Michael W. Deem and Ramdas Pophale) SiO2 
 PCOD9334229
Probable space group: I 21 21 21
;
_chemical_formula_sum "Si O2"
_cell_formula_units_Z 56
_cell_length_a 16.375268
_cell_length_b 8.646311
_cell_length_c 20.315110
_cell_angle_alpha 90.000000
_cell_angle_beta 90.000000
_cell_angle_gamma 90.000000
_cell_volume 2876.328254
_symmetry_space_group_name_H-M "I 21 21 21"
_symmetry_group_IT_number 24
_symmetry_cell_setting 'orthorhombic'
loop_
_space_group_symop_operation_xyz
x,y,z
-x,1/2-y,z
x,-y,1/2-z
1/2-x,y,-z
1/2+x,1/2+y,1/2+z
1/2-x,-y,1/2+z
1/2+x,1/2-y,-z
-x,1/2+y,1/2-z
loop_
_atom_site_type_symbol
_atom_site_label
_atom_site_fract_x
_atom_site_fract_y
_atom_site_fract_z
Si Si1 0.913368 0.060911 0.822220
Si Si2 0.909855 0.500000 0.250000
Si Si3 0.000000 0.250000 0.159274
Si Si4 0.461155 0.524435 0.918920
Si Si5 0.208833 0.084060 0.562523
Si Si6 0.610573 0.419342 0.179455
Si Si7 0.918481 0.154372 0.558488
Si Si8 0.626713 0.678423 0.873407
O O1 0.879630 0.234579 0.823797
O O2 0.012565 0.059136 0.828334
O O3 0.892978 0.000000 0.750000
O O4 0.886693 0.948528 0.881131
O O5 0.960898 0.378321 0.206569
O O6 0.863202 0.606919 0.198786
O O7 0.053963 0.354776 0.109995
O O8 0.556440 0.573791 0.909190
O O9 0.410761 0.650628 0.876936
O O10 0.439223 0.550608 0.994945
O O11 0.250000 0.997340 0.500000
O O12 0.146839 0.216366 0.538756
O O13 0.285710 0.167462 0.595012
O O14 0.160606 0.990316 0.618556
O O15 0.631925 0.500000 0.250000
O O16 0.000000 0.250000 0.577873
#
# Coordination Sequence:
#
# PCOD9334229 Si02
#       8
#     8   4   4   8   8   8   8   8
#     4  10  22  40  66 100 123 167 221 270 320 388
#     4  10  20  38  60  96 128 164 212 262 320 382
#     4  10  20  36  70  94 126 164 218 274 312 384
#     4  10  20  40  62  93 124 169 218 259 314 390
#     4  12  23  40  65  92 128 174 211 269 324 386
#     4  10  22  40  67  95 130 166 214 268 325 392
#     4  12  21  40  65  88 127 169 214 266 323 380
#     4  10  21  38  63  91 126 163 214 255 318 383
#
# _framework density 19.469266000000001
#
# number of rings (size 3 to 8) (size 9 to 14) (size 15 to 20)
#    0.000    1.429    4.286    2.571    3.000    1.143 
#    2.571    3.571    3.143    0.000    0.000    0.000 
#    0.000    0.000    0.000    0.000    0.000    0.000 
#
# Total GULP energy -156119.652267 kJ/mol
# GULP energy per Si atom -5575.701867 kJ/mol
# Density = 1.942495 g / cm^3
# Si number density = 19.469266 Si / 1000 Ang^3
#
#
#
# Elastic Constant Matrix: (Units=GPa)
#
#
# Indices 1 2 3 4 5 6 
#
# 1 62.8829 19.9806 21.6775 0.0000 0.0000 0.0000
# 2 19.9806 119.8713 66.9493 0.0000 0.0000 0.0000
# 3 21.6775 66.9493 141.0531 0.0000 0.0000 0.0000
# 4 0.0000 0.0000 0.0000 40.7586 0.0000 0.0000
# 5 0.0000 0.0000 0.0000 0.0000 -272.0259 0.0000
# 6 0.0000 0.0000 0.0000 0.0000 0.0000 9.5155
#
#
#
# Elastic Compliance Matrix: (Units=1/GPa)
#
#
# Indices 1 2 3 4 5 6 
#
# 1 0.017098 -0.001881 -0.001735 0.000000 0.000000 0.000000
# 2 -0.001881 0.011558 -0.005197 0.000000 0.000000 0.000000
# 3 -0.001735 -0.005197 0.009823 0.000000 0.000000 0.000000
# 4 0.000000 0.000000 0.000000 0.024535 0.000000 0.000000
# 5 0.000000 0.000000 0.000000 0.000000 -0.003676 0.000000
# 6 0.000000 0.000000 0.000000 0.000000 0.000000 0.105092
#
#
# Mechanical properties :
#
#
# Convention : Reuss Voigt Hill
#
# Bulk Modulus (GPa) = 47.95315 60.11357 54.03336
# Shear Modulus (GPa) = 26.45403 -30.00369 -1.77483
#
# Velocity S-wave (km/s) = 3.69013 -3.92992 -0.95582
# Velocity P-wave (km/s) = 6.54521 3.21727 5.15706
#
# Compressibility (1/GPa) = 0.02085369
#
# Stress axis : x y z
#
# Youngs Moduli (GPa) = 58.48527 86.51731 101.80356
#
# Poissons Ratio (x) = 0.16274 0.17662
# Poissons Ratio (y) = 0.11001 0.52907
# Poissons Ratio (z) = 0.10147 0.44963
#
# Static dielectric constant tensor:
#      x y z
#    x 1.670080 0.000000 0.000000 
#    y 0.000000 1.681900 0.000000 
#    z 0.000000 0.000000 1.748840 
# 
# From -- ./inp_files/33799.got.cif
#   From: 2010.05.17/outbox.cif.g08.bks.cpg/sg24_17_cif.got.tgz:33799.got - 2010.06.04 00:33:39.
