data_PCOD9334988
_publ_section_title
;
Structure prediction by ZEFSAII (Michael W. Deem and Ramdas Pophale) SiO2 
 PCOD9334988
Probable space group: I 21 21 21
;
_chemical_formula_sum "Si O2"
_cell_formula_units_Z 56
_cell_length_a 8.333679
_cell_length_b 15.176924
_cell_length_c 20.368507
_cell_angle_alpha 90.000000
_cell_angle_beta 90.000000
_cell_angle_gamma 90.000000
_cell_volume 2576.200879
_symmetry_space_group_name_H-M "I 21 21 21"
_symmetry_group_IT_number 24
_symmetry_cell_setting 'orthorhombic'
loop_
_space_group_symop_operation_xyz
x,y,z
-x,1/2-y,z
x,-y,1/2-z
1/2-x,y,-z
1/2+x,1/2+y,1/2+z
1/2-x,-y,1/2+z
1/2+x,1/2-y,-z
-x,1/2+y,1/2-z
loop_
_atom_site_type_symbol
_atom_site_label
_atom_site_fract_x
_atom_site_fract_y
_atom_site_fract_z
Si Si1 0.000000 0.250000 0.302908
Si Si2 0.727170 0.303193 0.213125
Si Si3 0.439254 0.601185 0.492550
Si Si4 0.117682 0.559546 0.184525
Si Si5 0.500000 0.750000 0.391874
Si Si6 0.854274 0.551287 0.941150
Si Si7 0.914066 0.423845 0.116711
Si Si8 0.497443 0.583689 0.200594
O O1 0.158194 0.251030 0.259155
O O2 0.014777 0.350559 0.330792
O O3 0.655263 0.248604 0.153756
O O4 0.841364 0.376920 0.180156
O O5 0.581158 0.341508 0.255619
O O6 0.250000 0.604743 0.500000
O O7 0.498559 0.662981 0.434356
O O8 0.502091 0.503030 0.475606
O O9 0.523220 0.636961 0.558528
O O10 0.082147 0.500000 0.250000
O O11 0.306464 0.581842 0.187790
O O12 0.062269 0.488921 0.130712
O O13 0.729485 0.479747 0.913851
O O14 0.921409 0.590186 0.872200
O O15 0.750000 0.598976 0.000000
O O16 0.528694 0.500000 0.250000
#
# Coordination Sequence:
#
# PCOD9334988 Si02
#       8
#     4   8   8   8   4   8   8   8
#     4  12  26  39  68 106 139 184 228 300 372 420
#     4  12  25  40  65  99 144 185 233 299 351 425
#     4  11  25  38  60  90 137 190 234 279 341 429
#     4  11  24  42  67 101 139 185 243 297 363 425
#     4  12  26  41  58  94 151 188 236 282 352 424
#     4  10  21  39  63  98 131 179 237 286 353 424
#     4  11  22  41  64  92 136 184 239 288 349 414
#     4  11  21  40  69  96 138 191 236 296 356 425
#
# _framework density 21.737435999999999
#
# number of rings (size 3 to 8) (size 9 to 14) (size 15 to 20)
#    0.000    0.857    4.286    2.571    4.000    2.286 
#    0.000    0.000    0.000    0.000    0.000   65.000 
#    0.000    0.000    0.000    0.000    0.000    0.000 
#
# Total GULP energy -156057.180076 kJ/mol
# GULP energy per Si atom -5573.470717 kJ/mol
# Density = 2.168796 g / cm^3
# Si number density = 21.737436 Si / 1000 Ang^3
#
#
#
# Elastic Constant Matrix: (Units=GPa)
#
#
# Indices 1 2 3 4 5 6 
#
# 1 68.5990 7.4137 17.5373 0.0000 0.0000 0.0000
# 2 7.4137 53.3905 27.4492 0.0000 0.0000 0.0000
# 3 17.5373 27.4492 102.9306 0.0000 0.0000 0.0000
# 4 0.0000 0.0000 0.0000 94.8488 0.0000 0.0000
# 5 0.0000 0.0000 0.0000 0.0000 33.7025 0.0000
# 6 0.0000 0.0000 0.0000 0.0000 0.0000 21.0673
#
#
#
# Elastic Compliance Matrix: (Units=1/GPa)
#
#
# Indices 1 2 3 4 5 6 
#
# 1 0.015279 -0.000908 -0.002361 0.000000 0.000000 0.000000
# 2 -0.000908 0.021760 -0.005648 0.000000 0.000000 0.000000
# 3 -0.002361 -0.005648 0.011624 0.000000 0.000000 0.000000
# 4 0.000000 0.000000 0.000000 0.010543 0.000000 0.000000
# 5 0.000000 0.000000 0.000000 0.000000 0.029671 0.000000
# 6 0.000000 0.000000 0.000000 0.000000 0.000000 0.047467
#
#
# Mechanical properties :
#
#
# Convention : Reuss Voigt Hill
#
# Bulk Modulus (GPa) = 32.43731 36.63560 34.53645
# Shear Modulus (GPa) = 30.40352 41.42505 35.91429
#
# Velocity S-wave (km/s) = 3.74394 4.37017 4.06912
# Velocity P-wave (km/s) = 5.80036 6.50806 6.16437
#
# Compressibility (1/GPa) = 0.03082869
#
# Stress axis : x y z
#
# Youngs Moduli (GPa) = 65.44843 45.95627 86.03029
#
# Poissons Ratio (x) = 0.04171 0.20313
# Poissons Ratio (y) = 0.05941 0.48591
# Poissons Ratio (z) = 0.15454 0.25957
#
# Static dielectric constant tensor:
#      x y z
#    x 1.682920 0.000000 0.000000 
#    y 0.000000 1.826980 0.000000 
#    z 0.000000 0.000000 1.885110 
# 
# From -- ./inp_files/32865.got.cif
#   From: 2010.05.17/outbox.cif.g08.bks.cpg/sg24_17_cif.got.tgz:32865.got - 2010.06.04 00:33:39.
