data_PCOD9334889
_publ_section_title
;
Structure prediction by ZEFSAII (Michael W. Deem and Ramdas Pophale) SiO2 
 PCOD9334889
Probable space group: I 21 21 21
;
_chemical_formula_sum "Si O2"
_cell_formula_units_Z 64
_cell_length_a 10.824186
_cell_length_b 16.704987
_cell_length_c 17.933997
_cell_angle_alpha 90.000000
_cell_angle_beta 90.000000
_cell_angle_gamma 90.000000
_cell_volume 3242.787433
_symmetry_space_group_name_H-M "I 21 21 21"
_symmetry_group_IT_number 24
_symmetry_cell_setting 'orthorhombic'
loop_
_space_group_symop_operation_xyz
x,y,z
-x,1/2-y,z
x,-y,1/2-z
1/2-x,y,-z
1/2+x,1/2+y,1/2+z
1/2-x,-y,1/2+z
1/2+x,1/2-y,-z
-x,1/2+y,1/2-z
loop_
_atom_site_type_symbol
_atom_site_label
_atom_site_fract_x
_atom_site_fract_y
_atom_site_fract_z
Si Si1 0.383608 0.457134 0.328366
Si Si2 0.891915 0.503290 0.927075
Si Si3 0.218612 0.383117 0.881111
Si Si4 0.499392 0.840735 0.470987
Si Si5 0.611926 0.310518 0.712325
Si Si6 0.005229 0.879386 0.364869
Si Si7 0.615642 0.542753 0.900215
Si Si8 0.637205 0.788790 0.236916
O O1 0.412824 0.500000 0.250000
O O2 0.506641 0.456045 0.376359
O O3 0.291769 0.521610 0.365351
O O4 0.341778 0.366817 0.315404
O O5 0.756963 0.514487 0.894813
O O6 0.920441 0.408394 0.929665
O O7 0.904756 0.540613 0.010187
O O8 0.140044 0.369382 0.956316
O O9 0.360083 0.360138 0.868549
O O10 0.147800 0.329478 0.818890
O O11 0.500000 0.750000 0.445842
O O12 0.450372 0.844674 0.555773
O O13 0.500000 0.250000 0.695052
O O14 0.573574 0.346074 0.792994
O O15 0.607604 0.376857 0.647285
O O16 0.748017 0.270902 0.721241
O O17 0.027178 0.974420 0.367522
O O18 0.500000 0.750000 0.227634
#
# Coordination Sequence:
#
# PCOD9334889 Si02
#       8
#     8   8   8   8   8   8   8   8
#     4   9  20  37  66  88 121 161 207 262 315 379
#     4   9  20  44  61  94 122 165 220 257 310 396
#     4  10  21  38  59  90 127 167 209 248 312 394
#     4  10  21  38  63  93 128 167 204 258 315 379
#     4  12  25  41  62  97 129 163 219 273 326 371
#     4  11  23  40  59  91 129 172 204 251 321 394
#     4  10  23  40  66  84 127 173 210 261 321 392
#     4  11  23  39  62  93 125 163 211 271 314 367
#
# _framework density 19.736107000000001
#
# number of rings (size 3 to 8) (size 9 to 14) (size 15 to 20)
#    0.000    1.750    1.250    2.250    1.750    6.000 
#    6.750    3.125    0.000    0.000    0.000    0.000 
#    0.000    0.000    0.000    0.000    0.000    0.000 
#
# Total GULP energy -178430.340931 kJ/mol
# GULP energy per Si atom -5575.948154 kJ/mol
# Density = 1.969119 g / cm^3
# Si number density = 19.736107 Si / 1000 Ang^3
#
#
#
# Elastic Constant Matrix: (Units=GPa)
#
#
# Indices 1 2 3 4 5 6 
#
# 1 92.6225 34.8556 17.7752 0.0000 0.0000 0.0000
# 2 34.8556 100.6989 29.0579 0.0000 0.0000 0.0000
# 3 17.7752 29.0579 32.9077 0.0000 0.0000 0.0000
# 4 0.0000 0.0000 0.0000 -48.1208 0.0000 0.0000
# 5 0.0000 0.0000 0.0000 0.0000 8.5618 0.0000
# 6 0.0000 0.0000 0.0000 0.0000 0.0000 14.6457
#
#
#
# Elastic Compliance Matrix: (Units=1/GPa)
#
#
# Indices 1 2 3 4 5 6 
#
# 1 0.012799 -0.003268 -0.004028 0.000000 0.000000 0.000000
# 2 -0.003268 0.014161 -0.010739 0.000000 0.000000 0.000000
# 3 -0.004028 -0.010739 0.042046 0.000000 0.000000 0.000000
# 4 0.000000 0.000000 0.000000 -0.020781 0.000000 0.000000
# 5 0.000000 0.000000 0.000000 0.000000 0.116797 0.000000
# 6 0.000000 0.000000 0.000000 0.000000 0.000000 0.068279
#
#
# Mechanical properties :
#
#
# Convention : Reuss Voigt Hill
#
# Bulk Modulus (GPa) = 30.36124 43.28962 36.82543
# Shear Modulus (GPa) = 17.83487 4.65338 11.24412
#
# Velocity S-wave (km/s) = 3.00937 1.53718 2.38948
# Velocity P-wave (km/s) = 5.24329 5.01322 5.12954
#
# Compressibility (1/GPa) = 0.03293673
#
# Stress axis : x y z
#
# Youngs Moduli (GPa) = 78.12907 70.61861 23.78341
#
# Poissons Ratio (x) = 0.23078 0.09580
# Poissons Ratio (y) = 0.25533 0.25540
# Poissons Ratio (z) = 0.31470 0.75835
#
# Static dielectric constant tensor:
#      x y z
#    x 1.702550 0.000000 0.000000 
#    y 0.000000 1.708330 0.000000 
#    z 0.000000 0.000000 1.718370 
# 
# From -- ./inp_files/30389.got.cif
#   From: 2010.05.17/outbox.cif.g08.bks.cpg/sg24_16_cif.got.tgz:30389.got - 2010.06.04 00:33:39.
