data_PCOD9334344
_publ_section_title
;
Structure prediction by ZEFSAII (Michael W. Deem and Ramdas Pophale) SiO2 
 PCOD9334344
Probable space group: I 21 21 21
;
_chemical_formula_sum "Si O2"
_cell_formula_units_Z 64
_cell_length_a 9.054207
_cell_length_b 14.123237
_cell_length_c 26.015174
_cell_angle_alpha 90.000000
_cell_angle_beta 90.000000
_cell_angle_gamma 90.000000
_cell_volume 3326.682865
_symmetry_space_group_name_H-M "I 21 21 21"
_symmetry_group_IT_number 24
_symmetry_cell_setting 'orthorhombic'
loop_
_space_group_symop_operation_xyz
x,y,z
-x,1/2-y,z
x,-y,1/2-z
1/2-x,y,-z
1/2+x,1/2+y,1/2+z
1/2-x,-y,1/2+z
1/2+x,1/2-y,-z
-x,1/2+y,1/2-z
loop_
_atom_site_type_symbol
_atom_site_label
_atom_site_fract_x
_atom_site_fract_y
_atom_site_fract_z
Si Si1 0.805106 0.636961 0.056656
Si Si2 0.843746 0.300411 0.790728
Si Si3 0.477871 0.849690 0.123483
Si Si4 0.591127 0.394001 0.731315
Si Si5 0.248626 0.352122 0.443060
Si Si6 0.972191 0.971066 0.692779
Si Si7 0.533212 0.961105 0.876147
Si Si8 0.157985 0.370561 0.184216
O O1 0.682235 0.633356 0.100801
O O2 0.834452 0.750690 0.054008
O O3 0.927815 0.564284 0.076157
O O4 0.750000 0.611019 0.000000
O O5 0.736662 0.332444 0.743826
O O6 0.735615 0.231574 0.823667
O O7 0.000000 0.250000 0.775862
O O8 0.907492 0.390777 0.821507
O O9 0.500000 0.750000 0.152189
O O10 0.584163 0.838163 0.074313
O O11 0.518623 0.938325 0.157500
O O12 0.627653 0.500000 0.750000
O O13 0.532775 0.405216 0.673288
O O14 0.452795 0.363352 0.767296
O O15 0.250000 0.394857 0.500000
O O16 0.181669 0.413989 0.397382
O O17 0.804267 0.933168 0.694784
O O18 0.012665 0.000000 0.750000
O O19 0.566925 0.068800 0.858266
#
# Coordination Sequence:
#
# PCOD9334344 Si02
#       8
#     8   8   8   8   8   8   8   8
#     4  10  22  37  55  86 122 157 203 250 312 369
#     4  10  23  39  59  84 124 166 201 250 299 356
#     4  10  22  37  57  86 120 163 203 249 304 371
#     4  10  22  39  59  87 125 159 203 249 298 363
#     4  10  20  38  60  84 118 159 202 256 308 371
#     4  11  22  38  55  84 126 163 207 248 295 360
#     4  11  21  37  61  85 121 161 204 248 305 367
#     4  10  22  39  58  88 121 161 208 248 296 358
#
# _framework density 19.238384
#
# number of rings (size 3 to 8) (size 9 to 14) (size 15 to 20)
#    0.000    1.750    1.250    3.000    5.250    5.500 
#    2.250    0.000    0.000    0.000    0.000    0.875 
#    3.750    0.000    0.000    0.000    0.000    0.000 
#
# Total GULP energy -178345.774906 kJ/mol
# GULP energy per Si atom -5573.305466 kJ/mol
# Density = 1.919460 g / cm^3
# Si number density = 19.238384 Si / 1000 Ang^3
#
#
#
# Elastic Constant Matrix: (Units=GPa)
#
#
# Indices 1 2 3 4 5 6 
#
# 1 71.4400 37.1310 6.0083 0.0000 0.0000 0.0000
# 2 37.1310 101.5862 38.6570 0.0000 0.0000 0.0000
# 3 6.0083 38.6570 79.9869 0.0000 0.0000 0.0000
# 4 0.0000 0.0000 0.0000 21.1387 0.0000 0.0000
# 5 0.0000 0.0000 0.0000 0.0000 14.5169 0.0000
# 6 0.0000 0.0000 0.0000 0.0000 0.0000 28.7315
#
#
#
# Elastic Compliance Matrix: (Units=1/GPa)
#
#
# Indices 1 2 3 4 5 6 
#
# 1 0.017588 -0.007261 0.002188 0.000000 0.000000 0.000000
# 2 -0.007261 0.015060 -0.006733 0.000000 0.000000 0.000000
# 3 0.002188 -0.006733 0.015592 0.000000 0.000000 0.000000
# 4 0.000000 0.000000 0.000000 0.047306 0.000000 0.000000
# 5 0.000000 0.000000 0.000000 0.000000 0.068885 0.000000
# 6 0.000000 0.000000 0.000000 0.000000 0.000000 0.034805
#
#
# Mechanical properties :
#
#
# Convention : Reuss Voigt Hill
#
# Bulk Modulus (GPa) = 40.60512 46.28952 43.44732
# Shear Modulus (GPa) = 21.63965 24.29188 22.96576
#
# Velocity S-wave (km/s) = 3.35747 3.55727 3.45881
# Velocity P-wave (km/s) = 6.01517 6.40199 6.21159
#
# Compressibility (1/GPa) = 0.02462744
#
# Stress axis : x y z
#
# Youngs Moduli (GPa) = 56.85776 66.40086 64.13683
#
# Poissons Ratio (x) = 0.48215 -0.14034
# Poissons Ratio (y) = 0.41286 0.43183
# Poissons Ratio (z) = -0.12441 0.44707
#
# Static dielectric constant tensor:
#      x y z
#    x 1.758350 0.000000 0.000000 
#    y 0.000000 1.798200 0.000000 
#    z 0.000000 0.000000 1.665930 
# 
# From -- ./inp_files/35282.got.cif
#   From: 2010.05.17/outbox.cif.g08.bks.cpg/sg24_18_cif.got.tgz:35282.got - 2010.06.04 00:33:39.
