data_PCOD9334023
_publ_section_title
;
Structure prediction by ZEFSAII (Michael W. Deem and Ramdas Pophale) SiO2 
 PCOD9334023
Probable space group: I 21 21 21
;
_chemical_formula_sum "Si O2"
_cell_formula_units_Z 40
_cell_length_a 4.911633
_cell_length_b 27.481919
_cell_length_c 12.656604
_cell_angle_alpha 90.000000
_cell_angle_beta 90.000000
_cell_angle_gamma 90.000000
_cell_volume 1708.402334
_symmetry_space_group_name_H-M "I 21 21 21"
_symmetry_group_IT_number 24
_symmetry_cell_setting 'orthorhombic'
loop_
_space_group_symop_operation_xyz
x,y,z
-x,1/2-y,z
x,-y,1/2-z
1/2-x,y,-z
1/2+x,1/2+y,1/2+z
1/2-x,-y,1/2+z
1/2+x,1/2-y,-z
-x,1/2+y,1/2-z
loop_
_atom_site_type_symbol
_atom_site_label
_atom_site_fract_x
_atom_site_fract_y
_atom_site_fract_z
Si Si1 0.010470 0.604648 0.427203
Si Si2 0.303122 0.443302 0.259451
Si Si3 0.270014 0.216738 0.345097
Si Si4 0.303921 0.103156 0.620698
Si Si5 0.816368 0.297507 0.124245
O O1 0.750000 0.590531 0.500000
O O2 0.944469 0.650216 0.353410
O O3 0.250000 0.624708 0.500000
O O4 0.159280 0.566193 0.353882
O O5 0.370674 0.500000 0.250000
O O6 0.574119 0.414790 0.295539
O O7 0.079741 0.423201 0.341931
O O8 0.500000 0.250000 0.400247
O O9 0.198876 0.162389 0.383039
O O10 0.379894 0.207119 0.224358
O O11 0.000000 0.250000 0.342910
O O12 0.250000 0.086979 0.500000
O O13 0.000000 0.250000 0.127604
O O14 0.750000 0.301201 0.000000
#
# Coordination Sequence:
#
# PCOD9334023 Si02
#       5
#     8   8   8   8   8
#     4  11  24  41  68 101 141 182 229 289 361 440
#     4  12  27  49  75 106 142 188 246 309 374 436
#     4  11  24  41  69 103 144 190 238 296 361 439
#     4  12  27  49  76 106 146 194 249 306 365 436
#     4  10  20  34  60  97 137 180 224 278 345 436
#
# _framework density 23.413685999999998
#
# number of rings (size 3 to 8) (size 9 to 14) (size 15 to 20)
#    0.000    0.800    2.000    4.800    5.600    3.200 
#    0.000    0.000    0.000    0.000    0.000    0.000 
#    0.000    0.000    0.000    0.000    0.000    0.000 
#
# Total GULP energy -111491.850240 kJ/mol
# GULP energy per Si atom -5574.592512 kJ/mol
# Density = 2.336040 g / cm^3
# Si number density = 23.413686 Si / 1000 Ang^3
#
#
#
# Elastic Constant Matrix: (Units=GPa)
#
#
# Indices 1 2 3 4 5 6 
#
# 1 111.6857 35.5205 -0.6160 0.0000 0.0000 0.0000
# 2 35.5205 156.3256 9.9927 0.0000 0.0000 0.0000
# 3 -0.6160 9.9927 78.8230 0.0000 0.0000 0.0000
# 4 0.0000 0.0000 0.0000 10.2365 0.0000 0.0000
# 5 0.0000 0.0000 0.0000 0.0000 17.8839 0.0000
# 6 0.0000 0.0000 0.0000 0.0000 0.0000 25.6176
#
#
#
# Elastic Compliance Matrix: (Units=1/GPa)
#
#
# Indices 1 2 3 4 5 6 
#
# 1 0.009661 -0.002218 0.000357 0.000000 0.000000 0.000000
# 2 -0.002218 0.006958 -0.000899 0.000000 0.000000 0.000000
# 3 0.000357 -0.000899 0.012803 0.000000 0.000000 0.000000
# 4 0.000000 0.000000 0.000000 0.097690 0.000000 0.000000
# 5 0.000000 0.000000 0.000000 0.000000 0.055916 0.000000
# 6 0.000000 0.000000 0.000000 0.000000 0.000000 0.039036
#
#
# Mechanical properties :
#
#
# Convention : Reuss Voigt Hill
#
# Bulk Modulus (GPa) = 41.83864 48.51430 45.17647
# Shear Modulus (GPa) = 21.22660 30.87673 26.05167
#
# Velocity S-wave (km/s) = 3.01423 3.63540 3.33929
# Velocity P-wave (km/s) = 5.47925 6.19572 5.84847
#
# Compressibility (1/GPa) = 0.02390135
#
# Stress axis : x y z
#
# Youngs Moduli (GPa) = 103.50814 143.71163 78.10381
#
# Poissons Ratio (x) = 0.31875 -0.02786
# Poissons Ratio (y) = 0.22958 0.07025
# Poissons Ratio (z) = -0.03692 0.12927
#
# Static dielectric constant tensor:
#      x y z
#    x 1.936360 0.000000 0.000000 
#    y 0.000000 1.847260 0.000000 
#    z 0.000000 0.000000 2.065170 
# 
# From -- ./inp_files/17619.got.cif
#   From: 2010.05.17/outbox.cif.g08.bks.cpg/sg24_9_cif.got.tgz:17619.got - 2010.06.04 00:33:39.
