data_PCOD9334732
_publ_section_title
;
Structure prediction by ZEFSAII (Michael W. Deem and Ramdas Pophale) SiO2 
 PCOD9334732
Probable space group: I 21 21 21
;
_chemical_formula_sum "Si O2"
_cell_formula_units_Z 64
_cell_length_a 10.050068
_cell_length_b 15.155386
_cell_length_c 22.498448
_cell_angle_alpha 90.000000
_cell_angle_beta 90.000000
_cell_angle_gamma 90.000000
_cell_volume 3426.798458
_symmetry_space_group_name_H-M "I 21 21 21"
_symmetry_group_IT_number 24
_symmetry_cell_setting 'orthorhombic'
loop_
_space_group_symop_operation_xyz
x,y,z
-x,1/2-y,z
x,-y,1/2-z
1/2-x,y,-z
1/2+x,1/2+y,1/2+z
1/2-x,-y,1/2+z
1/2+x,1/2-y,-z
-x,1/2+y,1/2-z
loop_
_atom_site_type_symbol
_atom_site_label
_atom_site_fract_x
_atom_site_fract_y
_atom_site_fract_z
Si Si1 0.518652 0.511687 0.131814
Si Si2 0.704923 0.794441 0.882364
Si Si3 0.936367 0.839209 0.957191
Si Si4 0.945421 0.372852 0.413059
Si Si5 0.616920 0.174880 0.144543
Si Si6 0.284583 0.963179 0.569759
Si Si7 0.914561 0.838947 0.783665
Si Si8 0.663709 0.742914 0.560196
O O1 0.481768 0.575947 0.078217
O O2 0.436118 0.421235 0.124954
O O3 0.669878 0.485475 0.117367
O O4 0.487128 0.572322 0.190300
O O5 0.782201 0.829336 0.940419
O O6 0.567399 0.844860 0.872660
O O7 0.675063 0.691711 0.894982
O O8 0.793727 0.819187 0.827186
O O9 0.000000 0.750000 0.930526
O O10 0.999863 0.846709 0.021938
O O11 0.905859 0.473526 0.413710
O O12 0.500000 0.250000 0.134437
O O13 0.630090 0.159591 0.215326
O O14 0.753344 0.204102 0.111370
O O15 0.250000 0.984003 0.500000
O O16 0.314138 0.860420 0.572231
O O17 0.000000 0.750000 0.788393
O O18 0.500000 0.750000 0.555016
O O19 0.750000 0.763904 0.500000
#
# Coordination Sequence:
#
# PCOD9334732 Si02
#       8
#     8   8   8   8   8   8   8   8
#     4  11  21  38  66  93 125 166 219 281 326 399
#     4  10  21  34  51  86 128 173 210 259 319 395
#     4  11  20  32  52  87 130 168 206 252 319 396
#     4  11  21  31  55  86 130 173 203 255 320 401
#     4  11  23  45  71  94 121 170 228 281 334 396
#     4  11  22  37  60  95 127 166 222 265 334 400
#     4  10  22  41  65  92 125 167 222 274 329 402
#     4  11  26  45  70  98 136 172 220 289 348 405
#
# _framework density 18.676324999999999
#
# number of rings (size 3 to 8) (size 9 to 14) (size 15 to 20)
#    0.000    1.250    3.750    4.125    1.750    2.000 
#    2.250    0.000    0.000    0.000    0.000    0.000 
#    0.000    0.000    0.000    0.000    0.000    0.000 
#
# Total GULP energy -178202.571331 kJ/mol
# GULP energy per Si atom -5568.830354 kJ/mol
# Density = 1.863382 g / cm^3
# Si number density = 18.676325 Si / 1000 Ang^3
#
#
#
# Elastic Constant Matrix: (Units=GPa)
#
#
# Indices 1 2 3 4 5 6 
#
# 1 98.3554 40.2682 52.4013 0.0000 0.0000 0.0000
# 2 40.2682 118.4761 43.0494 0.0000 0.0000 0.0000
# 3 52.4013 43.0494 97.1671 0.0000 0.0000 0.0000
# 4 0.0000 0.0000 0.0000 22.5201 0.0000 0.0000
# 5 0.0000 0.0000 0.0000 0.0000 16.2974 0.0000
# 6 0.0000 0.0000 0.0000 0.0000 0.0000 30.6199
#
#
#
# Elastic Compliance Matrix: (Units=1/GPa)
#
#
# Indices 1 2 3 4 5 6 
#
# 1 0.014887 -0.002554 -0.006897 0.000000 0.000000 0.000000
# 2 -0.002554 0.010498 -0.003274 0.000000 0.000000 0.000000
# 3 -0.006897 -0.003274 0.015462 0.000000 0.000000 0.000000
# 4 0.000000 0.000000 0.000000 0.044405 0.000000 0.000000
# 5 0.000000 0.000000 0.000000 0.000000 0.061359 0.000000
# 6 0.000000 0.000000 0.000000 0.000000 0.000000 0.032658
#
#
# Mechanical properties :
#
#
# Convention : Reuss Voigt Hill
#
# Bulk Modulus (GPa) = 64.94622 65.04849 64.99735
# Shear Modulus (GPa) = 23.82632 25.77282 24.79957
#
# Velocity S-wave (km/s) = 3.57564 3.71883 3.64794
# Velocity P-wave (km/s) = 7.20396 7.30374 7.25402
#
# Compressibility (1/GPa) = 0.01539736
#
# Stress axis : x y z
#
# Youngs Moduli (GPa) = 67.17068 95.25511 64.67634
#
# Poissons Ratio (x) = 0.24327 0.44608
# Poissons Ratio (y) = 0.17154 0.21174
# Poissons Ratio (z) = 0.46329 0.31185
#
# Static dielectric constant tensor:
#      x y z
#    x 1.708520 0.000000 0.000000 
#    y 0.000000 1.680570 0.000000 
#    z 0.000000 0.000000 1.688070 
# 
# From -- ./inp_files/35281.got.cif
#   From: 2010.05.17/outbox.cif.g08.bks.cpg/sg24_18_cif.got.tgz:35281.got - 2010.06.04 00:33:39.
