data_PCOD9334079
_publ_section_title
;
Structure prediction by ZEFSAII (Michael W. Deem and Ramdas Pophale) SiO2 
 PCOD9334079
Probable space group: I 21 21 21
;
_chemical_formula_sum "Si O2"
_cell_formula_units_Z 52
_cell_length_a 5.215368
_cell_length_b 22.695769
_cell_length_c 20.684803
_cell_angle_alpha 90.000000
_cell_angle_beta 90.000000
_cell_angle_gamma 90.000000
_cell_volume 2448.393679
_symmetry_space_group_name_H-M "I 21 21 21"
_symmetry_group_IT_number 24
_symmetry_cell_setting 'orthorhombic'
loop_
_space_group_symop_operation_xyz
x,y,z
-x,1/2-y,z
x,-y,1/2-z
1/2-x,y,-z
1/2+x,1/2+y,1/2+z
1/2-x,-y,1/2+z
1/2+x,1/2-y,-z
-x,1/2+y,1/2-z
loop_
_atom_site_type_symbol
_atom_site_label
_atom_site_fract_x
_atom_site_fract_y
_atom_site_fract_z
Si Si1 0.999671 0.506949 0.956400
Si Si2 0.537576 0.875321 0.801772
Si Si3 0.470152 0.885843 0.377462
Si Si4 0.002118 0.319966 0.160087
Si Si5 0.814896 0.130588 0.576714
Si Si6 0.442991 0.065263 0.262430
Si Si7 0.000000 0.750000 0.954771
O O1 0.976451 0.443505 0.922164
O O2 0.056197 0.565848 0.913931
O O3 0.750000 0.518071 0.000000
O O4 0.250000 0.501370 0.000000
O O5 0.480391 0.834670 0.738478
O O6 0.569423 0.858105 0.876985
O O7 0.324805 0.926551 0.798875
O O8 0.826747 0.896363 0.789220
O O9 0.740262 0.852201 0.366632
O O10 0.391827 0.912337 0.308882
O O11 0.232467 0.841748 0.385474
O O12 0.000000 0.250000 0.155875
O O13 0.750000 0.130066 0.500000
O O14 0.982042 0.189615 0.585821
O O15 0.536543 0.000000 0.250000
O O16 0.750000 0.745611 0.000000
#
# Coordination Sequence:
#
# PCOD9334079 Si02
#       7
#     8   8   8   8   8   8   4
#     4  11  23  39  65  96 130 168 211 257 310 384
#     4  10  22  37  56  90 118 158 209 254 300 370
#     4  10  21  38  63  90 123 162 204 256 319 378
#     4  10  21  41  64  91 121 162 207 260 322 379
#     4  10  23  42  61  90 126 173 208 256 306 361
#     4  10  20  35  58  86 120 155 199 257 315 365
#     4  10  22  42  60  82 116 166 218 250 296 358
#
# _framework density 21.238415
#
# number of rings (size 3 to 8) (size 9 to 14) (size 15 to 20)
#    0.000    1.846    0.000    3.231    0.000    9.846 
#   13.846    0.000    0.000    9.231    0.000    0.000 
#    0.000    0.000    0.000    0.000    0.000    0.000 
#
# Total GULP energy -144775.969357 kJ/mol
# GULP energy per Si atom -5568.306514 kJ/mol
# Density = 2.119007 g / cm^3
# Si number density = 21.238415 Si / 1000 Ang^3
#
#
#
# Elastic Constant Matrix: (Units=GPa)
#
#
# Indices 1 2 3 4 5 6 
#
# 1 55.8668 4.4316 37.1890 0.0000 0.0000 0.0000
# 2 4.4316 147.4872 36.0900 0.0000 0.0000 0.0000
# 3 37.1890 36.0900 50.0318 0.0000 0.0000 0.0000
# 4 0.0000 0.0000 0.0000 19.8453 0.0000 0.0000
# 5 0.0000 0.0000 0.0000 0.0000 317.3409 0.0000
# 6 0.0000 0.0000 0.0000 0.0000 0.0000 53.9262
#
#
#
# Elastic Compliance Matrix: (Units=1/GPa)
#
#
# Indices 1 2 3 4 5 6 
#
# 1 0.041503 0.007652 -0.036369 0.000000 0.000000 0.000000
# 2 0.007652 0.009645 -0.012645 0.000000 0.000000 0.000000
# 3 -0.036369 -0.012645 0.056142 0.000000 0.000000 0.000000
# 4 0.000000 0.000000 0.000000 0.050390 0.000000 0.000000
# 5 0.000000 0.000000 0.000000 0.000000 0.003151 0.000000
# 6 0.000000 0.000000 0.000000 0.000000 0.000000 0.018544
#
#
# Mechanical properties :
#
#
# Convention : Reuss Voigt Hill
#
# Bulk Modulus (GPa) = 40.70728 45.42299 43.06514
# Shear Modulus (GPa) = 18.49887 89.93417 54.21652
#
# Velocity S-wave (km/s) = 2.95449 6.51437 5.05796
# Velocity P-wave (km/s) = 5.55402 8.83268 7.37778
#
# Compressibility (1/GPa) = 0.02456563
#
# Stress axis : x y z
#
# Youngs Moduli (GPa) = 24.09481 103.68529 17.81189
#
# Poissons Ratio (x) = -0.79345 0.64781
# Poissons Ratio (y) = -0.18438 0.22523
# Poissons Ratio (z) = 0.87631 1.31112
#
# Static dielectric constant tensor:
#      x y z
#    x 1.785530 0.000000 0.000000 
#    y 0.000000 -0.369050 0.000000 
#    z 0.000000 0.000000 1.906700 
# 
# From -- ./inp_files/32185.got.cif
#   From: 2010.05.17/outbox.cif.g08.bks.cpg/sg24_17_cif.got.tgz:32185.got - 2010.06.04 00:33:39.
