data_PCOD9334062
_publ_section_title
;
Structure prediction by ZEFSAII (Michael W. Deem and Ramdas Pophale) SiO2 
 PCOD9334062
Probable space group: I 21 21 21
;
_chemical_formula_sum "Si O2"
_cell_formula_units_Z 40
_cell_length_a 27.989780
_cell_length_b 7.184277
_cell_length_c 8.645681
_cell_angle_alpha 90.000000
_cell_angle_beta 90.000000
_cell_angle_gamma 90.000000
_cell_volume 1738.528286
_symmetry_space_group_name_H-M "I 21 21 21"
_symmetry_group_IT_number 24
_symmetry_cell_setting 'orthorhombic'
loop_
_space_group_symop_operation_xyz
x,y,z
-x,1/2-y,z
x,-y,1/2-z
1/2-x,y,-z
1/2+x,1/2+y,1/2+z
1/2-x,-y,1/2+z
1/2+x,1/2-y,-z
-x,1/2+y,1/2-z
loop_
_atom_site_type_symbol
_atom_site_label
_atom_site_fract_x
_atom_site_fract_y
_atom_site_fract_z
Si Si1 0.497155 0.029420 0.068746
Si Si2 0.096063 0.474883 0.065828
Si Si3 0.398537 0.966695 0.569216
Si Si4 0.299522 0.957352 0.431716
Si Si5 0.799663 0.028573 0.063472
O O1 0.500000 0.250000 0.035724
O O2 0.491478 0.000000 0.250000
O O3 0.548316 0.952523 0.014771
O O4 0.449539 0.956788 0.985905
O O5 0.091099 0.500000 0.250000
O O6 0.098808 0.253832 0.037061
O O7 0.148179 0.548789 0.015728
O O8 0.350035 0.035697 0.490644
O O9 0.393603 0.000000 0.750000
O O10 0.250000 0.033864 0.500000
O O11 0.300024 0.741828 0.496010
O O12 0.297618 0.000000 0.250000
O O13 0.798289 0.000000 0.250000
O O14 0.750000 0.948501 0.000000
#
# Coordination Sequence:
#
# PCOD9334062 Si02
#       5
#     8   8   8   8   8
#     4  10  21  35  52  76 107 141 182 230 280 337
#     4   9  19  36  54  76 107 143 183 226 279 342
#     4  10  20  35  56  82 111 144 184 234 286 339
#     4  10  20  37  59  85 116 151 193 240 290 347
#     4   9  19  37  58  83 116 153 193 240 294 349
#
# _framework density 23.007968000000002
#
# number of rings (size 3 to 8) (size 9 to 14) (size 15 to 20)
#    0.000    2.400    0.000    1.800    0.000    2.400 
#    0.000   16.000    0.000    0.000    0.000    0.000 
#    0.000    0.000    0.000    0.000    0.000    0.000 
#
# Total GULP energy -111567.559340 kJ/mol
# GULP energy per Si atom -5578.377967 kJ/mol
# Density = 2.295560 g / cm^3
# Si number density = 23.007968 Si / 1000 Ang^3
#
#
#
# Elastic Constant Matrix: (Units=GPa)
#
#
# Indices 1 2 3 4 5 6 
#
# 1 285.2632 12.9959 110.7133 0.0000 0.0000 0.0000
# 2 12.9959 130.1331 10.0432 0.0000 0.0000 0.0000
# 3 110.7133 10.0432 137.5209 0.0000 0.0000 0.0000
# 4 0.0000 0.0000 0.0000 27.5179 0.0000 0.0000
# 5 0.0000 0.0000 0.0000 0.0000 59.7419 0.0000
# 6 0.0000 0.0000 0.0000 0.0000 0.0000 84.7068
#
#
#
# Elastic Compliance Matrix: (Units=1/GPa)
#
#
# Indices 1 2 3 4 5 6 
#
# 1 0.005103 -0.000194 -0.004094 0.000000 0.000000 0.000000
# 2 -0.000194 0.007735 -0.000409 0.000000 0.000000 0.000000
# 3 -0.004094 -0.000409 0.010598 0.000000 0.000000 0.000000
# 4 0.000000 0.000000 0.000000 0.036340 0.000000 0.000000
# 5 0.000000 0.000000 0.000000 0.000000 0.016739 0.000000
# 6 0.000000 0.000000 0.000000 0.000000 0.000000 0.011805
#
#
# Mechanical properties :
#
#
# Convention : Reuss Voigt Hill
#
# Bulk Modulus (GPa) = 71.21322 91.15798 81.18560
# Shear Modulus (GPa) = 48.83014 62.33764 55.58389
#
# Velocity S-wave (km/s) = 4.61186 5.21083 4.92047
# Velocity P-wave (km/s) = 7.70569 8.71263 8.22458
#
# Compressibility (1/GPa) = 0.01404234
#
# Stress axis : x y z
#
# Youngs Moduli (GPa) = 195.94541 129.27673 94.35909
#
# Poissons Ratio (x) = 0.02504 0.38635
# Poissons Ratio (y) = 0.03795 0.03859
# Poissons Ratio (z) = 0.80229 0.05287
#
# Static dielectric constant tensor:
#      x y z
#    x 1.890240 0.000000 0.000000 
#    y 0.000000 1.910470 0.000000 
#    z 0.000000 0.000000 0.797920 
# 
# From -- ./inp_files/16258.got.cif
#   From: 2010.05.17/outbox.cif.g08.bks.cpg/sg24_9_cif.got.tgz:16258.got - 2010.06.04 00:33:39.
