data_PCOD9334515
_publ_section_title
;
Structure prediction by ZEFSAII (Michael W. Deem and Ramdas Pophale) SiO2 
 PCOD9334515
Probable space group: I 21 21 21
;
_chemical_formula_sum "Si O2"
_cell_formula_units_Z 60
_cell_length_a 12.618142
_cell_length_b 9.253626
_cell_length_c 25.109988
_cell_angle_alpha 90.000000
_cell_angle_beta 90.000000
_cell_angle_gamma 90.000000
_cell_volume 2931.931763
_symmetry_space_group_name_H-M "I 21 21 21"
_symmetry_group_IT_number 24
_symmetry_cell_setting 'orthorhombic'
loop_
_space_group_symop_operation_xyz
x,y,z
-x,1/2-y,z
x,-y,1/2-z
1/2-x,y,-z
1/2+x,1/2+y,1/2+z
1/2-x,-y,1/2+z
1/2+x,1/2-y,-z
-x,1/2+y,1/2-z
loop_
_atom_site_type_symbol
_atom_site_label
_atom_site_fract_x
_atom_site_fract_y
_atom_site_fract_z
Si Si1 0.500000 0.750000 0.867168
Si Si2 0.226892 0.737626 0.173704
Si Si3 0.028949 0.025076 0.058348
Si Si4 0.658374 0.031740 0.127619
Si Si5 0.212933 0.058010 0.856121
Si Si6 0.663350 0.228608 0.908476
Si Si7 0.120867 0.254959 0.773788
Si Si8 0.534204 0.419222 0.059435
O O1 0.398955 0.712446 0.830497
O O2 0.534356 0.617864 0.906092
O O3 0.280679 0.614852 0.138150
O O4 0.288657 0.729884 0.229649
O O5 0.248917 0.897425 0.151955
O O6 0.128854 0.136171 0.055241
O O7 0.933885 0.118575 0.085015
O O8 0.013726 0.999677 0.995942
O O9 0.732122 0.130236 0.088857
O O10 0.637093 0.118232 0.182528
O O11 0.546119 0.011032 0.101139
O O12 0.309602 0.174858 0.856102
O O13 0.138622 0.109545 0.808087
O O14 0.147600 0.073435 0.911309
O O15 0.000000 0.250000 0.752795
O O16 0.500000 0.250000 0.053130
#
# Coordination Sequence:
#
# PCOD9334515 Si02
#       8
#     4   8   8   8   8   8   8   8
#     4  12  26  52  58 102 144 174 234 284 318 404
#     4  12  27  42  68  94 139 185 219 283 351 379
#     4  11  24  41  69  94 130 183 222 279 332 395
#     4  11  23  42  66 101 133 168 223 287 333 414
#     4  11  23  42  66 101 133 168 223 287 333 414
#     4  10  20  39  67  94 122 180 226 261 330 397
#     4  11  23  45  72 101 135 176 223 277 346 413
#     4  12  22  40  68 100 132 172 224 275 346 407
#
# _framework density 20.464324000000001
#
# number of rings (size 3 to 8) (size 9 to 14) (size 15 to 20)
#    0.000    0.800    8.000    0.800    1.867    4.267 
#    0.000    9.333    0.000    0.000    0.000    0.000 
#    0.000    0.000    0.000    0.000    0.000    0.000 
#
# Total GULP energy -167145.895798 kJ/mol
# GULP energy per Si atom -5571.529860 kJ/mol
# Density = 2.041775 g / cm^3
# Si number density = 20.464324 Si / 1000 Ang^3
#
#
#
# Elastic Constant Matrix: (Units=GPa)
#
#
# Indices 1 2 3 4 5 6 
#
# 1 105.6204 25.8397 64.2688 0.0000 0.0000 0.0000
# 2 25.8397 74.5053 21.4895 0.0000 0.0000 0.0000
# 3 64.2688 21.4895 93.7967 0.0000 0.0000 0.0000
# 4 0.0000 0.0000 0.0000 18.3596 0.0000 0.0000
# 5 0.0000 0.0000 0.0000 0.0000 16.6417 0.0000
# 6 0.0000 0.0000 0.0000 0.0000 0.0000 23.8334
#
#
#
# Elastic Compliance Matrix: (Units=1/GPa)
#
#
# Indices 1 2 3 4 5 6 
#
# 1 0.016720 -0.002671 -0.010845 0.000000 0.000000 0.000000
# 2 -0.002671 0.014798 -0.001560 0.000000 0.000000 0.000000
# 3 -0.010845 -0.001560 0.018449 0.000000 0.000000 0.000000
# 4 0.000000 0.000000 0.000000 0.054468 0.000000 0.000000
# 5 0.000000 0.000000 0.000000 0.000000 0.060090 0.000000
# 6 0.000000 0.000000 0.000000 0.000000 0.000000 0.041958
#
#
# Mechanical properties :
#
#
# Convention : Reuss Voigt Hill
#
# Bulk Modulus (GPa) = 50.46369 55.23537 52.84953
# Shear Modulus (GPa) = 20.55582 22.58856 21.57219
#
# Velocity S-wave (km/s) = 3.17278 3.32596 3.25027
# Velocity P-wave (km/s) = 6.17535 6.46521 6.32194
#
# Compressibility (1/GPa) = 0.01981623
#
# Stress axis : x y z
#
# Youngs Moduli (GPa) = 59.80824 67.57571 54.20215
#
# Poissons Ratio (x) = 0.18049 0.58780
# Poissons Ratio (y) = 0.15974 0.08457
# Poissons Ratio (z) = 0.64859 0.10544
#
# Static dielectric constant tensor:
#      x y z
#    x 1.768870 0.000000 0.000000 
#    y 0.000000 1.741290 0.000000 
#    z 0.000000 0.000000 1.768320 
# 
# From -- ./inp_files/37239.got.cif
#   From: 2010.05.17/outbox.cif.g08.bks.cpg/sg24_19_cif.got.tgz:37239.got - 2010.06.04 00:33:39.
