data_PCOD9334803
_publ_section_title
;
Structure prediction by ZEFSAII (Michael W. Deem and Ramdas Pophale) SiO2 
 PCOD9334803
Probable space group: I 21 21 21
;
_chemical_formula_sum "Si O2"
_cell_formula_units_Z 52
_cell_length_a 14.348483
_cell_length_b 9.458472
_cell_length_c 21.148350
_cell_angle_alpha 90.000000
_cell_angle_beta 90.000000
_cell_angle_gamma 90.000000
_cell_volume 2870.142498
_symmetry_space_group_name_H-M "I 21 21 21"
_symmetry_group_IT_number 24
_symmetry_cell_setting 'orthorhombic'
loop_
_space_group_symop_operation_xyz
x,y,z
-x,1/2-y,z
x,-y,1/2-z
1/2-x,y,-z
1/2+x,1/2+y,1/2+z
1/2-x,-y,1/2+z
1/2+x,1/2-y,-z
-x,1/2+y,1/2-z
loop_
_atom_site_type_symbol
_atom_site_label
_atom_site_fract_x
_atom_site_fract_y
_atom_site_fract_z
Si Si1 0.296812 0.857274 0.777558
Si Si2 0.389712 0.783544 0.041743
Si Si3 0.382804 0.015257 0.344068
Si Si4 0.686107 0.797155 0.319794
Si Si5 0.241991 0.483770 0.571801
Si Si6 0.952069 0.000000 0.750000
Si Si7 0.889341 0.236866 0.402099
O O1 0.195360 0.905058 0.803026
O O2 0.276129 0.745952 0.722056
O O3 0.349434 0.801024 0.838219
O O4 0.341630 0.000000 0.750000
O O5 0.500000 0.750000 0.041498
O O6 0.378086 0.915957 0.087367
O O7 0.330457 0.649260 0.067691
O O8 0.360506 0.808835 0.968924
O O9 0.480592 0.038116 0.308507
O O10 0.358155 0.849626 0.343904
O O11 0.709413 0.902733 0.376959
O O12 0.613480 0.873810 0.273243
O O13 0.250000 0.539902 0.500000
O O14 0.341888 0.417211 0.591031
O O15 0.000000 0.250000 0.399222
#
# Coordination Sequence:
#
# PCOD9334803 Si02
#       7
#     8   8   8   8   8   4   8
#     4  10  21  39  55  83 118 149 200 248 298 358
#     4  10  21  36  63  90 118 158 201 244 297 372
#     4  11  22  35  56  90 124 161 194 235 301 368
#     4  11  23  37  57  91 126 162 197 245 299 372
#     4  10  21  40  61  88 122 158 203 249 300 364
#     4  12  22  32  58  90 134 160 192 230 308 374
#     4  10  21  41  63  85 111 155 212 258 296 355
#
# _framework density 18.117567000000001
#
# number of rings (size 3 to 8) (size 9 to 14) (size 15 to 20)
#    0.000    1.538    3.846    2.308    2.154    0.000 
#    8.308    0.000    0.000    0.000    0.000    0.000 
#    0.000    0.000    0.000    0.000    0.000    0.000 
#
# Total GULP energy -145092.536873 kJ/mol
# GULP energy per Si atom -5580.482187 kJ/mol
# Density = 1.807633 g / cm^3
# Si number density = 18.117567 Si / 1000 Ang^3
#
#
#
# Elastic Constant Matrix: (Units=GPa)
#
#
# Indices 1 2 3 4 5 6 
#
# 1 77.3140 41.2058 43.8327 0.0000 0.0000 0.0000
# 2 41.2058 104.8448 96.6747 0.0000 0.0000 0.0000
# 3 43.8327 96.6747 172.1627 0.0000 0.0000 0.0000
# 4 0.0000 0.0000 0.0000 30.2922 0.0000 0.0000
# 5 0.0000 0.0000 0.0000 0.0000 31.0280 0.0000
# 6 0.0000 0.0000 0.0000 0.0000 0.0000 3.0342
#
#
#
# Elastic Compliance Matrix: (Units=1/GPa)
#
#
# Indices 1 2 3 4 5 6 
#
# 1 0.016472 -0.005406 -0.001158 0.000000 0.000000 0.000000
# 2 -0.005406 0.021553 -0.010726 0.000000 0.000000 0.000000
# 3 -0.001158 -0.010726 0.012127 0.000000 0.000000 0.000000
# 4 0.000000 0.000000 0.000000 0.033012 0.000000 0.000000
# 5 0.000000 0.000000 0.000000 0.000000 0.032229 0.000000
# 6 0.000000 0.000000 0.000000 0.000000 0.000000 0.329572
#
#
# Mechanical properties :
#
#
# Convention : Reuss Voigt Hill
#
# Bulk Modulus (GPa) = 64.22304 79.74978 71.98641
# Shear Modulus (GPa) = 10.31491 24.37811 17.34651
#
# Velocity S-wave (km/s) = 2.38866 3.67215 3.09761
# Velocity P-wave (km/s) = 6.56753 7.87992 7.25347
#
# Compressibility (1/GPa) = 0.01557074
#
# Stress axis : x y z
#
# Youngs Moduli (GPa) = 60.70889 46.39732 82.46384
#
# Poissons Ratio (x) = 0.25081 0.09552
# Poissons Ratio (y) = 0.32818 0.88454
# Poissons Ratio (z) = 0.07032 0.49767
#
# Static dielectric constant tensor:
#      x y z
#    x 1.647930 0.000000 0.000000 
#    y 0.000000 1.616690 0.000000 
#    z 0.000000 0.000000 1.643650 
# 
# From -- ./inp_files/25024.got.cif
#   From: 2010.05.17/outbox.cif.g08.bks.cpg/sg24_13_cif.got.tgz:25024.got - 2010.06.04 00:33:39.
