data_PCOD9334658
_publ_section_title
;
Structure prediction by ZEFSAII (Michael W. Deem and Ramdas Pophale) SiO2 
 PCOD9334658
Probable space group: I 21 21 21
;
_chemical_formula_sum "Si O2"
_cell_formula_units_Z 32
_cell_length_a 19.996716
_cell_length_b 5.324885
_cell_length_c 14.061633
_cell_angle_alpha 90.000000
_cell_angle_beta 90.000000
_cell_angle_gamma 90.000000
_cell_volume 1497.285678
_symmetry_space_group_name_H-M "I 21 21 21"
_symmetry_group_IT_number 24
_symmetry_cell_setting 'orthorhombic'
loop_
_space_group_symop_operation_xyz
x,y,z
-x,1/2-y,z
x,-y,1/2-z
1/2-x,y,-z
1/2+x,1/2+y,1/2+z
1/2-x,-y,1/2+z
1/2+x,1/2-y,-z
-x,1/2+y,1/2-z
loop_
_atom_site_type_symbol
_atom_site_label
_atom_site_fract_x
_atom_site_fract_y
_atom_site_fract_z
Si Si1 0.250000 0.725605 0.500000
Si Si2 0.204119 0.000000 0.250000
Si Si3 0.307090 0.361752 0.347891
Si Si4 0.119293 0.168875 0.087673
Si Si5 0.072546 0.313167 0.503682
O O1 0.262682 0.549711 0.410193
O O2 0.182545 0.870643 0.482586
O O3 0.255625 0.858246 0.180207
O O4 0.153929 0.821684 0.309287
O O5 0.327320 0.500000 0.250000
O O6 0.371491 0.304023 0.413043
O O7 0.082467 0.418285 0.049594
O O8 0.080408 0.909871 0.073584
O O9 0.000000 0.250000 0.546405
#
# Coordination Sequence:
#
# PCOD9334658 Si02
#       5
#     4   4   8   8   8
#     4  10  20  42  62 100 138 174 214 286 354 406
#     4  12  22  40  70 110 130 166 232 304 354 404
#     4  11  23  40  66 104 140 174 225 286 352 408
#     4  11  23  41  71  95 136 177 227 287 346 398
#     4  11  26  47  65  95 138 193 226 268 335 426
#
# _framework density 21.372008000000001
#
# number of rings (size 3 to 8) (size 9 to 14) (size 15 to 20)
#    0.000    1.000    2.500    5.250    3.500    1.000 
#    2.250    2.500    0.000    0.000    0.000    0.000 
#    0.000    0.000    0.000    0.000    0.000    0.000 
#
# Total GULP energy -89267.220425 kJ/mol
# GULP energy per Si atom -5579.201277 kJ/mol
# Density = 2.132336 g / cm^3
# Si number density = 21.372008 Si / 1000 Ang^3
#
#
#
# Elastic Constant Matrix: (Units=GPa)
#
#
# Indices 1 2 3 4 5 6 
#
# 1 89.9461 48.6124 39.2390 0.0000 0.0000 0.0000
# 2 48.6124 113.8577 46.1402 0.0000 0.0000 0.0000
# 3 39.2390 46.1402 100.0542 0.0000 0.0000 0.0000
# 4 0.0000 0.0000 0.0000 44.1623 0.0000 0.0000
# 5 0.0000 0.0000 0.0000 0.0000 28.1599 0.0000
# 6 0.0000 0.0000 0.0000 0.0000 0.0000 46.0297
#
#
#
# Elastic Compliance Matrix: (Units=1/GPa)
#
#
# Indices 1 2 3 4 5 6 
#
# 1 0.015504 -0.005111 -0.003724 0.000000 0.000000 0.000000
# 2 -0.005111 0.012486 -0.003754 0.000000 0.000000 0.000000
# 3 -0.003724 -0.003754 0.013186 0.000000 0.000000 0.000000
# 4 0.000000 0.000000 0.000000 0.022644 0.000000 0.000000
# 5 0.000000 0.000000 0.000000 0.000000 0.035511 0.000000
# 6 0.000000 0.000000 0.000000 0.000000 0.000000 0.021725
#
#
# Mechanical properties :
#
#
# Convention : Reuss Voigt Hill
#
# Bulk Modulus (GPa) = 62.49882 63.53793 63.01838
# Shear Modulus (GPa) = 32.98888 34.99482 33.99185
#
# Velocity S-wave (km/s) = 3.93307 4.05089 3.99241
# Velocity P-wave (km/s) = 7.06627 7.18844 7.12762
#
# Compressibility (1/GPa) = 0.01600030
#
# Stress axis : x y z
#
# Youngs Moduli (GPa) = 64.49807 80.08896 75.83842
#
# Poissons Ratio (x) = 0.40931 0.28239
# Poissons Ratio (y) = 0.32963 0.28467
# Poissons Ratio (z) = 0.24017 0.30063
#
# Static dielectric constant tensor:
#      x y z
#    x 1.821800 0.000000 0.000000 
#    y 0.000000 1.831290 0.000000 
#    z 0.000000 0.000000 1.799320 
# 
# From -- ./inp_files/2175.got.cif
#   From: 2010.05.17/outbox.cif.g08.bks.cpg/sg24_2_cif.got.tgz:2175.got - 2010.06.04 00:33:39.
