data_PCOD9334066
_publ_section_title
;
Structure prediction by ZEFSAII (Michael W. Deem and Ramdas Pophale) SiO2 
 PCOD9334066
Probable space group: I 21 21 21
;
_chemical_formula_sum "Si O2"
_cell_formula_units_Z 32
_cell_length_a 11.085265
_cell_length_b 16.649170
_cell_length_c 7.654362
_cell_angle_alpha 90.000000
_cell_angle_beta 90.000000
_cell_angle_gamma 90.000000
_cell_volume 1412.692583
_symmetry_space_group_name_H-M "I 21 21 21"
_symmetry_group_IT_number 24
_symmetry_cell_setting 'orthorhombic'
loop_
_space_group_symop_operation_xyz
x,y,z
-x,1/2-y,z
x,-y,1/2-z
1/2-x,y,-z
1/2+x,1/2+y,1/2+z
1/2-x,-y,1/2+z
1/2+x,1/2-y,-z
-x,1/2+y,1/2-z
loop_
_atom_site_type_symbol
_atom_site_label
_atom_site_fract_x
_atom_site_fract_y
_atom_site_fract_z
Si Si1 0.929590 0.000000 0.750000
Si Si2 0.475057 0.337198 0.864588
Si Si3 0.285308 0.909118 0.702687
Si Si4 0.750000 0.088739 0.000000
Si Si5 0.052661 0.834599 0.775908
O O1 0.844168 0.965415 0.601090
O O2 0.000638 0.922710 0.826940
O O3 0.500000 0.250000 0.789028
O O4 0.572416 0.394975 0.775161
O O5 0.334405 0.359516 0.870189
O O6 0.515667 0.333415 0.069230
O O7 0.250000 0.899993 0.500000
O O8 0.196365 0.845658 0.795229
O O9 0.255076 0.000000 0.750000
O O10 0.000000 0.750000 0.846342
#
# Coordination Sequence:
#
# PCOD9334066 Si02
#       5
#     4   8   8   4   8
#     4  10  20  36  58  80 110 150 182 230 276 330
#     4   9  20  32  55  83 108 140 188 238 271 313
#     4  10  20  35  57  83 111 143 183 229 276 331
#     4  10  22  36  56  80 114 146 184 224 280 332
#     4   9  18  34  58  81 109 146 188 225 274 329
#
# _framework density 22.651779000000001
#
# number of rings (size 3 to 8) (size 9 to 14) (size 15 to 20)
#    0.000    2.500    1.250    0.000   14.000    0.000 
#    0.000    0.000    2.750    3.000    0.000    0.000 
#    0.000    0.000    0.000    0.000    0.000    0.000 
#
# Total GULP energy -89162.838564 kJ/mol
# GULP energy per Si atom -5572.677410 kJ/mol
# Density = 2.260022 g / cm^3
# Si number density = 22.651779 Si / 1000 Ang^3
#
#
#
# Elastic Constant Matrix: (Units=GPa)
#
#
# Indices 1 2 3 4 5 6 
#
# 1 148.1553 83.0035 5.7580 0.0000 0.0000 0.0000
# 2 83.0035 168.6317 7.9542 0.0000 0.0000 0.0000
# 3 5.7580 7.9542 22.1917 0.0001 0.0000 0.0000
# 4 0.0000 0.0000 0.0001 13.2113 0.0000 0.0000
# 5 0.0000 0.0000 0.0000 0.0000 8.5652 0.0000
# 6 0.0000 0.0000 0.0000 0.0000 0.0000 22.3572
#
#
#
# Elastic Compliance Matrix: (Units=1/GPa)
#
#
# Indices 1 2 3 4 5 6 
#
# 1 0.009333 -0.004557 -0.000788 0.000000 0.000000 0.000000
# 2 -0.004557 0.008257 -0.001777 0.000000 0.000000 0.000000
# 3 -0.000788 -0.001777 0.045903 0.000000 0.000000 0.000000
# 4 0.000000 0.000000 0.000000 0.075693 0.000000 0.000000
# 5 0.000000 0.000000 0.000000 0.000000 0.116751 0.000000
# 6 0.000000 0.000000 0.000000 0.000000 0.000000 0.044728
#
#
# Mechanical properties :
#
#
# Convention : Reuss Voigt Hill
#
# Bulk Modulus (GPa) = 20.30507 59.15668 39.73087
# Shear Modulus (GPa) = 15.09087 24.97764 20.03425
#
# Velocity S-wave (km/s) = 2.58391 3.32426 2.97719
# Velocity P-wave (km/s) = 4.22913 6.39583 5.42182
#
# Compressibility (1/GPa) = 0.04924879
#
# Stress axis : x y z
#
# Youngs Moduli (GPa) = 107.14388 121.11158 21.78490
#
# Poissons Ratio (x) = 0.55188 0.01717
# Poissons Ratio (y) = 0.48823 0.03872
# Poissons Ratio (z) = 0.08447 0.21523
#
# Static dielectric constant tensor:
#      x y z
#    x 1.897970 0.000000 0.000000 
#    y 0.000000 1.904790 0.000000 
#    z 0.000000 0.000000 1.914930 
# 
# From -- ./inp_files/10306.got.cif
#   From: 2010.05.17/outbox.cif.g08.bks.cpg/sg24_6_cif.got.tgz:10306.got - 2010.06.04 00:33:39.
