data_PCOD9334580
_publ_section_title
;
Structure prediction by ZEFSAII (Michael W. Deem and Ramdas Pophale) SiO2 
 PCOD9334580
Probable space group: I 21 21 21
;
_chemical_formula_sum "Si O2"
_cell_formula_units_Z 32
_cell_length_a 18.872547
_cell_length_b 16.796916
_cell_length_c 5.188283
_cell_angle_alpha 90.000000
_cell_angle_beta 90.000000
_cell_angle_gamma 90.000000
_cell_volume 1644.688755
_symmetry_space_group_name_H-M "I 21 21 21"
_symmetry_group_IT_number 24
_symmetry_cell_setting 'orthorhombic'
loop_
_space_group_symop_operation_xyz
x,y,z
-x,1/2-y,z
x,-y,1/2-z
1/2-x,y,-z
1/2+x,1/2+y,1/2+z
1/2-x,-y,1/2+z
1/2+x,1/2-y,-z
-x,1/2+y,1/2-z
loop_
_atom_site_type_symbol
_atom_site_label
_atom_site_fract_x
_atom_site_fract_y
_atom_site_fract_z
Si Si1 0.877588 0.443914 0.499167
Si Si2 0.035841 0.555734 0.003121
Si Si3 0.819678 0.906844 0.826344
Si Si4 0.250000 0.178980 0.500000
Si Si5 0.250000 0.711833 0.500000
O O1 0.865092 0.500000 0.250000
O O2 0.818399 0.377126 0.525314
O O3 0.957219 0.408402 0.473756
O O4 0.874765 0.500000 0.750000
O O5 0.047202 0.500000 0.250000
O O6 0.032675 0.500000 0.750000
O O7 0.105796 0.608425 0.966763
O O8 0.687696 0.849141 0.418273
O O9 0.817651 0.000000 0.750000
O O10 0.750000 0.893628 0.000000
O O11 0.239319 0.232629 0.246894
#
# Coordination Sequence:
#
# PCOD9334580 Si02
#       5
#     8   8   8   4   4
#     4  10  20  40  66  93 117 157 204 252 301 364
#     4   9  20  34  61  93 118 143 200 260 298 343
#     4  11  21  38  65  85 115 156 206 249 295 357
#     4  12  24  40  62  88 130 160 200 248 308 364
#     4  12  26  38  58  90 124 162 202 254 298 364
#
# _framework density 19.456567
#
# number of rings (size 3 to 8) (size 9 to 14) (size 15 to 20)
#    0.000    1.500    2.500    3.000    3.500    0.000 
#    0.000    1.250    5.500    0.000    0.000    0.000 
#    0.000    0.000    0.000    0.000    0.000    0.000 
#
# Total GULP energy -89275.915517 kJ/mol
# GULP energy per Si atom -5579.744720 kJ/mol
# Density = 1.941228 g / cm^3
# Si number density = 19.456567 Si / 1000 Ang^3
#
#
#
# Elastic Constant Matrix: (Units=GPa)
#
#
# Indices 1 2 3 4 5 6 
#
# 1 182.6569 72.6070 47.7590 0.0000 0.0000 0.0000
# 2 72.6070 92.9481 52.3668 0.0000 0.0000 0.0000
# 3 47.7590 52.3668 151.9956 0.0000 0.0000 0.0000
# 4 0.0000 0.0000 0.0000 36.1412 0.0000 0.0000
# 5 0.0000 0.0000 0.0000 0.0000 19.6191 0.0000
# 6 0.0000 0.0000 0.0000 0.0000 0.0000 -7.5986
#
#
#
# Elastic Compliance Matrix: (Units=1/GPa)
#
#
# Indices 1 2 3 4 5 6 
#
# 1 0.007965 -0.005971 -0.000446 0.000000 0.000000 0.000000
# 2 -0.005971 0.017826 -0.004265 0.000000 0.000000 0.000000
# 3 -0.000446 -0.004265 0.008189 0.000000 0.000000 0.000000
# 4 0.000000 0.000000 0.000000 0.027669 0.000000 0.000000
# 5 0.000000 0.000000 0.000000 0.000000 0.050971 0.000000
# 6 0.000000 0.000000 0.000000 0.000000 0.000000 -0.131603
#
#
# Mechanical properties :
#
#
# Convention : Reuss Voigt Hill
#
# Bulk Modulus (GPa) = 79.26482 85.89623 82.58053
# Shear Modulus (GPa) = 759.40058 26.62353 393.01205
#
# Velocity S-wave (km/s) = 19.77758 3.70314 14.22790
# Velocity P-wave (km/s) = 23.71423 7.90746 17.67615
#
# Compressibility (1/GPa) = 0.01261594
#
# Stress axis : x y z
#
# Youngs Moduli (GPa) = 125.55615 56.09853 122.11943
#
# Poissons Ratio (x) = 0.33494 0.05441
# Poissons Ratio (y) = 0.74964 0.52090
# Poissons Ratio (z) = 0.05594 0.23929
#
# Static dielectric constant tensor:
#      x y z
#    x 1.723640 0.000000 0.000000 
#    y 0.000000 1.653140 0.000000 
#    z 0.000000 0.000000 1.710080 
# 
# From -- ./inp_files/4315.got.cif
#   From: 2010.05.17/outbox.cif.g08.bks.cpg/sg24_3_cif.got.tgz:4315.got - 2010.06.04 00:33:39.
