data_PCOD9334327
_publ_section_title
;
Structure prediction by ZEFSAII (Michael W. Deem and Ramdas Pophale) SiO2 
 PCOD9334327
Probable space group: I 21 21 21
;
_chemical_formula_sum "Si O2"
_cell_formula_units_Z 36
_cell_length_a 25.968069
_cell_length_b 5.135263
_cell_length_c 14.015836
_cell_angle_alpha 90.000000
_cell_angle_beta 90.000000
_cell_angle_gamma 90.000000
_cell_volume 1869.051871
_symmetry_space_group_name_H-M "I 21 21 21"
_symmetry_group_IT_number 24
_symmetry_cell_setting 'orthorhombic'
loop_
_space_group_symop_operation_xyz
x,y,z
-x,1/2-y,z
x,-y,1/2-z
1/2-x,y,-z
1/2+x,1/2+y,1/2+z
1/2-x,-y,1/2+z
1/2+x,1/2-y,-z
-x,1/2+y,1/2-z
loop_
_atom_site_type_symbol
_atom_site_label
_atom_site_fract_x
_atom_site_fract_y
_atom_site_fract_z
Si Si1 0.941317 0.660449 0.455607
Si Si2 0.380600 0.324287 0.498021
Si Si3 0.311164 0.245775 0.684117
Si Si4 0.466177 0.000000 0.750000
Si Si5 0.808719 0.746677 0.815796
O O1 0.926000 0.388977 0.503386
O O2 0.936742 0.610958 0.341440
O O3 0.000000 0.750000 0.471229
O O4 0.903862 0.888049 0.491012
O O5 0.346724 0.267873 0.592067
O O6 0.345086 0.284034 0.406198
O O7 0.316331 0.500000 0.750000
O O8 0.251182 0.218276 0.654189
O O9 0.323683 0.000000 0.750000
O O10 0.500000 0.750000 0.783968
O O11 0.822334 0.500000 0.750000
O O12 0.812036 0.000000 0.750000
#
# Coordination Sequence:
#
# PCOD9334327 Si02
#       5
#     8   8   8   4   8
#     4  11  24  39  58  87 124 162 199 248 292 352
#     4  12  23  38  65  89 119 163 205 243 297 364
#     4  10  22  38  59  93 127 153 189 245 299 368
#     4  10  20  38  56  80 120 168 198 230 296 360
#     4  10  22  42  64  87 120 156 202 254 305 352
#
# _framework density 19.261101
#
# number of rings (size 3 to 8) (size 9 to 14) (size 15 to 20)
#    0.000    1.333    0.000    6.667    4.667    0.000 
#    0.000    8.889    0.000   13.333    0.000    0.000 
#    0.000    0.000    0.000    0.000    0.000    0.000 
#
# Total GULP energy -100653.494364 kJ/mol
# GULP energy per Si atom -5591.860798 kJ/mol
# Density = 1.921726 g / cm^3
# Si number density = 19.261101 Si / 1000 Ang^3
#
#
#
# Elastic Constant Matrix: (Units=GPa)
#
#
# Indices 1 2 3 4 5 6 
#
# 1 73.7904 8.5853 40.0936 0.0000 0.0000 0.0000
# 2 8.5853 117.8000 15.5543 0.0000 0.0000 0.0000
# 3 40.0936 15.5543 62.3199 0.0000 0.0000 0.0000
# 4 0.0000 0.0000 0.0000 22.7472 0.0000 0.0000
# 5 0.0000 0.0000 0.0000 0.0000 44.3971 0.0000
# 6 0.0000 0.0000 0.0000 0.0000 0.0000 93.7252
#
#
#
# Elastic Compliance Matrix: (Units=1/GPa)
#
#
# Indices 1 2 3 4 5 6 
#
# 1 0.020843 0.000260 -0.013474 0.000000 0.000000 0.000000
# 2 0.000260 0.008781 -0.002359 0.000000 0.000000 0.000000
# 3 -0.013474 -0.002359 0.025304 0.000000 0.000000 0.000000
# 4 0.000000 0.000000 0.000000 0.043961 0.000000 0.000000
# 5 0.000000 0.000000 0.000000 0.000000 0.022524 0.000000
# 6 0.000000 0.000000 0.000000 0.000000 0.000000 0.010669
#
#
# Mechanical properties :
#
#
# Convention : Reuss Voigt Hill
#
# Bulk Modulus (GPa) = 42.04926 42.48631 42.26779
# Shear Modulus (GPa) = 29.21307 44.81904 37.01605
#
# Velocity S-wave (km/s) = 3.89869 4.82905 4.38859
# Velocity P-wave (km/s) = 6.49192 7.29376 6.90449
#
# Compressibility (1/GPa) = 0.02378163
#
# Stress axis : x y z
#
# Youngs Moduli (GPa) = 47.97836 113.87578 39.52000
#
# Poissons Ratio (x) = -0.02962 0.53250
# Poissons Ratio (y) = -0.01248 0.09323
# Poissons Ratio (z) = 0.64647 0.26864
#
# Static dielectric constant tensor:
#      x y z
#    x 1.698510 0.000000 0.000000 
#    y 0.000000 1.645180 0.000000 
#    z 0.000000 0.000000 1.621880 
# 
# From -- ./inp_files/6170.got.cif
#   From: 2010.05.17/outbox.cif.g08.bks.cpg/sg24_4_cif.got.tgz:6170.got - 2010.06.04 00:33:39.
