data_PCOD9334937
_publ_section_title
;
Structure prediction by ZEFSAII (Michael W. Deem and Ramdas Pophale) SiO2 
 PCOD9334937
Probable space group: I 21 21 21
;
_chemical_formula_sum "Si O2"
_cell_formula_units_Z 44
_cell_length_a 7.707056
_cell_length_b 15.928793
_cell_length_c 17.604102
_cell_angle_alpha 90.000000
_cell_angle_beta 90.000000
_cell_angle_gamma 90.000000
_cell_volume 2161.151732
_symmetry_space_group_name_H-M "I 21 21 21"
_symmetry_group_IT_number 24
_symmetry_cell_setting 'orthorhombic'
loop_
_space_group_symop_operation_xyz
x,y,z
-x,1/2-y,z
x,-y,1/2-z
1/2-x,y,-z
1/2+x,1/2+y,1/2+z
1/2-x,-y,1/2+z
1/2+x,1/2-y,-z
-x,1/2+y,1/2-z
loop_
_atom_site_type_symbol
_atom_site_label
_atom_site_fract_x
_atom_site_fract_y
_atom_site_fract_z
Si Si1 0.321768 0.302047 0.915984
Si Si2 0.522554 0.951157 0.679064
Si Si3 0.603322 0.431550 0.547661
Si Si4 0.312020 0.796106 0.723091
Si Si5 0.299658 0.765936 0.109869
Si Si6 0.250000 0.624645 0.000000
O O1 0.500000 0.250000 0.927710
O O2 0.359026 0.388492 0.870873
O O3 0.227747 0.243218 0.852903
O O4 0.250000 0.315614 0.000000
O O5 0.366642 0.892336 0.710472
O O6 0.606872 0.000000 0.750000
O O7 0.450331 0.019833 0.622221
O O8 0.750000 0.479364 0.500000
O O9 0.699069 0.345202 0.573861
O O10 0.431096 0.423629 0.495827
O O11 0.500000 0.750000 0.733043
O O12 0.212174 0.777139 0.800167
O O13 0.500000 0.750000 0.087328
O O14 0.215091 0.683173 0.073515
#
# Coordination Sequence:
#
# PCOD9334937 Si02
#       6
#     8   8   8   8   8   4
#     4   9  21  40  65  93 123 173 226 271 327 393
#     4  10  21  38  65  92 131 172 214 272 348 398
#     4  12  24  41  63  96 134 171 218 269 338 400
#     4   9  20  39  64  89 120 174 217 263 327 397
#     4  12  21  38  61  93 128 165 217 265 321 399
#     4  12  24  38  66  94 130 170 210 270 324 412
#
# _framework density 20.359514000000001
#
# number of rings (size 3 to 8) (size 9 to 14) (size 15 to 20)
#    0.000    1.818    4.545    1.636    3.818    3.636 
#    0.000    0.000    0.000    1.091    0.000    0.000 
#    0.000    0.000    0.000    0.000    0.000    0.000 
#
# Total GULP energy -122576.541294 kJ/mol
# GULP energy per Si atom -5571.660968 kJ/mol
# Density = 2.031318 g / cm^3
# Si number density = 20.359514 Si / 1000 Ang^3
#
#
#
# Elastic Constant Matrix: (Units=GPa)
#
#
# Indices 1 2 3 4 5 6 
#
# 1 62.3107 18.4444 13.0662 0.0000 0.0000 0.0000
# 2 18.4444 80.2968 38.8676 0.0000 0.0000 0.0000
# 3 13.0662 38.8676 163.4371 0.0000 0.0000 0.0000
# 4 0.0000 0.0000 0.0000 30.1501 0.0000 0.0000
# 5 0.0000 0.0000 0.0000 0.0000 32.6874 0.0000
# 6 0.0000 0.0000 0.0000 0.0000 0.0000 4.2640
#
#
#
# Elastic Compliance Matrix: (Units=1/GPa)
#
#
# Indices 1 2 3 4 5 6 
#
# 1 0.017255 -0.003724 -0.000494 0.000000 0.000000 0.000000
# 2 -0.003724 0.014878 -0.003240 0.000000 0.000000 0.000000
# 3 -0.000494 -0.003240 0.006929 0.000000 0.000000 0.000000
# 4 0.000000 0.000000 0.000000 0.033167 0.000000 0.000000
# 5 0.000000 0.000000 0.000000 0.000000 0.030593 0.000000
# 6 0.000000 0.000000 0.000000 0.000000 0.000000 0.234522
#
#
# Mechanical properties :
#
#
# Convention : Reuss Voigt Hill
#
# Bulk Modulus (GPa) = 41.41822 49.64454 45.53138
# Shear Modulus (GPa) = 13.87701 29.13138 21.50420
#
# Velocity S-wave (km/s) = 2.61358 3.78676 3.25349
# Velocity P-wave (km/s) = 5.43096 6.59972 6.04366
#
# Compressibility (1/GPa) = 0.02414396
#
# Stress axis : x y z
#
# Youngs Moduli (GPa) = 57.95553 67.21413 144.32840
#
# Poissons Ratio (x) = 0.25033 0.07126
# Poissons Ratio (y) = 0.21585 0.46768
# Poissons Ratio (z) = 0.02861 0.21780
#
# Static dielectric constant tensor:
#      x y z
#    x 1.739290 0.000000 0.000000 
#    y 0.000000 1.763820 0.000000 
#    z 0.000000 0.000000 1.776370 
# 
# From -- ./inp_files/29404.got.cif
#   From: 2010.05.17/outbox.cif.g08.bks.cpg/sg24_15_cif.got.tgz:29404.got - 2010.06.04 00:33:39.
