data_PCOD9334363
_publ_section_title
;
Structure prediction by ZEFSAII (Michael W. Deem and Ramdas Pophale) SiO2 
 PCOD9334363
Probable space group: I 21 21 21
;
_chemical_formula_sum "Si O2"
_cell_formula_units_Z 56
_cell_length_a 9.296556
_cell_length_b 19.583188
_cell_length_c 14.660465
_cell_angle_alpha 90.000000
_cell_angle_beta 90.000000
_cell_angle_gamma 90.000000
_cell_volume 2669.028605
_symmetry_space_group_name_H-M "I 21 21 21"
_symmetry_group_IT_number 24
_symmetry_cell_setting 'orthorhombic'
loop_
_space_group_symop_operation_xyz
x,y,z
-x,1/2-y,z
x,-y,1/2-z
1/2-x,y,-z
1/2+x,1/2+y,1/2+z
1/2-x,-y,1/2+z
1/2+x,1/2-y,-z
-x,1/2+y,1/2-z
loop_
_atom_site_type_symbol
_atom_site_label
_atom_site_fract_x
_atom_site_fract_y
_atom_site_fract_z
Si Si1 0.111883 0.581074 0.568688
Si Si2 0.887712 0.808745 0.936149
Si Si3 0.626756 0.296174 0.757047
Si Si4 0.469909 0.068732 0.697776
Si Si5 0.258336 0.348045 0.245393
Si Si6 0.922738 0.943687 0.000227
Si Si7 0.088491 0.816633 0.467835
O O1 0.250000 0.582263 0.500000
O O2 0.156594 0.615941 0.663289
O O3 0.056928 0.503250 0.572863
O O4 0.988062 0.621632 0.517391
O O5 0.831851 0.843561 0.843585
O O6 0.978803 0.868297 0.983517
O O7 0.000000 0.750000 0.916129
O O8 0.750000 0.788569 0.000000
O O9 0.500000 0.250000 0.711897
O O10 0.642522 0.367033 0.701856
O O11 0.737265 0.233639 0.774811
O O12 0.583495 0.320595 0.858437
O O13 0.613320 0.106442 0.739414
O O14 0.516837 0.039881 0.599386
O O15 0.424839 0.000000 0.750000
O O16 0.750000 0.934587 0.000000
O O17 0.250000 0.809902 0.500000
O O18 0.000000 0.750000 0.494502
#
# Coordination Sequence:
#
# PCOD9334363 Si02
#       7
#     8   8   8   8   8   8   8
#     4  11  22  39  65  99 131 168 211 270 333 395
#     4  11  25  43  65  93 124 170 220 270 326 391
#     4   9  20  34  56  92 123 169 219 259 324 383
#     4  11  19  33  61  94 130 167 221 274 313 390
#     4  11  22  37  63  92 130 168 217 275 331 384
#     4  10  20  38  61  95 125 164 217 267 328 378
#     4  11  21  37  59  89 133 173 216 265 324 392
#
# _framework density 20.981414999999998
#
# number of rings (size 3 to 8) (size 9 to 14) (size 15 to 20)
#    0.000    1.429    2.857    6.429    2.000    1.714 
#    0.000    0.714    3.143    0.000    0.000    0.000 
#    0.000    0.000    0.000    0.000    0.000    0.000 
#
# Total GULP energy -155988.801137 kJ/mol
# GULP energy per Si atom -5571.028612 kJ/mol
# Density = 2.093366 g / cm^3
# Si number density = 20.981415 Si / 1000 Ang^3
#
#
#
# Elastic Constant Matrix: (Units=GPa)
#
#
# Indices 1 2 3 4 5 6 
#
# 1 46.0584 16.2210 6.0387 0.0000 0.0000 0.0000
# 2 16.2210 118.1063 11.0627 0.0000 0.0000 0.0000
# 3 6.0387 11.0627 79.3894 0.0000 0.0000 0.0000
# 4 0.0000 0.0000 0.0000 34.0684 0.0000 0.0000
# 5 0.0000 0.0000 0.0000 0.0000 4.6845 0.0000
# 6 0.0000 0.0000 0.0000 0.0000 0.0000 25.4578
#
#
#
# Elastic Compliance Matrix: (Units=1/GPa)
#
#
# Indices 1 2 3 4 5 6 
#
# 1 0.022952 -0.003028 -0.001324 0.000000 0.000000 0.000000
# 2 -0.003028 0.008978 -0.001021 0.000000 0.000000 0.000000
# 3 -0.001324 -0.001021 0.012839 0.000000 0.000000 0.000000
# 4 0.000000 0.000000 0.000000 0.029353 0.000000 0.000000
# 5 0.000000 0.000000 0.000000 0.000000 0.213469 0.000000
# 6 0.000000 0.000000 0.000000 0.000000 0.000000 0.039281
#
#
# Mechanical properties :
#
#
# Convention : Reuss Voigt Hill
#
# Bulk Modulus (GPa) = 29.39145 34.46652 31.92898
# Shear Modulus (GPa) = 14.32834 26.85758 20.59296
#
# Velocity S-wave (km/s) = 2.61608 3.58168 3.13627
# Velocity P-wave (km/s) = 4.81289 5.79374 5.32594
#
# Compressibility (1/GPa) = 0.03402351
#
# Stress axis : x y z
#
# Youngs Moduli (GPa) = 43.56991 111.37757 77.88720
#
# Poissons Ratio (x) = 0.33728 0.10311
# Poissons Ratio (y) = 0.13194 0.07951
# Poissons Ratio (z) = 0.05768 0.11369
#
# Static dielectric constant tensor:
#      x y z
#    x 1.746890 0.000000 0.000000 
#    y 0.000000 1.874790 0.000000 
#    z 0.000000 0.000000 1.796280 
# 
# From -- ./inp_files/25074.got.cif
#   From: 2010.05.17/outbox.cif.g08.bks.cpg/sg24_13_cif.got.tgz:25074.got - 2010.06.04 00:33:39.
