data_PCOD9334952
_publ_section_title
;
Structure prediction by ZEFSAII (Michael W. Deem and Ramdas Pophale) SiO2 
 PCOD9334952
Probable space group: I 21 21 21
;
_chemical_formula_sum "Si O2"
_cell_formula_units_Z 40
_cell_length_a 8.734447
_cell_length_b 10.390032
_cell_length_c 21.583270
_cell_angle_alpha 90.000000
_cell_angle_beta 90.000000
_cell_angle_gamma 90.000000
_cell_volume 1958.707303
_symmetry_space_group_name_H-M "I 21 21 21"
_symmetry_group_IT_number 24
_symmetry_cell_setting 'orthorhombic'
loop_
_space_group_symop_operation_xyz
x,y,z
-x,1/2-y,z
x,-y,1/2-z
1/2-x,y,-z
1/2+x,1/2+y,1/2+z
1/2-x,-y,1/2+z
1/2+x,1/2-y,-z
-x,1/2+y,1/2-z
loop_
_atom_site_type_symbol
_atom_site_label
_atom_site_fract_x
_atom_site_fract_y
_atom_site_fract_z
Si Si1 0.910767 0.876449 0.855873
Si Si2 0.864744 0.854753 0.223607
Si Si3 0.633200 0.848639 0.330738
Si Si4 0.631105 0.854917 0.555803
Si Si5 0.570640 0.118936 0.500536
O O1 0.728498 0.859466 0.841578
O O2 0.963415 0.896906 0.927219
O O3 0.000000 0.750000 0.834347
O O4 0.942408 0.011105 0.822405
O O5 0.731888 0.811021 0.271170
O O6 0.000000 0.750000 0.222801
O O7 0.907264 0.000000 0.250000
O O8 0.500000 0.750000 0.346359
O O9 0.758707 0.862422 0.385083
O O10 0.500000 0.750000 0.563386
O O11 0.750000 0.826864 0.500000
O O12 0.546941 0.988861 0.538551
O O13 0.500000 0.250000 0.525009
O O14 0.750000 0.139991 0.500000
#
# Coordination Sequence:
#
# PCOD9334952 Si02
#       5
#     8   8   8   8   8
#     4  10  21  40  61  86 118 158 196 244 295 351
#     4  10  23  41  63  90 122 152 195 248 299 352
#     4  11  22  41  63  89 121 156 197 248 294 355
#     4  11  22  39  60  87 123 157 200 244 294 346
#     4  10  21  39  58  84 122 155 200 240 288 346
#
# _framework density 20.421631999999999
#
# number of rings (size 3 to 8) (size 9 to 14) (size 15 to 20)
#    0.000    1.600    4.000    1.800    0.000    3.200 
#    3.600    0.000    0.000    0.000    0.000    0.000 
#    0.000    0.000    0.000    0.000    0.000    0.000 
#
# Total GULP energy -111498.144301 kJ/mol
# GULP energy per Si atom -5574.907215 kJ/mol
# Density = 2.037515 g / cm^3
# Si number density = 20.421632 Si / 1000 Ang^3
#
#
#
# Elastic Constant Matrix: (Units=GPa)
#
#
# Indices 1 2 3 4 5 6 
#
# 1 63.7189 100.0573 18.3911 0.0000 0.0000 0.0000
# 2 100.0573 202.7479 32.6815 0.0000 0.0000 0.0000
# 3 18.3911 32.6815 84.0908 0.0000 0.0000 0.0000
# 4 0.0000 0.0000 0.0000 23.4151 0.0000 0.0000
# 5 0.0000 0.0000 0.0000 0.0000 6.6387 0.0000
# 6 0.0000 0.0000 0.0000 0.0000 0.0000 50.0577
#
#
#
# Elastic Compliance Matrix: (Units=1/GPa)
#
#
# Indices 1 2 3 4 5 6 
#
# 1 0.070052 -0.034247 -0.002011 0.000000 0.000000 0.000000
# 2 -0.034247 0.022005 -0.001062 0.000000 0.000000 0.000000
# 3 -0.002011 -0.001062 0.012744 0.000000 0.000000 0.000000
# 4 0.000000 0.000000 0.000000 0.042707 0.000000 0.000000
# 5 0.000000 0.000000 0.000000 0.000000 0.150631 0.000000
# 6 0.000000 0.000000 0.000000 0.000000 0.000000 0.019977
#
#
# Mechanical properties :
#
#
# Convention : Reuss Voigt Hill
#
# Bulk Modulus (GPa) = 33.15488 72.53527 52.84508
# Shear Modulus (GPa) = 12.41279 29.31749 20.86514
#
# Velocity S-wave (km/s) = 2.46809 3.79305 3.19990
# Velocity P-wave (km/s) = 4.93886 7.40128 6.29171
#
# Compressibility (1/GPa) = 0.03016147
#
# Stress axis : x y z
#
# Youngs Moduli (GPa) = 14.27506 45.44515 78.46578
#
# Poissons Ratio (x) = 1.55636 0.15778
# Poissons Ratio (y) = 0.48888 0.08333
# Poissons Ratio (z) = 0.02871 0.04826
#
# Static dielectric constant tensor:
#      x y z
#    x 1.683160 0.000000 0.000000 
#    y 0.000000 1.662960 0.000000 
#    z 0.000000 0.000000 1.913360 
# 
# From -- ./inp_files/35009.got.cif
#   From: 2010.05.17/outbox.cif.g08.bks.cpg/sg24_18_cif.got.tgz:35009.got - 2010.06.04 00:33:39.
