data_PCOD9334255
_publ_section_title
;
Structure prediction by ZEFSAII (Michael W. Deem and Ramdas Pophale) SiO2 
 PCOD9334255
Probable space group: I 21 21 21
;
_chemical_formula_sum "Si O2"
_cell_formula_units_Z 44
_cell_length_a 8.742076
_cell_length_b 8.519607
_cell_length_c 25.346326
_cell_angle_alpha 90.000000
_cell_angle_beta 90.000000
_cell_angle_gamma 90.000000
_cell_volume 1887.770329
_symmetry_space_group_name_H-M "I 21 21 21"
_symmetry_group_IT_number 24
_symmetry_cell_setting 'orthorhombic'
loop_
_space_group_symop_operation_xyz
x,y,z
-x,1/2-y,z
x,-y,1/2-z
1/2-x,y,-z
1/2+x,1/2+y,1/2+z
1/2-x,-y,1/2+z
1/2+x,1/2-y,-z
-x,1/2+y,1/2-z
loop_
_atom_site_type_symbol
_atom_site_label
_atom_site_fract_x
_atom_site_fract_y
_atom_site_fract_z
Si Si1 0.575307 0.076316 0.301174
Si Si2 0.750000 0.355810 0.500000
Si Si3 0.176730 0.877155 0.645487
Si Si4 0.408858 0.886127 0.893196
Si Si5 0.222493 0.458203 0.109352
Si Si6 0.992011 0.914610 0.536273
O O1 0.500000 0.250000 0.295816
O O2 0.654833 0.000000 0.250000
O O3 0.446601 0.940442 0.312883
O O4 0.690231 0.077300 0.350973
O O5 0.809780 0.304723 0.441200
O O6 0.905492 0.450920 0.512017
O O7 0.255600 0.707172 0.641174
O O8 0.085532 0.883985 0.590315
O O9 0.299712 0.013439 0.642598
O O10 0.500000 0.750000 0.864457
O O11 0.549469 0.004152 0.906583
O O12 0.323420 0.453883 0.055859
O O13 0.000000 0.750000 0.505607
#
# Coordination Sequence:
#
# PCOD9334255 Si02
#       6
#     8   4   8   8   8   8
#     4  11  21  37  63  94 124 155 192 237 287 352
#     4  10  22  34  50  80 116 150 196 246 294 352
#     4   9  19  38  58  83 115 153 196 241 296 354
#     4  11  23  38  56  81 115 157 201 248 299 352
#     4  10  20  37  60  83 113 156 198 244 297 350
#     4   8  17  32  52  77 107 143 189 239 292 348
#
# _framework density 23.307919999999999
#
# number of rings (size 3 to 8) (size 9 to 14) (size 15 to 20)
#    0.000    2.182    0.000    4.364    0.000    6.545 
#    0.000    2.727    0.000    1.091    0.000    0.000 
#    0.000    0.000    0.000    0.000    0.000    0.000 
#
# Total GULP energy -122477.507807 kJ/mol
# GULP energy per Si atom -5567.159446 kJ/mol
# Density = 2.325487 g / cm^3
# Si number density = 23.307920 Si / 1000 Ang^3
#
#
#
# Elastic Constant Matrix: (Units=GPa)
#
#
# Indices 1 2 3 4 5 6 
#
# 1 98.4421 5.2960 11.1942 0.0000 0.0000 0.0000
# 2 5.2960 86.9943 14.1131 0.0000 0.0000 0.0000
# 3 11.1942 14.1131 68.1698 0.0000 0.0000 0.0000
# 4 0.0000 0.0000 0.0000 -32.4944 0.0000 0.0000
# 5 0.0000 0.0000 0.0000 0.0000 25.6627 0.0000
# 6 0.0000 0.0000 0.0000 0.0000 0.0000 43.2807
#
#
#
# Elastic Compliance Matrix: (Units=1/GPa)
#
#
# Indices 1 2 3 4 5 6 
#
# 1 0.010363 -0.000367 -0.001626 0.000000 0.000000 0.000000
# 2 -0.000367 0.011908 -0.002405 0.000000 0.000000 0.000000
# 3 -0.001626 -0.002405 0.015434 0.000000 0.000000 0.000000
# 4 0.000000 0.000000 0.000000 -0.030775 0.000000 0.000000
# 5 0.000000 0.000000 0.000000 0.000000 0.038967 0.000000
# 6 0.000000 0.000000 0.000000 0.000000 0.000000 0.023105
#
#
# Mechanical properties :
#
#
# Convention : Reuss Voigt Hill
#
# Bulk Modulus (GPa) = 34.59128 34.97920 34.78524
# Shear Modulus (GPa) = 57.18612 22.15665 39.67139
#
# Velocity S-wave (km/s) = 4.95866 3.08654 4.13007
# Velocity P-wave (km/s) = 6.90345 5.26709 6.14003
#
# Compressibility (1/GPa) = 0.02890902
#
# Stress axis : x y z
#
# Youngs Moduli (GPa) = 96.49835 83.98068 64.79165
#
# Poissons Ratio (x) = 0.03083 0.10533
# Poissons Ratio (y) = 0.03543 0.15582
# Poissons Ratio (z) = 0.15688 0.20197
#
# Static dielectric constant tensor:
#      x y z
#    x 2.040010 0.000000 0.000000 
#    y 0.000000 2.044920 0.000000 
#    z 0.000000 0.000000 1.961380 
# 
# From -- ./inp_files/16719.got.cif
#   From: 2010.05.17/outbox.cif.g08.bks.cpg/sg24_9_cif.got.tgz:16719.got - 2010.06.04 00:33:39.
