data_PCOD9334440
_publ_section_title
;
Structure prediction by ZEFSAII (Michael W. Deem and Ramdas Pophale) SiO2 
 PCOD9334440
Probable space group: I 21 21 21
;
_chemical_formula_sum "Si O2"
_cell_formula_units_Z 20
_cell_length_a 10.141250
_cell_length_b 5.029212
_cell_length_c 16.514001
_cell_angle_alpha 90.000000
_cell_angle_beta 90.000000
_cell_angle_gamma 90.000000
_cell_volume 842.255273
_symmetry_space_group_name_H-M "I 21 21 21"
_symmetry_group_IT_number 24
_symmetry_cell_setting 'orthorhombic'
loop_
_space_group_symop_operation_xyz
x,y,z
-x,1/2-y,z
x,-y,1/2-z
1/2-x,y,-z
1/2+x,1/2+y,1/2+z
1/2-x,-y,1/2+z
1/2+x,1/2-y,-z
-x,1/2+y,1/2-z
loop_
_atom_site_type_symbol
_atom_site_label
_atom_site_fract_x
_atom_site_fract_y
_atom_site_fract_z
Si Si1 0.136466 0.623286 0.938847
Si Si2 0.709992 0.366903 0.160167
Si Si3 0.000000 0.250000 0.192647
O O1 0.125889 0.388982 0.870708
O O2 0.000000 0.750000 0.974352
O O3 0.190889 0.884031 0.896511
O O4 0.250000 0.529308 0.000000
O O5 0.689896 0.500000 0.250000
O O6 0.861983 0.280413 0.148906
O O7 0.017051 0.500000 0.250000
#
# Coordination Sequence:
#
# PCOD9334440 Si02
#       3
#     8   8   4
#     4  12  28  47  73 107 149 198 237 298 371 436
#     4  11  24  45  75 106 145 190 247 304 357 429
#     4  10  20  38  68 106 140 180 230 294 362 418
#
# _framework density 23.74577
#
# number of rings (size 3 to 8) (size 9 to 14) (size 15 to 20)
#    0.000    0.800    0.000    8.400    5.600    3.200 
#    0.000    2.000    0.000    0.000    0.000    0.000 
#    0.000    0.000    0.000    0.000    0.000    0.000 
#
# Total GULP energy -55800.648618 kJ/mol
# GULP energy per Si atom -5580.064862 kJ/mol
# Density = 2.369172 g / cm^3
# Si number density = 23.745770 Si / 1000 Ang^3
#
#
#
# Elastic Constant Matrix: (Units=GPa)
#
#
# Indices 1 2 3 4 5 6 
#
# 1 140.9709 42.1620 39.2670 0.0000 0.0000 0.0000
# 2 42.1620 182.1220 23.3390 0.0000 0.0000 0.0000
# 3 39.2670 23.3390 65.9934 0.0000 0.0000 0.0000
# 4 0.0000 0.0000 0.0000 -78.9261 0.0000 0.0000
# 5 0.0000 0.0000 0.0000 0.0000 22.8991 0.0000
# 6 0.0000 0.0000 0.0000 0.0000 0.0000 50.8985
#
#
#
# Elastic Compliance Matrix: (Units=1/GPa)
#
#
# Indices 1 2 3 4 5 6 
#
# 1 0.008849 -0.001439 -0.004756 0.000000 0.000000 0.000000
# 2 -0.001439 0.005986 -0.001261 0.000000 0.000000 0.000000
# 3 -0.004756 -0.001261 0.018429 0.000000 0.000000 0.000000
# 4 0.000000 0.000000 0.000000 -0.012670 0.000000 0.000000
# 5 0.000000 0.000000 0.000000 0.000000 0.043670 0.000000
# 6 0.000000 0.000000 0.000000 0.000000 0.000000 0.019647
#
#
# Mechanical properties :
#
#
# Convention : Reuss Voigt Hill
#
# Bulk Modulus (GPa) = 54.49141 66.51360 60.50251
# Shear Modulus (GPa) = 47.64670 17.92884 32.78777
#
# Velocity S-wave (km/s) = 4.48429 2.75077 3.71992
# Velocity P-wave (km/s) = 7.05759 6.17742 6.63212
#
# Compressibility (1/GPa) = 0.01835151
#
# Stress axis : x y z
#
# Youngs Moduli (GPa) = 113.00829 167.07007 54.26253
#
# Poissons Ratio (x) = 0.24042 0.25809
# Poissons Ratio (y) = 0.16262 0.06840
# Poissons Ratio (z) = 0.53750 0.21060
#
# Static dielectric constant tensor:
#      x y z
#    x 2.220090 0.000000 0.000000 
#    y 0.000000 1.821740 0.000000 
#    z 0.000000 0.000000 1.960840 
# 
# From -- ./inp_files/649.got.cif
#   From: 2010.05.17/outbox.cif.g08.bks.cpg/sg24_1_cif.got.tgz:649.got - 2010.06.04 00:33:39.
