data_PCOD9334009
_publ_section_title
;
Structure prediction by ZEFSAII (Michael W. Deem and Ramdas Pophale) SiO2 
 PCOD9334009
Probable space group: I 21 21 21
;
_chemical_formula_sum "Si O2"
_cell_formula_units_Z 52
_cell_length_a 22.271461
_cell_length_b 18.819358
_cell_length_c 5.806533
_cell_angle_alpha 90.000000
_cell_angle_beta 90.000000
_cell_angle_gamma 90.000000
_cell_volume 2433.718873
_symmetry_space_group_name_H-M "I 21 21 21"
_symmetry_group_IT_number 24
_symmetry_cell_setting 'orthorhombic'
loop_
_space_group_symop_operation_xyz
x,y,z
-x,1/2-y,z
x,-y,1/2-z
1/2-x,y,-z
1/2+x,1/2+y,1/2+z
1/2-x,-y,1/2+z
1/2+x,1/2-y,-z
-x,1/2+y,1/2-z
loop_
_atom_site_type_symbol
_atom_site_label
_atom_site_fract_x
_atom_site_fract_y
_atom_site_fract_z
Si Si1 0.285499 0.500000 0.750000
Si Si2 0.061849 0.000000 0.750000
Si Si3 0.118060 0.775772 0.183010
Si Si4 0.900562 0.577523 0.354787
Si Si5 0.681280 0.852240 0.574657
Si Si6 0.975566 0.932517 0.128783
Si Si7 0.585102 0.176835 0.311123
Si Si8 0.000000 0.250000 0.010978
O O1 0.250000 0.492503 0.500000
O O2 0.320589 0.573723 0.712878
O O3 0.016876 0.038034 0.575984
O O4 0.101138 0.939575 0.625013
O O5 0.134218 0.856939 0.242614
O O6 0.163486 0.716950 0.279663
O O7 0.056783 0.764381 0.327613
O O8 0.105305 0.752269 0.920977
O O9 0.885352 0.500000 0.250000
O O10 0.971461 0.591969 0.299915
O O11 0.750000 0.844716 0.500000
O O12 0.636432 0.854060 0.354974
O O13 0.945132 0.000000 0.250000
O O14 0.932856 0.873520 0.023764
O O15 0.525767 0.190020 0.160560
#
# Coordination Sequence:
#
# PCOD9334009 Si02
#       8
#     4   4   8   8   8   8   8   4
#     4  10  24  50  83  98 134 180 237 308 360 416
#     4   8  16  32  55  76 132 172 217 260 314 416
#     4  11  22  37  63  91 128 170 220 280 340 424
#     4   9  18  32  56  89 124 176 215 260 335 413
#     4  10  26  46  68  96 121 177 232 298 353 411
#     4   9  18  32  51  84 127 174 216 268 332 404
#     4  11  22  38  61  94 133 175 224 284 343 418
#     4  10  20  34  58  90 130 172 216 262 344 404
#
# _framework density 21.366475999999999
#
# number of rings (size 3 to 8) (size 9 to 14) (size 15 to 20)
#    0.000    2.462    0.000    3.231    4.308    7.385 
#    4.154    0.000    6.769    0.000    6.000    0.000 
#    0.000    0.000    0.000    0.000    0.000    0.000 
#
# Total GULP energy -144968.829232 kJ/mol
# GULP energy per Si atom -5575.724201 kJ/mol
# Density = 2.131785 g / cm^3
# Si number density = 21.366476 Si / 1000 Ang^3
#
#
#
# Elastic Constant Matrix: (Units=GPa)
#
#
# Indices 1 2 3 4 5 6 
#
# 1 72.3630 40.5411 15.6065 0.0000 0.0000 0.0000
# 2 40.5411 177.0639 54.8741 0.0000 0.0000 0.0000
# 3 15.6065 54.8741 95.6305 0.0000 0.0000 0.0000
# 4 0.0000 0.0000 0.0000 28.1250 0.0000 0.0000
# 5 0.0000 0.0000 0.0000 0.0000 12.7768 0.0000
# 6 0.0000 0.0000 0.0000 0.0000 0.0000 31.2479
#
#
#
# Elastic Compliance Matrix: (Units=1/GPa)
#
#
# Indices 1 2 3 4 5 6 
#
# 1 0.015882 -0.003446 -0.000615 0.000000 0.000000 0.000000
# 2 -0.003446 0.007617 -0.003808 0.000000 0.000000 0.000000
# 3 -0.000615 -0.003808 0.012742 0.000000 0.000000 0.000000
# 4 0.000000 0.000000 0.000000 0.035556 0.000000 0.000000
# 5 0.000000 0.000000 0.000000 0.000000 0.078267 0.000000
# 6 0.000000 0.000000 0.000000 0.000000 0.000000 0.032002
#
#
# Mechanical properties :
#
#
# Convention : Reuss Voigt Hill
#
# Bulk Modulus (GPa) = 48.77102 63.01122 55.89112
# Shear Modulus (GPa) = 24.43326 30.03231 27.23278
#
# Velocity S-wave (km/s) = 3.38528 3.75317 3.57397
# Velocity P-wave (km/s) = 6.17703 6.95244 6.57618
#
# Compressibility (1/GPa) = 0.02050398
#
# Stress axis : x y z
#
# Youngs Moduli (GPa) = 62.96283 131.28639 78.47765
#
# Poissons Ratio (x) = 0.45242 0.04823
# Poissons Ratio (y) = 0.21697 0.29887
# Poissons Ratio (z) = 0.03869 0.49998
#
# Static dielectric constant tensor:
#      x y z
#    x 1.753520 0.000000 0.000000 
#    y 0.000000 1.884320 0.000000 
#    z 0.000000 0.000000 1.873690 
# 
# From -- ./inp_files/5713.got.cif
#   From: 2010.05.17/outbox.cif.g08.bks.cpg/sg24_3_cif.got.tgz:5713.got - 2010.06.04 00:33:39.
