data_PCOD9334005
_publ_section_title
;
Structure prediction by ZEFSAII (Michael W. Deem and Ramdas Pophale) SiO2 
 PCOD9334005
Probable space group: I 21 21 21
;
_chemical_formula_sum "Si O2"
_cell_formula_units_Z 32
_cell_length_a 5.126817
_cell_length_b 17.345820
_cell_length_c 16.742184
_cell_angle_alpha 90.000000
_cell_angle_beta 90.000000
_cell_angle_gamma 90.000000
_cell_volume 1488.863083
_symmetry_space_group_name_H-M "I 21 21 21"
_symmetry_group_IT_number 24
_symmetry_cell_setting 'orthorhombic'
loop_
_space_group_symop_operation_xyz
x,y,z
-x,1/2-y,z
x,-y,1/2-z
1/2-x,y,-z
1/2+x,1/2+y,1/2+z
1/2-x,-y,1/2+z
1/2+x,1/2-y,-z
-x,1/2+y,1/2-z
loop_
_atom_site_type_symbol
_atom_site_label
_atom_site_fract_x
_atom_site_fract_y
_atom_site_fract_z
Si Si1 0.306801 0.316808 0.592162
Si Si2 0.863943 0.524008 0.088192
Si Si3 0.909090 0.619114 0.789323
Si Si4 0.090764 0.418527 0.202457
O O1 0.500000 0.250000 0.621783
O O2 0.250000 0.299275 0.500000
O O3 0.453452 0.399816 0.592368
O O4 0.045472 0.328210 0.643505
O O5 0.646279 0.542172 0.156549
O O6 0.014275 0.447073 0.114712
O O7 0.750000 0.519669 0.000000
O O8 0.128835 0.615178 0.721341
O O9 0.637004 0.631900 0.743635
O O10 0.093137 0.500000 0.250000
#
# Coordination Sequence:
#
# PCOD9334005 Si02
#       4
#     8   8   8   8
#     4  12  25  36  53  80 123 165 203 224 269 341
#     4  11  22  36  57  84 115 156 191 240 294 345
#     4  11  21  38  54  78 107 157 191 238 285 334
#     4  10  20  34  58  76 106 145 193 241 296 334
#
# _framework density 21.492912
#
# number of rings (size 3 to 8) (size 9 to 14) (size 15 to 20)
#    0.000    1.000    7.500    3.000    0.000    0.000 
#    0.000    0.000    0.000    0.000    0.000    0.000 
#    0.000    4.000    0.500    0.000    0.000    0.000 
#
# Total GULP energy -89307.125280 kJ/mol
# GULP energy per Si atom -5581.695330 kJ/mol
# Density = 2.144399 g / cm^3
# Si number density = 21.492912 Si / 1000 Ang^3
#
#
#
# Elastic Constant Matrix: (Units=GPa)
#
#
# Indices 1 2 3 4 5 6 
#
# 1 121.8602 14.6453 21.3922 0.0000 0.0000 0.0000
# 2 14.6453 35.7999 21.1364 0.0000 0.0000 0.0000
# 3 21.3922 21.1364 77.7347 0.0000 0.0000 0.0000
# 4 0.0000 0.0000 0.0000 -45.3867 0.0000 0.0000
# 5 0.0000 0.0000 0.0000 0.0000 27.6847 0.0000
# 6 0.0000 0.0000 0.0000 0.0000 0.0000 35.9773
#
#
#
# Elastic Compliance Matrix: (Units=1/GPa)
#
#
# Indices 1 2 3 4 5 6 
#
# 1 0.008820 -0.002591 -0.001723 0.000000 0.000000 0.000000
# 2 -0.002591 0.034036 -0.008541 0.000000 0.000000 0.000000
# 3 -0.001723 -0.008541 0.015661 0.000000 0.000000 0.000000
# 4 0.000000 0.000000 0.000000 -0.022033 0.000000 0.000000
# 5 0.000000 0.000000 0.000000 0.000000 0.036121 0.000000
# 6 0.000000 0.000000 0.000000 0.000000 0.000000 0.027795
#
#
# Mechanical properties :
#
#
# Convention : Reuss Voigt Hill
#
# Bulk Modulus (GPa) = 30.48196 38.86027 34.67111
# Shear Modulus (GPa) = 36.48408 15.53643 26.01025
#
# Velocity S-wave (km/s) = 4.12453 2.69153 3.48254
# Velocity P-wave (km/s) = 6.07417 5.27056 5.68658
#
# Compressibility (1/GPa) = 0.03280629
#
# Stress axis : x y z
#
# Youngs Moduli (GPa) = 113.37956 29.38069 63.85367
#
# Poissons Ratio (x) = 0.07613 0.11000
# Poissons Ratio (y) = 0.29377 0.54540
# Poissons Ratio (z) = 0.19532 0.25095
#
# Static dielectric constant tensor:
#      x y z
#    x 1.907630 0.000000 0.000000 
#    y 0.000000 1.853060 0.000000 
#    z 0.000000 0.000000 1.824780 
# 
# From -- ./inp_files/4449.got.cif
#   From: 2010.05.17/outbox.cif.g08.bks.cpg/sg24_3_cif.got.tgz:4449.got - 2010.06.04 00:33:39.
