data_PCOD9334915
_publ_section_title
;
Structure prediction by ZEFSAII (Michael W. Deem and Ramdas Pophale) SiO2 
 PCOD9334915
Probable space group: I 21 21 21
;
_chemical_formula_sum "Si O2"
_cell_formula_units_Z 40
_cell_length_a 14.152598
_cell_length_b 5.285392
_cell_length_c 24.545298
_cell_angle_alpha 90.000000
_cell_angle_beta 90.000000
_cell_angle_gamma 90.000000
_cell_volume 1836.038074
_symmetry_space_group_name_H-M "I 21 21 21"
_symmetry_group_IT_number 24
_symmetry_cell_setting 'orthorhombic'
loop_
_space_group_symop_operation_xyz
x,y,z
-x,1/2-y,z
x,-y,1/2-z
1/2-x,y,-z
1/2+x,1/2+y,1/2+z
1/2-x,-y,1/2+z
1/2+x,1/2-y,-z
-x,1/2+y,1/2-z
loop_
_atom_site_type_symbol
_atom_site_label
_atom_site_fract_x
_atom_site_fract_y
_atom_site_fract_z
Si Si1 0.500000 0.250000 0.281670
Si Si2 0.367550 0.393398 0.056880
Si Si3 0.862724 0.109454 0.068027
Si Si4 0.939686 0.500000 0.250000
Si Si5 0.871411 0.606958 0.878491
Si Si6 0.855105 0.607533 0.132842
O O1 0.463896 0.500000 0.250000
O O2 0.419472 0.133816 0.320253
O O3 0.252265 0.391340 0.061230
O O4 0.397952 0.644802 0.087644
O O5 0.398754 0.142412 0.088290
O O6 0.397276 0.401981 0.994017
O O7 0.889960 0.368750 0.097649
O O8 0.888308 0.868910 0.105190
O O9 0.882952 0.574343 0.195579
O O10 0.000000 0.750000 0.263627
O O11 0.758529 0.605077 0.871341
#
# Coordination Sequence:
#
# PCOD9334915 Si02
#       6
#     4   8   8   4   8   8
#     4  12  26  42  60  88 132 168 206 258 298 342
#     4   9  17  33  61  91 123 155 195 252 300 357
#     4   9  17  33  61  95 119 151 201 249 298 362
#     4  12  26  44  64  86 124 162 200 266 318 350
#     4  10  21  38  61  91 124 160 206 244 301 363
#     4  10  21  38  63  91 117 160 207 247 300 378
#
# _framework density 21.786042999999999
#
# number of rings (size 3 to 8) (size 9 to 14) (size 15 to 20)
#    0.000    2.000    0.000    3.600    1.400    4.800 
#    1.800    0.000   22.000    0.000    0.000    0.000 
#    0.000    0.000    0.000    0.000    0.000    0.000 
#
# Total GULP energy -111903.412791 kJ/mol
# GULP energy per Si atom -5595.170640 kJ/mol
# Density = 2.173646 g / cm^3
# Si number density = 21.786043 Si / 1000 Ang^3
#
#
#
# Elastic Constant Matrix: (Units=GPa)
#
#
# Indices 1 2 3 4 5 6 
#
# 1 53.9181 35.3967 22.2434 0.0000 0.0000 0.0000
# 2 35.3967 218.4930 102.3492 0.0000 0.0000 0.0000
# 3 22.2434 102.3492 183.2026 0.0000 0.0000 0.0000
# 4 0.0000 0.0000 0.0000 49.0966 0.0000 0.0000
# 5 0.0000 0.0000 0.0000 0.0000 16.2339 0.0000
# 6 0.0000 0.0000 0.0000 0.0000 0.0000 25.5190
#
#
#
# Elastic Compliance Matrix: (Units=1/GPa)
#
#
# Indices 1 2 3 4 5 6 
#
# 1 0.020857 -0.002970 -0.000873 0.000000 0.000000 0.000000
# 2 -0.002970 0.006622 -0.003339 0.000000 0.000000 0.000000
# 3 -0.000873 -0.003339 0.007430 0.000000 0.000000 0.000000
# 4 0.000000 0.000000 0.000000 0.020368 0.000000 0.000000
# 5 0.000000 0.000000 0.000000 0.000000 0.061600 0.000000
# 6 0.000000 0.000000 0.000000 0.000000 0.000000 0.039187
#
#
# Mechanical properties :
#
#
# Convention : Reuss Voigt Hill
#
# Bulk Modulus (GPa) = 48.67474 86.17693 67.42584
# Shear Modulus (GPa) = 28.20488 37.87819 33.04153
#
# Velocity S-wave (km/s) = 3.60200 4.17423 3.89863
# Velocity P-wave (km/s) = 6.29999 7.92932 7.16115
#
# Compressibility (1/GPa) = 0.02054454
#
# Stress axis : x y z
#
# Youngs Moduli (GPa) = 47.94668 151.01237 134.59357
#
# Poissons Ratio (x) = 0.44848 0.11752
# Poissons Ratio (y) = 0.14239 0.44939
# Poissons Ratio (z) = 0.04186 0.50421
#
# Static dielectric constant tensor:
#      x y z
#    x 1.831110 0.000000 0.000000 
#    y 0.000000 1.736450 0.000000 
#    z 0.000000 0.000000 1.756320 
# 
# From -- ./inp_files/31027.got.cif
#   From: 2010.05.17/outbox.cif.g08.bks.cpg/sg24_16_cif.got.tgz:31027.got - 2010.06.04 00:33:39.
