data_PCOD9334210
_publ_section_title
;
Structure prediction by ZEFSAII (Michael W. Deem and Ramdas Pophale) SiO2 
 PCOD9334210
Probable space group: I 21 21 21
;
_chemical_formula_sum "Si O2"
_cell_formula_units_Z 44
_cell_length_a 16.275049
_cell_length_b 5.615911
_cell_length_c 20.768051
_cell_angle_alpha 90.000000
_cell_angle_beta 90.000000
_cell_angle_gamma 90.000000
_cell_volume 1898.183802
_symmetry_space_group_name_H-M "I 21 21 21"
_symmetry_group_IT_number 24
_symmetry_cell_setting 'orthorhombic'
loop_
_space_group_symop_operation_xyz
x,y,z
-x,1/2-y,z
x,-y,1/2-z
1/2-x,y,-z
1/2+x,1/2+y,1/2+z
1/2-x,-y,1/2+z
1/2+x,1/2-y,-z
-x,1/2+y,1/2-z
loop_
_atom_site_type_symbol
_atom_site_label
_atom_site_fract_x
_atom_site_fract_y
_atom_site_fract_z
Si Si1 0.264437 0.359741 0.816964
Si Si2 0.577322 0.393784 0.845726
Si Si3 0.413446 0.673189 0.509821
Si Si4 0.750000 0.427790 0.000000
Si Si5 0.347025 0.719177 0.912752
Si Si6 0.410910 0.248360 0.209749
O O1 0.261563 0.500000 0.750000
O O2 0.338576 0.174453 0.811043
O O3 0.292447 0.529486 0.874815
O O4 0.174265 0.255344 0.828293
O O5 0.500000 0.250000 0.816451
O O6 0.581845 0.291062 0.918719
O O7 0.588368 0.671974 0.861407
O O8 0.500000 0.750000 0.479086
O O9 0.397663 0.398557 0.528310
O O10 0.329118 0.771878 0.480500
O O11 0.716021 0.592602 0.942846
O O12 0.500000 0.250000 0.175982
O O13 0.411613 0.500000 0.250000
O O14 0.407431 0.000000 0.250000
#
# Coordination Sequence:
#
# PCOD9334210 Si02
#       6
#     8   8   8   4   8   8
#     4  10  22  36  58  93 123 165 209 266 325 387
#     4   9  20  36  56  87 121 163 208 255 311 389
#     4   9  19  36  60  90 116 161 208 253 320 388
#     4  10  20  36  64  92 120 160 216 260 316 394
#     4  10  21  39  64  88 127 165 212 268 323 384
#     4   9  19  36  61  89 119 164 218 263 318 389
#
# _framework density 23.180053999999998
#
# number of rings (size 3 to 8) (size 9 to 14) (size 15 to 20)
#    0.000    2.545    0.000    0.545    5.091   11.636 
#    3.273    0.000    0.000   26.182    0.000    0.000 
#    0.000    0.000    0.000    0.000    0.000    0.000 
#
# Total GULP energy -122565.488633 kJ/mol
# GULP energy per Si atom -5571.158574 kJ/mol
# Density = 2.312729 g / cm^3
# Si number density = 23.180054 Si / 1000 Ang^3
#
#
#
# Elastic Constant Matrix: (Units=GPa)
#
#
# Indices 1 2 3 4 5 6 
#
# 1 283.4145 76.0593 35.0184 0.0000 0.0000 0.0000
# 2 76.0593 104.7561 16.1021 0.0000 0.0000 0.0000
# 3 35.0184 16.1021 54.4971 0.0000 0.0000 0.0000
# 4 0.0000 0.0000 0.0000 27.7051 0.0000 0.0000
# 5 0.0000 0.0000 0.0000 0.0000 24.7497 0.0000
# 6 0.0000 0.0000 0.0000 0.0000 0.0000 19.8197
#
#
#
# Elastic Compliance Matrix: (Units=1/GPa)
#
#
# Indices 1 2 3 4 5 6 
#
# 1 0.004593 -0.003018 -0.002059 0.000000 0.000000 0.000000
# 2 -0.003018 0.011983 -0.001601 0.000000 0.000000 0.000000
# 3 -0.002059 -0.001601 0.020146 0.000000 0.000000 0.000000
# 4 0.000000 0.000000 0.000000 0.036094 0.000000 0.000000
# 5 0.000000 0.000000 0.000000 0.000000 0.040405 0.000000
# 6 0.000000 0.000000 0.000000 0.000000 0.000000 0.050455
#
#
# Mechanical properties :
#
#
# Convention : Reuss Voigt Hill
#
# Bulk Modulus (GPa) = 42.79997 77.44746 60.12372
# Shear Modulus (GPa) = 27.05300 35.48742 31.27021
#
# Velocity S-wave (km/s) = 3.41996 3.91698 3.67688
# Velocity P-wave (km/s) = 5.83944 7.34443 6.63475
#
# Compressibility (1/GPa) = 0.02336450
#
# Stress axis : x y z
#
# Youngs Moduli (GPa) = 217.73068 83.44833 49.63737
#
# Poissons Ratio (x) = 0.25186 0.10223
# Poissons Ratio (y) = 0.65714 0.07949
# Poissons Ratio (z) = 0.44841 0.13363
#
# Static dielectric constant tensor:
#      x y z
#    x 1.930240 0.000000 0.000000 
#    y 0.000000 2.151680 0.000000 
#    z 0.000000 0.000000 1.913250 
# 
# From -- ./inp_files/37323.got.cif
#   From: 2010.05.17/outbox.cif.g08.bks.cpg/sg24_19_cif.got.tgz:37323.got - 2010.06.04 00:33:39.
