data_PCOD9334000
_publ_section_title
;
Structure prediction by ZEFSAII (Michael W. Deem and Ramdas Pophale) SiO2 
 PCOD9334000
Probable space group: I 21 21 21
;
_chemical_formula_sum "Si O2"
_cell_formula_units_Z 44
_cell_length_a 18.361835
_cell_length_b 8.687385
_cell_length_c 11.042878
_cell_angle_alpha 90.000000
_cell_angle_beta 90.000000
_cell_angle_gamma 90.000000
_cell_volume 1761.519371
_symmetry_space_group_name_H-M "I 21 21 21"
_symmetry_group_IT_number 24
_symmetry_cell_setting 'orthorhombic'
loop_
_space_group_symop_operation_xyz
x,y,z
-x,1/2-y,z
x,-y,1/2-z
1/2-x,y,-z
1/2+x,1/2+y,1/2+z
1/2-x,-y,1/2+z
1/2+x,1/2-y,-z
-x,1/2+y,1/2-z
loop_
_atom_site_type_symbol
_atom_site_label
_atom_site_fract_x
_atom_site_fract_y
_atom_site_fract_z
Si Si1 0.993104 0.000000 0.750000
Si Si2 0.456635 0.530816 0.634686
Si Si3 0.668157 0.742816 0.688257
Si Si4 0.107512 0.339658 0.552812
Si Si5 0.250000 0.449131 0.000000
Si Si6 0.826548 0.434301 0.438838
Si Si7 0.500000 0.250000 0.079549
O O1 0.938493 0.897237 0.833149
O O2 0.036050 0.876653 0.668473
O O3 0.509164 0.500000 0.750000
O O4 0.395311 0.633621 0.700784
O O5 0.440106 0.375391 0.565336
O O6 0.462719 0.638105 0.515953
O O7 0.729033 0.839066 0.613460
O O8 0.643667 0.597622 0.606264
O O9 0.687062 0.672793 0.819555
O O10 0.181489 0.442108 0.535828
O O11 0.127546 0.161552 0.536810
O O12 0.750000 0.468025 0.500000
#
# Coordination Sequence:
#
# PCOD9334000 Si02
#       7
#     4   8   8   8   4   8   4
#     4  10  24  44  66 100 132 168 228 276 348 412
#     4  10  20  43  65  92 123 166 223 284 340 399
#     4  10  22  37  57  87 138 167 218 274 321 395
#     4  10  21  35  63  91 130 173 218 263 325 410
#     4  10  20  34  56  92 130 184 212 258 324 392
#     4  11  21  36  55  91 131 177 215 259 321 387
#     4  10  24  46  70  96 128 170 224 294 346 404
#
# _framework density 24.978435000000001
#
# number of rings (size 3 to 8) (size 9 to 14) (size 15 to 20)
#    0.000    1.818    3.636    0.000    2.545    1.455 
#    3.273    3.636    0.000    0.000    0.000    0.000 
#    0.000    0.000    0.000    0.000    0.000    0.000 
#
# Total GULP energy -122668.326282 kJ/mol
# GULP energy per Si atom -5575.833013 kJ/mol
# Density = 2.492158 g / cm^3
# Si number density = 24.978435 Si / 1000 Ang^3
#
#
#
# Elastic Constant Matrix: (Units=GPa)
#
#
# Indices 1 2 3 4 5 6 
#
# 1 40.2021 29.0096 17.4196 0.0000 0.0000 0.0000
# 2 29.0096 154.7288 45.2994 0.0000 0.0000 0.0000
# 3 17.4196 45.2994 136.7926 0.0000 0.0000 0.0000
# 4 0.0000 0.0000 0.0000 36.8167 0.0000 0.0000
# 5 0.0000 0.0000 0.0000 0.0000 -13.7163 0.0000
# 6 0.0000 0.0000 0.0000 0.0000 0.0000 22.8499
#
#
#
# Elastic Compliance Matrix: (Units=1/GPa)
#
#
# Indices 1 2 3 4 5 6 
#
# 1 0.029310 -0.004875 -0.002118 0.000000 0.000000 0.000000
# 2 -0.004875 0.007968 -0.002018 0.000000 0.000000 0.000000
# 3 -0.002118 -0.002018 0.008248 0.000000 0.000000 0.000000
# 4 0.000000 0.000000 0.000000 0.027162 0.000000 0.000000
# 5 0.000000 0.000000 0.000000 0.000000 -0.072906 0.000000
# 6 0.000000 0.000000 0.000000 0.000000 0.000000 0.043764
#
#
# Mechanical properties :
#
#
# Convention : Reuss Voigt Hill
#
# Bulk Modulus (GPa) = 36.35819 57.24230 46.80025
# Shear Modulus (GPa) = 70.68616 25.18972 47.93794
#
# Velocity S-wave (km/s) = 5.32544 3.17907 4.38559
# Velocity P-wave (km/s) = 7.23887 6.03670 6.66494
#
# Compressibility (1/GPa) = 0.02750412
#
# Stress axis : x y z
#
# Youngs Moduli (GPa) = 34.11812 125.50725 121.23830
#
# Poissons Ratio (x) = 0.61187 0.25678
# Poissons Ratio (y) = 0.16633 0.24462
# Poissons Ratio (z) = 0.07226 0.25324
#
# Static dielectric constant tensor:
#      x y z
#    x 2.083490 0.000000 0.000000 
#    y 0.000000 3.595140 0.000000 
#    z 0.000000 0.000000 2.168180 
# 
# From -- ./inp_files/18555.got.cif
#   From: 2010.05.17/outbox.cif.g08.bks.cpg/sg24_10_cif.got.tgz:18555.got - 2010.06.04 00:33:39.
