data_PCOD9334968
_publ_section_title
;
Structure prediction by ZEFSAII (Michael W. Deem and Ramdas Pophale) SiO2 
 PCOD9334968
Probable space group: I 21 21 21
;
_chemical_formula_sum "Si O2"
_cell_formula_units_Z 40
_cell_length_a 7.143050
_cell_length_b 11.436638
_cell_length_c 18.436747
_cell_angle_alpha 90.000000
_cell_angle_beta 90.000000
_cell_angle_gamma 90.000000
_cell_volume 1506.143531
_symmetry_space_group_name_H-M "I 21 21 21"
_symmetry_group_IT_number 24
_symmetry_cell_setting 'orthorhombic'
loop_
_space_group_symop_operation_xyz
x,y,z
-x,1/2-y,z
x,-y,1/2-z
1/2-x,y,-z
1/2+x,1/2+y,1/2+z
1/2-x,-y,1/2+z
1/2+x,1/2-y,-z
-x,1/2+y,1/2-z
loop_
_atom_site_type_symbol
_atom_site_label
_atom_site_fract_x
_atom_site_fract_y
_atom_site_fract_z
Si Si1 0.775274 0.246547 0.157654
Si Si2 0.750000 0.802297 0.500000
Si Si3 0.648418 0.007167 0.672463
Si Si4 0.464521 0.986221 0.977997
Si Si5 0.772715 0.256538 0.315705
Si Si6 0.500000 0.250000 0.439268
O O1 0.732837 0.272814 0.074082
O O2 0.714609 0.300185 0.235074
O O3 0.000000 0.250000 0.161694
O O4 0.730913 0.108477 0.161293
O O5 0.578493 0.895495 0.502340
O O6 0.502252 0.019442 0.608107
O O7 0.778273 0.118892 0.678795
O O8 0.547378 0.000000 0.750000
O O9 0.544097 0.864712 0.012329
O O10 0.250000 0.991617 0.000000
O O11 0.665676 0.298069 0.386641
O O12 0.000000 0.250000 0.320347
#
# Coordination Sequence:
#
# PCOD9334968 Si02
#       6
#     8   4   8   8   8   4
#     4   9  19  40  65  89 118 171 227 269 334 384
#     4  10  22  46  64  88 130 176 220 282 338 382
#     4   9  19  39  64  83 123 176 209 251 325 393
#     4  11  24  38  62  98 129 171 214 272 332 402
#     4  10  21  39  61  91 133 173 207 264 335 411
#     4  12  24  34  62 102 134 164 216 262 340 412
#
# _framework density 26.557891000000001
#
# number of rings (size 3 to 8) (size 9 to 14) (size 15 to 20)
#    0.000    2.000    0.000    3.600    5.600    0.000 
#    9.000    8.000    0.000   10.800    0.000    0.000 
#    0.000    0.000    0.000    0.000    0.000    0.000 
#
# Total GULP energy -111687.559761 kJ/mol
# GULP energy per Si atom -5584.377988 kJ/mol
# Density = 2.649744 g / cm^3
# Si number density = 26.557891 Si / 1000 Ang^3
#
#
#
# Elastic Constant Matrix: (Units=GPa)
#
#
# Indices 1 2 3 4 5 6 
#
# 1 123.9669 -10.4595 64.2832 0.0000 0.0000 0.0000
# 2 -10.4595 52.6602 15.4754 0.0000 0.0000 0.0000
# 3 64.2832 15.4754 266.1054 0.0000 0.0000 0.0000
# 4 0.0000 0.0000 0.0000 19.5285 0.0000 0.0000
# 5 0.0000 0.0000 0.0000 0.0000 38.9610 0.0000
# 6 0.0000 0.0000 0.0000 0.0000 0.0000 30.0421
#
#
#
# Elastic Compliance Matrix: (Units=1/GPa)
#
#
# Indices 1 2 3 4 5 6 
#
# 1 0.009565 0.002624 -0.002463 0.000000 0.000000 0.000000
# 2 0.002624 0.020040 -0.001799 0.000000 0.000000 0.000000
# 3 -0.002463 -0.001799 0.004458 0.000000 0.000000 0.000000
# 4 0.000000 0.000000 0.000000 0.051207 0.000000 0.000000
# 5 0.000000 0.000000 0.000000 0.000000 0.025667 0.000000
# 6 0.000000 0.000000 0.000000 0.000000 0.000000 0.033287
#
#
# Mechanical properties :
#
#
# Convention : Reuss Voigt Hill
#
# Bulk Modulus (GPa) = 32.48325 64.59229 48.53777
# Shear Modulus (GPa) = 31.69324 42.60188 37.14756
#
# Velocity S-wave (km/s) = 3.45826 4.00948 3.74403
# Velocity P-wave (km/s) = 5.31072 6.76821 6.08327
#
# Compressibility (1/GPa) = 0.03078509
#
# Stress axis : x y z
#
# Youngs Moduli (GPa) = 104.54348 49.90129 224.33566
#
# Poissons Ratio (x) = -0.13093 0.55261
# Poissons Ratio (y) = -0.27430 0.40363
# Poissons Ratio (z) = 0.25752 0.08978
#
# Static dielectric constant tensor:
#      x y z
#    x 2.161780 0.000000 0.000000 
#    y 0.000000 2.182240 0.000000 
#    z 0.000000 0.000000 2.167730 
# 
# From -- ./inp_files/29277.got.cif
#   From: 2010.05.17/outbox.cif.g08.bks.cpg/sg24_15_cif.got.tgz:29277.got - 2010.06.04 00:33:39.
