data_PCOD9334187
_publ_section_title
;
Structure prediction by ZEFSAII (Michael W. Deem and Ramdas Pophale) SiO2 
 PCOD9334187
Probable space group: I 21 21 21
;
_chemical_formula_sum "Si O2"
_cell_formula_units_Z 48
_cell_length_a 5.272308
_cell_length_b 14.477296
_cell_length_c 30.257663
_cell_angle_alpha 90.000000
_cell_angle_beta 90.000000
_cell_angle_gamma 90.000000
_cell_volume 2309.530004
_symmetry_space_group_name_H-M "I 21 21 21"
_symmetry_group_IT_number 24
_symmetry_cell_setting 'orthorhombic'
loop_
_space_group_symop_operation_xyz
x,y,z
-x,1/2-y,z
x,-y,1/2-z
1/2-x,y,-z
1/2+x,1/2+y,1/2+z
1/2-x,-y,1/2+z
1/2+x,1/2-y,-z
-x,1/2+y,1/2-z
loop_
_atom_site_type_symbol
_atom_site_label
_atom_site_fract_x
_atom_site_fract_y
_atom_site_fract_z
Si Si1 0.425537 0.000000 0.250000
Si Si2 0.605887 0.659341 0.707335
Si Si3 0.845328 0.331590 0.881219
Si Si4 0.500000 0.250000 0.472477
Si Si5 0.786262 0.981449 0.662512
Si Si6 0.816471 0.933080 0.927128
Si Si7 0.671351 0.456978 0.951997
O O1 0.272642 0.907148 0.262112
O O2 0.584555 0.022195 0.293883
O O3 0.500000 0.750000 0.731837
O O4 0.740754 0.706235 0.665017
O O5 0.429952 0.583617 0.682836
O O6 0.648084 0.377015 0.915007
O O7 0.000000 0.250000 0.904012
O O8 0.026902 0.411910 0.863078
O O9 0.250000 0.214719 0.500000
O O10 0.371938 0.330408 0.443494
O O11 0.731570 0.055534 0.624265
O O12 0.584688 0.982857 0.952843
O O13 0.085126 0.982998 0.936877
O O14 0.750000 0.420390 0.000000
#
# Coordination Sequence:
#
# PCOD9334187 Si02
#       7
#     4   8   8   4   8   8   8
#     4  10  24  38  62  98 130 168 230 284 338 422
#     4  11  20  39  67  92 125 175 224 275 340 410
#     4  10  20  36  60  92 122 167 219 272 324 407
#     4  12  24  42  68 100 132 178 244 294 346 424
#     4  10  21  40  61  89 128 166 219 270 345 407
#     4  11  23  41  65  93 130 178 225 287 342 409
#     4  11  22  39  63  94 135 175 218 272 341 400
#
# _framework density 20.783449000000001
#
# number of rings (size 3 to 8) (size 9 to 14) (size 15 to 20)
#    0.000    1.333    3.333    3.500    0.000    0.000 
#    0.000    7.500    0.000    0.000    0.000    0.000 
#    0.000    0.000    0.000    0.000    0.000    0.000 
#
# Total GULP energy -133745.529833 kJ/mol
# GULP energy per Si atom -5572.730410 kJ/mol
# Density = 2.073614 g / cm^3
# Si number density = 20.783449 Si / 1000 Ang^3
#
#
#
# Elastic Constant Matrix: (Units=GPa)
#
#
# Indices 1 2 3 4 5 6 
#
# 1 92.0141 25.9454 25.3914 0.0000 0.0000 0.0000
# 2 25.9454 74.1851 48.0989 0.0000 0.0000 0.0000
# 3 25.3914 48.0989 115.9950 0.0000 0.0000 0.0000
# 4 0.0000 0.0000 0.0000 20.6513 0.0000 0.0000
# 5 0.0000 0.0000 0.0000 0.0000 26.0230 0.0000
# 6 0.0000 0.0000 0.0000 0.0000 0.0000 37.1543
#
#
#
# Elastic Compliance Matrix: (Units=1/GPa)
#
#
# Indices 1 2 3 4 5 6 
#
# 1 0.012184 -0.003463 -0.001231 0.000000 0.000000 0.000000
# 2 -0.003463 0.019421 -0.007295 0.000000 0.000000 0.000000
# 3 -0.001231 -0.007295 0.011916 0.000000 0.000000 0.000000
# 4 0.000000 0.000000 0.000000 0.048423 0.000000 0.000000
# 5 0.000000 0.000000 0.000000 0.000000 0.038428 0.000000
# 6 0.000000 0.000000 0.000000 0.000000 0.000000 0.026915
#
#
# Mechanical properties :
#
#
# Convention : Reuss Voigt Hill
#
# Bulk Modulus (GPa) = 51.17168 53.45172 52.31170
# Shear Modulus (GPa) = 26.62716 28.94962 27.78839
#
# Velocity S-wave (km/s) = 3.58323 3.73623 3.66053
# Velocity P-wave (km/s) = 6.46484 6.66234 6.56433
#
# Compressibility (1/GPa) = 0.01954206
#
# Stress axis : x y z
#
# Youngs Moduli (GPa) = 82.07412 51.49130 83.92408
#
# Poissons Ratio (x) = 0.17832 0.10332
# Poissons Ratio (y) = 0.28423 0.61223
# Poissons Ratio (z) = 0.10104 0.37563
#
# Static dielectric constant tensor:
#      x y z
#    x 1.760300 0.000000 0.000000 
#    y 0.000000 1.631050 0.000000 
#    z 0.000000 0.000000 1.777820 
# 
# From -- ./inp_files/37904.got.cif
#   From: 2010.05.17/outbox.cif.g08.bks.cpg/sg24_19_cif.got.tgz:37904.got - 2010.06.04 00:33:39.
