data_PCOD9334356
_publ_section_title
;
Structure prediction by ZEFSAII (Michael W. Deem and Ramdas Pophale) SiO2 
 PCOD9334356
Probable space group: I 21 21 21
;
_chemical_formula_sum "Si O2"
_cell_formula_units_Z 64
_cell_length_a 22.936918
_cell_length_b 16.574037
_cell_length_c 8.714971
_cell_angle_alpha 90.000000
_cell_angle_beta 90.000000
_cell_angle_gamma 90.000000
_cell_volume 3313.060085
_symmetry_space_group_name_H-M "I 21 21 21"
_symmetry_group_IT_number 24
_symmetry_cell_setting 'orthorhombic'
loop_
_space_group_symop_operation_xyz
x,y,z
-x,1/2-y,z
x,-y,1/2-z
1/2-x,y,-z
1/2+x,1/2+y,1/2+z
1/2-x,-y,1/2+z
1/2+x,1/2-y,-z
-x,1/2+y,1/2-z
loop_
_atom_site_type_symbol
_atom_site_label
_atom_site_fract_x
_atom_site_fract_y
_atom_site_fract_z
Si Si1 0.473978 0.081174 0.670185
Si Si2 0.769904 0.081423 0.176776
Si Si3 0.596829 0.884313 0.669111
Si Si4 0.250061 0.755428 0.183332
Si Si5 0.454194 0.083834 0.307727
Si Si6 0.121354 0.782820 0.198150
Si Si7 0.377776 0.241177 0.331711
Si Si8 0.083546 0.587577 0.688156
O O1 0.540480 0.094078 0.728357
O O2 0.470174 0.075240 0.487140
O O3 0.427631 0.149675 0.715145
O O4 0.453584 0.000000 0.750000
O O5 0.839379 0.082161 0.209649
O O6 0.750311 0.164882 0.252008
O O7 0.745340 0.000000 0.250000
O O8 0.750000 0.083289 0.000000
O O9 0.603894 0.788921 0.689594
O O10 0.589576 0.909205 0.493896
O O11 0.190035 0.800142 0.229154
O O12 0.313794 0.788018 0.222526
O O13 0.250000 0.750876 0.000000
O O14 0.420670 0.168232 0.286902
O O15 0.514994 0.090164 0.220923
O O16 0.424976 0.000000 0.250000
O O17 0.119210 0.754041 0.018714
O O18 0.390561 0.330500 0.264405
O O19 0.105095 0.500000 0.750000
#
# Coordination Sequence:
#
# PCOD9334356 Si02
#       8
#     8   8   8   8   8   8   8   8
#     4  11  21  37  59  83 113 144 184 239 289 339
#     4  11  23  37  53  78 111 147 187 230 275 328
#     4  11  23  37  57  83 113 149 189 231 280 339
#     4   9  19  37  58  78 104 144 188 226 273 336
#     4  10  22  38  57  85 115 148 190 235 289 343
#     4   9  21  38  58  83 110 147 189 231 285 339
#     4  10  20  38  61  81 113 153 188 233 283 339
#     4  11  23  36  55  85 118 150 189 233 284 341
#
# _framework density 19.317488999999998
#
# number of rings (size 3 to 8) (size 9 to 14) (size 15 to 20)
#    0.000    1.750    0.000    4.500    0.000   10.000 
#    0.000    0.625    0.000    0.000    0.000    0.000 
#    0.000    0.000    0.000    0.000    0.000    0.000 
#
# Total GULP energy -178431.433798 kJ/mol
# GULP energy per Si atom -5575.982306 kJ/mol
# Density = 1.927352 g / cm^3
# Si number density = 19.317489 Si / 1000 Ang^3
#
#
#
# Elastic Constant Matrix: (Units=GPa)
#
#
# Indices 1 2 3 4 5 6 
#
# 1 105.0421 47.3657 19.8121 0.0000 0.0000 0.0000
# 2 47.3657 85.7439 24.4559 0.0000 0.0000 0.0000
# 3 19.8121 24.4559 23.4568 0.0000 0.0000 0.0000
# 4 0.0000 0.0000 0.0000 30.0232 0.0000 0.0000
# 5 0.0000 0.0000 0.0000 0.0000 36.6920 0.0000
# 6 0.0000 0.0000 0.0000 0.0000 0.0000 -270.1995
#
#
#
# Elastic Compliance Matrix: (Units=1/GPa)
#
#
# Indices 1 2 3 4 5 6 
#
# 1 0.013078 -0.005798 -0.005001 0.000000 0.000000 0.000000
# 2 -0.005798 0.019169 -0.015088 0.000000 0.000000 0.000000
# 3 -0.005001 -0.015088 0.062587 0.000000 0.000000 0.000000
# 4 0.000000 0.000000 0.000000 0.033308 0.000000 0.000000
# 5 0.000000 0.000000 0.000000 0.000000 0.027254 0.000000
# 6 0.000000 0.000000 0.000000 0.000000 0.000000 -0.003701
#
#
# Mechanical properties :
#
#
# Convention : Reuss Voigt Hill
#
# Bulk Modulus (GPa) = 23.22402 44.16780 33.69591
# Shear Modulus (GPa) = 22.95465 -32.52293 -4.78414
#
# Velocity S-wave (km/s) = 3.45089 -4.10762 -1.57542
# Velocity P-wave (km/s) = 5.28456 0.64580 3.76455
#
# Compressibility (1/GPa) = 0.04305887
#
# Stress axis : x y z
#
# Youngs Moduli (GPa) = 76.46682 52.16770 15.97786
#
# Poissons Ratio (x) = 0.30246 0.07990
# Poissons Ratio (y) = 0.44334 0.24108
# Poissons Ratio (z) = 0.38240 0.78713
#
# Static dielectric constant tensor:
#      x y z
#    x 1.714340 0.000000 0.000000 
#    y 0.000000 1.685680 0.000000 
#    z 0.000000 0.000000 2.090800 
# 
# From -- ./inp_files/16068.got.cif
#   From: 2010.05.17/outbox.cif.g08.bks.cpg/sg24_9_cif.got.tgz:16068.got - 2010.06.04 00:33:39.
