data_PCOD9334730
_publ_section_title
;
Structure prediction by ZEFSAII (Michael W. Deem and Ramdas Pophale) SiO2 
 PCOD9334730
Probable space group: I 21 21 21
;
_chemical_formula_sum "Si O2"
_cell_formula_units_Z 64
_cell_length_a 17.676455
_cell_length_b 14.334988
_cell_length_c 13.379872
_cell_angle_alpha 90.000000
_cell_angle_beta 90.000000
_cell_angle_gamma 90.000000
_cell_volume 3390.349453
_symmetry_space_group_name_H-M "I 21 21 21"
_symmetry_group_IT_number 24
_symmetry_cell_setting 'orthorhombic'
loop_
_space_group_symop_operation_xyz
x,y,z
-x,1/2-y,z
x,-y,1/2-z
1/2-x,y,-z
1/2+x,1/2+y,1/2+z
1/2-x,-y,1/2+z
1/2+x,1/2-y,-z
-x,1/2+y,1/2-z
loop_
_atom_site_type_symbol
_atom_site_label
_atom_site_fract_x
_atom_site_fract_y
_atom_site_fract_z
Si Si1 0.075546 0.195321 0.403723
Si Si2 0.006985 0.000406 0.040569
Si Si3 0.112586 0.502994 0.861810
Si Si4 0.130013 0.555317 0.167467
Si Si5 0.201779 0.689454 0.601516
Si Si6 0.653314 0.242536 0.778389
Si Si7 0.829209 0.838100 0.979225
Si Si8 0.078929 0.801038 0.486786
O O1 0.134501 0.185973 0.311446
O O2 0.108147 0.263264 0.490126
O O3 0.000000 0.250000 0.369034
O O4 0.052575 0.094971 0.444967
O O5 0.059647 0.090284 0.028907
O O6 0.945766 0.998703 0.132616
O O7 0.954419 0.997056 0.942611
O O8 0.082834 0.500000 0.750000
O O9 0.162614 0.409965 0.877194
O O10 0.156089 0.601458 0.881231
O O11 0.176746 0.500000 0.250000
O O12 0.118615 0.650700 0.226701
O O13 0.170285 0.582079 0.065646
O O14 0.250000 0.676081 0.500000
O O15 0.260125 0.722985 0.687874
O O16 0.139141 0.767344 0.570427
O O17 0.610309 0.266026 0.880074
O O18 0.750000 0.789273 0.000000
O O19 0.000000 0.750000 0.508740
#
# Coordination Sequence:
#
# PCOD9334730 Si02
#       8
#     8   8   8   8   8   8   8   8
#     4  11  20  42  63  92 132 159 213 270 327 392
#     4  11  23  41  63  97 125 168 214 273 323 378
#     4  11  23  38  63  90 126 166 219 263 331 393
#     4  10  21  33  57  92 128 150 196 258 332 378
#     4  10  23  40  57  94 137 170 210 269 329 389
#     4  10  22  35  60  93 130 170 200 260 337 393
#     4  10  23  37  56  89 128 165 207 260 325 382
#     4  11  21  38  62  90 131 167 217 261 320 390
#
# _framework density 18.877109999999998
#
# number of rings (size 3 to 8) (size 9 to 14) (size 15 to 20)
#    0.000    1.500    5.000    1.500   12.250    0.000 
#    0.000    4.375    0.000    0.000    0.000    0.000 
#    0.000    0.000    0.000    0.000    0.000    0.000 
#
# Total GULP energy -178272.121983 kJ/mol
# GULP energy per Si atom -5571.003812 kJ/mol
# Density = 1.883414 g / cm^3
# Si number density = 18.877110 Si / 1000 Ang^3
#
#
#
# Elastic Constant Matrix: (Units=GPa)
#
#
# Indices 1 2 3 4 5 6 
#
# 1 95.6683 47.7144 47.2448 0.0000 0.0000 0.0000
# 2 47.7144 65.3986 44.1831 0.0000 0.0000 0.0000
# 3 47.2448 44.1831 103.2598 0.0000 0.0000 0.0000
# 4 0.0000 0.0000 0.0000 16.9464 0.0000 0.0000
# 5 0.0000 0.0000 0.0000 0.0000 29.3069 0.0000
# 6 0.0000 0.0000 0.0000 0.0000 0.0000 -23.7664
#
#
#
# Elastic Compliance Matrix: (Units=1/GPa)
#
#
# Indices 1 2 3 4 5 6 
#
# 1 0.017305 -0.010235 -0.003538 0.000000 0.000000 0.000000
# 2 -0.010235 0.027562 -0.007110 0.000000 0.000000 0.000000
# 3 -0.003538 -0.007110 0.014346 0.000000 0.000000 0.000000
# 4 0.000000 0.000000 0.000000 0.059010 0.000000 0.000000
# 5 0.000000 0.000000 0.000000 0.000000 0.034122 0.000000
# 6 0.000000 0.000000 0.000000 0.000000 0.000000 -0.042076
#
#
# Mechanical properties :
#
#
# Convention : Reuss Voigt Hill
#
# Bulk Modulus (GPa) = 57.32260 60.29015 58.80638
# Shear Modulus (GPa) = 31.67567 12.84301 22.25934
#
# Velocity S-wave (km/s) = 4.10078 2.61118 3.43763
# Velocity P-wave (km/s) = 7.27007 6.41082 6.85392
#
# Compressibility (1/GPa) = 0.01744513
#
# Stress axis : x y z
#
# Youngs Moduli (GPa) = 57.78748 36.28164 69.70816
#
# Poissons Ratio (x) = 0.37135 0.24663
# Poissons Ratio (y) = 0.59146 0.49566
# Poissons Ratio (z) = 0.20446 0.25798
#
# Static dielectric constant tensor:
#      x y z
#    x 1.709330 0.000000 0.000000 
#    y 0.000000 1.735920 0.000000 
#    z 0.000000 0.000000 1.690850 
# 
# From -- ./inp_files/21717.got.cif
#   From: 2010.05.17/outbox.cif.g08.bks.cpg/sg24_11_cif.got.tgz:21717.got - 2010.06.04 00:33:39.
