data_PCOD9334775
_publ_section_title
;
Structure prediction by ZEFSAII (Michael W. Deem and Ramdas Pophale) SiO2 
 PCOD9334775
Probable space group: I 21 21 21
;
_chemical_formula_sum "Si O2"
_cell_formula_units_Z 48
_cell_length_a 7.906856
_cell_length_b 31.065462
_cell_length_c 9.476107
_cell_angle_alpha 90.000000
_cell_angle_beta 90.000000
_cell_angle_gamma 90.000000
_cell_volume 2327.617438
_symmetry_space_group_name_H-M "I 21 21 21"
_symmetry_group_IT_number 24
_symmetry_cell_setting 'orthorhombic'
loop_
_space_group_symop_operation_xyz
x,y,z
-x,1/2-y,z
x,-y,1/2-z
1/2-x,y,-z
1/2+x,1/2+y,1/2+z
1/2-x,-y,1/2+z
1/2+x,1/2-y,-z
-x,1/2+y,1/2-z
loop_
_atom_site_type_symbol
_atom_site_label
_atom_site_fract_x
_atom_site_fract_y
_atom_site_fract_z
Si Si1 0.314360 0.889219 0.850577
Si Si2 0.400991 0.388257 0.110583
Si Si3 0.384106 0.182746 0.194624
Si Si4 0.168462 0.959365 0.649483
Si Si5 0.175384 0.346151 0.346772
Si Si6 0.761936 0.226112 0.835457
O O1 0.197455 0.847931 0.811436
O O2 0.286883 0.924837 0.730732
O O3 0.505535 0.873499 0.858450
O O4 0.250000 0.906517 0.000000
O O5 0.547149 0.352129 0.079446
O O6 0.494869 0.433349 0.123727
O O7 0.312424 0.373489 0.256468
O O8 0.250000 0.388327 0.000000
O O9 0.558073 0.208561 0.223114
O O10 0.257705 0.222254 0.165515
O O11 0.250000 0.971153 0.500000
O O12 0.144755 0.000000 0.750000
O O13 0.250000 0.336280 0.500000
O O14 0.137900 0.302189 0.259512
O O15 0.750000 0.213806 0.000000
#
# Coordination Sequence:
#
# PCOD9334775 Si02
#       6
#     8   8   8   8   8   8
#     4  11  23  41  64  89 120 162 209 256 313 378
#     4  10  21  42  66  92 124 161 209 255 311 381
#     4   9  20  35  57  84 118 159 205 255 303 358
#     4  11  24  43  68  96 127 160 201 253 312 382
#     4  11  22  38  61  87 122 164 206 259 315 370
#     4  10  21  36  55  84 122 161 208 262 310 363
#
# _framework density 20.621946000000001
#
# number of rings (size 3 to 8) (size 9 to 14) (size 15 to 20)
#    0.000    1.667    0.000    6.500    0.000    9.333 
#    0.000    7.500    0.000    0.000    0.000    0.000 
#    0.000    0.000    0.000    0.000    0.000    0.000 
#
# Total GULP energy -133874.219019 kJ/mol
# GULP energy per Si atom -5578.092459 kJ/mol
# Density = 2.057501 g / cm^3
# Si number density = 20.621946 Si / 1000 Ang^3
#
#
#
# Elastic Constant Matrix: (Units=GPa)
#
#
# Indices 1 2 3 4 5 6 
#
# 1 81.9333 37.7199 31.2771 -0.0001 0.0001 0.0000
# 2 37.7199 134.0284 52.5102 -0.0018 0.0002 0.0001
# 3 31.2771 52.5102 137.0239 -0.0026 0.0004 0.0001
# 4 -0.0001 -0.0018 -0.0026 21.5561 0.0003 0.0001
# 5 0.0001 0.0002 0.0004 0.0003 28.5252 -0.0002
# 6 0.0000 0.0001 0.0001 0.0001 -0.0002 12.5055
#
#
#
# Elastic Compliance Matrix: (Units=1/GPa)
#
#
# Indices 1 2 3 4 5 6 
#
# 1 0.014497 -0.003275 -0.002054 0.000000 0.000000 0.000000
# 2 -0.003275 0.009519 -0.002900 0.000000 0.000000 0.000000
# 3 -0.002054 -0.002900 0.008878 0.000001 0.000000 0.000000
# 4 0.000000 0.000000 0.000001 0.046391 -0.000001 0.000000
# 5 0.000000 0.000000 0.000000 -0.000001 0.035057 0.000000
# 6 0.000000 0.000000 0.000000 0.000000 0.000000 0.079965
#
#
# Mechanical properties :
#
#
# Convention : Reuss Voigt Hill
#
# Bulk Modulus (GPa) = 60.84418 66.22223 63.53320
# Shear Modulus (GPa) = 23.12207 27.94927 25.53567
#
# Velocity S-wave (km/s) = 3.35212 3.68546 3.52273
# Velocity P-wave (km/s) = 6.67465 7.09171 6.88634
#
# Compressibility (1/GPa) = 0.01643543
#
# Stress axis : x y z
#
# Youngs Moduli (GPa) = 68.98008 105.05137 112.63431
#
# Poissons Ratio (x) = 0.34406 0.23135
# Poissons Ratio (y) = 0.22592 0.32668
# Poissons Ratio (z) = 0.14168 0.30468
#
# Static dielectric constant tensor:
#      x y z
#    x 1.806930 0.000000 0.000000 
#    y 0.000000 1.770880 0.000000 
#    z 0.000000 0.000000 1.754030 
# 
# From -- ./inp_files/9772.got.cif
#   From: 2010.05.17/outbox.cif.g08.bks.cpg/sg24_5_cif.got.tgz:9772.got - 2010.06.04 00:33:39.
