data_PCOD9334559
_publ_section_title
;
Structure prediction by ZEFSAII (Michael W. Deem and Ramdas Pophale) SiO2 
 PCOD9334559
Probable space group: I 21 21 21
;
_chemical_formula_sum "Si O2"
_cell_formula_units_Z 56
_cell_length_a 15.369040
_cell_length_b 9.288302
_cell_length_c 20.710935
_cell_angle_alpha 90.000000
_cell_angle_beta 90.000000
_cell_angle_gamma 90.000000
_cell_volume 2956.533295
_symmetry_space_group_name_H-M "I 21 21 21"
_symmetry_group_IT_number 24
_symmetry_cell_setting 'orthorhombic'
loop_
_space_group_symop_operation_xyz
x,y,z
-x,1/2-y,z
x,-y,1/2-z
1/2-x,y,-z
1/2+x,1/2+y,1/2+z
1/2-x,-y,1/2+z
1/2+x,1/2-y,-z
-x,1/2+y,1/2-z
loop_
_atom_site_type_symbol
_atom_site_label
_atom_site_fract_x
_atom_site_fract_y
_atom_site_fract_z
Si Si1 0.096397 0.239960 0.526712
Si Si2 0.299244 0.948192 0.107411
Si Si3 0.087210 0.840487 0.775306
Si Si4 0.356773 0.267793 0.615886
Si Si5 0.273680 0.256955 0.170303
Si Si6 0.911398 0.173499 0.241203
Si Si7 0.277457 0.496478 0.428954
O O1 0.149868 0.093659 0.542083
O O2 0.090249 0.258024 0.449934
O O3 0.152808 0.372401 0.554750
O O4 0.000000 0.250000 0.554312
O O5 0.362641 0.871329 0.158845
O O6 0.209712 0.863833 0.111677
O O7 0.280687 0.110053 0.128820
O O8 0.157179 0.764554 0.728030
O O9 0.000000 0.750000 0.781092
O O10 0.065120 0.000000 0.750000
O O11 0.399087 0.267831 0.685805
O O12 0.301662 0.413719 0.605818
O O13 0.176897 0.287529 0.200370
O O14 0.303289 0.382559 0.121752
O O15 0.000000 0.250000 0.215113
O O16 0.920122 0.000000 0.250000
O O17 0.250000 0.554148 0.500000
#
# Coordination Sequence:
#
# PCOD9334559 Si02
#       7
#     8   8   8   8   8   8   8
#     4  10  21  39  62  93 123 163 217 261 301 378
#     4  10  21  37  62  86 125 162 207 255 316 369
#     4  10  22  36  57  90 122 163 208 255 308 374
#     4  10  20  40  64  89 121 165 209 254 311 374
#     4  11  23  41  62  89 128 163 204 264 324 375
#     4  12  26  41  67  96 126 170 215 267 327 382
#     4   9  20  38  62  85 117 161 207 250 316 382
#
# _framework density 18.941102000000001
#
# number of rings (size 3 to 8) (size 9 to 14) (size 15 to 20)
#    0.000    1.714    2.857    2.143    2.000    6.286 
#    0.000    0.000    0.000    0.857    0.000    0.000 
#    0.000    0.000    0.000    0.000    0.000    0.000 
#
# Total GULP energy -156090.649875 kJ/mol
# GULP energy per Si atom -5574.666067 kJ/mol
# Density = 1.889799 g / cm^3
# Si number density = 18.941102 Si / 1000 Ang^3
#
#
#
# Elastic Constant Matrix: (Units=GPa)
#
#
# Indices 1 2 3 4 5 6 
#
# 1 119.2662 48.6528 20.3182 0.0000 0.0000 0.0000
# 2 48.6528 77.0536 30.9616 0.0000 0.0000 0.0000
# 3 20.3182 30.9616 72.1319 0.0000 0.0000 0.0000
# 4 0.0000 0.0000 0.0000 24.4029 0.0000 0.0000
# 5 0.0000 0.0000 0.0000 0.0000 7.5294 0.0000
# 6 0.0000 0.0000 0.0000 0.0000 0.0000 20.4253
#
#
#
# Elastic Compliance Matrix: (Units=1/GPa)
#
#
# Indices 1 2 3 4 5 6 
#
# 1 0.011295 -0.007073 -0.000145 0.000000 0.000000 0.000000
# 2 -0.007073 0.020112 -0.006641 0.000000 0.000000 0.000000
# 3 -0.000145 -0.006641 0.016755 0.000000 0.000000 0.000000
# 4 0.000000 0.000000 0.000000 0.040979 0.000000 0.000000
# 5 0.000000 0.000000 0.000000 0.000000 0.132812 0.000000
# 6 0.000000 0.000000 0.000000 0.000000 0.000000 0.048959
#
#
# Mechanical properties :
#
#
# Convention : Reuss Voigt Hill
#
# Bulk Modulus (GPa) = 48.91521 52.03519 50.47520
# Shear Modulus (GPa) = 16.36957 21.70613 19.03785
#
# Velocity S-wave (km/s) = 2.94298 3.38891 3.17378
# Velocity P-wave (km/s) = 6.11793 6.54558 6.33537
#
# Compressibility (1/GPa) = 0.02044354
#
# Stress axis : x y z
#
# Youngs Moduli (GPa) = 88.53619 49.72045 59.68425
#
# Poissons Ratio (x) = 0.35169 0.00868
# Poissons Ratio (y) = 0.62624 0.39634
# Poissons Ratio (z) = 0.01288 0.33017
#
# Static dielectric constant tensor:
#      x y z
#    x 1.701330 0.000000 0.000000 
#    y 0.000000 1.656060 0.000000 
#    z 0.000000 0.000000 1.876790 
# 
# From -- ./inp_files/15243.got.cif
#   From: 2010.05.17/outbox.cif.g08.bks.cpg/sg24_8_cif.got.tgz:15243.got - 2010.06.04 00:33:39.
