data_PCOD9334015
_publ_section_title
;
Structure prediction by ZEFSAII (Michael W. Deem and Ramdas Pophale) SiO2 
 PCOD9334015
Probable space group: I 21 21 21
;
_chemical_formula_sum "Si O2"
_cell_formula_units_Z 40
_cell_length_a 16.111023
_cell_length_b 8.802603
_cell_length_c 13.035801
_cell_angle_alpha 90.000000
_cell_angle_beta 90.000000
_cell_angle_gamma 90.000000
_cell_volume 1848.723472
_symmetry_space_group_name_H-M "I 21 21 21"
_symmetry_group_IT_number 24
_symmetry_cell_setting 'orthorhombic'
loop_
_space_group_symop_operation_xyz
x,y,z
-x,1/2-y,z
x,-y,1/2-z
1/2-x,y,-z
1/2+x,1/2+y,1/2+z
1/2-x,-y,1/2+z
1/2+x,1/2-y,-z
-x,1/2+y,1/2-z
loop_
_atom_site_type_symbol
_atom_site_label
_atom_site_fract_x
_atom_site_fract_y
_atom_site_fract_z
Si Si1 0.722169 0.645006 0.112321
Si Si2 0.063312 0.948421 0.579988
Si Si3 0.888201 0.108793 0.850770
Si Si4 0.622981 0.573846 0.645988
Si Si5 0.282394 0.649870 0.700118
O O1 0.629254 0.577158 0.114443
O O2 0.787407 0.507427 0.128685
O O3 0.738191 0.757206 0.206547
O O4 0.750000 0.707553 0.000000
O O5 0.087691 0.789484 0.637787
O O6 0.074464 0.941216 0.458297
O O7 0.965737 0.971865 0.595039
O O8 0.791027 0.113279 0.880031
O O9 0.884538 0.000000 0.750000
O O10 0.587927 0.500000 0.750000
O O11 0.644263 0.748555 0.659614
O O12 0.316976 0.500000 0.750000
#
# Coordination Sequence:
#
# PCOD9334015 Si02
#       5
#     8   8   8   8   8
#     4   9  18  34  56  82 112 151 199 239 281 349
#     4  10  20  34  59  84 115 162 197 238 288 355
#     4  10  22  33  52  90 123 154 188 235 302 353
#     4   9  18  36  63  86 108 152 208 243 284 341
#     4  10  20  36  54  88 120 151 184 245 302 347
#
# _framework density 21.636552999999999
#
# number of rings (size 3 to 8) (size 9 to 14) (size 15 to 20)
#    0.000    2.400    2.000    0.000    5.600    0.000 
#    7.200    0.000    0.000    4.800    0.000    1.400 
#    0.000    0.000    0.000    0.000    0.000    0.000 
#
# Total GULP energy -111368.763144 kJ/mol
# GULP energy per Si atom -5568.438157 kJ/mol
# Density = 2.158731 g / cm^3
# Si number density = 21.636553 Si / 1000 Ang^3
#
#
#
# Elastic Constant Matrix: (Units=GPa)
#
#
# Indices 1 2 3 4 5 6 
#
# 1 31.5865 12.0514 15.8927 0.0000 0.0000 0.0000
# 2 12.0514 47.4700 10.4777 0.0000 0.0000 0.0000
# 3 15.8927 10.4777 80.0208 0.0000 0.0000 0.0000
# 4 0.0000 0.0000 0.0000 0.7840 0.0000 0.0000
# 5 0.0000 0.0000 0.0000 0.0000 23.4483 0.0000
# 6 0.0000 0.0000 0.0000 0.0000 0.0000 6.5245
#
#
#
# Elastic Compliance Matrix: (Units=1/GPa)
#
#
# Indices 1 2 3 4 5 6 
#
# 1 0.038061 -0.008232 -0.006481 0.000000 0.000000 0.000000
# 2 -0.008232 0.023473 -0.001439 0.000000 0.000000 0.000000
# 3 -0.006481 -0.001439 0.013972 0.000000 0.000000 0.000000
# 4 0.000000 0.000000 0.000000 1.275449 0.000000 0.000000
# 5 0.000000 0.000000 0.000000 0.000000 0.042647 0.000000
# 6 0.000000 0.000000 0.000000 0.000000 0.000000 0.153268
#
#
# Mechanical properties :
#
#
# Convention : Reuss Voigt Hill
#
# Bulk Modulus (GPa) = 23.14669 26.21344 24.68006
# Shear Modulus (GPa) = 3.13760 14.19506 8.66633
#
# Velocity S-wave (km/s) = 1.20552 2.56416 2.00352
# Velocity P-wave (km/s) = 3.55793 4.57255 4.09677
#
# Compressibility (1/GPa) = 0.04320273
#
# Stress axis : x y z
#
# Youngs Moduli (GPa) = 26.27361 42.60143 71.56992
#
# Poissons Ratio (x) = 0.35070 0.46387
# Poissons Ratio (y) = 0.21629 0.10296
# Poissons Ratio (z) = 0.17029 0.06129
#
# Static dielectric constant tensor:
#      x y z
#    x 1.781130 0.000000 0.000000 
#    y 0.000000 1.824470 0.000000 
#    z 0.000000 0.000000 1.835670 
# 
# From -- ./inp_files/26307.got.cif
#   From: 2010.05.17/outbox.cif.g08.bks.cpg/sg24_14_cif.got.tgz:26307.got - 2010.06.04 00:33:39.
