data_PCOD9334706
_publ_section_title
;
Structure prediction by ZEFSAII (Michael W. Deem and Ramdas Pophale) SiO2 
 PCOD9334706
Probable space group: I 21 21 21
;
_chemical_formula_sum "Si O2"
_cell_formula_units_Z 40
_cell_length_a 16.231127
_cell_length_b 7.987736
_cell_length_c 13.823246
_cell_angle_alpha 90.000000
_cell_angle_beta 90.000000
_cell_angle_gamma 90.000000
_cell_volume 1792.183256
_symmetry_space_group_name_H-M "I 21 21 21"
_symmetry_group_IT_number 24
_symmetry_cell_setting 'orthorhombic'
loop_
_space_group_symop_operation_xyz
x,y,z
-x,1/2-y,z
x,-y,1/2-z
1/2-x,y,-z
1/2+x,1/2+y,1/2+z
1/2-x,-y,1/2+z
1/2+x,1/2-y,-z
-x,1/2+y,1/2-z
loop_
_atom_site_type_symbol
_atom_site_label
_atom_site_fract_x
_atom_site_fract_y
_atom_site_fract_z
Si Si1 0.500000 0.250000 0.918147
Si Si2 0.803830 0.500000 0.250000
Si Si3 0.155255 0.625185 0.530238
Si Si4 0.660671 0.262176 0.456407
Si Si5 0.442347 0.096941 0.611580
Si Si6 0.201819 0.686099 0.736580
O O1 0.512966 0.423881 0.864930
O O2 0.584630 0.226597 0.976988
O O3 0.859740 0.594414 0.172944
O O4 0.753588 0.347706 0.203877
O O5 0.250000 0.665413 0.500000
O O6 0.144677 0.427818 0.507072
O O7 0.143817 0.650256 0.645249
O O8 0.750000 0.312000 0.500000
O O9 0.589245 0.377723 0.500801
O O10 0.666342 0.244656 0.340347
O O11 0.500000 0.250000 0.636024
O O12 0.243304 0.500000 0.750000
#
# Coordination Sequence:
#
# PCOD9334706 Si02
#       6
#     4   4   8   8   8   8
#     4  12  26  44  70 104 142 192 240 296 358 430
#     4  12  26  42  72 102 138 186 244 294 360 444
#     4  10  22  43  71 104 143 188 241 296 354 428
#     4  10  20  45  71  96 141 184 236 295 359 423
#     4  12  27  45  65 102 144 189 234 296 368 424
#     4  10  23  43  72 106 135 184 237 299 358 424
#
# _framework density 22.319144999999999
#
# number of rings (size 3 to 8) (size 9 to 14) (size 15 to 20)
#    0.000    1.200    4.000    1.200    4.200    2.400 
#    1.800    0.000    0.000    0.000    0.000    0.000 
#    0.000    0.000    0.000    0.000    0.000    0.000 
#
# Total GULP energy -111627.228984 kJ/mol
# GULP energy per Si atom -5581.361449 kJ/mol
# Density = 2.226835 g / cm^3
# Si number density = 22.319145 Si / 1000 Ang^3
#
#
#
# Elastic Constant Matrix: (Units=GPa)
#
#
# Indices 1 2 3 4 5 6 
#
# 1 50.4370 35.0214 -6.0711 0.0000 0.0000 0.0000
# 2 35.0214 128.0506 -6.3554 0.0000 0.0000 0.0000
# 3 -6.0711 -6.3554 61.7604 0.0000 0.0000 0.0000
# 4 0.0000 0.0000 0.0000 12.9802 0.0000 0.0000
# 5 0.0000 0.0000 0.0000 0.0000 -9.6473 0.0000
# 6 0.0000 0.0000 0.0000 0.0000 0.0000 40.8200
#
#
#
# Elastic Compliance Matrix: (Units=1/GPa)
#
#
# Indices 1 2 3 4 5 6 
#
# 1 0.024659 -0.006658 0.001739 0.000000 0.000000 0.000000
# 2 -0.006658 0.009647 0.000338 0.000000 0.000000 0.000000
# 3 0.001739 0.000338 0.016397 0.000000 0.000000 0.000000
# 4 0.000000 0.000000 0.000000 0.077040 0.000000 0.000000
# 5 0.000000 0.000000 0.000000 0.000000 -0.103656 0.000000
# 6 0.000000 0.000000 0.000000 0.000000 0.000000 0.024498
#
#
# Mechanical properties :
#
#
# Convention : Reuss Voigt Hill
#
# Bulk Modulus (GPa) = 24.07202 31.71530 27.89366
# Shear Modulus (GPa) = 69.83743 23.34079 46.58911
#
# Velocity S-wave (km/s) = 5.59985 3.23735 4.57377
# Velocity P-wave (km/s) = 7.25395 5.31175 6.35746
#
# Compressibility (1/GPa) = 0.04154201
#
# Stress axis : x y z
#
# Youngs Moduli (GPa) = 40.55321 103.65809 60.98549
#
# Poissons Ratio (x) = 0.69014 -0.10605
# Poissons Ratio (y) = 0.27000 -0.02063
# Poissons Ratio (z) = -0.07052 -0.03506
#
# Static dielectric constant tensor:
#      x y z
#    x 1.819040 0.000000 0.000000 
#    y 0.000000 1.848720 0.000000 
#    z 0.000000 0.000000 1.865600 
# 
# From -- ./inp_files/10740.got.cif
#   From: 2010.05.17/outbox.cif.g08.bks.cpg/sg24_6_cif.got.tgz:10740.got - 2010.06.04 00:33:39.
