data_PCOD9334006
_publ_section_title
;
Structure prediction by ZEFSAII (Michael W. Deem and Ramdas Pophale) SiO2 
 PCOD9334006
Probable space group: I 21 21 21
;
_chemical_formula_sum "Si O2"
_cell_formula_units_Z 56
_cell_length_a 10.347788
_cell_length_b 10.804631
_cell_length_c 23.188532
_cell_angle_alpha 90.000000
_cell_angle_beta 90.000000
_cell_angle_gamma 90.000000
_cell_volume 2592.571351
_symmetry_space_group_name_H-M "I 21 21 21"
_symmetry_group_IT_number 24
_symmetry_cell_setting 'orthorhombic'
loop_
_space_group_symop_operation_xyz
x,y,z
-x,1/2-y,z
x,-y,1/2-z
1/2-x,y,-z
1/2+x,1/2+y,1/2+z
1/2-x,-y,1/2+z
1/2+x,1/2-y,-z
-x,1/2+y,1/2-z
loop_
_atom_site_type_symbol
_atom_site_label
_atom_site_fract_x
_atom_site_fract_y
_atom_site_fract_z
Si Si1 0.126355 0.500000 0.750000
Si Si2 0.129454 0.300338 0.457438
Si Si3 0.624659 0.921043 0.542634
Si Si4 0.500000 0.250000 0.042997
Si Si5 0.237229 0.944330 0.069065
Si Si6 0.765692 0.702240 0.388768
Si Si7 0.157625 0.233316 0.767067
Si Si8 0.062852 0.884213 0.839967
O O1 0.202678 0.373569 0.756740
O O2 0.038152 0.526022 0.807125
O O3 0.250000 0.310880 0.500000
O O4 0.105772 0.439167 0.435756
O O5 0.167145 0.185958 0.416022
O O6 0.000000 0.250000 0.487802
O O7 0.750000 0.921582 0.500000
O O8 0.518634 0.867411 0.498862
O O9 0.650631 0.820707 0.592488
O O10 0.627592 0.272334 0.080198
O O11 0.372446 0.938440 0.103609
O O12 0.176443 0.073410 0.088818
O O13 0.250000 0.947455 0.000000
O O14 0.730970 0.685971 0.322246
O O15 0.165049 0.148363 0.710752
O O16 0.000000 0.250000 0.776365
O O17 0.000000 0.750000 0.853157
#
# Coordination Sequence:
#
# PCOD9334006 Si02
#       8
#     4   8   8   4   8   8   8   8
#     4   8  16  32  56  88 124 168 214 268 346 396
#     4  10  24  42  62  88 125 173 220 268 325 396
#     4   9  21  37  53  82 120 166 215 268 319 390
#     4  10  20  34  58  80 128 166 218 264 324 386
#     4  11  23  36  55  88 123 172 215 252 325 395
#     4  11  21  35  57  92 121 172 217 269 330 395
#     4   9  17  32  54  88 123 167 212 276 338 397
#     4   9  19  34  55  87 129 163 213 273 336 400
#
# _framework density 21.600176999999999
#
# number of rings (size 3 to 8) (size 9 to 14) (size 15 to 20)
#    0.000    2.571    0.714    3.000    6.000    4.571 
#    2.571    0.000    0.000    0.000    1.857    0.000 
#    0.000    0.000    0.000    0.000    0.000    0.000 
#
# Total GULP energy -156190.776460 kJ/mol
# GULP energy per Si atom -5578.242016 kJ/mol
# Density = 2.155101 g / cm^3
# Si number density = 21.600177 Si / 1000 Ang^3
#
#
#
# Elastic Constant Matrix: (Units=GPa)
#
#
# Indices 1 2 3 4 5 6 
#
# 1 42.4778 6.7035 16.4683 0.0000 0.0000 0.0000
# 2 6.7035 166.7789 29.4526 0.0000 0.0000 0.0000
# 3 16.4683 29.4526 113.2544 0.0000 0.0000 0.0000
# 4 0.0000 0.0000 0.0000 27.8363 0.0000 0.0000
# 5 0.0000 0.0000 0.0000 0.0000 23.1087 0.0000
# 6 0.0000 0.0000 0.0000 0.0000 0.0000 24.8002
#
#
#
# Elastic Compliance Matrix: (Units=1/GPa)
#
#
# Indices 1 2 3 4 5 6 
#
# 1 0.024971 -0.000380 -0.003532 0.000000 0.000000 0.000000
# 2 -0.000380 0.006290 -0.001581 0.000000 0.000000 0.000000
# 3 -0.003532 -0.001581 0.009754 0.000000 0.000000 0.000000
# 4 0.000000 0.000000 0.000000 0.035924 0.000000 0.000000
# 5 0.000000 0.000000 0.000000 0.000000 0.043274 0.000000
# 6 0.000000 0.000000 0.000000 0.000000 0.000000 0.040322
#
#
# Mechanical properties :
#
#
# Convention : Reuss Voigt Hill
#
# Bulk Modulus (GPa) = 33.29973 47.52889 40.41431
# Shear Modulus (GPa) = 27.54341 33.14150 30.34245
#
# Velocity S-wave (km/s) = 3.57479 3.92128 3.75204
# Velocity P-wave (km/s) = 5.69989 6.52332 6.12546
#
# Compressibility (1/GPa) = 0.03003028
#
# Stress axis : x y z
#
# Youngs Moduli (GPa) = 40.04632 158.97337 102.51832
#
# Poissons Ratio (x) = 0.06039 0.36212
# Poissons Ratio (y) = 0.01521 0.16204
# Poissons Ratio (z) = 0.14145 0.25128
#
# Static dielectric constant tensor:
#      x y z
#    x 1.826740 0.000000 0.000000 
#    y 0.000000 1.871720 0.000000 
#    z 0.000000 0.000000 1.766470 
# 
# From -- ./inp_files/35635.got.cif
#   From: 2010.05.17/outbox.cif.g08.bks.cpg/sg24_18_cif.got.tgz:35635.got - 2010.06.04 00:33:39.
