data_PCOD9334764
_publ_section_title
;
Structure prediction by ZEFSAII (Michael W. Deem and Ramdas Pophale) SiO2 
 PCOD9334764
Probable space group: I 21 21 21
;
_chemical_formula_sum "Si O2"
_cell_formula_units_Z 56
_cell_length_a 17.661811
_cell_length_b 14.685516
_cell_length_c 11.027122
_cell_angle_alpha 90.000000
_cell_angle_beta 90.000000
_cell_angle_gamma 90.000000
_cell_volume 2860.135598
_symmetry_space_group_name_H-M "I 21 21 21"
_symmetry_group_IT_number 24
_symmetry_cell_setting 'orthorhombic'
loop_
_space_group_symop_operation_xyz
x,y,z
-x,1/2-y,z
x,-y,1/2-z
1/2-x,y,-z
1/2+x,1/2+y,1/2+z
1/2-x,-y,1/2+z
1/2+x,1/2-y,-z
-x,1/2+y,1/2-z
loop_
_atom_site_type_symbol
_atom_site_label
_atom_site_fract_x
_atom_site_fract_y
_atom_site_fract_z
Si Si1 0.116540 0.885309 0.617826
Si Si2 0.053228 0.448388 0.879661
Si Si3 0.023593 0.445711 0.373669
Si Si4 0.081740 0.716404 0.267150
Si Si5 0.853516 0.619083 0.125982
Si Si6 0.182564 0.917399 0.876011
Si Si7 0.838896 0.191663 0.989376
O O1 0.139755 0.882419 0.758506
O O2 0.144531 0.796790 0.546858
O O3 0.026568 0.895395 0.610173
O O4 0.154204 0.982416 0.582164
O O5 0.055285 0.500000 0.750000
O O6 0.120866 0.376506 0.895597
O O7 0.051070 0.513706 0.998743
O O8 0.042337 0.500000 0.250000
O O9 0.060757 0.348217 0.345290
O O10 0.931885 0.437029 0.373775
O O11 0.130970 0.799805 0.218506
O O12 0.123785 0.672324 0.379958
O O13 0.000000 0.750000 0.314142
O O14 0.771636 0.575927 0.152803
O O15 0.838976 0.648030 0.986865
O O16 0.750000 0.177695 0.000000
#
# Coordination Sequence:
#
# PCOD9334764 Si02
#       7
#     8   8   8   8   8   8   8
#     4  11  22  40  65  94 139 167 217 280 340 409
#     4  12  24  47  69  99 131 183 236 273 335 408
#     4  11  22  39  67  91 131 173 226 272 322 399
#     4  10  22  42  63  97 129 168 224 273 335 397
#     4  10  21  35  63  96 134 171 212 266 343 403
#     4  10  21  38  60 101 137 170 211 267 347 421
#     4  12  27  43  65  99 132 175 225 283 343 393
#
# _framework density 19.57949
#
# number of rings (size 3 to 8) (size 9 to 14) (size 15 to 20)
#    0.000    1.143    4.286    2.143    6.000    1.143 
#    2.571    2.857    0.000    0.000    0.000    0.000 
#    0.000    0.000    0.000    0.000    0.000    0.000 
#
# Total GULP energy -156195.730799 kJ/mol
# GULP energy per Si atom -5578.418957 kJ/mol
# Density = 1.953493 g / cm^3
# Si number density = 19.579490 Si / 1000 Ang^3
#
#
#
# Elastic Constant Matrix: (Units=GPa)
#
#
# Indices 1 2 3 4 5 6 
#
# 1 143.8133 54.5934 31.9435 0.0000 0.0000 0.0000
# 2 54.5934 51.2090 25.6540 0.0000 0.0000 0.0000
# 3 31.9435 25.6540 100.1469 0.0000 0.0000 0.0000
# 4 0.0000 0.0000 0.0000 26.4366 0.0000 0.0000
# 5 0.0000 0.0000 0.0000 0.0000 40.7890 0.0000
# 6 0.0000 0.0000 0.0000 0.0000 0.0000 20.1735
#
#
#
# Elastic Compliance Matrix: (Units=1/GPa)
#
#
# Indices 1 2 3 4 5 6 
#
# 1 0.011714 -0.012179 -0.000616 0.000000 0.000000 0.000000
# 2 -0.012179 0.035066 -0.005098 0.000000 0.000000 0.000000
# 3 -0.000616 -0.005098 0.011488 0.000000 0.000000 0.000000
# 4 0.000000 0.000000 0.000000 0.037826 0.000000 0.000000
# 5 0.000000 0.000000 0.000000 0.000000 0.024516 0.000000
# 6 0.000000 0.000000 0.000000 0.000000 0.000000 0.049570
#
#
# Mechanical properties :
#
#
# Convention : Reuss Voigt Hill
#
# Bulk Modulus (GPa) = 44.48297 57.72789 51.10543
# Shear Modulus (GPa) = 23.42360 29.67838 26.55099
#
# Velocity S-wave (km/s) = 3.46256 3.89754 3.68647
# Velocity P-wave (km/s) = 6.22529 7.05707 6.65419
#
# Compressibility (1/GPa) = 0.02248051
#
# Stress axis : x y z
#
# Youngs Moduli (GPa) = 85.37013 28.51799 87.04858
#
# Poissons Ratio (x) = 0.34732 0.05366
# Poissons Ratio (y) = 1.03973 0.44376
# Poissons Ratio (z) = 0.05263 0.14538
#
# Static dielectric constant tensor:
#      x y z
#    x 1.681390 0.000000 0.000000 
#    y 0.000000 1.671710 0.000000 
#    z 0.000000 0.000000 1.692190 
# 
# From -- ./inp_files/20843.got.cif
#   From: 2010.05.17/outbox.cif.g08.bks.cpg/sg24_11_cif.got.tgz:20843.got - 2010.06.04 00:33:39.
