data_PCOD9334399
_publ_section_title
;
Structure prediction by ZEFSAII (Michael W. Deem and Ramdas Pophale) SiO2 
 PCOD9334399
Probable space group: I 21 21 21
;
_chemical_formula_sum "Si O2"
_cell_formula_units_Z 60
_cell_length_a 30.515839
_cell_length_b 12.101699
_cell_length_c 7.809416
_cell_angle_alpha 90.000000
_cell_angle_beta 90.000000
_cell_angle_gamma 90.000000
_cell_volume 2883.966554
_symmetry_space_group_name_H-M "I 21 21 21"
_symmetry_group_IT_number 24
_symmetry_cell_setting 'orthorhombic'
loop_
_space_group_symop_operation_xyz
x,y,z
-x,1/2-y,z
x,-y,1/2-z
1/2-x,y,-z
1/2+x,1/2+y,1/2+z
1/2-x,-y,1/2+z
1/2+x,1/2-y,-z
-x,1/2+y,1/2-z
loop_
_atom_site_type_symbol
_atom_site_label
_atom_site_fract_x
_atom_site_fract_y
_atom_site_fract_z
Si Si1 0.784160 0.107639 0.143022
Si Si2 0.950774 0.739885 0.544275
Si Si3 0.335608 0.000000 0.750000
Si Si4 0.369541 0.617332 0.458499
Si Si5 0.787220 0.290660 0.376867
Si Si6 0.634921 0.147511 0.446851
Si Si7 0.451523 0.773781 0.043398
Si Si8 0.593831 0.505481 0.452166
O O1 0.762918 0.200287 0.260356
O O2 0.795288 0.000000 0.250000
O O3 0.750000 0.072866 0.000000
O O4 0.828420 0.158897 0.066785
O O5 0.915862 0.831669 0.485011
O O6 0.953452 0.748911 0.751602
O O7 0.931264 0.619162 0.511483
O O8 0.000000 0.750000 0.476341
O O9 0.307572 0.110779 0.731910
O O10 0.365661 0.999183 0.580485
O O11 0.366399 0.484485 0.476276
O O12 0.363209 0.653625 0.260612
O O13 0.750000 0.337529 0.500000
O O14 0.825470 0.218532 0.471578
O O15 0.589330 0.199093 0.515098
O O16 0.500000 0.750000 0.973771
O O17 0.437381 0.900260 0.017037
O O18 0.606334 0.500000 0.250000
#
# Coordination Sequence:
#
# PCOD9334399 Si02
#       8
#     8   8   4   8   8   8   8   8
#     4  12  25  41  67  96 131 172 217 277 349 420
#     4   9  19  35  60  98 136 174 225 276 332 403
#     4  12  26  48  72  94 132 180 236 290 350 416
#     4  10  21  36  64  96 129 175 218 268 339 403
#     4  12  26  47  67  96 134 172 225 288 344 418
#     4  10  20  38  64  95 133 169 219 277 329 405
#     4   9  18  34  62  96 129 176 227 274 334 399
#     4  10  21  41  68  93 133 185 227 285 347 409
#
# _framework density 20.804680000000001
#
# number of rings (size 3 to 8) (size 9 to 14) (size 15 to 20)
#    0.000    1.600    2.667    2.000    3.733    0.533 
#    3.600    0.667    1.467    0.000    0.000    0.000 
#    0.000    0.000    0.000    0.000    0.000    0.000 
#
# Total GULP energy -167535.099580 kJ/mol
# GULP energy per Si atom -5584.503319 kJ/mol
# Density = 2.075733 g / cm^3
# Si number density = 20.804680 Si / 1000 Ang^3
#
#
#
# Elastic Constant Matrix: (Units=GPa)
#
#
# Indices 1 2 3 4 5 6 
#
# 1 109.6876 32.1926 32.8267 0.0000 0.0000 0.0000
# 2 32.1926 91.1273 38.1426 0.0000 0.0000 0.0000
# 3 32.8267 38.1426 52.9264 0.0000 0.0000 0.0000
# 4 0.0000 0.0000 0.0000 18.6399 0.0000 0.0000
# 5 0.0000 0.0000 0.0000 0.0000 21.0595 0.0000
# 6 0.0000 0.0000 0.0000 0.0000 0.0000 14.8248
#
#
#
# Elastic Compliance Matrix: (Units=1/GPa)
#
#
# Indices 1 2 3 4 5 6 
#
# 1 0.011340 -0.001521 -0.005937 0.000000 0.000000 0.000000
# 2 -0.001521 0.015918 -0.010528 0.000000 0.000000 0.000000
# 3 -0.005937 -0.010528 0.030164 0.000000 0.000000 0.000000
# 4 0.000000 0.000000 0.000000 0.053648 0.000000 0.000000
# 5 0.000000 0.000000 0.000000 0.000000 0.047485 0.000000
# 6 0.000000 0.000000 0.000000 0.000000 0.000000 0.067454
#
#
# Mechanical properties :
#
#
# Convention : Reuss Voigt Hill
#
# Bulk Modulus (GPa) = 46.62233 51.11834 48.87033
# Shear Modulus (GPa) = 18.57828 20.94348 19.76088
#
# Velocity S-wave (km/s) = 2.99153 3.17625 3.08527
# Velocity P-wave (km/s) = 5.86434 6.17052 6.01938
#
# Compressibility (1/GPa) = 0.02144895
#
# Stress axis : x y z
#
# Youngs Moduli (GPa) = 88.18268 62.82342 33.15206
#
# Poissons Ratio (x) = 0.09555 0.19684
# Poissons Ratio (y) = 0.13412 0.34903
# Poissons Ratio (z) = 0.52358 0.66141
#
# Static dielectric constant tensor:
#      x y z
#    x 1.735990 0.000000 0.000000 
#    y 0.000000 1.702370 0.000000 
#    z 0.000000 0.000000 1.750660 
# 
# From -- ./inp_files/16465.got.cif
#   From: 2010.05.17/outbox.cif.g08.bks.cpg/sg24_9_cif.got.tgz:16465.got - 2010.06.04 00:33:39.
