data_PCOD9334868
_publ_section_title
;
Structure prediction by ZEFSAII (Michael W. Deem and Ramdas Pophale) SiO2 
 PCOD9334868
Probable space group: I 21 21 21
;
_chemical_formula_sum "Si O2"
_cell_formula_units_Z 40
_cell_length_a 20.525345
_cell_length_b 9.977587
_cell_length_c 9.513351
_cell_angle_alpha 90.000000
_cell_angle_beta 90.000000
_cell_angle_gamma 90.000000
_cell_volume 1948.271644
_symmetry_space_group_name_H-M "I 21 21 21"
_symmetry_group_IT_number 24
_symmetry_cell_setting 'orthorhombic'
loop_
_space_group_symop_operation_xyz
x,y,z
-x,1/2-y,z
x,-y,1/2-z
1/2-x,y,-z
1/2+x,1/2+y,1/2+z
1/2-x,-y,1/2+z
1/2+x,1/2-y,-z
-x,1/2+y,1/2-z
loop_
_atom_site_type_symbol
_atom_site_label
_atom_site_fract_x
_atom_site_fract_y
_atom_site_fract_z
Si Si1 0.612247 0.228225 0.049651
Si Si2 0.709583 0.500000 0.750000
Si Si3 0.423414 0.720259 0.142080
Si Si4 0.750000 0.692237 0.500000
Si Si5 0.599833 0.462614 0.533997
Si Si6 0.548314 0.009166 0.592717
O O1 0.607367 0.183402 0.210565
O O2 0.686055 0.216758 0.996758
O O3 0.600741 0.386075 0.023287
O O4 0.560373 0.137706 0.969332
O O5 0.748320 0.597573 0.641727
O O6 0.657339 0.431766 0.643691
O O7 0.500000 0.750000 0.168348
O O8 0.393100 0.858963 0.091319
O O9 0.419235 0.612826 0.016647
O O10 0.527468 0.446073 0.597991
O O11 0.574562 0.000000 0.750000
#
# Coordination Sequence:
#
# PCOD9334868 Si02
#       6
#     8   4   8   4   8   8
#     4  11  23  41  62  89 130 169 215 268 316 390
#     4  10  22  40  62  96 126 168 210 276 308 382
#     4  10  22  38  64  97 127 163 208 263 333 388
#     4  10  26  40  64  90 132 172 228 254 328 376
#     4  10  21  37  69  96 122 160 217 273 332 372
#     4  11  23  38  62  95 132 166 207 265 334 394
#
# _framework density 20.531016999999999
#
# number of rings (size 3 to 8) (size 9 to 14) (size 15 to 20)
#    0.000    1.600    1.000    3.000   11.200    4.800 
#    0.000    2.000    0.000    0.000    0.000    0.000 
#    0.000    0.000    0.000    0.000    0.000    0.000 
#
# Total GULP energy -111559.285611 kJ/mol
# GULP energy per Si atom -5577.964281 kJ/mol
# Density = 2.048429 g / cm^3
# Si number density = 20.531017 Si / 1000 Ang^3
#
#
#
# Elastic Constant Matrix: (Units=GPa)
#
#
# Indices 1 2 3 4 5 6 
#
# 1 39.1793 -3.2906 0.1517 0.0000 0.0000 0.0000
# 2 -3.2906 72.8947 25.5678 0.0000 0.0000 0.0000
# 3 0.1517 25.5678 120.0881 0.0000 0.0000 0.0000
# 4 0.0000 0.0000 0.0000 10.9797 0.0000 0.0000
# 5 0.0000 0.0000 0.0000 0.0000 18.3711 0.0000
# 6 0.0000 0.0000 0.0000 0.0000 0.0000 7.7198
#
#
#
# Elastic Compliance Matrix: (Units=1/GPa)
#
#
# Indices 1 2 3 4 5 6 
#
# 1 0.025631 0.001263 -0.000301 0.000000 0.000000 0.000000
# 2 0.001263 0.014888 -0.003171 0.000000 0.000000 0.000000
# 3 -0.000301 -0.003171 0.009003 0.000000 0.000000 0.000000
# 4 0.000000 0.000000 0.000000 0.091077 0.000000 0.000000
# 5 0.000000 0.000000 0.000000 0.000000 0.054433 0.000000
# 6 0.000000 0.000000 0.000000 0.000000 0.000000 0.129537
#
#
# Mechanical properties :
#
#
# Convention : Reuss Voigt Hill
#
# Bulk Modulus (GPa) = 22.17212 30.78002 26.47607
# Shear Modulus (GPa) = 14.53392 21.39633 17.96513
#
# Velocity S-wave (km/s) = 2.66353 3.23173 2.96129
# Velocity P-wave (km/s) = 4.50355 5.38052 4.96145
#
# Compressibility (1/GPa) = 0.04510168
#
# Stress axis : x y z
#
# Youngs Moduli (GPa) = 39.01543 67.16925 111.07651
#
# Poissons Ratio (x) = -0.08481 0.03346
# Poissons Ratio (y) = -0.04926 0.35226
# Poissons Ratio (z) = 0.01175 0.21302
#
# Static dielectric constant tensor:
#      x y z
#    x 1.751890 0.000000 0.000000 
#    y 0.000000 1.728840 0.000000 
#    z 0.000000 0.000000 1.776160 
# 
# From -- ./inp_files/15652.got.cif
#   From: 2010.05.17/outbox.cif.g08.bks.cpg/sg24_8_cif.got.tgz:15652.got - 2010.06.04 00:33:39.
