data_PCOD9334087
_publ_section_title
;
Structure prediction by ZEFSAII (Michael W. Deem and Ramdas Pophale) SiO2 
 PCOD9334087
Probable space group: I 21 21 21
;
_chemical_formula_sum "Si O2"
_cell_formula_units_Z 64
_cell_length_a 19.657277
_cell_length_b 17.404798
_cell_length_c 9.279272
_cell_angle_alpha 90.000000
_cell_angle_beta 90.000000
_cell_angle_gamma 90.000000
_cell_volume 3174.726009
_symmetry_space_group_name_H-M "I 21 21 21"
_symmetry_group_IT_number 24
_symmetry_cell_setting 'orthorhombic'
loop_
_space_group_symop_operation_xyz
x,y,z
-x,1/2-y,z
x,-y,1/2-z
1/2-x,y,-z
1/2+x,1/2+y,1/2+z
1/2-x,-y,1/2+z
1/2+x,1/2-y,-z
-x,1/2+y,1/2-z
loop_
_atom_site_type_symbol
_atom_site_label
_atom_site_fract_x
_atom_site_fract_y
_atom_site_fract_z
Si Si1 0.683103 0.529546 0.593879
Si Si2 0.403770 0.038495 0.375730
Si Si3 0.048360 0.190293 0.574285
Si Si4 0.051873 0.525781 0.590700
Si Si5 0.930805 0.113095 0.375530
Si Si6 0.318207 0.796107 0.596433
Si Si7 0.557956 0.816418 0.557454
Si Si8 0.321145 0.735796 0.916851
O O1 0.698496 0.500000 0.750000
O O2 0.750000 0.532243 0.500000
O O3 0.634526 0.465932 0.524222
O O4 0.654167 0.616222 0.589368
O O5 0.425191 0.122248 0.328475
O O6 0.360989 0.000000 0.250000
O O7 0.471499 0.989910 0.398939
O O8 0.115976 0.221909 0.498174
O O9 0.000000 0.250000 0.655081
O O10 0.993786 0.154648 0.460394
O O11 0.079394 0.500000 0.750000
O O12 0.073569 0.470009 0.455922
O O13 0.060971 0.615634 0.559871
O O14 0.947023 0.134605 0.208656
O O15 0.857245 0.153087 0.396637
O O16 0.250000 0.791425 0.500000
O O17 0.373043 0.733065 0.549437
O O18 0.306344 0.776478 0.764511
O O19 0.500000 0.750000 0.552376
O O20 0.250000 0.733126 0.000000
#
# Coordination Sequence:
#
# PCOD9334087 Si02
#       8
#     8   8   8   8   8   8   8   8
#     4  11  23  38  57  81 115 157 197 237 289 351
#     4  10  21  36  53  80 114 146 187 234 285 348
#     4   9  18  34  57  84 114 148 191 242 291 339
#     4  10  22  39  60  89 123 156 196 248 307 360
#     4   9  19  38  61  88 118 153 199 250 294 351
#     4  10  23  39  55  85 122 153 191 244 300 352
#     4  11  21  39  66  91 116 156 207 252 298 357
#     4  10  20  35  59  86 113 151 198 241 291 350
#
# _framework density 20.159220999999999
#
# number of rings (size 3 to 8) (size 9 to 14) (size 15 to 20)
#    0.000    2.000    0.000    4.125    0.000    8.000 
#    0.000   15.625    0.000    0.000    0.000    0.000 
#    0.000    0.000    0.000    0.000    0.000    0.000 
#
# Total GULP energy -178201.096728 kJ/mol
# GULP energy per Si atom -5568.784273 kJ/mol
# Density = 2.011334 g / cm^3
# Si number density = 20.159221 Si / 1000 Ang^3
#
#
#
# Elastic Constant Matrix: (Units=GPa)
#
#
# Indices 1 2 3 4 5 6 
#
# 1 81.6521 34.2211 26.1793 0.0000 0.0000 0.0000
# 2 34.2211 142.3291 53.9000 0.0000 0.0000 0.0000
# 3 26.1793 53.9000 79.6173 0.0000 0.0000 0.0000
# 4 0.0000 0.0000 0.0000 21.9351 0.0000 0.0000
# 5 0.0000 0.0000 0.0000 0.0000 11.1693 0.0000
# 6 0.0000 0.0000 0.0000 0.0000 0.0000 9.4232
#
#
#
# Elastic Compliance Matrix: (Units=1/GPa)
#
#
# Indices 1 2 3 4 5 6 
#
# 1 0.014190 -0.002212 -0.003168 0.000000 0.000000 0.000000
# 2 -0.002212 0.009793 -0.005902 0.000000 0.000000 0.000000
# 3 -0.003168 -0.005902 0.017598 0.000000 0.000000 0.000000
# 4 0.000000 0.000000 0.000000 0.045589 0.000000 0.000000
# 5 0.000000 0.000000 0.000000 0.000000 0.089531 0.000000
# 6 0.000000 0.000000 0.000000 0.000000 0.000000 0.106121
#
#
# Mechanical properties :
#
#
# Convention : Reuss Voigt Hill
#
# Bulk Modulus (GPa) = 52.58947 59.13327 55.86137
# Shear Modulus (GPa) = 16.03971 21.12539 18.58255
#
# Velocity S-wave (km/s) = 2.82379 3.24068 3.03939
# Velocity P-wave (km/s) = 6.06427 6.58783 6.33146
#
# Compressibility (1/GPa) = 0.01901521
#
# Stress axis : x y z
#
# Youngs Moduli (GPa) = 70.47226 102.11311 56.82518
#
# Poissons Ratio (x) = 0.22586 0.18005
# Poissons Ratio (y) = 0.15588 0.33541
# Poissons Ratio (z) = 0.22329 0.60272
#
# Static dielectric constant tensor:
#      x y z
#    x 1.680700 0.000000 0.000000 
#    y 0.000000 1.790780 0.000000 
#    z 0.000000 0.000000 1.797750 
# 
# From -- ./inp_files/15419.got.cif
#   From: 2010.05.17/outbox.cif.g08.bks.cpg/sg24_8_cif.got.tgz:15419.got - 2010.06.04 00:33:39.
