data_PCOD9334407
_publ_section_title
;
Structure prediction by ZEFSAII (Michael W. Deem and Ramdas Pophale) SiO2 
 PCOD9334407
Probable space group: I 21 21 21
;
_chemical_formula_sum "Si O2"
_cell_formula_units_Z 56
_cell_length_a 14.896143
_cell_length_b 15.312523
_cell_length_c 11.331746
_cell_angle_alpha 90.000000
_cell_angle_beta 90.000000
_cell_angle_gamma 90.000000
_cell_volume 2584.743299
_symmetry_space_group_name_H-M "I 21 21 21"
_symmetry_group_IT_number 24
_symmetry_cell_setting 'orthorhombic'
loop_
_space_group_symop_operation_xyz
x,y,z
-x,1/2-y,z
x,-y,1/2-z
1/2-x,y,-z
1/2+x,1/2+y,1/2+z
1/2-x,-y,1/2+z
1/2+x,1/2-y,-z
-x,1/2+y,1/2-z
loop_
_atom_site_type_symbol
_atom_site_label
_atom_site_fract_x
_atom_site_fract_y
_atom_site_fract_z
Si Si1 0.400657 0.218149 0.271327
Si Si2 0.404647 0.795643 0.960522
Si Si3 0.658237 0.817585 0.573178
Si Si4 0.729986 0.828183 0.835297
Si Si5 0.871892 0.011998 0.389354
Si Si6 0.355841 0.861965 0.473202
Si Si7 0.434149 0.025821 0.612943
O O1 0.500000 0.250000 0.237645
O O2 0.408433 0.178793 0.401781
O O3 0.328768 0.296254 0.296785
O O4 0.367728 0.155283 0.166613
O O5 0.500000 0.750000 0.929068
O O6 0.325590 0.729430 0.927808
O O7 0.380350 0.884738 0.895050
O O8 0.750000 0.811448 0.500000
O O9 0.675618 0.816310 0.712572
O O10 0.609319 0.728784 0.533838
O O11 0.627952 0.917050 0.550435
O O12 0.715540 0.926392 0.884015
O O13 0.965340 0.054396 0.428716
O O14 0.885894 0.000000 0.250000
O O15 0.250000 0.871498 0.500000
O O16 0.402786 0.945753 0.531463
O O17 0.431729 0.000000 0.750000
#
# Coordination Sequence:
#
# PCOD9334407 Si02
#       7
#     8   8   8   8   8   8   8
#     4  11  26  44  69 104 143 198 242 291 386 440
#     4  11  24  45  69 101 143 181 244 309 364 448
#     4  10  20  38  65 102 139 176 238 295 363 430
#     4  11  20  44  72  97 139 187 238 299 364 436
#     4   9  21  37  66 106 132 175 240 297 358 426
#     4  11  24  45  69  99 144 191 242 297 368 455
#     4  11  24  43  69 107 136 180 245 303 369 434
#
# _framework density 21.665595
#
# number of rings (size 3 to 8) (size 9 to 14) (size 15 to 20)
#    0.000    1.429    4.286    1.286    2.000    2.857 
#    0.000    0.000    6.286    0.000    0.000    0.000 
#    0.000    0.000    0.000    0.000    0.000    0.000 
#
# Total GULP energy -155976.048312 kJ/mol
# GULP energy per Si atom -5570.573154 kJ/mol
# Density = 2.161628 g / cm^3
# Si number density = 21.665595 Si / 1000 Ang^3
#
#
#
# Elastic Constant Matrix: (Units=GPa)
#
#
# Indices 1 2 3 4 5 6 
#
# 1 106.6890 33.2282 18.9406 0.0000 0.0000 0.0000
# 2 33.2282 139.1210 15.7790 0.0000 0.0000 0.0000
# 3 18.9406 15.7790 106.6745 0.0000 0.0000 0.0000
# 4 0.0000 0.0000 0.0000 26.8668 0.0000 0.0000
# 5 0.0000 0.0000 0.0000 0.0000 23.8989 0.0000
# 6 0.0000 0.0000 0.0000 0.0000 0.0000 23.6219
#
#
#
# Elastic Compliance Matrix: (Units=1/GPa)
#
#
# Indices 1 2 3 4 5 6 
#
# 1 0.010356 -0.002304 -0.001498 0.000000 0.000000 0.000000
# 2 -0.002304 0.007823 -0.000748 0.000000 0.000000 0.000000
# 3 -0.001498 -0.000748 0.009751 0.000000 0.000000 0.000000
# 4 0.000000 0.000000 0.000000 0.037221 0.000000 0.000000
# 5 0.000000 0.000000 0.000000 0.000000 0.041843 0.000000
# 6 0.000000 0.000000 0.000000 0.000000 0.000000 0.042334
#
#
# Mechanical properties :
#
#
# Convention : Reuss Voigt Hill
#
# Bulk Modulus (GPa) = 53.10475 54.26444 53.68460
# Shear Modulus (GPa) = 30.35744 33.84664 32.10204
#
# Velocity S-wave (km/s) = 3.74730 3.95679 3.85347
# Velocity P-wave (km/s) = 6.57931 6.78054 6.68068
#
# Compressibility (1/GPa) = 0.01883071
#
# Stress axis : x y z
#
# Youngs Moduli (GPa) = 96.55797 127.82723 102.55391
#
# Poissons Ratio (x) = 0.29447 0.15364
# Poissons Ratio (y) = 0.22244 0.07672
# Poissons Ratio (z) = 0.14465 0.09563
#
# Static dielectric constant tensor:
#      x y z
#    x 1.946110 0.000000 0.000000 
#    y 0.000000 1.848760 0.000000 
#    z 0.000000 0.000000 1.818570 
# 
# From -- ./inp_files/20847.got.cif
#   From: 2010.05.17/outbox.cif.g08.bks.cpg/sg24_11_cif.got.tgz:20847.got - 2010.06.04 00:33:39.
