data_PCOD9334055
_publ_section_title
;
Structure prediction by ZEFSAII (Michael W. Deem and Ramdas Pophale) SiO2 
 PCOD9334055
Probable space group: I 21 21 21
;
_chemical_formula_sum "Si O2"
_cell_formula_units_Z 44
_cell_length_a 5.119494
_cell_length_b 22.631375
_cell_length_c 16.194044
_cell_angle_alpha 90.000000
_cell_angle_beta 90.000000
_cell_angle_gamma 90.000000
_cell_volume 1876.261185
_symmetry_space_group_name_H-M "I 21 21 21"
_symmetry_group_IT_number 24
_symmetry_cell_setting 'orthorhombic'
loop_
_space_group_symop_operation_xyz
x,y,z
-x,1/2-y,z
x,-y,1/2-z
1/2-x,y,-z
1/2+x,1/2+y,1/2+z
1/2-x,-y,1/2+z
1/2+x,1/2-y,-z
-x,1/2+y,1/2-z
loop_
_atom_site_type_symbol
_atom_site_label
_atom_site_fract_x
_atom_site_fract_y
_atom_site_fract_z
Si Si1 0.820492 0.645823 0.711692
Si Si2 0.934271 0.422613 0.077765
Si Si3 0.809249 0.940230 0.804142
Si Si4 0.500000 0.750000 0.724498
Si Si5 0.185372 0.680398 0.587892
Si Si6 0.175611 0.944945 0.087427
O O1 0.669592 0.590560 0.670696
O O2 0.683960 0.698576 0.763438
O O3 0.066636 0.615348 0.754967
O O4 0.896828 0.677453 0.624072
O O5 0.956772 0.492066 0.066669
O O6 0.198657 0.385498 0.079624
O O7 0.750000 0.404085 0.000000
O O8 0.545455 0.919612 0.851276
O O9 0.050084 0.954849 0.866119
O O10 0.764353 0.000000 0.750000
O O11 0.331105 0.710237 0.663303
O O12 0.250000 0.708692 0.500000
O O13 0.250000 0.915164 0.000000
#
# Coordination Sequence:
#
# PCOD9334055 Si02
#       6
#     8   8   8   4   8   8
#     4  11  23  40  57  88 129 177 236 289 340 403
#     4  10  20  35  55  87 125 178 226 280 331 396
#     4  12  24  41  67  98 135 181 231 290 349 414
#     4  10  26  36  58  86 128 174 240 288 338 390
#     4  11  22  35  58  82 126 178 232 272 327 398
#     4  11  25  42  65  95 137 179 232 281 346 419
#
# _framework density 23.450893000000001
#
# number of rings (size 3 to 8) (size 9 to 14) (size 15 to 20)
#    0.000    1.091    3.636    2.727    7.636    0.000 
#    0.000    0.000    0.000    0.000    0.000    0.000 
#    5.455    0.000    0.000    0.000    0.000    0.000 
#
# Total GULP energy -122655.420908 kJ/mol
# GULP energy per Si atom -5575.246405 kJ/mol
# Density = 2.339752 g / cm^3
# Si number density = 23.450893 Si / 1000 Ang^3
#
#
#
# Elastic Constant Matrix: (Units=GPa)
#
#
# Indices 1 2 3 4 5 6 
#
# 1 88.1922 21.1433 45.1645 0.0000 0.0000 0.0000
# 2 21.1433 81.5392 22.2644 0.0000 0.0000 0.0000
# 3 45.1645 22.2644 101.8172 0.0000 0.0000 0.0000
# 4 0.0000 0.0000 0.0000 22.0055 0.0000 0.0000
# 5 0.0000 0.0000 0.0000 0.0000 45.5054 0.0000
# 6 0.0000 0.0000 0.0000 0.0000 0.0000 49.6276
#
#
#
# Elastic Compliance Matrix: (Units=1/GPa)
#
#
# Indices 1 2 3 4 5 6 
#
# 1 0.015037 -0.002210 -0.006187 0.000000 0.000000 0.000000
# 2 -0.002210 0.013368 -0.001943 0.000000 0.000000 0.000000
# 3 -0.006187 -0.001943 0.012991 0.000000 0.000000 0.000000
# 4 0.000000 0.000000 0.000000 0.045443 0.000000 0.000000
# 5 0.000000 0.000000 0.000000 0.000000 0.021975 0.000000
# 6 0.000000 0.000000 0.000000 0.000000 0.000000 0.020150
#
#
# Mechanical properties :
#
#
# Convention : Reuss Voigt Hill
#
# Bulk Modulus (GPa) = 48.27146 49.85478 49.06312
# Shear Modulus (GPa) = 31.93892 35.62614 33.78253
#
# Velocity S-wave (km/s) = 3.69446 3.90189 3.79959
# Velocity P-wave (km/s) = 6.23117 6.45020 6.34163
#
# Compressibility (1/GPa) = 0.02071618
#
# Stress axis : x y z
#
# Youngs Moduli (GPa) = 66.50211 74.80804 76.97727
#
# Poissons Ratio (x) = 0.16531 0.47626
# Poissons Ratio (y) = 0.14695 0.14956
# Poissons Ratio (z) = 0.41145 0.14534
#
# Static dielectric constant tensor:
#      x y z
#    x 2.150090 0.000000 0.000000 
#    y 0.000000 1.986710 0.000000 
#    z 0.000000 0.000000 2.029820 
# 
# From -- ./inp_files/28780.got.cif
#   From: 2010.05.17/outbox.cif.g08.bks.cpg/sg24_15_cif.got.tgz:28780.got - 2010.06.04 00:33:39.
