data_PCOD9334789
_publ_section_title
;
Structure prediction by ZEFSAII (Michael W. Deem and Ramdas Pophale) SiO2 
 PCOD9334789
Probable space group: I 21 21 21
;
_chemical_formula_sum "Si O2"
_cell_formula_units_Z 32
_cell_length_a 42.011665
_cell_length_b 5.294711
_cell_length_c 7.401726
_cell_angle_alpha 90.000000
_cell_angle_beta 90.000000
_cell_angle_gamma 90.000000
_cell_volume 1646.437154
_symmetry_space_group_name_H-M "I 21 21 21"
_symmetry_group_IT_number 24
_symmetry_cell_setting 'orthorhombic'
loop_
_space_group_symop_operation_xyz
x,y,z
-x,1/2-y,z
x,-y,1/2-z
1/2-x,y,-z
1/2+x,1/2+y,1/2+z
1/2-x,-y,1/2+z
1/2+x,1/2-y,-z
-x,1/2+y,1/2-z
loop_
_atom_site_type_symbol
_atom_site_label
_atom_site_fract_x
_atom_site_fract_y
_atom_site_fract_z
Si Si1 0.212504 0.500000 0.464563
Si Si2 0.881024 0.500000 0.750000
Si Si3 0.979542 1.000000 0.465005
Si Si4 0.076094 0.500000 0.750000
Si Si5 0.324956 1.000000 0.969844
O O1 0.208864 0.500000 0.250000
O O2 0.250000 0.500000 0.500000
O O3 0.194971 0.247033 0.527195
O O4 0.194971 0.752968 0.527195
O O5 0.902431 0.249776 0.750000
O O6 0.858174 0.500000 0.574594
O O7 0.947275 1.000000 0.577716
O O8 0.000000 0.250000 0.508376
O O9 0.973370 0.000000 0.250000
O O10 0.000000 0.750000 0.508376
O O11 0.328678 0.000000 0.750000
#
# Coordination Sequence:
#
# PCOD9334789 Si02
#       5
#     8   4   8   4   8
#     4  10  21  36  60  86 109 143 185 243 303 356
#     4  12  26  39  62  82 120 168 196 240 294 344
#     4  10  21  39  64  92 125 158 192 247 300 335
#     4  12  24  39  60  94 116 160 210 236 284 350
#     4  10  23  41  56  81 116 150 192 237 294 351
#
# _framework density 19.435908999999999
#
# number of rings (size 3 to 8) (size 9 to 14) (size 15 to 20)
#    0.000    1.500    0.000    4.500    3.500    2.000 
#    0.000    0.000    0.000    0.000    0.000    0.000 
#    0.000    0.000    0.000    0.000    0.000    0.000 
#
# Total GULP energy -89456.730867 kJ/mol
# GULP energy per Si atom -5591.045679 kJ/mol
# Density = 1.939167 g / cm^3
# Si number density = 19.435909 Si / 1000 Ang^3
#
#
#
# Elastic Constant Matrix: (Units=GPa)
#
#
# Indices 1 2 3 4 5 6 
#
# 1 194.8988 133.7889 67.7153 0.0000 0.0000 0.0000
# 2 133.7889 243.6821 56.6969 0.0000 -0.0001 0.0000
# 3 67.7153 56.6969 90.5746 0.0000 -0.0001 0.0000
# 4 0.0000 0.0000 0.0000 -7.2874 -0.0001 0.0000
# 5 0.0000 -0.0001 -0.0001 -0.0001-5482.6556 0.0000
# 6 0.0000 0.0000 0.0000 0.0000 0.0000 52.6667
#
#
#
# Elastic Compliance Matrix: (Units=1/GPa)
#
#
# Indices 1 2 3 4 5 6 
#
# 1 0.009602 -0.004215 -0.004540 0.000000 0.000000 0.000000
# 2 -0.004215 0.006654 -0.001014 0.000000 0.000000 0.000000
# 3 -0.004540 -0.001014 0.015069 0.000000 0.000000 0.000000
# 4 0.000000 0.000000 0.000000 -0.137223 0.000000 0.000000
# 5 0.000000 0.000000 0.000000 0.000000 -0.000182 0.000000
# 6 0.000000 0.000000 0.000000 0.000000 0.000000 0.018987
#
#
# Mechanical properties :
#
#
# Convention : Reuss Voigt Hill
#
# Bulk Modulus (GPa) = 84.83744 116.17305 100.50525
# Shear Modulus (GPa) = -78.58450 -1069.39162 -573.98806
#
# Velocity S-wave (km/s) = -6.36556 -23.48210 -17.20362
# Velocity P-wave (km/s) = 3.20665 25.98672 18.51475
#
# Compressibility (1/GPa) = 0.01178725
#
# Stress axis : x y z
#
# Youngs Moduli (GPa) = 104.14620 150.28647 66.36069
#
# Poissons Ratio (x) = 0.63353 0.30126
# Poissons Ratio (y) = 0.43902 0.06726
# Poissons Ratio (z) = 0.47280 0.15233
#
# Static dielectric constant tensor:
#      x y z
#    x 1.641710 0.000000 0.000000 
#    y 0.000000 1.674750 0.000000 
#    z 0.000000 0.000000 1.685960 
# 
# From -- ./inp_files/16639.got.cif
#   From: 2010.05.17/outbox.cif.g08.bks.cpg/sg24_9_cif.got.tgz:16639.got - 2010.06.04 00:33:39.
