data_PCOD9334783
_publ_section_title
;
Structure prediction by ZEFSAII (Michael W. Deem and Ramdas Pophale) SiO2 
 PCOD9334783
Probable space group: I 21 21 21
;
_chemical_formula_sum "Si O2"
_cell_formula_units_Z 64
_cell_length_a 14.310332
_cell_length_b 23.242436
_cell_length_c 9.545767
_cell_angle_alpha 90.000000
_cell_angle_beta 90.000000
_cell_angle_gamma 90.000000
_cell_volume 3174.988692
_symmetry_space_group_name_H-M "I 21 21 21"
_symmetry_group_IT_number 24
_symmetry_cell_setting 'orthorhombic'
loop_
_space_group_symop_operation_xyz
x,y,z
-x,1/2-y,z
x,-y,1/2-z
1/2-x,y,-z
1/2+x,1/2+y,1/2+z
1/2-x,-y,1/2+z
1/2+x,1/2-y,-z
-x,1/2+y,1/2-z
loop_
_atom_site_type_symbol
_atom_site_label
_atom_site_fract_x
_atom_site_fract_y
_atom_site_fract_z
Si Si1 0.645936 0.353420 0.668196
Si Si2 0.857238 0.764731 0.337060
Si Si3 0.355975 0.422957 0.470222
Si Si4 0.643272 0.056678 0.959001
Si Si5 0.356857 0.146705 0.331523
Si Si6 0.954416 0.883213 0.705017
Si Si7 0.358308 0.264566 0.161740
Si Si8 0.050734 0.621740 0.225091
O O1 0.636837 0.289973 0.735807
O O2 0.634822 0.350649 0.499844
O O3 0.751123 0.374153 0.699764
O O4 0.559822 0.388773 0.732690
O O5 0.876192 0.748286 0.499026
O O6 0.749392 0.785767 0.331369
O O7 0.923034 0.816324 0.288200
O O8 0.250000 0.405934 0.500000
O O9 0.367337 0.489208 0.514035
O O10 0.385037 0.415612 0.310641
O O11 0.421086 0.382137 0.563062
O O12 0.615981 0.075763 0.803660
O O13 0.750000 0.072504 0.000000
O O14 0.569740 0.091429 0.054194
O O15 0.440330 0.111021 0.260648
O O16 0.364533 0.210130 0.263272
O O17 0.925772 0.816261 0.703404
#
# Coordination Sequence:
#
# PCOD9334783 Si02
#       8
#     8   8   8   8   8   8   8   8
#     4  10  23  41  59  86 123 160 200 246 289 342
#     4  10  21  36  58  90 126 159 194 238 292 356
#     4  11  24  40  62  91 119 153 198 246 300 359
#     4  11  24  42  62  89 125 153 190 248 304 357
#     4  10  23  41  59  86 123 160 200 246 289 342
#     4  12  22  38  64  88 118 162 198 240 296 355
#     4  10  21  36  58  90 126 159 194 238 292 356
#     4  12  22  38  64  88 118 162 198 240 296 355
#
# _framework density 20.157551999999999
#
# number of rings (size 3 to 8) (size 9 to 14) (size 15 to 20)
#    0.000    1.250    2.500    3.750    3.500    4.000 
#    0.000    0.000    0.000    4.500    0.000    0.000 
#    0.000    0.000    0.000    0.000    0.000    0.000 
#
# Total GULP energy -178808.694217 kJ/mol
# GULP energy per Si atom -5587.771694 kJ/mol
# Density = 2.011167 g / cm^3
# Si number density = 20.157552 Si / 1000 Ang^3
#
#
#
# Elastic Constant Matrix: (Units=GPa)
#
#
# Indices 1 2 3 4 5 6 
#
# 1 146.3291 18.3234 7.6203 0.0002 -0.0001 -0.0001
# 2 18.3234 16.4641 3.1536 0.0000 0.0000 0.0000
# 3 7.6203 3.1536 28.4329 0.0006 0.0000 -0.0001
# 4 0.0002 0.0000 0.0006 22.8461 0.0000 0.0000
# 5 -0.0001 0.0000 0.0000 0.0000 31.8148 0.0000
# 6 -0.0001 0.0000 -0.0001 0.0000 0.0000 10.7508
#
#
#
# Elastic Compliance Matrix: (Units=1/GPa)
#
#
# Indices 1 2 3 4 5 6 
#
# 1 0.007979 -0.008654 -0.001179 0.000000 0.000000 0.000000
# 2 -0.008654 0.071444 -0.005605 0.000000 0.000000 0.000000
# 3 -0.001179 -0.005605 0.036108 -0.000001 0.000000 0.000000
# 4 0.000000 0.000000 -0.000001 0.043771 0.000000 0.000000
# 5 0.000000 0.000000 0.000000 0.000000 0.031432 0.000000
# 6 0.000000 0.000000 0.000000 0.000000 0.000000 0.093016
#
#
# Mechanical properties :
#
#
# Convention : Reuss Voigt Hill
#
# Bulk Modulus (GPa) = 11.81259 27.71342 19.76300
# Shear Modulus (GPa) = 14.58390 23.89091 19.23741
#
# Velocity S-wave (km/s) = 2.69271 3.44642 3.09261
# Velocity P-wave (km/s) = 3.94213 5.44200 4.75162
#
# Compressibility (1/GPa) = 0.08465546
#
# Stress axis : x y z
#
# Youngs Moduli (GPa) = 125.32913 13.99705 27.69462
#
# Poissons Ratio (x) = 0.12114 0.03264
# Poissons Ratio (y) = 1.08464 0.15522
# Poissons Ratio (z) = 0.14771 0.07845
#
# Static dielectric constant tensor:
#      x y z
#    x 1.762870 0.000000 0.000000 
#    y 0.000000 1.670500 0.000000 
#    z 0.000000 0.000000 1.677670 
# 
# From -- ./inp_files/13384.got.cif
#   From: 2010.05.17/outbox.cif.g08.bks.cpg/sg24_7_cif.got.tgz:13384.got - 2010.06.04 00:33:39.
