data_PCOD9334540
_publ_section_title
;
Structure prediction by ZEFSAII (Michael W. Deem and Ramdas Pophale) SiO2 
 PCOD9334540
Probable space group: I 21 21 21
;
_chemical_formula_sum "Si O2"
_cell_formula_units_Z 44
_cell_length_a 19.959864
_cell_length_b 8.093276
_cell_length_c 11.882615
_cell_angle_alpha 90.000000
_cell_angle_beta 90.000000
_cell_angle_gamma 90.000000
_cell_volume 1919.525806
_symmetry_space_group_name_H-M "I 21 21 21"
_symmetry_group_IT_number 24
_symmetry_cell_setting 'orthorhombic'
loop_
_space_group_symop_operation_xyz
x,y,z
-x,1/2-y,z
x,-y,1/2-z
1/2-x,y,-z
1/2+x,1/2+y,1/2+z
1/2-x,-y,1/2+z
1/2+x,1/2-y,-z
-x,1/2+y,1/2-z
loop_
_atom_site_type_symbol
_atom_site_label
_atom_site_fract_x
_atom_site_fract_y
_atom_site_fract_z
Si Si1 0.691623 0.390207 0.407793
Si Si2 0.612701 0.190784 0.544584
Si Si3 0.750000 0.991030 0.500000
Si Si4 0.567150 0.145176 0.026997
Si Si5 0.576827 0.193206 0.782818
Si Si6 0.686646 0.763381 0.323670
O O1 0.750000 0.386333 0.500000
O O2 0.620057 0.343353 0.461140
O O3 0.689993 0.575279 0.364202
O O4 0.700991 0.256045 0.308081
O O5 0.608902 0.265560 0.669987
O O6 0.682885 0.093455 0.526316
O O7 0.559430 0.049712 0.507286
O O8 0.737855 0.876163 0.391563
O O9 0.500000 0.250000 0.043396
O O10 0.601150 0.216778 0.910646
O O11 0.615018 0.166108 0.134443
O O12 0.500000 0.250000 0.784211
O O13 0.581013 0.000000 0.750000
#
# Coordination Sequence:
#
# PCOD9334540 Si02
#       6
#     8   8   4   8   8   8
#     4  11  23  41  57  88 124 154 208 257 301 378
#     4  10  21  37  61  93 122 159 208 257 302 372
#     4  10  20  40  60  88 122 164 202 256 314 374
#     4   9  20  40  61  89 124 162 205 250 308 377
#     4   9  19  36  59  90 125 158 203 252 305 361
#     4  10  23  41  61  84 123 167 197 254 328 363
#
# _framework density 22.922329000000001
#
# number of rings (size 3 to 8) (size 9 to 14) (size 15 to 20)
#    0.000    2.182    1.818    0.000    0.000   13.091 
#    0.000    4.545    0.000    0.000    0.000    0.000 
#    0.000    0.000    0.000    0.000    0.000    0.000 
#
# Total GULP energy -122693.306259 kJ/mol
# GULP energy per Si atom -5576.968466 kJ/mol
# Density = 2.287016 g / cm^3
# Si number density = 22.922329 Si / 1000 Ang^3
#
#
#
# Elastic Constant Matrix: (Units=GPa)
#
#
# Indices 1 2 3 4 5 6 
#
# 1 57.4603 -0.9361 9.9818 0.0000 0.0000 0.0000
# 2 -0.9361 44.0121 5.5855 0.0000 0.0000 0.0000
# 3 9.9818 5.5855 121.8422 0.0000 0.0000 0.0000
# 4 0.0000 0.0000 0.0000 33.9990 0.0000 0.0000
# 5 0.0000 0.0000 0.0000 0.0000 30.5612 0.0000
# 6 0.0000 0.0000 0.0000 0.0000 0.0000 14.4891
#
#
#
# Elastic Compliance Matrix: (Units=1/GPa)
#
#
# Indices 1 2 3 4 5 6 
#
# 1 0.017668 0.000563 -0.001473 0.000000 0.000000 0.000000
# 2 0.000563 0.022872 -0.001095 0.000000 0.000000 0.000000
# 3 -0.001473 -0.001095 0.008378 0.000000 0.000000 0.000000
# 4 0.000000 0.000000 0.000000 0.029413 0.000000 0.000000
# 5 0.000000 0.000000 0.000000 0.000000 0.032721 0.000000
# 6 0.000000 0.000000 0.000000 0.000000 0.000000 0.069018
#
#
# Mechanical properties :
#
#
# Convention : Reuss Voigt Hill
#
# Bulk Modulus (GPa) = 22.26759 28.06411 25.16585
# Shear Modulus (GPa) = 25.11938 29.72209 27.42074
#
# Velocity S-wave (km/s) = 3.31395 3.60480 3.46243
# Velocity P-wave (km/s) = 4.93746 5.44020 5.19492
#
# Compressibility (1/GPa) = 0.04490832
#
# Stress axis : x y z
#
# Youngs Moduli (GPa) = 56.59821 43.72179 119.35722
#
# Poissons Ratio (x) = -0.02460 0.17584
# Poissons Ratio (y) = -0.03185 0.13065
# Poissons Ratio (z) = 0.08338 0.04786
#
# Static dielectric constant tensor:
#      x y z
#    x 1.865350 0.000000 0.000000 
#    y 0.000000 1.945630 0.000000 
#    z 0.000000 0.000000 1.961640 
# 
# From -- ./inp_files/18539.got.cif
#   From: 2010.05.17/outbox.cif.g08.bks.cpg/sg24_10_cif.got.tgz:18539.got - 2010.06.04 00:33:39.
