data_PCOD9334835
_publ_section_title
;
Structure prediction by ZEFSAII (Michael W. Deem and Ramdas Pophale) SiO2 
 PCOD9334835
Probable space group: I 21 21 21
;
_chemical_formula_sum "Si O2"
_cell_formula_units_Z 64
_cell_length_a 20.435899
_cell_length_b 9.398688
_cell_length_c 17.122072
_cell_angle_alpha 90.000000
_cell_angle_beta 90.000000
_cell_angle_gamma 90.000000
_cell_volume 3288.647305
_symmetry_space_group_name_H-M "I 21 21 21"
_symmetry_group_IT_number 24
_symmetry_cell_setting 'orthorhombic'
loop_
_space_group_symop_operation_xyz
x,y,z
-x,1/2-y,z
x,-y,1/2-z
1/2-x,y,-z
1/2+x,1/2+y,1/2+z
1/2-x,-y,1/2+z
1/2+x,1/2-y,-z
-x,1/2+y,1/2-z
loop_
_atom_site_type_symbol
_atom_site_label
_atom_site_fract_x
_atom_site_fract_y
_atom_site_fract_z
Si Si1 0.057284 0.146530 0.978858
Si Si2 0.188202 0.732693 0.444209
Si Si3 0.758980 0.432416 0.831761
Si Si4 0.467456 0.604384 0.036750
Si Si5 0.410311 0.140454 0.201413
Si Si6 0.273852 0.236905 0.396353
Si Si7 0.888791 0.119617 0.690832
Si Si8 0.338074 0.392822 0.548291
O O1 0.062489 0.155316 0.885233
O O2 0.000000 0.250000 0.006780
O O3 0.124541 0.191063 0.019400
O O4 0.027410 0.991564 0.991088
O O5 0.250000 0.756415 0.500000
O O6 0.211299 0.811253 0.365225
O O7 0.177056 0.561417 0.444363
O O8 0.735514 0.500000 0.750000
O O9 0.831870 0.373175 0.815352
O O10 0.766383 0.566793 0.891798
O O11 0.500000 0.750000 0.061472
O O12 0.426160 0.558032 0.114412
O O13 0.415005 0.619854 0.967170
O O14 0.428755 0.273103 0.255035
O O15 0.429578 0.000000 0.250000
O O16 0.326822 0.286346 0.333978
O O17 0.308105 0.308762 0.472624
O O18 0.203218 0.311016 0.385713
O O19 0.866129 0.000000 0.750000
#
# Coordination Sequence:
#
# PCOD9334835 Si02
#       8
#     8   8   8   8   8   8   8   8
#     4  12  25  40  61  93 129 170 225 271 323 394
#     4  12  24  41  68  96 130 172 222 280 337 386
#     4  11  24  41  63 100 130 170 222 277 336 392
#     4  11  25  40  58  88 132 174 225 261 321 388
#     4  11  22  38  57  89 136 175 223 254 316 394
#     4  10  21  37  60  88 129 160 215 270 319 375
#     4  11  23  36  59  88 132 185 216 254 310 391
#     4  10  23  39  60  93 125 168 215 272 327 379
#
# _framework density 19.460888000000001
#
# number of rings (size 3 to 8) (size 9 to 14) (size 15 to 20)
#    0.000    1.000    6.250    1.500    8.750    3.000 
#    0.000    0.000    0.000    0.000    3.250    0.000 
#    0.000    0.000    0.000    0.000    0.000    0.000 
#
# Total GULP energy -178384.941694 kJ/mol
# GULP energy per Si atom -5574.529428 kJ/mol
# Density = 1.941659 g / cm^3
# Si number density = 19.460888 Si / 1000 Ang^3
#
#
#
# Elastic Constant Matrix: (Units=GPa)
#
#
# Indices 1 2 3 4 5 6 
#
# 1 99.8345 7.4062 19.2773 0.0000 0.0000 0.0000
# 2 7.4062 63.1720 6.5412 0.0000 0.0000 0.0000
# 3 19.2773 6.5412 35.1962 0.0000 0.0000 0.0000
# 4 0.0000 0.0000 0.0000 33.5229 0.0000 0.0000
# 5 0.0000 0.0000 0.0000 0.0000 -22.1415 0.0000
# 6 0.0000 0.0000 0.0000 0.0000 0.0000 29.7337
#
#
#
# Elastic Compliance Matrix: (Units=1/GPa)
#
#
# Indices 1 2 3 4 5 6 
#
# 1 0.011231 -0.000693 -0.006022 0.000000 0.000000 0.000000
# 2 -0.000693 0.016183 -0.002628 0.000000 0.000000 0.000000
# 3 -0.006022 -0.002628 0.032199 0.000000 0.000000 0.000000
# 4 0.000000 0.000000 0.000000 0.029830 0.000000 0.000000
# 5 0.000000 0.000000 0.000000 0.000000 -0.045164 0.000000
# 6 0.000000 0.000000 0.000000 0.000000 0.000000 0.033632
#
#
# Mechanical properties :
#
#
# Convention : Reuss Voigt Hill
#
# Bulk Modulus (GPa) = 24.43433 29.40580 26.92007
# Shear Modulus (GPa) = 45.35542 19.22155 32.28849
#
# Velocity S-wave (km/s) = 4.83286 3.14618 4.07768
# Velocity P-wave (km/s) = 6.61248 5.32362 6.00274
#
# Compressibility (1/GPa) = 0.04092603
#
# Stress axis : x y z
#
# Youngs Moduli (GPa) = 89.04012 61.79259 31.05678
#
# Poissons Ratio (x) = 0.04283 0.18704
# Poissons Ratio (y) = 0.06171 0.08162
# Poissons Ratio (z) = 0.53624 0.16239
#
# Static dielectric constant tensor:
#      x y z
#    x 1.703490 0.000000 0.000000 
#    y 0.000000 1.764120 0.000000 
#    z 0.000000 0.000000 1.105560 
# 
# From -- ./inp_files/31418.got.cif
#   From: 2010.05.17/outbox.cif.g08.bks.cpg/sg24_16_cif.got.tgz:31418.got - 2010.06.04 00:33:39.
