data_PCOD9334502
_publ_section_title
;
Structure prediction by ZEFSAII (Michael W. Deem and Ramdas Pophale) SiO2 
 PCOD9334502
Probable space group: I 21 21 21
;
_chemical_formula_sum "Si O2"
_cell_formula_units_Z 52
_cell_length_a 8.433189
_cell_length_b 22.095815
_cell_length_c 13.610661
_cell_angle_alpha 90.000000
_cell_angle_beta 90.000000
_cell_angle_gamma 90.000000
_cell_volume 2536.185854
_symmetry_space_group_name_H-M "I 21 21 21"
_symmetry_group_IT_number 24
_symmetry_cell_setting 'orthorhombic'
loop_
_space_group_symop_operation_xyz
x,y,z
-x,1/2-y,z
x,-y,1/2-z
1/2-x,y,-z
1/2+x,1/2+y,1/2+z
1/2-x,-y,1/2+z
1/2+x,1/2-y,-z
-x,1/2+y,1/2-z
loop_
_atom_site_type_symbol
_atom_site_label
_atom_site_fract_x
_atom_site_fract_y
_atom_site_fract_z
Si Si1 0.250000 0.688813 0.500000
Si Si2 0.500000 0.250000 0.146758
Si Si3 0.837358 0.675531 0.821901
Si Si4 0.664461 0.979389 0.899146
Si Si5 0.317792 0.393212 0.834161
Si Si6 0.975617 0.145228 0.361328
Si Si7 0.462899 0.436178 0.270970
Si Si8 0.500000 0.250000 0.490472
O O1 0.365989 0.723708 0.426042
O O2 0.352156 0.646137 0.571233
O O3 0.402675 0.207249 0.223038
O O4 0.652531 0.660878 0.827027
O O5 0.881094 0.716527 0.915611
O O6 0.931642 0.612459 0.824868
O O7 0.546226 0.922366 0.906598
O O8 0.811309 0.954447 0.835724
O O9 0.603032 0.040635 0.847767
O O10 0.750000 0.996908 0.000000
O O11 0.370758 0.357091 0.737412
O O12 0.128596 0.407006 0.822658
O O13 0.930865 0.197130 0.439351
O O14 0.547009 0.500000 0.250000
#
# Coordination Sequence:
#
# PCOD9334502 Si02
#       8
#     4   4   8   8   8   8   8   4
#     4  12  24  46  70  96 132 188 228 286 330 410
#     4  11  28  41  70  94 138 175 238 275 342 408
#     4  11  24  45  62  99 137 173 223 289 345 403
#     4  10  20  39  65  97 126 172 229 272 331 409
#     4  10  22  41  67  95 131 175 230 279 335 401
#     4  11  25  39  67  96 133 171 226 280 341 408
#     4   9  19  37  63  90 125 172 216 272 332 401
#     4  11  26  41  62  90 134 183 218 267 352 418
#
# _framework density 20.503229999999999
#
# number of rings (size 3 to 8) (size 9 to 14) (size 15 to 20)
#    0.000    1.538    2.308    2.769    4.308    6.154 
#    0.000    0.000    0.000    0.000    0.000    0.000 
#    0.000    0.000    0.000    0.000    0.000    0.000 
#
# Total GULP energy -145005.897076 kJ/mol
# GULP energy per Si atom -5577.149888 kJ/mol
# Density = 2.045656 g / cm^3
# Si number density = 20.503230 Si / 1000 Ang^3
#
#
#
# Elastic Constant Matrix: (Units=GPa)
#
#
# Indices 1 2 3 4 5 6 
#
# 1 68.2276 57.3531 27.6886 0.0000 0.0000 0.0000
# 2 57.3531 139.6640 68.4011 0.0000 0.0000 0.0000
# 3 27.6886 68.4011 137.5739 0.0000 0.0000 0.0000
# 4 0.0000 0.0000 0.0000 35.2313 0.0000 0.0000
# 5 0.0000 0.0000 0.0000 0.0000 26.2627 0.0000
# 6 0.0000 0.0000 0.0000 0.0000 0.0000 30.3713
#
#
#
# Elastic Compliance Matrix: (Units=1/GPa)
#
#
# Indices 1 2 3 4 5 6 
#
# 1 0.022384 -0.009234 0.000086 0.000000 0.000000 0.000000
# 2 -0.009234 0.013274 -0.004741 0.000000 0.000000 0.000000
# 3 0.000086 -0.004741 0.009609 0.000000 0.000000 0.000000
# 4 0.000000 0.000000 0.000000 0.028384 0.000000 0.000000
# 5 0.000000 0.000000 0.000000 0.000000 0.038077 0.000000
# 6 0.000000 0.000000 0.000000 0.000000 0.000000 0.032926
#
#
# Mechanical properties :
#
#
# Convention : Reuss Voigt Hill
#
# Bulk Modulus (GPa) = 57.18100 72.48345 64.83223
# Shear Modulus (GPa) = 28.04852 31.17458 29.61155
#
# Velocity S-wave (km/s) = 3.70267 3.90355 3.80444
# Velocity P-wave (km/s) = 6.79919 7.46632 7.14055
#
# Compressibility (1/GPa) = 0.01748833
#
# Stress axis : x y z
#
# Youngs Moduli (GPa) = 44.67399 75.33395 104.07051
#
# Poissons Ratio (x) = 0.69566 -0.00896
# Poissons Ratio (y) = 0.41253 0.49343
# Poissons Ratio (z) = -0.00385 0.35718
#
# Static dielectric constant tensor:
#      x y z
#    x 1.727450 0.000000 0.000000 
#    y 0.000000 1.808710 0.000000 
#    z 0.000000 0.000000 1.808090 
# 
# From -- ./inp_files/25042.got.cif
#   From: 2010.05.17/outbox.cif.g08.bks.cpg/sg24_13_cif.got.tgz:25042.got - 2010.06.04 00:33:39.
