data_PCOD9334556
_publ_section_title
;
Structure prediction by ZEFSAII (Michael W. Deem and Ramdas Pophale) SiO2 
 PCOD9334556
Probable space group: I 21 21 21
;
_chemical_formula_sum "Si O2"
_cell_formula_units_Z 56
_cell_length_a 11.802165
_cell_length_b 15.139130
_cell_length_c 13.718011
_cell_angle_alpha 90.000000
_cell_angle_beta 90.000000
_cell_angle_gamma 90.000000
_cell_volume 2451.058897
_symmetry_space_group_name_H-M "I 21 21 21"
_symmetry_group_IT_number 24
_symmetry_cell_setting 'orthorhombic'
loop_
_space_group_symop_operation_xyz
x,y,z
-x,1/2-y,z
x,-y,1/2-z
1/2-x,y,-z
1/2+x,1/2+y,1/2+z
1/2-x,-y,1/2+z
1/2+x,1/2-y,-z
-x,1/2+y,1/2-z
loop_
_atom_site_type_symbol
_atom_site_label
_atom_site_fract_x
_atom_site_fract_y
_atom_site_fract_z
Si Si1 0.900148 0.021963 0.449579
Si Si2 0.274700 0.194183 0.300627
Si Si3 0.006231 0.857939 0.725465
Si Si4 0.333874 0.051319 0.590562
Si Si5 0.802376 0.109155 0.642417
Si Si6 0.200855 0.142400 0.107711
Si Si7 0.010293 0.646883 0.506916
O O1 0.865043 0.077254 0.544873
O O2 0.816888 0.056475 0.364000
O O3 0.034507 0.036392 0.434728
O O4 0.887921 0.917473 0.475627
O O5 0.387203 0.132657 0.297996
O O6 0.174516 0.133976 0.339153
O O7 0.281994 0.285180 0.357704
O O8 0.249950 0.208772 0.185984
O O9 0.000000 0.750000 0.727523
O O10 0.891133 0.898751 0.768189
O O11 0.026381 0.890023 0.614505
O O12 0.250000 0.070957 0.500000
O O13 0.283005 0.960264 0.633611
O O14 0.250000 0.158586 0.000000
O O15 0.068405 0.146504 0.088550
O O16 0.000000 0.750000 0.528780
#
# Coordination Sequence:
#
# PCOD9334556 Si02
#       7
#     8   8   8   8   8   8   8
#     4  10  23  45  65  97 149 181 233 294 359 444
#     4  11  21  39  69 101 141 190 238 299 362 436
#     4   9  19  38  68 103 130 172 240 283 338 426
#     4  10  22  38  67 101 134 187 238 305 363 417
#     4  10  23  43  65 102 146 189 233 286 366 445
#     4  10  20  40  64 101 135 164 240 315 364 406
#     4  10  21  43  71  96 128 182 233 294 365 431
#
# _framework density 22.847269000000001
#
# number of rings (size 3 to 8) (size 9 to 14) (size 15 to 20)
#    0.000    2.000    1.429    1.286    2.000    1.143 
#    7.714    1.429   15.714    0.000    0.000    0.000 
#    0.000    0.000    0.000    0.000    0.000    0.000 
#
# Total GULP energy -155869.762660 kJ/mol
# GULP energy per Si atom -5566.777238 kJ/mol
# Density = 2.279527 g / cm^3
# Si number density = 22.847269 Si / 1000 Ang^3
#
#
#
# Elastic Constant Matrix: (Units=GPa)
#
#
# Indices 1 2 3 4 5 6 
#
# 1 128.4139 34.8632 29.5773 0.0000 0.0000 0.0000
# 2 34.8632 104.5570 41.1581 0.0000 0.0000 0.0000
# 3 29.5773 41.1581 53.3780 0.0000 0.0000 0.0000
# 4 0.0000 0.0000 0.0000 22.9417 0.0000 0.0000
# 5 0.0000 0.0000 0.0000 0.0000 38.4860 0.0000
# 6 0.0000 0.0000 0.0000 0.0000 0.0000 21.3926
#
#
#
# Elastic Compliance Matrix: (Units=1/GPa)
#
#
# Indices 1 2 3 4 5 6 
#
# 1 0.009089 -0.001505 -0.003876 0.000000 0.000000 0.000000
# 2 -0.001505 0.013981 -0.009947 0.000000 0.000000 0.000000
# 3 -0.003876 -0.009947 0.028552 0.000000 0.000000 0.000000
# 4 0.000000 0.000000 0.000000 0.043589 0.000000 0.000000
# 5 0.000000 0.000000 0.000000 0.000000 0.025983 0.000000
# 6 0.000000 0.000000 0.000000 0.000000 0.000000 0.046745
#
#
# Mechanical properties :
#
#
# Convention : Reuss Voigt Hill
#
# Bulk Modulus (GPa) = 47.69437 55.28289 51.48863
# Shear Modulus (GPa) = 24.32114 28.61408 26.46761
#
# Velocity S-wave (km/s) = 3.26622 3.54278 3.40731
# Velocity P-wave (km/s) = 5.92831 6.40190 6.16965
#
# Compressibility (1/GPa) = 0.02096683
#
# Stress axis : x y z
#
# Youngs Moduli (GPa) = 110.02848 71.52360 35.02433
#
# Poissons Ratio (x) = 0.10763 0.13575
# Poissons Ratio (y) = 0.16557 0.34838
# Poissons Ratio (z) = 0.42644 0.71143
#
# Static dielectric constant tensor:
#      x y z
#    x 2.010970 0.000000 0.000000 
#    y 0.000000 1.996460 0.000000 
#    z 0.000000 0.000000 1.884310 
# 
# From -- ./inp_files/25826.got.cif
#   From: 2010.05.17/outbox.cif.g08.bks.cpg/sg24_13_cif.got.tgz:25826.got - 2010.06.04 00:33:39.
