data_PCOD9334064
_publ_section_title
;
Structure prediction by ZEFSAII (Michael W. Deem and Ramdas Pophale) SiO2 
 PCOD9334064
Probable space group: I 21 21 21
;
_chemical_formula_sum "Si O2"
_cell_formula_units_Z 40
_cell_length_a 7.824146
_cell_length_b 10.003211
_cell_length_c 25.315496
_cell_angle_alpha 90.000000
_cell_angle_beta 90.000000
_cell_angle_gamma 90.000000
_cell_volume 1981.357377
_symmetry_space_group_name_H-M "I 21 21 21"
_symmetry_group_IT_number 24
_symmetry_cell_setting 'orthorhombic'
loop_
_space_group_symop_operation_xyz
x,y,z
-x,1/2-y,z
x,-y,1/2-z
1/2-x,y,-z
1/2+x,1/2+y,1/2+z
1/2-x,-y,1/2+z
1/2+x,1/2-y,-z
-x,1/2+y,1/2-z
loop_
_atom_site_type_symbol
_atom_site_label
_atom_site_fract_x
_atom_site_fract_y
_atom_site_fract_z
Si Si1 0.586183 0.887265 0.791708
Si Si2 0.992187 0.392809 0.133451
Si Si3 0.195490 0.734252 0.887977
Si Si4 0.295006 0.021443 0.061465
Si Si5 0.694428 0.035636 0.058685
O O1 0.500000 0.750000 0.771052
O O2 0.708864 0.825115 0.837063
O O3 0.657508 0.000000 0.750000
O O4 0.464077 0.986104 0.825757
O O5 0.838773 0.386645 0.091721
O O6 0.000000 0.250000 0.160475
O O7 0.169505 0.414213 0.101773
O O8 0.243016 0.875902 0.913157
O O9 0.208706 0.624739 0.934300
O O10 0.000000 0.750000 0.871792
O O11 0.493343 0.063164 0.068415
O O12 0.250000 0.018324 0.000000
O O13 0.750000 0.077718 0.000000
#
# Coordination Sequence:
#
# PCOD9334064 Si02
#       5
#     8   8   8   8   8
#     4  11  22  42  70  93 121 161 218 276 332 382
#     4  11  24  40  60  89 131 169 214 266 318 386
#     4   9  20  37  62  90 127 158 211 263 321 391
#     4  11  20  36  61  92 129 175 207 259 323 384
#     4  10  20  35  56  92 125 169 214 255 309 386
#
# _framework density 20.188181
#
# number of rings (size 3 to 8) (size 9 to 14) (size 15 to 20)
#    0.000    1.600    4.000    1.200    0.000    1.600 
#    0.000    1.000    8.800    0.000    0.000    0.000 
#    0.000    0.000    0.000    0.000    0.000    0.000 
#
# Total GULP energy -111361.843976 kJ/mol
# GULP energy per Si atom -5568.092199 kJ/mol
# Density = 2.014223 g / cm^3
# Si number density = 20.188181 Si / 1000 Ang^3
#
#
#
# Elastic Constant Matrix: (Units=GPa)
#
#
# Indices 1 2 3 4 5 6 
#
# 1 78.0895 32.5780 29.1211 0.0000 0.0000 0.0000
# 2 32.5780 132.6137 32.2115 0.0000 0.0000 0.0000
# 3 29.1211 32.2115 108.0728 0.0000 0.0000 0.0000
# 4 0.0000 0.0000 0.0000 12.0369 0.0000 0.0000
# 5 0.0000 0.0000 0.0000 0.0000 6.5959 0.0000
# 6 0.0000 0.0000 0.0000 0.0000 0.0000 -69.3957
#
#
#
# Elastic Compliance Matrix: (Units=1/GPa)
#
#
# Indices 1 2 3 4 5 6 
#
# 1 0.015244 -0.002962 -0.003225 0.000000 0.000000 0.000000
# 2 -0.002962 0.008705 -0.001796 0.000000 0.000000 0.000000
# 3 -0.003225 -0.001796 0.010657 0.000000 0.000000 0.000000
# 4 0.000000 0.000000 0.000000 0.083078 0.000000 0.000000
# 5 0.000000 0.000000 0.000000 0.000000 0.151610 0.000000
# 6 0.000000 0.000000 0.000000 0.000000 0.000000 -0.014410
#
#
# Mechanical properties :
#
#
# Convention : Reuss Voigt Hill
#
# Bulk Modulus (GPa) = 53.64737 56.28858 54.96797
# Shear Modulus (GPa) = 18.04644 4.83845 11.44244
#
# Velocity S-wave (km/s) = 2.99308 1.54980 2.38332
# Velocity P-wave (km/s) = 6.21096 5.58077 5.90428
#
# Compressibility (1/GPa) = 0.01864024
#
# Stress axis : x y z
#
# Youngs Moduli (GPa) = 65.59974 114.88212 93.83124
#
# Poissons Ratio (x) = 0.34023 0.30260
# Poissons Ratio (y) = 0.19427 0.16856
# Poissons Ratio (z) = 0.21155 0.20638
#
# Static dielectric constant tensor:
#      x y z
#    x 1.731860 0.000000 0.000000 
#    y 0.000000 1.780160 0.000000 
#    z 0.000000 0.000000 1.732620 
# 
# From -- ./inp_files/9266.got.cif
#   From: 2010.05.17/outbox.cif.g08.bks.cpg/sg24_5_cif.got.tgz:9266.got - 2010.06.04 00:33:39.
