data_PCOD9334307
_publ_section_title
;
Structure prediction by ZEFSAII (Michael W. Deem and Ramdas Pophale) SiO2 
 PCOD9334307
Probable space group: I 21 21 21
;
_chemical_formula_sum "Si O2"
_cell_formula_units_Z 48
_cell_length_a 8.894245
_cell_length_b 9.934082
_cell_length_c 25.198572
_cell_angle_alpha 90.000000
_cell_angle_beta 90.000000
_cell_angle_gamma 90.000000
_cell_volume 2226.449038
_symmetry_space_group_name_H-M "I 21 21 21"
_symmetry_group_IT_number 24
_symmetry_cell_setting 'orthorhombic'
loop_
_space_group_symop_operation_xyz
x,y,z
-x,1/2-y,z
x,-y,1/2-z
1/2-x,y,-z
1/2+x,1/2+y,1/2+z
1/2-x,-y,1/2+z
1/2+x,1/2-y,-z
-x,1/2+y,1/2-z
loop_
_atom_site_type_symbol
_atom_site_label
_atom_site_fract_x
_atom_site_fract_y
_atom_site_fract_z
Si Si1 0.816438 0.442760 0.943052
Si Si2 0.138779 0.962022 0.188576
Si Si3 0.301910 0.534350 0.688034
Si Si4 0.337141 0.794270 0.903094
Si Si5 0.666166 0.297223 0.156793
Si Si6 0.915101 0.113167 0.605791
O O1 0.700566 0.558236 0.923947
O O2 0.820880 0.310360 0.906557
O O3 0.975205 0.519758 0.929522
O O4 0.750000 0.407514 0.000000
O O5 0.281962 0.054385 0.173583
O O6 0.969147 0.994796 0.168250
O O7 0.123530 0.000000 0.250000
O O8 0.170914 0.816904 0.161621
O O9 0.284257 0.500000 0.750000
O O10 0.283323 0.693768 0.681050
O O11 0.168585 0.469677 0.652303
O O12 0.500000 0.750000 0.918608
O O13 0.221135 0.685160 0.924681
O O14 0.500000 0.250000 0.172260
O O15 0.000000 0.250000 0.625555
#
# Coordination Sequence:
#
# PCOD9334307 Si02
#       6
#     8   8   8   8   8   8
#     4  10  23  45  66  90 128 177 226 292 358 401
#     4  10  23  39  62  95 136 188 227 265 339 420
#     4  11  23  39  65  96 140 188 222 275 343 413
#     4  10  20  37  65  93 132 172 221 290 337 402
#     4  11  23  42  64  95 137 173 229 290 327 411
#     4  10  21  40  64  96 134 169 228 287 336 418
#
# _framework density 21.558993999999998
#
# number of rings (size 3 to 8) (size 9 to 14) (size 15 to 20)
#    0.000    1.667    3.333    0.500    2.333    3.333 
#    0.000    3.333    0.000    0.000    0.000    0.000 
#    0.000    0.000    0.000    0.000    0.000    0.000 
#
# Total GULP energy -133606.233511 kJ/mol
# GULP energy per Si atom -5566.926396 kJ/mol
# Density = 2.150992 g / cm^3
# Si number density = 21.558994 Si / 1000 Ang^3
#
#
#
# Elastic Constant Matrix: (Units=GPa)
#
#
# Indices 1 2 3 4 5 6 
#
# 1 149.8885 17.9323 26.0480 0.0000 0.0000 0.0000
# 2 17.9323 46.1263 -6.0585 0.0000 0.0000 0.0000
# 3 26.0480 -6.0585 51.8600 0.0000 0.0000 0.0000
# 4 0.0000 0.0000 0.0000 19.8224 0.0000 0.0000
# 5 0.0000 0.0000 0.0000 0.0000 13.1215 0.0000
# 6 0.0000 0.0000 0.0000 0.0000 0.0000 26.8993
#
#
#
# Elastic Compliance Matrix: (Units=1/GPa)
#
#
# Indices 1 2 3 4 5 6 
#
# 1 0.007867 -0.003633 -0.004376 0.000000 0.000000 0.000000
# 2 -0.003633 0.023695 0.004593 0.000000 0.000000 0.000000
# 3 -0.004376 0.004593 0.022017 0.000000 0.000000 0.000000
# 4 0.000000 0.000000 0.000000 0.050448 0.000000 0.000000
# 5 0.000000 0.000000 0.000000 0.000000 0.076211 0.000000
# 6 0.000000 0.000000 0.000000 0.000000 0.000000 0.037176
#
#
# Mechanical properties :
#
#
# Convention : Reuss Voigt Hill
#
# Bulk Modulus (GPa) = 21.39151 35.96871 28.68011
# Shear Modulus (GPa) = 20.84832 25.96550 23.40691
#
# Velocity S-wave (km/s) = 3.11309 3.47420 3.29859
# Velocity P-wave (km/s) = 4.78180 5.72831 5.27632
#
# Compressibility (1/GPa) = 0.04674751
#
# Stress axis : x y z
#
# Youngs Moduli (GPa) = 127.11830 42.20249 45.41938
#
# Poissons Ratio (x) = 0.15332 0.19874
# Poissons Ratio (y) = 0.46182 -0.20861
# Poissons Ratio (z) = 0.55623 -0.19383
#
# Static dielectric constant tensor:
#      x y z
#    x 1.838020 0.000000 0.000000 
#    y 0.000000 1.794590 0.000000 
#    z 0.000000 0.000000 1.922720 
# 
# From -- ./inp_files/35142.got.cif
#   From: 2010.05.17/outbox.cif.g08.bks.cpg/sg24_18_cif.got.tgz:35142.got - 2010.06.04 00:33:39.
