data_PCOD9334846
_publ_section_title
;
Structure prediction by ZEFSAII (Michael W. Deem and Ramdas Pophale) SiO2 
 PCOD9334846
Probable space group: I 21 21 21
;
_chemical_formula_sum "Si O2"
_cell_formula_units_Z 40
_cell_length_a 29.417857
_cell_length_b 5.253572
_cell_length_c 11.032846
_cell_angle_alpha 90.000000
_cell_angle_beta 90.000000
_cell_angle_gamma 90.000000
_cell_volume 1705.113439
_symmetry_space_group_name_H-M "I 21 21 21"
_symmetry_group_IT_number 24
_symmetry_cell_setting 'orthorhombic'
loop_
_space_group_symop_operation_xyz
x,y,z
-x,1/2-y,z
x,-y,1/2-z
1/2-x,y,-z
1/2+x,1/2+y,1/2+z
1/2-x,-y,1/2+z
1/2+x,1/2-y,-z
-x,1/2+y,1/2-z
loop_
_atom_site_type_symbol
_atom_site_label
_atom_site_fract_x
_atom_site_fract_y
_atom_site_fract_z
Si Si1 0.351330 0.608015 0.478081
Si Si2 0.950920 0.253556 0.331028
Si Si3 0.500000 0.750000 0.178405
Si Si4 0.401611 0.125595 0.434914
Si Si5 0.750000 0.285126 0.000000
Si Si6 0.218723 0.000000 0.250000
Si Si7 0.840602 0.000000 0.250000
O O1 0.368722 0.361454 0.405957
O O2 0.296888 0.632491 0.481214
O O3 0.363212 0.590721 0.622949
O O4 0.376518 0.856509 0.424226
O O5 0.954472 0.500000 0.250000
O O6 0.912196 0.323417 0.423991
O O7 0.000000 0.250000 0.397182
O O8 0.946545 0.000000 0.250000
O O9 0.484198 0.500000 0.250000
O O10 0.451915 0.849942 0.121290
O O11 0.755279 0.440534 0.125198
O O12 0.189143 0.749513 0.220351
#
# Coordination Sequence:
#
# PCOD9334846 Si02
#       7
#     8   8   4   8   4   4   4
#     4  11  25  41  74 101 147 179 247 281 377 441
#     4  10  21  37  61  96 136 169 201 262 334 404
#     4  12  28  54  78  94 142 192 252 320 384 436
#     4  12  25  45  69 107 129 188 235 298 351 456
#     4  10  24  50  66 110 142 202 230 332 356 458
#     4  10  22  42  76  92 147 190 255 284 398 420
#     4  10  22  42  66 108 139 194 219 292 360 470
#
# _framework density 23.458848
#
# number of rings (size 3 to 8) (size 9 to 14) (size 15 to 20)
#    0.000    1.200    1.000    4.800    4.200    7.200 
#    5.400    0.000    0.000    0.000    0.000    0.000 
#    0.000    0.000    0.000    0.000    0.000    0.000 
#
# Total GULP energy -111559.149186 kJ/mol
# GULP energy per Si atom -5577.957459 kJ/mol
# Density = 2.340545 g / cm^3
# Si number density = 23.458848 Si / 1000 Ang^3
#
#
#
# Elastic Constant Matrix: (Units=GPa)
#
#
# Indices 1 2 3 4 5 6 
#
# 1 148.0958 52.1276 22.6821 0.0000 0.0000 0.0000
# 2 52.1276 182.9960 27.0929 0.0000 0.0000 0.0000
# 3 22.6821 27.0929 51.3058 0.0000 0.0000 0.0000
# 4 0.0000 0.0000 0.0000 24.4761 0.0000 0.0000
# 5 0.0000 0.0000 0.0000 0.0000 53.7420 0.0000
# 6 0.0000 0.0000 0.0000 0.0000 0.0000 31.2572
#
#
#
# Elastic Compliance Matrix: (Units=1/GPa)
#
#
# Indices 1 2 3 4 5 6 
#
# 1 0.007781 -0.001852 -0.002462 0.000000 0.000000 0.000000
# 2 -0.001852 0.006369 -0.002544 0.000000 0.000000 0.000000
# 3 -0.002462 -0.002544 0.021923 0.000000 0.000000 0.000000
# 4 0.000000 0.000000 0.000000 0.040856 0.000000 0.000000
# 5 0.000000 0.000000 0.000000 0.000000 0.018607 0.000000
# 6 0.000000 0.000000 0.000000 0.000000 0.000000 0.031993
#
#
# Mechanical properties :
#
#
# Convention : Reuss Voigt Hill
#
# Bulk Modulus (GPa) = 44.73033 65.13362 54.93197
# Shear Modulus (GPa) = 33.62502 40.59472 37.10987
#
# Velocity S-wave (km/s) = 3.79008 4.16440 3.98164
# Velocity P-wave (km/s) = 6.18562 7.13781 6.67871
#
# Compressibility (1/GPa) = 0.02235620
#
# Stress axis : x y z
#
# Youngs Moduli (GPa) = 128.51200 157.01361 45.61403
#
# Poissons Ratio (x) = 0.29080 0.11231
# Poissons Ratio (y) = 0.23801 0.11606
# Poissons Ratio (z) = 0.31641 0.39951
#
# Static dielectric constant tensor:
#      x y z
#    x 2.001220 0.000000 0.000000 
#    y 0.000000 1.835240 0.000000 
#    z 0.000000 0.000000 1.923600 
# 
# From -- ./inp_files/22847.got.cif
#   From: 2010.05.17/outbox.cif.g08.bks.cpg/sg24_12_cif.got.tgz:22847.got - 2010.06.04 00:33:39.
