data_PCOD9334668
_publ_section_title
;
Structure prediction by ZEFSAII (Michael W. Deem and Ramdas Pophale) SiO2 
 PCOD9334668
Probable space group: I 21 21 21
;
_chemical_formula_sum "Si O2"
_cell_formula_units_Z 44
_cell_length_a 17.121174
_cell_length_b 14.018169
_cell_length_c 8.856941
_cell_angle_alpha 90.000000
_cell_angle_beta 90.000000
_cell_angle_gamma 90.000000
_cell_volume 2125.732361
_symmetry_space_group_name_H-M "I 21 21 21"
_symmetry_group_IT_number 24
_symmetry_cell_setting 'orthorhombic'
loop_
_space_group_symop_operation_xyz
x,y,z
-x,1/2-y,z
x,-y,1/2-z
1/2-x,y,-z
1/2+x,1/2+y,1/2+z
1/2-x,-y,1/2+z
1/2+x,1/2-y,-z
-x,1/2+y,1/2-z
loop_
_atom_site_type_symbol
_atom_site_label
_atom_site_fract_x
_atom_site_fract_y
_atom_site_fract_z
Si Si1 0.265855 0.500000 0.750000
Si Si2 0.619202 0.742154 0.903917
Si Si3 0.359124 0.454580 0.477358
Si Si4 0.856598 0.500000 0.750000
Si Si5 0.493119 0.404171 0.112605
Si Si6 0.000000 0.750000 0.358675
Si Si7 0.750000 0.605901 0.000000
Si Si8 0.000000 0.250000 0.651824
O O1 0.321665 0.523918 0.607773
O O2 0.202951 0.436056 0.657841
O O3 0.629607 0.853791 0.941325
O O4 0.573766 0.736450 0.748733
O O5 0.694651 0.677243 0.906213
O O6 0.563637 0.705606 0.039952
O O7 0.436691 0.506201 0.416944
O O8 0.801698 0.546161 0.879782
O O9 0.919306 0.431785 0.836245
O O10 0.463616 0.330459 0.241049
O O11 0.493459 0.342452 0.961927
#
# Coordination Sequence:
#
# PCOD9334668 Si02
#       8
#     4   8   8   4   8   4   4   4
#     4  10  21  36  57 106 128 172 216 274 343 418
#     4  11  23  44  64 101 134 185 222 291 350 417
#     4  11  22  39  70  96 141 176 228 285 358 421
#     4  12  27  48  71 102 136 196 238 298 355 432
#     4  11  23  44  70 104 133 187 235 294 349 430
#     4  10  26  42  68 104 142 174 240 296 340 418
#     4  12  28  46  74 100 146 188 242 292 360 424
#     4  10  20  42  66  94 138 176 238 276 352 412
#
# _framework density 20.698748999999999
#
# number of rings (size 3 to 8) (size 9 to 14) (size 15 to 20)
#    0.000    1.091    1.818    4.909    5.091    0.000 
#    0.000    0.000    0.000    0.000    0.000    0.000 
#    0.000    0.000    0.000    0.000    0.000    0.000 
#
# Total GULP energy -122708.407284 kJ/mol
# GULP energy per Si atom -5577.654877 kJ/mol
# Density = 2.065164 g / cm^3
# Si number density = 20.698749 Si / 1000 Ang^3
#
#
#
# Elastic Constant Matrix: (Units=GPa)
#
#
# Indices 1 2 3 4 5 6 
#
# 1 117.7815 38.4751 54.9759 0.0000 0.0000 0.0000
# 2 38.4751 82.3989 47.4565 0.0000 0.0000 0.0000
# 3 54.9759 47.4565 137.9675 0.0000 0.0000 0.0000
# 4 0.0000 0.0000 0.0000 23.4472 0.0000 0.0000
# 5 0.0000 0.0000 0.0000 0.0000 28.2686 0.0000
# 6 0.0000 0.0000 0.0000 0.0000 0.0000 31.4626
#
#
#
# Elastic Compliance Matrix: (Units=1/GPa)
#
#
# Indices 1 2 3 4 5 6 
#
# 1 0.011101 -0.003287 -0.003293 0.000000 0.000000 0.000000
# 2 -0.003287 0.016108 -0.004231 0.000000 0.000000 0.000000
# 3 -0.003293 -0.004231 0.010015 0.000000 0.000000 0.000000
# 4 0.000000 0.000000 0.000000 0.042649 0.000000 0.000000
# 5 0.000000 0.000000 0.000000 0.000000 0.035375 0.000000
# 6 0.000000 0.000000 0.000000 0.000000 0.000000 0.031784
#
#
# Mechanical properties :
#
#
# Convention : Reuss Voigt Hill
#
# Bulk Modulus (GPa) = 64.09071 68.88478 66.48774
# Shear Modulus (GPa) = 28.75982 29.78503 29.27243
#
# Velocity S-wave (km/s) = 3.73157 3.79750 3.76468
# Velocity P-wave (km/s) = 7.04251 7.25120 7.14762
#
# Compressibility (1/GPa) = 0.01560289
#
# Stress axis : x y z
#
# Youngs Moduli (GPa) = 90.08195 62.08277 99.84638
#
# Poissons Ratio (x) = 0.20407 0.32877
# Poissons Ratio (y) = 0.29610 0.42242
# Poissons Ratio (z) = 0.29662 0.26265
#
# Static dielectric constant tensor:
#      x y z
#    x 1.784820 0.000000 0.000000 
#    y 0.000000 1.762120 0.000000 
#    z 0.000000 0.000000 1.752150 
# 
# From -- ./inp_files/12743.got.cif
#   From: 2010.05.17/outbox.cif.g08.bks.cpg/sg24_7_cif.got.tgz:12743.got - 2010.06.04 00:33:39.
