data_PCOD9334093
_publ_section_title
;
Structure prediction by ZEFSAII (Michael W. Deem and Ramdas Pophale) SiO2 
 PCOD9334093
Probable space group: I 21 21 21
;
_chemical_formula_sum "Si O2"
_cell_formula_units_Z 48
_cell_length_a 8.801898
_cell_length_b 9.163763
_cell_length_c 22.809672
_cell_angle_alpha 90.000000
_cell_angle_beta 90.000000
_cell_angle_gamma 90.000000
_cell_volume 1839.794094
_symmetry_space_group_name_H-M "I 21 21 21"
_symmetry_group_IT_number 24
_symmetry_cell_setting 'orthorhombic'
loop_
_space_group_symop_operation_xyz
x,y,z
-x,1/2-y,z
x,-y,1/2-z
1/2-x,y,-z
1/2+x,1/2+y,1/2+z
1/2-x,-y,1/2+z
1/2+x,1/2-y,-z
-x,1/2+y,1/2-z
loop_
_atom_site_type_symbol
_atom_site_label
_atom_site_fract_x
_atom_site_fract_y
_atom_site_fract_z
Si Si1 0.164189 0.185951 0.446067
Si Si2 0.699706 0.963672 0.378283
Si Si3 0.912665 0.386491 0.647796
Si Si4 0.764446 0.664195 0.325265
Si Si5 0.883463 0.860547 0.218575
Si Si6 0.011448 0.907098 0.431732
O O1 0.250000 0.257470 0.500000
O O2 0.278308 0.177673 0.391819
O O3 0.000000 0.250000 0.434335
O O4 0.118260 0.020791 0.462767
O O5 0.681891 0.794149 0.361181
O O6 0.841666 0.965869 0.422029
O O7 0.540880 0.037546 0.392964
O O8 0.764179 0.054739 0.322046
O O9 0.838884 0.521240 0.682890
O O10 0.000000 0.250000 0.677931
O O11 0.813040 0.750771 0.266853
O O12 0.907175 0.618211 0.367370
O O13 0.000000 0.750000 0.187823
O O14 0.963278 0.000000 0.250000
O O15 0.000000 0.750000 0.460687
#
# Coordination Sequence:
#
# PCOD9334093 Si02
#       6
#     8   8   8   8   8   8
#     4  11  24  44  68  97 130 164 208 265 332 407
#     4  10  20  37  61  90 123 168 218 265 326 390
#     4  11  23  39  62  91 122 167 219 270 332 390
#     4   9  19  38  61  86 126 174 218 271 329 385
#     4  10  20  35  59  90 126 173 227 276 324 381
#     4   9  19  39  66  94 128 172 215 261 327 397
#
# _framework density 26.089876
#
# number of rings (size 3 to 8) (size 9 to 14) (size 15 to 20)
#    0.000    2.000    0.000    4.500    0.000    4.667 
#    0.000   10.833    0.000   10.000    0.000    0.000 
#    0.000    0.000    0.000    0.000    0.000    0.000 
#
# Total GULP energy -134212.320081 kJ/mol
# GULP energy per Si atom -5592.180003 kJ/mol
# Density = 2.603049 g / cm^3
# Si number density = 26.089876 Si / 1000 Ang^3
#
#
#
# Elastic Constant Matrix: (Units=GPa)
#
#
# Indices 1 2 3 4 5 6 
#
# 1 169.0716 74.9608 41.5319 0.0000 0.0000 0.0000
# 2 74.9608 192.6428 45.2519 0.0000 0.0000 0.0000
# 3 41.5319 45.2519 47.6476 0.0000 0.0000 0.0000
# 4 0.0000 0.0000 0.0000 12.5784 0.0000 0.0000
# 5 0.0000 0.0000 0.0000 0.0000 23.0964 0.0000
# 6 0.0000 0.0000 0.0000 0.0000 0.0000 78.2289
#
#
#
# Elastic Compliance Matrix: (Units=1/GPa)
#
#
# Indices 1 2 3 4 5 6 
#
# 1 0.008036 -0.001907 -0.005193 0.000000 0.000000 0.000000
# 2 -0.001907 0.007134 -0.005113 0.000000 0.000000 0.000000
# 3 -0.005193 -0.005113 0.030370 0.000000 0.000000 0.000000
# 4 0.000000 0.000000 0.000000 0.079502 0.000000 0.000000
# 5 0.000000 0.000000 0.000000 0.000000 0.043297 0.000000
# 6 0.000000 0.000000 0.000000 0.000000 0.000000 0.012783
#
#
# Mechanical properties :
#
#
# Convention : Reuss Voigt Hill
#
# Bulk Modulus (GPa) = 47.36370 81.42792 64.39581
# Shear Modulus (GPa) = 23.51986 39.28857 31.40422
#
# Velocity S-wave (km/s) = 3.00575 3.88479 3.47319
# Velocity P-wave (km/s) = 5.49904 7.16941 6.38905
#
# Compressibility (1/GPa) = 0.02111322
#
# Stress axis : x y z
#
# Youngs Moduli (GPa) = 124.44192 140.17216 32.92696
#
# Poissons Ratio (x) = 0.26731 0.17100
# Poissons Ratio (y) = 0.23731 0.16836
# Poissons Ratio (z) = 0.64627 0.71672
#
# Static dielectric constant tensor:
#      x y z
#    x 2.034490 0.000000 0.000000 
#    y 0.000000 2.097580 0.000000 
#    z 0.000000 0.000000 2.061910 
# 
# From -- ./inp_files/38282.got.cif
#   From: 2010.05.17/outbox.cif.g08.bks.cpg/sg24_20_cif.got.tgz:38282.got - 2010.06.04 00:33:39.
