data_PCOD9334161
_publ_section_title
;
Structure prediction by ZEFSAII (Michael W. Deem and Ramdas Pophale) SiO2 
 PCOD9334161
Probable space group: I 21 21 21
;
_chemical_formula_sum "Si O2"
_cell_formula_units_Z 32
_cell_length_a 5.286526
_cell_length_b 14.188096
_cell_length_c 18.830085
_cell_angle_alpha 90.000000
_cell_angle_beta 90.000000
_cell_angle_gamma 90.000000
_cell_volume 1412.364429
_symmetry_space_group_name_H-M "I 21 21 21"
_symmetry_group_IT_number 24
_symmetry_cell_setting 'orthorhombic'
loop_
_space_group_symop_operation_xyz
x,y,z
-x,1/2-y,z
x,-y,1/2-z
1/2-x,y,-z
1/2+x,1/2+y,1/2+z
1/2-x,-y,1/2+z
1/2+x,1/2-y,-z
-x,1/2+y,1/2-z
loop_
_atom_site_type_symbol
_atom_site_label
_atom_site_fract_x
_atom_site_fract_y
_atom_site_fract_z
Si Si1 0.257831 0.711060 0.919097
Si Si2 0.750000 0.144801 0.000000
Si Si3 0.448223 0.048157 0.173960
Si Si4 0.500000 0.750000 0.375288
Si Si5 0.546410 0.998874 0.907919
O O1 0.500000 0.750000 0.878369
O O2 0.331965 0.602105 0.926059
O O3 0.000000 0.750000 0.886198
O O4 0.250000 0.751708 0.000000
O O5 0.800568 0.208970 0.932262
O O6 0.538408 0.070312 0.974587
O O7 0.402057 0.160954 0.169357
O O8 0.431219 0.000000 0.250000
O O9 0.735060 0.036201 0.145495
O O10 0.231218 0.998606 0.126118
#
# Coordination Sequence:
#
# PCOD9334161 Si02
#       5
#     8   4   8   4   8
#     4  10  20  36  58  92 132 168 212 268 334 408
#     4  10  20  38  70 106 126 168 214 298 368 390
#     4  11  25  44  65  93 135 183 228 279 335 413
#     4  10  22  42  70 102 138 172 230 292 352 418
#     4  11  22  41  67  96 133 170 227 283 346 412
#
# _framework density 22.657039999999999
#
# number of rings (size 3 to 8) (size 9 to 14) (size 15 to 20)
#    0.000    1.500    1.250    3.750    0.000    6.000 
#    6.750    0.000    0.000    0.000    0.000    0.000 
#    0.000    0.000    0.000    0.000    0.000    0.000 
#
# Total GULP energy -89150.325407 kJ/mol
# GULP energy per Si atom -5571.895338 kJ/mol
# Density = 2.260547 g / cm^3
# Si number density = 22.657040 Si / 1000 Ang^3
#
#
#
# Elastic Constant Matrix: (Units=GPa)
#
#
# Indices 1 2 3 4 5 6 
#
# 1 129.6389 24.5452 20.7171 0.0000 0.0000 0.0000
# 2 24.5452 147.2053 33.0702 0.0000 0.0000 0.0000
# 3 20.7171 33.0702 81.2895 0.0000 0.0000 0.0000
# 4 0.0000 0.0000 0.0000 36.8435 0.0000 0.0000
# 5 0.0000 0.0000 0.0000 0.0000 17.5230 0.0000
# 6 0.0000 0.0000 0.0000 0.0000 0.0000 27.7389
#
#
#
# Elastic Compliance Matrix: (Units=1/GPa)
#
#
# Indices 1 2 3 4 5 6 
#
# 1 0.008169 -0.000984 -0.001681 0.000000 0.000000 0.000000
# 2 -0.000984 0.007595 -0.002839 0.000000 0.000000 0.000000
# 3 -0.001681 -0.002839 0.013885 0.000000 0.000000 0.000000
# 4 0.000000 0.000000 0.000000 0.027142 0.000000 0.000000
# 5 0.000000 0.000000 0.000000 0.000000 0.057068 0.000000
# 6 0.000000 0.000000 0.000000 0.000000 0.000000 0.036050
#
#
# Mechanical properties :
#
#
# Convention : Reuss Voigt Hill
#
# Bulk Modulus (GPa) = 53.64912 57.19987 55.42449
# Shear Modulus (GPa) = 29.91646 35.07448 32.49547
#
# Velocity S-wave (km/s) = 3.63768 3.93881 3.79124
# Velocity P-wave (km/s) = 6.43225 6.78133 6.60909
#
# Compressibility (1/GPa) = 0.01863964
#
# Stress axis : x y z
#
# Youngs Moduli (GPa) = 122.41687 131.66283 72.01914
#
# Poissons Ratio (x) = 0.12960 0.12109
# Poissons Ratio (y) = 0.12050 0.20446
# Poissons Ratio (z) = 0.20583 0.37379
#
# Static dielectric constant tensor:
#      x y z
#    x 1.940530 0.000000 0.000000 
#    y 0.000000 2.034650 0.000000 
#    z 0.000000 0.000000 1.844580 
# 
# From -- ./inp_files/23484.got.cif
#   From: 2010.05.17/outbox.cif.g08.bks.cpg/sg24_12_cif.got.tgz:23484.got - 2010.06.04 00:33:39.
