data_PCOD9334337
_publ_section_title
;
Structure prediction by ZEFSAII (Michael W. Deem and Ramdas Pophale) SiO2 
 PCOD9334337
Probable space group: I 21 21 21
;
_chemical_formula_sum "Si O2"
_cell_formula_units_Z 64
_cell_length_a 18.381172
_cell_length_b 11.541014
_cell_length_c 16.503007
_cell_angle_alpha 90.000000
_cell_angle_beta 90.000000
_cell_angle_gamma 90.000000
_cell_volume 3500.904393
_symmetry_space_group_name_H-M "I 21 21 21"
_symmetry_group_IT_number 24
_symmetry_cell_setting 'orthorhombic'
loop_
_space_group_symop_operation_xyz
x,y,z
-x,1/2-y,z
x,-y,1/2-z
1/2-x,y,-z
1/2+x,1/2+y,1/2+z
1/2-x,-y,1/2+z
1/2+x,1/2-y,-z
-x,1/2+y,1/2-z
loop_
_atom_site_type_symbol
_atom_site_label
_atom_site_fract_x
_atom_site_fract_y
_atom_site_fract_z
Si Si1 0.182596 0.279418 0.941129
Si Si2 0.447320 0.361258 0.746552
Si Si3 0.734120 0.991247 0.152911
Si Si4 0.386011 0.580748 0.919183
Si Si5 0.545214 0.604402 0.149189
Si Si6 0.614402 0.184689 0.406846
Si Si7 0.433804 0.659276 0.576511
Si Si8 0.435898 0.842876 0.340005
O O1 0.201455 0.392903 0.887776
O O2 0.141232 0.196257 0.877227
O O3 0.250000 0.242729 0.000000
O O4 0.121702 0.307981 0.007503
O O5 0.500000 0.250000 0.746123
O O6 0.472216 0.500000 0.750000
O O7 0.406096 0.353274 0.662400
O O8 0.404329 0.340919 0.830624
O O9 0.807373 0.971174 0.101907
O O10 0.678650 0.884623 0.137447
O O11 0.747079 0.000000 0.250000
O O12 0.445172 0.478553 0.934928
O O13 0.381583 0.654826 0.999192
O O14 0.606360 0.678100 0.102986
O O15 0.462664 0.641329 0.129395
O O16 0.561453 0.635447 0.243175
O O17 0.547809 0.470179 0.127170
O O18 0.500000 0.750000 0.573015
O O19 0.500000 0.750000 0.358930
#
# Coordination Sequence:
#
# PCOD9334337 Si02
#       8
#     8   8   8   8   8   8   8   8
#     4  12  23  37  60  95 127 161 215 261 318 383
#     4   9  20  38  61  85 119 161 207 263 324 375
#     4  12  23  37  63  93 131 170 209 266 325 383
#     4  11  22  38  60  94 126 161 213 267 320 382
#     4  10  24  40  61  95 126 160 217 255 318 389
#     4  11  21  38  59  90 126 162 205 266 312 382
#     4  10  20  38  58  89 125 160 207 267 321 380
#     4  11  22  41  64  91 128 166 205 264 319 378
#
# _framework density 18.280991
#
# number of rings (size 3 to 8) (size 9 to 14) (size 15 to 20)
#    0.000    1.250    3.750    3.375    5.250    0.000 
#    0.000    1.250    0.000    0.000    3.250    0.000 
#    0.000    0.000    0.000    0.000    0.000    0.000 
#
# Total GULP energy -178141.489218 kJ/mol
# GULP energy per Si atom -5566.921538 kJ/mol
# Density = 1.823938 g / cm^3
# Si number density = 18.280991 Si / 1000 Ang^3
#
#
#
# Elastic Constant Matrix: (Units=GPa)
#
#
# Indices 1 2 3 4 5 6 
#
# 1 62.9339 38.0732 33.8743 0.0000 0.0000 0.0000
# 2 38.0732 112.8662 33.0673 0.0000 0.0000 0.0000
# 3 33.8743 33.0673 117.2556 0.0000 0.0000 0.0000
# 4 0.0000 0.0000 0.0000 10.7440 0.0000 0.0000
# 5 0.0000 0.0000 0.0000 0.0000 33.7373 0.0000
# 6 0.0000 0.0000 0.0000 0.0000 0.0000 31.7769
#
#
#
# Elastic Compliance Matrix: (Units=1/GPa)
#
#
# Indices 1 2 3 4 5 6 
#
# 1 0.022079 -0.006082 -0.004663 0.000000 0.000000 0.000000
# 2 -0.006082 0.011333 -0.001439 0.000000 0.000000 0.000000
# 3 -0.004663 -0.001439 0.010281 0.000000 0.000000 0.000000
# 4 0.000000 0.000000 0.000000 0.093075 0.000000 0.000000
# 5 0.000000 0.000000 0.000000 0.000000 0.029641 0.000000
# 6 0.000000 0.000000 0.000000 0.000000 0.000000 0.031469
#
#
# Mechanical properties :
#
#
# Convention : Reuss Voigt Hill
#
# Bulk Modulus (GPa) = 51.74560 55.89838 53.82199
# Shear Modulus (GPa) = 21.86375 27.78770 24.82572
#
# Velocity S-wave (km/s) = 3.46205 3.90299 3.68911
# Velocity P-wave (km/s) = 6.65944 7.13826 6.90301
#
# Compressibility (1/GPa) = 0.01932531
#
# Stress axis : x y z
#
# Youngs Moduli (GPa) = 45.29194 88.23621 97.26263
#
# Poissons Ratio (x) = 0.53662 0.45357
# Poissons Ratio (y) = 0.27545 0.13997
# Poissons Ratio (z) = 0.21121 0.12698
#
# Static dielectric constant tensor:
#      x y z
#    x 1.647310 0.000000 0.000000 
#    y 0.000000 1.758860 0.000000 
#    z 0.000000 0.000000 1.654790 
# 
# From -- ./inp_files/21706.got.cif
#   From: 2010.05.17/outbox.cif.g08.bks.cpg/sg24_11_cif.got.tgz:21706.got - 2010.06.04 00:33:39.
