data_PCOD9334028
_publ_section_title
;
Structure prediction by ZEFSAII (Michael W. Deem and Ramdas Pophale) SiO2 
 PCOD9334028
Probable space group: I 21 21 21
;
_chemical_formula_sum "Si O2"
_cell_formula_units_Z 32
_cell_length_a 13.580411
_cell_length_b 9.397032
_cell_length_c 9.744477
_cell_angle_alpha 90.000000
_cell_angle_beta 90.000000
_cell_angle_gamma 90.000000
_cell_volume 1243.546857
_symmetry_space_group_name_H-M "I 21 21 21"
_symmetry_group_IT_number 24
_symmetry_cell_setting 'orthorhombic'
loop_
_space_group_symop_operation_xyz
x,y,z
-x,1/2-y,z
x,-y,1/2-z
1/2-x,y,-z
1/2+x,1/2+y,1/2+z
1/2-x,-y,1/2+z
1/2+x,1/2-y,-z
-x,1/2+y,1/2-z
loop_
_atom_site_type_symbol
_atom_site_label
_atom_site_fract_x
_atom_site_fract_y
_atom_site_fract_z
Si Si1 0.028825 0.387734 0.459308
Si Si2 0.829871 0.867763 0.372193
Si Si3 0.858350 0.834747 0.775271
Si Si4 0.135518 0.891927 0.530441
O O1 0.094926 0.505877 0.388281
O O2 0.095513 0.314262 0.577423
O O3 0.000000 0.250000 0.371027
O O4 0.937963 0.478122 0.519561
O O5 0.750000 0.887163 0.500000
O O6 0.759462 0.846407 0.241719
O O7 0.882133 0.721228 0.409931
O O8 0.881407 0.705444 0.668582
O O9 0.892041 0.000000 0.750000
O O10 0.250000 0.934892 0.500000
#
# Coordination Sequence:
#
# PCOD9334028 Si02
#       4
#     8   8   8   8
#     4  12  24  35  65  98 129 161 214 269 317 370
#     4   9  19  37  58  88 131 164 201 257 327 379
#     4  10  20  34  62  95 120 162 218 263 309 382
#     4   9  21  40  58  92 133 169 205 261 325 381
#
# _framework density 25.732847
#
# number of rings (size 3 to 8) (size 9 to 14) (size 15 to 20)
#    0.000    2.500    5.000    0.750    3.500    1.000 
#    0.000    0.000    0.000    6.000    0.000    0.000 
#    0.000    0.000    0.000    0.000    0.000    0.000 
#
# Total GULP energy -89319.799755 kJ/mol
# GULP energy per Si atom -5582.487485 kJ/mol
# Density = 2.567428 g / cm^3
# Si number density = 25.732847 Si / 1000 Ang^3
#
#
#
# Elastic Constant Matrix: (Units=GPa)
#
#
# Indices 1 2 3 4 5 6 
#
# 1 155.3663 89.1446 64.0299 0.0000 0.0000 0.0000
# 2 89.1446 214.4483 34.8911 0.0000 0.0000 0.0000
# 3 64.0299 34.8911 107.4791 0.0000 0.0000 0.0000
# 4 0.0000 0.0000 0.0000 4.4196 0.0000 0.0000
# 5 0.0000 0.0000 0.0000 0.0000 35.7954 0.0000
# 6 0.0000 0.0000 0.0000 0.0000 0.0000 43.5080
#
#
#
# Elastic Compliance Matrix: (Units=1/GPa)
#
#
# Indices 1 2 3 4 5 6 
#
# 1 0.010614 -0.003572 -0.005164 0.000000 0.000000 0.000000
# 2 -0.003572 0.006125 0.000140 0.000000 0.000000 0.000000
# 3 -0.005164 0.000140 0.012335 0.000000 0.000000 0.000000
# 4 0.000000 0.000000 0.000000 0.226266 0.000000 0.000000
# 5 0.000000 0.000000 0.000000 0.000000 0.027937 0.000000
# 6 0.000000 0.000000 0.000000 0.000000 0.000000 0.022984
#
#
# Mechanical properties :
#
#
# Convention : Reuss Voigt Hill
#
# Bulk Modulus (GPa) = 84.16016 94.82500 89.49258
# Shear Modulus (GPa) = 15.27120 36.02647 25.64883
#
# Velocity S-wave (km/s) = 2.43873 3.74574 3.16054
# Velocity P-wave (km/s) = 6.38014 7.45904 6.94059
#
# Compressibility (1/GPa) = 0.01188211
#
# Stress axis : x y z
#
# Youngs Moduli (GPa) = 94.21562 163.25763 81.07003
#
# Poissons Ratio (x) = 0.58316 0.41861
# Poissons Ratio (y) = 0.33654 -0.01131
# Poissons Ratio (z) = 0.48649 -0.02278
#
# Static dielectric constant tensor:
#      x y z
#    x 2.070720 0.000000 0.000000 
#    y 0.000000 2.068120 0.000000 
#    z 0.000000 0.000000 2.206520 
# 
# From -- ./inp_files/20402.got.cif
#   From: 2010.05.17/outbox.cif.g08.bks.cpg/sg24_11_cif.got.tgz:20402.got - 2010.06.04 00:33:39.
