data_PCOD9334752
_publ_section_title
;
Structure prediction by ZEFSAII (Michael W. Deem and Ramdas Pophale) SiO2 
 PCOD9334752
Probable space group: I 21 21 21
;
_chemical_formula_sum "Si O2"
_cell_formula_units_Z 64
_cell_length_a 23.240595
_cell_length_b 14.510147
_cell_length_c 8.739821
_cell_angle_alpha 90.000000
_cell_angle_beta 90.000000
_cell_angle_gamma 90.000000
_cell_volume 2947.281328
_symmetry_space_group_name_H-M "I 21 21 21"
_symmetry_group_IT_number 24
_symmetry_cell_setting 'orthorhombic'
loop_
_space_group_symop_operation_xyz
x,y,z
-x,1/2-y,z
x,-y,1/2-z
1/2-x,y,-z
1/2+x,1/2+y,1/2+z
1/2-x,-y,1/2+z
1/2+x,1/2-y,-z
-x,1/2+y,1/2-z
loop_
_atom_site_type_symbol
_atom_site_label
_atom_site_fract_x
_atom_site_fract_y
_atom_site_fract_z
Si Si1 0.974569 0.899248 0.694677
Si Si2 0.404695 0.895971 0.192239
Si Si3 0.362607 0.281705 0.151016
Si Si4 0.005243 0.362491 0.150104
Si Si5 0.249817 0.691239 0.816283
Si Si6 0.607556 0.632005 0.838584
Si Si7 0.733936 0.592923 0.820650
Si Si8 0.629688 0.173812 0.794098
O O1 0.921243 0.831723 0.699806
O O2 0.998689 0.901442 0.520983
O O3 0.028406 0.868460 0.794646
O O4 0.956818 0.000000 0.750000
O O5 0.368720 0.823174 0.291172
O O6 0.399710 0.000000 0.250000
O O7 0.389826 0.891276 0.015728
O O8 0.309246 0.333645 0.231036
O O9 0.361890 0.288753 0.967349
O O10 0.070384 0.384066 0.205382
O O11 0.000000 0.250000 0.138131
O O12 0.952040 0.392977 0.255273
O O13 0.252449 0.801123 0.777020
O O14 0.307303 0.640532 0.756293
O O15 0.250000 0.682673 0.000000
O O16 0.666550 0.591476 0.774407
O O17 0.615050 0.741677 0.818142
O O18 0.760880 0.500000 0.750000
O O19 0.750000 0.588392 0.000000
#
# Coordination Sequence:
#
# PCOD9334752 Si02
#       8
#     8   8   8   8   8   8   8   8
#     4  10  22  39  59  86 117 152 198 252 312 370
#     4  11  23  36  55  87 122 157 199 245 298 360
#     4  11  21  38  62  82 118 161 197 248 305 363
#     4   9  18  37  62  88 121 157 200 251 304 364
#     4  10  21  36  55  83 113 149 200 245 294 363
#     4  10  21  35  56  85 119 159 202 248 296 352
#     4  10  22  36  49  73 113 155 193 235 279 337
#     4   9  19  35  57  86 114 154 203 248 303 359
#
# _framework density 21.714926999999999
#
# number of rings (size 3 to 8) (size 9 to 14) (size 15 to 20)
#    0.000    2.000    0.000    5.250    0.000   12.000 
#    0.000    0.000    0.000    3.000    0.000    0.000 
#    0.000    0.000    0.000    0.000    0.000    0.000 
#
# Total GULP energy -178573.065363 kJ/mol
# GULP energy per Si atom -5580.408293 kJ/mol
# Density = 2.166550 g / cm^3
# Si number density = 21.714927 Si / 1000 Ang^3
#
#
#
# Elastic Constant Matrix: (Units=GPa)
#
#
# Indices 1 2 3 4 5 6 
#
# 1 131.4727 1.8595 15.7856 0.0000 0.0000 0.0000
# 2 1.8595 36.8087 22.9630 0.0000 0.0000 0.0000
# 3 15.7856 22.9630 34.4050 0.0000 0.0000 0.0000
# 4 0.0000 0.0000 0.0000 -1.4701 0.0000 0.0000
# 5 0.0000 0.0000 0.0000 0.0000 30.1379 0.0000
# 6 0.0000 0.0000 0.0000 0.0000 0.0000 35.1994
#
#
#
# Elastic Compliance Matrix: (Units=1/GPa)
#
#
# Indices 1 2 3 4 5 6 
#
# 1 0.008283 0.003345 -0.006033 0.000000 0.000000 0.000000
# 2 0.003345 0.047901 -0.033505 0.000000 0.000000 0.000000
# 3 -0.006033 -0.033505 0.054196 0.000000 0.000000 0.000000
# 4 0.000000 0.000000 0.000000 -0.680238 0.000000 0.000000
# 5 0.000000 0.000000 0.000000 0.000000 0.033181 0.000000
# 6 0.000000 0.000000 0.000000 0.000000 0.000000 0.028410
#
#
# Mechanical properties :
#
#
# Convention : Reuss Voigt Hill
#
# Bulk Modulus (GPa) = 26.32019 31.54474 28.93246
# Shear Modulus (GPa) = -11.81430 23.57867 5.88219
#
# Velocity S-wave (km/s) = -2.33505 3.29876 1.64764
# Velocity P-wave (km/s) = 2.20843 5.39142 4.11974
#
# Compressibility (1/GPa) = 0.03799365
#
# Stress axis : x y z
#
# Youngs Moduli (GPa) = 120.72577 20.87648 18.45140
#
# Poissons Ratio (x) = -0.06984 0.11132
# Poissons Ratio (y) = -0.40388 0.61822
# Poissons Ratio (z) = 0.72838 0.69948
#
# Static dielectric constant tensor:
#      x y z
#    x 1.854810 0.000000 0.000000 
#    y 0.000000 1.808450 0.000000 
#    z 0.000000 0.000000 1.712830 
# 
# From -- ./inp_files/16058.got.cif
#   From: 2010.05.17/outbox.cif.g08.bks.cpg/sg24_9_cif.got.tgz:16058.got - 2010.06.04 00:33:39.
