data_PCOD9334978
_publ_section_title
;
Structure prediction by ZEFSAII (Michael W. Deem and Ramdas Pophale) SiO2 
 PCOD9334978
Probable space group: I 21 21 21
;
_chemical_formula_sum "Si O2"
_cell_formula_units_Z 40
_cell_length_a 26.568632
_cell_length_b 12.182083
_cell_length_c 5.504669
_cell_angle_alpha 90.000000
_cell_angle_beta 90.000000
_cell_angle_gamma 90.000000
_cell_volume 1781.648216
_symmetry_space_group_name_H-M "I 21 21 21"
_symmetry_group_IT_number 24
_symmetry_cell_setting 'orthorhombic'
loop_
_space_group_symop_operation_xyz
x,y,z
-x,1/2-y,z
x,-y,1/2-z
1/2-x,y,-z
1/2+x,1/2+y,1/2+z
1/2-x,-y,1/2+z
1/2+x,1/2-y,-z
-x,1/2+y,1/2-z
loop_
_atom_site_type_symbol
_atom_site_label
_atom_site_fract_x
_atom_site_fract_y
_atom_site_fract_z
Si Si1 0.081930 0.265764 0.511614
Si Si2 0.158103 0.120432 0.212167
Si Si3 0.830680 0.783075 0.657088
Si Si4 0.750000 0.066549 0.000000
Si Si5 0.750000 0.303778 0.500000
Si Si6 0.504795 0.432213 0.502265
O O1 0.122093 0.214388 0.323875
O O2 0.115414 0.311124 0.734832
O O3 0.046548 0.160497 0.562515
O O4 0.045519 0.363294 0.431387
O O5 0.213227 0.125897 0.331456
O O6 0.136996 0.000000 0.250000
O O7 0.164017 0.158381 0.937371
O O8 0.801502 0.861352 0.470855
O O9 0.788369 0.773338 0.860103
O O10 0.756180 0.000000 0.750000
O O11 0.498181 0.500000 0.250000
O O12 0.517489 0.500000 0.750000
#
# Coordination Sequence:
#
# PCOD9334978 Si02
#       6
#     8   8   8   4   4   8
#     4  10  27  45  74 108 145 187 246 307 365 455
#     4  11  24  39  71 102 144 191 241 302 375 433
#     4  11  24  46  67 105 149 189 254 298 363 438
#     4  12  27  47  74 104 152 212 247 301 356 428
#     4  10  21  39  62  98 146 190 233 301 354 430
#     4  11  27  51  78 108 147 190 242 306 383 440
#
# _framework density 22.45112
#
# number of rings (size 3 to 8) (size 9 to 14) (size 15 to 20)
#    0.000    1.200    2.000    1.200   14.000    4.000 
#    0.000    0.000    0.000    0.000    0.000    0.000 
#    0.000    0.000    0.000    0.000    0.000    0.000 
#
# Total GULP energy -111551.386289 kJ/mol
# GULP energy per Si atom -5577.569314 kJ/mol
# Density = 2.240002 g / cm^3
# Si number density = 22.451120 Si / 1000 Ang^3
#
#
#
# Elastic Constant Matrix: (Units=GPa)
#
#
# Indices 1 2 3 4 5 6 
#
# 1 137.1550 35.2340 20.2118 0.0000 0.0000 0.0000
# 2 35.2340 96.8548 31.5929 0.0000 0.0000 0.0000
# 3 20.2118 31.5929 65.6632 0.0000 0.0000 0.0000
# 4 0.0000 0.0000 0.0000 13.5665 0.0000 0.0000
# 5 0.0000 0.0000 0.0000 0.0000 23.9604 0.0000
# 6 0.0000 0.0000 0.0000 0.0000 0.0000 5.7964
#
#
#
# Elastic Compliance Matrix: (Units=1/GPa)
#
#
# Indices 1 2 3 4 5 6 
#
# 1 0.008132 -0.002541 -0.001281 0.000000 0.000000 0.000000
# 2 -0.002541 0.013040 -0.005492 0.000000 0.000000 0.000000
# 3 -0.001281 -0.005492 0.018266 0.000000 0.000000 0.000000
# 4 0.000000 0.000000 0.000000 0.073711 0.000000 0.000000
# 5 0.000000 0.000000 0.000000 0.000000 0.041735 0.000000
# 6 0.000000 0.000000 0.000000 0.000000 0.000000 0.172520
#
#
# Mechanical properties :
#
#
# Convention : Reuss Voigt Hill
#
# Bulk Modulus (GPa) = 48.05033 52.63895 50.34464
# Shear Modulus (GPa) = 14.16549 22.84028 18.50289
#
# Velocity S-wave (km/s) = 2.51459 3.19303 2.87390
# Velocity P-wave (km/s) = 5.46622 6.09022 5.78664
#
# Compressibility (1/GPa) = 0.02081151
#
# Stress axis : x y z
#
# Youngs Moduli (GPa) = 122.96431 76.68439 54.74652
#
# Poissons Ratio (x) = 0.19483 0.07012
# Poissons Ratio (y) = 0.31241 0.30068
# Poissons Ratio (z) = 0.15750 0.42117
#
# Static dielectric constant tensor:
#      x y z
#    x 1.973190 0.000000 0.000000 
#    y 0.000000 1.866250 0.000000 
#    z 0.000000 0.000000 1.928160 
# 
# From -- ./inp_files/6913.got.cif
#   From: 2010.05.17/outbox.cif.g08.bks.cpg/sg24_4_cif.got.tgz:6913.got - 2010.06.04 00:33:39.
