data_PCOD9334833
_publ_section_title
;
Structure prediction by ZEFSAII (Michael W. Deem and Ramdas Pophale) SiO2 
 PCOD9334833
Probable space group: I 21 21 21
;
_chemical_formula_sum "Si O2"
_cell_formula_units_Z 60
_cell_length_a 11.795451
_cell_length_b 21.986975
_cell_length_c 11.321678
_cell_angle_alpha 90.000000
_cell_angle_beta 90.000000
_cell_angle_gamma 90.000000
_cell_volume 2936.235143
_symmetry_space_group_name_H-M "I 21 21 21"
_symmetry_group_IT_number 24
_symmetry_cell_setting 'orthorhombic'
loop_
_space_group_symop_operation_xyz
x,y,z
-x,1/2-y,z
x,-y,1/2-z
1/2-x,y,-z
1/2+x,1/2+y,1/2+z
1/2-x,-y,1/2+z
1/2+x,1/2-y,-z
-x,1/2+y,1/2-z
loop_
_atom_site_type_symbol
_atom_site_label
_atom_site_fract_x
_atom_site_fract_y
_atom_site_fract_z
Si Si1 0.621767 0.609387 0.456388
Si Si2 0.945111 0.363017 0.205800
Si Si3 0.866710 0.953432 0.040833
Si Si4 0.348976 0.320037 0.641551
Si Si5 0.502495 0.000000 0.750000
Si Si6 0.697125 0.364394 0.297445
Si Si7 0.875066 0.754533 0.892395
Si Si8 0.567160 0.523966 0.122990
O O1 0.750000 0.616841 0.500000
O O2 0.549696 0.637903 0.563229
O O3 0.620639 0.635371 0.322995
O O4 0.599846 0.536989 0.446982
O O5 0.822376 0.344821 0.255871
O O6 0.048298 0.325871 0.264981
O O7 0.943033 0.434739 0.244324
O O8 0.834571 0.889807 0.101281
O O9 0.920747 0.997523 0.135462
O O10 0.750000 0.981752 0.000000
O O11 0.963558 0.943176 0.942878
O O12 0.383036 0.283351 0.522943
O O13 0.225609 0.291948 0.673289
O O14 0.661137 0.315387 0.393213
O O15 0.672544 0.430951 0.352446
O O16 0.000000 0.750000 0.837582
O O17 0.526951 0.500000 0.250000
#
# Coordination Sequence:
#
# PCOD9334833 Si02
#       8
#     8   8   8   8   4   8   8   8
#     4   9  19  38  62  91 136 170 210 268 321 404
#     4  10  21  40  63  97 135 170 220 268 339 399
#     4  11  21  39  58  90 128 176 210 270 323 382
#     4  10  24  40  63  91 131 166 215 287 325 383
#     4  10  22  36  62  94 130 170 216 258 324 412
#     4  10  23  36  68  96 132 176 218 272 336 387
#     4  11  23  43  62  91 126 173 222 283 333 385
#     4  10  21  37  59  99 132 173 210 258 324 395
#
# _framework density 20.434332000000001
#
# number of rings (size 3 to 8) (size 9 to 14) (size 15 to 20)
#    0.000    1.867    2.667    0.800    9.333    0.000 
#    2.400    0.000    8.800    0.000    0.000    0.000 
#    0.000    0.000    0.000    0.000    0.000    0.000 
#
# Total GULP energy -167156.644289 kJ/mol
# GULP energy per Si atom -5571.888143 kJ/mol
# Density = 2.038782 g / cm^3
# Si number density = 20.434332 Si / 1000 Ang^3
#
#
#
# Elastic Constant Matrix: (Units=GPa)
#
#
# Indices 1 2 3 4 5 6 
#
# 1 109.2583 25.2899 37.7161 -0.0001 0.0000 0.0000
# 2 25.2899 64.5703 22.5312 0.0003 -0.0001 -0.0001
# 3 37.7161 22.5312 80.5902 -0.0004 -0.0002 0.0000
# 4 -0.0001 0.0003 -0.0004 31.0064 -0.0001 -0.0001
# 5 0.0000 -0.0001 -0.0002 -0.0001 23.6197 0.0001
# 6 0.0000 -0.0001 0.0000 -0.0001 0.0001 14.8958
#
#
#
# Elastic Compliance Matrix: (Units=1/GPa)
#
#
# Indices 1 2 3 4 5 6 
#
# 1 0.011380 -0.002880 -0.004521 0.000000 0.000000 0.000000
# 2 -0.002880 0.017890 -0.003654 0.000000 0.000000 0.000000
# 3 -0.004521 -0.003654 0.015546 0.000000 0.000000 0.000000
# 4 0.000000 0.000000 0.000000 0.032251 0.000000 0.000000
# 5 0.000000 0.000000 0.000000 0.000000 0.042337 0.000000
# 6 0.000000 0.000000 0.000000 0.000000 0.000000 0.067133
#
#
# Mechanical properties :
#
#
# Convention : Reuss Voigt Hill
#
# Bulk Modulus (GPa) = 44.03952 47.27702 45.65827
# Shear Modulus (GPa) = 23.12523 25.16318 24.14420
#
# Velocity S-wave (km/s) = 3.36770 3.51296 3.44110
# Velocity P-wave (km/s) = 6.05974 6.29610 6.17905
#
# Compressibility (1/GPa) = 0.02270688
#
# Stress axis : x y z
#
# Youngs Moduli (GPa) = 87.87598 55.89761 64.32668
#
# Poissons Ratio (x) = 0.16096 0.29080
# Poissons Ratio (y) = 0.25305 0.23505
# Poissons Ratio (z) = 0.39725 0.20425
#
# Static dielectric constant tensor:
#      x y z
#    x 1.765490 0.000000 0.000000 
#    y 0.000000 1.726000 0.000000 
#    z 0.000000 0.000000 1.767960 
# 
# From -- ./inp_files/20013.got.cif
#   From: 2010.05.17/outbox.cif.g08.bks.cpg/sg24_11_cif.got.tgz:20013.got - 2010.06.04 00:33:39.
