data_PCOD9334746
_publ_section_title
;
Structure prediction by ZEFSAII (Michael W. Deem and Ramdas Pophale) SiO2 
 PCOD9334746
Probable space group: I 21 21 21
;
_chemical_formula_sum "Si O2"
_cell_formula_units_Z 36
_cell_length_a 5.376954
_cell_length_b 20.288297
_cell_length_c 14.113767
_cell_angle_alpha 90.000000
_cell_angle_beta 90.000000
_cell_angle_gamma 90.000000
_cell_volume 1539.660111
_symmetry_space_group_name_H-M "I 21 21 21"
_symmetry_group_IT_number 24
_symmetry_cell_setting 'orthorhombic'
loop_
_space_group_symop_operation_xyz
x,y,z
-x,1/2-y,z
x,-y,1/2-z
1/2-x,y,-z
1/2+x,1/2+y,1/2+z
1/2-x,-y,1/2+z
1/2+x,1/2-y,-z
-x,1/2+y,1/2-z
loop_
_atom_site_type_symbol
_atom_site_label
_atom_site_fract_x
_atom_site_fract_y
_atom_site_fract_z
Si Si1 0.199426 0.554241 0.610164
Si Si2 0.568482 0.900115 0.122003
Si Si3 0.250000 0.178050 0.500000
Si Si4 0.744385 0.230755 0.689163
Si Si5 0.299594 0.075275 0.782994
O O1 0.250000 0.564406 0.500000
O O2 0.171401 0.474139 0.624919
O O3 0.432787 0.584644 0.667782
O O4 0.932169 0.581418 0.643902
O O5 0.476078 0.872001 0.021386
O O6 0.751039 0.845542 0.163552
O O7 0.318944 0.893702 0.187759
O O8 0.258757 0.226846 0.590493
O O9 0.500000 0.250000 0.744620
O O10 0.000000 0.250000 0.738384
O O11 0.315238 0.000000 0.750000
#
# Coordination Sequence:
#
# PCOD9334746 Si02
#       5
#     8   8   4   8   8
#     4  11  24  37  60  82 114 160 227 271 320 373
#     4  10  23  38  61  83 128 178 204 265 338 364
#     4  10  22  36  58  94 126 168 212 242 302 422
#     4  10  21  35  52  84 123 157 208 244 283 394
#     4  10  22  40  54  84 114 158 221 272 308 387
#
# _framework density 23.381785000000001
#
# number of rings (size 3 to 8) (size 9 to 14) (size 15 to 20)
#    0.000    1.778    0.000    4.667   10.889    7.111 
#    0.000    0.000    0.000    0.000    0.000    0.000 
#    0.000   37.333    0.000   18.000    0.000    0.889 
#
# Total GULP energy -100512.481247 kJ/mol
# GULP energy per Si atom -5584.026736 kJ/mol
# Density = 2.332857 g / cm^3
# Si number density = 23.381785 Si / 1000 Ang^3
#
#
#
# Elastic Constant Matrix: (Units=GPa)
#
#
# Indices 1 2 3 4 5 6 
#
# 1 203.7135 15.2260 45.6494 0.0000 0.0000 0.0000
# 2 15.2260 70.4236 23.0259 0.0000 0.0000 0.0000
# 3 45.6494 23.0259 105.9577 0.0000 0.0000 0.0000
# 4 0.0000 0.0000 0.0000 23.9185 0.0000 0.0000
# 5 0.0000 0.0000 0.0000 0.0000 31.5212 0.0000
# 6 0.0000 0.0000 0.0000 0.0000 0.0000 22.0129
#
#
#
# Elastic Compliance Matrix: (Units=1/GPa)
#
#
# Indices 1 2 3 4 5 6 
#
# 1 0.005446 -0.000442 -0.002250 0.000000 0.000000 0.000000
# 2 -0.000442 0.015322 -0.003139 0.000000 0.000000 0.000000
# 3 -0.002250 -0.003139 0.011089 0.000000 0.000000 0.000000
# 4 0.000000 0.000000 0.000000 0.041809 0.000000 0.000000
# 5 0.000000 0.000000 0.000000 0.000000 0.031725 0.000000
# 6 0.000000 0.000000 0.000000 0.000000 0.000000 0.045428
#
#
# Mechanical properties :
#
#
# Convention : Reuss Voigt Hill
#
# Bulk Modulus (GPa) = 49.51821 60.87748 55.19785
# Shear Modulus (GPa) = 29.54860 35.23676 32.39268
#
# Velocity S-wave (km/s) = 3.55877 3.88624 3.72611
# Velocity P-wave (km/s) = 6.17338 6.79926 6.49387
#
# Compressibility (1/GPa) = 0.02019459
#
# Stress axis : x y z
#
# Youngs Moduli (GPa) = 183.61615 65.26684 90.17576
#
# Poissons Ratio (x) = 0.02883 0.20293
# Poissons Ratio (y) = 0.08110 0.28309
# Poissons Ratio (z) = 0.41320 0.20489
#
# Static dielectric constant tensor:
#      x y z
#    x 2.108960 0.000000 0.000000 
#    y 0.000000 1.938640 0.000000 
#    z 0.000000 0.000000 1.930610 
# 
# From -- ./inp_files/23694.got.cif
#   From: 2010.05.17/outbox.cif.g08.bks.cpg/sg24_12_cif.got.tgz:23694.got - 2010.06.04 00:33:39.
