data_PCOD9334644
_publ_section_title
;
Structure prediction by ZEFSAII (Michael W. Deem and Ramdas Pophale) SiO2 
 PCOD9334644
Probable space group: I 21 21 21
;
_chemical_formula_sum "Si O2"
_cell_formula_units_Z 64
_cell_length_a 8.334912
_cell_length_b 28.400515
_cell_length_c 12.912960
_cell_angle_alpha 90.000000
_cell_angle_beta 90.000000
_cell_angle_gamma 90.000000
_cell_volume 3056.701570
_symmetry_space_group_name_H-M "I 21 21 21"
_symmetry_group_IT_number 24
_symmetry_cell_setting 'orthorhombic'
loop_
_space_group_symop_operation_xyz
x,y,z
-x,1/2-y,z
x,-y,1/2-z
1/2-x,y,-z
1/2+x,1/2+y,1/2+z
1/2-x,-y,1/2+z
1/2+x,1/2-y,-z
-x,1/2+y,1/2-z
loop_
_atom_site_type_symbol
_atom_site_label
_atom_site_fract_x
_atom_site_fract_y
_atom_site_fract_z
Si Si1 0.515845 0.950059 0.795212
Si Si2 0.559650 0.405136 0.484832
Si Si3 0.611689 0.624731 0.638037
Si Si4 0.853576 0.089276 0.719172
Si Si5 0.973625 0.375763 0.912013
Si Si6 0.440129 0.300432 0.518770
Si Si7 0.865842 0.817269 0.242933
Si Si8 0.157069 0.721146 0.600760
O O1 0.413409 0.912016 0.730408
O O2 0.704090 0.945260 0.769679
O O3 0.460570 0.000000 0.750000
O O4 0.507290 0.933830 0.915463
O O5 0.750000 0.411444 0.500000
O O6 0.467885 0.420252 0.379361
O O7 0.524071 0.348753 0.484219
O O8 0.795604 0.639817 0.624574
O O9 0.551952 0.604608 0.527511
O O10 0.489786 0.665650 0.669887
O O11 0.757615 0.140046 0.712130
O O12 0.957105 0.090612 0.823793
O O13 0.097208 0.332415 0.917789
O O14 0.500000 0.250000 0.477037
O O15 0.250000 0.303791 0.500000
O O16 0.459617 0.301973 0.642359
O O17 0.762721 0.777355 0.296749
O O18 0.250000 0.738126 0.500000
O O19 0.000000 0.750000 0.617139
#
# Coordination Sequence:
#
# PCOD9334644 Si02
#       8
#     8   8   8   8   8   8   8   8
#     4  11  24  45  71 100 132 172 220 269 337 413
#     4  12  23  45  72  99 138 181 221 282 345 399
#     4  10  20  41  68  93 129 170 211 270 337 393
#     4  10  21  42  69  94 130 176 215 267 337 396
#     4  10  22  40  66  94 129 173 218 269 330 401
#     4  12  24  42  64  97 133 177 230 277 335 402
#     4  10  21  40  62  86 131 173 217 272 335 392
#     4  11  24  37  57  90 128 174 226 279 325 392
#
# _framework density 20.937602999999999
#
# number of rings (size 3 to 8) (size 9 to 14) (size 15 to 20)
#    0.000    1.250    5.000    1.500    1.750    2.000 
#    9.000    1.250    0.000    0.000    0.000    0.000 
#    0.000    0.000    0.000    0.000    0.000    0.000 
#
# Total GULP energy -178536.457556 kJ/mol
# GULP energy per Si atom -5579.264299 kJ/mol
# Density = 2.088995 g / cm^3
# Si number density = 20.937603 Si / 1000 Ang^3
#
#
#
# Elastic Constant Matrix: (Units=GPa)
#
#
# Indices 1 2 3 4 5 6 
#
# 1 87.8084 -10.3039 6.9626 0.0000 0.0000 0.0000
# 2 -10.3039 35.3441 -7.6301 0.0000 0.0000 0.0000
# 3 6.9626 -7.6301 80.0816 0.0001 0.0000 0.0001
# 4 0.0000 0.0000 0.0001 -0.6080 0.0001 0.0000
# 5 0.0000 0.0000 0.0000 0.0001 32.8177 0.0000
# 6 0.0000 0.0000 0.0001 0.0000 0.0000 10.2608
#
#
#
# Elastic Compliance Matrix: (Units=1/GPa)
#
#
# Indices 1 2 3 4 5 6 
#
# 1 0.011832 0.003295 -0.000715 0.000001 0.000000 0.000000
# 2 0.003295 0.029805 0.002553 0.000001 0.000000 0.000000
# 3 -0.000715 0.002553 0.012793 0.000003 0.000000 0.000000
# 4 0.000001 0.000001 0.000003 -1.644609 0.000004 0.000008
# 5 0.000000 0.000000 0.000000 0.000004 0.030471 0.000000
# 6 0.000000 0.000000 0.000000 0.000008 0.000000 0.097459
#
#
# Mechanical properties :
#
#
# Convention : Reuss Voigt Hill
#
# Bulk Modulus (GPa) = 15.45673 20.14348 17.80010
# Shear Modulus (GPa) = -3.44602 22.77444 9.66421
#
# Velocity S-wave (km/s) = -1.28430 3.30165 2.15075
# Velocity P-wave (km/s) = 2.28015 4.91692 3.83244
#
# Compressibility (1/GPa) = 0.06469674
#
# Stress axis : x y z
#
# Youngs Moduli (GPa) = 84.51828 33.55131 78.16970
#
# Poissons Ratio (x) = -0.11055 0.05587
# Poissons Ratio (y) = -0.27849 -0.19959
# Poissons Ratio (z) = 0.06041 -0.08567
#
# Static dielectric constant tensor:
#      x y z
#    x 1.740040 0.000000 0.000000 
#    y 0.000000 1.822460 0.000000 
#    z 0.000000 0.000000 1.776490 
# 
# From -- ./inp_files/18908.got.cif
#   From: 2010.05.17/outbox.cif.g08.bks.cpg/sg24_10_cif.got.tgz:18908.got - 2010.06.04 00:33:39.
