data_PCOD9334663
_publ_section_title
;
Structure prediction by ZEFSAII (Michael W. Deem and Ramdas Pophale) SiO2 
 PCOD9334663
Probable space group: I 21 21 21
;
_chemical_formula_sum "Si O2"
_cell_formula_units_Z 64
_cell_length_a 5.632364
_cell_length_b 23.710466
_cell_length_c 22.950769
_cell_angle_alpha 90.000000
_cell_angle_beta 90.000000
_cell_angle_gamma 90.000000
_cell_volume 3064.982826
_symmetry_space_group_name_H-M "I 21 21 21"
_symmetry_group_IT_number 24
_symmetry_cell_setting 'orthorhombic'
loop_
_space_group_symop_operation_xyz
x,y,z
-x,1/2-y,z
x,-y,1/2-z
1/2-x,y,-z
1/2+x,1/2+y,1/2+z
1/2-x,-y,1/2+z
1/2+x,1/2-y,-z
-x,1/2+y,1/2-z
loop_
_atom_site_type_symbol
_atom_site_label
_atom_site_fract_x
_atom_site_fract_y
_atom_site_fract_z
Si Si1 0.168478 0.941413 0.744412
Si Si2 0.793333 0.864715 0.773522
Si Si3 0.578730 0.033968 0.661057
Si Si4 0.250467 0.312412 0.615088
Si Si5 0.998444 0.469518 0.473442
Si Si6 0.501645 0.105650 0.972429
Si Si7 0.961170 0.090182 0.161430
Si Si8 0.247730 0.816049 0.930663
O O1 0.371925 0.954786 0.791721
O O2 0.280926 0.932178 0.680986
O O3 0.058378 0.880520 0.756499
O O4 0.022805 0.000000 0.750000
O O5 0.751097 0.916579 0.818957
O O6 0.751374 0.811828 0.814534
O O7 0.642045 0.872387 0.714412
O O8 0.493683 0.039688 0.595384
O O9 0.677863 0.969798 0.662501
O O10 0.247041 0.249506 0.589234
O O11 0.500533 0.338185 0.593626
O O12 0.002062 0.339787 0.593495
O O13 0.250000 0.448409 0.500000
O O14 0.750000 0.447699 0.500000
O O15 0.999550 0.537627 0.482055
O O16 0.523092 0.114858 0.902766
O O17 0.250000 0.126200 0.000000
O O18 0.750000 0.126897 0.000000
O O19 0.250000 0.818025 0.000000
#
# Coordination Sequence:
#
# PCOD9334663 Si02
#       8
#     8   8   8   8   8   8   8   8
#     4   9  18  31  49  67  96 141 182 213 259 325
#     4  11  21  31  50  75 104 133 171 226 271 321
#     4   9  19  33  47  66  97 139 183 220 264 326
#     4  10  21  34  61  84 106 132 176 226 274 323
#     4   9  18  31  46  61  84 120 168 220 262 297
#     4   9  18  31  49  70  88 121 174 217 246 291
#     4   9  19  33  49  71  99 140 181 218 268 317
#     4  10  20  42  65  83 104 144 186 222 278 356
#
# _framework density 20.881029000000002
#
# number of rings (size 3 to 8) (size 9 to 14) (size 15 to 20)
#    0.000    2.500    0.000    3.750    7.000    0.000 
#    0.000    2.500    0.000    0.000    0.000    0.000 
#    0.000    0.000    0.000    9.000    3.000    0.000 
#
# Total GULP energy -178146.310219 kJ/mol
# GULP energy per Si atom -5567.072194 kJ/mol
# Density = 2.083350 g / cm^3
# Si number density = 20.881029 Si / 1000 Ang^3
#
#
#
# Elastic Constant Matrix: (Units=GPa)
#
#
# Indices 1 2 3 4 5 6 
#
# 1 137.4068 6.4328 71.6203 0.0000 0.0000 0.0000
# 2 6.4328 20.7017 8.0499 0.0000 0.0000 0.0000
# 3 71.6203 8.0499 175.7800 0.0000 0.0000 0.0000
# 4 0.0000 0.0000 0.0000 25.5261 0.0000 0.0000
# 5 0.0000 0.0000 0.0000 0.0000 30.6679 0.0000
# 6 0.0000 0.0000 0.0000 0.0000 0.0000 1.3765
#
#
#
# Elastic Compliance Matrix: (Units=1/GPa)
#
#
# Indices 1 2 3 4 5 6 
#
# 1 0.009282 -0.001439 -0.003716 0.000000 0.000000 0.000000
# 2 -0.001439 0.049404 -0.001676 0.000000 0.000000 0.000000
# 3 -0.003716 -0.001676 0.007280 0.000000 0.000000 0.000000
# 4 0.000000 0.000000 0.000000 0.039176 0.000000 0.000000
# 5 0.000000 0.000000 0.000000 0.000000 0.032607 0.000000
# 6 0.000000 0.000000 0.000000 0.000000 0.000000 0.726475
#
#
# Mechanical properties :
#
#
# Convention : Reuss Voigt Hill
#
# Bulk Modulus (GPa) = 19.11930 56.23273 37.67602
# Shear Modulus (GPa) = 5.58459 28.03313 16.80886
#
# Velocity S-wave (km/s) = 1.63716 3.66801 2.84030
# Velocity P-wave (km/s) = 3.57070 6.70281 5.37017
#
# Compressibility (1/GPa) = 0.05230316
#
# Stress axis : x y z
#
# Youngs Moduli (GPa) = 107.73671 20.24125 137.36808
#
# Poissons Ratio (x) = 0.02913 0.51045
# Poissons Ratio (y) = 0.15506 0.23024
# Poissons Ratio (z) = 0.40034 0.03393
#
# Static dielectric constant tensor:
#      x y z
#    x 1.886390 0.000000 0.000000 
#    y 0.000000 1.800050 0.000000 
#    z 0.000000 0.000000 1.769670 
# 
# From -- ./inp_files/32348.got.cif
#   From: 2010.05.17/outbox.cif.g08.bks.cpg/sg24_17_cif.got.tgz:32348.got - 2010.06.04 00:33:39.
