data_PCOD9334543
_publ_section_title
;
Structure prediction by ZEFSAII (Michael W. Deem and Ramdas Pophale) SiO2 
 PCOD9334543
Probable space group: I 21 21 21
;
_chemical_formula_sum "Si O2"
_cell_formula_units_Z 56
_cell_length_a 20.512470
_cell_length_b 20.907188
_cell_length_c 6.235849
_cell_angle_alpha 90.000000
_cell_angle_beta 90.000000
_cell_angle_gamma 90.000000
_cell_volume 2674.294146
_symmetry_space_group_name_H-M "I 21 21 21"
_symmetry_group_IT_number 24
_symmetry_cell_setting 'orthorhombic'
loop_
_space_group_symop_operation_xyz
x,y,z
-x,1/2-y,z
x,-y,1/2-z
1/2-x,y,-z
1/2+x,1/2+y,1/2+z
1/2-x,-y,1/2+z
1/2+x,1/2-y,-z
-x,1/2+y,1/2-z
loop_
_atom_site_type_symbol
_atom_site_label
_atom_site_fract_x
_atom_site_fract_y
_atom_site_fract_z
Si Si1 0.947091 0.127047 0.735130
Si Si2 0.021961 0.000000 0.750000
Si Si3 0.442863 0.815360 0.542362
Si Si4 0.750000 0.626560 0.500000
Si Si5 0.116230 0.059765 0.100630
Si Si6 0.610174 0.213413 0.637235
Si Si7 0.822635 0.722843 0.760393
Si Si8 0.680086 0.144279 0.013318
O O1 0.931583 0.173361 0.535255
O O2 0.879350 0.112426 0.858310
O O3 0.979153 0.059834 0.667787
O O4 0.993265 0.165803 0.904478
O O5 0.069613 0.966618 0.583076
O O6 0.422088 0.877440 0.681168
O O7 0.432923 0.755816 0.701420
O O8 0.387026 0.803966 0.361335
O O9 0.686810 0.584003 0.532185
O O10 0.766220 0.672983 0.700984
O O11 0.125332 0.000000 0.250000
O O12 0.657377 0.260050 0.500948
O O13 0.652644 0.165590 0.782548
O O14 0.807274 0.790188 0.646644
O O15 0.750000 0.110362 0.000000
#
# Coordination Sequence:
#
# PCOD9334543 Si02
#       8
#     8   4   8   4   8   8   8   8
#     4  10  23  41  69  91 129 176 222 279 337 409
#     4  10  24  48  66  88 130 180 230 278 332 398
#     4   9  21  40  57  95 131 158 219 281 317 383
#     4  10  20  40  60  92 134 172 224 280 312 372
#     4  10  23  41  61  88 127 175 225 276 318 379
#     4  10  22  39  67  98 125 178 208 265 351 415
#     4   9  19  36  59  89 133 168 206 260 328 400
#     4  10  21  39  60  96 134 156 203 274 329 409
#
# _framework density 20.940106
#
# number of rings (size 3 to 8) (size 9 to 14) (size 15 to 20)
#    0.000    2.286    0.714    0.000    1.000   15.429 
#    0.000    4.286    3.143    0.000    0.000    0.000 
#    0.000    0.000    0.000    0.000    0.000    0.000 
#
# Total GULP energy -156294.388296 kJ/mol
# GULP energy per Si atom -5581.942439 kJ/mol
# Density = 2.089245 g / cm^3
# Si number density = 20.940106 Si / 1000 Ang^3
#
#
#
# Elastic Constant Matrix: (Units=GPa)
#
#
# Indices 1 2 3 4 5 6 
#
# 1 138.6752 41.9735 42.0810 0.0000 0.0000 0.0000
# 2 41.9735 87.6968 37.4660 0.0000 0.0000 0.0000
# 3 42.0810 37.4660 79.7812 0.0000 0.0000 0.0000
# 4 0.0000 0.0000 0.0000 50.5868 0.0000 0.0000
# 5 0.0000 0.0000 0.0000 0.0000 29.9525 0.0000
# 6 0.0000 0.0000 0.0000 0.0000 0.0000 35.7509
#
#
#
# Elastic Compliance Matrix: (Units=1/GPa)
#
#
# Indices 1 2 3 4 5 6 
#
# 1 0.009137 -0.002895 -0.003460 0.000000 0.000000 0.000000
# 2 -0.002895 0.015182 -0.005603 0.000000 0.000000 0.000000
# 3 -0.003460 -0.005603 0.016990 0.000000 0.000000 0.000000
# 4 0.000000 0.000000 0.000000 0.019768 0.000000 0.000000
# 5 0.000000 0.000000 0.000000 0.000000 0.033386 0.000000
# 6 0.000000 0.000000 0.000000 0.000000 0.000000 0.027971
#
#
# Mechanical properties :
#
#
# Convention : Reuss Voigt Hill
#
# Bulk Modulus (GPa) = 57.48993 61.02156 59.25574
# Shear Modulus (GPa) = 32.86256 35.56687 34.21472
#
# Velocity S-wave (km/s) = 3.96581 4.12576 4.04658
# Velocity P-wave (km/s) = 6.96307 7.20418 7.08465
#
# Compressibility (1/GPa) = 0.01739435
#
# Stress axis : x y z
#
# Youngs Moduli (GPa) = 109.44153 65.86675 58.85721
#
# Poissons Ratio (x) = 0.19069 0.20364
# Poissons Ratio (y) = 0.31685 0.32975
# Poissons Ratio (z) = 0.37866 0.36903
#
# Static dielectric constant tensor:
#      x y z
#    x 1.695700 0.000000 0.000000 
#    y 0.000000 1.804730 0.000000 
#    z 0.000000 0.000000 1.757670 
# 
# From -- ./inp_files/5813.got.cif
#   From: 2010.05.17/outbox.cif.g08.bks.cpg/sg24_3_cif.got.tgz:5813.got - 2010.06.04 00:33:39.
