data_PCOD9334141
_publ_section_title
;
Structure prediction by ZEFSAII (Michael W. Deem and Ramdas Pophale) SiO2 
 PCOD9334141
Probable space group: I 21 21 21
;
_chemical_formula_sum "Si O2"
_cell_formula_units_Z 56
_cell_length_a 12.115001
_cell_length_b 14.695566
_cell_length_c 14.237860
_cell_angle_alpha 90.000000
_cell_angle_beta 90.000000
_cell_angle_gamma 90.000000
_cell_volume 2534.862987
_symmetry_space_group_name_H-M "I 21 21 21"
_symmetry_group_IT_number 24
_symmetry_cell_setting 'orthorhombic'
loop_
_space_group_symop_operation_xyz
x,y,z
-x,1/2-y,z
x,-y,1/2-z
1/2-x,y,-z
1/2+x,1/2+y,1/2+z
1/2-x,-y,1/2+z
1/2+x,1/2-y,-z
-x,1/2+y,1/2-z
loop_
_atom_site_type_symbol
_atom_site_label
_atom_site_fract_x
_atom_site_fract_y
_atom_site_fract_z
Si Si1 0.650071 0.621092 0.888382
Si Si2 0.916030 0.676720 0.708998
Si Si3 0.827927 0.701964 0.313466
Si Si4 0.960285 0.975071 0.622847
Si Si5 0.723265 0.899205 0.609197
Si Si6 0.517478 0.563273 0.584250
Si Si7 0.602061 0.644572 0.089851
O O1 0.639529 0.678617 0.793651
O O2 0.584776 0.526615 0.887980
O O3 0.779585 0.594876 0.897649
O O4 0.611122 0.675677 0.982010
O O5 0.794944 0.662934 0.667279
O O6 0.897302 0.707170 0.817879
O O7 0.000000 0.750000 0.665434
O O8 0.977244 0.581149 0.702569
O O9 0.804506 0.807366 0.334508
O O10 0.919964 0.651119 0.375036
O O11 0.830912 0.956471 0.637793
O O12 0.003946 0.926456 0.527406
O O13 0.999125 0.077250 0.601827
O O14 0.750000 0.874451 0.500000
O O15 0.608427 0.952062 0.616274
#
# Coordination Sequence:
#
# PCOD9334141 Si02
#       7
#     8   8   8   8   8   8   8
#     4   9  19  38  60  87 110 151 207 255 293 343
#     4  11  21  34  56  87 120 152 195 245 307 362
#     4  11  21  35  59  83 122 153 196 243 301 363
#     4  10  20  36  57  86 119 153 189 240 307 367
#     4  10  22  37  55  87 125 158 188 242 308 375
#     4  10  21  35  58  85 117 153 199 245 297 359
#     4   9  19  37  61  86 112 149 202 256 297 349
#
# _framework density 22.091923999999999
#
# number of rings (size 3 to 8) (size 9 to 14) (size 15 to 20)
#    0.000    2.000    1.429    2.143    2.000    3.429 
#    0.000    4.286    0.000    0.000   18.571    0.000 
#    0.000    0.000    0.000    0.000    0.000    0.000 
#
# Total GULP energy -156036.768534 kJ/mol
# GULP energy per Si atom -5572.741733 kJ/mol
# Density = 2.204164 g / cm^3
# Si number density = 22.091924 Si / 1000 Ang^3
#
#
#
# Elastic Constant Matrix: (Units=GPa)
#
#
# Indices 1 2 3 4 5 6 
#
# 1 150.8886 26.5774 27.5856 0.0000 0.0000 0.0000
# 2 26.5774 34.1977 2.4292 0.0000 0.0000 0.0000
# 3 27.5856 2.4292 69.2629 0.0000 0.0000 0.0000
# 4 0.0000 0.0000 0.0000 0.6057 0.0000 0.0000
# 5 0.0000 0.0000 0.0000 0.0000 -5.0489 0.0000
# 6 0.0000 0.0000 0.0000 0.0000 0.0000 20.0849
#
#
#
# Elastic Compliance Matrix: (Units=1/GPa)
#
#
# Indices 1 2 3 4 5 6 
#
# 1 0.008287 -0.006221 -0.003082 0.000000 0.000000 0.000000
# 2 -0.006221 0.033985 0.001286 -0.000001 0.000000 0.000000
# 3 -0.003082 0.001286 0.015620 0.000000 0.000000 0.000000
# 4 0.000000 -0.000001 0.000000 1.650865 0.000000 0.000000
# 5 0.000000 0.000000 0.000000 0.000000 -0.198063 0.000000
# 6 0.000000 0.000000 0.000000 0.000000 0.000000 0.049789
#
#
# Mechanical properties :
#
#
# Convention : Reuss Voigt Hill
#
# Bulk Modulus (GPa) = 23.89086 40.83707 32.36396
# Shear Modulus (GPa) = 3.14372 16.31215 9.72794
#
# Velocity S-wave (km/s) = 1.19420 2.72026 2.10070
# Velocity P-wave (km/s) = 3.56921 5.32838 4.53491
#
# Compressibility (1/GPa) = 0.04185702
#
# Stress axis : x y z
#
# Youngs Moduli (GPa) = 120.67548 29.42445 64.01971
#
# Poissons Ratio (x) = 0.18306 0.19732
# Poissons Ratio (y) = 0.75075 -0.08232
# Poissons Ratio (z) = 0.37194 -0.03783
#
# Static dielectric constant tensor:
#      x y z
#    x 1.835800 0.000000 0.000000 
#    y 0.000000 1.815240 0.000000 
#    z 0.000000 0.000000 1.934100 
# 
# From -- ./inp_files/25797.got.cif
#   From: 2010.05.17/outbox.cif.g08.bks.cpg/sg24_13_cif.got.tgz:25797.got - 2010.06.04 00:33:39.
