data_PCOD9334262
_publ_section_title
;
Structure prediction by ZEFSAII (Michael W. Deem and Ramdas Pophale) SiO2 
 PCOD9334262
Probable space group: I 21 21 21
;
_chemical_formula_sum "Si O2"
_cell_formula_units_Z 40
_cell_length_a 28.828516
_cell_length_b 7.307712
_cell_length_c 8.390598
_cell_angle_alpha 90.000000
_cell_angle_beta 90.000000
_cell_angle_gamma 90.000000
_cell_volume 1767.651411
_symmetry_space_group_name_H-M "I 21 21 21"
_symmetry_group_IT_number 24
_symmetry_cell_setting 'orthorhombic'
loop_
_space_group_symop_operation_xyz
x,y,z
-x,1/2-y,z
x,-y,1/2-z
1/2-x,y,-z
1/2+x,1/2+y,1/2+z
1/2-x,-y,1/2+z
1/2+x,1/2-y,-z
-x,1/2+y,1/2-z
loop_
_atom_site_type_symbol
_atom_site_label
_atom_site_fract_x
_atom_site_fract_y
_atom_site_fract_z
Si Si1 0.839185 0.180403 0.361935
Si Si2 0.390541 0.872004 0.580996
Si Si3 0.918860 0.016690 0.561110
Si Si4 0.018285 0.961160 0.564722
Si Si5 0.796674 0.515903 0.938781
O O1 0.867916 0.319286 0.249951
O O2 0.876334 0.132719 0.497546
O O3 0.799635 0.294762 0.455348
O O4 0.827563 0.000000 0.250000
O O5 0.408150 0.677314 0.516653
O O6 0.437268 0.988084 0.548036
O O7 0.346451 0.930084 0.477659
O O8 0.917976 0.000000 0.750000
O O9 0.971572 0.071809 0.519321
O O10 0.000000 0.750000 0.561252
O O11 0.031224 0.000000 0.750000
O O12 0.792557 0.500000 0.750000
O O13 0.750000 0.417585 0.000000
#
# Coordination Sequence:
#
# PCOD9334262 Si02
#       5
#     8   8   8   8   8
#     4  10  22  42  63  90 128 164 204 256 314 377
#     4  10  20  37  60  89 125 160 206 260 311 368
#     4   9  18  36  60  88 124 166 207 250 309 378
#     4   9  18  33  56  88 124 164 207 250 303 367
#     4  12  25  44  69  95 122 158 208 264 319 374
#
# _framework density 22.628898
#
# number of rings (size 3 to 8) (size 9 to 14) (size 15 to 20)
#    0.000    2.000    0.000    3.600    0.000    3.200 
#    0.000   25.000    0.000    0.000    0.000    0.000 
#    0.000    0.000    0.000    0.000    0.000    0.000 
#
# Total GULP energy -111463.788111 kJ/mol
# GULP energy per Si atom -5573.189406 kJ/mol
# Density = 2.257739 g / cm^3
# Si number density = 22.628898 Si / 1000 Ang^3
#
#
#
# Elastic Constant Matrix: (Units=GPa)
#
#
# Indices 1 2 3 4 5 6 
#
# 1 134.1414 1.8518 56.0421 0.0000 0.0000 0.0000
# 2 1.8518 44.8439 0.7598 0.0000 0.0000 0.0000
# 3 56.0421 0.7598 123.9211 0.0000 0.0000 0.0000
# 4 0.0000 0.0000 0.0000 12.1734 0.0000 0.0000
# 5 0.0000 0.0000 0.0000 0.0000 41.3075 0.0000
# 6 0.0000 0.0000 0.0000 0.0000 0.0000 9.5137
#
#
#
# Elastic Compliance Matrix: (Units=1/GPa)
#
#
# Indices 1 2 3 4 5 6 
#
# 1 0.009196 -0.000309 -0.004157 0.000000 0.000000 0.000000
# 2 -0.000309 0.022312 0.000003 0.000000 0.000000 0.000000
# 3 -0.004157 0.000003 0.009949 0.000000 0.000000 0.000000
# 4 0.000000 0.000000 0.000000 0.082146 0.000000 0.000000
# 5 0.000000 0.000000 0.000000 0.000000 0.024209 0.000000
# 6 0.000000 0.000000 0.000000 0.000000 0.000000 0.105112
#
#
# Mechanical properties :
#
#
# Convention : Reuss Voigt Hill
#
# Bulk Modulus (GPa) = 30.73943 46.69041 38.71492
# Shear Modulus (GPa) = 18.33556 28.88243 23.60900
#
# Velocity S-wave (km/s) = 2.84962 3.57648 3.23354
# Velocity P-wave (km/s) = 4.94376 6.14271 5.57555
#
# Compressibility (1/GPa) = 0.03253151
#
# Stress axis : x y z
#
# Youngs Moduli (GPa) = 108.74623 44.81833 100.50768
#
# Poissons Ratio (x) = 0.01386 0.41779
# Poissons Ratio (y) = 0.03364 -0.00031
# Poissons Ratio (z) = 0.45203 -0.00014
#
# Static dielectric constant tensor:
#      x y z
#    x 1.828960 0.000000 0.000000 
#    y 0.000000 1.978340 0.000000 
#    z 0.000000 0.000000 1.953580 
# 
# From -- ./inp_files/9270.got.cif
#   From: 2010.05.17/outbox.cif.g08.bks.cpg/sg24_5_cif.got.tgz:9270.got - 2010.06.04 00:33:39.
