data_PCOD9334249
_publ_section_title
;
Structure prediction by ZEFSAII (Michael W. Deem and Ramdas Pophale) SiO2 
 PCOD9334249
Probable space group: I 21 21 21
;
_chemical_formula_sum "Si O2"
_cell_formula_units_Z 44
_cell_length_a 7.454402
_cell_length_b 10.885815
_cell_length_c 24.605189
_cell_angle_alpha 90.000000
_cell_angle_beta 90.000000
_cell_angle_gamma 90.000000
_cell_volume 1996.643204
_symmetry_space_group_name_H-M "I 21 21 21"
_symmetry_group_IT_number 24
_symmetry_cell_setting 'orthorhombic'
loop_
_space_group_symop_operation_xyz
x,y,z
-x,1/2-y,z
x,-y,1/2-z
1/2-x,y,-z
1/2+x,1/2+y,1/2+z
1/2-x,-y,1/2+z
1/2+x,1/2-y,-z
-x,1/2+y,1/2-z
loop_
_atom_site_type_symbol
_atom_site_label
_atom_site_fract_x
_atom_site_fract_y
_atom_site_fract_z
Si Si1 0.500000 0.750000 0.803622
Si Si2 0.419173 0.976742 0.872912
Si Si3 0.007199 0.894573 0.894849
Si Si4 0.765178 0.677583 0.296561
Si Si5 0.539509 0.391587 0.515543
Si Si6 0.627134 0.064385 0.195977
O O1 0.521364 0.868553 0.841317
O O2 0.655966 0.707234 0.762563
O O3 0.213185 0.933768 0.884009
O O4 0.497287 0.981228 0.933987
O O5 0.393201 0.094292 0.834048
O O6 0.000000 0.750000 0.884812
O O7 0.948825 0.916343 0.957335
O O8 0.890305 0.970576 0.852915
O O9 0.727029 0.811609 0.321029
O O10 0.575449 0.609255 0.290128
O O11 0.500000 0.250000 0.531773
O O12 0.750000 0.397001 0.500000
O O13 0.703540 0.000000 0.250000
#
# Coordination Sequence:
#
# PCOD9334249 Si02
#       6
#     4   8   8   8   8   8
#     4  12  22  36  54  82 122 160 190 234 300 358
#     4  10  20  37  59  83 120 154 189 242 302 353
#     4   9  19  35  61  92 116 145 200 251 291 346
#     4  10  23  39  55  85 117 156 202 239 289 367
#     4   9  17  34  58  87 115 149 191 243 299 345
#     4  10  21  37  61  85 119 153 197 247 297 339
#
# _framework density 22.036987
#
# number of rings (size 3 to 8) (size 9 to 14) (size 15 to 20)
#    0.000    2.182    0.909    2.727    5.091    1.455 
#    0.000    0.000    0.000   10.909    0.000    0.000 
#    0.000    0.000    0.000    0.000    0.000    0.000 
#
# Total GULP energy -122972.025195 kJ/mol
# GULP energy per Si atom -5589.637509 kJ/mol
# Density = 2.198683 g / cm^3
# Si number density = 22.036987 Si / 1000 Ang^3
#
#
#
# Elastic Constant Matrix: (Units=GPa)
#
#
# Indices 1 2 3 4 5 6 
#
# 1 60.4591 25.2489 18.7186 0.0000 0.0000 0.0000
# 2 25.2489 148.7291 96.0559 0.0000 0.0000 0.0000
# 3 18.7186 96.0559 165.6759 0.0000 0.0000 0.0000
# 4 0.0000 0.0000 0.0000 6.9242 0.0000 0.0000
# 5 0.0000 0.0000 0.0000 0.0000 14.9450 0.0000
# 6 0.0000 0.0000 0.0000 0.0000 0.0000 33.4063
#
#
#
# Elastic Compliance Matrix: (Units=1/GPa)
#
#
# Indices 1 2 3 4 5 6 
#
# 1 0.017820 -0.002757 -0.000415 0.000000 0.000000 0.000000
# 2 -0.002757 0.011175 -0.006168 0.000000 0.000000 0.000000
# 3 -0.000415 -0.006168 0.009659 0.000000 0.000000 0.000000
# 4 0.000000 0.000000 0.000000 0.144421 0.000000 0.000000
# 5 0.000000 0.000000 0.000000 0.000000 0.066912 0.000000
# 6 0.000000 0.000000 0.000000 0.000000 0.000000 0.029934
#
#
# Mechanical properties :
#
#
# Convention : Reuss Voigt Hill
#
# Bulk Modulus (GPa) = 50.06408 72.76789 61.41599
# Shear Modulus (GPa) = 16.37959 26.71115 21.54537
#
# Velocity S-wave (km/s) = 2.72927 3.48531 3.13020
# Velocity P-wave (km/s) = 5.71834 7.02061 6.40267
#
# Compressibility (1/GPa) = 0.01997440
#
# Stress axis : x y z
#
# Youngs Moduli (GPa) = 56.11660 89.48533 103.53507
#
# Poissons Ratio (x) = 0.24675 0.04293
# Poissons Ratio (y) = 0.15474 0.63856
# Poissons Ratio (z) = 0.02327 0.55190
#
# Static dielectric constant tensor:
#      x y z
#    x 1.908610 0.000000 0.000000 
#    y 0.000000 1.781030 0.000000 
#    z 0.000000 0.000000 1.821790 
# 
# From -- ./inp_files/35097.got.cif
#   From: 2010.05.17/outbox.cif.g08.bks.cpg/sg24_18_cif.got.tgz:35097.got - 2010.06.04 00:33:39.
