data_PCOD9334298
_publ_section_title
;
Structure prediction by ZEFSAII (Michael W. Deem and Ramdas Pophale) SiO2 
 PCOD9334298
Probable space group: I 21 21 21
;
_chemical_formula_sum "Si O2"
_cell_formula_units_Z 44
_cell_length_a 17.303018
_cell_length_b 25.115208
_cell_length_c 5.433222
_cell_angle_alpha 90.000000
_cell_angle_beta 90.000000
_cell_angle_gamma 90.000000
_cell_volume 2361.109287
_symmetry_space_group_name_H-M "I 21 21 21"
_symmetry_group_IT_number 24
_symmetry_cell_setting 'orthorhombic'
loop_
_space_group_symop_operation_xyz
x,y,z
-x,1/2-y,z
x,-y,1/2-z
1/2-x,y,-z
1/2+x,1/2+y,1/2+z
1/2-x,-y,1/2+z
1/2+x,1/2-y,-z
-x,1/2+y,1/2-z
loop_
_atom_site_type_symbol
_atom_site_label
_atom_site_fract_x
_atom_site_fract_y
_atom_site_fract_z
Si Si1 0.182200 0.051355 0.362784
Si Si2 0.565773 0.500000 0.250000
Si Si3 0.920290 0.391955 0.972863
Si Si4 0.466285 0.689490 0.737688
Si Si5 0.698551 0.685741 0.245595
Si Si6 0.581907 0.217832 0.255834
O O1 0.250000 0.080861 0.500000
O O2 0.224252 0.000000 0.250000
O O3 0.116575 0.026935 0.535135
O O4 0.145406 0.084634 0.148605
O O5 0.533746 0.444436 0.128987
O O6 0.871470 0.358001 0.772831
O O7 0.969713 0.352114 0.143155
O O8 0.500000 0.750000 0.758005
O O9 0.408367 0.689820 0.507175
O O10 0.429766 0.680528 0.005914
O O11 0.750000 0.684545 0.500000
O O12 0.650402 0.740476 0.220017
O O13 0.750000 0.684271 0.000000
O O14 0.500000 0.250000 0.235948
#
# Coordination Sequence:
#
# PCOD9334298 Si02
#       6
#     8   4   8   8   8   8
#     4  10  21  37  50  69 106 160 203 248 293 339
#     4  10  24  36  52  70 118 150 208 256 292 334
#     4  11  25  38  54  83 110 159 210 254 300 346
#     4  10  20  37  64  76 103 146 206 246 292 368
#     4  12  27  39  58  90 121 155 208 264 300 348
#     4  10  20  40  59  81 111 149 200 243 302 363
#
# _framework density 18.635307000000001
#
# number of rings (size 3 to 8) (size 9 to 14) (size 15 to 20)
#    0.000    1.455    4.545    1.091   10.182    0.000 
#    3.273    0.000    0.000    0.000    0.000    0.000 
#    0.000    0.000    0.000    4.909    5.091    0.182 
#
# Total GULP energy -122511.943543 kJ/mol
# GULP energy per Si atom -5568.724707 kJ/mol
# Density = 1.859289 g / cm^3
# Si number density = 18.635307 Si / 1000 Ang^3
#
#
#
# Elastic Constant Matrix: (Units=GPa)
#
#
# Indices 1 2 3 4 5 6 
#
# 1 29.5515 20.4695 -2.7798 0.0000 0.0000 0.0000
# 2 20.4695 51.7993 -18.2048 0.0000 0.0000 0.0000
# 3 -2.7798 -18.2048 85.2611 0.0000 0.0000 0.0000
# 4 0.0000 0.0000 0.0000 39.4124 0.0000 0.0000
# 5 0.0000 0.0000 0.0000 0.0000 31.5607 0.0000
# 6 0.0000 0.0000 0.0000 0.0000 0.0000 23.7980
#
#
#
# Elastic Compliance Matrix: (Units=1/GPa)
#
#
# Indices 1 2 3 4 5 6 
#
# 1 0.047135 -0.019554 -0.002638 0.000000 0.000000 0.000000
# 2 -0.019554 0.028983 0.005551 0.000000 0.000000 0.000000
# 3 -0.002638 0.005551 0.012828 0.000000 0.000000 0.000000
# 4 0.000000 0.000000 0.000000 0.025373 0.000000 0.000000
# 5 0.000000 0.000000 0.000000 0.000000 0.031685 0.000000
# 6 0.000000 0.000000 0.000000 0.000000 0.000000 0.042020
#
#
# Mechanical properties :
#
#
# Convention : Reuss Voigt Hill
#
# Bulk Modulus (GPa) = 17.96485 18.39798 18.18142
# Shear Modulus (GPa) = 20.84540 30.09605 25.47072
#
# Velocity S-wave (km/s) = 3.34817 4.02307 3.70104
# Velocity P-wave (km/s) = 4.96066 5.61019 5.29539
#
# Compressibility (1/GPa) = 0.05566425
#
# Stress axis : x y z
#
# Youngs Moduli (GPa) = 21.21552 34.50281 77.95524
#
# Poissons Ratio (x) = 0.67466 0.20567
# Poissons Ratio (y) = 0.41484 -0.43272
# Poissons Ratio (z) = 0.05597 -0.19152
#
# Static dielectric constant tensor:
#      x y z
#    x 1.631020 0.000000 0.000000 
#    y 0.000000 1.717760 0.000000 
#    z 0.000000 0.000000 1.730080 
# 
# From -- ./inp_files/3674.got.cif
#   From: 2010.05.17/outbox.cif.g08.bks.cpg/sg24_2_cif.got.tgz:3674.got - 2010.06.04 00:33:39.
