data_PCOD9334393
_publ_section_title
;
Structure prediction by ZEFSAII (Michael W. Deem and Ramdas Pophale) SiO2 
 PCOD9334393
Probable space group: I 21 21 21
;
_chemical_formula_sum "Si O2"
_cell_formula_units_Z 32
_cell_length_a 13.185076
_cell_length_b 10.240503
_cell_length_c 9.521096
_cell_angle_alpha 90.000000
_cell_angle_beta 90.000000
_cell_angle_gamma 90.000000
_cell_volume 1285.555618
_symmetry_space_group_name_H-M "I 21 21 21"
_symmetry_group_IT_number 24
_symmetry_cell_setting 'orthorhombic'
loop_
_space_group_symop_operation_xyz
x,y,z
-x,1/2-y,z
x,-y,1/2-z
1/2-x,y,-z
1/2+x,1/2+y,1/2+z
1/2-x,-y,1/2+z
1/2+x,1/2-y,-z
-x,1/2+y,1/2-z
loop_
_atom_site_type_symbol
_atom_site_label
_atom_site_fract_x
_atom_site_fract_y
_atom_site_fract_z
Si Si1 0.703098 0.000000 0.750000
Si Si2 0.659056 0.373167 0.888194
Si Si3 0.053609 0.407367 0.034792
Si Si4 0.000000 0.250000 0.768894
Si Si5 0.213111 0.233565 0.657116
O O1 0.633894 0.002810 0.608584
O O2 0.769318 0.871328 0.764178
O O3 0.556441 0.453857 0.909545
O O4 0.605569 0.229930 0.913570
O O5 0.713998 0.364900 0.739827
O O6 0.750000 0.392534 0.000000
O O7 0.032433 0.368977 0.873376
O O8 0.904802 0.295342 0.678088
O O9 0.250000 0.238725 0.500000
#
# Coordination Sequence:
#
# PCOD9334393 Si02
#       5
#     4   8   8   4   8
#     4  10  24  36  58  98 132 154 210 288 326 350
#     4   9  15  33  58  84 108 166 217 244 301 394
#     4   9  18  33  62  86 120 166 213 255 315 397
#     4  10  20  38  64  90 126 180 218 240 334 410
#     4  11  23  35  61  92 127 162 216 275 311 377
#
# _framework density 24.891960000000001
#
# number of rings (size 3 to 8) (size 9 to 14) (size 15 to 20)
#    0.000    2.500    5.000    0.000    3.500    4.000 
#    0.000    0.000    0.000    6.000    0.000    0.000 
#    0.000    0.000    0.000    0.000    0.000    0.000 
#
# Total GULP energy -89297.911813 kJ/mol
# GULP energy per Si atom -5581.119488 kJ/mol
# Density = 2.483531 g / cm^3
# Si number density = 24.891960 Si / 1000 Ang^3
#
#
#
# Elastic Constant Matrix: (Units=GPa)
#
#
# Indices 1 2 3 4 5 6 
#
# 1 211.8910 17.9672 91.2136 0.0000 0.0000 0.0000
# 2 17.9672 63.8888 7.3939 0.0000 0.0000 0.0000
# 3 91.2136 7.3939 154.2702 0.0000 0.0000 0.0000
# 4 0.0000 0.0000 0.0000 17.6816 0.0000 0.0000
# 5 0.0000 0.0000 0.0000 0.0000 26.8140 0.0000
# 6 0.0000 0.0000 0.0000 0.0000 0.0000 14.7044
#
#
#
# Elastic Compliance Matrix: (Units=1/GPa)
#
#
# Indices 1 2 3 4 5 6 
#
# 1 0.006449 -0.001380 -0.003747 0.000000 0.000000 0.000000
# 2 -0.001380 0.016035 0.000047 0.000000 0.000000 0.000000
# 3 -0.003747 0.000047 0.008695 0.000000 0.000000 0.000000
# 4 0.000000 0.000000 0.000000 0.056556 0.000000 0.000000
# 5 0.000000 0.000000 0.000000 0.000000 0.037294 0.000000
# 6 0.000000 0.000000 0.000000 0.000000 0.000000 0.068007
#
#
# Mechanical properties :
#
#
# Convention : Reuss Voigt Hill
#
# Bulk Modulus (GPa) = 47.57346 73.68881 60.63114
# Shear Modulus (GPa) = 23.78657 32.73836 28.26246
#
# Velocity S-wave (km/s) = 3.09462 3.63053 3.37323
# Velocity P-wave (km/s) = 5.64999 6.87328 6.29144
#
# Compressibility (1/GPa) = 0.02102012
#
# Stress axis : x y z
#
# Youngs Moduli (GPa) = 155.05095 62.36429 115.00323
#
# Poissons Ratio (x) = 0.08607 0.43094
# Poissons Ratio (y) = 0.21399 -0.00546
# Poissons Ratio (z) = 0.58100 -0.00296
#
# Static dielectric constant tensor:
#      x y z
#    x 1.948960 0.000000 0.000000 
#    y 0.000000 2.134800 0.000000 
#    z 0.000000 0.000000 2.003600 
# 
# From -- ./inp_files/10432.got.cif
#   From: 2010.05.17/outbox.cif.g08.bks.cpg/sg24_6_cif.got.tgz:10432.got - 2010.06.04 00:33:39.
