data_PCOD9334134
_publ_section_title
;
Structure prediction by ZEFSAII (Michael W. Deem and Ramdas Pophale) SiO2 
 PCOD9334134
Probable space group: I 21 21 21
;
_chemical_formula_sum "Si O2"
_cell_formula_units_Z 60
_cell_length_a 23.289913
_cell_length_b 15.163526
_cell_length_c 9.025446
_cell_angle_alpha 90.000000
_cell_angle_beta 90.000000
_cell_angle_gamma 90.000000
_cell_volume 3187.401250
_symmetry_space_group_name_H-M "I 21 21 21"
_symmetry_group_IT_number 24
_symmetry_cell_setting 'orthorhombic'
loop_
_space_group_symop_operation_xyz
x,y,z
-x,1/2-y,z
x,-y,1/2-z
1/2-x,y,-z
1/2+x,1/2+y,1/2+z
1/2-x,-y,1/2+z
1/2+x,1/2-y,-z
-x,1/2+y,1/2-z
loop_
_atom_site_type_symbol
_atom_site_label
_atom_site_fract_x
_atom_site_fract_y
_atom_site_fract_z
Si Si1 0.750000 0.494208 0.500000
Si Si2 0.250624 0.868540 0.743532
Si Si3 0.133645 0.219417 0.210100
Si Si4 0.525963 0.349023 0.307599
Si Si5 0.476776 0.850830 0.855244
Si Si6 0.587737 0.911179 0.689854
Si Si7 0.412402 0.586412 0.336193
Si Si8 0.365170 0.779212 0.354442
O O1 0.724393 0.564059 0.617939
O O2 0.725079 0.425383 0.379975
O O3 0.305338 0.808391 0.776764
O O4 0.198398 0.811156 0.683347
O O5 0.084811 0.157266 0.279063
O O6 0.119595 0.322030 0.239411
O O7 0.129320 0.213306 0.031809
O O8 0.500000 0.250000 0.314333
O O9 0.529100 0.382985 0.475994
O O10 0.477915 0.400763 0.217053
O O11 0.586907 0.339465 0.226385
O O12 0.500000 0.750000 0.860297
O O13 0.524005 0.901846 0.759565
O O14 0.586645 0.920316 0.513247
O O15 0.615468 0.000000 0.750000
O O16 0.389766 0.500000 0.250000
O O17 0.378385 0.678113 0.305898
#
# Coordination Sequence:
#
# PCOD9334134 Si02
#       8
#     4   8   8   8   8   8   8   8
#     4  10  24  42  64  82 118 140 192 234 274 336
#     4  11  22  44  61  88 113 148 182 235 286 338
#     4  10  20  37  61  82 117 156 189 230 290 342
#     4   9  18  33  54  81 112 147 188 232 279 333
#     4   9  18  33  54  81 112 147 188 232 279 333
#     4  10  20  36  56  84 116 154 194 237 280 335
#     4  10  20  36  56  84 116 154 194 237 280 335
#     4  10  20  37  61  82 117 156 189 230 290 342
#
# _framework density 18.824112
#
# number of rings (size 3 to 8) (size 9 to 14) (size 15 to 20)
#    0.000    2.133    1.333    1.600    1.867    4.267 
#    4.800    0.667    0.000    0.000    0.000    0.000 
#    0.000    0.000    0.000    0.000    0.000    0.000 
#
# Total GULP energy -167044.295332 kJ/mol
# GULP energy per Si atom -5568.143178 kJ/mol
# Density = 1.878127 g / cm^3
# Si number density = 18.824112 Si / 1000 Ang^3
#
#
#
# Elastic Constant Matrix: (Units=GPa)
#
#
# Indices 1 2 3 4 5 6 
#
# 1 102.9686 30.2615 17.9310 0.0000 0.0000 0.0000
# 2 30.2615 89.3911 37.0522 0.0000 0.0000 0.0000
# 3 17.9310 37.0522 61.5824 0.0000 0.0000 0.0000
# 4 0.0000 0.0000 0.0000 31.2479 0.0000 0.0000
# 5 0.0000 0.0000 0.0000 0.0000 19.8209 0.0000
# 6 0.0000 0.0000 0.0000 0.0000 0.0000 -2.1616
#
#
#
# Elastic Compliance Matrix: (Units=1/GPa)
#
#
# Indices 1 2 3 4 5 6 
#
# 1 0.010858 -0.003151 -0.001266 0.000000 0.000000 0.000000
# 2 -0.003151 0.015818 -0.008600 0.000000 0.000000 0.000000
# 3 -0.001266 -0.008600 0.021781 0.000000 0.000000 0.000000
# 4 0.000000 0.000000 0.000000 0.032002 0.000000 0.000000
# 5 0.000000 0.000000 0.000000 0.000000 0.050452 0.000000
# 6 0.000000 0.000000 0.000000 0.000000 0.000000 -0.462622
#
#
# Mechanical properties :
#
#
# Convention : Reuss Voigt Hill
#
# Bulk Modulus (GPa) = 44.59444 47.15906 45.87675
# Shear Modulus (GPa) = -16.76708 21.02795 2.13043
#
# Velocity S-wave (km/s) = -2.98774 3.34589 1.06500
# Velocity P-wave (km/s) = 3.44084 6.32721 5.09279
#
# Compressibility (1/GPa) = 0.02242432
#
# Stress axis : x y z
#
# Youngs Moduli (GPa) = 92.09627 63.21861 45.91138
#
# Poissons Ratio (x) = 0.19922 0.05811
# Poissons Ratio (y) = 0.29022 0.39483
# Poissons Ratio (z) = 0.11656 0.54366
#
# Static dielectric constant tensor:
#      x y z
#    x 1.619480 0.000000 0.000000 
#    y 0.000000 1.686170 0.000000 
#    z 0.000000 0.000000 1.674250 
# 
# From -- ./inp_files/16009.got.cif
#   From: 2010.05.17/outbox.cif.g08.bks.cpg/sg24_9_cif.got.tgz:16009.got - 2010.06.04 00:33:39.
