data_PCOD9334965
_publ_section_title
;
Structure prediction by ZEFSAII (Michael W. Deem and Ramdas Pophale) SiO2 
 PCOD9334965
Probable space group: I 21 21 21
;
_chemical_formula_sum "Si O2"
_cell_formula_units_Z 60
_cell_length_a 18.062314
_cell_length_b 15.580019
_cell_length_c 11.705484
_cell_angle_alpha 90.000000
_cell_angle_beta 90.000000
_cell_angle_gamma 90.000000
_cell_volume 3294.054244
_symmetry_space_group_name_H-M "I 21 21 21"
_symmetry_group_IT_number 24
_symmetry_cell_setting 'orthorhombic'
loop_
_space_group_symop_operation_xyz
x,y,z
-x,1/2-y,z
x,-y,1/2-z
1/2-x,y,-z
1/2+x,1/2+y,1/2+z
1/2-x,-y,1/2+z
1/2+x,1/2-y,-z
-x,1/2+y,1/2-z
loop_
_atom_site_type_symbol
_atom_site_label
_atom_site_fract_x
_atom_site_fract_y
_atom_site_fract_z
Si Si1 0.723239 0.601635 0.267965
Si Si2 0.558083 0.397141 0.271888
Si Si3 0.971580 0.426425 0.482606
Si Si4 0.512084 0.626917 0.478022
Si Si5 0.750000 0.310875 0.000000
Si Si6 0.927792 0.189379 0.349758
Si Si7 0.822321 0.671602 0.080403
Si Si8 0.606906 0.224059 0.911308
O O1 0.732743 0.500000 0.250000
O O2 0.644146 0.627204 0.214433
O O3 0.719279 0.628066 0.399966
O O4 0.790048 0.649365 0.205306
O O5 0.557201 0.500000 0.250000
O O6 0.516934 0.384129 0.391530
O O7 0.528364 0.356165 0.155465
O O8 0.970392 0.528594 0.495445
O O9 0.890160 0.393671 0.444332
O O10 0.038347 0.397763 0.400135
O O11 0.560458 0.689067 0.559205
O O12 0.428336 0.652212 0.506863
O O13 0.688779 0.250269 0.944401
O O14 0.861326 0.235178 0.418562
O O15 0.904729 0.192296 0.217520
O O16 0.000000 0.250000 0.360282
O O17 0.750000 0.663680 0.000000
#
# Coordination Sequence:
#
# PCOD9334965 Si02
#       8
#     8   8   8   8   4   8   8   8
#     4  11  23  33  57  85 121 156 192 233 304 366
#     4   9  18  36  56  87 115 146 192 240 290 361
#     4  10  22  38  63  85 119 158 199 249 298 349
#     4  10  21  39  61  85 118 157 201 246 288 353
#     4  12  24  40  58  84 124 166 190 250 306 350
#     4  10  21  40  54  84 121 156 198 240 285 359
#     4  11  22  36  56  88 123 151 188 244 299 359
#     4  11  22  39  59  86 121 152 203 242 293 357
#
# _framework density 18.214637
#
# number of rings (size 3 to 8) (size 9 to 14) (size 15 to 20)
#    0.000    1.600    5.333    0.000    2.800    0.533 
#    9.600    0.000    1.467    0.000    0.000    0.000 
#    0.000    0.000    0.000    0.000    0.000    0.000 
#
# Total GULP energy -167252.885576 kJ/mol
# GULP energy per Si atom -5575.096186 kJ/mol
# Density = 1.817318 g / cm^3
# Si number density = 18.214637 Si / 1000 Ang^3
#
#
#
# Elastic Constant Matrix: (Units=GPa)
#
#
# Indices 1 2 3 4 5 6 
#
# 1 81.3818 40.1359 38.5842 0.0000 0.0000 0.0000
# 2 40.1359 54.4476 41.1870 0.0000 0.0000 0.0000
# 3 38.5842 41.1870 108.9775 0.0000 0.0000 0.0000
# 4 0.0000 0.0000 0.0000 24.7556 0.0000 0.0000
# 5 0.0000 0.0000 0.0000 0.0000 31.2715 0.0000
# 6 0.0000 0.0000 0.0000 0.0000 0.0000 25.6080
#
#
#
# Elastic Compliance Matrix: (Units=1/GPa)
#
#
# Indices 1 2 3 4 5 6 
#
# 1 0.019636 -0.012905 -0.002075 0.000000 0.000000 0.000000
# 2 -0.012905 0.034201 -0.008357 0.000000 0.000000 0.000000
# 3 -0.002075 -0.008357 0.013069 0.000000 0.000000 0.000000
# 4 0.000000 0.000000 0.000000 0.040395 0.000000 0.000000
# 5 0.000000 0.000000 0.000000 0.000000 0.031978 0.000000
# 6 0.000000 0.000000 0.000000 0.000000 0.000000 0.039050
#
#
# Mechanical properties :
#
#
# Convention : Reuss Voigt Hill
#
# Bulk Modulus (GPa) = 49.42542 53.84680 51.63611
# Shear Modulus (GPa) = 21.57529 24.65367 23.11448
#
# Velocity S-wave (km/s) = 3.44539 3.68300 3.56618
# Velocity P-wave (km/s) = 6.55908 6.90742 6.73551
#
# Compressibility (1/GPa) = 0.02023251
#
# Stress axis : x y z
#
# Youngs Moduli (GPa) = 50.92676 29.23922 76.51595
#
# Poissons Ratio (x) = 0.37733 0.15877
# Poissons Ratio (y) = 0.65721 0.63942
# Poissons Ratio (z) = 0.10567 0.24434
#
# Static dielectric constant tensor:
#      x y z
#    x 1.637530 0.000000 0.000000 
#    y 0.000000 1.619800 0.000000 
#    z 0.000000 0.000000 1.683540 
# 
# From -- ./inp_files/21692.got.cif
#   From: 2010.05.17/outbox.cif.g08.bks.cpg/sg24_11_cif.got.tgz:21692.got - 2010.06.04 00:33:39.
