data_PCOD9334625
_publ_section_title
;
Structure prediction by ZEFSAII (Michael W. Deem and Ramdas Pophale) SiO2 
 PCOD9334625
Probable space group: I 21 21 21
;
_chemical_formula_sum "Si O2"
_cell_formula_units_Z 56
_cell_length_a 20.698495
_cell_length_b 9.061443
_cell_length_c 14.320482
_cell_angle_alpha 90.000000
_cell_angle_beta 90.000000
_cell_angle_gamma 90.000000
_cell_volume 2685.924294
_symmetry_space_group_name_H-M "I 21 21 21"
_symmetry_group_IT_number 24
_symmetry_cell_setting 'orthorhombic'
loop_
_space_group_symop_operation_xyz
x,y,z
-x,1/2-y,z
x,-y,1/2-z
1/2-x,y,-z
1/2+x,1/2+y,1/2+z
1/2-x,-y,1/2+z
1/2+x,1/2-y,-z
-x,1/2+y,1/2-z
loop_
_atom_site_type_symbol
_atom_site_label
_atom_site_fract_x
_atom_site_fract_y
_atom_site_fract_z
Si Si1 0.750000 0.972086 0.000000
Si Si2 0.844363 0.729250 0.932209
Si Si3 0.666538 0.937677 0.665624
Si Si4 0.028843 0.914128 0.487829
Si Si5 0.147297 0.897403 0.344065
Si Si6 0.950854 0.611445 0.833781
Si Si7 0.750000 0.518465 0.500000
Si Si8 0.562000 0.153633 0.592818
O O1 0.795583 0.061753 0.068437
O O2 0.703787 0.866902 0.061600
O O3 0.882892 0.698341 0.837598
O O4 0.801989 0.587142 0.951979
O O5 0.895401 0.755024 0.017848
O O6 0.643766 0.773072 0.684083
O O7 0.709702 0.000000 0.750000
O O8 0.611483 0.065088 0.658332
O O9 0.083093 0.922997 0.406868
O O10 0.000000 0.750000 0.500699
O O11 0.053402 0.995310 0.580574
O O12 0.969797 0.017692 0.460413
O O13 0.150323 0.000000 0.250000
O O14 0.208852 0.910552 0.414668
O O15 0.964878 0.500000 0.750000
O O16 0.000000 0.750000 0.843692
O O17 0.500000 0.250000 0.628372
#
# Coordination Sequence:
#
# PCOD9334625 Si02
#       8
#     4   8   8   8   8   8   4   8
#     4   9  23  44  72  90 136 182 234 272 344 408
#     4  10  20  40  72  98 127 182 226 277 345 399
#     4  11  26  45  66 102 139 178 230 286 339 411
#     4  12  23  46  69 101 141 182 225 287 356 414
#     4  12  28  45  71 106 142 179 239 291 343 421
#     4  12  24  44  70 104 139 180 232 288 347 419
#     4  11  23  46  72  98 138 184 232 284 344 408
#     4  11  20  41  73  94 137 181 221 275 354 408
#
# _framework density 20.849433999999999
#
# number of rings (size 3 to 8) (size 9 to 14) (size 15 to 20)
#    0.000    0.857    5.714    0.857    8.000    1.143 
#    0.000    0.714    0.000    0.000    0.000    0.000 
#    0.000    0.000    0.000    0.000    0.000    0.000 
#
# Total GULP energy -155977.097242 kJ/mol
# GULP energy per Si atom -5570.610616 kJ/mol
# Density = 2.080198 g / cm^3
# Si number density = 20.849434 Si / 1000 Ang^3
#
#
#
# Elastic Constant Matrix: (Units=GPa)
#
#
# Indices 1 2 3 4 5 6 
#
# 1 94.4716 29.3407 5.3713 0.0000 0.0000 0.0000
# 2 29.3407 121.6032 13.3495 0.0000 0.0000 0.0000
# 3 5.3713 13.3495 45.9556 0.0000 0.0000 0.0000
# 4 0.0000 0.0000 0.0000 40.3495 0.0000 0.0000
# 5 0.0000 0.0000 0.0000 0.0000 8.6448 0.0000
# 6 0.0000 0.0000 0.0000 0.0000 0.0000 16.5588
#
#
#
# Elastic Compliance Matrix: (Units=1/GPa)
#
#
# Indices 1 2 3 4 5 6 
#
# 1 0.011456 -0.002703 -0.000554 0.000000 0.000000 0.000000
# 2 -0.002703 0.009132 -0.002337 0.000000 0.000000 0.000000
# 3 -0.000554 -0.002337 0.022504 0.000000 0.000000 0.000000
# 4 0.000000 0.000000 0.000000 0.024783 0.000000 0.000000
# 5 0.000000 0.000000 0.000000 0.000000 0.115676 0.000000
# 6 0.000000 0.000000 0.000000 0.000000 0.000000 0.060391
#
#
# Mechanical properties :
#
#
# Convention : Reuss Voigt Hill
#
# Bulk Modulus (GPa) = 31.34367 39.79479 35.56923
# Shear Modulus (GPa) = 18.81360 27.37522 23.09441
#
# Velocity S-wave (km/s) = 3.00718 3.62746 3.33179
# Velocity P-wave (km/s) = 5.20802 6.05581 5.64784
#
# Compressibility (1/GPa) = 0.03190437
#
# Stress axis : x y z
#
# Youngs Moduli (GPa) = 87.28828 109.50160 44.43718
#
# Poissons Ratio (x) = 0.29603 0.02461
# Poissons Ratio (y) = 0.23598 0.10384
# Poissons Ratio (z) = 0.04833 0.25589
#
# Static dielectric constant tensor:
#      x y z
#    x 1.740980 0.000000 0.000000 
#    y 0.000000 1.791420 0.000000 
#    z 0.000000 0.000000 2.155960 
# 
# From -- ./inp_files/13193.got.cif
#   From: 2010.05.17/outbox.cif.g08.bks.cpg/sg24_7_cif.got.tgz:13193.got - 2010.06.04 00:33:39.
