data_PCOD9334495
_publ_section_title
;
Structure prediction by ZEFSAII (Michael W. Deem and Ramdas Pophale) SiO2 
 PCOD9334495
Probable space group: I 21 21 21
;
_chemical_formula_sum "Si O2"
_cell_formula_units_Z 64
_cell_length_a 8.526758
_cell_length_b 24.910913
_cell_length_c 15.016131
_cell_angle_alpha 90.000000
_cell_angle_beta 90.000000
_cell_angle_gamma 90.000000
_cell_volume 3189.566275
_symmetry_space_group_name_H-M "I 21 21 21"
_symmetry_group_IT_number 24
_symmetry_cell_setting 'orthorhombic'
loop_
_space_group_symop_operation_xyz
x,y,z
-x,1/2-y,z
x,-y,1/2-z
1/2-x,y,-z
1/2+x,1/2+y,1/2+z
1/2-x,-y,1/2+z
1/2+x,1/2-y,-z
-x,1/2+y,1/2-z
loop_
_atom_site_type_symbol
_atom_site_label
_atom_site_fract_x
_atom_site_fract_y
_atom_site_fract_z
Si Si1 0.426615 0.390442 0.994081
Si Si2 0.149637 0.955651 0.362391
Si Si3 0.322759 0.269920 0.402626
Si Si4 0.736650 0.329353 0.711766
Si Si5 0.748680 0.875801 0.197917
Si Si6 0.443539 0.928544 0.835051
Si Si7 0.535847 0.812667 0.659871
Si Si8 0.530109 0.397440 0.190537
O O1 0.559977 0.425496 0.942854
O O2 0.421339 0.336982 0.934902
O O3 0.250000 0.414556 0.000000
O O4 0.475322 0.378635 0.094266
O O5 0.057534 0.942197 0.270989
O O6 0.327498 0.938560 0.333892
O O7 0.129010 0.018929 0.379562
O O8 0.500000 0.250000 0.405275
O O9 0.250000 0.265457 0.500000
O O10 0.236671 0.227871 0.335737
O O11 0.315074 0.330961 0.369336
O O12 0.664513 0.376200 0.650011
O O13 0.628439 0.332035 0.799138
O O14 0.900659 0.349217 0.749878
O O15 0.837953 0.838229 0.271759
O O16 0.621714 0.912260 0.250206
O O17 0.878237 0.911727 0.147799
O O18 0.500000 0.750000 0.656098
#
# Coordination Sequence:
#
# PCOD9334495 Si02
#       8
#     8   8   8   8   8   8   8   8
#     4  12  22  39  59  94 137 173 222 261 318 384
#     4  10  20  39  64  91 123 176 224 268 326 388
#     4  12  27  42  69  97 128 170 217 277 344 403
#     4  10  21  41  65  91 128 166 219 259 328 400
#     4  11  21  42  68  95 130 166 220 272 326 404
#     4   9  20  39  66  89 122 165 222 266 330 384
#     4  11  21  38  62  91 130 181 210 256 319 377
#     4  11  21  39  64  94 134 174 212 273 318 392
#
# _framework density 20.065424
#
# number of rings (size 3 to 8) (size 9 to 14) (size 15 to 20)
#    0.000    1.250    7.500    0.375    3.500    0.000 
#    4.500   11.875    0.000    0.000    0.000    0.000 
#    0.000    0.000    0.000    0.000    0.000    0.000 
#
# Total GULP energy -178224.119596 kJ/mol
# GULP energy per Si atom -5569.503737 kJ/mol
# Density = 2.001975 g / cm^3
# Si number density = 20.065424 Si / 1000 Ang^3
#
#
#
# Elastic Constant Matrix: (Units=GPa)
#
#
# Indices 1 2 3 4 5 6 
#
# 1 90.7261 21.6046 23.3652 0.0000 0.0000 0.0000
# 2 21.6046 90.3023 -1.9263 0.0000 0.0000 0.0000
# 3 23.3652 -1.9263 49.5804 -0.0001 0.0000 0.0000
# 4 0.0000 0.0000 -0.0001 4.3305 0.0000 0.0000
# 5 0.0000 0.0000 0.0000 0.0000 23.7877 0.0000
# 6 0.0000 0.0000 0.0000 0.0000 0.0000 16.0455
#
#
#
# Elastic Compliance Matrix: (Units=1/GPa)
#
#
# Indices 1 2 3 4 5 6 
#
# 1 0.013496 -0.003367 -0.006491 0.000000 0.000000 0.000000
# 2 -0.003367 0.011923 0.002050 0.000000 0.000000 0.000000
# 3 -0.006491 0.002050 0.023308 0.000000 0.000000 0.000000
# 4 0.000000 0.000000 0.000000 0.230922 0.000000 0.000000
# 5 0.000000 0.000000 0.000000 0.000000 0.042038 0.000000
# 6 0.000000 0.000000 0.000000 0.000000 0.000000 0.062323
#
#
# Mechanical properties :
#
#
# Convention : Reuss Voigt Hill
#
# Bulk Modulus (GPa) = 30.20166 35.18843 32.69505
# Shear Modulus (GPa) = 12.17545 21.33709 16.75627
#
# Velocity S-wave (km/s) = 2.46598 3.26448 2.89291
# Velocity P-wave (km/s) = 4.81584 5.63773 5.24292
#
# Compressibility (1/GPa) = 0.03311076
#
# Stress axis : x y z
#
# Youngs Moduli (GPa) = 74.09810 83.86970 42.90425
#
# Poissons Ratio (x) = 0.28241 0.27848
# Poissons Ratio (y) = 0.24951 -0.08796
# Poissons Ratio (z) = 0.48095 -0.17194
#
# Static dielectric constant tensor:
#      x y z
#    x 1.793360 0.000000 0.000000 
#    y 0.000000 1.786570 0.000000 
#    z 0.000000 0.000000 1.681870 
# 
# From -- ./inp_files/25230.got.cif
#   From: 2010.05.17/outbox.cif.g08.bks.cpg/sg24_13_cif.got.tgz:25230.got - 2010.06.04 00:33:39.
