data_PCOD9334918
_publ_section_title
;
Structure prediction by ZEFSAII (Michael W. Deem and Ramdas Pophale) SiO2 
 PCOD9334918
Probable space group: I 21 21 21
;
_chemical_formula_sum "Si O2"
_cell_formula_units_Z 28
_cell_length_a 20.130339
_cell_length_b 11.731603
_cell_length_c 5.141742
_cell_angle_alpha 90.000000
_cell_angle_beta 90.000000
_cell_angle_gamma 90.000000
_cell_volume 1214.279680
_symmetry_space_group_name_H-M "I 21 21 21"
_symmetry_group_IT_number 24
_symmetry_cell_setting 'orthorhombic'
loop_
_space_group_symop_operation_xyz
x,y,z
-x,1/2-y,z
x,-y,1/2-z
1/2-x,y,-z
1/2+x,1/2+y,1/2+z
1/2-x,-y,1/2+z
1/2+x,1/2-y,-z
-x,1/2+y,1/2-z
loop_
_atom_site_type_symbol
_atom_site_label
_atom_site_fract_x
_atom_site_fract_y
_atom_site_fract_z
Si Si1 0.250000 0.064370 0.000000
Si Si2 0.465968 0.127155 0.726024
Si Si3 0.383151 0.170942 0.235327
Si Si4 0.294346 0.634872 0.247511
O O1 0.311869 0.125434 0.139330
O O2 0.220138 0.000000 0.250000
O O3 0.500000 0.250000 0.658293
O O4 0.410449 0.117364 0.499479
O O5 0.499436 0.000000 0.750000
O O6 0.434483 0.150173 0.006749
O O7 0.364958 0.303587 0.268145
O O8 0.304053 0.500000 0.250000
O O9 0.250000 0.661932 0.500000
O O10 0.250000 0.668555 0.000000
#
# Coordination Sequence:
#
# PCOD9334918 Si02
#       4
#     4   8   8   8
#     4  12  24  38  66 104 142 174 210 274 362 436
#     4  12  28  49  71  99 137 185 246 296 343 410
#     4  12  24  43  71 102 139 179 228 284 357 415
#     4  10  21  38  61  96 140 180 221 265 330 420
#
# _framework density 23.058938999999999
#
# number of rings (size 3 to 8) (size 9 to 14) (size 15 to 20)
#    0.000    0.571    1.429    7.714    2.000    2.286 
#    0.000    0.000    0.000    0.000    0.000    0.000 
#    0.000    0.000    0.000    0.000    0.000    0.000 
#
# Total GULP energy -78178.309320 kJ/mol
# GULP energy per Si atom -5584.164951 kJ/mol
# Density = 2.300646 g / cm^3
# Si number density = 23.058939 Si / 1000 Ang^3
#
#
#
# Elastic Constant Matrix: (Units=GPa)
#
#
# Indices 1 2 3 4 5 6 
#
# 1 34.2809 45.4268 -2.0710 0.0000 0.0000 0.0000
# 2 45.4268 132.8511 32.9457 0.0000 0.0000 0.0000
# 3 -2.0710 32.9457 133.6666 0.0000 0.0000 0.0000
# 4 0.0000 0.0000 0.0000 187.4885 0.0000 0.0000
# 5 0.0000 0.0000 0.0000 0.0000 29.9720 0.0000
# 6 0.0000 0.0000 0.0000 0.0000 0.0000 38.2474
#
#
#
# Elastic Compliance Matrix: (Units=1/GPa)
#
#
# Indices 1 2 3 4 5 6 
#
# 1 0.057702 -0.021251 0.006132 0.000000 0.000000 0.000000
# 2 -0.021251 0.015844 -0.004234 0.000000 0.000000 0.000000
# 3 0.006132 -0.004234 0.008620 0.000000 0.000000 0.000000
# 4 0.000000 0.000000 0.000000 0.005334 0.000000 0.000000
# 5 0.000000 0.000000 0.000000 0.000000 0.033364 0.000000
# 6 0.000000 0.000000 0.000000 0.000000 0.000000 0.026146
#
#
# Mechanical properties :
#
#
# Convention : Reuss Voigt Hill
#
# Bulk Modulus (GPa) = 23.01052 50.37795 36.69423
# Shear Modulus (GPa) = 24.97476 66.10805 45.54141
#
# Velocity S-wave (km/s) = 3.29459 5.36017 4.44892
# Velocity P-wave (km/s) = 4.94703 7.75909 6.50679
#
# Compressibility (1/GPa) = 0.04345839
#
# Stress axis : x y z
#
# Youngs Moduli (GPa) = 17.33056 63.11612 116.00956
#
# Poissons Ratio (x) = 1.34128 -0.71136
# Poissons Ratio (y) = 0.36829 0.49123
# Poissons Ratio (z) = -0.10627 0.26726
#
# Static dielectric constant tensor:
#      x y z
#    x 1.760640 0.000000 0.000000 
#    y 0.000000 2.193210 0.000000 
#    z 0.000000 0.000000 1.823370 
# 
# From -- ./inp_files/1879.got.cif
#   From: 2010.05.17/outbox.cif.g08.bks.cpg/sg24_1_cif.got.tgz:1879.got - 2010.06.04 00:33:39.
