data_PCOD9334629
_publ_section_title
;
Structure prediction by ZEFSAII (Michael W. Deem and Ramdas Pophale) SiO2 
 PCOD9334629
Probable space group: I 21 21 21
;
_chemical_formula_sum "Si O2"
_cell_formula_units_Z 44
_cell_length_a 30.332833
_cell_length_b 8.774689
_cell_length_c 8.034536
_cell_angle_alpha 90.000000
_cell_angle_beta 90.000000
_cell_angle_gamma 90.000000
_cell_volume 2138.481551
_symmetry_space_group_name_H-M "I 21 21 21"
_symmetry_group_IT_number 24
_symmetry_cell_setting 'orthorhombic'
loop_
_space_group_symop_operation_xyz
x,y,z
-x,1/2-y,z
x,-y,1/2-z
1/2-x,y,-z
1/2+x,1/2+y,1/2+z
1/2-x,-y,1/2+z
1/2+x,1/2-y,-z
-x,1/2+y,1/2-z
loop_
_atom_site_type_symbol
_atom_site_label
_atom_site_fract_x
_atom_site_fract_y
_atom_site_fract_z
Si Si1 0.701027 0.720207 0.054557
Si Si2 0.063089 0.268322 0.665841
Si Si3 0.496521 0.000000 0.250000
Si Si4 0.354198 0.222740 0.128491
Si Si5 0.295973 0.557171 0.560463
Si Si6 0.117121 0.931069 0.072780
O O1 0.684344 0.682332 0.239674
O O2 0.750000 0.671275 0.000000
O O3 0.663944 0.656890 0.929257
O O4 0.699886 0.903270 0.046363
O O5 0.036146 0.143063 0.777067
O O6 0.107320 0.305456 0.767353
O O7 0.080081 0.179315 0.503384
O O8 0.031706 0.412594 0.630306
O O9 0.334733 0.328240 0.984431
O O10 0.374393 0.070151 0.052969
O O11 0.294429 0.500000 0.750000
O O12 0.250000 0.629783 0.500000
O O13 0.105883 0.000000 0.250000
#
# Coordination Sequence:
#
# PCOD9334629 Si02
#       6
#     8   8   4   8   8   8
#     4  10  21  37  58  88 122 170 220 257 300 366
#     4  10  21  40  68  97 119 162 208 259 315 388
#     4  10  20  40  74  92 118 156 214 256 318 392
#     4  11  22  39  61  90 126 164 212 258 308 375
#     4  11  22  37  57  88 126 170 216 260 306 363
#     4  11  23  39  60  91 135 166 203 264 318 376
#
# _framework density 20.575348000000002
#
# number of rings (size 3 to 8) (size 9 to 14) (size 15 to 20)
#    0.000    1.455    1.818    5.455    5.091    2.182 
#    0.000    0.000    8.000    0.000    0.000    0.000 
#    0.000    0.000    0.000    0.000    0.000    0.000 
#
# Total GULP energy -122654.070257 kJ/mol
# GULP energy per Si atom -5575.185012 kJ/mol
# Density = 2.052852 g / cm^3
# Si number density = 20.575348 Si / 1000 Ang^3
#
#
#
# Elastic Constant Matrix: (Units=GPa)
#
#
# Indices 1 2 3 4 5 6 
#
# 1 130.6566 31.8955 40.4393 0.0000 0.0000 0.0000
# 2 31.8955 45.8721 21.0766 0.0000 0.0000 0.0000
# 3 40.4393 21.0766 107.5674 0.0000 0.0000 0.0000
# 4 0.0000 0.0000 0.0000 22.3399 0.0000 0.0000
# 5 0.0000 0.0000 0.0000 0.0000 3.5497 0.0000
# 6 0.0000 0.0000 0.0000 0.0000 0.0000 45.4087
#
#
#
# Elastic Compliance Matrix: (Units=1/GPa)
#
#
# Indices 1 2 3 4 5 6 
#
# 1 0.009834 -0.005648 -0.002590 0.000000 0.000000 0.000000
# 2 -0.005648 0.027200 -0.003206 0.000000 0.000000 0.000000
# 3 -0.002590 -0.003206 0.010899 0.000000 0.000000 0.000000
# 4 0.000000 0.000000 0.000000 0.044763 0.000000 0.000000
# 5 0.000000 0.000000 0.000000 0.000000 0.281710 0.000000
# 6 0.000000 0.000000 0.000000 0.000000 0.000000 0.022022
#
#
# Mechanical properties :
#
#
# Convention : Reuss Voigt Hill
#
# Bulk Modulus (GPa) = 39.93014 52.32431 46.12722
# Shear Modulus (GPa) = 11.69141 26.97201 19.33171
#
# Velocity S-wave (km/s) = 2.38633 3.62455 3.06854
# Velocity P-wave (km/s) = 5.20016 6.55761 5.91794
#
# Compressibility (1/GPa) = 0.02504374
#
# Stress axis : x y z
#
# Youngs Moduli (GPa) = 101.68718 36.76512 91.75480
#
# Poissons Ratio (x) = 0.20763 0.23769
# Poissons Ratio (y) = 0.57428 0.29419
# Poissons Ratio (z) = 0.26342 0.11788
#
# Static dielectric constant tensor:
#      x y z
#    x 1.803790 0.000000 0.000000 
#    y 0.000000 1.770070 0.000000 
#    z 0.000000 0.000000 1.742430 
# 
# From -- ./inp_files/16718.got.cif
#   From: 2010.05.17/outbox.cif.g08.bks.cpg/sg24_9_cif.got.tgz:16718.got - 2010.06.04 00:33:39.
