data_PCOD9334755
_publ_section_title
;
Structure prediction by ZEFSAII (Michael W. Deem and Ramdas Pophale) SiO2 
 PCOD9334755
Probable space group: I 21 21 21
;
_chemical_formula_sum "Si O2"
_cell_formula_units_Z 48
_cell_length_a 7.505839
_cell_length_b 15.793031
_cell_length_c 22.361424
_cell_angle_alpha 90.000000
_cell_angle_beta 90.000000
_cell_angle_gamma 90.000000
_cell_volume 2650.722038
_symmetry_space_group_name_H-M "I 21 21 21"
_symmetry_group_IT_number 24
_symmetry_cell_setting 'orthorhombic'
loop_
_space_group_symop_operation_xyz
x,y,z
-x,1/2-y,z
x,-y,1/2-z
1/2-x,y,-z
1/2+x,1/2+y,1/2+z
1/2-x,-y,1/2+z
1/2+x,1/2-y,-z
-x,1/2+y,1/2-z
loop_
_atom_site_type_symbol
_atom_site_label
_atom_site_fract_x
_atom_site_fract_y
_atom_site_fract_z
Si Si1 0.052002 0.154024 0.478620
Si Si2 0.250000 0.524843 0.000000
Si Si3 0.423274 0.100613 0.657937
Si Si4 0.649317 0.808211 0.300548
Si Si5 0.000000 0.750000 0.246499
Si Si6 0.023346 0.075634 0.702110
Si Si7 0.224996 0.523201 0.366726
O O1 0.250000 0.137129 0.500000
O O2 0.045063 0.140142 0.407403
O O3 0.000000 0.250000 0.493715
O O4 0.917382 0.087461 0.507350
O O5 0.222695 0.474299 0.061419
O O6 0.500046 0.166011 0.706139
O O7 0.213520 0.091456 0.671391
O O8 0.536881 0.013567 0.657717
O O9 0.500000 0.750000 0.331019
O O10 0.819997 0.752429 0.284192
O O11 0.555478 0.846615 0.240716
O O12 0.719324 0.887817 0.338326
O O13 0.048611 0.000000 0.750000
O O14 0.874174 0.043911 0.655603
#
# Coordination Sequence:
#
# PCOD9334755 Si02
#       7
#     8   4   8   8   4   8   8
#     4  11  21  35  53  82 118 156 197 237 286 352
#     4  10  22  42  60  82 116 160 200 250 292 346
#     4  11  22  35  55  86 121 156 194 239 302 358
#     4  11  23  39  60  90 122 157 200 248 306 355
#     4  12  22  34  56  88 124 154 194 248 296 362
#     4  10  21  35  57  87 119 155 191 242 297 362
#     4  10  23  40  62  86 119 159 201 246 299 360
#
# _framework density 18.108274000000002
#
# number of rings (size 3 to 8) (size 9 to 14) (size 15 to 20)
#    0.000    1.333    5.000    1.000    2.333    0.000 
#    3.000    0.000    1.833    0.000    0.000    0.000 
#    0.000    0.000    0.000    0.000    0.000    0.000 
#
# Total GULP energy -134026.298534 kJ/mol
# GULP energy per Si atom -5584.429106 kJ/mol
# Density = 1.806706 g / cm^3
# Si number density = 18.108274 Si / 1000 Ang^3
#
#
#
# Elastic Constant Matrix: (Units=GPa)
#
#
# Indices 1 2 3 4 5 6 
#
# 1 123.1741 28.0527 14.5412 0.0000 0.0000 0.0000
# 2 28.0527 75.7543 27.0937 0.0000 0.0000 0.0000
# 3 14.5412 27.0937 59.8519 0.0000 0.0000 0.0000
# 4 0.0000 0.0000 0.0000 6.5744 0.0000 0.0000
# 5 0.0000 0.0000 0.0000 0.0000 25.7995 0.0000
# 6 0.0000 0.0000 0.0000 0.0000 0.0000 25.3982
#
#
#
# Elastic Compliance Matrix: (Units=1/GPa)
#
#
# Indices 1 2 3 4 5 6 
#
# 1 0.008898 -0.003009 -0.000800 0.000000 0.000000 0.000000
# 2 -0.003009 0.016768 -0.006860 0.000000 0.000000 0.000000
# 3 -0.000800 -0.006860 0.020007 0.000000 0.000000 0.000000
# 4 0.000000 0.000000 0.000000 0.152105 0.000000 0.000000
# 5 0.000000 0.000000 0.000000 0.000000 0.038760 0.000000
# 6 0.000000 0.000000 0.000000 0.000000 0.000000 0.039373
#
#
# Mechanical properties :
#
#
# Convention : Reuss Voigt Hill
#
# Bulk Modulus (GPa) = 41.08946 44.23951 42.66449
# Shear Modulus (GPa) = 16.37404 24.16062 20.26733
#
# Velocity S-wave (km/s) = 3.01030 3.65668 3.34912
# Velocity P-wave (km/s) = 5.90109 6.50476 6.21026
#
# Compressibility (1/GPa) = 0.02433714
#
# Stress axis : x y z
#
# Youngs Moduli (GPa) = 112.38075 59.63667 49.98163
#
# Poissons Ratio (x) = 0.17945 0.03997
# Poissons Ratio (y) = 0.33817 0.34285
# Poissons Ratio (z) = 0.08987 0.40908
#
# Static dielectric constant tensor:
#      x y z
#    x 1.621270 0.000000 0.000000 
#    y 0.000000 1.611920 0.000000 
#    z 0.000000 0.000000 1.621670 
# 
# From -- ./inp_files/31536.got.cif
#   From: 2010.05.17/outbox.cif.g08.bks.cpg/sg24_16_cif.got.tgz:31536.got - 2010.06.04 00:33:39.
