data_PCOD9334966
_publ_section_title
;
Structure prediction by ZEFSAII (Michael W. Deem and Ramdas Pophale) SiO2 
 PCOD9334966
Probable space group: I 21 21 21
;
_chemical_formula_sum "Si O2"
_cell_formula_units_Z 64
_cell_length_a 33.287884
_cell_length_b 10.694366
_cell_length_c 8.859492
_cell_angle_alpha 90.000000
_cell_angle_beta 90.000000
_cell_angle_gamma 90.000000
_cell_volume 3153.915495
_symmetry_space_group_name_H-M "I 21 21 21"
_symmetry_group_IT_number 24
_symmetry_cell_setting 'orthorhombic'
loop_
_space_group_symop_operation_xyz
x,y,z
-x,1/2-y,z
x,-y,1/2-z
1/2-x,y,-z
1/2+x,1/2+y,1/2+z
1/2-x,-y,1/2+z
1/2+x,1/2-y,-z
-x,1/2+y,1/2-z
loop_
_atom_site_type_symbol
_atom_site_label
_atom_site_fract_x
_atom_site_fract_y
_atom_site_fract_z
Si Si1 0.968857 0.362416 0.206544
Si Si2 0.084828 0.753508 0.532075
Si Si3 0.229329 0.634789 0.336731
Si Si4 0.770671 0.365212 0.663269
Si Si5 0.361731 0.143495 0.284260
Si Si6 0.138270 0.356505 0.215741
Si Si7 0.968857 0.137584 0.706545
Si Si8 0.415172 0.746491 0.967925
O O1 0.985145 0.500000 0.250000
O O2 0.944156 0.317483 0.353123
O O3 0.000000 0.250000 0.176534
O O4 0.939547 0.360879 0.059605
O O5 0.123212 0.793649 0.630380
O O6 0.103008 0.668011 0.402296
O O7 0.055844 0.682516 0.646877
O O8 0.232391 0.500000 0.250000
O O9 0.250000 0.620979 0.500000
O O10 0.250000 0.750000 0.250000
O O11 0.182434 0.675408 0.344406
O O12 0.767609 0.500000 0.750000
O O13 0.750000 0.379021 0.500000
O O14 0.817566 0.324593 0.655592
O O15 0.396993 0.168011 0.402296
O O16 0.359755 0.000000 0.250000
O O17 0.140246 0.500000 0.250000
O O18 0.123212 0.293649 0.369621
O O19 0.939547 0.139121 0.559605
O O20 0.000000 0.250000 0.676535
O O21 0.985145 0.000000 0.750000
#
# Coordination Sequence:
#
# PCOD9334966 Si02
#       8
#     8   8   8   8   8   8   8   8
#     4  11  24  40  61  89 120 157 199 248 304 362
#     4  10  22  39  61  86 118 155 201 250 299 357
#     4  11  23  40  63  93 128 166 209 258 313 372
#     4  11  23  40  63  93 128 166 209 258 313 372
#     4  10  21  39  61  86 118 158 201 247 299 357
#     4  10  21  39  61  86 118 158 201 247 299 357
#     4  11  24  40  61  89 120 157 199 248 304 362
#     4  10  22  39  61  86 118 155 201 250 299 357
#
# _framework density 20.292238000000001
#
# number of rings (size 3 to 8) (size 9 to 14) (size 15 to 20)
#    0.000    1.500    0.000    4.500    0.000   10.000 
#    0.000    6.250    0.000    0.000    0.000    0.000 
#    0.000    0.000    0.000    0.000    0.000    0.000 
#
# Total GULP energy -178487.140371 kJ/mol
# GULP energy per Si atom -5577.723137 kJ/mol
# Density = 2.024605 g / cm^3
# Si number density = 20.292238 Si / 1000 Ang^3
#
#
#
# Elastic Constant Matrix: (Units=GPa)
#
#
# Indices 1 2 3 4 5 6 
#
# 1 93.0360 31.2217 33.2958 0.0000 0.0000 0.0000
# 2 31.2217 81.3231 25.1190 0.0000 0.0000 0.0000
# 3 33.2958 25.1190 122.1142 0.0000 0.0000 0.0000
# 4 0.0000 0.0000 0.0000 18.7504 0.0000 0.0000
# 5 0.0000 0.0000 0.0000 0.0000 34.7977 0.0000
# 6 0.0000 0.0000 0.0000 0.0000 0.0000 64.1744
#
#
#
# Elastic Compliance Matrix: (Units=1/GPa)
#
#
# Indices 1 2 3 4 5 6 
#
# 1 0.013131 -0.004202 -0.002716 0.000000 0.000000 0.000000
# 2 -0.004202 0.014476 -0.001832 0.000000 0.000000 0.000000
# 3 -0.002716 -0.001832 0.009306 0.000000 0.000000 0.000000
# 4 0.000000 0.000000 0.000000 0.053332 0.000000 0.000000
# 5 0.000000 0.000000 0.000000 0.000000 0.028737 0.000000
# 6 0.000000 0.000000 0.000000 0.000000 0.000000 0.015583
#
#
# Mechanical properties :
#
#
# Convention : Reuss Voigt Hill
#
# Bulk Modulus (GPa) = 51.51216 52.86069 52.18643
# Shear Modulus (GPa) = 31.53859 37.33363 34.43611
#
# Velocity S-wave (km/s) = 3.94664 4.29394 4.12395
# Velocity P-wave (km/s) = 6.79766 7.11970 6.96054
#
# Compressibility (1/GPa) = 0.01941289
#
# Stress axis : x y z
#
# Youngs Moduli (GPa) = 76.15738 69.08073 107.45328
#
# Poissons Ratio (x) = 0.29030 0.29182
# Poissons Ratio (y) = 0.32004 0.19684
# Poissons Ratio (z) = 0.20683 0.12655
#
# Static dielectric constant tensor:
#      x y z
#    x 1.796380 0.000000 0.000000 
#    y 0.000000 1.703780 0.000000 
#    z 0.000000 0.000000 1.719440 
# 
# From -- ./inp_files/16997.got.cif
#   From: 2010.05.17/outbox.cif.g08.bks.cpg/sg24_9_cif.got.tgz:16997.got - 2010.06.04 00:33:39.
