data_PCOD9334498
_publ_section_title
;
Structure prediction by ZEFSAII (Michael W. Deem and Ramdas Pophale) SiO2 
 PCOD9334498
Probable space group: I 21 21 21
;
_chemical_formula_sum "Si O2"
_cell_formula_units_Z 52
_cell_length_a 16.949157
_cell_length_b 8.019494
_cell_length_c 19.631264
_cell_angle_alpha 90.000000
_cell_angle_beta 90.000000
_cell_angle_gamma 90.000000
_cell_volume 2668.353310
_symmetry_space_group_name_H-M "I 21 21 21"
_symmetry_group_IT_number 24
_symmetry_cell_setting 'orthorhombic'
loop_
_space_group_symop_operation_xyz
x,y,z
-x,1/2-y,z
x,-y,1/2-z
1/2-x,y,-z
1/2+x,1/2+y,1/2+z
1/2-x,-y,1/2+z
1/2+x,1/2-y,-z
-x,1/2+y,1/2-z
loop_
_atom_site_type_symbol
_atom_site_label
_atom_site_fract_x
_atom_site_fract_y
_atom_site_fract_z
Si Si1 0.000000 0.750000 0.510207
Si Si2 0.250000 0.030502 0.000000
Si Si3 0.936707 0.393335 0.682223
Si Si4 0.192493 0.304534 0.756699
Si Si5 0.403093 0.982589 0.587590
Si Si6 0.000000 0.750000 0.177714
Si Si7 0.869486 0.690637 0.276186
Si Si8 0.627766 0.685576 0.399590
O O1 0.961293 0.605647 0.465576
O O2 0.928935 0.806779 0.558892
O O3 0.323214 0.955186 0.952877
O O4 0.201405 0.137027 0.945554
O O5 0.960134 0.500000 0.750000
O O6 0.854311 0.302806 0.700861
O O7 0.921121 0.519352 0.620728
O O8 0.000000 0.250000 0.669565
O O9 0.182425 0.500000 0.750000
O O10 0.283415 0.255792 0.758823
O O11 0.154873 0.256192 0.828448
O O12 0.381584 0.837365 0.643050
O O13 0.453847 0.120993 0.628489
O O14 0.067940 0.701217 0.232921
O O15 0.876179 0.500000 0.250000
#
# Coordination Sequence:
#
# PCOD9334498 Si02
#       8
#     4   4   8   8   8   4   8   8
#     4  10  23  38  62  86 119 174 202 256 294 392
#     4  10  20  42  66  80 120 186 202 244 302 404
#     4  10  22  37  62  90 121 158 198 260 315 370
#     4  11  23  36  62  93 123 154 203 265 316 372
#     4  10  21  41  66  90 128 165 223 249 326 381
#     4  10  23  38  68  98 123 160 212 286 312 372
#     4  10  20  39  65  92 125 161 201 264 329 374
#     4  10  22  41  63  85 122 163 213 243 315 379
#
# _framework density 19.487673999999998
#
# number of rings (size 3 to 8) (size 9 to 14) (size 15 to 20)
#    0.000    1.846    1.538    2.308    8.615    3.077 
#    5.538    0.000    0.000    0.923    0.000    0.000 
#    0.000    0.000    0.000    0.000    0.000    0.000 
#
# Total GULP energy -144842.658925 kJ/mol
# GULP energy per Si atom -5570.871497 kJ/mol
# Density = 1.944332 g / cm^3
# Si number density = 19.487674 Si / 1000 Ang^3
#
#
#
# Elastic Constant Matrix: (Units=GPa)
#
#
# Indices 1 2 3 4 5 6 
#
# 1 151.7673 46.0357 59.5896 0.0000 0.0000 0.0000
# 2 46.0357 66.8036 26.2175 0.0000 0.0000 0.0000
# 3 59.5896 26.2175 93.7789 0.0000 0.0000 0.0000
# 4 0.0000 0.0000 0.0000 -5.9338 0.0000 0.0000
# 5 0.0000 0.0000 0.0000 0.0000 36.1031 0.0000
# 6 0.0000 0.0000 0.0000 0.0000 0.0000 58.5532
#
#
#
# Elastic Compliance Matrix: (Units=1/GPa)
#
#
# Indices 1 2 3 4 5 6 
#
# 1 0.010061 -0.004970 -0.005004 0.000000 0.000000 0.000000
# 2 -0.004970 0.019269 -0.002229 0.000000 0.000000 0.000000
# 3 -0.005004 -0.002229 0.014466 0.000000 0.000000 0.000000
# 4 0.000000 0.000000 0.000000 -0.168525 0.000000 0.000000
# 5 0.000000 0.000000 0.000000 0.000000 0.027698 0.000000
# 6 0.000000 0.000000 0.000000 0.000000 0.000000 0.017078
#
#
# Mechanical properties :
#
#
# Convention : Reuss Voigt Hill
#
# Bulk Modulus (GPa) = 51.57022 64.00393 57.78707
# Shear Modulus (GPa) = -101.86719 29.77829 -36.04445
#
# Velocity S-wave (km/s) = -7.23782 3.91328 -4.30537
# Velocity P-wave (km/s) = 6.58238 7.30294 2.23665
#
# Compressibility (1/GPa) = 0.01939104
#
# Stress axis : x y z
#
# Youngs Moduli (GPa) = 99.39246 51.89766 69.12716
#
# Poissons Ratio (x) = 0.25791 0.34590
# Poissons Ratio (y) = 0.49394 0.15409
# Poissons Ratio (z) = 0.49734 0.11569
#
# Static dielectric constant tensor:
#      x y z
#    x 1.813020 0.000000 0.000000 
#    y 0.000000 1.682890 0.000000 
#    z 0.000000 0.000000 1.714510 
# 
# From -- ./inp_files/33733.got.cif
#   From: 2010.05.17/outbox.cif.g08.bks.cpg/sg24_17_cif.got.tgz:33733.got - 2010.06.04 00:33:39.
