data_PCOD9334955
_publ_section_title
;
Structure prediction by ZEFSAII (Michael W. Deem and Ramdas Pophale) SiO2 
 PCOD9334955
Probable space group: I 21 21 21
;
_chemical_formula_sum "Si O2"
_cell_formula_units_Z 48
_cell_length_a 12.438274
_cell_length_b 18.890401
_cell_length_c 7.464142
_cell_angle_alpha 90.000000
_cell_angle_beta 90.000000
_cell_angle_gamma 90.000000
_cell_volume 1753.804539
_symmetry_space_group_name_H-M "I 21 21 21"
_symmetry_group_IT_number 24
_symmetry_cell_setting 'orthorhombic'
loop_
_space_group_symop_operation_xyz
x,y,z
-x,1/2-y,z
x,-y,1/2-z
1/2-x,y,-z
1/2+x,1/2+y,1/2+z
1/2-x,-y,1/2+z
1/2+x,1/2-y,-z
-x,1/2+y,1/2-z
loop_
_atom_site_type_symbol
_atom_site_label
_atom_site_fract_x
_atom_site_fract_y
_atom_site_fract_z
Si Si1 0.249055 0.000000 0.250000
Si Si2 0.873054 0.971141 0.011764
Si Si3 0.261134 0.265130 0.275468
Si Si4 0.865740 0.373082 0.184321
Si Si5 0.426499 0.896824 0.094654
Si Si6 0.901815 0.882115 0.371237
Si Si7 0.000000 0.250000 0.757556
O O1 0.170405 0.048141 0.124580
O O2 0.328803 0.060893 0.318035
O O3 0.870958 0.056178 0.991512
O O4 0.909291 0.933932 0.197270
O O5 0.750000 0.947446 0.000000
O O6 0.963740 0.939687 0.885309
O O7 0.250000 0.265650 0.500000
O O8 0.218247 0.190638 0.194794
O O9 0.179794 0.322974 0.194668
O O10 0.379929 0.280062 0.192516
O O11 0.891683 0.386605 0.390963
O O12 0.977996 0.352575 0.089650
O O13 0.451387 0.818042 0.157299
#
# Coordination Sequence:
#
# PCOD9334955 Si02
#       7
#     4   8   8   8   8   8   4
#     4  12  22  38  60  98 130 168 212 264 328 384
#     4  10  21  39  59  87 123 169 208 258 312 381
#     4  12  21  36  61  95 127 157 204 269 324 369
#     4  11  21  39  61  93 127 167 211 255 323 383
#     4  11  23  38  62  95 133 167 207 269 322 382
#     4  10  22  37  62  89 123 171 210 251 318 392
#     4  12  22  36  58 102 132 156 202 272 340 366
#
# _framework density 27.369070000000001
#
# number of rings (size 3 to 8) (size 9 to 14) (size 15 to 20)
#    0.000    1.000    3.333    6.500    0.000    2.667 
#    0.000    0.000    0.000    6.000    0.000    0.000 
#    0.000    0.000    0.000    0.000    0.000    0.000 
#
# Total GULP energy -134078.866164 kJ/mol
# GULP energy per Si atom -5586.619423 kJ/mol
# Density = 2.730678 g / cm^3
# Si number density = 27.369070 Si / 1000 Ang^3
#
#
#
# Elastic Constant Matrix: (Units=GPa)
#
#
# Indices 1 2 3 4 5 6 
#
# 1 223.1372 54.3917 11.7453 0.0000 0.0000 0.0000
# 2 54.3917 193.0306 3.9418 0.0000 0.0000 0.0000
# 3 11.7453 3.9418 79.9789 -0.0001 0.0000 -0.0001
# 4 0.0000 0.0000 -0.0001 15.5407 0.0000 -0.0001
# 5 0.0000 0.0000 0.0000 0.0000 28.6781 0.0000
# 6 0.0000 0.0000 -0.0001 -0.0001 0.0000 97.2556
#
#
#
# Elastic Compliance Matrix: (Units=1/GPa)
#
#
# Indices 1 2 3 4 5 6 
#
# 1 0.004845 -0.001352 -0.000645 0.000000 0.000000 0.000000
# 2 -0.001352 0.005563 -0.000076 0.000000 0.000000 0.000000
# 3 -0.000645 -0.000076 0.012602 0.000000 0.000000 0.000000
# 4 0.000000 0.000000 0.000000 0.064347 0.000000 0.000000
# 5 0.000000 0.000000 0.000000 0.000000 0.034870 0.000000
# 6 0.000000 0.000000 0.000000 0.000000 0.000000 0.010282
#
#
# Mechanical properties :
#
#
# Convention : Reuss Voigt Hill
#
# Bulk Modulus (GPa) = 53.00902 70.70047 61.85474
# Shear Modulus (GPa) = 34.97911 56.69942 45.83927
#
# Velocity S-wave (km/s) = 3.57886 4.55649 4.09694
# Velocity P-wave (km/s) = 6.04053 7.31918 6.71038
#
# Compressibility (1/GPa) = 0.01886472
#
# Stress axis : x y z
#
# Youngs Moduli (GPa) = 206.39541 179.75748 79.35421
#
# Poissons Ratio (x) = 0.24304 0.05117
# Poissons Ratio (y) = 0.27906 0.00600
# Poissons Ratio (z) = 0.13310 0.01359
#
# Static dielectric constant tensor:
#      x y z
#    x 2.191090 0.000000 0.000000 
#    y 0.000000 2.155190 0.000000 
#    z 0.000000 0.000000 2.280680 
# 
# From -- ./inp_files/19734.got.cif
#   From: 2010.05.17/outbox.cif.g08.bks.cpg/sg24_10_cif.got.tgz:19734.got - 2010.06.04 00:33:39.
