data_PCOD9334785
_publ_section_title
;
Structure prediction by ZEFSAII (Michael W. Deem and Ramdas Pophale) SiO2 
 PCOD9334785
Probable space group: I 21 21 21
;
_chemical_formula_sum "Si O2"
_cell_formula_units_Z 64
_cell_length_a 5.325331
_cell_length_b 32.245471
_cell_length_c 18.004262
_cell_angle_alpha 90.000000
_cell_angle_beta 90.000000
_cell_angle_gamma 90.000000
_cell_volume 3091.652375
_symmetry_space_group_name_H-M "I 21 21 21"
_symmetry_group_IT_number 24
_symmetry_cell_setting 'orthorhombic'
loop_
_space_group_symop_operation_xyz
x,y,z
-x,1/2-y,z
x,-y,1/2-z
1/2-x,y,-z
1/2+x,1/2+y,1/2+z
1/2-x,-y,1/2+z
1/2+x,1/2-y,-z
-x,1/2+y,1/2-z
loop_
_atom_site_type_symbol
_atom_site_label
_atom_site_fract_x
_atom_site_fract_y
_atom_site_fract_z
Si Si1 0.758241 0.224225 0.162244
Si Si2 0.430032 0.170369 0.930469
Si Si3 0.893276 0.480691 0.070876
Si Si4 0.619963 0.595404 0.784682
Si Si5 0.186030 0.591952 0.369550
Si Si6 0.053099 0.850237 0.695879
Si Si7 0.464114 0.980479 0.180135
Si Si8 0.651259 0.932324 0.923267
O O1 0.500000 0.250000 0.156003
O O2 0.672659 0.182412 0.206166
O O3 0.000000 0.250000 0.191945
O O4 0.859353 0.205138 0.084312
O O5 0.560929 0.125529 0.925059
O O6 0.256777 0.171187 0.856907
O O7 0.250000 0.175971 0.000000
O O8 0.689784 0.485156 0.135661
O O9 0.125937 0.452669 0.096660
O O10 0.980950 0.527773 0.054875
O O11 0.750000 0.463024 0.000000
O O12 0.441360 0.594549 0.712440
O O13 0.818687 0.631741 0.768821
O O14 0.762406 0.551629 0.787570
O O15 0.484117 0.597418 0.864220
O O16 0.459232 0.610025 0.352104
O O17 0.631442 0.954087 0.124724
O O18 0.609206 0.000000 0.250000
O O19 0.750000 0.913580 0.000000
#
# Coordination Sequence:
#
# PCOD9334785 Si02
#       8
#     8   8   8   8   8   8   8   8
#     4  11  22  43  65  93 127 169 218 273 334 394
#     4  10  22  41  59  87 128 169 222 272 324 388
#     4  11  22  38  53  82 118 157 215 282 336 385
#     4  10  22  38  59  81 116 157 211 265 325 396
#     4  10  21  36  59  86 113 162 221 266 334 379
#     4  10  22  41  61  88 119 162 222 264 333 392
#     4  11  22  37  57  80 115 156 215 269 328 391
#     4  11  24  37  57  85 114 160 215 272 346 392
#
# _framework density 20.700904999999999
#
# number of rings (size 3 to 8) (size 9 to 14) (size 15 to 20)
#    0.000    1.500    3.750    1.125    3.500    2.000 
#    4.500    0.000    0.000    0.000    0.000    0.000 
#    0.000    0.000    0.000    0.000  536.750    1.750 
#
# Total GULP energy -178760.160438 kJ/mol
# GULP energy per Si atom -5586.255014 kJ/mol
# Density = 2.065379 g / cm^3
# Si number density = 20.700905 Si / 1000 Ang^3
#
#
#
# Elastic Constant Matrix: (Units=GPa)
#
#
# Indices 1 2 3 4 5 6 
#
# 1 93.1741 35.6738 40.7807 0.0000 0.0000 0.0000
# 2 35.6738 84.0229 34.4876 0.0000 0.0000 0.0000
# 3 40.7807 34.4876 120.4211 0.0000 0.0000 0.0000
# 4 0.0000 0.0000 0.0000 5.5289 0.0000 0.0000
# 5 0.0000 0.0000 0.0000 0.0000 38.7918 0.0000
# 6 0.0000 0.0000 0.0000 0.0000 0.0000 37.2147
#
#
#
# Elastic Compliance Matrix: (Units=1/GPa)
#
#
# Indices 1 2 3 4 5 6 
#
# 1 0.013967 -0.004520 -0.003435 0.000000 0.000000 0.000000
# 2 -0.004520 0.014950 -0.002751 0.000000 0.000000 0.000000
# 3 -0.003435 -0.002751 0.010255 0.000000 0.000000 0.000000
# 4 0.000000 0.000000 0.000000 0.180866 0.000000 0.000000
# 5 0.000000 0.000000 0.000000 0.000000 0.025779 0.000000
# 6 0.000000 0.000000 0.000000 0.000000 0.000000 0.026871
#
#
# Mechanical properties :
#
#
# Convention : Reuss Voigt Hill
#
# Bulk Modulus (GPa) = 56.30732 57.72247 57.01490
# Shear Modulus (GPa) = 16.66557 28.75216 22.70886
#
# Velocity S-wave (km/s) = 2.84044 3.73088 3.31569
# Velocity P-wave (km/s) = 6.16579 6.81937 6.50080
#
# Compressibility (1/GPa) = 0.01775968
#
# Stress axis : x y z
#
# Youngs Moduli (GPa) = 71.59874 66.89149 97.50958
#
# Poissons Ratio (x) = 0.30234 0.33498
# Poissons Ratio (y) = 0.32361 0.26823
# Poissons Ratio (z) = 0.24597 0.18401
#
# Static dielectric constant tensor:
#      x y z
#    x 1.868620 0.000000 0.000000 
#    y 0.000000 1.795660 0.000000 
#    z 0.000000 0.000000 1.734870 
# 
# From -- ./inp_files/28975.got.cif
#   From: 2010.05.17/outbox.cif.g08.bks.cpg/sg24_15_cif.got.tgz:28975.got - 2010.06.04 00:33:39.
