data_PCOD9334416
_publ_section_title
;
Structure prediction by ZEFSAII (Michael W. Deem and Ramdas Pophale) SiO2 
 PCOD9334416
Probable space group: I 21 21 21
;
_chemical_formula_sum "Si O2"
_cell_formula_units_Z 48
_cell_length_a 22.685085
_cell_length_b 15.534862
_cell_length_c 6.085578
_cell_angle_alpha 90.000000
_cell_angle_beta 90.000000
_cell_angle_gamma 90.000000
_cell_volume 2144.616504
_symmetry_space_group_name_H-M "I 21 21 21"
_symmetry_group_IT_number 24
_symmetry_cell_setting 'orthorhombic'
loop_
_space_group_symop_operation_xyz
x,y,z
-x,1/2-y,z
x,-y,1/2-z
1/2-x,y,-z
1/2+x,1/2+y,1/2+z
1/2-x,-y,1/2+z
1/2+x,1/2-y,-z
-x,1/2+y,1/2-z
loop_
_atom_site_type_symbol
_atom_site_label
_atom_site_fract_x
_atom_site_fract_y
_atom_site_fract_z
Si Si1 0.343481 0.000000 0.750000
Si Si2 0.076139 0.850511 0.285033
Si Si3 0.077247 0.698355 0.972796
Si Si4 0.750000 0.613647 0.500000
Si Si5 0.979235 0.082436 0.879390
Si Si6 0.637116 0.913643 0.651181
Si Si7 0.166077 0.749026 0.607762
O O1 0.387300 0.925992 0.834074
O O2 0.300216 0.949401 0.588032
O O3 0.119769 0.801261 0.453966
O O4 0.022788 0.887897 0.428301
O O5 0.057368 0.781048 0.108487
O O6 0.032977 0.656851 0.797617
O O7 0.133834 0.725284 0.830065
O O8 0.101030 0.630494 0.150373
O O9 0.781315 0.684014 0.657365
O O10 0.002934 0.000000 0.750000
O O11 0.914933 0.061326 0.980504
O O12 0.675962 0.839714 0.530656
O O13 0.666143 0.000000 0.750000
#
# Coordination Sequence:
#
# PCOD9334416 Si02
#       7
#     4   8   8   4   8   8   8
#     4  10  24  42  68  94 130 174 228 298 336 406
#     4  10  24  41  58  99 132 170 236 281 334 414
#     4  10  22  41  64  89 132 180 215 280 340 408
#     4  10  22  46  68  96 126 172 234 276 364 406
#     4  11  23  39  64  96 133 186 226 274 347 414
#     4  10  20  38  65  96 127 170 221 270 335 426
#     4   9  22  40  64  92 128 165 220 281 340 414
#
# _framework density 22.381622
#
# number of rings (size 3 to 8) (size 9 to 14) (size 15 to 20)
#    0.000    2.000    1.667    0.000    3.500   10.000 
#    3.000    3.333    3.667    0.000    0.000    0.000 
#    0.000    0.000    0.000    0.000    0.000    0.000 
#
# Total GULP energy -134028.487713 kJ/mol
# GULP energy per Si atom -5584.520321 kJ/mol
# Density = 2.233068 g / cm^3
# Si number density = 22.381622 Si / 1000 Ang^3
#
#
#
# Elastic Constant Matrix: (Units=GPa)
#
#
# Indices 1 2 3 4 5 6 
#
# 1 47.8852 41.0186 26.5183 0.0000 0.0000 0.0000
# 2 41.0186 165.8984 55.1016 0.0000 0.0000 0.0000
# 3 26.5183 55.1016 95.3024 0.0000 0.0000 0.0000
# 4 0.0000 0.0000 0.0000 43.0514 0.0000 0.0000
# 5 0.0000 0.0000 0.0000 0.0000 15.2394 0.0000
# 6 0.0000 0.0000 0.0000 0.0000 0.0000 8.7222
#
#
#
# Elastic Compliance Matrix: (Units=1/GPa)
#
#
# Indices 1 2 3 4 5 6 
#
# 1 0.028102 -0.005385 -0.004706 0.000000 0.000000 0.000000
# 2 -0.005385 0.008492 -0.003412 0.000000 0.000000 0.000000
# 3 -0.004706 -0.003412 0.013775 0.000000 0.000000 0.000000
# 4 0.000000 0.000000 0.000000 0.023228 0.000000 0.000000
# 5 0.000000 0.000000 0.000000 0.000000 0.065619 0.000000
# 6 0.000000 0.000000 0.000000 0.000000 0.000000 0.114650
#
#
# Mechanical properties :
#
#
# Convention : Reuss Voigt Hill
#
# Bulk Modulus (GPa) = 42.80096 61.59587 52.19841
# Shear Modulus (GPa) = 17.32133 25.83243 21.57688
#
# Velocity S-wave (km/s) = 2.78494 3.40101 3.10827
# Velocity P-wave (km/s) = 5.43194 6.55766 6.02117
#
# Compressibility (1/GPa) = 0.02336396
#
# Stress axis : x y z
#
# Youngs Moduli (GPa) = 35.58403 117.75148 72.59578
#
# Poissons Ratio (x) = 0.63413 0.34163
# Poissons Ratio (y) = 0.19163 0.24767
# Poissons Ratio (z) = 0.16746 0.40173
#
# Static dielectric constant tensor:
#      x y z
#    x 1.868720 0.000000 0.000000 
#    y 0.000000 1.878800 0.000000 
#    z 0.000000 0.000000 1.804320 
# 
# From -- ./inp_files/7128.got.cif
#   From: 2010.05.17/outbox.cif.g08.bks.cpg/sg24_4_cif.got.tgz:7128.got - 2010.06.04 00:33:39.
