data_PCOD9334796
_publ_section_title
;
Structure prediction by ZEFSAII (Michael W. Deem and Ramdas Pophale) SiO2 
 PCOD9334796
Probable space group: I 21 21 21
;
_chemical_formula_sum "Si O2"
_cell_formula_units_Z 40
_cell_length_a 12.050056
_cell_length_b 18.770189
_cell_length_c 8.181041
_cell_angle_alpha 90.000000
_cell_angle_beta 90.000000
_cell_angle_gamma 90.000000
_cell_volume 1850.402813
_symmetry_space_group_name_H-M "I 21 21 21"
_symmetry_group_IT_number 24
_symmetry_cell_setting 'orthorhombic'
loop_
_space_group_symop_operation_xyz
x,y,z
-x,1/2-y,z
x,-y,1/2-z
1/2-x,y,-z
1/2+x,1/2+y,1/2+z
1/2-x,-y,1/2+z
1/2+x,1/2-y,-z
-x,1/2+y,1/2-z
loop_
_atom_site_type_symbol
_atom_site_label
_atom_site_fract_x
_atom_site_fract_y
_atom_site_fract_z
Si Si1 0.707157 0.358946 0.323052
Si Si2 0.711869 0.806900 0.237854
Si Si3 0.419202 0.082475 0.783725
Si Si4 0.485864 0.664131 0.034385
Si Si5 0.428197 0.679820 0.566811
O O1 0.750000 0.384839 0.500000
O O2 0.732964 0.274994 0.309984
O O3 0.789105 0.398499 0.200430
O O4 0.574708 0.362931 0.329779
O O5 0.639835 0.845111 0.097085
O O6 0.630905 0.805989 0.394970
O O7 0.829099 0.834502 0.303754
O O8 0.472374 0.126600 0.630623
O O9 0.488792 0.113427 0.933785
O O10 0.433505 0.000000 0.750000
O O11 0.500000 0.750000 0.019585
O O12 0.500000 0.750000 0.609179
#
# Coordination Sequence:
#
# PCOD9334796 Si02
#       5
#     8   8   8   8   8
#     4   9  18  36  62  90 120 155 206 256 301 362
#     4  10  21  36  61  93 121 152 206 261 308 358
#     4  11  23  39  60  90 128 167 205 245 308 377
#     4   9  19  38  64  92 119 156 210 254 303 365
#     4  11  21  37  60  92 122 158 206 256 312 359
#
# _framework density 21.616914000000001
#
# number of rings (size 3 to 8) (size 9 to 14) (size 15 to 20)
#    0.000    2.000    2.000    2.400    5.600    0.000 
#    0.000   17.000    0.000    0.000    0.000    0.000 
#    0.000    0.000    0.000    0.000    0.000    0.000 
#
# Total GULP energy -111617.497949 kJ/mol
# GULP energy per Si atom -5580.874897 kJ/mol
# Density = 2.156771 g / cm^3
# Si number density = 21.616914 Si / 1000 Ang^3
#
#
#
# Elastic Constant Matrix: (Units=GPa)
#
#
# Indices 1 2 3 4 5 6 
#
# 1 147.7248 37.4251 30.4166 0.0000 0.0000 0.0000
# 2 37.4251 82.7553 5.6633 0.0000 0.0000 0.0000
# 3 30.4166 5.6633 66.3136 0.0001 0.0000 0.0000
# 4 0.0000 0.0000 0.0001 -5.1770 0.0000 0.0000
# 5 0.0000 0.0000 0.0000 0.0000 17.0629 0.0000
# 6 0.0000 0.0000 0.0000 0.0000 0.0000 11.8554
#
#
#
# Elastic Compliance Matrix: (Units=1/GPa)
#
#
# Indices 1 2 3 4 5 6 
#
# 1 0.008401 -0.003556 -0.003550 0.000000 0.000000 0.000000
# 2 -0.003556 0.013660 0.000465 0.000000 0.000000 0.000000
# 3 -0.003550 0.000465 0.016668 0.000000 0.000000 0.000000
# 4 0.000000 0.000000 0.000000 -0.193162 0.000000 0.000000
# 5 0.000000 0.000000 0.000000 0.000000 0.058607 0.000000
# 6 0.000000 0.000000 0.000000 0.000000 0.000000 0.084350
#
#
# Mechanical properties :
#
#
# Convention : Reuss Voigt Hill
#
# Bulk Modulus (GPa) = 39.29748 49.31150 44.30449
# Shear Modulus (GPa) = 485.95918 19.63420 252.79669
#
# Velocity S-wave (km/s) = 15.00977 3.01704 10.82579
# Velocity P-wave (km/s) = 17.84963 5.91589 13.29675
#
# Compressibility (1/GPa) = 0.02544693
#
# Stress axis : x y z
#
# Youngs Moduli (GPa) = 119.03017 73.20441 59.99389
#
# Poissons Ratio (x) = 0.26035 0.21296
# Poissons Ratio (y) = 0.42332 -0.02788
# Poissons Ratio (z) = 0.42253 -0.03401
#
# Static dielectric constant tensor:
#      x y z
#    x 1.843640 0.000000 0.000000 
#    y 0.000000 1.704450 0.000000 
#    z 0.000000 0.000000 1.933950 
# 
# From -- ./inp_files/10687.got.cif
#   From: 2010.05.17/outbox.cif.g08.bks.cpg/sg24_6_cif.got.tgz:10687.got - 2010.06.04 00:33:39.
