data_PCOD9334311
_publ_section_title
;
Structure prediction by ZEFSAII (Michael W. Deem and Ramdas Pophale) SiO2 
 PCOD9334311
Probable space group: I 21 21 21
;
_chemical_formula_sum "Si O2"
_cell_formula_units_Z 48
_cell_length_a 12.883273
_cell_length_b 8.724753
_cell_length_c 18.540182
_cell_angle_alpha 90.000000
_cell_angle_beta 90.000000
_cell_angle_gamma 90.000000
_cell_volume 2083.979025
_symmetry_space_group_name_H-M "I 21 21 21"
_symmetry_group_IT_number 24
_symmetry_cell_setting 'orthorhombic'
loop_
_space_group_symop_operation_xyz
x,y,z
-x,1/2-y,z
x,-y,1/2-z
1/2-x,y,-z
1/2+x,1/2+y,1/2+z
1/2-x,-y,1/2+z
1/2+x,1/2-y,-z
-x,1/2+y,1/2-z
loop_
_atom_site_type_symbol
_atom_site_label
_atom_site_fract_x
_atom_site_fract_y
_atom_site_fract_z
Si Si1 0.088669 0.436632 0.530138
Si Si2 0.355576 0.607575 0.872085
Si Si3 0.711917 0.408511 0.174800
Si Si4 0.584828 0.460792 0.665802
Si Si5 0.358474 0.904878 0.043668
Si Si6 0.153286 0.560350 0.677469
O O1 0.154262 0.436618 0.456413
O O2 0.121372 0.272019 0.563311
O O3 0.102760 0.547600 0.597861
O O4 0.967789 0.442190 0.504625
O O5 0.464801 0.531715 0.852307
O O6 0.372294 0.790130 0.856197
O O7 0.258739 0.540019 0.829738
O O8 0.706621 0.500000 0.250000
O O9 0.828195 0.419715 0.140308
O O10 0.644911 0.493548 0.114750
O O11 0.680392 0.236473 0.188322
O O12 0.585042 0.500000 0.750000
O O13 0.250000 0.917938 0.000000
O O14 0.096428 0.500000 0.750000
#
# Coordination Sequence:
#
# PCOD9334311 Si02
#       6
#     8   8   8   8   8   8
#     4  11  24  42  69  98 132 177 224 276 338 410
#     4  11  22  41  65  97 139 180 224 283 344 408
#     4  11  24  41  63  91 128 173 223 282 343 404
#     4  10  20  37  65  99 133 178 230 278 341 411
#     4  11  22  42  69  96 128 171 217 267 330 404
#     4  12  25  42  65  95 133 177 230 289 344 405
#
# _framework density 23.032859999999999
#
# number of rings (size 3 to 8) (size 9 to 14) (size 15 to 20)
#    0.000    1.000    0.000   10.000    0.000    6.000 
#    0.000    1.667    0.000    0.000    0.000    0.000 
#    0.000    0.000    0.000    0.000    0.000    0.000 
#
# Total GULP energy -133960.464872 kJ/mol
# GULP energy per Si atom -5581.686036 kJ/mol
# Density = 2.298044 g / cm^3
# Si number density = 23.032860 Si / 1000 Ang^3
#
#
#
# Elastic Constant Matrix: (Units=GPa)
#
#
# Indices 1 2 3 4 5 6 
#
# 1 80.0426 12.0551 31.1059 0.0000 0.0000 0.0000
# 2 12.0551 70.5817 39.2471 0.0000 0.0000 0.0000
# 3 31.1059 39.2471 126.9629 0.0000 0.0000 0.0000
# 4 0.0000 0.0000 0.0000 39.8461 0.0000 0.0000
# 5 0.0000 0.0000 0.0000 0.0000 46.4803 0.0000
# 6 0.0000 0.0000 0.0000 0.0000 0.0000 25.6950
#
#
#
# Elastic Compliance Matrix: (Units=1/GPa)
#
#
# Indices 1 2 3 4 5 6 
#
# 1 0.013827 -0.000577 -0.003209 0.000000 0.000000 0.000000
# 2 -0.000577 0.017133 -0.005155 0.000000 0.000000 0.000000
# 3 -0.003209 -0.005155 0.010256 0.000000 0.000000 0.000000
# 4 0.000000 0.000000 0.000000 0.025097 0.000000 0.000000
# 5 0.000000 0.000000 0.000000 0.000000 0.021515 0.000000
# 6 0.000000 0.000000 0.000000 0.000000 0.000000 0.038918
#
#
# Mechanical properties :
#
#
# Convention : Reuss Voigt Hill
#
# Bulk Modulus (GPa) = 42.85602 49.15595 46.00598
# Shear Modulus (GPa) = 32.80711 35.41620 34.11166
#
# Velocity S-wave (km/s) = 3.77817 3.92553 3.85255
# Velocity P-wave (km/s) = 6.13837 6.47567 6.30928
#
# Compressibility (1/GPa) = 0.02333395
#
# Stress axis : x y z
#
# Youngs Moduli (GPa) = 72.31985 58.36736 97.50335
#
# Poissons Ratio (x) = 0.03369 0.31292
# Poissons Ratio (y) = 0.04174 0.50261
# Poissons Ratio (z) = 0.23210 0.30087
#
# Static dielectric constant tensor:
#      x y z
#    x 1.948720 0.000000 0.000000 
#    y 0.000000 1.810580 0.000000 
#    z 0.000000 0.000000 0.981340 
# 
# From -- ./inp_files/30733.got.cif
#   From: 2010.05.17/outbox.cif.g08.bks.cpg/sg24_16_cif.got.tgz:30733.got - 2010.06.04 00:33:39.
