data_PCOD9334105
_publ_section_title
;
Structure prediction by ZEFSAII (Michael W. Deem and Ramdas Pophale) SiO2 
 PCOD9334105
Probable space group: I 21 21 21
;
_chemical_formula_sum "Si O2"
_cell_formula_units_Z 48
_cell_length_a 9.157187
_cell_length_b 19.505497
_cell_length_c 12.903561
_cell_angle_alpha 90.000000
_cell_angle_beta 90.000000
_cell_angle_gamma 90.000000
_cell_volume 2304.775788
_symmetry_space_group_name_H-M "I 21 21 21"
_symmetry_group_IT_number 24
_symmetry_cell_setting 'orthorhombic'
loop_
_space_group_symop_operation_xyz
x,y,z
-x,1/2-y,z
x,-y,1/2-z
1/2-x,y,-z
1/2+x,1/2+y,1/2+z
1/2-x,-y,1/2+z
1/2+x,1/2-y,-z
-x,1/2+y,1/2-z
loop_
_atom_site_type_symbol
_atom_site_label
_atom_site_fract_x
_atom_site_fract_y
_atom_site_fract_z
Si Si1 0.121938 0.516922 0.364464
Si Si2 0.171025 0.958146 0.840278
Si Si3 0.250000 0.846222 0.000000
Si Si4 0.903240 0.899435 0.706552
Si Si5 0.194809 0.637256 0.112716
Si Si6 0.000000 0.750000 0.066451
Si Si7 0.587801 0.588318 0.477193
O O1 0.068092 0.500000 0.250000
O O2 0.283814 0.549812 0.347768
O O3 0.139693 0.440213 0.408478
O O4 0.015930 0.567418 0.426931
O O5 0.248226 0.896460 0.900332
O O6 0.028427 0.930791 0.780451
O O7 0.254037 0.000000 0.750000
O O8 0.121861 0.014637 0.923459
O O9 0.390265 0.797024 0.000293
O O10 0.806875 0.860826 0.792153
O O11 0.994252 0.870344 0.608888
O O12 0.075255 0.693451 0.137952
O O13 0.250000 0.659875 0.000000
O O14 0.750000 0.617149 0.500000
#
# Coordination Sequence:
#
# PCOD9334105 Si02
#       7
#     8   8   4   8   8   4   8
#     4  10  20  35  61  90 129 173 210 276 339 411
#     4  10  21  39  64  91 132 178 216 285 350 395
#     4  12  24  44  64  96 146 184 230 274 336 440
#     4  10  21  38  61  86 127 179 220 270 345 413
#     4  11  20  38  59  84 127 174 227 263 321 409
#     4  12  26  38  60  94 132 196 222 266 334 408
#     4  11  20  33  54  93 134 163 207 269 356 406
#
# _framework density 20.826321
#
# number of rings (size 3 to 8) (size 9 to 14) (size 15 to 20)
#    0.000    1.333    1.667    9.000    0.000    2.000 
#    6.000    0.000    0.000    0.000    0.000    0.000 
#  110.000    1.333    0.000    0.000    0.000    0.000 
#
# Total GULP energy -133695.571363 kJ/mol
# GULP energy per Si atom -5570.648807 kJ/mol
# Density = 2.077892 g / cm^3
# Si number density = 20.826321 Si / 1000 Ang^3
#
#
#
# Elastic Constant Matrix: (Units=GPa)
#
#
# Indices 1 2 3 4 5 6 
#
# 1 118.5805 32.9740 40.3481 0.0000 0.0000 0.0000
# 2 32.9740 64.1242 29.0605 0.0000 0.0000 0.0000
# 3 40.3481 29.0605 90.0962 0.0000 0.0000 0.0000
# 4 0.0000 0.0000 0.0000 -12.6802 0.0000 0.0000
# 5 0.0000 0.0000 0.0000 0.0000 35.2253 0.0000
# 6 0.0000 0.0000 0.0000 0.0000 0.0000 7.1875
#
#
#
# Elastic Compliance Matrix: (Units=1/GPa)
#
#
# Indices 1 2 3 4 5 6 
#
# 1 0.010726 -0.003910 -0.003542 0.000000 0.000000 0.000000
# 2 -0.003910 0.019690 -0.004600 0.000000 0.000000 0.000000
# 3 -0.003542 -0.004600 0.014169 0.000000 0.000000 0.000000
# 4 0.000000 0.000000 0.000000 -0.078863 0.000000 0.000000
# 5 0.000000 0.000000 0.000000 0.000000 0.028389 0.000000
# 6 0.000000 0.000000 0.000000 0.000000 0.000000 0.139131
#
#
# Mechanical properties :
#
#
# Convention : Reuss Voigt Hill
#
# Bulk Modulus (GPa) = 48.82665 53.06291 50.94478
# Shear Modulus (GPa) = 30.45583 17.30775 23.88179
#
# Velocity S-wave (km/s) = 3.82825 2.88592 3.38999
# Velocity P-wave (km/s) = 6.56020 6.05300 6.31170
#
# Compressibility (1/GPa) = 0.02048062
#
# Stress axis : x y z
#
# Youngs Moduli (GPa) = 93.23482 50.78713 70.57552
#
# Poissons Ratio (x) = 0.19858 0.24998
# Poissons Ratio (y) = 0.36456 0.32464
# Poissons Ratio (z) = 0.33025 0.23362
#
# Static dielectric constant tensor:
#      x y z
#    x 1.897930 0.000000 0.000000 
#    y 0.000000 1.760750 0.000000 
#    z 0.000000 0.000000 2.113230 
# 
# From -- ./inp_files/24851.got.cif
#   From: 2010.05.17/outbox.cif.g08.bks.cpg/sg24_13_cif.got.tgz:24851.got - 2010.06.04 00:33:39.
