data_PCOD9334496
_publ_section_title
;
Structure prediction by ZEFSAII (Michael W. Deem and Ramdas Pophale) SiO2 
 PCOD9334496
Probable space group: I 21 21 21
;
_chemical_formula_sum "Si O2"
_cell_formula_units_Z 32
_cell_length_a 5.750469
_cell_length_b 9.958085
_cell_length_c 22.956289
_cell_angle_alpha 90.000000
_cell_angle_beta 90.000000
_cell_angle_gamma 90.000000
_cell_volume 1314.561107
_symmetry_space_group_name_H-M "I 21 21 21"
_symmetry_group_IT_number 24
_symmetry_cell_setting 'orthorhombic'
loop_
_space_group_symop_operation_xyz
x,y,z
-x,1/2-y,z
x,-y,1/2-z
1/2-x,y,-z
1/2+x,1/2+y,1/2+z
1/2-x,-y,1/2+z
1/2+x,1/2-y,-z
-x,1/2+y,1/2-z
loop_
_atom_site_type_symbol
_atom_site_label
_atom_site_fract_x
_atom_site_fract_y
_atom_site_fract_z
Si Si1 0.250000 0.944448 0.500000
Si Si2 0.859959 0.131981 0.442814
Si Si3 0.500000 0.750000 0.293954
Si Si4 0.638410 0.388081 0.709374
Si Si5 0.031597 0.036724 0.881984
O O1 0.366406 0.890103 0.440108
O O2 0.465996 0.023413 0.529607
O O3 0.750000 0.199907 0.500000
O O4 0.000000 0.250000 0.413439
O O5 0.658237 0.069982 0.403932
O O6 0.340020 0.835934 0.252130
O O7 0.402378 0.639739 0.339079
O O8 0.500000 0.250000 0.700477
O O9 0.509156 0.500000 0.750000
O O10 0.761345 0.461541 0.654055
#
# Coordination Sequence:
#
# PCOD9334496 Si02
#       5
#     4   8   4   8   8
#     4  10  22  40  62 100 138 184 228 282 362 430
#     4  10  20  39  64  96 141 180 224 287 353 430
#     4  10  24  48  68  98 140 190 248 292 356 442
#     4  10  24  47  74 102 138 190 243 304 364 426
#     4  10  24  44  68 103 141 184 242 294 366 437
#
# _framework density 24.342728000000001
#
# number of rings (size 3 to 8) (size 9 to 14) (size 15 to 20)
#    0.000    2.000    1.250    0.000    0.000   12.000 
#   11.250    2.500    0.000    0.000    0.000    0.000 
#    0.000    0.000    0.000    0.000    0.000    0.000 
#
# Total GULP energy -89207.584657 kJ/mol
# GULP energy per Si atom -5575.474041 kJ/mol
# Density = 2.428732 g / cm^3
# Si number density = 24.342728 Si / 1000 Ang^3
#
#
#
# Elastic Constant Matrix: (Units=GPa)
#
#
# Indices 1 2 3 4 5 6 
#
# 1 48.5593 11.5361 30.8603 0.0000 0.0000 0.0000
# 2 11.5361 84.9427 54.8029 0.0000 0.0000 0.0000
# 3 30.8603 54.8029 183.7924 0.0000 0.0000 0.0000
# 4 0.0000 0.0000 0.0000 22.5144 0.0000 0.0000
# 5 0.0000 0.0000 0.0000 0.0000 42.0035 0.0000
# 6 0.0000 0.0000 0.0000 0.0000 0.0000 24.2638
#
#
#
# Elastic Compliance Matrix: (Units=1/GPa)
#
#
# Indices 1 2 3 4 5 6 
#
# 1 0.023096 -0.000786 -0.003644 0.000000 0.000000 0.000000
# 2 -0.000786 0.014604 -0.004223 0.000000 0.000000 0.000000
# 3 -0.003644 -0.004223 0.007312 0.000000 0.000000 0.000000
# 4 0.000000 0.000000 0.000000 0.044416 0.000000 0.000000
# 5 0.000000 0.000000 0.000000 0.000000 0.023808 0.000000
# 6 0.000000 0.000000 0.000000 0.000000 0.000000 0.041214
#
#
# Mechanical properties :
#
#
# Convention : Reuss Voigt Hill
#
# Bulk Modulus (GPa) = 36.09191 56.85478 46.47334
# Shear Modulus (GPa) = 27.62612 32.42934 30.02773
#
# Velocity S-wave (km/s) = 3.37246 3.65389 3.51599
# Velocity P-wave (km/s) = 5.47936 6.41934 5.96788
#
# Compressibility (1/GPa) = 0.02770704
#
# Stress axis : x y z
#
# Youngs Moduli (GPa) = 43.29815 68.47606 136.76555
#
# Poissons Ratio (x) = 0.05381 0.49832
# Poissons Ratio (y) = 0.03403 0.57750
# Poissons Ratio (z) = 0.15776 0.28914
#
# Static dielectric constant tensor:
#      x y z
#    x 1.973000 0.000000 0.000000 
#    y 0.000000 1.982090 0.000000 
#    z 0.000000 0.000000 1.991960 
# 
# From -- ./inp_files/31906.got.cif
#   From: 2010.05.17/outbox.cif.g08.bks.cpg/sg24_16_cif.got.tgz:31906.got - 2010.06.04 00:33:39.
