data_PCOD9334890
_publ_section_title
;
Structure prediction by ZEFSAII (Michael W. Deem and Ramdas Pophale) SiO2 
 PCOD9334890
Probable space group: I 21 21 21
;
_chemical_formula_sum "Si O2"
_cell_formula_units_Z 56
_cell_length_a 22.113766
_cell_length_b 26.359015
_cell_length_c 5.155016
_cell_angle_alpha 90.000000
_cell_angle_beta 90.000000
_cell_angle_gamma 90.000000
_cell_volume 3004.843824
_symmetry_space_group_name_H-M "I 21 21 21"
_symmetry_group_IT_number 24
_symmetry_cell_setting 'orthorhombic'
loop_
_space_group_symop_operation_xyz
x,y,z
-x,1/2-y,z
x,-y,1/2-z
1/2-x,y,-z
1/2+x,1/2+y,1/2+z
1/2-x,-y,1/2+z
1/2+x,1/2-y,-z
-x,1/2+y,1/2-z
loop_
_atom_site_type_symbol
_atom_site_label
_atom_site_fract_x
_atom_site_fract_y
_atom_site_fract_z
Si Si1 0.315329 0.056138 0.651107
Si Si2 0.893101 0.193537 0.828715
Si Si3 0.707019 0.000000 0.250000
Si Si4 0.644799 0.693925 0.431156
Si Si5 0.250000 0.867918 0.500000
Si Si6 0.793096 0.109996 0.749436
Si Si7 0.525731 0.193394 0.682297
Si Si8 0.595999 0.643814 0.947119
O O1 0.250000 0.052804 0.500000
O O2 0.297660 0.093000 0.884684
O O3 0.370873 0.088625 0.529598
O O4 0.331149 0.000000 0.750000
O O5 0.861002 0.246591 0.898223
O O6 0.842806 0.152896 0.758190
O O7 0.937354 0.199543 0.583908
O O8 0.931117 0.178312 0.081722
O O9 0.750000 0.999794 0.500000
O O10 0.675309 0.945642 0.247506
O O11 0.708844 0.670354 0.335934
O O12 0.632590 0.677049 0.728829
O O13 0.598277 0.668751 0.231069
O O14 0.750000 0.114369 0.500000
O O15 0.750000 0.113374 0.000000
O O16 0.500000 0.250000 0.745211
O O17 0.472555 0.152040 0.647132
#
# Coordination Sequence:
#
# PCOD9334890 Si02
#       8
#     8   8   4   8   4   8   8   8
#     4  11  21  38  60  85 113 152 201 247 296 357
#     4  12  23  37  61  88 118 159 197 244 292 352
#     4   8  16  34  60  80 110 148 182 218 272 348
#     4  11  21  36  54  87 116 153 184 240 301 354
#     4  10  22  34  54  84 124 150 184 240 308 356
#     4  10  21  38  59  91 121 151 188 236 295 354
#     4  12  22  40  59  83 114 161 209 240 282 357
#     4  11  23  38  60  81 114 151 199 248 292 342
#
# _framework density 18.636576999999999
#
# number of rings (size 3 to 8) (size 9 to 14) (size 15 to 20)
#    0.000    1.143    5.000    2.143    1.000    0.000 
#    2.571    0.000    3.143    0.000    0.000    0.000 
#    0.000    0.000    0.000    0.000    0.000    0.000 
#
# Total GULP energy -155988.796111 kJ/mol
# GULP energy per Si atom -5571.028433 kJ/mol
# Density = 1.859416 g / cm^3
# Si number density = 18.636577 Si / 1000 Ang^3
#
#
#
# Elastic Constant Matrix: (Units=GPa)
#
#
# Indices 1 2 3 4 5 6 
#
# 1 64.2616 60.1781 9.0923 0.0000 0.0000 0.0000
# 2 60.1781 125.9310 6.3138 0.0000 0.0000 0.0000
# 3 9.0923 6.3138 78.4047 0.0000 0.0000 0.0000
# 4 0.0000 0.0000 0.0000 13.8338 0.0000 0.0000
# 5 0.0000 0.0000 0.0000 0.0000 30.4843 0.0000
# 6 0.0000 0.0000 0.0000 0.0000 0.0000 -83.2668
#
#
#
# Elastic Compliance Matrix: (Units=1/GPa)
#
#
# Indices 1 2 3 4 5 6 
#
# 1 0.028545 -0.013530 -0.002221 0.000000 0.000000 0.000000
# 2 -0.013530 0.014386 0.000411 0.000000 0.000000 0.000000
# 3 -0.002221 0.000411 0.012979 0.000000 0.000000 0.000000
# 4 0.000000 0.000000 0.000000 0.072287 0.000000 0.000000
# 5 0.000000 0.000000 0.000000 0.000000 0.032804 0.000000
# 6 0.000000 0.000000 0.000000 0.000000 0.000000 -0.012010
#
#
# Mechanical properties :
#
#
# Convention : Reuss Voigt Hill
#
# Bulk Modulus (GPa) = 39.63503 46.64062 43.13782
# Shear Modulus (GPa) = 26.58441 5.07781 15.83111
#
# Velocity S-wave (km/s) = 3.78095 1.65244 2.91772
# Velocity P-wave (km/s) = 6.35408 5.35924 5.87775
#
# Compressibility (1/GPa) = 0.02523021
#
# Stress axis : x y z
#
# Youngs Moduli (GPa) = 35.03195 69.51414 77.04866
#
# Poissons Ratio (x) = 0.94049 0.17111
# Poissons Ratio (y) = 0.47397 -0.03163
# Poissons Ratio (z) = 0.07780 -0.02854
#
# Static dielectric constant tensor:
#      x y z
#    x 1.712170 0.000000 0.000000 
#    y 0.000000 1.646100 0.000000 
#    z 0.000000 0.000000 1.733070 
# 
# From -- ./inp_files/5827.got.cif
#   From: 2010.05.17/outbox.cif.g08.bks.cpg/sg24_3_cif.got.tgz:5827.got - 2010.06.04 00:33:39.
