data_PCOD9334956
_publ_section_title
;
Structure prediction by ZEFSAII (Michael W. Deem and Ramdas Pophale) SiO2 
 PCOD9334956
Probable space group: I 21 21 21
;
_chemical_formula_sum "Si O2"
_cell_formula_units_Z 64
_cell_length_a 10.076520
_cell_length_b 26.414525
_cell_length_c 11.975753
_cell_angle_alpha 90.000000
_cell_angle_beta 90.000000
_cell_angle_gamma 90.000000
_cell_volume 3187.544135
_symmetry_space_group_name_H-M "I 21 21 21"
_symmetry_group_IT_number 24
_symmetry_cell_setting 'orthorhombic'
loop_
_space_group_symop_operation_xyz
x,y,z
-x,1/2-y,z
x,-y,1/2-z
1/2-x,y,-z
1/2+x,1/2+y,1/2+z
1/2-x,-y,1/2+z
1/2+x,1/2-y,-z
-x,1/2+y,1/2-z
loop_
_atom_site_type_symbol
_atom_site_label
_atom_site_fract_x
_atom_site_fract_y
_atom_site_fract_z
Si Si1 0.401134 0.170563 0.495358
Si Si2 0.257094 0.831070 0.371727
Si Si3 0.620382 0.955690 0.159272
Si Si4 0.893993 0.550665 0.005698
Si Si5 0.591738 0.946689 0.809700
Si Si6 0.980161 0.163309 0.257326
Si Si7 0.260790 0.711003 0.370602
Si Si8 0.013706 0.346485 0.733066
O O1 0.250000 0.191934 0.500000
O O2 0.383823 0.110048 0.475952
O O3 0.480719 0.176372 0.612801
O O4 0.481621 0.183677 0.382811
O O5 0.250000 0.849090 0.500000
O O6 0.284961 0.770928 0.373896
O O7 0.376340 0.854106 0.299667
O O8 0.117312 0.838313 0.310117
O O9 0.771635 0.946530 0.120455
O O10 0.574853 0.901483 0.207166
O O11 0.621727 0.000000 0.250000
O O12 0.510317 0.971568 0.069620
O O13 0.952490 0.551298 0.127995
O O14 0.750000 0.526661 0.000000
O O15 0.586530 0.892461 0.749847
O O16 0.598661 0.000000 0.750000
O O17 0.874281 0.200268 0.198891
O O18 0.250000 0.693539 0.500000
O O19 0.381806 0.683893 0.308151
#
# Coordination Sequence:
#
# PCOD9334956 Si02
#       8
#     8   8   8   8   8   8   8   8
#     4   9  18  36  63  88 125 160 196 255 315 374
#     4  11  24  43  66  89 127 170 211 263 326 377
#     4  10  21  39  59  87 124 164 203 253 312 379
#     4   9  19  35  59  86 116 161 201 243 313 376
#     4  10  21  39  59  87 124 164 203 253 312 379
#     4  11  21  41  65  92 123 168 213 259 319 379
#     4  11  24  43  64  93 127 168 215 263 318 381
#     4  11  21  41  65  92 123 168 213 259 319 379
#
# _framework density 20.078153
#
# number of rings (size 3 to 8) (size 9 to 14) (size 15 to 20)
#    0.000    1.750    2.500    1.875    1.750    3.000 
#    4.500    3.750    0.000    0.000    0.000    0.000 
#    0.000    0.000    0.000    0.000    0.000    0.000 
#
# Total GULP energy -178365.658619 kJ/mol
# GULP energy per Si atom -5573.926832 kJ/mol
# Density = 2.003245 g / cm^3
# Si number density = 20.078153 Si / 1000 Ang^3
#
#
#
# Elastic Constant Matrix: (Units=GPa)
#
#
# Indices 1 2 3 4 5 6 
#
# 1 120.9257 -3.3957 26.0014 -0.0007 0.0000 0.0002
# 2 -3.3957 37.3558 4.0297 0.0000 0.0002 0.0001
# 3 26.0014 4.0297 101.9140 -0.0011 -0.0017 0.0000
# 4 -0.0007 0.0000 -0.0011 5.8772 0.0003 0.0003
# 5 0.0000 0.0002 -0.0017 0.0003 -25.6497 0.0001
# 6 0.0002 0.0001 0.0000 0.0003 0.0001 6.7728
#
#
#
# Elastic Compliance Matrix: (Units=1/GPa)
#
#
# Indices 1 2 3 4 5 6 
#
# 1 0.008790 0.001045 -0.002284 0.000001 0.000000 0.000000
# 2 0.001045 0.027009 -0.001335 0.000000 0.000000 0.000000
# 3 -0.002284 -0.001335 0.010448 0.000002 -0.000001 0.000000
# 4 0.000001 0.000000 0.000002 0.170150 0.000002 -0.000008
# 5 0.000000 0.000000 -0.000001 0.000002 -0.038987 0.000000
# 6 0.000000 0.000000 0.000000 -0.000008 0.000000 0.147649
#
#
# Mechanical properties :
#
#
# Convention : Reuss Voigt Hill
#
# Bulk Modulus (GPa) = 24.33097 34.82959 29.58028
# Shear Modulus (GPa) = 14.53893 12.97073 13.75483
#
# Velocity S-wave (km/s) = 2.69386 2.54443 2.62021
# Velocity P-wave (km/s) = 4.67122 5.10067 4.89066
#
# Compressibility (1/GPa) = 0.04109989
#
# Stress axis : x y z
#
# Youngs Moduli (GPa) = 113.76578 37.02527 95.71512
#
# Poissons Ratio (x) = -0.03871 0.21861
# Poissons Ratio (y) = -0.11893 0.12775
# Poissons Ratio (z) = 0.25983 0.04942
#
# Static dielectric constant tensor:
#      x y z
#    x 1.722340 0.000000 0.000000 
#    y 0.000000 2.001710 0.000000 
#    z 0.000000 0.000000 1.747650 
# 
# From -- ./inp_files/11642.got.cif
#   From: 2010.05.17/outbox.cif.g08.bks.cpg/sg24_6_cif.got.tgz:11642.got - 2010.06.04 00:33:39.
