data_PCOD9334519
_publ_section_title
;
Structure prediction by ZEFSAII (Michael W. Deem and Ramdas Pophale) SiO2 
 PCOD9334519
Probable space group: I 21 21 21
;
_chemical_formula_sum "Si O2"
_cell_formula_units_Z 52
_cell_length_a 5.710031
_cell_length_b 20.546336
_cell_length_c 21.620596
_cell_angle_alpha 90.000000
_cell_angle_beta 90.000000
_cell_angle_gamma 90.000000
_cell_volume 2536.532982
_symmetry_space_group_name_H-M "I 21 21 21"
_symmetry_group_IT_number 24
_symmetry_cell_setting 'orthorhombic'
loop_
_space_group_symop_operation_xyz
x,y,z
-x,1/2-y,z
x,-y,1/2-z
1/2-x,y,-z
1/2+x,1/2+y,1/2+z
1/2-x,-y,1/2+z
1/2+x,1/2-y,-z
-x,1/2+y,1/2-z
loop_
_atom_site_type_symbol
_atom_site_label
_atom_site_fract_x
_atom_site_fract_y
_atom_site_fract_z
Si Si1 0.328896 0.309088 0.929366
Si Si2 0.782110 0.420403 0.433853
Si Si3 0.911178 0.973714 0.850639
Si Si4 0.589751 0.047484 0.938334
Si Si5 0.000000 0.750000 0.662840
Si Si6 0.000000 0.250000 0.236487
Si Si7 0.758135 0.500000 0.250000
Si Si8 0.038648 0.616107 0.192035
O O1 0.500000 0.250000 0.913127
O O2 0.467769 0.377289 0.926873
O O3 0.101415 0.305534 0.884526
O O4 0.250000 0.300102 0.000000
O O5 0.750000 0.386357 0.500000
O O6 0.528748 0.436572 0.407339
O O7 0.927560 0.387272 0.377693
O O8 0.898962 0.491246 0.445315
O O9 0.792388 0.917000 0.811201
O O10 0.727968 0.023751 0.877839
O O11 0.100656 0.010291 0.810164
O O12 0.750000 0.046503 0.000000
O O13 0.757180 0.738481 0.702046
O O14 0.036539 0.313773 0.278193
O O15 0.899488 0.564495 0.234005
#
# Coordination Sequence:
#
# PCOD9334519 Si02
#       8
#     8   8   8   8   4   4   4   8
#     4  11  24  43  62  96 143 186 240 292 353 414
#     4  10  20  39  68 100 132 172 224 289 364 423
#     4  10  21  38  65  96 133 169 223 283 347 415
#     4  10  21  36  62  98 132 175 224 284 344 422
#     4  12  28  47  70  99 136 200 240 292 346 430
#     4  12  30  49  74 101 146 190 250 290 364 432
#     4  10  22  40  64 100 132 182 224 288 346 414
#     4  10  25  44  67 101 137 185 229 299 350 429
#
# _framework density 20.500425
#
# number of rings (size 3 to 8) (size 9 to 14) (size 15 to 20)
#    0.000    1.538    3.077    0.462    6.462    5.538 
#    0.000    0.000    3.385    0.000    0.000    0.000 
#    0.000    0.000    0.000    0.000    0.000    0.000 
#
# Total GULP energy -144926.670652 kJ/mol
# GULP energy per Si atom -5574.102717 kJ/mol
# Density = 2.045376 g / cm^3
# Si number density = 20.500425 Si / 1000 Ang^3
#
#
#
# Elastic Constant Matrix: (Units=GPa)
#
#
# Indices 1 2 3 4 5 6 
#
# 1 85.9031 40.4701 41.2623 0.0000 0.0000 0.0000
# 2 40.4701 116.0456 47.2957 0.0000 0.0000 0.0000
# 3 41.2623 47.2957 115.5003 0.0000 0.0000 0.0000
# 4 0.0000 0.0000 0.0000 -49.0660 0.0000 0.0000
# 5 0.0000 0.0000 0.0000 0.0000 -2.1187 0.0000
# 6 0.0000 0.0000 0.0000 0.0000 0.0000 -61.2838
#
#
#
# Elastic Compliance Matrix: (Units=1/GPa)
#
#
# Indices 1 2 3 4 5 6 
#
# 1 0.015287 -0.003728 -0.003935 0.000000 0.000000 0.000000
# 2 -0.003728 0.011252 -0.003276 0.000000 0.000000 0.000000
# 3 -0.003935 -0.003276 0.011405 0.000000 0.000000 0.000000
# 4 0.000000 0.000000 0.000000 -0.020381 0.000000 0.000000
# 5 0.000000 0.000000 0.000000 0.000000 -0.471982 0.000000
# 6 0.000000 0.000000 0.000000 0.000000 0.000000 -0.016318
#
#
# Mechanical properties :
#
#
# Convention : Reuss Voigt Hill
#
# Bulk Modulus (GPa) = 62.23640 63.94504 63.09072
# Shear Modulus (GPa) = -11.27391 -9.93230 -10.60310
#
# Velocity S-wave (km/s) = -2.34761 -2.20351 -2.27670
# Velocity P-wave (km/s) = 4.80376 4.97854 4.89193
#
# Compressibility (1/GPa) = 0.01606777
#
# Stress axis : x y z
#
# Youngs Moduli (GPa) = 65.41407 88.86944 87.67910
#
# Poissons Ratio (x) = 0.33127 0.34501
# Poissons Ratio (y) = 0.24384 0.28724
# Poissons Ratio (z) = 0.25740 0.29114
#
# Static dielectric constant tensor:
#      x y z
#    x 1.816100 0.000000 0.000000 
#    y 0.000000 1.687070 0.000000 
#    z 0.000000 0.000000 1.983330 
# 
# From -- ./inp_files/32197.got.cif
#   From: 2010.05.17/outbox.cif.g08.bks.cpg/sg24_17_cif.got.tgz:32197.got - 2010.06.04 00:33:39.
