data_PCOD9334726
_publ_section_title
;
Structure prediction by ZEFSAII (Michael W. Deem and Ramdas Pophale) SiO2 
 PCOD9334726
Probable space group: I 21 21 21
;
_chemical_formula_sum "Si O2"
_cell_formula_units_Z 56
_cell_length_a 30.555283
_cell_length_b 5.242000
_cell_length_c 16.363408
_cell_angle_alpha 90.000000
_cell_angle_beta 90.000000
_cell_angle_gamma 90.000000
_cell_volume 2620.940043
_symmetry_space_group_name_H-M "I 21 21 21"
_symmetry_group_IT_number 24
_symmetry_cell_setting 'orthorhombic'
loop_
_space_group_symop_operation_xyz
x,y,z
-x,1/2-y,z
x,-y,1/2-z
1/2-x,y,-z
1/2+x,1/2+y,1/2+z
1/2-x,-y,1/2+z
1/2+x,1/2-y,-z
-x,1/2+y,1/2-z
loop_
_atom_site_type_symbol
_atom_site_label
_atom_site_fract_x
_atom_site_fract_y
_atom_site_fract_z
Si Si1 0.198445 0.625408 0.990139
Si Si2 0.357226 0.372440 0.335370
Si Si3 0.849815 0.616952 0.452574
Si Si4 0.093544 0.123991 0.892733
Si Si5 0.000000 0.750000 0.558661
Si Si6 0.937154 0.249480 0.298879
Si Si7 0.342276 0.249558 0.770338
Si Si8 0.500000 0.250000 0.551985
O O1 0.182593 0.675173 0.897424
O O2 0.250000 0.637007 0.000000
O O3 0.180563 0.344890 0.012779
O O4 0.175591 0.848025 0.043747
O O5 0.343027 0.500000 0.250000
O O6 0.386531 0.602401 0.370433
O O7 0.385829 0.110534 0.340723
O O8 0.890980 0.582425 0.513025
O O9 0.860070 0.715163 0.361732
O O10 0.041814 0.161926 0.889232
O O11 0.008052 0.501934 0.501884
O O12 0.950243 0.500000 0.250000
O O13 0.884303 0.240239 0.290483
O O14 0.958179 0.266893 0.387529
O O15 0.952282 0.000000 0.250000
O O16 0.316075 0.500000 0.750000
O O17 0.315473 0.000000 0.750000
#
# Coordination Sequence:
#
# PCOD9334726 Si02
#       8
#     8   8   8   8   4   8   8   4
#     4  10  21  40  67  98 128 161 205 254 320 390
#     4  10  21  43  71  98 124 166 208 260 320 398
#     4  10  21  38  60  86 126 173 207 258 318 383
#     4  10  23  40  63  92 128 161 217 265 327 390
#     4  12  26  39  60  89 126 166 224 276 340 373
#     4  10  21  35  49  73 110 154 224 265 314 349
#     4  10  21  33  53  77 115 166 216 249 301 360
#     4  12  24  35  56  79 116 170 222 290 316 367
#
# _framework density 21.366379999999999
#
# number of rings (size 3 to 8) (size 9 to 14) (size 15 to 20)
#    0.000    1.714    0.000    3.857    8.000    0.000 
#    0.000    3.571    0.000    1.714    0.000    0.000 
#    0.000    0.000    0.000    0.000    0.000    0.000 
#
# Total GULP energy -156242.039469 kJ/mol
# GULP energy per Si atom -5580.072838 kJ/mol
# Density = 2.131775 g / cm^3
# Si number density = 21.366380 Si / 1000 Ang^3
#
#
#
# Elastic Constant Matrix: (Units=GPa)
#
#
# Indices 1 2 3 4 5 6 
#
# 1 110.0519 22.2900 25.8529 0.0000 0.0000 0.0000
# 2 22.2900 168.5447 23.8959 0.0000 0.0000 0.0000
# 3 25.8529 23.8959 88.0364 0.0000 0.0000 0.0000
# 4 0.0000 0.0000 0.0000 41.7710 0.0000 0.0000
# 5 0.0000 0.0000 0.0000 0.0000 9.8825 0.0000
# 6 0.0000 0.0000 0.0000 0.0000 0.0000 28.0895
#
#
#
# Elastic Compliance Matrix: (Units=1/GPa)
#
#
# Indices 1 2 3 4 5 6 
#
# 1 0.009899 -0.000933 -0.002654 0.000000 0.000000 0.000000
# 2 -0.000933 0.006259 -0.001425 0.000000 0.000000 0.000000
# 3 -0.002654 -0.001425 0.012525 0.000000 0.000000 0.000000
# 4 0.000000 0.000000 0.000000 0.023940 0.000000 0.000000
# 5 0.000000 0.000000 0.000000 0.000000 0.101189 0.000000
# 6 0.000000 0.000000 0.000000 0.000000 0.000000 0.035600
#
#
# Mechanical properties :
#
#
# Convention : Reuss Voigt Hill
#
# Bulk Modulus (GPa) = 53.59168 56.74561 55.16865
# Shear Modulus (GPa) = 24.31258 35.58821 29.95040
#
# Velocity S-wave (km/s) = 3.37692 4.08562 3.74806
# Velocity P-wave (km/s) = 6.35150 6.99088 6.67885
#
# Compressibility (1/GPa) = 0.01865961
#
# Stress axis : x y z
#
# Youngs Moduli (GPa) = 101.02055 159.78205 79.84047
#
# Poissons Ratio (x) = 0.14906 0.21187
# Poissons Ratio (y) = 0.09424 0.11376
# Poissons Ratio (z) = 0.26808 0.22766
#
# Static dielectric constant tensor:
#      x y z
#    x 1.748310 0.000000 0.000000 
#    y 0.000000 1.859670 0.000000 
#    z 0.000000 0.000000 1.808310 
# 
# From -- ./inp_files/28258.got.cif
#   From: 2010.05.17/outbox.cif.g08.bks.cpg/sg24_15_cif.got.tgz:28258.got - 2010.06.04 00:33:39.
