data_PCOD9334611
_publ_section_title
;
Structure prediction by ZEFSAII (Michael W. Deem and Ramdas Pophale) SiO2 
 PCOD9334611
Probable space group: I 21 21 21
;
_chemical_formula_sum "Si O2"
_cell_formula_units_Z 36
_cell_length_a 13.547889
_cell_length_b 7.892427
_cell_length_c 16.828735
_cell_angle_alpha 90.000000
_cell_angle_beta 90.000000
_cell_angle_gamma 90.000000
_cell_volume 1799.424690
_symmetry_space_group_name_H-M "I 21 21 21"
_symmetry_group_IT_number 24
_symmetry_cell_setting 'orthorhombic'
loop_
_space_group_symop_operation_xyz
x,y,z
-x,1/2-y,z
x,-y,1/2-z
1/2-x,y,-z
1/2+x,1/2+y,1/2+z
1/2-x,-y,1/2+z
1/2+x,1/2-y,-z
-x,1/2+y,1/2-z
loop_
_atom_site_type_symbol
_atom_site_label
_atom_site_fract_x
_atom_site_fract_y
_atom_site_fract_z
Si Si1 0.906992 0.664590 0.441826
Si Si2 0.768438 0.447929 0.838385
Si Si3 0.837193 0.057905 0.838704
Si Si4 0.250000 0.562948 0.500000
Si Si5 0.036029 0.062372 0.590052
O O1 0.829736 0.556425 0.391175
O O2 0.841801 0.815658 0.478948
O O3 0.950256 0.551566 0.512355
O O4 0.000000 0.750000 0.397774
O O5 0.742959 0.500000 0.750000
O O6 0.812498 0.257346 0.841942
O O7 0.857133 0.565427 0.868803
O O8 0.808854 0.000000 0.750000
O O9 0.780458 0.977484 0.915985
O O10 0.952469 0.019949 0.853744
O O11 0.000000 0.250000 0.570307
#
# Coordination Sequence:
#
# PCOD9334611 Si02
#       5
#     8   8   8   4   8
#     4  11  20  43  67  89 125 178 214 259 336 392
#     4  11  23  42  63  93 131 171 214 269 327 388
#     4  11  22  40  65  97 126 171 216 272 330 387
#     4  10  20  40  70  88 132 170 214 264 326 396
#     4  12  22  38  64  98 130 165 217 275 325 383
#
# _framework density 20.006394
#
# number of rings (size 3 to 8) (size 9 to 14) (size 15 to 20)
#    0.000    0.889    6.667    2.667    0.000    0.000 
#    8.000    5.556    0.000    0.000    0.000    0.000 
#    0.000    0.000    0.000    0.000    0.000    0.000 
#
# Total GULP energy -100500.672564 kJ/mol
# GULP energy per Si atom -5583.370698 kJ/mol
# Density = 1.996086 g / cm^3
# Si number density = 20.006394 Si / 1000 Ang^3
#
#
#
# Elastic Constant Matrix: (Units=GPa)
#
#
# Indices 1 2 3 4 5 6 
#
# 1 114.8645 22.7699 57.3217 0.0000 0.0000 0.0000
# 2 22.7699 34.4642 11.9622 0.0000 0.0000 0.0000
# 3 57.3217 11.9622 146.7206 0.0000 0.0000 0.0000
# 4 0.0000 0.0000 0.0000 29.3567 0.0000 0.0000
# 5 0.0000 0.0000 0.0000 0.0000 36.8968 0.0000
# 6 0.0000 0.0000 0.0000 0.0000 0.0000 20.5704
#
#
#
# Elastic Compliance Matrix: (Units=1/GPa)
#
#
# Indices 1 2 3 4 5 6 
#
# 1 0.012093 -0.006535 -0.004192 0.000000 0.000000 0.000000
# 2 -0.006535 0.033392 -0.000169 0.000000 0.000000 0.000000
# 3 -0.004192 -0.000169 0.008467 0.000000 0.000000 0.000000
# 4 0.000000 0.000000 0.000000 0.034064 0.000000 0.000000
# 5 0.000000 0.000000 0.000000 0.000000 0.027103 0.000000
# 6 0.000000 0.000000 0.000000 0.000000 0.000000 0.048614
#
#
# Mechanical properties :
#
#
# Convention : Reuss Voigt Hill
#
# Bulk Modulus (GPa) = 31.09443 53.35077 42.22260
# Shear Modulus (GPa) = 25.47843 30.96448 28.22145
#
# Velocity S-wave (km/s) = 3.57251 3.93839 3.75990
# Velocity P-wave (km/s) = 5.70903 6.88520 6.32451
#
# Compressibility (1/GPa) = 0.03216010
#
# Stress axis : x y z
#
# Youngs Moduli (GPa) = 82.69101 29.94743 118.10303
#
# Poissons Ratio (x) = 0.19570 0.49507
# Poissons Ratio (y) = 0.54037 0.02001
# Poissons Ratio (z) = 0.34663 0.00507
#
# Static dielectric constant tensor:
#      x y z
#    x 1.728270 0.000000 0.000000 
#    y 0.000000 1.722690 0.000000 
#    z 0.000000 0.000000 1.738550 
# 
# From -- ./inp_files/30568.got.cif
#   From: 2010.05.17/outbox.cif.g08.bks.cpg/sg24_16_cif.got.tgz:30568.got - 2010.06.04 00:33:39.
