data_PCOD9334641
_publ_section_title
;
Structure prediction by ZEFSAII (Michael W. Deem and Ramdas Pophale) SiO2 
 PCOD9334641
Probable space group: I 21 21 21
;
_chemical_formula_sum "Si O2"
_cell_formula_units_Z 40
_cell_length_a 22.156281
_cell_length_b 10.989571
_cell_length_c 7.436679
_cell_angle_alpha 90.000000
_cell_angle_beta 90.000000
_cell_angle_gamma 90.000000
_cell_volume 1810.742268
_symmetry_space_group_name_H-M "I 21 21 21"
_symmetry_group_IT_number 24
_symmetry_cell_setting 'orthorhombic'
loop_
_space_group_symop_operation_xyz
x,y,z
-x,1/2-y,z
x,-y,1/2-z
1/2-x,y,-z
1/2+x,1/2+y,1/2+z
1/2-x,-y,1/2+z
1/2+x,1/2-y,-z
-x,1/2+y,1/2-z
loop_
_atom_site_type_symbol
_atom_site_label
_atom_site_fract_x
_atom_site_fract_y
_atom_site_fract_z
Si Si1 0.436144 0.249224 0.113778
Si Si2 0.811215 0.251001 0.104655
Si Si3 0.681066 0.358514 0.517569
Si Si4 0.398906 0.000000 0.250000
Si Si5 0.659994 0.000000 0.750000
Si Si6 0.369063 0.604160 0.120014
O O1 0.500000 0.250000 0.011617
O O2 0.436082 0.117397 0.202153
O O3 0.427602 0.348431 0.272318
O O4 0.372737 0.258647 0.009340
O O5 0.827968 0.336487 0.271936
O O6 0.801416 0.115416 0.185469
O O7 0.750000 0.286569 0.000000
O O8 0.750000 0.392322 0.500000
O O9 0.641807 0.459253 0.418659
O O10 0.669041 0.227939 0.417265
O O11 0.622320 0.045598 0.576840
O O12 0.341388 0.500000 0.250000
#
# Coordination Sequence:
#
# PCOD9334641 Si02
#       6
#     8   8   8   4   4   8
#     4  11  25  44  70  99 139 187 237 287 361 421
#     4  11  23  41  67 106 143 182 234 288 354 423
#     4  10  23  42  67 103 139 181 237 285 349 419
#     4  10  24  44  67  94 133 192 234 292 350 416
#     4  10  22  36  67 106 143 182 230 288 356 420
#     4  10  20  41  67  97 140 180 227 289 351 413
#
# _framework density 22.090385999999999
#
# number of rings (size 3 to 8) (size 9 to 14) (size 15 to 20)
#    0.000    1.600    2.000    2.400    1.400    8.000 
#    1.800   11.000    0.000    0.000    0.000    0.000 
#    0.000    0.000    0.000    0.000    0.000    0.000 
#
# Total GULP energy -111629.219250 kJ/mol
# GULP energy per Si atom -5581.460963 kJ/mol
# Density = 2.204011 g / cm^3
# Si number density = 22.090386 Si / 1000 Ang^3
#
#
#
# Elastic Constant Matrix: (Units=GPa)
#
#
# Indices 1 2 3 4 5 6 
#
# 1 129.3684 7.8803 47.9587 0.0000 0.0000 0.0000
# 2 7.8803 74.7626 30.9353 0.0000 0.0000 0.0000
# 3 47.9587 30.9353 146.4361 0.0000 0.0000 0.0000
# 4 0.0000 0.0000 0.0000 41.3710 0.0000 0.0000
# 5 0.0000 0.0000 0.0000 0.0000 16.9275 0.0000
# 6 0.0000 0.0000 0.0000 0.0000 0.0000 -7.8532
#
#
#
# Elastic Compliance Matrix: (Units=1/GPa)
#
#
# Indices 1 2 3 4 5 6 
#
# 1 0.008804 0.000290 -0.002945 0.000000 0.000000 0.000000
# 2 0.000290 0.014666 -0.003193 0.000000 0.000000 0.000000
# 3 -0.002945 -0.003193 0.008468 0.000000 0.000000 0.000000
# 4 0.000000 0.000000 0.000000 0.024171 0.000000 0.000000
# 5 0.000000 0.000000 0.000000 0.000000 0.059076 0.000000
# 6 0.000000 0.000000 0.000000 0.000000 0.000000 -0.127337
#
#
# Mechanical properties :
#
#
# Convention : Reuss Voigt Hill
#
# Bulk Modulus (GPa) = 49.40013 58.23506 53.81760
# Shear Modulus (GPa) = 794.72759 27.67525 411.20142
#
# Velocity S-wave (km/s) = 18.98796 3.54336 13.65830
# Velocity P-wave (km/s) = 22.43067 6.56962 16.52717
#
# Compressibility (1/GPa) = 0.02024286
#
# Stress axis : x y z
#
# Youngs Moduli (GPa) = 113.58736 68.18284 118.09234
#
# Poissons Ratio (x) = -0.01981 0.34774
# Poissons Ratio (y) = -0.03299 0.37713
# Poissons Ratio (z) = 0.33448 0.21774
#
# Static dielectric constant tensor:
#      x y z
#    x 1.820030 0.000000 0.000000 
#    y 0.000000 1.854100 0.000000 
#    z 0.000000 0.000000 1.918990 
# 
# From -- ./inp_files/14995.got.cif
#   From: 2010.05.17/outbox.cif.g08.bks.cpg/sg24_8_cif.got.tgz:14995.got - 2010.06.04 00:33:39.
