data_PCOD9334878
_publ_section_title
;
Structure prediction by ZEFSAII (Michael W. Deem and Ramdas Pophale) SiO2 
 PCOD9334878
Probable space group: I 21 21 21
;
_chemical_formula_sum "Si O2"
_cell_formula_units_Z 40
_cell_length_a 21.189514
_cell_length_b 7.347645
_cell_length_c 8.863278
_cell_angle_alpha 90.000000
_cell_angle_beta 90.000000
_cell_angle_gamma 90.000000
_cell_volume 1379.950577
_symmetry_space_group_name_H-M "I 21 21 21"
_symmetry_group_IT_number 24
_symmetry_cell_setting 'orthorhombic'
loop_
_space_group_symop_operation_xyz
x,y,z
-x,1/2-y,z
x,-y,1/2-z
1/2-x,y,-z
1/2+x,1/2+y,1/2+z
1/2-x,-y,1/2+z
1/2+x,1/2-y,-z
-x,1/2+y,1/2-z
loop_
_atom_site_type_symbol
_atom_site_label
_atom_site_fract_x
_atom_site_fract_y
_atom_site_fract_z
Si Si1 0.750000 0.104610 0.000000
Si Si2 0.243950 0.195318 0.313895
Si Si3 0.500000 0.250000 0.751519
Si Si4 0.115674 0.889507 0.072301
Si Si5 0.611317 0.819246 0.527379
Si Si6 0.930112 0.285458 0.715396
O O1 0.735178 0.180724 0.173038
O O2 0.675670 0.067252 0.958859
O O3 0.250000 0.225737 0.500000
O O4 0.168037 0.181631 0.314284
O O5 0.267515 0.000000 0.250000
O O6 0.546997 0.363933 0.644175
O O7 0.552243 0.153393 0.860137
O O8 0.118410 0.772107 0.920398
O O9 0.127503 0.100944 0.034455
O O10 0.583370 0.835239 0.359687
O O11 0.928878 0.500000 0.750000
O O12 0.000000 0.250000 0.660571
#
# Coordination Sequence:
#
# PCOD9334878 Si02
#       6
#     4   8   4   8   8   8
#     4  12  22  36  54  84 122 160 198 256 324 384
#     4  12  20  32  52  79 116 158 195 241 312 383
#     4  12  20  34  56  78 126 150 206 246 298 386
#     4  11  21  36  54  83 119 160 201 247 307 378
#     4  11  22  37  57  84 121 160 204 252 318 376
#     4  10  21  38  58  84 120 158 203 252 308 370
#
# _framework density 28.986549
#
# number of rings (size 3 to 8) (size 9 to 14) (size 15 to 20)
#    0.000    0.800    7.000    1.800    0.000    1.600 
#    0.000    0.000    0.000    0.000    0.000    2.800 
#   15.000    0.000    0.000    0.000    0.000    0.000 
#
# Total GULP energy -111614.459687 kJ/mol
# GULP energy per Si atom -5580.722984 kJ/mol
# Density = 2.892057 g / cm^3
# Si number density = 28.986549 Si / 1000 Ang^3
#
#
#
# Elastic Constant Matrix: (Units=GPa)
#
#
# Indices 1 2 3 4 5 6 
#
# 1 165.6019 39.4737 31.3503 0.0000 0.0000 0.0000
# 2 39.4737 92.3125 41.6606 0.0000 0.0000 0.0000
# 3 31.3503 41.6606 217.3945 0.0000 0.0000 0.0000
# 4 0.0000 0.0000 0.0000 38.5112 0.0000 0.0000
# 5 0.0000 0.0000 0.0000 0.0000 77.9015 0.0000
# 6 0.0000 0.0000 0.0000 0.0000 0.0000 24.2257
#
#
#
# Elastic Compliance Matrix: (Units=1/GPa)
#
#
# Indices 1 2 3 4 5 6 
#
# 1 0.006766 -0.002685 -0.000461 0.000000 0.000000 0.000000
# 2 -0.002685 0.012924 -0.002089 0.000000 0.000000 0.000000
# 3 -0.000461 -0.002089 0.005067 0.000000 0.000000 0.000000
# 4 0.000000 0.000000 0.000000 0.025966 0.000000 0.000000
# 5 0.000000 0.000000 0.000000 0.000000 0.012837 0.000000
# 6 0.000000 0.000000 0.000000 0.000000 0.000000 0.041278
#
#
# Mechanical properties :
#
#
# Convention : Reuss Voigt Hill
#
# Bulk Modulus (GPa) = 70.00201 77.80867 73.90534
# Shear Modulus (GPa) = 41.64189 52.31598 46.97893
#
# Velocity S-wave (km/s) = 3.79435 4.25295 4.03018
# Velocity P-wave (km/s) = 6.58775 7.14269 6.87082
#
# Compressibility (1/GPa) = 0.01428530
#
# Stress axis : x y z
#
# Youngs Moduli (GPa) = 147.79996 77.37607 197.36119
#
# Poissons Ratio (x) = 0.20776 0.09101
# Poissons Ratio (y) = 0.39685 0.41238
# Poissons Ratio (z) = 0.06816 0.16168
#
# Static dielectric constant tensor:
#      x y z
#    x 2.154260 0.000000 0.000000 
#    y 0.000000 2.289250 0.000000 
#    z 0.000000 0.000000 2.268410 
# 
# From -- ./inp_files/14991.got.cif
#   From: 2010.05.17/outbox.cif.g08.bks.cpg/sg24_8_cif.got.tgz:14991.got - 2010.06.04 00:33:39.
