data_PCOD9334954
_publ_section_title
;
Structure prediction by ZEFSAII (Michael W. Deem and Ramdas Pophale) SiO2 
 PCOD9334954
Probable space group: I 21 21 21
;
_chemical_formula_sum "Si O2"
_cell_formula_units_Z 40
_cell_length_a 7.521868
_cell_length_b 26.929523
_cell_length_c 8.845338
_cell_angle_alpha 90.000000
_cell_angle_beta 90.000000
_cell_angle_gamma 90.000000
_cell_volume 1791.714472
_symmetry_space_group_name_H-M "I 21 21 21"
_symmetry_group_IT_number 24
_symmetry_cell_setting 'orthorhombic'
loop_
_space_group_symop_operation_xyz
x,y,z
-x,1/2-y,z
x,-y,1/2-z
1/2-x,y,-z
1/2+x,1/2+y,1/2+z
1/2-x,-y,1/2+z
1/2+x,1/2-y,-z
-x,1/2+y,1/2-z
loop_
_atom_site_type_symbol
_atom_site_label
_atom_site_fract_x
_atom_site_fract_y
_atom_site_fract_z
Si Si1 0.455828 0.914431 0.956673
Si Si2 0.250000 0.668577 0.500000
Si Si3 0.214540 0.814074 0.162570
Si Si4 0.500000 0.750000 0.611750
Si Si5 0.250000 0.062942 0.000000
Si Si6 0.544359 0.500000 0.750000
Si Si7 0.522983 0.881475 0.278505
O O1 0.418645 0.861295 0.871952
O O2 0.541423 0.956241 0.850538
O O3 0.250000 0.928777 0.000000
O O4 0.547955 0.910092 0.120063
O O5 0.415577 0.705085 0.520636
O O6 0.295366 0.635529 0.355320
O O7 0.397134 0.836732 0.223250
O O8 0.143842 0.775129 0.280484
O O9 0.250000 0.790299 0.000000
O O10 0.159545 0.030690 0.129880
O O11 0.403421 0.092943 0.090125
#
# Coordination Sequence:
#
# PCOD9334954 Si02
#       7
#     8   4   8   4   4   4   8
#     4   9  18  35  56  98 131 161 206 270 321 371
#     4  12  26  39  64  88 132 176 218 267 328 388
#     4   9  20  39  62  90 129 159 213 274 322 387
#     4  12  24  40  62  96 120 172 222 264 328 394
#     4  12  18  33  64  96 132 154 226 263 312 388
#     4  12  18  30  66 106 122 170 214 278 306 382
#     4  10  21  39  58  88 133 168 210 270 324 382
#
# _framework density 22.324985999999999
#
# number of rings (size 3 to 8) (size 9 to 14) (size 15 to 20)
#    0.000    2.000    5.000    2.400    0.000    3.200 
#    0.000    0.000    0.000    3.600    0.000    0.000 
#    0.000    0.000    0.000    0.000    0.000    0.000 
#
# Total GULP energy -111611.028101 kJ/mol
# GULP energy per Si atom -5580.551405 kJ/mol
# Density = 2.227417 g / cm^3
# Si number density = 22.324986 Si / 1000 Ang^3
#
#
#
# Elastic Constant Matrix: (Units=GPa)
#
#
# Indices 1 2 3 4 5 6 
#
# 1 38.2329 6.3966 30.0770 -0.0001 0.0000 -0.0001
# 2 6.3966 44.2473 37.9865 -0.0002 0.0000 -0.0001
# 3 30.0770 37.9865 150.8308 -0.0005 -0.0001 -0.0008
# 4 -0.0001 -0.0002 -0.0005 88.4852 -0.0002 0.0002
# 5 0.0000 0.0000 -0.0001 -0.0002 35.1817 0.0001
# 6 -0.0001 -0.0001 -0.0008 0.0002 0.0001 29.5649
#
#
#
# Elastic Compliance Matrix: (Units=1/GPa)
#
#
# Indices 1 2 3 4 5 6 
#
# 1 0.031061 0.001055 -0.006460 0.000000 0.000000 0.000000
# 2 0.001055 0.028870 -0.007481 0.000000 0.000000 0.000000
# 3 -0.006460 -0.007481 0.009802 0.000000 0.000000 0.000000
# 4 0.000000 0.000000 0.000000 0.011301 0.000000 0.000000
# 5 0.000000 0.000000 0.000000 0.000000 0.028424 0.000000
# 6 0.000000 0.000000 0.000000 0.000000 0.000000 0.033824
#
#
# Mechanical properties :
#
#
# Convention : Reuss Voigt Hill
#
# Bulk Modulus (GPa) = 22.74699 42.47014 32.60857
# Shear Modulus (GPa) = 27.21717 41.23644 34.22681
#
# Velocity S-wave (km/s) = 3.49540 4.30245 3.91975
# Velocity P-wave (km/s) = 5.14797 6.61410 5.92655
#
# Compressibility (1/GPa) = 0.04396187
#
# Stress axis : x y z
#
# Youngs Moduli (GPa) = 32.19522 34.63744 102.01782
#
# Poissons Ratio (x) = -0.03655 0.65899
# Poissons Ratio (y) = -0.03397 0.76324
# Poissons Ratio (z) = 0.20797 0.25914
#
# Static dielectric constant tensor:
#      x y z
#    x 1.827180 0.000000 0.000000 
#    y 0.000000 1.846090 0.000000 
#    z 0.000000 0.000000 1.854930 
# 
# From -- ./inp_files/9553.got.cif
#   From: 2010.05.17/outbox.cif.g08.bks.cpg/sg24_5_cif.got.tgz:9553.got - 2010.06.04 00:33:39.
