data_PCOD9334963
_publ_section_title
;
Structure prediction by ZEFSAII (Michael W. Deem and Ramdas Pophale) SiO2 
 PCOD9334963
Probable space group: I 21 21 21
;
_chemical_formula_sum "Si O2"
_cell_formula_units_Z 48
_cell_length_a 20.453714
_cell_length_b 24.080332
_cell_length_c 5.085180
_cell_angle_alpha 90.000000
_cell_angle_beta 90.000000
_cell_angle_gamma 90.000000
_cell_volume 2504.615014
_symmetry_space_group_name_H-M "I 21 21 21"
_symmetry_group_IT_number 24
_symmetry_cell_setting 'orthorhombic'
loop_
_space_group_symop_operation_xyz
x,y,z
-x,1/2-y,z
x,-y,1/2-z
1/2-x,y,-z
1/2+x,1/2+y,1/2+z
1/2-x,-y,1/2+z
1/2+x,1/2-y,-z
-x,1/2+y,1/2-z
loop_
_atom_site_type_symbol
_atom_site_label
_atom_site_fract_x
_atom_site_fract_y
_atom_site_fract_z
Si Si1 0.828139 0.961819 0.000305
Si Si2 0.296828 0.059998 0.751602
Si Si3 0.480086 0.685056 0.493468
Si Si4 0.376431 0.830887 0.620287
Si Si5 0.605467 0.158264 0.498691
Si Si6 0.823851 0.731464 0.898812
O O1 0.843471 0.000000 0.250000
O O2 0.750000 0.950574 0.000000
O O3 0.865321 0.903382 0.004083
O O4 0.843564 0.000000 0.750000
O O5 0.250000 0.067698 0.500000
O O6 0.341397 0.112542 0.799910
O O7 0.331842 0.000000 0.750000
O O8 0.250000 0.056471 0.000000
O O9 0.500000 0.750000 0.479893
O O10 0.549167 0.656603 0.549380
O O11 0.450415 0.665142 0.219969
O O12 0.427055 0.673957 0.721695
O O13 0.340515 0.798317 0.378627
O O14 0.371825 0.793453 0.880484
O O15 0.660109 0.203115 0.405868
O O16 0.750000 0.721058 0.000000
#
# Coordination Sequence:
#
# PCOD9334963 Si02
#       6
#     8   8   8   8   8   8
#     4  10  22  42  67  94 127 167 211 264 323 375
#     4  10  21  39  61  84 115 154 197 248 304 356
#     4  12  23  41  61  89 127 173 201 248 308 377
#     4  12  23  38  59  88 122 158 204 242 308 367
#     4  12  23  41  63  91 124 164 213 249 312 373
#     4  12  23  36  60  91 122 150 195 260 309 365
#
# _framework density 19.164619999999999
#
# number of rings (size 3 to 8) (size 9 to 14) (size 15 to 20)
#    0.000    0.667    3.333    6.000    0.000    0.000 
#    0.000    7.500    0.000    0.000    0.000    0.000 
#    0.000    0.000    0.000    0.000    0.000    0.000 
#
# Total GULP energy -134124.522711 kJ/mol
# GULP energy per Si atom -5588.521780 kJ/mol
# Density = 1.912100 g / cm^3
# Si number density = 19.164620 Si / 1000 Ang^3
#
#
#
# Elastic Constant Matrix: (Units=GPa)
#
#
# Indices 1 2 3 4 5 6 
#
# 1 42.7467 35.5038 1.2606 0.0000 0.0000 0.0000
# 2 35.5038 181.0912 44.0800 0.0000 0.0000 0.0000
# 3 1.2606 44.0800 118.7753 0.0000 0.0000 0.0000
# 4 0.0000 0.0000 0.0000 -1.2734 0.0000 0.0000
# 5 0.0000 0.0000 0.0000 0.0000 -20.7641 0.0000
# 6 0.0000 0.0000 0.0000 0.0000 0.0000 28.8128
#
#
#
# Elastic Compliance Matrix: (Units=1/GPa)
#
#
# Indices 1 2 3 4 5 6 
#
# 1 0.028343 -0.006028 0.001936 0.000000 0.000000 0.000000
# 2 -0.006028 0.007353 -0.002665 0.000000 0.000000 0.000000
# 3 0.001936 -0.002665 0.009388 0.000000 0.000000 0.000000
# 4 0.000000 0.000000 0.000000 -0.785285 0.000000 0.000000
# 5 0.000000 0.000000 0.000000 0.000000 -0.048160 0.000000
# 6 0.000000 0.000000 0.000000 0.000000 0.000000 0.034707
#
#
# Mechanical properties :
#
#
# Convention : Reuss Voigt Hill
#
# Bulk Modulus (GPa) = 31.67519 56.03357 43.85438
# Shear Modulus (GPa) = -6.85289 18.80631 5.97671
#
# Velocity S-wave (km/s) = -1.89303 3.13597 1.76788
# Velocity P-wave (km/s) = 3.43304 6.51260 5.20575
#
# Compressibility (1/GPa) = 0.03157045
#
# Stress axis : x y z
#
# Youngs Moduli (GPa) = 35.28173 136.00704 106.52305
#
# Poissons Ratio (x) = 0.81988 -0.20627
# Poissons Ratio (y) = 0.21268 0.28385
# Poissons Ratio (z) = -0.06832 0.36242
#
# Static dielectric constant tensor:
#      x y z
#    x 1.672910 0.000000 0.000000 
#    y 0.000000 1.712260 0.000000 
#    z 0.000000 0.000000 1.661320 
# 
# From -- ./inp_files/5619.got.cif
#   From: 2010.05.17/outbox.cif.g08.bks.cpg/sg24_3_cif.got.tgz:5619.got - 2010.06.04 00:33:39.
