data_PCOD9334144
_publ_section_title
;
Structure prediction by ZEFSAII (Michael W. Deem and Ramdas Pophale) SiO2 
 PCOD9334144
Probable space group: I 21 21 21
;
_chemical_formula_sum "Si O2"
_cell_formula_units_Z 60
_cell_length_a 5.694806
_cell_length_b 15.879630
_cell_length_c 34.959015
_cell_angle_alpha 90.000000
_cell_angle_beta 90.000000
_cell_angle_gamma 90.000000
_cell_volume 3161.393096
_symmetry_space_group_name_H-M "I 21 21 21"
_symmetry_group_IT_number 24
_symmetry_cell_setting 'orthorhombic'
loop_
_space_group_symop_operation_xyz
x,y,z
-x,1/2-y,z
x,-y,1/2-z
1/2-x,y,-z
1/2+x,1/2+y,1/2+z
1/2-x,-y,1/2+z
1/2+x,1/2-y,-z
-x,1/2+y,1/2-z
loop_
_atom_site_type_symbol
_atom_site_label
_atom_site_fract_x
_atom_site_fract_y
_atom_site_fract_z
Si Si1 0.083529 0.425571 0.274693
Si Si2 0.212248 0.091789 0.140514
Si Si3 0.500000 0.250000 0.146684
Si Si4 0.566132 0.057807 0.344175
Si Si5 0.999815 0.847910 0.022588
Si Si6 0.041099 0.452196 0.401280
Si Si7 0.828529 0.330022 0.336977
Si Si8 0.137301 0.666463 0.297424
O O1 0.970673 0.500000 0.250000
O O2 0.253732 0.452694 0.309110
O O3 0.220783 0.376934 0.241302
O O4 0.893090 0.369213 0.295855
O O5 0.337580 0.178601 0.127019
O O6 0.042245 0.114710 0.175807
O O7 0.389297 0.020613 0.156251
O O8 0.066139 0.044078 0.107429
O O9 0.339987 0.305904 0.174266
O O10 0.695304 0.050566 0.384955
O O11 0.450061 0.150921 0.339995
O O12 0.990737 0.914365 0.057055
O O13 0.000000 0.750000 0.036450
O O14 0.750000 0.857172 0.000000
O O15 0.250000 0.858489 0.000000
O O16 0.912443 0.389091 0.371866
O O17 0.000000 0.250000 0.340221
O O18 0.000000 0.750000 0.285178
#
# Coordination Sequence:
#
# PCOD9334144 Si02
#       8
#     8   8   4   8   8   8   8   8
#     4  11  21  33  48  72 103 147 197 250 310 359
#     4  10  20  37  56  81 114 146 197 246 307 355
#     4  10  20  36  58  80 108 146 194 252 312 368
#     4  10  22  36  54  77 110 154 196 246 302 368
#     4  10  23  42  65  98 134 170 206 245 297 361
#     4  10  21  37  60  85 120 154 195 244 289 358
#     4  10  22  37  52  76 107 151 203 249 303 361
#     4  10  21  35  52  75 107 141 190 251 303 361
#
# _framework density 18.978974000000001
#
# number of rings (size 3 to 8) (size 9 to 14) (size 15 to 20)
#    0.000    1.867    0.000    4.800    3.733    6.933 
#    2.400    1.333    0.000    0.000    0.000    0.000 
#   10.000    0.000    0.000    0.000    0.000    0.000 
#
# Total GULP energy -167054.916931 kJ/mol
# GULP energy per Si atom -5568.497231 kJ/mol
# Density = 1.893578 g / cm^3
# Si number density = 18.978974 Si / 1000 Ang^3
#
#
#
# Elastic Constant Matrix: (Units=GPa)
#
#
# Indices 1 2 3 4 5 6 
#
# 1 82.3758 35.5510 31.3787 0.0000 0.0000 0.0000
# 2 35.5510 106.6697 49.4144 0.0000 0.0000 0.0000
# 3 31.3787 49.4144 76.3260 0.0000 0.0000 0.0000
# 4 0.0000 0.0000 0.0000 20.2477 0.0000 0.0000
# 5 0.0000 0.0000 0.0000 0.0000 -8.3566 0.0000
# 6 0.0000 0.0000 0.0000 0.0000 0.0000 38.1736
#
#
#
# Elastic Compliance Matrix: (Units=1/GPa)
#
#
# Indices 1 2 3 4 5 6 
#
# 1 0.015068 -0.003074 -0.004204 0.000000 0.000000 0.000000
# 2 -0.003074 0.014018 -0.007812 0.000000 0.000000 0.000000
# 3 -0.004204 -0.007812 0.019887 0.000000 0.000000 0.000000
# 4 0.000000 0.000000 0.000000 0.049388 0.000000 0.000000
# 5 0.000000 0.000000 0.000000 0.000000 -0.119666 0.000000
# 6 0.000000 0.000000 0.000000 0.000000 0.000000 0.026196
#
#
# Mechanical properties :
#
#
# Convention : Reuss Voigt Hill
#
# Bulk Modulus (GPa) = 53.21112 55.33998 54.27555
# Shear Modulus (GPa) = 120.96001 19.94810 70.45406
#
# Velocity S-wave (km/s) = 7.99200 3.24553 6.09941
# Velocity P-wave (km/s) = 10.64239 6.57773 8.84666
#
# Compressibility (1/GPa) = 0.01879306
#
# Stress axis : x y z
#
# Youngs Moduli (GPa) = 66.36713 71.33688 50.28286
#
# Poissons Ratio (x) = 0.21930 0.21140
# Poissons Ratio (y) = 0.20402 0.39279
# Poissons Ratio (z) = 0.27903 0.55726
#
# Static dielectric constant tensor:
#      x y z
#    x 1.825340 0.000000 0.000000 
#    y 0.000000 1.768430 0.000000 
#    z 0.000000 0.000000 1.604250 
# 
# From -- ./inp_files/37997.got.cif
#   From: 2010.05.17/outbox.cif.g08.bks.cpg/sg24_19_cif.got.tgz:37997.got - 2010.06.04 00:33:39.
