data_PCOD9334570
_publ_section_title
;
Structure prediction by ZEFSAII (Michael W. Deem and Ramdas Pophale) SiO2 
 PCOD9334570
Probable space group: I 21 21 21
;
_chemical_formula_sum "Si O2"
_cell_formula_units_Z 24
_cell_length_a 17.964991
_cell_length_b 11.928773
_cell_length_c 4.872572
_cell_angle_alpha 90.000000
_cell_angle_beta 90.000000
_cell_angle_gamma 90.000000
_cell_volume 1044.193639
_symmetry_space_group_name_H-M "I 21 21 21"
_symmetry_group_IT_number 24
_symmetry_cell_setting 'orthorhombic'
loop_
_space_group_symop_operation_xyz
x,y,z
-x,1/2-y,z
x,-y,1/2-z
1/2-x,y,-z
1/2+x,1/2+y,1/2+z
1/2-x,-y,1/2+z
1/2+x,1/2-y,-z
-x,1/2+y,1/2-z
loop_
_atom_site_type_symbol
_atom_site_label
_atom_site_fract_x
_atom_site_fract_y
_atom_site_fract_z
Si Si1 0.650088 0.763162 0.158072
Si Si2 0.500000 0.250000 0.586585
Si Si3 0.367977 0.873806 0.668064
Si Si4 0.750000 0.069902 0.000000
O O1 0.565407 0.801712 0.097970
O O2 0.647482 0.655240 0.355836
O O3 0.692291 0.857532 0.324103
O O4 0.675697 0.715839 0.862245
O O5 0.453705 0.159760 0.762888
O O6 0.351854 0.000000 0.750000
O O7 0.712368 0.000000 0.750000
#
# Coordination Sequence:
#
# PCOD9334570 Si02
#       4
#     8   4   8   4
#     4  10  22  43  62  98 138 169 227 278 318 416
#     4   8  22  38  64 100 140 170 214 294 308 426
#     4  10  20  40  65  95 136 173 219 277 341 382
#     4  12  26  48  68  98 136 186 222 278 350 398
#
# _framework density 22.984245000000001
#
# number of rings (size 3 to 8) (size 9 to 14) (size 15 to 20)
#    2.000    0.000    0.000    4.000    0.000    0.000 
#   12.000    3.333    0.000    0.000    0.000    0.000 
#    0.000    0.000    0.000    0.000    0.000    0.000 
#
# Total GULP energy -66901.640741 kJ/mol
# GULP energy per Si atom -5575.136728 kJ/mol
# Density = 2.293193 g / cm^3
# Si number density = 22.984245 Si / 1000 Ang^3
#
#
#
# Elastic Constant Matrix: (Units=GPa)
#
#
# Indices 1 2 3 4 5 6 
#
# 1 66.5509 11.9727 11.7616 0.0000 0.0000 0.0000
# 2 11.9727 67.0265 12.9562 0.0000 0.0000 0.0000
# 3 11.7616 12.9562 119.8550 0.0000 0.0000 0.0000
# 4 0.0000 0.0000 0.0000 34.1027 0.0000 0.0000
# 5 0.0000 0.0000 0.0000 0.0000 40.2755 0.0000
# 6 0.0000 0.0000 0.0000 0.0000 0.0000 16.3208
#
#
#
# Elastic Compliance Matrix: (Units=1/GPa)
#
#
# Indices 1 2 3 4 5 6 
#
# 1 0.015710 -0.002562 -0.001265 0.000000 0.000000 0.000000
# 2 -0.002562 0.015656 -0.001441 0.000000 0.000000 0.000000
# 3 -0.001265 -0.001441 0.008623 0.000000 0.000000 0.000000
# 4 0.000000 0.000000 0.000000 0.029323 0.000000 0.000000
# 5 0.000000 0.000000 0.000000 0.000000 0.024829 0.000000
# 6 0.000000 0.000000 0.000000 0.000000 0.000000 0.061272
#
#
# Mechanical properties :
#
#
# Convention : Reuss Voigt Hill
#
# Bulk Modulus (GPa) = 33.95090 36.31260 35.13175
# Shear Modulus (GPa) = 28.44685 32.58926 30.51806
#
# Velocity S-wave (km/s) = 3.52187 3.76958 3.64783
# Velocity P-wave (km/s) = 5.59835 5.89742 5.74983
#
# Compressibility (1/GPa) = 0.02945430
#
# Stress axis : x y z
#
# Youngs Moduli (GPa) = 63.65170 63.87488 115.96496
#
# Poissons Ratio (x) = 0.16364 0.14667
# Poissons Ratio (y) = 0.16306 0.16710
# Poissons Ratio (z) = 0.08050 0.09204
#
# Static dielectric constant tensor:
#      x y z
#    x 1.928630 0.000000 0.000000 
#    y 0.000000 1.881930 0.000000 
#    z 0.000000 0.000000 1.837110 
# 
# From -- ./inp_files/1744.got.cif
#   From: 2010.05.17/outbox.cif.g08.bks.cpg/sg24_1_cif.got.tgz:1744.got - 2010.06.04 00:33:39.
