data_PCOD9334332
_publ_section_title
;
Structure prediction by ZEFSAII (Michael W. Deem and Ramdas Pophale) SiO2 
 PCOD9334332
Probable space group: I 21 21 21
;
_chemical_formula_sum "Si O2"
_cell_formula_units_Z 24
_cell_length_a 9.235987
_cell_length_b 6.871351
_cell_length_c 19.737887
_cell_angle_alpha 90.000000
_cell_angle_beta 90.000000
_cell_angle_gamma 90.000000
_cell_volume 1252.639507
_symmetry_space_group_name_H-M "I 21 21 21"
_symmetry_group_IT_number 24
_symmetry_cell_setting 'orthorhombic'
loop_
_space_group_symop_operation_xyz
x,y,z
-x,1/2-y,z
x,-y,1/2-z
1/2-x,y,-z
1/2+x,1/2+y,1/2+z
1/2-x,-y,1/2+z
1/2+x,1/2-y,-z
-x,1/2+y,1/2-z
loop_
_atom_site_type_symbol
_atom_site_label
_atom_site_fract_x
_atom_site_fract_y
_atom_site_fract_z
Si Si1 0.160636 0.168756 0.565064
Si Si2 0.872438 0.599045 0.181585
Si Si3 0.500000 0.750000 0.592430
Si Si4 0.250000 0.213917 0.000000
O O1 0.250000 0.248161 0.500000
O O2 0.250908 0.195606 0.633923
O O3 0.000000 0.250000 0.567832
O O4 0.161459 0.936817 0.548287
O O5 0.814754 0.500000 0.250000
O O6 0.000000 0.750000 0.198831
O O7 0.943066 0.428134 0.136514
O O8 0.367216 0.679908 0.545463
#
# Coordination Sequence:
#
# PCOD9334332 Si02
#       4
#     8   8   4   4
#     4   9  19  36  59  90 116 151 198 245 297 346
#     4  11  22  38  62  84 118 162 196 243 297 355
#     4  10  20  38  56  90 118 146 200 236 296 350
#     4   8  20  32  60  88 116 150 184 252 290 350
#
# _framework density 19.159544
#
# number of rings (size 3 to 8) (size 9 to 14) (size 15 to 20)
#    1.000    1.333    1.667    1.000    0.000    2.667 
#    0.000    1.667   14.667    0.000    0.000    0.000 
#    0.000    0.000    0.000    0.000    0.000    0.000 
#
# Total GULP energy -66885.509291 kJ/mol
# GULP energy per Si atom -5573.792441 kJ/mol
# Density = 1.911594 g / cm^3
# Si number density = 19.159544 Si / 1000 Ang^3
#
#
#
# Elastic Constant Matrix: (Units=GPa)
#
#
# Indices 1 2 3 4 5 6 
#
# 1 141.6668 25.6543 76.0696 0.0000 0.0000 0.0000
# 2 25.6543 29.8218 12.5544 0.0000 0.0000 0.0000
# 3 76.0696 12.5544 135.7493 0.0000 0.0000 0.0000
# 4 0.0000 0.0000 0.0000 -6.2455 0.0000 0.0000
# 5 0.0000 0.0000 0.0000 0.0000 33.1047 0.0000
# 6 0.0000 0.0000 0.0000 0.0000 0.0000 22.4258
#
#
#
# Elastic Compliance Matrix: (Units=1/GPa)
#
#
# Indices 1 2 3 4 5 6 
#
# 1 0.011502 -0.007472 -0.005754 0.000000 0.000000 0.000000
# 2 -0.007472 0.039745 0.000511 0.000000 0.000000 0.000000
# 3 -0.005754 0.000511 0.010544 0.000000 0.000000 0.000000
# 4 0.000000 0.000000 0.000000 -0.160115 0.000000 0.000000
# 5 0.000000 0.000000 0.000000 0.000000 0.030207 0.000000
# 6 0.000000 0.000000 0.000000 0.000000 0.000000 0.044591
#
#
# Mechanical properties :
#
#
# Convention : Reuss Voigt Hill
#
# Bulk Modulus (GPa) = 27.50216 59.53274 43.51745
# Shear Modulus (GPa) = 356.54929 22.72098 189.63513
#
# Velocity S-wave (km/s) = 13.65646 3.44740 9.95950
# Velocity P-wave (km/s) = 16.21883 6.85461 12.45063
#
# Compressibility (1/GPa) = 0.03636079
#
# Stress axis : x y z
#
# Youngs Moduli (GPa) = 86.94394 25.16042 94.84359
#
# Poissons Ratio (x) = 0.18800 0.54574
# Poissons Ratio (y) = 0.64964 -0.04850
# Poissons Ratio (z) = 0.50029 -0.01287
#
# Static dielectric constant tensor:
#      x y z
#    x 1.677750 0.000000 0.000000 
#    y 0.000000 1.716120 0.000000 
#    z 0.000000 0.000000 1.689820 
# 
# From -- ./inp_files/8729.got.cif
#   From: 2010.05.17/outbox.cif.g08.bks.cpg/sg24_5_cif.got.tgz:8729.got - 2010.06.04 00:33:39.
