data_PCOD9334929
_publ_section_title
;
Structure prediction by ZEFSAII (Michael W. Deem and Ramdas Pophale) SiO2 
 PCOD9334929
Probable space group: I 21 21 21
;
_chemical_formula_sum "Si O2"
_cell_formula_units_Z 32
_cell_length_a 14.546302
_cell_length_b 11.777154
_cell_length_c 8.802624
_cell_angle_alpha 90.000000
_cell_angle_beta 90.000000
_cell_angle_gamma 90.000000
_cell_volume 1508.013069
_symmetry_space_group_name_H-M "I 21 21 21"
_symmetry_group_IT_number 24
_symmetry_cell_setting 'orthorhombic'
loop_
_space_group_symop_operation_xyz
x,y,z
-x,1/2-y,z
x,-y,1/2-z
1/2-x,y,-z
1/2+x,1/2+y,1/2+z
1/2-x,-y,1/2+z
1/2+x,1/2-y,-z
-x,1/2+y,1/2-z
loop_
_atom_site_type_symbol
_atom_site_label
_atom_site_fract_x
_atom_site_fract_y
_atom_site_fract_z
Si Si1 0.306446 0.605759 0.654713
Si Si2 0.662787 0.510232 0.076569
Si Si3 0.399433 0.797638 0.861044
Si Si4 0.008383 0.882418 0.431715
O O1 0.265274 0.500000 0.750000
O O2 0.250000 0.635374 0.500000
O O3 0.333683 0.705820 0.775589
O O4 0.407676 0.569116 0.595439
O O5 0.685618 0.500000 0.250000
O O6 0.750000 0.450841 0.000000
O O7 0.648627 0.631414 0.993452
O O8 0.566868 0.448465 0.052079
O O9 0.500000 0.750000 0.913199
O O10 0.432829 0.878772 0.723622
O O11 0.000000 0.750000 0.474374
#
# Coordination Sequence:
#
# PCOD9334929 Si02
#       4
#     8   8   8   8
#     4  10  21  38  63  93 129 169 209 256 313 382
#     4  12  25  39  62  93 125 163 213 269 323 384
#     4   9  20  41  65  85 120 168 211 260 321 377
#     4   9  20  40  63  85 118 162 206 257 319 379
#
# _framework density 21.219974000000001
#
# number of rings (size 3 to 8) (size 9 to 14) (size 15 to 20)
#    0.000    2.500    0.000    5.250    0.000   11.000 
#    0.000    0.000    0.000    0.000    0.000    0.000 
#    0.000    0.000    0.000    0.000    0.000    0.000 
#
# Total GULP energy -89168.256204 kJ/mol
# GULP energy per Si atom -5573.016013 kJ/mol
# Density = 2.117168 g / cm^3
# Si number density = 21.219974 Si / 1000 Ang^3
#
#
#
# Elastic Constant Matrix: (Units=GPa)
#
#
# Indices 1 2 3 4 5 6 
#
# 1 77.7800 25.6594 48.4170 0.0000 0.0000 0.0000
# 2 25.6594 95.0901 36.7999 0.0000 0.0000 0.0000
# 3 48.4170 36.7999 131.4810 0.0000 0.0000 0.0000
# 4 0.0000 0.0000 0.0000 19.6717 0.0000 0.0000
# 5 0.0000 0.0000 0.0000 0.0000 34.9777 0.0000
# 6 0.0000 0.0000 0.0000 0.0000 0.0000 9.7688
#
#
#
# Elastic Compliance Matrix: (Units=1/GPa)
#
#
# Indices 1 2 3 4 5 6 
#
# 1 0.017176 -0.002453 -0.005638 0.000000 0.000000 0.000000
# 2 -0.002453 0.012144 -0.002496 0.000000 0.000000 0.000000
# 3 -0.005638 -0.002496 0.010380 0.000000 0.000000 0.000000
# 4 0.000000 0.000000 0.000000 0.050835 0.000000 0.000000
# 5 0.000000 0.000000 0.000000 0.000000 0.028590 0.000000
# 6 0.000000 0.000000 0.000000 0.000000 0.000000 0.102367
#
#
# Mechanical properties :
#
#
# Convention : Reuss Voigt Hill
#
# Bulk Modulus (GPa) = 53.97652 58.45598 56.21625
# Shear Modulus (GPa) = 20.09321 25.78195 22.93758
#
# Velocity S-wave (km/s) = 3.08051 3.48945 3.29134
# Velocity P-wave (km/s) = 6.17613 6.62136 6.40262
#
# Compressibility (1/GPa) = 0.01852658
#
# Stress axis : x y z
#
# Youngs Moduli (GPa) = 58.22172 82.34489 96.33456
#
# Poissons Ratio (x) = 0.20197 0.54317
# Poissons Ratio (y) = 0.14280 0.24043
# Poissons Ratio (z) = 0.32828 0.20551
#
# Static dielectric constant tensor:
#      x y z
#    x 1.840680 0.000000 0.000000 
#    y 0.000000 1.838820 0.000000 
#    z 0.000000 0.000000 1.756570 
# 
# From -- ./inp_files/10217.got.cif
#   From: 2010.05.17/outbox.cif.g08.bks.cpg/sg24_6_cif.got.tgz:10217.got - 2010.06.04 00:33:39.
