data_PCOD9334582
_publ_section_title
;
Structure prediction by ZEFSAII (Michael W. Deem and Ramdas Pophale) SiO2 
 PCOD9334582
Probable space group: I 21 21 21
;
_chemical_formula_sum "Si O2"
_cell_formula_units_Z 40
_cell_length_a 5.243183
_cell_length_b 25.780259
_cell_length_c 13.708512
_cell_angle_alpha 90.000000
_cell_angle_beta 90.000000
_cell_angle_gamma 90.000000
_cell_volume 1852.988008
_symmetry_space_group_name_H-M "I 21 21 21"
_symmetry_group_IT_number 24
_symmetry_cell_setting 'orthorhombic'
loop_
_space_group_symop_operation_xyz
x,y,z
-x,1/2-y,z
x,-y,1/2-z
1/2-x,y,-z
1/2+x,1/2+y,1/2+z
1/2-x,-y,1/2+z
1/2+x,1/2-y,-z
-x,1/2+y,1/2-z
loop_
_atom_site_type_symbol
_atom_site_label
_atom_site_fract_x
_atom_site_fract_y
_atom_site_fract_z
Si Si1 0.051503 0.369604 0.743058
Si Si2 0.250000 0.216202 0.000000
Si Si3 0.929846 0.310113 0.208661
Si Si4 0.021929 0.000000 0.250000
Si Si5 0.118863 0.053517 0.596261
Si Si6 0.146742 0.445623 0.900903
O O1 0.318607 0.342675 0.766833
O O2 0.986672 0.405854 0.836714
O O3 0.816646 0.330069 0.732804
O O4 0.068685 0.406215 0.648127
O O5 0.500000 0.250000 0.031479
O O6 0.149318 0.186234 0.094527
O O7 0.000000 0.250000 0.225391
O O8 0.855878 0.034177 0.176091
O O9 0.187009 0.037401 0.318234
O O10 0.250000 0.075138 0.500000
O O11 0.994277 0.998476 0.568341
O O12 0.250000 0.421179 0.000000
#
# Coordination Sequence:
#
# PCOD9334582 Si02
#       6
#     8   4   8   4   8   8
#     4  12  25  43  69 102 135 183 246 278 347 433
#     4  10  20  40  66  94 134 184 228 276 364 426
#     4  11  25  44  68  97 140 182 231 301 353 411
#     4  12  20  44  60  94 138 186 230 268 346 404
#     4  12  25  42  68  97 143 190 231 292 344 415
#     4  12  25  38  65  98 142 186 222 284 339 420
#
# _framework density 21.586756999999999
#
# number of rings (size 3 to 8) (size 9 to 14) (size 15 to 20)
#    0.000    0.400    6.000    4.200    2.800    0.000 
#    0.000    0.000    0.000    2.400    0.000    0.000 
#    0.000    0.000    0.000    0.000    0.000    0.000 
#
# Total GULP energy -111881.079174 kJ/mol
# GULP energy per Si atom -5594.053959 kJ/mol
# Density = 2.153762 g / cm^3
# Si number density = 21.586757 Si / 1000 Ang^3
#
#
#
# Elastic Constant Matrix: (Units=GPa)
#
#
# Indices 1 2 3 4 5 6 
#
# 1 121.0656 39.2449 32.4035 0.0000 0.0000 0.0000
# 2 39.2449 86.9075 25.6655 0.0000 0.0000 0.0000
# 3 32.4035 25.6655 113.7290 0.0000 0.0000 0.0000
# 4 0.0000 0.0000 0.0000 -14.3282 0.0000 0.0000
# 5 0.0000 0.0000 0.0000 0.0000 46.3401 0.0000
# 6 0.0000 0.0000 0.0000 0.0000 0.0000 87.4812
#
#
#
# Elastic Compliance Matrix: (Units=1/GPa)
#
#
# Indices 1 2 3 4 5 6 
#
# 1 0.010074 -0.003966 -0.001975 0.000000 0.000000 0.000000
# 2 -0.003966 0.013889 -0.002004 0.000000 0.000000 0.000000
# 3 -0.001975 -0.002004 0.009808 0.000000 0.000000 0.000000
# 4 0.000000 0.000000 0.000000 -0.069792 0.000000 0.000000
# 5 0.000000 0.000000 0.000000 0.000000 0.021580 0.000000
# 6 0.000000 0.000000 0.000000 0.000000 0.000000 0.011431
#
#
# Mechanical properties :
#
#
# Convention : Reuss Voigt Hill
#
# Bulk Modulus (GPa) = 55.92793 57.36999 56.64896
# Shear Modulus (GPa) = 265.37442 38.85782 152.11612
#
# Velocity S-wave (km/s) = 11.09958 4.24733 8.40359
# Velocity P-wave (km/s) = 13.79248 7.11950 10.97542
#
# Compressibility (1/GPa) = 0.01788015
#
# Stress axis : x y z
#
# Youngs Moduli (GPa) = 99.26259 71.99771 101.95750
#
# Poissons Ratio (x) = 0.28554 0.20140
# Poissons Ratio (y) = 0.39366 0.20437
# Poissons Ratio (z) = 0.19608 0.14432
#
# Static dielectric constant tensor:
#      x y z
#    x 1.861340 0.000000 0.000000 
#    y 0.000000 1.832770 0.000000 
#    z 0.000000 0.000000 1.507100 
# 
# From -- ./inp_files/23732.got.cif
#   From: 2010.05.17/outbox.cif.g08.bks.cpg/sg24_12_cif.got.tgz:23732.got - 2010.06.04 00:33:39.
