data_PCOD9334338
_publ_section_title
;
Structure prediction by ZEFSAII (Michael W. Deem and Ramdas Pophale) SiO2 
 PCOD9334338
Probable space group: I 21 21 21
;
_chemical_formula_sum "Si O2"
_cell_formula_units_Z 52
_cell_length_a 9.622445
_cell_length_b 15.547458
_cell_length_c 16.461466
_cell_angle_alpha 90.000000
_cell_angle_beta 90.000000
_cell_angle_gamma 90.000000
_cell_volume 2462.710370
_symmetry_space_group_name_H-M "I 21 21 21"
_symmetry_group_IT_number 24
_symmetry_cell_setting 'orthorhombic'
loop_
_space_group_symop_operation_xyz
x,y,z
-x,1/2-y,z
x,-y,1/2-z
1/2-x,y,-z
1/2+x,1/2+y,1/2+z
1/2-x,-y,1/2+z
1/2+x,1/2-y,-z
-x,1/2+y,1/2-z
loop_
_atom_site_type_symbol
_atom_site_label
_atom_site_fract_x
_atom_site_fract_y
_atom_site_fract_z
Si Si1 0.142342 0.298867 0.112788
Si Si2 0.250000 0.169289 0.000000
Si Si3 0.691040 0.446906 0.671228
Si Si4 0.001924 0.453849 0.047351
Si Si5 0.500000 0.750000 0.929217
Si Si6 0.000000 0.750000 0.821670
Si Si7 0.689931 0.255612 0.712532
Si Si8 0.049116 0.106155 0.558464
O O1 0.258217 0.235794 0.075528
O O2 0.144428 0.296758 0.209424
O O3 0.000000 0.250000 0.089529
O O4 0.127214 0.393314 0.075971
O O5 0.118553 0.107221 0.009933
O O6 0.742045 0.500000 0.750000
O O7 0.571394 0.499485 0.624458
O O8 0.641610 0.355061 0.706197
O O9 0.811143 0.427158 0.603800
O O10 0.030637 0.526420 0.980582
O O11 0.624804 0.781623 0.870450
O O12 0.565376 0.675210 0.985181
O O13 0.855120 0.736428 0.778810
O O14 0.026131 0.664964 0.875437
#
# Coordination Sequence:
#
# PCOD9334338 Si02
#       8
#     8   4   8   8   4   4   8   8
#     4  10  22  39  61  94 130 169 223 275 338 394
#     4  10  20  38  58  90 126 168 214 280 324 404
#     4  11  21  35  65  98 132 165 229 290 329 396
#     4  11  20  37  65  94 126 171 229 278 326 412
#     4  11  22  38  70  95 138 168 222 281 352 402
#     4   9  24  40  66  93 138 172 220 273 360 410
#     4  11  22  42  63 100 133 178 218 284 347 409
#     4  10  21  38  62  98 128 175 222 279 336 412
#
# _framework density 21.114944999999999
#
# number of rings (size 3 to 8) (size 9 to 14) (size 15 to 20)
#    0.000    1.538    3.846    1.846    2.154    1.846 
#    4.154    1.538    0.000    5.538    0.000    0.000 
#    0.000    0.000    0.000    0.000    0.000    0.000 
#
# Total GULP energy -144929.130284 kJ/mol
# GULP energy per Si atom -5574.197319 kJ/mol
# Density = 2.106689 g / cm^3
# Si number density = 21.114945 Si / 1000 Ang^3
#
#
#
# Elastic Constant Matrix: (Units=GPa)
#
#
# Indices 1 2 3 4 5 6 
#
# 1 50.3950 22.8432 13.9399 0.0000 0.0000 0.0000
# 2 22.8432 121.6371 44.3436 0.0000 0.0000 0.0000
# 3 13.9399 44.3436 82.8256 0.0000 0.0000 0.0000
# 4 0.0000 0.0000 0.0000 25.8723 0.0000 0.0000
# 5 0.0000 0.0000 0.0000 0.0000 19.0513 0.0000
# 6 0.0000 0.0000 0.0000 0.0000 0.0000 18.0364
#
#
#
# Elastic Compliance Matrix: (Units=1/GPa)
#
#
# Indices 1 2 3 4 5 6 
#
# 1 0.021914 -0.003443 -0.001845 0.000000 0.000000 0.000000
# 2 -0.003443 0.010756 -0.005179 0.000000 0.000000 0.000000
# 3 -0.001845 -0.005179 0.015157 0.000000 0.000000 0.000000
# 4 0.000000 0.000000 0.000000 0.038651 0.000000 0.000000
# 5 0.000000 0.000000 0.000000 0.000000 0.052490 0.000000
# 6 0.000000 0.000000 0.000000 0.000000 0.000000 0.055443
#
#
# Mechanical properties :
#
#
# Convention : Reuss Voigt Hill
#
# Bulk Modulus (GPa) = 37.18430 46.34568 41.76499
# Shear Modulus (GPa) = 22.29063 24.17407 23.23235
#
# Velocity S-wave (km/s) = 3.25265 3.38728 3.32065
# Velocity P-wave (km/s) = 5.63515 6.10697 5.87580
#
# Compressibility (1/GPa) = 0.02689307
#
# Stress axis : x y z
#
# Youngs Moduli (GPa) = 45.63253 92.97324 65.97666
#
# Poissons Ratio (x) = 0.32009 0.12173
# Poissons Ratio (y) = 0.15711 0.34170
# Poissons Ratio (z) = 0.08419 0.48151
#
# Static dielectric constant tensor:
#      x y z
#    x 1.802640 0.000000 0.000000 
#    y 0.000000 1.781830 0.000000 
#    z 0.000000 0.000000 1.804410 
# 
# From -- ./inp_files/30328.got.cif
#   From: 2010.05.17/outbox.cif.g08.bks.cpg/sg24_16_cif.got.tgz:30328.got - 2010.06.04 00:33:39.
