data_PCOD9334961
_publ_section_title
;
Structure prediction by ZEFSAII (Michael W. Deem and Ramdas Pophale) SiO2 
 PCOD9334961
Probable space group: I 21 21 21
;
_chemical_formula_sum "Si O2"
_cell_formula_units_Z 48
_cell_length_a 35.189796
_cell_length_b 7.256155
_cell_length_c 7.752183
_cell_angle_alpha 90.000000
_cell_angle_beta 90.000000
_cell_angle_gamma 90.000000
_cell_volume 1979.462673
_symmetry_space_group_name_H-M "I 21 21 21"
_symmetry_group_IT_number 24
_symmetry_cell_setting 'orthorhombic'
loop_
_space_group_symop_operation_xyz
x,y,z
-x,1/2-y,z
x,-y,1/2-z
1/2-x,y,-z
1/2+x,1/2+y,1/2+z
1/2-x,-y,1/2+z
1/2+x,1/2-y,-z
-x,1/2+y,1/2-z
loop_
_atom_site_type_symbol
_atom_site_label
_atom_site_fract_x
_atom_site_fract_y
_atom_site_fract_z
Si Si1 0.839597 0.712822 0.684777
Si Si2 0.241923 0.218118 0.793923
Si Si3 0.456567 0.720679 0.064813
Si Si4 0.322104 0.782925 0.722984
Si Si5 0.404859 0.285424 0.731227
Si Si6 0.577971 0.807581 0.392610
O O1 0.843802 0.500000 0.750000
O O2 0.799675 0.786078 0.764507
O O3 0.830117 0.735501 0.480946
O O4 0.880544 0.807428 0.701034
O O5 0.281400 0.293210 0.715476
O O6 0.240270 0.000000 0.750000
O O7 0.250000 0.234483 0.000000
O O8 0.500000 0.750000 0.017707
O O9 0.449002 0.792933 0.257074
O O10 0.442010 0.506607 0.076573
O O11 0.429831 0.801912 0.917093
O O12 0.360294 0.718680 0.815454
O O13 0.320092 0.000000 0.750000
O O14 0.414230 0.500000 0.750000
O O15 0.413919 0.214667 0.923039
#
# Coordination Sequence:
#
# PCOD9334961 Si02
#       6
#     8   8   8   8   8   8
#     4   9  17  30  53  81 111 150 184 227 286 335
#     4   8  14  26  45  74 111 147 182 226 268 321
#     4  10  21  39  61  80 105 146 187 236 292 341
#     4   9  17  29  49  83 113 146 191 232 271 329
#     4   9  19  37  59  80 113 151 184 230 288 341
#     4   9  20  39  58  82 110 143 185 233 286 346
#
# _framework density 24.249006999999999
#
# number of rings (size 3 to 8) (size 9 to 14) (size 15 to 20)
#    0.000    3.000    0.000    0.000    2.333    0.667 
#    3.000    2.500    3.667    0.000    0.000    0.000 
#    0.000    0.000    0.000    0.000    0.000    0.000 
#
# Total GULP energy -133689.726930 kJ/mol
# GULP energy per Si atom -5570.405289 kJ/mol
# Density = 2.419381 g / cm^3
# Si number density = 24.249007 Si / 1000 Ang^3
#
#
#
# Elastic Constant Matrix: (Units=GPa)
#
#
# Indices 1 2 3 4 5 6 
#
# 1 204.2407 25.9723 56.6167 0.0000 0.0000 0.0000
# 2 25.9723 97.2166 2.0355 0.0000 0.0000 0.0000
# 3 56.6167 2.0355 54.9553 0.0000 0.0000 0.0000
# 4 0.0000 0.0000 0.0000 -1.8965 0.0000 0.0000
# 5 0.0000 0.0000 0.0000 0.0000 40.8450 0.0000
# 6 0.0000 0.0000 0.0000 0.0000 0.0000 29.9062
#
#
#
# Elastic Compliance Matrix: (Units=1/GPa)
#
#
# Indices 1 2 3 4 5 6 
#
# 1 0.007141 -0.001755 -0.007291 0.000000 0.000000 0.000000
# 2 -0.001755 0.010726 0.001411 0.000000 0.000000 0.000000
# 3 -0.007291 0.001411 0.025656 0.000000 0.000000 0.000000
# 4 0.000000 0.000000 0.000000 -0.527282 0.000000 0.000000
# 5 0.000000 0.000000 0.000000 0.000000 0.024483 0.000000
# 6 0.000000 0.000000 0.000000 0.000000 0.000000 0.033438
#
#
# Mechanical properties :
#
#
# Convention : Reuss Voigt Hill
#
# Bulk Modulus (GPa) = 35.39679 58.40682 46.90180
# Shear Modulus (GPa) = -12.46414 31.89016 9.71301
#
# Velocity S-wave (km/s) = -2.26963 3.63038 2.00355
# Velocity P-wave (km/s) = 2.78579 6.45844 4.97353
#
# Compressibility (1/GPa) = 0.02825115
#
# Stress axis : x y z
#
# Youngs Moduli (GPa) = 140.04433 93.23458 38.97685
#
# Poissons Ratio (x) = 0.16363 0.28420
# Poissons Ratio (y) = 0.24578 -0.05499
# Poissons Ratio (z) = 1.02113 -0.13154
#
# Static dielectric constant tensor:
#      x y z
#    x 1.976940 0.000000 0.000000 
#    y 0.000000 1.896240 0.000000 
#    z 0.000000 0.000000 2.016220 
# 
# From -- ./inp_files/16807.got.cif
#   From: 2010.05.17/outbox.cif.g08.bks.cpg/sg24_9_cif.got.tgz:16807.got - 2010.06.04 00:33:39.
