data_PCOD9334824
_publ_section_title
;
Structure prediction by ZEFSAII (Michael W. Deem and Ramdas Pophale) SiO2 
 PCOD9334824
Probable space group: I 21 21 21
;
_chemical_formula_sum "Si O2"
_cell_formula_units_Z 60
_cell_length_a 29.543515
_cell_length_b 17.683968
_cell_length_c 5.326684
_cell_angle_alpha 90.000000
_cell_angle_beta 90.000000
_cell_angle_gamma 90.000000
_cell_volume 2782.907806
_symmetry_space_group_name_H-M "I 21 21 21"
_symmetry_group_IT_number 24
_symmetry_cell_setting 'orthorhombic'
loop_
_space_group_symop_operation_xyz
x,y,z
-x,1/2-y,z
x,-y,1/2-z
1/2-x,y,-z
1/2+x,1/2+y,1/2+z
1/2-x,-y,1/2+z
1/2+x,1/2-y,-z
-x,1/2+y,1/2-z
loop_
_atom_site_type_symbol
_atom_site_label
_atom_site_fract_x
_atom_site_fract_y
_atom_site_fract_z
Si Si1 0.179335 0.786099 0.592534
Si Si2 0.299473 0.579536 0.860827
Si Si3 0.427565 0.954144 0.504292
Si Si4 0.860862 0.218934 0.432791
Si Si5 0.750000 0.180991 0.000000
Si Si6 0.180798 0.954958 0.495510
Si Si7 0.999914 0.659152 0.628295
Si Si8 0.535040 0.179253 0.633385
O O1 0.157493 0.753775 0.332290
O O2 0.222840 0.736797 0.677871
O O3 0.195977 0.869519 0.531159
O O4 0.147489 0.776130 0.834444
O O5 0.316500 0.500000 0.750000
O O6 0.335440 0.637550 0.986357
O O7 0.286012 0.626977 0.618938
O O8 0.250000 0.569037 0.000000
O O9 0.373744 0.945896 0.529930
O O10 0.452405 0.874614 0.462306
O O11 0.443493 0.000000 0.750000
O O12 0.436418 0.000000 0.250000
O O13 0.914350 0.206107 0.415997
O O14 0.190118 0.000000 0.750000
O O15 0.197048 0.000000 0.250000
O O16 0.016346 0.631466 0.899194
O O17 0.000000 0.750000 0.655775
O O18 0.033440 0.638940 0.401990
O O19 0.500000 0.250000 0.659046
#
# Coordination Sequence:
#
# PCOD9334824 Si02
#       8
#     8   8   8   8   4   8   8   8
#     4  11  23  39  67  90 136 162 211 275 315 378
#     4  11  21  40  67  95 135 175 221 275 340 405
#     4  10  21  37  59  84 117 159 209 262 311 370
#     4  11  24  39  62 100 129 172 222 273 326 390
#     4  10  22  40  62 102 124 170 220 258 322 402
#     4  10  22  39  59  91 124 162 210 256 321 387
#     4  10  21  37  58  86 118 159 213 261 313 377
#     4  10  22  36  58  90 126 163 217 263 320 383
#
# _framework density 21.560182999999999
#
# number of rings (size 3 to 8) (size 9 to 14) (size 15 to 20)
#    0.000    1.600    2.000    2.400    7.467    0.000 
#    0.000    2.667    0.000    1.600    0.000    0.000 
#    0.000    0.000    0.000    0.000    0.000    0.000 
#
# Total GULP energy -167219.484907 kJ/mol
# GULP energy per Si atom -5573.982830 kJ/mol
# Density = 2.151111 g / cm^3
# Si number density = 21.560183 Si / 1000 Ang^3
#
#
#
# Elastic Constant Matrix: (Units=GPa)
#
#
# Indices 1 2 3 4 5 6 
#
# 1 70.9521 28.8155 -8.9887 0.0000 0.0000 0.0000
# 2 28.8155 115.7549 24.1087 0.0000 0.0000 0.0000
# 3 -8.9887 24.1087 85.8390 0.0000 0.0000 0.0000
# 4 0.0000 0.0000 0.0000 25.0440 0.0000 0.0000
# 5 0.0000 0.0000 0.0000 0.0000 26.7227 0.0000
# 6 0.0000 0.0000 0.0000 0.0000 0.0000 18.6718
#
#
#
# Elastic Compliance Matrix: (Units=1/GPa)
#
#
# Indices 1 2 3 4 5 6 
#
# 1 0.016394 -0.004714 0.003041 0.000000 0.000000 0.000000
# 2 -0.004714 0.010531 -0.003451 0.000000 0.000000 0.000000
# 3 0.003041 -0.003451 0.012938 0.000000 0.000000 0.000000
# 4 0.000000 0.000000 0.000000 0.039930 0.000000 0.000000
# 5 0.000000 0.000000 0.000000 0.000000 0.037421 0.000000
# 6 0.000000 0.000000 0.000000 0.000000 0.000000 0.053557
#
#
# Mechanical properties :
#
#
# Convention : Reuss Voigt Hill
#
# Bulk Modulus (GPa) = 33.76939 40.04632 36.90786
# Shear Modulus (GPa) = 26.19288 29.32839 27.76063
#
# Velocity S-wave (km/s) = 3.48928 3.69223 3.59219
# Velocity P-wave (km/s) = 5.65069 6.06558 5.86181
#
# Compressibility (1/GPa) = 0.02961262
#
# Stress axis : x y z
#
# Youngs Moduli (GPa) = 60.99850 94.95449 77.29460
#
# Poissons Ratio (x) = 0.44765 -0.23503
# Poissons Ratio (y) = 0.28757 0.26678
# Poissons Ratio (z) = -0.18548 0.32774
#
# Static dielectric constant tensor:
#      x y z
#    x 1.875700 0.000000 0.000000 
#    y 0.000000 1.749550 0.000000 
#    z 0.000000 0.000000 1.877580 
# 
# From -- ./inp_files/7836.got.cif
#   From: 2010.05.17/outbox.cif.g08.bks.cpg/sg24_4_cif.got.tgz:7836.got - 2010.06.04 00:33:39.
