data_PCOD9334905
_publ_section_title
;
Structure prediction by ZEFSAII (Michael W. Deem and Ramdas Pophale) SiO2 
 PCOD9334905
Probable space group: I 21 21 21
;
_chemical_formula_sum "Si O2"
_cell_formula_units_Z 52
_cell_length_a 5.512901
_cell_length_b 27.138613
_cell_length_c 18.059413
_cell_angle_alpha 90.000000
_cell_angle_beta 90.000000
_cell_angle_gamma 90.000000
_cell_volume 2701.913688
_symmetry_space_group_name_H-M "I 21 21 21"
_symmetry_group_IT_number 24
_symmetry_cell_setting 'orthorhombic'
loop_
_space_group_symop_operation_xyz
x,y,z
-x,1/2-y,z
x,-y,1/2-z
1/2-x,y,-z
1/2+x,1/2+y,1/2+z
1/2-x,-y,1/2+z
1/2+x,1/2-y,-z
-x,1/2+y,1/2-z
loop_
_atom_site_type_symbol
_atom_site_label
_atom_site_fract_x
_atom_site_fract_y
_atom_site_fract_z
Si Si1 0.691140 0.512195 0.826306
Si Si2 0.188175 0.446762 0.416895
Si Si3 0.420335 0.594200 0.221708
Si Si4 0.996057 0.192943 0.798462
Si Si5 0.750000 0.875296 0.500000
Si Si6 0.419428 0.552624 0.375447
Si Si7 0.493427 0.193421 0.891535
O O1 0.544854 0.500000 0.750000
O O2 0.585331 0.539515 0.897584
O O3 0.883325 0.551671 0.795251
O O4 0.804539 0.461706 0.856834
O O5 0.250000 0.432169 0.500000
O O6 0.258964 0.408976 0.351849
O O7 0.309048 0.500028 0.398684
O O8 0.510140 0.649262 0.238323
O O9 0.310840 0.575593 0.300084
O O10 0.233979 0.185738 0.851039
O O11 0.000000 0.250000 0.772018
O O12 0.733200 0.187716 0.838869
O O13 0.620380 0.909569 0.440236
O O14 0.550090 0.842294 0.540858
O O15 0.500000 0.250000 0.917409
#
# Coordination Sequence:
#
# PCOD9334905 Si02
#       7
#     8   8   8   8   4   8   8
#     4   9  20  37  61  82 119 164 203 258 306 384
#     4  11  22  38  59  87 124 156 203 262 323 385
#     4  10  21  38  61  88 118 162 213 251 322 376
#     4  10  22  43  66  93 126 167 222 268 320 378
#     4  12  22  40  62  90 132 174 220 262 306 376
#     4  10  21  39  53  88 121 168 208 253 303 374
#     4  10  24  42  62  91 132 174 215 273 316 368
#
# _framework density 19.245618
#
# number of rings (size 3 to 8) (size 9 to 14) (size 15 to 20)
#    0.000    1.846    2.308    2.308    2.154    7.385 
#    5.538    0.000    0.000    0.000    4.000    0.000 
#    0.000    0.000    0.000    0.000    0.000    0.000 
#
# Total GULP energy -144808.967820 kJ/mol
# GULP energy per Si atom -5569.575685 kJ/mol
# Density = 1.920181 g / cm^3
# Si number density = 19.245618 Si / 1000 Ang^3
#
#
#
# Elastic Constant Matrix: (Units=GPa)
#
#
# Indices 1 2 3 4 5 6 
#
# 1 58.1784 28.4072 35.6871 0.0000 0.0000 0.0000
# 2 28.4072 134.5613 69.3321 0.0000 0.0000 0.0000
# 3 35.6871 69.3321 144.7223 0.0000 0.0000 0.0000
# 4 0.0000 0.0000 0.0000 21.1187 0.0000 0.0000
# 5 0.0000 0.0000 0.0000 0.0000 10.3490 0.0000
# 6 0.0000 0.0000 0.0000 0.0000 0.0000 15.4406
#
#
#
# Elastic Compliance Matrix: (Units=1/GPa)
#
#
# Indices 1 2 3 4 5 6 
#
# 1 0.020783 -0.002319 -0.004014 0.000000 0.000000 0.000000
# 2 -0.002319 0.010126 -0.004279 0.000000 0.000000 0.000000
# 3 -0.004014 -0.004279 0.009950 0.000000 0.000000 0.000000
# 4 0.000000 0.000000 0.000000 0.047351 0.000000 0.000000
# 5 0.000000 0.000000 0.000000 0.000000 0.096627 0.000000
# 6 0.000000 0.000000 0.000000 0.000000 0.000000 0.064764
#
#
# Mechanical properties :
#
#
# Convention : Reuss Voigt Hill
#
# Bulk Modulus (GPa) = 50.93195 67.14608 59.03901
# Shear Modulus (GPa) = 18.02641 22.98404 20.50522
#
# Velocity S-wave (km/s) = 3.06379 3.45954 3.26766
# Velocity P-wave (km/s) = 6.24799 7.13601 6.70671
#
# Compressibility (1/GPa) = 0.01963404
#
# Stress axis : x y z
#
# Youngs Moduli (GPa) = 48.11604 98.75559 100.50731
#
# Poissons Ratio (x) = 0.22906 0.40341
# Poissons Ratio (y) = 0.11160 0.43008
# Poissons Ratio (z) = 0.19312 0.42259
#
# Static dielectric constant tensor:
#      x y z
#    x 1.853470 0.000000 0.000000 
#    y 0.000000 1.667930 0.000000 
#    z 0.000000 0.000000 1.723400 
# 
# From -- ./inp_files/28873.got.cif
#   From: 2010.05.17/outbox.cif.g08.bks.cpg/sg24_15_cif.got.tgz:28873.got - 2010.06.04 00:33:39.
