data_PCOD9334733
_publ_section_title
;
Structure prediction by ZEFSAII (Michael W. Deem and Ramdas Pophale) SiO2 
 PCOD9334733
Probable space group: I 21 21 21
;
_chemical_formula_sum "Si O2"
_cell_formula_units_Z 60
_cell_length_a 30.408880
_cell_length_b 12.826010
_cell_length_c 8.125591
_cell_angle_alpha 90.000000
_cell_angle_beta 90.000000
_cell_angle_gamma 90.000000
_cell_volume 3169.180371
_symmetry_space_group_name_H-M "I 21 21 21"
_symmetry_group_IT_number 24
_symmetry_cell_setting 'orthorhombic'
loop_
_space_group_symop_operation_xyz
x,y,z
-x,1/2-y,z
x,-y,1/2-z
1/2-x,y,-z
1/2+x,1/2+y,1/2+z
1/2-x,-y,1/2+z
1/2+x,1/2-y,-z
-x,1/2+y,1/2-z
loop_
_atom_site_type_symbol
_atom_site_label
_atom_site_fract_x
_atom_site_fract_y
_atom_site_fract_z
Si Si1 0.950943 0.706444 0.084862
Si Si2 0.708441 0.877874 0.708416
Si Si3 0.105166 0.314321 0.871861
Si Si4 0.013860 0.000000 0.250000
Si Si5 0.386827 0.374182 0.750835
Si Si6 0.987613 0.131027 0.946392
Si Si7 0.302599 0.381580 0.188526
Si Si8 0.923245 0.388323 0.757175
O O1 0.957625 0.600056 0.191189
O O2 0.922148 0.800822 0.160319
O O3 0.000000 0.750000 0.055222
O O4 0.929156 0.667974 0.916375
O O5 0.663465 0.842771 0.796293
O O6 0.756567 0.832500 0.752816
O O7 0.701794 0.872019 0.510366
O O8 0.711021 0.000000 0.750000
O O9 0.056307 0.359350 0.835000
O O10 0.148182 0.344091 0.769653
O O11 0.102366 0.190648 0.871302
O O12 0.109517 0.349358 0.057799
O O13 0.986156 0.950565 0.402241
O O14 0.391276 0.500000 0.750000
O O15 0.000000 0.250000 0.005869
O O16 0.028718 0.098633 0.836665
O O17 0.302211 0.500000 0.250000
O O18 0.901690 0.500000 0.750000
#
# Coordination Sequence:
#
# PCOD9334733 Si02
#       8
#     8   8   8   4   8   8   8   8
#     4  12  25  37  59  84 111 159 199 232 296 338
#     4   8  16  33  53  78 115 146 181 236 287 351
#     4  10  21  34  54  81 113 148 186 237 288 344
#     4  12  22  38  60  78 112 162 198 244 282 336
#     4  10  22  37  58  88 118 149 193 244 286 349
#     4  10  21  38  56  77 114 151 195 246 286 335
#     4   9  17  31  53  82 111 150 184 222 300 361
#     4  11  23  42  55  77 114 155 199 245 285 342
#
# _framework density 18.932338999999999
#
# number of rings (size 3 to 8) (size 9 to 14) (size 15 to 20)
#    0.000    1.867    1.333    4.000    3.733    3.733 
#    0.000    0.000    0.000    0.000    1.733    0.000 
#    0.000    0.000    0.000    0.000    0.000    0.000 
#
# Total GULP energy -167082.783454 kJ/mol
# GULP energy per Si atom -5569.426115 kJ/mol
# Density = 1.888925 g / cm^3
# Si number density = 18.932339 Si / 1000 Ang^3
#
#
#
# Elastic Constant Matrix: (Units=GPa)
#
#
# Indices 1 2 3 4 5 6 
#
# 1 123.4688 37.5722 -1.3629 0.0000 0.0000 0.0000
# 2 37.5722 122.9153 30.2665 0.0000 0.0000 0.0000
# 3 -1.3629 30.2665 24.8195 0.0000 0.0000 -0.0002
# 4 0.0000 0.0000 0.0000 35.7407 0.0000 0.0000
# 5 0.0000 0.0000 0.0000 0.0000 9.2574 0.0001
# 6 0.0000 0.0000 -0.0002 0.0000 0.0001 445.1997
#
#
#
# Elastic Compliance Matrix: (Units=1/GPa)
#
#
# Indices 1 2 3 4 5 6 
#
# 1 0.009479 -0.004324 0.005794 0.000000 0.000000 0.000000
# 2 -0.004324 0.013600 -0.016822 0.000000 0.000000 0.000000
# 3 0.005794 -0.016822 0.061123 0.000000 0.000000 0.000000
# 4 0.000000 0.000000 0.000000 0.027979 0.000000 0.000000
# 5 0.000000 0.000000 0.000000 0.000000 0.108022 0.000000
# 6 0.000000 0.000000 0.000000 0.000000 0.000000 0.002246
#
#
# Mechanical properties :
#
#
# Convention : Reuss Voigt Hill
#
# Bulk Modulus (GPa) = 18.69268 44.90614 31.79941
# Shear Modulus (GPa) = 18.45116 111.68807 65.06962
#
# Velocity S-wave (km/s) = 3.12522 7.68904 5.86892
# Velocity P-wave (km/s) = 4.78722 10.12913 7.92202
#
# Compressibility (1/GPa) = 0.05349688
#
# Stress axis : x y z
#
# Youngs Moduli (GPa) = 105.49611 73.53137 16.36053
#
# Poissons Ratio (x) = 0.31796 -0.09479
# Poissons Ratio (y) = 0.45618 0.27521
# Poissons Ratio (z) = -0.61121 1.23693
#
# Static dielectric constant tensor:
#      x y z
#    x 1.783400 0.000000 0.000000 
#    y 0.000000 1.662230 0.000000 
#    z 0.000000 0.000000 1.658790 
# 
# From -- ./inp_files/16952.got.cif
#   From: 2010.05.17/outbox.cif.g08.bks.cpg/sg24_9_cif.got.tgz:16952.got - 2010.06.04 00:33:39.
