data_PCOD9334793
_publ_section_title
;
Structure prediction by ZEFSAII (Michael W. Deem and Ramdas Pophale) SiO2 
 PCOD9334793
Probable space group: I 21 21 21
;
_chemical_formula_sum "Si O2"
_cell_formula_units_Z 40
_cell_length_a 5.198264
_cell_length_b 17.449216
_cell_length_c 22.010381
_cell_angle_alpha 90.000000
_cell_angle_beta 90.000000
_cell_angle_gamma 90.000000
_cell_volume 1996.465505
_symmetry_space_group_name_H-M "I 21 21 21"
_symmetry_group_IT_number 24
_symmetry_cell_setting 'orthorhombic'
loop_
_space_group_symop_operation_xyz
x,y,z
-x,1/2-y,z
x,-y,1/2-z
1/2-x,y,-z
1/2+x,1/2+y,1/2+z
1/2-x,-y,1/2+z
1/2+x,1/2-y,-z
-x,1/2+y,1/2-z
loop_
_atom_site_type_symbol
_atom_site_label
_atom_site_fract_x
_atom_site_fract_y
_atom_site_fract_z
Si Si1 0.249677 0.703261 0.360419
Si Si2 0.750000 0.834130 0.500000
Si Si3 0.284798 0.475025 0.181361
Si Si4 0.792240 0.534087 0.120865
Si Si5 0.750000 0.563617 0.500000
Si Si6 0.502671 0.659470 0.958966
O O1 0.500000 0.750000 0.341920
O O2 0.231395 0.705871 0.434450
O O3 0.287521 0.615477 0.337345
O O4 0.000000 0.750000 0.337642
O O5 0.498193 0.884916 0.491478
O O6 0.343323 0.500000 0.250000
O O7 0.498394 0.522537 0.142396
O O8 0.991152 0.498138 0.167965
O O9 0.925566 0.614275 0.102176
O O10 0.805626 0.486232 0.058812
O O11 0.500000 0.750000 0.947076
O O12 0.750000 0.644066 0.000000
O O13 0.250000 0.638638 0.000000
#
# Coordination Sequence:
#
# PCOD9334793 Si02
#       6
#     8   4   8   8   4   8
#     4  12  24  42  66  98 136 172 210 273 340 396
#     4  12  22  39  62 105 142 166 206 262 340 425
#     4  12  27  47  67  92 127 180 231 272 316 388
#     4  12  22  41  68  95 131 169 220 274 329 398
#     4  12  20  35  66 101 132 160 212 268 332 397
#     4  10  21  36  60  98 136 165 202 264 341 396
#
# _framework density 20.035408
#
# number of rings (size 3 to 8) (size 9 to 14) (size 15 to 20)
#    0.000    0.400    5.000    4.800    1.400    0.000 
#    0.000    3.000    0.000    0.000    0.000    0.000 
#    0.000    0.000    0.000    0.000    0.000    0.000 
#
# Total GULP energy -111567.488256 kJ/mol
# GULP energy per Si atom -5578.374413 kJ/mol
# Density = 1.998981 g / cm^3
# Si number density = 20.035408 Si / 1000 Ang^3
#
#
#
# Elastic Constant Matrix: (Units=GPa)
#
#
# Indices 1 2 3 4 5 6 
#
# 1 140.6352 43.4891 5.1672 0.0000 0.0000 0.0000
# 2 43.4891 82.7089 20.9227 0.0000 0.0000 0.0000
# 3 5.1672 20.9227 69.5198 0.0000 0.0000 0.0000
# 4 0.0000 0.0000 0.0000 3.7608 0.0000 0.0000
# 5 0.0000 0.0000 0.0000 0.0000 8.8379 0.0000
# 6 0.0000 0.0000 0.0000 0.0000 0.0000 -9.1227
#
#
#
# Elastic Compliance Matrix: (Units=1/GPa)
#
#
# Indices 1 2 3 4 5 6 
#
# 1 0.008530 -0.004681 0.000775 0.000000 0.000000 0.000000
# 2 -0.004681 0.015656 -0.004364 0.000000 0.000000 0.000000
# 3 0.000775 -0.004364 0.015640 0.000000 0.000000 0.000000
# 4 0.000000 0.000000 0.000000 0.265900 0.000000 0.000000
# 5 0.000000 0.000000 0.000000 0.000000 0.113148 0.000000
# 6 0.000000 0.000000 0.000000 0.000000 0.000000 -0.109617
#
#
# Mechanical properties :
#
#
# Convention : Reuss Voigt Hill
#
# Bulk Modulus (GPa) = 42.94504 48.00242 45.47373
# Shear Modulus (GPa) = 14.98986 15.58088 15.28537
#
# Velocity S-wave (km/s) = 2.73823 2.79169 2.76509
# Velocity P-wave (km/s) = 5.61056 5.86534 5.73936
#
# Compressibility (1/GPa) = 0.02328557
#
# Stress axis : x y z
#
# Youngs Moduli (GPa) = 117.23826 63.87403 63.93800
#
# Poissons Ratio (x) = 0.29899 -0.04954
# Poissons Ratio (y) = 0.54879 0.27902
# Poissons Ratio (z) = -0.09084 0.27874
#
# Static dielectric constant tensor:
#      x y z
#    x 1.675680 0.000000 0.000000 
#    y 0.000000 1.832940 0.000000 
#    z 0.000000 0.000000 1.802050 
# 
# From -- ./inp_files/32063.got.cif
#   From: 2010.05.17/outbox.cif.g08.bks.cpg/sg24_17_cif.got.tgz:32063.got - 2010.06.04 00:33:39.
