data_PCOD9334019
_publ_section_title
;
Structure prediction by ZEFSAII (Michael W. Deem and Ramdas Pophale) SiO2 
 PCOD9334019
Probable space group: I 21 21 21
;
_chemical_formula_sum "Si O2"
_cell_formula_units_Z 36
_cell_length_a 8.281645
_cell_length_b 25.111959
_cell_length_c 7.802315
_cell_angle_alpha 90.000000
_cell_angle_beta 90.000000
_cell_angle_gamma 90.000000
_cell_volume 1622.634418
_symmetry_space_group_name_H-M "I 21 21 21"
_symmetry_group_IT_number 24
_symmetry_cell_setting 'orthorhombic'
loop_
_space_group_symop_operation_xyz
x,y,z
-x,1/2-y,z
x,-y,1/2-z
1/2-x,y,-z
1/2+x,1/2+y,1/2+z
1/2-x,-y,1/2+z
1/2+x,1/2-y,-z
-x,1/2+y,1/2-z
loop_
_atom_site_type_symbol
_atom_site_label
_atom_site_fract_x
_atom_site_fract_y
_atom_site_fract_z
Si Si1 0.428348 0.033707 0.578370
Si Si2 0.500000 0.750000 0.727514
Si Si3 0.981026 0.000000 0.750000
Si Si4 0.145364 0.144502 0.267681
Si Si5 0.750000 0.815910 0.500000
Si Si6 0.532749 0.380464 0.123722
O O1 0.250000 0.019353 0.500000
O O2 0.565167 0.021398 0.438247
O O3 0.413764 0.095538 0.620156
O O4 0.452209 0.000000 0.750000
O O5 0.576035 0.700586 0.825721
O O6 0.634123 0.777310 0.606913
O O7 0.046083 0.057839 0.820906
O O8 0.337365 0.148081 0.244196
O O9 0.085229 0.128937 0.074437
O O10 0.644290 0.854411 0.376536
#
# Coordination Sequence:
#
# PCOD9334019 Si02
#       6
#     8   4   4   8   4   8
#     4  12  20  33  60  98 129 160 208 260 311 376
#     4  10  20  38  62  82 128 166 212 270 310 356
#     4  12  22  36  62  96 134 168 202 264 318 378
#     4  10  20  34  60  93 119 166 210 258 309 367
#     4  10  20  38  60  92 118 172 216 256 316 384
#     4  10  20  34  60  91 126 159 212 252 314 376
#
# _framework density 22.186142
#
# number of rings (size 3 to 8) (size 9 to 14) (size 15 to 20)
#    0.000    1.333    5.556    2.667    0.000    0.000 
#    0.000    4.444    4.889    0.000    0.000    0.000 
#    0.000    0.000    0.000    0.000    0.000    0.000 
#
# Total GULP energy -100209.432422 kJ/mol
# GULP energy per Si atom -5567.190690 kJ/mol
# Density = 2.213565 g / cm^3
# Si number density = 22.186142 Si / 1000 Ang^3
#
#
#
# Elastic Constant Matrix: (Units=GPa)
#
#
# Indices 1 2 3 4 5 6 
#
# 1 89.5795 58.1997 13.3301 0.0001 -0.0002 -0.0001
# 2 58.1997 174.0184 46.3603 0.0003 0.0003 0.0001
# 3 13.3301 46.3603 105.1275 0.0009 0.0000 -0.0006
# 4 0.0001 0.0003 0.0009 28.4082 0.0001 0.0002
# 5 -0.0002 0.0003 0.0000 0.0001 1.7845 0.0003
# 6 -0.0001 0.0001 -0.0006 0.0002 0.0003 10.6387
#
#
#
# Elastic Compliance Matrix: (Units=1/GPa)
#
#
# Indices 1 2 3 4 5 6 
#
# 1 0.014273 -0.004863 0.000335 0.000000 0.000002 0.000000
# 2 -0.004863 0.008168 -0.002986 0.000000 -0.000002 0.000000
# 3 0.000335 -0.002986 0.010786 0.000000 0.000001 0.000001
# 4 0.000000 0.000000 0.000000 0.035201 -0.000002 -0.000001
# 5 0.000002 -0.000002 0.000001 -0.000002 0.560387 -0.000016
# 6 0.000000 0.000000 0.000001 -0.000001 -0.000016 0.093997
#
#
# Mechanical properties :
#
#
# Convention : Reuss Voigt Hill
#
# Bulk Modulus (GPa) = 54.94431 67.16729 61.05580
# Shear Modulus (GPa) = 6.72129 24.88863 15.80496
#
# Velocity S-wave (km/s) = 1.74243 3.35298 2.67194
# Velocity P-wave (km/s) = 5.37280 6.73276 6.09086
#
# Compressibility (1/GPa) = 0.01820025
#
# Stress axis : x y z
#
# Youngs Moduli (GPa) = 70.06392 122.42665 92.70917
#
# Poissons Ratio (x) = 0.59531 -0.03102
# Poissons Ratio (y) = 0.34069 0.27678
# Poissons Ratio (z) = -0.02344 0.36551
#
# Static dielectric constant tensor:
#      x y z
#    x 1.938750 0.000000 0.000000 
#    y 0.000000 1.793490 0.000000 
#    z 0.000000 0.000000 1.857690 
# 
# From -- ./inp_files/9452.got.cif
#   From: 2010.05.17/outbox.cif.g08.bks.cpg/sg24_5_cif.got.tgz:9452.got - 2010.06.04 00:33:39.
