data_PCOD9334197
_publ_section_title
;
Structure prediction by ZEFSAII (Michael W. Deem and Ramdas Pophale) SiO2 
 PCOD9334197
Probable space group: I 21 21 21
;
_chemical_formula_sum "Si O2"
_cell_formula_units_Z 32
_cell_length_a 15.850647
_cell_length_b 12.012769
_cell_length_c 7.859926
_cell_angle_alpha 90.000000
_cell_angle_beta 90.000000
_cell_angle_gamma 90.000000
_cell_volume 1496.609774
_symmetry_space_group_name_H-M "I 21 21 21"
_symmetry_group_IT_number 24
_symmetry_cell_setting 'orthorhombic'
loop_
_space_group_symop_operation_xyz
x,y,z
-x,1/2-y,z
x,-y,1/2-z
1/2-x,y,-z
1/2+x,1/2+y,1/2+z
1/2-x,-y,1/2+z
1/2+x,1/2-y,-z
-x,1/2+y,1/2-z
loop_
_atom_site_type_symbol
_atom_site_label
_atom_site_fract_x
_atom_site_fract_y
_atom_site_fract_z
Si Si1 0.750000 0.838659 0.500000
Si Si2 0.412684 0.776056 0.358020
Si Si3 0.154571 0.500000 0.250000
Si Si4 0.648539 0.500000 0.250000
Si Si5 0.089061 0.696776 0.032315
Si Si6 0.750000 0.657970 0.000000
O O1 0.671586 0.763873 0.446326
O O2 0.784999 0.917555 0.352800
O O3 0.500000 0.750000 0.449698
O O4 0.408710 0.908798 0.340664
O O5 0.413826 0.711026 0.174594
O O6 0.101668 0.575537 0.115984
O O7 0.706805 0.422831 0.365291
O O8 0.000000 0.750000 0.090316
O O9 0.174153 0.766943 0.075141
#
# Coordination Sequence:
#
# PCOD9334197 Si02
#       6
#     4   8   4   4   8   4
#     4  12  24  40  64  94 126 166 214 254 306 376
#     4  10  23  42  64  93 125 162 211 257 310 378
#     4  12  24  40  64  90 128 172 204 258 314 356
#     4  10  20  36  62  86 118 162 196 252 314 356
#     4  10  23  42  63  91 126 163 209 259 311 373
#     4  10  20  38  60  88 122 156 202 250 304 370
#
# _framework density 21.38166
#
# number of rings (size 3 to 8) (size 9 to 14) (size 15 to 20)
#    0.000    1.500    0.000    6.000    0.000    9.000 
#    0.000    0.000    0.000    0.000    0.000    0.000 
#    0.000    0.000    0.000    0.000    0.000    0.000 
#
# Total GULP energy -89342.145126 kJ/mol
# GULP energy per Si atom -5583.884070 kJ/mol
# Density = 2.133299 g / cm^3
# Si number density = 21.381660 Si / 1000 Ang^3
#
#
#
# Elastic Constant Matrix: (Units=GPa)
#
#
# Indices 1 2 3 4 5 6 
#
# 1 198.6594 83.0888 21.8064 0.0000 0.0000 0.0000
# 2 83.0888 141.1640 29.5483 0.0000 0.0000 0.0000
# 3 21.8064 29.5483 42.8757 0.0000 0.0000 0.0000
# 4 0.0000 0.0000 0.0000 21.7833 0.0000 0.0000
# 5 0.0000 0.0000 0.0000 0.0000 31.3091 0.0000
# 6 0.0000 0.0000 0.0000 0.0000 0.0000 5.5891
#
#
#
# Elastic Compliance Matrix: (Units=1/GPa)
#
#
# Indices 1 2 3 4 5 6 
#
# 1 0.006701 -0.003776 -0.000806 0.000000 0.000000 0.000000
# 2 -0.003776 0.010405 -0.005251 0.000000 0.000000 0.000000
# 3 -0.000806 -0.005251 0.027352 0.000000 0.000000 0.000000
# 4 0.000000 0.000000 0.000000 0.045907 0.000000 0.000000
# 5 0.000000 0.000000 0.000000 0.000000 0.031940 0.000000
# 6 0.000000 0.000000 0.000000 0.000000 0.000000 0.178919
#
#
# Mechanical properties :
#
#
# Convention : Reuss Voigt Hill
#
# Bulk Modulus (GPa) = 40.33331 72.39845 56.36588
# Shear Modulus (GPa) = 15.19049 28.28668 21.73859
#
# Velocity S-wave (km/s) = 2.66831 3.64117 3.19202
# Velocity P-wave (km/s) = 5.32894 7.18409 6.32490
#
# Compressibility (1/GPa) = 0.02479340
#
# Stress axis : x y z
#
# Youngs Moduli (GPa) = 149.22235 96.10413 36.56058
#
# Poissons Ratio (x) = 0.36286 0.02948
# Poissons Ratio (y) = 0.56341 0.19197
# Poissons Ratio (z) = 0.12031 0.50461
#
# Static dielectric constant tensor:
#      x y z
#    x 1.812070 0.000000 0.000000 
#    y 0.000000 1.730330 0.000000 
#    z 0.000000 0.000000 1.860130 
# 
# From -- ./inp_files/10346.got.cif
#   From: 2010.05.17/outbox.cif.g08.bks.cpg/sg24_6_cif.got.tgz:10346.got - 2010.06.04 00:33:39.
