data_PCOD9334916
_publ_section_title
;
Structure prediction by ZEFSAII (Michael W. Deem and Ramdas Pophale) SiO2 
 PCOD9334916
Probable space group: I 21 21 21
;
_chemical_formula_sum "Si O2"
_cell_formula_units_Z 52
_cell_length_a 23.173516
_cell_length_b 4.915132
_cell_length_c 20.231592
_cell_angle_alpha 90.000000
_cell_angle_beta 90.000000
_cell_angle_gamma 90.000000
_cell_volume 2304.396336
_symmetry_space_group_name_H-M "I 21 21 21"
_symmetry_group_IT_number 24
_symmetry_cell_setting 'orthorhombic'
loop_
_space_group_symop_operation_xyz
x,y,z
-x,1/2-y,z
x,-y,1/2-z
1/2-x,y,-z
1/2+x,1/2+y,1/2+z
1/2-x,-y,1/2+z
1/2+x,1/2-y,-z
-x,1/2+y,1/2-z
loop_
_atom_site_type_symbol
_atom_site_label
_atom_site_fract_x
_atom_site_fract_y
_atom_site_fract_z
Si Si1 0.000000 0.750000 0.699654
Si Si2 0.158886 0.254386 0.345692
Si Si3 0.379554 0.233884 0.925677
Si Si4 0.500000 0.750000 0.634554
Si Si5 0.198984 0.930886 0.542748
Si Si6 0.381143 0.744350 0.296443
Si Si7 0.573775 0.000000 0.750000
Si Si8 0.783501 0.932389 0.873250
O O1 0.989627 0.500000 0.750000
O O2 0.060436 0.769269 0.659665
O O3 0.133287 0.457115 0.402766
O O4 0.155297 0.952479 0.373666
O O5 0.118612 0.285249 0.281584
O O6 0.225067 0.342009 0.337316
O O7 0.446586 0.161414 0.911464
O O8 0.272108 0.345312 0.069899
O O9 0.354625 0.155633 0.997104
O O10 0.467638 0.558673 0.687981
O O11 0.250000 0.066775 0.500000
O O12 0.186454 0.159562 0.597979
O O13 0.401033 0.500000 0.250000
O O14 0.326448 0.613550 0.330496
O O15 0.366865 0.000000 0.250000
#
# Coordination Sequence:
#
# PCOD9334916 Si02
#       8
#     4   8   8   4   8   8   4   8
#     4   8  16  34  59  80 110 159 196 226 288 380
#     4  11  22  38  59  93 123 168 208 258 338 388
#     4  11  23  40  65  86 120 168 220 270 320 396
#     4  10  22  42  65  96 128 175 228 270 338 396
#     4  12  22  41  63  88 123 167 219 271 329 386
#     4  10  21  38  61  92 129 164 202 254 323 401
#     4  10  22  38  64  90 132 170 210 270 316 404
#     4  12  23  38  62  96 128 165 210 275 333 395
#
# _framework density 22.565563000000001
#
# number of rings (size 3 to 8) (size 9 to 14) (size 15 to 20)
#    0.000    1.231    3.077    3.231    1.077    3.692 
#    0.000    0.769    0.000    1.846    0.000    0.000 
#    0.000    0.000    0.000    0.000    0.000    0.000 
#
# Total GULP energy -144900.713110 kJ/mol
# GULP energy per Si atom -5573.104350 kJ/mol
# Density = 2.251420 g / cm^3
# Si number density = 22.565563 Si / 1000 Ang^3
#
#
#
# Elastic Constant Matrix: (Units=GPa)
#
#
# Indices 1 2 3 4 5 6 
#
# 1 176.2762 1.2018 36.1453 0.0000 0.0000 0.0000
# 2 1.2018 94.9268 11.4798 0.0000 0.0000 0.0000
# 3 36.1453 11.4798 32.5682 0.0000 0.0000 0.0000
# 4 0.0000 0.0000 0.0000 27.2142 0.0000 0.0000
# 5 0.0000 0.0000 0.0000 0.0000 44.2928 0.0000
# 6 0.0000 0.0000 0.0000 0.0000 0.0000 217.4875
#
#
#
# Elastic Compliance Matrix: (Units=1/GPa)
#
#
# Indices 1 2 3 4 5 6 
#
# 1 0.007424 0.000943 -0.008572 0.000000 0.000000 0.000000
# 2 0.000943 0.011123 -0.004967 0.000000 0.000000 0.000000
# 3 -0.008572 -0.004967 0.041969 0.000000 0.000000 0.000000
# 4 0.000000 0.000000 0.000000 0.036745 0.000000 0.000000
# 5 0.000000 0.000000 0.000000 0.000000 0.022577 0.000000
# 6 0.000000 0.000000 0.000000 0.000000 0.000000 0.004598
#
#
# Mechanical properties :
#
#
# Convention : Reuss Voigt Hill
#
# Bulk Modulus (GPa) = 28.30938 44.60277 36.45607
# Shear Modulus (GPa) = 30.97823 74.79519 52.88671
#
# Velocity S-wave (km/s) = 3.70916 5.76348 4.84642
# Velocity P-wave (km/s) = 5.56026 8.00619 6.89259
#
# Compressibility (1/GPa) = 0.03532398
#
# Stress axis : x y z
#
# Youngs Moduli (GPa) = 134.69578 89.90250 23.82715
#
# Poissons Ratio (x) = -0.08474 0.20424
# Poissons Ratio (y) = -0.12697 0.11835
# Poissons Ratio (z) = 1.15459 0.44654
#
# Static dielectric constant tensor:
#      x y z
#    x 2.139640 0.000000 0.000000 
#    y 0.000000 1.884480 0.000000 
#    z 0.000000 0.000000 -12.206510 
# 
# From -- ./inp_files/34156.got.cif
#   From: 2010.05.17/outbox.cif.g08.bks.cpg/sg24_18_cif.got.tgz:34156.got - 2010.06.04 00:33:39.
