data_PCOD9334550
_publ_section_title
;
Structure prediction by ZEFSAII (Michael W. Deem and Ramdas Pophale) SiO2 
 PCOD9334550
Probable space group: I 21 21 21
;
_chemical_formula_sum "Si O2"
_cell_formula_units_Z 52
_cell_length_a 16.351456
_cell_length_b 11.494971
_cell_length_c 13.553811
_cell_angle_alpha 90.000000
_cell_angle_beta 90.000000
_cell_angle_gamma 90.000000
_cell_volume 2547.567708
_symmetry_space_group_name_H-M "I 21 21 21"
_symmetry_group_IT_number 24
_symmetry_cell_setting 'orthorhombic'
loop_
_space_group_symop_operation_xyz
x,y,z
-x,1/2-y,z
x,-y,1/2-z
1/2-x,y,-z
1/2+x,1/2+y,1/2+z
1/2-x,-y,1/2+z
1/2+x,1/2-y,-z
-x,1/2+y,1/2-z
loop_
_atom_site_type_symbol
_atom_site_label
_atom_site_fract_x
_atom_site_fract_y
_atom_site_fract_z
Si Si1 0.329959 0.951611 0.434298
Si Si2 0.345518 0.789817 0.098320
Si Si3 0.500000 0.250000 0.286053
Si Si4 0.158926 0.428812 0.901470
Si Si5 0.097496 0.250403 0.066580
Si Si6 0.474070 0.500000 0.250000
Si Si7 0.250000 0.377441 0.500000
Si Si8 0.750906 0.721890 0.290075
O O1 0.250000 0.975551 0.500000
O O2 0.369093 0.076781 0.419020
O O3 0.383893 0.858614 0.493888
O O4 0.293017 0.890674 0.337688
O O5 0.420096 0.729280 0.151415
O O6 0.268086 0.784835 0.173923
O O7 0.324558 0.713285 0.002998
O O8 0.519563 0.375661 0.238526
O O9 0.083889 0.485690 0.844922
O O10 0.225325 0.530383 0.916554
O O11 0.199821 0.329908 0.834461
O O12 0.128684 0.362593 0.001753
O O13 0.158354 0.234691 0.161379
O O14 0.000000 0.250000 0.087578
#
# Coordination Sequence:
#
# PCOD9334550 Si02
#       8
#     8   8   4   8   8   4   4   8
#     4   9  20  38  61  90 120 161 208 245 318 373
#     4  12  24  39  62  90 128 165 205 260 319 378
#     4  12  28  36  60  96 130 158 208 262 322 384
#     4  11  20  40  59  86 124 163 211 250 311 378
#     4  10  22  36  65  93 122 161 209 263 308 377
#     4  12  26  40  58 100 130 164 208 262 330 380
#     4  12  22  40  62  88 116 172 210 248 310 386
#     4  10  20  40  62  87 120 167 207 256 304 386
#
# _framework density 20.411625999999998
#
# number of rings (size 3 to 8) (size 9 to 14) (size 15 to 20)
#    0.000    1.231    5.385    1.385    5.385    0.000 
#    0.000    0.000    1.692    3.692    0.000    0.000 
#    0.000    0.000    0.000    0.000    0.000    0.000 
#
# Total GULP energy -144749.040725 kJ/mol
# GULP energy per Si atom -5567.270797 kJ/mol
# Density = 2.036517 g / cm^3
# Si number density = 20.411626 Si / 1000 Ang^3
#
#
#
# Elastic Constant Matrix: (Units=GPa)
#
#
# Indices 1 2 3 4 5 6 
#
# 1 93.0658 13.6643 24.5772 0.0000 0.0000 0.0000
# 2 13.6643 141.0187 6.0287 0.0000 0.0000 0.0000
# 3 24.5772 6.0287 53.3198 0.0000 0.0000 0.0000
# 4 0.0000 0.0000 0.0000 18.5918 0.0000 0.0000
# 5 0.0000 0.0000 0.0000 0.0000 44.4194 0.0000
# 6 0.0000 0.0000 0.0000 0.0000 0.0000 22.3478
#
#
#
# Elastic Compliance Matrix: (Units=1/GPa)
#
#
# Indices 1 2 3 4 5 6 
#
# 1 0.012362 -0.000959 -0.005590 0.000000 0.000000 0.000000
# 2 -0.000959 0.007200 -0.000372 0.000000 0.000000 0.000000
# 3 -0.005590 -0.000372 0.021373 0.000000 0.000000 0.000000
# 4 0.000000 0.000000 0.000000 0.053787 0.000000 0.000000
# 5 0.000000 0.000000 0.000000 0.000000 0.022513 0.000000
# 6 0.000000 0.000000 0.000000 0.000000 0.000000 0.044747
#
#
# Mechanical properties :
#
#
# Convention : Reuss Voigt Hill
#
# Bulk Modulus (GPa) = 36.90847 41.77163 39.34005
# Shear Modulus (GPa) = 27.04822 33.28075 30.16448
#
# Velocity S-wave (km/s) = 3.64419 4.04230 3.84840
# Velocity P-wave (km/s) = 5.98567 6.50354 6.24997
#
# Compressibility (1/GPa) = 0.02709405
#
# Stress axis : x y z
#
# Youngs Moduli (GPa) = 80.89286 138.88733 46.78717
#
# Poissons Ratio (x) = 0.13318 0.26153
# Poissons Ratio (y) = 0.07757 0.01741
# Poissons Ratio (z) = 0.45217 0.05168
#
# Static dielectric constant tensor:
#      x y z
#    x 1.721960 0.000000 0.000000 
#    y 0.000000 1.769710 0.000000 
#    z 0.000000 0.000000 1.777300 
# 
# From -- ./inp_files/30850.got.cif
#   From: 2010.05.17/outbox.cif.g08.bks.cpg/sg24_16_cif.got.tgz:30850.got - 2010.06.04 00:33:39.
