data_PCOD9334120
_publ_section_title
;
Structure prediction by ZEFSAII (Michael W. Deem and Ramdas Pophale) SiO2 
 PCOD9334120
Probable space group: I 21 21 21
;
_chemical_formula_sum "Si O2"
_cell_formula_units_Z 64
_cell_length_a 14.009390
_cell_length_b 19.074604
_cell_length_c 11.914490
_cell_angle_alpha 90.000000
_cell_angle_beta 90.000000
_cell_angle_gamma 90.000000
_cell_volume 3183.832511
_symmetry_space_group_name_H-M "I 21 21 21"
_symmetry_group_IT_number 24
_symmetry_cell_setting 'orthorhombic'
loop_
_space_group_symop_operation_xyz
x,y,z
-x,1/2-y,z
x,-y,1/2-z
1/2-x,y,-z
1/2+x,1/2+y,1/2+z
1/2-x,-y,1/2+z
1/2+x,1/2-y,-z
-x,1/2+y,1/2-z
loop_
_atom_site_type_symbol
_atom_site_label
_atom_site_fract_x
_atom_site_fract_y
_atom_site_fract_z
Si Si1 0.073664 0.579473 0.711688
Si Si2 0.780737 0.704021 0.251805
Si Si3 0.422575 0.921826 0.736198
Si Si4 0.091777 0.598652 0.096347
Si Si5 0.103421 0.251365 0.456163
Si Si6 0.432537 0.813361 0.196576
Si Si7 0.217440 0.359924 0.189413
Si Si8 0.578309 0.941364 0.540828
O O1 0.090587 0.500000 0.750000
O O2 0.172915 0.621660 0.710997
O O3 0.043141 0.579225 0.581537
O O4 0.993474 0.616847 0.786291
O O5 0.846564 0.638828 0.284385
O O6 0.814119 0.724760 0.124897
O O7 0.669728 0.685113 0.255456
O O8 0.797348 0.776487 0.317563
O O9 0.485935 0.903790 0.847198
O O10 0.497055 0.928204 0.633877
O O11 0.380293 0.000000 0.750000
O O12 0.113361 0.665705 0.018582
O O13 0.161035 0.610248 0.202328
O O14 0.105859 0.523465 0.041258
O O15 0.090242 0.206161 0.567319
O O16 0.000000 0.250000 0.393522
O O17 0.500000 0.750000 0.239033
O O18 0.169055 0.397766 0.084088
#
# Coordination Sequence:
#
# PCOD9334120 Si02
#       8
#     8   8   8   8   8   8   8   8
#     4  12  26  43  62  86 128 174 211 250 311 375
#     4  11  21  40  65  92 125 162 205 256 314 373
#     4   9  19  37  64  96 122 152 206 269 311 358
#     4   9  18  36  64  98 128 150 199 268 315 367
#     4  10  20  35  68  98 122 153 200 252 324 371
#     4  11  25  43  57  88 130 164 204 253 306 369
#     4  10  21  39  62  97 126 162 207 260 311 370
#     4  10  22  39  62  92 127 167 209 253 310 365
#
# _framework density 20.101559000000002
#
# number of rings (size 3 to 8) (size 9 to 14) (size 15 to 20)
#    0.000    1.750    2.500    2.625    3.500    0.500 
#    2.250    1.875    0.000    0.000    0.000    0.000 
#    0.000    0.000    0.000    0.000    0.000    0.000 
#
# Total GULP energy -178711.765971 kJ/mol
# GULP energy per Si atom -5584.742687 kJ/mol
# Density = 2.005581 g / cm^3
# Si number density = 20.101559 Si / 1000 Ang^3
#
#
#
# Elastic Constant Matrix: (Units=GPa)
#
#
# Indices 1 2 3 4 5 6 
#
# 1 103.0666 56.9428 7.4424 0.0000 0.0000 0.0000
# 2 56.9428 163.4855 33.5979 0.0000 0.0000 0.0000
# 3 7.4424 33.5979 62.5048 0.0000 0.0000 0.0000
# 4 0.0000 0.0000 0.0000 22.3640 0.0000 0.0000
# 5 0.0000 0.0000 0.0000 0.0000 17.8258 0.0000
# 6 0.0000 0.0000 0.0000 0.0000 0.0000 28.7960
#
#
#
# Elastic Compliance Matrix: (Units=1/GPa)
#
#
# Indices 1 2 3 4 5 6 
#
# 1 0.012062 -0.004391 0.000924 0.000000 0.000000 0.000000
# 2 -0.004391 0.008475 -0.004033 0.000000 0.000000 0.000000
# 3 0.000924 -0.004033 0.018056 0.000000 0.000000 0.000000
# 4 0.000000 0.000000 0.000000 0.044715 0.000000 0.000000
# 5 0.000000 0.000000 0.000000 0.000000 0.056098 0.000000
# 6 0.000000 0.000000 0.000000 0.000000 0.000000 0.034727
#
#
# Mechanical properties :
#
#
# Convention : Reuss Voigt Hill
#
# Bulk Modulus (GPa) = 42.38391 58.33591 50.35991
# Shear Modulus (GPa) = 25.38110 29.20209 27.29159
#
# Velocity S-wave (km/s) = 3.55722 3.81560 3.68868
# Velocity P-wave (km/s) = 6.16461 6.96386 6.57639
#
# Compressibility (1/GPa) = 0.02359386
#
# Stress axis : x y z
#
# Youngs Moduli (GPa) = 82.90679 117.99507 55.38212
#
# Poissons Ratio (x) = 0.51813 -0.05118
# Poissons Ratio (y) = 0.36405 0.22334
# Poissons Ratio (z) = -0.07662 0.47583
#
# Static dielectric constant tensor:
#      x y z
#    x 1.716570 0.000000 0.000000 
#    y 0.000000 1.727720 0.000000 
#    z 0.000000 0.000000 1.720940 
# 
# From -- ./inp_files/21047.got.cif
#   From: 2010.05.17/outbox.cif.g08.bks.cpg/sg24_11_cif.got.tgz:21047.got - 2010.06.04 00:33:39.
