data_PCOD9334531
_publ_section_title
;
Structure prediction by ZEFSAII (Michael W. Deem and Ramdas Pophale) SiO2 
 PCOD9334531
Probable space group: I 21 21 21
;
_chemical_formula_sum "Si O2"
_cell_formula_units_Z 64
_cell_length_a 13.036090
_cell_length_b 9.073856
_cell_length_c 23.126736
_cell_angle_alpha 90.000000
_cell_angle_beta 90.000000
_cell_angle_gamma 90.000000
_cell_volume 2735.606177
_symmetry_space_group_name_H-M "I 21 21 21"
_symmetry_group_IT_number 24
_symmetry_cell_setting 'orthorhombic'
loop_
_space_group_symop_operation_xyz
x,y,z
-x,1/2-y,z
x,-y,1/2-z
1/2-x,y,-z
1/2+x,1/2+y,1/2+z
1/2-x,-y,1/2+z
1/2+x,1/2-y,-z
-x,1/2+y,1/2-z
loop_
_atom_site_type_symbol
_atom_site_label
_atom_site_fract_x
_atom_site_fract_y
_atom_site_fract_z
Si Si1 0.062477 0.022457 0.582212
Si Si2 0.208860 0.200384 0.868288
Si Si3 0.139227 0.320461 0.628499
Si Si4 0.448468 0.402223 0.795252
Si Si5 0.308351 0.827086 0.237637
Si Si6 0.684003 0.960740 0.596147
Si Si7 0.137179 0.934054 0.151377
Si Si8 0.512617 0.589760 0.963388
O O1 0.135719 0.163205 0.595686
O O2 0.952438 0.076875 0.605556
O O3 0.061757 0.993317 0.513814
O O4 0.104477 0.881704 0.615362
O O5 0.203782 0.245386 0.800431
O O6 0.237159 0.327160 0.913989
O O7 0.294634 0.072610 0.868127
O O8 0.123818 0.272231 0.695174
O O9 0.245295 0.404526 0.616762
O O10 0.500000 0.250000 0.776999
O O11 0.385752 0.500000 0.750000
O O12 0.382525 0.386910 0.852566
O O13 0.541595 0.508056 0.812377
O O14 0.205775 0.843241 0.197315
O O15 0.338464 0.000000 0.250000
O O16 0.597318 0.020389 0.553125
O O17 0.083577 0.878299 0.092581
O O18 0.500000 0.750000 0.991545
#
# Coordination Sequence:
#
# PCOD9334531 Si02
#       8
#     8   8   8   8   8   8   8   8
#     4  11  25  49  77 100 142 190 255 301 359 425
#     4  11  23  46  73 105 144 197 232 296 371 436
#     4  11  23  46  70 109 137 185 252 299 355 430
#     4  11  23  38  65 101 145 185 225 283 357 433
#     4  10  20  39  73 102 146 187 240 297 354 434
#     4  11  27  43  71 105 149 181 242 297 363 443
#     4  10  21  39  66 103 143 188 235 280 371 438
#     4  11  24  45  73 108 142 187 241 312 358 435
#
# _framework density 23.395181000000001
#
# number of rings (size 3 to 8) (size 9 to 14) (size 15 to 20)
#    0.000    1.250    5.000    1.875    1.750    3.500 
#    2.250    8.750    0.000    0.000    0.000    0.000 
#    0.000    0.000    0.000    0.000    0.000    0.000 
#
# Total GULP energy -178669.543985 kJ/mol
# GULP energy per Si atom -5583.423250 kJ/mol
# Density = 2.334193 g / cm^3
# Si number density = 23.395181 Si / 1000 Ang^3
#
#
#
# Elastic Constant Matrix: (Units=GPa)
#
#
# Indices 1 2 3 4 5 6 
#
# 1 63.7459 40.0505 40.0716 0.0000 0.0000 0.0000
# 2 40.0505 72.0489 31.6606 0.0000 0.0000 0.0000
# 3 40.0716 31.6606 106.4757 0.0000 0.0000 0.0000
# 4 0.0000 0.0000 0.0000 15.7929 0.0000 0.0000
# 5 0.0000 0.0000 0.0000 0.0000 -8.3164 0.0000
# 6 0.0000 0.0000 0.0000 0.0000 0.0000 40.8599
#
#
#
# Elastic Compliance Matrix: (Units=1/GPa)
#
#
# Indices 1 2 3 4 5 6 
#
# 1 0.027757 -0.012468 -0.006739 0.000000 0.000000 0.000000
# 2 -0.012468 0.021566 -0.001720 0.000000 0.000000 0.000000
# 3 -0.006739 -0.001720 0.012439 0.000000 0.000000 0.000000
# 4 0.000000 0.000000 0.000000 0.063320 0.000000 0.000000
# 5 0.000000 0.000000 0.000000 0.000000 -0.120244 0.000000
# 6 0.000000 0.000000 0.000000 0.000000 0.000000 0.024474
#
#
# Mechanical properties :
#
#
# Convention : Reuss Voigt Hill
#
# Bulk Modulus (GPa) = 50.23127 51.75954 50.99541
# Shear Modulus (GPa) = 64.26472 18.36647 41.31560
#
# Velocity S-wave (km/s) = 5.24679 2.80492 4.20692
# Velocity P-wave (km/s) = 7.63037 5.71508 6.74109
#
# Compressibility (1/GPa) = 0.01990792
#
# Stress axis : x y z
#
# Youngs Moduli (GPa) = 36.02696 46.36861 80.38935
#
# Poissons Ratio (x) = 0.57814 0.54172
# Poissons Ratio (y) = 0.44920 0.13830
# Poissons Ratio (z) = 0.24278 0.07977
#
# Static dielectric constant tensor:
#      x y z
#    x 1.954760 0.000000 0.000000 
#    y 0.000000 1.890600 0.000000 
#    z 0.000000 0.000000 1.926830 
# 
# From -- ./inp_files/35882.got.cif
#   From: 2010.05.17/outbox.cif.g08.bks.cpg/sg24_18_cif.got.tgz:35882.got - 2010.06.04 00:33:39.
