data_PCOD9334899
_publ_section_title
;
Structure prediction by ZEFSAII (Michael W. Deem and Ramdas Pophale) SiO2 
 PCOD9334899
Probable space group: I 21 21 21
;
_chemical_formula_sum "Si O2"
_cell_formula_units_Z 32
_cell_length_a 12.858115
_cell_length_b 4.924540
_cell_length_c 25.177908
_cell_angle_alpha 90.000000
_cell_angle_beta 90.000000
_cell_angle_gamma 90.000000
_cell_volume 1594.272729
_symmetry_space_group_name_H-M "I 21 21 21"
_symmetry_group_IT_number 24
_symmetry_cell_setting 'orthorhombic'
loop_
_space_group_symop_operation_xyz
x,y,z
-x,1/2-y,z
x,-y,1/2-z
1/2-x,y,-z
1/2+x,1/2+y,1/2+z
1/2-x,-y,1/2+z
1/2+x,1/2-y,-z
-x,1/2+y,1/2-z
loop_
_atom_site_type_symbol
_atom_site_label
_atom_site_fract_x
_atom_site_fract_y
_atom_site_fract_z
Si Si1 0.376643 0.276047 0.447024
Si Si2 0.882641 0.247857 0.789494
Si Si3 0.069896 0.000039 0.446448
Si Si4 0.270127 0.215320 0.104054
O O1 0.500000 0.250000 0.437172
O O2 0.323369 0.565329 0.435661
O O3 0.367895 0.153884 0.506515
O O4 0.323598 0.071629 0.406766
O O5 0.867442 0.500000 0.750000
O O6 0.799800 0.212633 0.836121
O O7 0.000000 0.250000 0.813667
O O8 0.879639 0.000000 0.750000
O O9 0.149928 0.845255 0.408250
O O10 0.000000 0.750000 0.468741
O O11 0.000000 0.250000 0.423906
#
# Coordination Sequence:
#
# PCOD9334899 Si02
#       4
#     8   8   8   8
#     4  11  22  36  57  90 124 156 197 246 301 367
#     4  10  21  38  60  89 121 150 190 250 313 368
#     4  11  24  41  58  86 128 167 207 253 297 355
#     4  12  23  39  63  87 119 165 206 243 304 370
#
# _framework density 20.071850000000001
#
# number of rings (size 3 to 8) (size 9 to 14) (size 15 to 20)
#    0.000    1.000    0.000    9.000    0.000    6.000 
#    0.000    0.000    0.000    3.000    0.000    0.000 
#    0.000    0.000    0.000    0.000    0.000    0.000 
#
# Total GULP energy -89344.917901 kJ/mol
# GULP energy per Si atom -5584.057369 kJ/mol
# Density = 2.002617 g / cm^3
# Si number density = 20.071850 Si / 1000 Ang^3
#
#
#
# Elastic Constant Matrix: (Units=GPa)
#
#
# Indices 1 2 3 4 5 6 
#
# 1 99.9833 42.7295 39.9169 0.0000 0.0000 0.0000
# 2 42.7295 121.7599 11.1776 0.0000 0.0000 0.0000
# 3 39.9169 11.1776 75.5875 0.0000 0.0000 0.0000
# 4 0.0000 0.0000 0.0000 2.1752 0.0000 0.0000
# 5 0.0000 0.0000 0.0000 0.0000 31.7946 0.0000
# 6 0.0000 0.0000 0.0000 0.0000 0.0000 40.3072
#
#
#
# Elastic Compliance Matrix: (Units=1/GPa)
#
#
# Indices 1 2 3 4 5 6 
#
# 1 0.014790 -0.004535 -0.007140 0.000000 0.000000 0.000000
# 2 -0.004535 0.009716 0.000958 0.000000 0.000000 0.000000
# 3 -0.007140 0.000958 0.016859 0.000000 0.000000 0.000000
# 4 0.000000 0.000000 0.000000 0.459734 0.000000 0.000000
# 5 0.000000 0.000000 0.000000 0.000000 0.031452 0.000000
# 6 0.000000 0.000000 0.000000 0.000000 0.000000 0.024809
#
#
# Mechanical properties :
#
#
# Convention : Reuss Voigt Hill
#
# Bulk Modulus (GPa) = 50.17187 53.88651 52.02919
# Shear Modulus (GPa) = 8.54062 28.42250 18.48156
#
# Velocity S-wave (km/s) = 2.06501 3.76711 3.03771
# Velocity P-wave (km/s) = 5.54401 6.76953 6.18719
#
# Compressibility (1/GPa) = 0.01993149
#
# Stress axis : x y z
#
# Youngs Moduli (GPa) = 67.61195 102.91883 59.31700
#
# Poissons Ratio (x) = 0.46673 0.42352
# Poissons Ratio (y) = 0.30662 -0.05683
# Poissons Ratio (z) = 0.48275 -0.09860
#
# Static dielectric constant tensor:
#      x y z
#    x 1.897690 0.000000 0.000000 
#    y 0.000000 1.697570 0.000000 
#    z 0.000000 0.000000 1.692300 
# 
# From -- ./inp_files/2168.got.cif
#   From: 2010.05.17/outbox.cif.g08.bks.cpg/sg24_2_cif.got.tgz:2168.got - 2010.06.04 00:33:39.
