data_PCOD9334158
_publ_section_title
;
Structure prediction by ZEFSAII (Michael W. Deem and Ramdas Pophale) SiO2 
 PCOD9334158
Probable space group: I 21 21 21
;
_chemical_formula_sum "Si O2"
_cell_formula_units_Z 48
_cell_length_a 6.708171
_cell_length_b 17.066205
_cell_length_c 21.574193
_cell_angle_alpha 90.000000
_cell_angle_beta 90.000000
_cell_angle_gamma 90.000000
_cell_volume 2469.878800
_symmetry_space_group_name_H-M "I 21 21 21"
_symmetry_group_IT_number 24
_symmetry_cell_setting 'orthorhombic'
loop_
_space_group_symop_operation_xyz
x,y,z
-x,1/2-y,z
x,-y,1/2-z
1/2-x,y,-z
1/2+x,1/2+y,1/2+z
1/2-x,-y,1/2+z
1/2+x,1/2-y,-z
-x,1/2+y,1/2-z
loop_
_atom_site_type_symbol
_atom_site_label
_atom_site_fract_x
_atom_site_fract_y
_atom_site_fract_z
Si Si1 0.961897 0.089203 0.676428
Si Si2 0.000000 0.250000 0.959629
Si Si3 0.750000 0.880710 0.500000
Si Si4 0.658047 0.481016 0.855964
Si Si5 0.812262 0.029747 0.432868
Si Si6 0.500000 0.750000 0.239531
Si Si7 0.333281 0.500000 0.750000
Si Si8 0.291237 0.206043 0.851571
O O1 0.820889 0.068404 0.734972
O O2 0.015326 0.177056 0.692536
O O3 0.816965 0.073931 0.618210
O O4 0.152953 0.032554 0.666407
O O5 0.819630 0.264319 0.912995
O O6 0.057225 0.326043 0.998602
O O7 0.743713 0.938692 0.441194
O O8 0.546445 0.520267 0.915659
O O9 0.478716 0.485205 0.806618
O O10 0.707604 0.388747 0.858310
O O11 0.750000 0.063218 0.500000
O O12 0.677836 0.733280 0.288916
O O13 0.500000 0.250000 0.849546
#
# Coordination Sequence:
#
# PCOD9334158 Si02
#       8
#     8   4   4   8   8   4   4   8
#     4  11  22  40  64  90 124 163 216 257 321 374
#     4  11  24  34  56  88 128 172 201 246 292 366
#     4  10  22  40  56  86 128 168 204 252 300 356
#     4  11  21  37  65  90 121 173 208 242 318 388
#     4   9  23  42  60  86 125 163 212 266 298 363
#     4  11  24  40  64  94 128 160 201 274 318 370
#     4  10  20  36  58  92 124 156 198 260 308 378
#     4  11  23  39  58  95 132 160 202 252 315 376
#
# _framework density 19.434152999999998
#
# number of rings (size 3 to 8) (size 9 to 14) (size 15 to 20)
#    0.500    1.000    0.000    5.500    3.500    7.333 
#    0.000    0.000    3.667    0.000    0.000    0.000 
#    0.000    0.000    0.000    0.000    0.000    0.000 
#
# Total GULP energy -133677.750448 kJ/mol
# GULP energy per Si atom -5569.906269 kJ/mol
# Density = 1.938992 g / cm^3
# Si number density = 19.434153 Si / 1000 Ang^3
#
#
#
# Elastic Constant Matrix: (Units=GPa)
#
#
# Indices 1 2 3 4 5 6 
#
# 1 115.7268 43.0687 33.4218 0.0000 0.0000 0.0000
# 2 43.0687 89.0425 32.5857 0.0000 0.0000 0.0000
# 3 33.4218 32.5857 71.0954 0.0000 0.0000 0.0000
# 4 0.0000 0.0000 0.0000 22.3674 0.0000 0.0000
# 5 0.0000 0.0000 0.0000 0.0000 17.0633 0.0000
# 6 0.0000 0.0000 0.0000 0.0000 0.0000 10.7992
#
#
#
# Elastic Compliance Matrix: (Units=1/GPa)
#
#
# Indices 1 2 3 4 5 6 
#
# 1 0.011158 -0.004178 -0.003330 0.000000 0.000000 0.000000
# 2 -0.004178 0.015058 -0.004938 0.000000 0.000000 0.000000
# 3 -0.003330 -0.004938 0.017894 0.000000 0.000000 0.000000
# 4 0.000000 0.000000 0.000000 0.044708 0.000000 0.000000
# 5 0.000000 0.000000 0.000000 0.000000 0.058605 0.000000
# 6 0.000000 0.000000 0.000000 0.000000 0.000000 0.092599
#
#
# Mechanical properties :
#
#
# Convention : Reuss Voigt Hill
#
# Bulk Modulus (GPa) = 52.03370 54.89079 53.46224
# Shear Modulus (GPa) = 18.42831 21.16521 19.79676
#
# Velocity S-wave (km/s) = 3.08270 3.30369 3.19511
# Velocity P-wave (km/s) = 6.28516 6.54663 6.41722
#
# Compressibility (1/GPa) = 0.01921832
#
# Stress axis : x y z
#
# Youngs Moduli (GPa) = 89.62382 66.40772 55.88369
#
# Poissons Ratio (x) = 0.27746 0.18611
# Poissons Ratio (y) = 0.37446 0.27594
# Poissons Ratio (z) = 0.29847 0.32790
#
# Static dielectric constant tensor:
#      x y z
#    x 1.711060 0.000000 0.000000 
#    y 0.000000 1.731210 0.000000 
#    z 0.000000 0.000000 1.743620 
# 
# From -- ./inp_files/34733.got.cif
#   From: 2010.05.17/outbox.cif.g08.bks.cpg/sg24_18_cif.got.tgz:34733.got - 2010.06.04 00:33:39.
