data_PCOD9334805
_publ_section_title
;
Structure prediction by ZEFSAII (Michael W. Deem and Ramdas Pophale) SiO2 
 PCOD9334805
Probable space group: I 21 21 21
;
_chemical_formula_sum "Si O2"
_cell_formula_units_Z 48
_cell_length_a 8.925428
_cell_length_b 8.100329
_cell_length_c 28.997076
_cell_angle_alpha 90.000000
_cell_angle_beta 90.000000
_cell_angle_gamma 90.000000
_cell_volume 2096.456793
_symmetry_space_group_name_H-M "I 21 21 21"
_symmetry_group_IT_number 24
_symmetry_cell_setting 'orthorhombic'
loop_
_space_group_symop_operation_xyz
x,y,z
-x,1/2-y,z
x,-y,1/2-z
1/2-x,y,-z
1/2+x,1/2+y,1/2+z
1/2-x,-y,1/2+z
1/2+x,1/2-y,-z
-x,1/2+y,1/2-z
loop_
_atom_site_type_symbol
_atom_site_label
_atom_site_fract_x
_atom_site_fract_y
_atom_site_fract_z
Si Si1 0.874885 0.644099 0.621205
Si Si2 0.392747 0.611998 0.127951
Si Si3 0.333379 0.967162 0.952428
Si Si4 0.165605 0.191987 0.196766
Si Si5 0.329862 0.205398 0.697311
Si Si6 0.176232 0.433603 0.451592
O O1 0.758360 0.552653 0.588401
O O2 0.785661 0.746669 0.659417
O O3 0.000000 0.750000 0.594635
O O4 0.980905 0.510667 0.646752
O O5 0.500000 0.750000 0.103559
O O6 0.288800 0.700954 0.165505
O O7 0.284685 0.527450 0.090752
O O8 0.509649 0.006845 0.949333
O O9 0.330015 0.767296 0.949444
O O10 0.250000 0.012155 0.000000
O O11 0.191777 0.251971 0.248931
O O12 0.000000 0.250000 0.183616
O O13 0.175908 0.992951 0.195401
O O14 0.500000 0.250000 0.683235
O O15 0.250000 0.480525 0.500000
#
# Coordination Sequence:
#
# PCOD9334805 Si02
#       6
#     8   8   8   8   8   8
#     4  12  27  44  63  99 140 180 220 279 341 395
#     4  12  23  41  68  99 132 172 226 275 327 398
#     4  10  21  41  68  99 137 173 221 275 334 400
#     4  10  23  45  65  95 134 173 222 275 336 401
#     4  10  23  42  70  97 126 175 227 275 333 399
#     4  10  21  36  70 107 130 165 222 287 330 386
#
# _framework density 22.895772999999998
#
# number of rings (size 3 to 8) (size 9 to 14) (size 15 to 20)
#    0.000    1.333    3.333    1.000    9.333    0.667 
#    0.000    3.333    0.000    0.000    0.000    0.000 
#    0.000    0.000    0.000    0.000    0.000    0.000 
#
# Total GULP energy -134173.550430 kJ/mol
# GULP energy per Si atom -5590.564601 kJ/mol
# Density = 2.284366 g / cm^3
# Si number density = 22.895773 Si / 1000 Ang^3
#
#
#
# Elastic Constant Matrix: (Units=GPa)
#
#
# Indices 1 2 3 4 5 6 
#
# 1 237.4271 51.9552 113.3598 0.0000 0.0000 0.0000
# 2 51.9552 33.9698 28.0833 0.0000 0.0000 0.0000
# 3 113.3598 28.0833 109.3802 0.0000 0.0000 0.0000
# 4 0.0000 0.0000 0.0000 15.5829 0.0000 0.0000
# 5 0.0000 0.0000 0.0000 0.0000 41.4668 0.0000
# 6 0.0000 0.0000 0.0000 0.0000 0.0000 46.9476
#
#
#
# Elastic Compliance Matrix: (Units=1/GPa)
#
#
# Indices 1 2 3 4 5 6 
#
# 1 0.009957 -0.008502 -0.008136 0.000000 0.000000 0.000000
# 2 -0.008502 0.044630 -0.002647 0.000000 0.000000 0.000000
# 3 -0.008136 -0.002647 0.018254 0.000000 0.000000 0.000000
# 4 0.000000 0.000000 0.000000 0.064173 0.000000 0.000000
# 5 0.000000 0.000000 0.000000 0.000000 0.024116 0.000000
# 6 0.000000 0.000000 0.000000 0.000000 0.000000 0.021300
#
#
# Mechanical properties :
#
#
# Convention : Reuss Voigt Hill
#
# Bulk Modulus (GPa) = 29.17983 85.28596 57.23289
# Shear Modulus (GPa) = 21.51223 33.29137 27.40180
#
# Velocity S-wave (km/s) = 3.06857 3.81732 3.46324
# Velocity P-wave (km/s) = 5.03261 7.53391 6.40652
#
# Compressibility (1/GPa) = 0.03427025
#
# Stress axis : x y z
#
# Youngs Moduli (GPa) = 100.43082 22.40627 54.78125
#
# Poissons Ratio (x) = 0.19051 0.44572
# Poissons Ratio (y) = 0.85391 0.14500
# Poissons Ratio (z) = 0.81714 0.05931
#
# Static dielectric constant tensor:
#      x y z
#    x 1.812790 0.000000 0.000000 
#    y 0.000000 1.949970 0.000000 
#    z 0.000000 0.000000 1.831240 
# 
# From -- ./inp_files/38300.got.cif
#   From: 2010.05.17/outbox.cif.g08.bks.cpg/sg24_20_cif.got.tgz:38300.got - 2010.06.04 00:33:39.
