data_PCOD9334135
_publ_section_title
;
Structure prediction by ZEFSAII (Michael W. Deem and Ramdas Pophale) SiO2 
 PCOD9334135
Probable space group: I 21 21 21
;
_chemical_formula_sum "Si O2"
_cell_formula_units_Z 48
_cell_length_a 16.904711
_cell_length_b 12.316728
_cell_length_c 10.108357
_cell_angle_alpha 90.000000
_cell_angle_beta 90.000000
_cell_angle_gamma 90.000000
_cell_volume 2104.668363
_symmetry_space_group_name_H-M "I 21 21 21"
_symmetry_group_IT_number 24
_symmetry_cell_setting 'orthorhombic'
loop_
_space_group_symop_operation_xyz
x,y,z
-x,1/2-y,z
x,-y,1/2-z
1/2-x,y,-z
1/2+x,1/2+y,1/2+z
1/2-x,-y,1/2+z
1/2+x,1/2-y,-z
-x,1/2+y,1/2-z
loop_
_atom_site_type_symbol
_atom_site_label
_atom_site_fract_x
_atom_site_fract_y
_atom_site_fract_z
Si Si1 0.500000 0.250000 0.076510
Si Si2 0.663536 0.500000 0.750000
Si Si3 0.250000 0.069246 0.000000
Si Si4 0.837873 0.263922 0.283743
Si Si5 0.750000 0.833117 0.000000
Si Si6 0.828929 0.252766 0.856287
Si Si7 0.059065 0.421100 0.133317
Si Si8 0.350562 0.491195 0.107256
O O1 0.491237 0.351023 0.973868
O O2 0.577432 0.255683 0.169434
O O3 0.719690 0.499130 0.878423
O O4 0.622948 0.381605 0.740452
O O5 0.180486 0.153241 0.964540
O O6 0.821798 0.233765 0.436488
O O7 0.746045 0.276686 0.235832
O O8 0.883943 0.169078 0.204825
O O9 0.715387 0.915990 0.109096
O O10 0.816535 0.129870 0.902552
O O11 0.028735 0.500000 0.250000
O O12 0.103282 0.501381 0.029791
O O13 0.393296 0.500000 0.250000
#
# Coordination Sequence:
#
# PCOD9334135 Si02
#       8
#     4   4   4   8   4   8   8   8
#     4  10  22  40  62  88 136 184 222 254 332 432
#     4  10  20  36  56  86 124 160 208 262 324 382
#     4  10  20  38  62  86 114 163 221 270 306 388
#     4  11  22  38  66  97 132 166 227 285 338 398
#     4  12  20  32  60 106 134 161 199 308 348 396
#     4  10  20  37  59  91 124 176 218 260 329 410
#     4  11  23  43  66 103 134 171 227 287 343 406
#     4  11  20  32  58  94 135 162 203 271 349 404
#
# _framework density 22.806443999999999
#
# number of rings (size 3 to 8) (size 9 to 14) (size 15 to 20)
#    0.000    1.333    3.333    6.000    0.000    0.000 
#    6.000    0.000   29.333    5.000    0.000    0.000 
#    0.000    0.000    0.000    0.000    0.000    0.000 
#
# Total GULP energy -133612.911109 kJ/mol
# GULP energy per Si atom -5567.204630 kJ/mol
# Density = 2.275454 g / cm^3
# Si number density = 22.806444 Si / 1000 Ang^3
#
#
#
# Elastic Constant Matrix: (Units=GPa)
#
#
# Indices 1 2 3 4 5 6 
#
# 1 87.1077 24.6085 -1.4992 0.0000 0.0000 0.0000
# 2 24.6085 115.9202 22.0992 0.0000 0.0000 0.0000
# 3 -1.4992 22.0992 80.2882 0.0000 0.0000 0.0000
# 4 0.0000 0.0000 0.0000 28.2883 0.0000 0.0000
# 5 0.0000 0.0000 0.0000 0.0000 16.8380 0.0000
# 6 0.0000 0.0000 0.0000 0.0000 0.0000 15.7346
#
#
#
# Elastic Compliance Matrix: (Units=1/GPa)
#
#
# Indices 1 2 3 4 5 6 
#
# 1 0.012288 -0.002799 0.001000 0.000000 0.000000 0.000000
# 2 -0.002799 0.009742 -0.002734 0.000000 0.000000 0.000000
# 3 0.001000 -0.002734 0.013226 0.000000 0.000000 0.000000
# 4 0.000000 0.000000 0.000000 0.035350 0.000000 0.000000
# 5 0.000000 0.000000 0.000000 0.000000 0.059389 0.000000
# 6 0.000000 0.000000 0.000000 0.000000 0.000000 0.063554
#
#
# Mechanical properties :
#
#
# Convention : Reuss Voigt Hill
#
# Bulk Modulus (GPa) = 38.18215 41.52591 39.85403
# Shear Modulus (GPa) = 23.65786 28.04604 25.85195
#
# Velocity S-wave (km/s) = 3.22426 3.51057 3.37046
# Velocity P-wave (km/s) = 5.53528 5.88894 5.71485
#
# Compressibility (1/GPa) = 0.02619025
#
# Stress axis : x y z
#
# Youngs Moduli (GPa) = 81.37987 102.64798 75.60719
#
# Poissons Ratio (x) = 0.28734 -0.07560
# Poissons Ratio (y) = 0.22780 0.20669
# Poissons Ratio (z) = -0.08138 0.28061
#
# Static dielectric constant tensor:
#      x y z
#    x 1.888410 0.000000 0.000000 
#    y 0.000000 1.893390 0.000000 
#    z 0.000000 0.000000 1.985350 
# 
# From -- ./inp_files/21583.got.cif
#   From: 2010.05.17/outbox.cif.g08.bks.cpg/sg24_11_cif.got.tgz:21583.got - 2010.06.04 00:33:39.
