data_PCOD9334430
_publ_section_title
;
Structure prediction by ZEFSAII (Michael W. Deem and Ramdas Pophale) SiO2 
 PCOD9334430
Probable space group: I 21 21 21
;
_chemical_formula_sum "Si O2"
_cell_formula_units_Z 28
_cell_length_a 8.997134
_cell_length_b 5.789875
_cell_length_c 24.180710
_cell_angle_alpha 90.000000
_cell_angle_beta 90.000000
_cell_angle_gamma 90.000000
_cell_volume 1259.628345
_symmetry_space_group_name_H-M "I 21 21 21"
_symmetry_group_IT_number 24
_symmetry_cell_setting 'orthorhombic'
loop_
_space_group_symop_operation_xyz
x,y,z
-x,1/2-y,z
x,-y,1/2-z
1/2-x,y,-z
1/2+x,1/2+y,1/2+z
1/2-x,-y,1/2+z
1/2+x,1/2-y,-z
-x,1/2+y,1/2-z
loop_
_atom_site_type_symbol
_atom_site_label
_atom_site_fract_x
_atom_site_fract_y
_atom_site_fract_z
Si Si1 0.845861 0.622320 0.196752
Si Si2 0.500000 0.250000 0.880306
Si Si3 0.242318 0.418663 0.598700
Si Si4 0.250000 0.057378 0.500000
Si Si5 0.000000 0.250000 0.949754
O O1 0.774983 0.500000 0.250000
O O2 0.897861 0.417195 0.156648
O O3 0.753742 0.802888 0.159462
O O4 0.000000 0.750000 0.214447
O O5 0.384426 0.417185 0.909675
O O6 0.259603 0.219067 0.553467
O O7 0.097097 0.571413 0.586692
O O8 0.389972 0.897523 0.487558
#
# Coordination Sequence:
#
# PCOD9334430 Si02
#       5
#     8   4   8   4   4
#     4  10  20  38  67 109 141 180 231 292 348 404
#     4  10  22  41  68 110 136 180 228 297 334 412
#     4  11  26  42  70 107 144 185 235 283 354 412
#     4  12  28  48  70 104 140 190 236 280 356 422
#     4  12  28  47  66 102 148 188 228 293 342 424
#
# _framework density 22.228777999999998
#
# number of rings (size 3 to 8) (size 9 to 14) (size 15 to 20)
#    0.000    1.143    1.429    3.429    0.000   21.714 
#    0.000    0.000    0.000    0.000  104.000    0.000 
#    0.000    0.000    0.000    0.000    0.000    0.000 
#
# Total GULP energy -78386.250328 kJ/mol
# GULP energy per Si atom -5599.017881 kJ/mol
# Density = 2.217818 g / cm^3
# Si number density = 22.228778 Si / 1000 Ang^3
#
#
#
# Elastic Constant Matrix: (Units=GPa)
#
#
# Indices 1 2 3 4 5 6 
#
# 1 133.4578 87.9890 75.5198 0.0000 0.0000 0.0000
# 2 87.9890 166.0626 76.5075 0.0000 0.0000 0.0000
# 3 75.5198 76.5075 128.2679 0.0000 0.0000 0.0000
# 4 0.0000 0.0000 0.0000 40.8288 0.0000 0.0000
# 5 0.0000 0.0000 0.0000 0.0000 35.2970 0.0000
# 6 0.0000 0.0000 0.0000 0.0000 0.0000 36.5769
#
#
#
# Elastic Compliance Matrix: (Units=1/GPa)
#
#
# Indices 1 2 3 4 5 6 
#
# 1 0.013572 -0.004840 -0.005104 0.000000 0.000000 0.000000
# 2 -0.004840 0.010029 -0.003133 0.000000 0.000000 0.000000
# 3 -0.005104 -0.003133 0.012670 0.000000 0.000000 0.000000
# 4 0.000000 0.000000 0.000000 0.024493 0.000000 0.000000
# 5 0.000000 0.000000 0.000000 0.000000 0.028331 0.000000
# 6 0.000000 0.000000 0.000000 0.000000 0.000000 0.027340
#
#
# Mechanical properties :
#
#
# Convention : Reuss Voigt Hill
#
# Bulk Modulus (GPa) = 98.83055 100.86899 99.84977
# Shear Modulus (GPa) = 34.25582 35.05866 34.65724
#
# Velocity S-wave (km/s) = 3.92989 3.97567 3.95285
# Velocity P-wave (km/s) = 8.07150 8.15787 8.11480
#
# Compressibility (1/GPa) = 0.01011833
#
# Stress axis : x y z
#
# Youngs Moduli (GPa) = 73.68074 99.70598 78.92727
#
# Poissons Ratio (x) = 0.48255 0.40285
# Poissons Ratio (y) = 0.35659 0.24726
# Poissons Ratio (z) = 0.37607 0.31236
#
# Static dielectric constant tensor:
#      x y z
#    x 1.807990 0.000000 0.000000 
#    y 0.000000 1.523440 0.000000 
#    z 0.000000 0.000000 1.837480 
# 
# From -- ./inp_files/6809.got.cif
#   From: 2010.05.17/outbox.cif.g08.bks.cpg/sg24_4_cif.got.tgz:6809.got - 2010.06.04 00:33:39.
