data_PCOD9334331
_publ_section_title
;
Structure prediction by ZEFSAII (Michael W. Deem and Ramdas Pophale) SiO2 
 PCOD9334331
Probable space group: I 21 21 21
;
_chemical_formula_sum "Si O2"
_cell_formula_units_Z 60
_cell_length_a 22.293014
_cell_length_b 5.012915
_cell_length_c 25.640138
_cell_angle_alpha 90.000000
_cell_angle_beta 90.000000
_cell_angle_gamma 90.000000
_cell_volume 2865.361939
_symmetry_space_group_name_H-M "I 21 21 21"
_symmetry_group_IT_number 24
_symmetry_cell_setting 'orthorhombic'
loop_
_space_group_symop_operation_xyz
x,y,z
-x,1/2-y,z
x,-y,1/2-z
1/2-x,y,-z
1/2+x,1/2+y,1/2+z
1/2-x,-y,1/2+z
1/2+x,1/2-y,-z
-x,1/2+y,1/2-z
loop_
_atom_site_type_symbol
_atom_site_label
_atom_site_fract_x
_atom_site_fract_y
_atom_site_fract_z
Si Si1 0.389530 0.402598 0.933617
Si Si2 0.419425 0.926315 0.193214
Si Si3 0.432412 0.629703 0.450923
Si Si4 0.642104 0.110063 0.149287
Si Si5 0.500000 0.750000 0.109070
Si Si6 0.326280 0.131822 0.693819
Si Si7 0.437717 0.896942 0.877072
Si Si8 0.720638 0.135163 0.860381
O O1 0.410229 0.701844 0.921035
O O2 0.322114 0.385436 0.911090
O O3 0.430726 0.193891 0.900623
O O4 0.400629 0.347255 0.994001
O O5 0.391768 0.637206 0.177761
O O6 0.472395 0.959016 0.150379
O O7 0.444796 0.000000 0.250000
O O8 0.366106 0.138868 0.187043
O O9 0.500000 0.750000 0.453346
O O10 0.389559 0.711866 0.403802
O O11 0.447472 0.332232 0.430225
O O12 0.710551 0.053171 0.135530
O O13 0.394060 0.109284 0.672539
O O14 0.307301 0.435937 0.683254
O O15 0.321306 0.000000 0.750000
O O16 0.286064 0.940557 0.657331
O O17 0.500000 0.750000 0.864694
#
# Coordination Sequence:
#
# PCOD9334331 Si02
#       8
#     8   8   8   8   4   8   8   8
#     4  10  23  36  62  87 117 163 200 245 308 357
#     4  11  24  41  62  90 122 162 204 243 312 367
#     4  11  22  39  62  87 122 156 203 247 312 365
#     4  11  24  40  62  90 122 157 205 256 301 363
#     4  10  24  40  60  90 128 156 198 260 302 366
#     4  10  21  38  62  86 118 162 199 249 307 354
#     4  10  20  38  56  89 122 152 200 249 295 366
#     4  10  22  41  58  88 124 154 206 259 296 362
#
# _framework density 20.939762000000002
#
# number of rings (size 3 to 8) (size 9 to 14) (size 15 to 20)
#    0.000    1.600    1.333    2.800    2.800    5.867 
#    0.000    4.000    0.000    6.400    0.000    0.000 
#    0.000    0.000    0.000    0.000    0.000    0.000 
#
# Total GULP energy -167150.196857 kJ/mol
# GULP energy per Si atom -5571.673229 kJ/mol
# Density = 2.089210 g / cm^3
# Si number density = 20.939762 Si / 1000 Ang^3
#
#
#
# Elastic Constant Matrix: (Units=GPa)
#
#
# Indices 1 2 3 4 5 6 
#
# 1 96.4028 17.6634 49.0229 0.0000 0.0000 0.0000
# 2 17.6634 83.9090 13.0036 0.0000 0.0000 0.0000
# 3 49.0229 13.0036 91.4437 0.0000 0.0000 0.0000
# 4 0.0000 0.0000 0.0000 16.5567 0.0000 0.0000
# 5 0.0000 0.0000 0.0000 0.0000 12.6593 0.0000
# 6 0.0000 0.0000 0.0000 0.0000 0.0000 24.3040
#
#
#
# Elastic Compliance Matrix: (Units=1/GPa)
#
#
# Indices 1 2 3 4 5 6 
#
# 1 0.014550 -0.001896 -0.007531 0.000000 0.000000 0.000000
# 2 -0.001896 0.012433 -0.000752 0.000000 0.000000 0.000000
# 3 -0.007531 -0.000752 0.015080 0.000000 0.000000 0.000000
# 4 0.000000 0.000000 0.000000 0.060398 0.000000 0.000000
# 5 0.000000 0.000000 0.000000 0.000000 0.078994 0.000000
# 6 0.000000 0.000000 0.000000 0.000000 0.000000 0.041145
#
#
# Mechanical properties :
#
#
# Convention : Reuss Voigt Hill
#
# Bulk Modulus (GPa) = 46.06880 47.90391 46.98636
# Shear Modulus (GPa) = 19.98462 23.50837 21.74650
#
# Velocity S-wave (km/s) = 3.09267 3.35426 3.22611
# Velocity P-wave (km/s) = 5.89925 6.15858 6.03031
#
# Compressibility (1/GPa) = 0.02170666
#
# Stress axis : x y z
#
# Youngs Moduli (GPa) = 68.72859 80.42948 66.31413
#
# Poissons Ratio (x) = 0.15248 0.49939
# Poissons Ratio (y) = 0.13030 0.04985
# Poissons Ratio (z) = 0.51757 0.06046
#
# Static dielectric constant tensor:
#      x y z
#    x 1.784420 0.000000 0.000000 
#    y 0.000000 1.821250 0.000000 
#    z 0.000000 0.000000 1.736990 
# 
# From -- ./inp_files/36095.got.cif
#   From: 2010.05.17/outbox.cif.g08.bks.cpg/sg24_19_cif.got.tgz:36095.got - 2010.06.04 00:33:39.
