data_PCOD9334043
_publ_section_title
;
Structure prediction by ZEFSAII (Michael W. Deem and Ramdas Pophale) SiO2 
 PCOD9334043
Probable space group: I 21 21 21
;
_chemical_formula_sum "Si O2"
_cell_formula_units_Z 32
_cell_length_a 12.354001
_cell_length_b 7.048072
_cell_length_c 17.710148
_cell_angle_alpha 90.000000
_cell_angle_beta 90.000000
_cell_angle_gamma 90.000000
_cell_volume 1542.056033
_symmetry_space_group_name_H-M "I 21 21 21"
_symmetry_group_IT_number 24
_symmetry_cell_setting 'orthorhombic'
loop_
_space_group_symop_operation_xyz
x,y,z
-x,1/2-y,z
x,-y,1/2-z
1/2-x,y,-z
1/2+x,1/2+y,1/2+z
1/2-x,-y,1/2+z
1/2+x,1/2-y,-z
-x,1/2+y,1/2-z
loop_
_atom_site_type_symbol
_atom_site_label
_atom_site_fract_x
_atom_site_fract_y
_atom_site_fract_z
Si Si1 0.159974 0.676976 0.934334
Si Si2 0.697486 0.065198 0.834514
Si Si3 0.008775 0.526923 0.455006
Si Si4 0.229645 0.943173 0.417024
O O1 0.199531 0.548832 0.865575
O O2 0.055546 0.586153 0.973868
O O3 0.179255 0.895514 0.909268
O O4 0.250000 0.654489 0.000000
O O5 0.721273 0.286451 0.852377
O O6 0.676003 0.000000 0.750000
O O7 0.593614 0.015798 0.886369
O O8 0.000000 0.750000 0.474323
O O9 0.889906 0.464152 0.426963
O O10 0.250000 0.848490 0.500000
#
# Coordination Sequence:
#
# PCOD9334043 Si02
#       4
#     8   8   8   8
#     4   9  19  34  56  84 114 157 210 259 305 369
#     4  10  20  35  53  86 128 163 198 252 323 389
#     4   9  18  37  59  89 119 161 215 264 319 375
#     4  10  20  36  59  89 117 160 213 262 313 371
#
# _framework density 20.751517
#
# number of rings (size 3 to 8) (size 9 to 14) (size 15 to 20)
#    0.000    2.500    0.000    3.750    0.000   10.000 
#   13.500    0.000    0.000    0.000   58.500    0.000 
#    0.000    0.000    0.000    0.000    0.000    0.000 
#
# Total GULP energy -89241.355121 kJ/mol
# GULP energy per Si atom -5577.584695 kJ/mol
# Density = 2.070429 g / cm^3
# Si number density = 20.751517 Si / 1000 Ang^3
#
#
#
# Elastic Constant Matrix: (Units=GPa)
#
#
# Indices 1 2 3 4 5 6 
#
# 1 89.1359 69.9065 66.9176 0.0000 0.0000 0.0000
# 2 69.9065 138.9183 62.0081 0.0000 0.0000 0.0000
# 3 66.9176 62.0081 102.0549 0.0000 0.0000 0.0000
# 4 0.0000 0.0000 0.0000 12.6274 0.0000 0.0000
# 5 0.0000 0.0000 0.0000 0.0000 14.0313 0.0000
# 6 0.0000 0.0000 0.0000 0.0000 0.0000 25.4553
#
#
#
# Elastic Compliance Matrix: (Units=1/GPa)
#
#
# Indices 1 2 3 4 5 6 
#
# 1 0.027168 -0.007848 -0.013045 0.000000 0.000000 0.000000
# 2 -0.007848 0.012145 -0.002233 0.000000 0.000000 0.000000
# 3 -0.013045 -0.002233 0.019709 0.000000 0.000000 0.000000
# 4 0.000000 0.000000 0.000000 0.079193 0.000000 0.000000
# 5 0.000000 0.000000 0.000000 0.000000 0.071269 0.000000
# 6 0.000000 0.000000 0.000000 0.000000 0.000000 0.039285
#
#
# Mechanical properties :
#
#
# Convention : Reuss Voigt Hill
#
# Bulk Modulus (GPa) = 78.31797 80.86374 79.59085
# Shear Modulus (GPa) = 16.70694 19.17459 17.94077
#
# Velocity S-wave (km/s) = 2.84050 3.04305 2.94352
# Velocity P-wave (km/s) = 6.96998 7.16932 7.07035
#
# Compressibility (1/GPa) = 0.01276846
#
# Stress axis : x y z
#
# Youngs Moduli (GPa) = 36.80852 82.34125 50.73811
#
# Poissons Ratio (x) = 0.64625 0.66189
# Poissons Ratio (y) = 0.28889 0.11329
# Poissons Ratio (z) = 0.48018 0.18385
#
# Static dielectric constant tensor:
#      x y z
#    x 1.841940 0.000000 0.000000 
#    y 0.000000 1.829740 0.000000 
#    z 0.000000 0.000000 1.707920 
# 
# From -- ./inp_files/25452.got.cif
#   From: 2010.05.17/outbox.cif.g08.bks.cpg/sg24_13_cif.got.tgz:25452.got - 2010.06.04 00:33:39.
