data_PCOD9334832
_publ_section_title
;
Structure prediction by ZEFSAII (Michael W. Deem and Ramdas Pophale) SiO2 
 PCOD9334832
Probable space group: I 21 21 21
;
_chemical_formula_sum "Si O2"
_cell_formula_units_Z 52
_cell_length_a 8.612135
_cell_length_b 15.407675
_cell_length_c 20.095366
_cell_angle_alpha 90.000000
_cell_angle_beta 90.000000
_cell_angle_gamma 90.000000
_cell_volume 2666.513941
_symmetry_space_group_name_H-M "I 21 21 21"
_symmetry_group_IT_number 24
_symmetry_cell_setting 'orthorhombic'
loop_
_space_group_symop_operation_xyz
x,y,z
-x,1/2-y,z
x,-y,1/2-z
1/2-x,y,-z
1/2+x,1/2+y,1/2+z
1/2-x,-y,1/2+z
1/2+x,1/2-y,-z
-x,1/2+y,1/2-z
loop_
_atom_site_type_symbol
_atom_site_label
_atom_site_fract_x
_atom_site_fract_y
_atom_site_fract_z
Si Si1 0.939385 0.656825 0.351689
Si Si2 0.165757 0.205576 0.764128
Si Si3 0.530807 0.532183 0.894250
Si Si4 0.882226 0.567497 0.849963
Si Si5 0.851171 0.865815 0.222300
Si Si6 0.585804 0.000000 0.250000
Si Si7 0.566223 0.346147 0.485344
O O1 0.761940 0.674053 0.328651
O O2 0.983906 0.572380 0.394909
O O3 0.000000 0.750000 0.377179
O O4 0.025344 0.635644 0.281812
O O5 0.134838 0.127556 0.714321
O O6 0.281297 0.268842 0.720960
O O7 0.000000 0.250000 0.779176
O O8 0.711378 0.542067 0.873325
O O9 0.428602 0.585105 0.840027
O O10 0.503279 0.582198 0.963202
O O11 0.988313 0.492998 0.818365
O O12 0.959146 0.619742 0.910537
O O13 0.701414 0.920093 0.242739
O O14 0.500000 0.250000 0.495191
O O15 0.750000 0.340815 0.500000
#
# Coordination Sequence:
#
# PCOD9334832 Si02
#       7
#     8   8   8   8   8   4   8
#     4  10  21  37  59  91 118 154 212 258 308 364
#     4  11  21  34  57  87 129 158 194 256 318 367
#     4  11  22  39  61  85 122 171 214 247 307 375
#     4  11  23  38  59  91 127 163 204 247 315 369
#     4  11  22  34  57  91 123 159 206 252 308 371
#     4  12  22  34  60  90 126 158 200 258 304 366
#     4  10  25  41  60  90 126 169 211 249 306 377
#
# _framework density 19.501118000000002
#
# number of rings (size 3 to 8) (size 9 to 14) (size 15 to 20)
#    0.000    1.231    4.615    1.385    4.308    0.000 
#    0.000    0.000    0.000    0.000   28.000    0.000 
#    0.000    0.000    0.000    0.000    0.000    0.000 
#
# Total GULP energy -144988.872342 kJ/mol
# GULP energy per Si atom -5576.495090 kJ/mol
# Density = 1.945673 g / cm^3
# Si number density = 19.501118 Si / 1000 Ang^3
#
#
#
# Elastic Constant Matrix: (Units=GPa)
#
#
# Indices 1 2 3 4 5 6 
#
# 1 63.4704 14.9886 18.2825 0.0000 0.0000 0.0000
# 2 14.9886 124.7660 51.9669 0.0000 0.0000 0.0000
# 3 18.2825 51.9669 57.4268 0.0000 0.0000 0.0000
# 4 0.0000 0.0000 0.0000 22.4317 0.0000 0.0000
# 5 0.0000 0.0000 0.0000 0.0000 15.6089 0.0000
# 6 0.0000 0.0000 0.0000 0.0000 0.0000 23.0603
#
#
#
# Elastic Compliance Matrix: (Units=1/GPa)
#
#
# Indices 1 2 3 4 5 6 
#
# 1 0.017355 0.000347 -0.005840 0.000000 0.000000 0.000000
# 2 0.000347 0.012870 -0.011757 0.000000 0.000000 0.000000
# 3 -0.005840 -0.011757 0.029912 0.000000 0.000000 0.000000
# 4 0.000000 0.000000 0.000000 0.044580 0.000000 0.000000
# 5 0.000000 0.000000 0.000000 0.000000 0.064066 0.000000
# 6 0.000000 0.000000 0.000000 0.000000 0.000000 0.043364
#
#
# Mechanical properties :
#
#
# Convention : Reuss Voigt Hill
#
# Bulk Modulus (GPa) = 39.00351 46.23768 42.62059
# Shear Modulus (GPa) = 19.59298 22.91520 21.25409
#
# Velocity S-wave (km/s) = 3.17316 3.43165 3.30493
# Velocity P-wave (km/s) = 5.78527 6.28199 6.03874
#
# Compressibility (1/GPa) = 0.02563872
#
# Stress axis : x y z
#
# Youngs Moduli (GPa) = 57.61882 77.69794 33.43139
#
# Poissons Ratio (x) = -0.02698 0.19522
# Poissons Ratio (y) = -0.02001 0.39306
# Poissons Ratio (z) = 0.33647 0.91351
#
# Static dielectric constant tensor:
#      x y z
#    x 1.745430 0.000000 0.000000 
#    y 0.000000 1.752740 0.000000 
#    z 0.000000 0.000000 1.651470 
# 
# From -- ./inp_files/32763.got.cif
#   From: 2010.05.17/outbox.cif.g08.bks.cpg/sg24_17_cif.got.tgz:32763.got - 2010.06.04 00:33:39.
