data_PCOD9334884
_publ_section_title
;
Structure prediction by ZEFSAII (Michael W. Deem and Ramdas Pophale) SiO2 
 PCOD9334884
Probable space group: I 21 21 21
;
_chemical_formula_sum "Si O2"
_cell_formula_units_Z 64
_cell_length_a 27.797275
_cell_length_b 9.059172
_cell_length_c 13.658716
_cell_angle_alpha 90.000000
_cell_angle_beta 90.000000
_cell_angle_gamma 90.000000
_cell_volume 3439.541897
_symmetry_space_group_name_H-M "I 21 21 21"
_symmetry_group_IT_number 24
_symmetry_cell_setting 'orthorhombic'
loop_
_space_group_symop_operation_xyz
x,y,z
-x,1/2-y,z
x,-y,1/2-z
1/2-x,y,-z
1/2+x,1/2+y,1/2+z
1/2-x,-y,1/2+z
1/2+x,1/2-y,-z
-x,1/2+y,1/2-z
loop_
_atom_site_type_symbol
_atom_site_label
_atom_site_fract_x
_atom_site_fract_y
_atom_site_fract_z
Si Si1 0.127036 0.677456 0.637206
Si Si2 0.088825 0.320553 0.250000
Si Si3 0.270149 0.831835 0.108069
Si Si4 0.551235 0.178559 0.965573
Si Si5 0.551235 0.178559 0.534427
Si Si6 0.300957 0.324435 0.750000
Si Si7 0.729851 0.668165 0.391931
Si Si8 0.372964 0.677456 0.137206
O O1 0.089894 0.718623 0.550295
O O2 0.178025 0.756158 0.619341
O O3 0.111269 0.710583 0.750000
O O4 0.133716 0.500000 0.631587
O O5 0.087687 0.500000 0.250000
O O6 0.065863 0.274728 0.145743
O O7 0.065864 0.274728 0.354257
O O8 0.144284 0.271468 0.250000
O O9 0.229917 0.736174 0.161316
O O10 0.321975 0.756158 0.119341
O O11 0.273142 1.000000 0.144408
O O12 0.250000 0.838565 0.000000
O O13 0.500000 0.250000 0.988673
O O14 0.547878 1.000000 0.965558
O O15 0.500000 0.250000 0.511327
O O16 0.589894 0.218623 0.449705
O O17 0.302020 0.500000 0.750000
O O18 0.270082 0.263826 0.838684
O O19 0.750000 0.661435 0.500000
#
# Coordination Sequence:
#
# PCOD9334884 Si02
#       8
#     8   8   8   8   8   8   8   8
#     4  10  21  38  59  83 113 153 198 242 286 347
#     4   9  19  36  58  84 114 149 191 242 289 348
#     4  11  23  37  55  84 121 155 190 238 293 348
#     4  10  21  38  59  84 113 147 194 244 296 349
#     4  10  21  38  59  84 113 147 194 244 296 349
#     4  11  21  36  60  86 113 153 198 236 285 344
#     4  11  23  37  55  84 121 155 190 238 293 348
#     4  10  21  38  59  83 113 153 198 242 286 347
#
# _framework density 18.607127999999999
#
# number of rings (size 3 to 8) (size 9 to 14) (size 15 to 20)
#    0.000    1.750    1.250    3.000    0.000    5.500 
#    0.000    2.500    0.000    0.000    0.000    0.000 
#    0.000    0.000    0.000    0.000    0.000    0.000 
#
# Total GULP energy -178456.815236 kJ/mol
# GULP energy per Si atom -5576.775476 kJ/mol
# Density = 1.856478 g / cm^3
# Si number density = 18.607128 Si / 1000 Ang^3
#
#
#
# Elastic Constant Matrix: (Units=GPa)
#
#
# Indices 1 2 3 4 5 6 
#
# 1 114.3225 26.4136 49.3909 0.0000 0.0000 0.0000
# 2 26.4136 31.9460 26.7536 0.0000 0.0000 0.0000
# 3 49.3909 26.7536 152.2933 0.0000 0.0000 0.0000
# 4 0.0000 0.0000 0.0000 16.7775 0.0000 0.0000
# 5 0.0000 0.0000 0.0000 0.0000 -399.2796 0.0000
# 6 0.0000 0.0000 0.0000 0.0000 0.0000 32.5879
#
#
#
# Elastic Compliance Matrix: (Units=1/GPa)
#
#
# Indices 1 2 3 4 5 6 
#
# 1 0.011526 -0.007504 -0.002420 0.000000 0.000000 0.000000
# 2 -0.007504 0.041587 -0.004872 0.000000 0.000000 0.000000
# 3 -0.002420 -0.004872 0.008207 0.000000 0.000000 0.000000
# 4 0.000000 0.000000 0.000000 0.059604 0.000000 0.000000
# 5 0.000000 0.000000 0.000000 0.000000 -0.002505 0.000000
# 6 0.000000 0.000000 0.000000 0.000000 0.000000 0.030686
#
#
# Mechanical properties :
#
#
# Convention : Reuss Voigt Hill
#
# Bulk Modulus (GPa) = 31.51677 55.96420 43.74049
# Shear Modulus (GPa) = 26.41675 -56.91593 -15.24959
#
# Velocity S-wave (km/s) = 3.77199 -5.53666 -2.86590
# Velocity P-wave (km/s) = 5.99544 3.27579 3.55067
#
# Compressibility (1/GPa) = 0.03172914
#
# Stress axis : x y z
#
# Youngs Moduli (GPa) = 86.75762 24.04584 121.84690
#
# Poissons Ratio (x) = 0.18043 0.29487
# Poissons Ratio (y) = 0.65099 0.59366
# Poissons Ratio (z) = 0.20995 0.11716
#
# Static dielectric constant tensor:
#      x y z
#    x 1.592850 0.000000 0.000000 
#    y 0.000000 1.619850 0.000000 
#    z 0.000000 0.000000 1.946970 
# 
# From -- ./inp_files/27902.got.cif
#   From: 2010.05.17/outbox.cif.g08.bks.cpg/sg24_14_cif.got.tgz:27902.got - 2010.06.04 00:33:39.
