data_PCOD9334768
_publ_section_title
;
Structure prediction by ZEFSAII (Michael W. Deem and Ramdas Pophale) SiO2 
 PCOD9334768
Probable space group: I 21 21 21
;
_chemical_formula_sum "Si O2"
_cell_formula_units_Z 40
_cell_length_a 5.030239
_cell_length_b 14.280185
_cell_length_c 30.518912
_cell_angle_alpha 90.000000
_cell_angle_beta 90.000000
_cell_angle_gamma 90.000000
_cell_volume 2192.257178
_symmetry_space_group_name_H-M "I 21 21 21"
_symmetry_group_IT_number 24
_symmetry_cell_setting 'orthorhombic'
loop_
_space_group_symop_operation_xyz
x,y,z
-x,1/2-y,z
x,-y,1/2-z
1/2-x,y,-z
1/2+x,1/2+y,1/2+z
1/2-x,-y,1/2+z
1/2+x,1/2-y,-z
-x,1/2+y,1/2-z
loop_
_atom_site_type_symbol
_atom_site_label
_atom_site_fract_x
_atom_site_fract_y
_atom_site_fract_z
Si Si1 0.164079 0.880324 0.606812
Si Si2 0.734454 0.185704 0.677041
Si Si3 0.747713 0.093903 0.231664
Si Si4 0.642134 0.016927 0.857113
Si Si5 0.000000 0.750000 0.673833
Si Si6 0.000000 0.250000 0.970932
O O1 0.394325 0.956516 0.612437
O O2 0.891136 0.925959 0.623962
O O3 0.215268 0.793594 0.640435
O O4 0.112385 0.832703 0.560203
O O5 0.500000 0.250000 0.659637
O O6 0.652828 0.149545 0.725936
O O7 0.000000 0.250000 0.678951
O O8 0.737025 0.089981 0.649030
O O9 0.931038 0.053612 0.192407
O O10 0.569795 0.166514 0.206021
O O11 0.607695 0.000000 0.250000
O O12 0.750000 0.218044 0.000000
#
# Coordination Sequence:
#
# PCOD9334768 Si02
#       6
#     8   8   8   8   4   4
#     4  10  21  36  57  79 111 151 179 223 276 353
#     4  11  22  34  51  74 107 147 199 259 295 313
#     4   9  19  31  48  71 100 143 195 250 286 318
#     4  10  21  36  52  76 108 149 199 232 283 348
#     4   9  18  32  52  70 104 144 194 226 280 332
#     4  11  22  38  62  94 122 142 174 220 284 358
#
# _framework density 18.246033000000001
#
# number of rings (size 3 to 8) (size 9 to 14) (size 15 to 20)
#    0.000    2.000    1.000    2.400    2.800    5.600 
#    0.000    6.000    0.000    0.000    0.000    0.000 
#    0.000   44.800    0.000    0.000    0.000    0.000 
#
# Total GULP energy -111340.812169 kJ/mol
# GULP energy per Si atom -5567.040608 kJ/mol
# Density = 1.820450 g / cm^3
# Si number density = 18.246033 Si / 1000 Ang^3
#
#
#
# Elastic Constant Matrix: (Units=GPa)
#
#
# Indices 1 2 3 4 5 6 
#
# 1 72.9958 22.7820 26.6024 0.0000 0.0000 0.0000
# 2 22.7820 113.2560 42.7134 0.0000 0.0000 0.0000
# 3 26.6024 42.7134 80.9882 0.0000 0.0000 0.0000
# 4 0.0000 0.0000 0.0000 12.6137 0.0000 0.0000
# 5 0.0000 0.0000 0.0000 0.0000 9.7326 0.0000
# 6 0.0000 0.0000 0.0000 0.0000 0.0000 27.8169
#
#
#
# Elastic Compliance Matrix: (Units=1/GPa)
#
#
# Indices 1 2 3 4 5 6 
#
# 1 0.015770 -0.001521 -0.004378 0.000000 0.000000 0.000000
# 2 -0.001521 0.011169 -0.005391 0.000000 0.000000 0.000000
# 3 -0.004378 -0.005391 0.016628 0.000000 0.000000 0.000000
# 4 0.000000 0.000000 0.000000 0.079279 0.000000 0.000000
# 5 0.000000 0.000000 0.000000 0.000000 0.102748 0.000000
# 6 0.000000 0.000000 0.000000 0.000000 0.000000 0.035949
#
#
# Mechanical properties :
#
#
# Convention : Reuss Voigt Hill
#
# Bulk Modulus (GPa) = 47.64693 50.15950 48.90322
# Shear Modulus (GPa) = 17.17518 21.70877 19.44197
#
# Velocity S-wave (km/s) = 3.07141 3.45306 3.26781
# Velocity P-wave (km/s) = 6.22482 6.59155 6.41080
#
# Compressibility (1/GPa) = 0.02098771
#
# Stress axis : x y z
#
# Youngs Moduli (GPa) = 63.41351 89.53678 60.13782
#
# Poissons Ratio (x) = 0.13620 0.26326
# Poissons Ratio (y) = 0.09646 0.32419
# Poissons Ratio (z) = 0.27760 0.48267
#
# Static dielectric constant tensor:
#      x y z
#    x 1.662900 0.000000 0.000000 
#    y 0.000000 1.691230 0.000000 
#    z 0.000000 0.000000 1.641610 
# 
# From -- ./inp_files/36335.got.cif
#   From: 2010.05.17/outbox.cif.g08.bks.cpg/sg24_19_cif.got.tgz:36335.got - 2010.06.04 00:33:39.
