data_PCOD9334048
_publ_section_title
;
Structure prediction by ZEFSAII (Michael W. Deem and Ramdas Pophale) SiO2 
 PCOD9334048
Probable space group: I 21 21 21
;
_chemical_formula_sum "Si O2"
_cell_formula_units_Z 48
_cell_length_a 22.377209
_cell_length_b 12.214933
_cell_length_c 8.221835
_cell_angle_alpha 90.000000
_cell_angle_beta 90.000000
_cell_angle_gamma 90.000000
_cell_volume 2247.324385
_symmetry_space_group_name_H-M "I 21 21 21"
_symmetry_group_IT_number 24
_symmetry_cell_setting 'orthorhombic'
loop_
_space_group_symop_operation_xyz
x,y,z
-x,1/2-y,z
x,-y,1/2-z
1/2-x,y,-z
1/2+x,1/2+y,1/2+z
1/2-x,-y,1/2+z
1/2+x,1/2-y,-z
-x,1/2+y,1/2-z
loop_
_atom_site_type_symbol
_atom_site_label
_atom_site_fract_x
_atom_site_fract_y
_atom_site_fract_z
Si Si1 0.378182 0.383552 0.165853
Si Si2 0.439068 0.176414 0.815897
Si Si3 0.797767 0.107196 0.358839
Si Si4 0.191539 0.758453 0.431829
Si Si5 0.972879 0.990376 0.431736
Si Si6 0.416299 0.699652 0.009856
O O1 0.363194 0.500000 0.250000
O O2 0.398627 0.293183 0.300159
O O3 0.323865 0.339026 0.059006
O O4 0.433146 0.413924 0.046881
O O5 0.500000 0.250000 0.842827
O O6 0.375259 0.194964 0.902909
O O7 0.463593 0.063379 0.891720
O O8 0.424784 0.205593 0.625082
O O9 0.750000 0.101920 0.500000
O O10 0.788694 0.209485 0.240069
O O11 0.861700 0.128436 0.438664
O O12 0.797316 0.000000 0.250000
O O13 0.250000 0.820980 0.500000
O O14 0.970740 0.112109 0.505482
O O15 0.945712 0.000000 0.250000
#
# Coordination Sequence:
#
# PCOD9334048 Si02
#       6
#     8   8   8   8   8   8
#     4  10  20  35  54  85 119 150 186 232 284 349
#     4  11  21  38  58  81 115 151 193 232 289 343
#     4  11  21  32  51  76 113 157 185 219 277 345
#     4  11  22  36  54  79 113 151 191 234 281 339
#     4  11  19  36  57  80 115 150 189 232 281 341
#     4  10  21  36  55  84 119 148 192 239 275 347
#
# _framework density 21.358732
#
# number of rings (size 3 to 8) (size 9 to 14) (size 15 to 20)
#    0.000    1.333    3.333    5.000    0.000    2.667 
#    3.000    0.000    0.000    0.000    0.000   10.500 
#    0.000    0.000    0.000    0.000    0.000    0.000 
#
# Total GULP energy -133655.388729 kJ/mol
# GULP energy per Si atom -5568.974530 kJ/mol
# Density = 2.131012 g / cm^3
# Si number density = 21.358732 Si / 1000 Ang^3
#
#
#
# Elastic Constant Matrix: (Units=GPa)
#
#
# Indices 1 2 3 4 5 6 
#
# 1 155.5531 24.9485 49.9218 0.0000 0.0000 0.0000
# 2 24.9485 18.0250 12.2789 0.0000 0.0000 0.0000
# 3 49.9218 12.2789 113.5941 0.0000 0.0000 0.0000
# 4 0.0000 0.0000 0.0000 26.6156 0.0000 0.0000
# 5 0.0000 0.0000 0.0000 0.0000 34.4007 0.0000
# 6 0.0000 0.0000 0.0000 0.0000 0.0000 20.9831
#
#
#
# Elastic Compliance Matrix: (Units=1/GPa)
#
#
# Indices 1 2 3 4 5 6 
#
# 1 0.009032 -0.010576 -0.002826 0.000000 0.000000 0.000000
# 2 -0.010576 0.072272 -0.003164 0.000000 0.000000 0.000000
# 3 -0.002826 -0.003164 0.010387 0.000000 0.000000 0.000000
# 4 0.000000 0.000000 0.000000 0.037572 0.000000 0.000000
# 5 0.000000 0.000000 0.000000 0.000000 0.029069 0.000000
# 6 0.000000 0.000000 0.000000 0.000000 0.000000 0.047657
#
#
# Mechanical properties :
#
#
# Convention : Reuss Voigt Hill
#
# Bulk Modulus (GPa) = 17.07687 51.27450 34.17568
# Shear Modulus (GPa) = 19.33172 29.73476 24.53324
#
# Velocity S-wave (km/s) = 3.01175 3.73521 3.39282
# Velocity P-wave (km/s) = 4.48406 6.53153 5.60213
#
# Compressibility (1/GPa) = 0.05855876
#
# Stress axis : x y z
#
# Youngs Moduli (GPa) = 110.71896 13.83656 96.27115
#
# Poissons Ratio (x) = 0.14633 0.27207
# Poissons Ratio (y) = 1.17095 0.30464
# Poissons Ratio (z) = 0.31290 0.04378
#
# Static dielectric constant tensor:
#      x y z
#    x 1.866240 0.000000 0.000000 
#    y 0.000000 1.870260 0.000000 
#    z 0.000000 0.000000 1.849330 
# 
# From -- ./inp_files/15091.got.cif
#   From: 2010.05.17/outbox.cif.g08.bks.cpg/sg24_8_cif.got.tgz:15091.got - 2010.06.04 00:33:39.
