data_PCOD9334614
_publ_section_title
;
Structure prediction by ZEFSAII (Michael W. Deem and Ramdas Pophale) SiO2 
 PCOD9334614
Probable space group: I 21 21 21
;
_chemical_formula_sum "Si O2"
_cell_formula_units_Z 60
_cell_length_a 29.254236
_cell_length_b 7.651698
_cell_length_c 12.031920
_cell_angle_alpha 90.000000
_cell_angle_beta 90.000000
_cell_angle_gamma 90.000000
_cell_volume 2693.280068
_symmetry_space_group_name_H-M "I 21 21 21"
_symmetry_group_IT_number 24
_symmetry_cell_setting 'orthorhombic'
loop_
_space_group_symop_operation_xyz
x,y,z
-x,1/2-y,z
x,-y,1/2-z
1/2-x,y,-z
1/2+x,1/2+y,1/2+z
1/2-x,-y,1/2+z
1/2+x,1/2-y,-z
-x,1/2+y,1/2-z
loop_
_atom_site_type_symbol
_atom_site_label
_atom_site_fract_x
_atom_site_fract_y
_atom_site_fract_z
Si Si1 0.889936 0.711247 0.180282
Si Si2 0.911542 0.540052 0.879218
Si Si3 0.526142 0.562698 0.933187
Si Si4 0.215242 0.693826 0.771950
Si Si5 0.334528 0.767813 0.445334
Si Si6 0.197806 0.173263 0.186831
Si Si7 0.538977 0.000000 0.750000
Si Si8 0.149692 0.348031 0.543779
O O1 0.924153 0.570092 0.126767
O O2 0.854976 0.681360 0.278953
O O3 0.927228 0.847480 0.219313
O O4 0.857769 0.786695 0.082220
O O5 0.914519 0.500000 0.750000
O O6 0.876456 0.401196 0.934226
O O7 0.891338 0.737970 0.896405
O O8 0.959738 0.518064 0.942221
O O9 0.500000 0.750000 0.935728
O O10 0.493029 0.453695 0.854339
O O11 0.196899 0.500000 0.750000
O O12 0.193356 0.798973 0.669368
O O13 0.268749 0.691039 0.746158
O O14 0.195221 0.726975 0.894435
O O15 0.303792 0.810791 0.553935
O O16 0.349533 0.561148 0.454110
O O17 0.215147 0.000000 0.250000
#
# Coordination Sequence:
#
# PCOD9334614 Si02
#       8
#     8   8   8   8   8   8   4   8
#     4  10  22  40  65  97 128 185 222 283 357 424
#     4  11  22  41  78 100 135 188 242 295 361 437
#     4   9  21  40  67  95 137 176 221 293 358 429
#     4  10  24  43  65  95 141 192 239 295 349 414
#     4  11  24  43  67 101 136 190 247 289 357 428
#     4  12  26  41  66 102 146 183 243 300 348 436
#     4  10  20  40  70  94 138 176 226 286 370 436
#     4  10  22  44  70  98 142 183 240 295 350 424
#
# _framework density 22.277667999999998
#
# number of rings (size 3 to 8) (size 9 to 14) (size 15 to 20)
#    0.000    1.600    1.333    2.800    7.467    0.533 
#    4.800    0.000   11.733    0.000    0.000    0.000 
#    0.000    0.000    0.000    0.000    0.000    0.000 
#
# Total GULP energy -167184.394630 kJ/mol
# GULP energy per Si atom -5572.813154 kJ/mol
# Density = 2.222696 g / cm^3
# Si number density = 22.277668 Si / 1000 Ang^3
#
#
#
# Elastic Constant Matrix: (Units=GPa)
#
#
# Indices 1 2 3 4 5 6 
#
# 1 99.6678 8.3082 60.7547 0.0000 0.0000 0.0000
# 2 8.3082 68.2349 48.7232 0.0000 0.0000 0.0000
# 3 60.7547 48.7232 122.8556 0.0000 0.0000 0.0000
# 4 0.0000 0.0000 0.0000 25.9112 0.0000 0.0000
# 5 0.0000 0.0000 0.0000 0.0000 64.7982 0.0000
# 6 0.0000 0.0000 0.0000 0.0000 0.0000 17.8504
#
#
#
# Elastic Compliance Matrix: (Units=1/GPa)
#
#
# Indices 1 2 3 4 5 6 
#
# 1 0.015497 0.005002 -0.009647 0.000000 0.000000 0.000000
# 2 0.005002 0.022059 -0.011222 0.000000 0.000000 0.000000
# 3 -0.009647 -0.011222 0.017361 0.000000 0.000000 0.000000
# 4 0.000000 0.000000 0.000000 0.038593 0.000000 0.000000
# 5 0.000000 0.000000 0.000000 0.000000 0.015433 0.000000
# 6 0.000000 0.000000 0.000000 0.000000 0.000000 0.056021
#
#
# Mechanical properties :
#
#
# Convention : Reuss Voigt Hill
#
# Bulk Modulus (GPa) = 43.13624 58.48116 50.80870
# Shear Modulus (GPa) = 24.45862 33.24344 28.85103
#
# Velocity S-wave (km/s) = 3.31705 3.86713 3.60261
# Velocity P-wave (km/s) = 5.83742 6.80056 6.33731
#
# Compressibility (1/GPa) = 0.02318236
#
# Stress axis : x y z
#
# Youngs Moduli (GPa) = 64.52813 45.33236 57.60054
#
# Poissons Ratio (x) = -0.22674 0.55569
# Poissons Ratio (y) = -0.32275 0.64639
# Poissons Ratio (z) = 0.62252 0.50872
#
# Static dielectric constant tensor:
#      x y z
#    x 1.809290 0.000000 0.000000 
#    y 0.000000 1.917620 0.000000 
#    z 0.000000 0.000000 2.017040 
# 
# From -- ./inp_files/23173.got.cif
#   From: 2010.05.17/outbox.cif.g08.bks.cpg/sg24_12_cif.got.tgz:23173.got - 2010.06.04 00:33:39.
