data_PCOD9334302
_publ_section_title
;
Structure prediction by ZEFSAII (Michael W. Deem and Ramdas Pophale) SiO2 
 PCOD9334302
Probable space group: I 21 21 21
;
_chemical_formula_sum "Si O2"
_cell_formula_units_Z 24
_cell_length_a 9.493737
_cell_length_b 23.797792
_cell_length_c 4.913230
_cell_angle_alpha 90.000000
_cell_angle_beta 90.000000
_cell_angle_gamma 90.000000
_cell_volume 1110.045948
_symmetry_space_group_name_H-M "I 21 21 21"
_symmetry_group_IT_number 24
_symmetry_cell_setting 'orthorhombic'
loop_
_space_group_symop_operation_xyz
x,y,z
-x,1/2-y,z
x,-y,1/2-z
1/2-x,y,-z
1/2+x,1/2+y,1/2+z
1/2-x,-y,1/2+z
1/2+x,1/2-y,-z
-x,1/2+y,1/2-z
loop_
_atom_site_type_symbol
_atom_site_label
_atom_site_fract_x
_atom_site_fract_y
_atom_site_fract_z
Si Si1 0.750000 0.876159 0.000000
Si Si2 0.986805 0.184480 0.796168
Si Si3 0.750000 0.535659 0.500000
Si Si4 0.461198 0.883346 0.810194
O O1 0.831161 0.836650 0.785696
O O2 0.618719 0.907859 0.864193
O O3 0.000000 0.250000 0.743374
O O4 0.081454 0.144775 0.597259
O O5 0.020677 0.168446 0.103020
O O6 0.683066 0.500000 0.250000
O O7 0.637089 0.572509 0.663579
#
# Coordination Sequence:
#
# PCOD9334302 Si02
#       4
#     4   8   4   8
#     4   8  22  38  63  90 138 181 214 284 336 414
#     4  10  20  37  64  98 137 184 223 266 339 421
#     4  12  26  46  73  96 130 183 244 300 366 398
#     4  10  22  41  64  94 136 176 225 293 332 414
#
# _framework density 21.620726999999999
#
# number of rings (size 3 to 8) (size 9 to 14) (size 15 to 20)
#    2.000    0.000    0.000    4.000    0.000    2.667 
#    0.000    0.000    7.333    0.000    0.000    0.000 
#    0.000    0.000    0.000    0.000    0.000    0.000 
#
# Total GULP energy -66829.606914 kJ/mol
# GULP energy per Si atom -5569.133909 kJ/mol
# Density = 2.157152 g / cm^3
# Si number density = 21.620727 Si / 1000 Ang^3
#
#
#
# Elastic Constant Matrix: (Units=GPa)
#
#
# Indices 1 2 3 4 5 6 
#
# 1 104.4671 43.3505 20.4857 0.0024 0.0022 0.0004
# 2 43.3505 63.1673 16.6442 0.0122 0.0023 -0.0020
# 3 20.4857 16.6442 107.3689 0.0243 0.0032 -0.0078
# 4 0.0024 0.0122 0.0243 16.6815 -0.0061 -0.0033
# 5 0.0022 0.0023 0.0032 -0.0061 36.4611 0.0022
# 6 0.0004 -0.0020 -0.0078 -0.0033 0.0022 5.0836
#
#
#
# Elastic Compliance Matrix: (Units=1/GPa)
#
#
# Indices 1 2 3 4 5 6 
#
# 1 0.013528 -0.008971 -0.001191 0.000006 0.000000 -0.000006
# 2 -0.008971 0.022453 -0.001769 -0.000013 -0.000001 0.000007
# 3 -0.001191 -0.001769 0.009815 -0.000013 -0.000001 0.000015
# 4 0.000006 -0.000013 -0.000013 0.059947 0.000010 0.000039
# 5 0.000000 -0.000001 -0.000001 0.000010 0.027426 -0.000012
# 6 -0.000006 0.000007 0.000015 0.000039 -0.000012 0.196709
#
#
# Mechanical properties :
#
#
# Convention : Reuss Voigt Hill
#
# Bulk Modulus (GPa) = 45.58636 48.44045 47.01341
# Shear Modulus (GPa) = 13.84843 24.61345 19.23094
#
# Velocity S-wave (km/s) = 2.53359 3.37771 2.98563
# Velocity P-wave (km/s) = 5.44877 6.13719 5.80320
#
# Compressibility (1/GPa) = 0.02193638
#
# Stress axis : x y z
#
# Youngs Moduli (GPa) = 73.91890 44.53659 101.88385
#
# Poissons Ratio (x) = 0.39952 0.12130
# Poissons Ratio (y) = 0.66309 0.18025
# Poissons Ratio (z) = 0.08801 0.07879
#
# Static dielectric constant tensor:
#      x y z
#    x 1.872580 0.000000 0.000010 
#    y 0.000000 1.768370 0.000000 
#    z 0.000010 0.000000 1.819130 
# 
# From -- ./inp_files/1828.got.cif
#   From: 2010.05.17/outbox.cif.g08.bks.cpg/sg24_1_cif.got.tgz:1828.got - 2010.06.04 00:33:39.
