data_PCOD9334839
_publ_section_title
;
Structure prediction by ZEFSAII (Michael W. Deem and Ramdas Pophale) SiO2 
 PCOD9334839
Probable space group: I 21 21 21
;
_chemical_formula_sum "Si O2"
_cell_formula_units_Z 48
_cell_length_a 10.425168
_cell_length_b 9.602030
_cell_length_c 23.306390
_cell_angle_alpha 90.000000
_cell_angle_beta 90.000000
_cell_angle_gamma 90.000000
_cell_volume 2333.034335
_symmetry_space_group_name_H-M "I 21 21 21"
_symmetry_group_IT_number 24
_symmetry_cell_setting 'orthorhombic'
loop_
_space_group_symop_operation_xyz
x,y,z
-x,1/2-y,z
x,-y,1/2-z
1/2-x,y,-z
1/2+x,1/2+y,1/2+z
1/2-x,-y,1/2+z
1/2+x,1/2-y,-z
-x,1/2+y,1/2-z
loop_
_atom_site_type_symbol
_atom_site_label
_atom_site_fract_x
_atom_site_fract_y
_atom_site_fract_z
Si Si1 0.617266 0.403380 0.924977
Si Si2 0.000000 0.250000 0.506994
Si Si3 0.500000 0.750000 0.357975
Si Si4 0.000000 0.750000 0.182667
Si Si5 0.725620 0.148631 0.850288
Si Si6 0.130038 0.595013 0.091156
Si Si7 0.898362 0.468340 0.946265
Si Si8 0.561812 0.000000 0.750000
O O1 0.647538 0.269153 0.885323
O O2 0.500390 0.500062 0.905278
O O3 0.751500 0.483318 0.927181
O O4 0.593669 0.381862 0.993386
O O5 0.110814 0.316045 0.466062
O O6 0.951549 0.379611 0.542535
O O7 0.362927 0.709253 0.330192
O O8 0.468630 0.880524 0.398413
O O9 0.882354 0.795213 0.142556
O O10 0.024980 0.883555 0.220901
O O11 0.737700 0.019608 0.896085
O O12 0.648601 0.081759 0.796921
#
# Coordination Sequence:
#
# PCOD9334839 Si02
#       8
#     8   4   4   4   8   8   8   4
#     4   9  18  33  57  82 120 152 191 249 291 358
#     4   9  18  34  50  85 127 160 196 236 287 360
#     4  10  22  40  57  81 119 163 210 238 284 364
#     4   9  20  34  55  88 116 133 188 240 319 364
#     4  10  21  37  61  84 114 152 203 251 300 358
#     4   9  18  34  54  88 116 148 187 244 305 354
#     4   9  19  35  52  84 120 161 204 230 288 357
#     4  10  22  38  62  90 114 152 192 260 312 368
#
# _framework density 20.574064
#
# number of rings (size 3 to 8) (size 9 to 14) (size 15 to 20)
#    0.000    2.667    0.000    0.500    9.333    0.000 
#   18.000    0.000    7.333    0.000    0.000    0.000 
#    0.000    0.000    0.000    0.000    0.000    0.000 
#
# Total GULP energy -133719.479811 kJ/mol
# GULP energy per Si atom -5571.644992 kJ/mol
# Density = 2.052724 g / cm^3
# Si number density = 20.574064 Si / 1000 Ang^3
#
#
#
# Elastic Constant Matrix: (Units=GPa)
#
#
# Indices 1 2 3 4 5 6 
#
# 1 77.7199 35.9589 14.5234 0.0000 0.0000 0.0000
# 2 35.9589 134.0997 35.5628 0.0000 0.0000 0.0000
# 3 14.5234 35.5628 48.6100 0.0000 0.0000 0.0000
# 4 0.0000 0.0000 0.0000 30.6799 0.0000 0.0000
# 5 0.0000 0.0000 0.0000 0.0000 -4.1228 0.0000
# 6 0.0000 0.0000 0.0000 0.0000 0.0000 24.2623
#
#
#
# Elastic Compliance Matrix: (Units=1/GPa)
#
#
# Indices 1 2 3 4 5 6 
#
# 1 0.014827 -0.003475 -0.001887 0.000000 0.000000 0.000000
# 2 -0.003475 0.010067 -0.006326 0.000000 0.000000 0.000000
# 3 -0.001887 -0.006326 0.025764 0.000000 0.000000 0.000000
# 4 0.000000 0.000000 0.000000 0.032595 0.000000 0.000000
# 5 0.000000 0.000000 0.000000 0.000000 -0.242556 0.000000
# 6 0.000000 0.000000 0.000000 0.000000 0.000000 0.041216
#
#
# Mechanical properties :
#
#
# Convention : Reuss Voigt Hill
#
# Bulk Modulus (GPa) = 36.65719 48.05777 42.35748
# Shear Modulus (GPa) = -58.40082 21.78954 -18.30564
#
# Velocity S-wave (km/s) = -5.33360 3.25788 -2.98609
# Velocity P-wave (km/s) = 4.48038 6.12869 2.95694
#
# Compressibility (1/GPa) = 0.02727978
#
# Stress axis : x y z
#
# Youngs Moduli (GPa) = 67.44265 99.33607 38.81352
#
# Poissons Ratio (x) = 0.34524 0.07326
# Poissons Ratio (y) = 0.23439 0.24555
# Poissons Ratio (z) = 0.12729 0.62845
#
# Static dielectric constant tensor:
#      x y z
#    x 1.861200 0.000000 0.000000 
#    y 0.000000 1.753280 0.000000 
#    z 0.000000 0.000000 1.788210 
# 
# From -- ./inp_files/35588.got.cif
#   From: 2010.05.17/outbox.cif.g08.bks.cpg/sg24_18_cif.got.tgz:35588.got - 2010.06.04 00:33:39.
