data_PCOD9334872
_publ_section_title
;
Structure prediction by ZEFSAII (Michael W. Deem and Ramdas Pophale) SiO2 
 PCOD9334872
Probable space group: I 21 21 21
;
_chemical_formula_sum "Si O2"
_cell_formula_units_Z 40
_cell_length_a 5.278355
_cell_length_b 12.951062
_cell_length_c 28.919891
_cell_angle_alpha 90.000000
_cell_angle_beta 90.000000
_cell_angle_gamma 90.000000
_cell_volume 1976.972508
_symmetry_space_group_name_H-M "I 21 21 21"
_symmetry_group_IT_number 24
_symmetry_cell_setting 'orthorhombic'
loop_
_space_group_symop_operation_xyz
x,y,z
-x,1/2-y,z
x,-y,1/2-z
1/2-x,y,-z
1/2+x,1/2+y,1/2+z
1/2-x,-y,1/2+z
1/2+x,1/2-y,-z
-x,1/2+y,1/2-z
loop_
_atom_site_type_symbol
_atom_site_label
_atom_site_fract_x
_atom_site_fract_y
_atom_site_fract_z
Si Si1 0.698982 0.128260 0.192254
Si Si2 0.001672 0.630925 0.968871
Si Si3 0.302149 0.141237 0.769798
Si Si4 0.513846 0.973226 0.127430
Si Si5 0.987425 0.366155 0.335469
O O1 0.476879 0.095185 0.226973
O O2 0.752993 0.248293 0.204678
O O3 0.976423 0.082778 0.202641
O O4 0.583871 0.089929 0.143692
O O5 0.028255 0.552638 0.926414
O O6 0.000000 0.750000 0.951056
O O7 0.250000 0.621185 0.000000
O O8 0.750000 0.615660 0.000000
O O9 0.402482 0.147700 0.717952
O O10 0.236948 0.932735 0.141715
O O11 0.732806 0.910498 0.155000
O O12 0.000000 0.250000 0.355753
#
# Coordination Sequence:
#
# PCOD9334872 Si02
#       5
#     8   8   8   8   8
#     4  10  21  38  56  80 115 155 205 237 284 346
#     4  10  21  40  62  81 114 150 183 235 311 367
#     4  10  21  39  55  75 119 171 192 228 302 332
#     4  12  25  36  60  91 110 148 209 252 284 352
#     4  12  23  37  54  79 124 157 197 242 286 344
#
# _framework density 20.232956000000001
#
# number of rings (size 3 to 8) (size 9 to 14) (size 15 to 20)
#    0.000    1.200    2.000    5.400    2.800    6.400 
#    0.000    0.000    0.000    0.000    0.000   11.200 
#    0.000    0.000    0.000    0.000    0.000    0.000 
#
# Total GULP energy -111508.024026 kJ/mol
# GULP energy per Si atom -5575.401201 kJ/mol
# Density = 2.018690 g / cm^3
# Si number density = 20.232956 Si / 1000 Ang^3
#
#
#
# Elastic Constant Matrix: (Units=GPa)
#
#
# Indices 1 2 3 4 5 6 
#
# 1 173.2813 17.1910 25.0490 0.0000 0.0000 0.0000
# 2 17.1910 88.2177 42.6659 0.0000 0.0000 0.0000
# 3 25.0490 42.6659 98.2842 0.0000 0.0000 0.0000
# 4 0.0000 0.0000 0.0000 18.0114 0.0000 0.0000
# 5 0.0000 0.0000 0.0000 0.0000 25.9185 0.0000
# 6 0.0000 0.0000 0.0000 0.0000 0.0000 -19.9788
#
#
#
# Elastic Compliance Matrix: (Units=1/GPa)
#
#
# Indices 1 2 3 4 5 6 
#
# 1 0.006012 -0.000545 -0.001296 0.000000 0.000000 0.000000
# 2 -0.000545 0.014397 -0.006111 0.000000 0.000000 0.000000
# 3 -0.001296 -0.006111 0.013158 0.000000 0.000000 0.000000
# 4 0.000000 0.000000 0.000000 0.055520 0.000000 0.000000
# 5 0.000000 0.000000 0.000000 0.000000 0.038582 0.000000
# 6 0.000000 0.000000 0.000000 0.000000 0.000000 -0.050053
#
#
# Mechanical properties :
#
#
# Convention : Reuss Voigt Hill
#
# Bulk Modulus (GPa) = 56.61303 58.84388 57.72846
# Shear Modulus (GPa) = 50.29730 23.11537 36.70634
#
# Velocity S-wave (km/s) = 4.99130 3.38370 4.26395
# Velocity P-wave (km/s) = 7.82680 6.66425 7.26880
#
# Compressibility (1/GPa) = 0.01766378
#
# Stress axis : x y z
#
# Youngs Moduli (GPa) = 166.32466 69.45705 76.00118
#
# Poissons Ratio (x) = 0.03785 0.09848
# Poissons Ratio (y) = 0.09064 0.46445
# Poissons Ratio (z) = 0.21552 0.42446
#
# Static dielectric constant tensor:
#      x y z
#    x 1.823380 0.000000 0.000000 
#    y 0.000000 2.423210 0.000000 
#    z 0.000000 0.000000 2.022490 
# 
# From -- ./inp_files/34618.got.cif
#   From: 2010.05.17/outbox.cif.g08.bks.cpg/sg24_18_cif.got.tgz:34618.got - 2010.06.04 00:33:39.
