data_PCOD9334787
_publ_section_title
;
Structure prediction by ZEFSAII (Michael W. Deem and Ramdas Pophale) SiO2 
 PCOD9334787
Probable space group: I 21 21 21
;
_chemical_formula_sum "Si O2"
_cell_formula_units_Z 48
_cell_length_a 10.891837
_cell_length_b 17.969023
_cell_length_c 11.745775
_cell_angle_alpha 90.000000
_cell_angle_beta 90.000000
_cell_angle_gamma 90.000000
_cell_volume 2298.832219
_symmetry_space_group_name_H-M "I 21 21 21"
_symmetry_group_IT_number 24
_symmetry_cell_setting 'orthorhombic'
loop_
_space_group_symop_operation_xyz
x,y,z
-x,1/2-y,z
x,-y,1/2-z
1/2-x,y,-z
1/2+x,1/2+y,1/2+z
1/2-x,-y,1/2+z
1/2+x,1/2-y,-z
-x,1/2+y,1/2-z
loop_
_atom_site_type_symbol
_atom_site_label
_atom_site_fract_x
_atom_site_fract_y
_atom_site_fract_z
Si Si1 0.370870 0.627750 0.063589
Si Si2 0.979338 0.662700 0.133919
Si Si3 0.626353 0.035520 0.126158
Si Si4 0.286135 0.354884 0.773087
Si Si5 0.945840 0.666681 0.555917
Si Si6 0.807119 0.682930 0.324929
O O1 0.369729 0.538805 0.053051
O O2 0.335894 0.649688 0.192275
O O3 0.250000 0.660159 0.000000
O O4 0.495456 0.651113 0.999977
O O5 0.855258 0.650070 0.204832
O O6 0.000000 0.750000 0.151504
O O7 0.094993 0.624956 0.197890
O O8 0.755307 0.078543 0.142086
O O9 0.536802 0.099656 0.083164
O O10 0.591945 0.000000 0.250000
O O11 0.305432 0.273430 0.824078
O O12 0.900449 0.661100 0.425374
O O13 0.827527 0.658965 0.637103
O O14 0.000000 0.750000 0.571633
#
# Coordination Sequence:
#
# PCOD9334787 Si02
#       6
#     8   8   8   8   8   8
#     4   9  19  34  58  88 121 159 200 246 312 367
#     4   9  18  36  58  90 124 153 197 255 302 368
#     4  10  21  38  57  86 121 160 207 253 304 370
#     4   9  17  36  59  84 120 153 198 258 301 352
#     4  11  21  37  60  90 118 162 209 256 307 366
#     4  10  21  36  59  91 122 155 208 256 309 358
#
# _framework density 20.880167
#
# number of rings (size 3 to 8) (size 9 to 14) (size 15 to 20)
#    0.000    2.333    1.667    1.500    0.000    2.667 
#    6.000    5.833    0.000    0.000    0.000    0.000 
#    0.000    0.000    0.000    0.000    0.000    0.000 
#
# Total GULP energy -133695.208875 kJ/mol
# GULP energy per Si atom -5570.633703 kJ/mol
# Density = 2.083264 g / cm^3
# Si number density = 20.880167 Si / 1000 Ang^3
#
#
#
# Elastic Constant Matrix: (Units=GPa)
#
#
# Indices 1 2 3 4 5 6 
#
# 1 58.7910 17.4520 24.9993 0.0000 0.0000 0.0000
# 2 17.4520 65.5708 10.9977 0.0001 0.0000 0.0000
# 3 24.9993 10.9977 56.7239 0.0002 0.0000 -0.0001
# 4 0.0000 0.0001 0.0002 34.4436 0.0000 -0.0001
# 5 0.0000 0.0000 0.0000 0.0000 43.8467 0.0000
# 6 0.0000 0.0000 -0.0001 -0.0001 0.0000 25.7079
#
#
#
# Elastic Compliance Matrix: (Units=1/GPa)
#
#
# Indices 1 2 3 4 5 6 
#
# 1 0.022090 -0.004389 -0.008885 0.000000 0.000000 0.000000
# 2 -0.004389 0.016635 -0.001291 0.000000 0.000000 0.000000
# 3 -0.008885 -0.001291 0.021795 0.000000 0.000000 0.000000
# 4 0.000000 0.000000 0.000000 0.029033 0.000000 0.000000
# 5 0.000000 0.000000 0.000000 0.000000 0.022807 0.000000
# 6 0.000000 0.000000 0.000000 0.000000 0.000000 0.038899
#
#
# Mechanical properties :
#
#
# Convention : Reuss Voigt Hill
#
# Bulk Modulus (GPa) = 31.85591 31.99819 31.92705
# Shear Modulus (GPa) = 26.19826 29.30876 27.75351
#
# Velocity S-wave (km/s) = 3.54601 3.75062 3.64975
# Velocity P-wave (km/s) = 5.66174 5.84073 5.75193
#
# Compressibility (1/GPa) = 0.03139135
#
# Stress axis : x y z
#
# Youngs Moduli (GPa) = 45.26874 60.11271 45.88182
#
# Poissons Ratio (x) = 0.26385 0.40764
# Poissons Ratio (y) = 0.19870 0.05923
# Poissons Ratio (z) = 0.40220 0.07760
#
# Static dielectric constant tensor:
#      x y z
#    x 1.777940 0.000000 0.000000 
#    y 0.000000 1.703440 0.000000 
#    z 0.000000 0.000000 1.871680 
# 
# From -- ./inp_files/19681.got.cif
#   From: 2010.05.17/outbox.cif.g08.bks.cpg/sg24_10_cif.got.tgz:19681.got - 2010.06.04 00:33:39.
