data_PCOD9334508
_publ_section_title
;
Structure prediction by ZEFSAII (Michael W. Deem and Ramdas Pophale) SiO2 
 PCOD9334508
Probable space group: I 21 21 21
;
_chemical_formula_sum "Si O2"
_cell_formula_units_Z 56
_cell_length_a 5.261615
_cell_length_b 26.690565
_cell_length_c 14.685827
_cell_angle_alpha 90.000000
_cell_angle_beta 90.000000
_cell_angle_gamma 90.000000
_cell_volume 2062.411122
_symmetry_space_group_name_H-M "I 21 21 21"
_symmetry_group_IT_number 24
_symmetry_cell_setting 'orthorhombic'
loop_
_space_group_symop_operation_xyz
x,y,z
-x,1/2-y,z
x,-y,1/2-z
1/2-x,y,-z
1/2+x,1/2+y,1/2+z
1/2-x,-y,1/2+z
1/2+x,1/2-y,-z
-x,1/2+y,1/2-z
loop_
_atom_site_type_symbol
_atom_site_label
_atom_site_fract_x
_atom_site_fract_y
_atom_site_fract_z
Si Si1 0.103759 0.964872 0.632281
Si Si2 0.230049 0.098161 0.292926
Si Si3 0.500000 0.250000 0.064254
Si Si4 0.890552 0.017365 0.355566
Si Si5 0.339375 0.650409 0.090182
Si Si6 0.500000 0.250000 0.390482
Si Si7 0.999723 0.855733 0.560997
Si Si8 0.062457 0.800509 0.234101
O O1 0.884496 0.003997 0.606563
O O2 0.156561 0.948277 0.737375
O O3 0.380468 0.984483 0.601301
O O4 0.003808 0.910849 0.601311
O O5 0.443500 0.119927 0.358082
O O6 0.148654 0.144930 0.227927
O O7 0.992314 0.074056 0.346768
O O8 0.490007 0.303071 0.116955
O O9 0.750000 0.251206 0.000000
O O10 0.863815 0.000000 0.250000
O O11 0.460561 0.701406 0.048271
O O12 0.151076 0.676552 0.164513
O O13 0.250000 0.622363 0.000000
O O14 0.282580 0.225767 0.325588
O O15 0.250000 0.853325 0.500000
O O16 0.750000 0.853611 0.500000
O O17 0.000000 0.750000 0.292973
#
# Coordination Sequence:
#
# PCOD9334508 Si02
#       8
#     8   8   4   8   8   4   8   8
#     4  11  23  40  69  96 120 168 220 267 325 386
#     4  10  23  39  64  94 128 167 225 280 322 393
#     4   8  16  32  59  90 123 164 200 234 300 400
#     4  10  22  40  66  92 121 168 225 263 315 393
#     4  10  21  34  60  89 127 173 219 270 322 379
#     4   8  18  32  51  90 117 178 220 258 304 392
#     4  10  20  39  66  96 133 164 206 257 319 396
#     4   9  19  37  60  87 132 169 216 269 331 387
#
# _framework density 27.152685000000002
#
# number of rings (size 3 to 8) (size 9 to 14) (size 15 to 20)
#    0.000    2.286    0.000    2.143    9.000    1.714 
#    0.000    5.000   12.571    0.000    0.000    0.000 
#    0.000    0.000    0.000    0.000    0.000    0.000 
#
# Total GULP energy -156219.389508 kJ/mol
# GULP energy per Si atom -5579.263911 kJ/mol
# Density = 2.709088 g / cm^3
# Si number density = 27.152685 Si / 1000 Ang^3
#
#
#
# Elastic Constant Matrix: (Units=GPa)
#
#
# Indices 1 2 3 4 5 6 
#
# 1 155.1193 40.7872 18.0902 0.0000 0.0000 0.0000
# 2 40.7872 227.3129 11.0857 0.0000 0.0000 0.0000
# 3 18.0902 11.0857 42.5983 0.0000 0.0000 0.0000
# 4 0.0000 0.0000 0.0000 12.3593 0.0000 0.0000
# 5 0.0000 0.0000 0.0000 0.0000 23.0043 0.0000
# 6 0.0000 0.0000 0.0000 0.0000 0.0000 57.5402
#
#
#
# Elastic Compliance Matrix: (Units=1/GPa)
#
#
# Indices 1 2 3 4 5 6 
#
# 1 0.007060 -0.001135 -0.002703 0.000000 0.000000 0.000000
# 2 -0.001135 0.004638 -0.000725 0.000000 0.000000 0.000000
# 3 -0.002703 -0.000725 0.024812 0.000000 0.000000 0.000000
# 4 0.000000 0.000000 0.000000 0.080911 0.000000 0.000000
# 5 0.000000 0.000000 0.000000 0.000000 0.043470 0.000000
# 6 0.000000 0.000000 0.000000 0.000000 0.000000 0.017379
#
#
# Mechanical properties :
#
#
# Convention : Reuss Voigt Hill
#
# Bulk Modulus (GPa) = 36.51737 62.77297 49.64517
# Shear Modulus (GPa) = 25.44214 42.25192 33.84703
#
# Velocity S-wave (km/s) = 3.06437 3.94901 3.53447
# Velocity P-wave (km/s) = 5.09888 6.63035 5.91440
#
# Compressibility (1/GPa) = 0.02738423
#
# Stress axis : x y z
#
# Youngs Moduli (GPa) = 141.63680 215.59892 40.30365
#
# Poissons Ratio (x) = 0.24471 0.10894
# Poissons Ratio (y) = 0.16076 0.02922
# Poissons Ratio (z) = 0.38283 0.15632
#
# Static dielectric constant tensor:
#      x y z
#    x 2.335110 0.000000 0.000000 
#    y 0.000000 2.240380 0.000000 
#    z 0.000000 0.000000 2.190250 
# 
# From -- ./inp_files/32275.got.cif
#   From: 2010.05.17/outbox.cif.g08.bks.cpg/sg24_17_cif.got.tgz:32275.got - 2010.06.04 00:33:39.
