data_PCOD9334715
_publ_section_title
;
Structure prediction by ZEFSAII (Michael W. Deem and Ramdas Pophale) SiO2 
 PCOD9334715
Probable space group: I 21 21 21
;
_chemical_formula_sum "Si O2"
_cell_formula_units_Z 48
_cell_length_a 15.087552
_cell_length_b 8.121280
_cell_length_c 21.513196
_cell_angle_alpha 90.000000
_cell_angle_beta 90.000000
_cell_angle_gamma 90.000000
_cell_volume 2636.016947
_symmetry_space_group_name_H-M "I 21 21 21"
_symmetry_group_IT_number 24
_symmetry_cell_setting 'orthorhombic'
loop_
_space_group_symop_operation_xyz
x,y,z
-x,1/2-y,z
x,-y,1/2-z
1/2-x,y,-z
1/2+x,1/2+y,1/2+z
1/2-x,-y,1/2+z
1/2+x,1/2-y,-z
-x,1/2+y,1/2-z
loop_
_atom_site_type_symbol
_atom_site_label
_atom_site_fract_x
_atom_site_fract_y
_atom_site_fract_z
Si Si1 0.146344 0.929067 0.945762
Si Si2 0.961674 0.565483 0.181082
Si Si3 0.324204 0.053230 0.914232
Si Si4 0.285168 0.440521 0.431072
Si Si5 0.536468 0.065474 0.042679
Si Si6 0.107657 0.426944 0.094106
O O1 0.181013 0.745978 0.933428
O O2 0.217509 0.046340 0.911597
O O3 0.043554 0.955849 0.931277
O O4 0.153389 0.971921 0.019111
O O5 0.945852 0.500000 0.250000
O O6 0.873652 0.546924 0.139428
O O7 0.000000 0.750000 0.181206
O O8 0.035800 0.453968 0.147054
O O9 0.361605 0.238320 0.913619
O O10 0.250000 0.486684 0.500000
O O11 0.372423 0.548145 0.419525
O O12 0.197237 0.471367 0.391616
O O13 0.500000 0.250000 0.041078
O O14 0.562299 0.018444 0.971331
#
# Coordination Sequence:
#
# PCOD9334715 Si02
#       6
#     8   8   8   8   8   8
#     4  11  20  33  51  78 110 147 182 224 286 339
#     4  12  25  40  60  81 110 151 195 235 278 330
#     4  11  21  35  53  78 108 145 183 233 276 336
#     4  10  21  30  48  74 107 140 183 217 273 336
#     4  11  19  30  49  75 108 146 177 217 273 333
#     4  11  21  36  53  77 111 147 185 232 277 332
#
# _framework density 18.209291
#
# number of rings (size 3 to 8) (size 9 to 14) (size 15 to 20)
#    0.000    1.000    5.000    4.000    7.000    0.000 
#    0.000    0.000    0.000    0.000    0.000    1.167 
#    0.000    0.000    0.000    0.000    0.000    0.000 
#
# Total GULP energy -134011.576703 kJ/mol
# GULP energy per Si atom -5583.815696 kJ/mol
# Density = 1.816785 g / cm^3
# Si number density = 18.209291 Si / 1000 Ang^3
#
#
#
# Elastic Constant Matrix: (Units=GPa)
#
#
# Indices 1 2 3 4 5 6 
#
# 1 159.1476 37.7718 33.5343 0.0000 0.0000 0.0000
# 2 37.7718 86.1998 17.5851 0.0000 0.0000 0.0000
# 3 33.5343 17.5851 64.5266 0.0000 0.0000 0.0000
# 4 0.0000 0.0000 0.0000 16.5599 0.0000 0.0000
# 5 0.0000 0.0000 0.0000 0.0000 19.3158 0.0000
# 6 0.0000 0.0000 0.0000 0.0000 0.0000 38.6662
#
#
#
# Elastic Compliance Matrix: (Units=1/GPa)
#
#
# Indices 1 2 3 4 5 6 
#
# 1 0.007596 -0.002672 -0.003219 0.000000 0.000000 0.000000
# 2 -0.002672 0.013224 -0.002215 0.000000 0.000000 0.000000
# 3 -0.003219 -0.002215 0.017774 0.000000 0.000000 0.000000
# 4 0.000000 0.000000 0.000000 0.060387 0.000000 0.000000
# 5 0.000000 0.000000 0.000000 0.000000 0.051771 0.000000
# 6 0.000000 0.000000 0.000000 0.000000 0.000000 0.025862
#
#
# Mechanical properties :
#
#
# Convention : Reuss Voigt Hill
#
# Bulk Modulus (GPa) = 44.68081 54.18405 49.43243
# Shear Modulus (GPa) = 24.96409 29.64055 27.30232
#
# Velocity S-wave (km/s) = 3.70666 4.03894 3.87636
# Velocity P-wave (km/s) = 6.55055 7.18134 6.87318
#
# Compressibility (1/GPa) = 0.02238098
#
# Stress axis : x y z
#
# Youngs Moduli (GPa) = 131.64911 75.62244 56.26075
#
# Poissons Ratio (x) = 0.20204 0.18113
# Poissons Ratio (y) = 0.35172 0.12463
# Poissons Ratio (z) = 0.42384 0.16753
#
# Static dielectric constant tensor:
#      x y z
#    x 1.705440 0.000000 0.000000 
#    y 0.000000 1.683150 0.000000 
#    z 0.000000 0.000000 1.587390 
# 
# From -- ./inp_files/33640.got.cif
#   From: 2010.05.17/outbox.cif.g08.bks.cpg/sg24_17_cif.got.tgz:33640.got - 2010.06.04 00:33:39.
