data_PCOD9334003
_publ_section_title
;
Structure prediction by ZEFSAII (Michael W. Deem and Ramdas Pophale) SiO2 
 PCOD9334003
Probable space group: I 21 21 21
;
_chemical_formula_sum "Si O2"
_cell_formula_units_Z 48
_cell_length_a 7.538226
_cell_length_b 8.880862
_cell_length_c 30.405808
_cell_angle_alpha 90.000000
_cell_angle_beta 90.000000
_cell_angle_gamma 90.000000
_cell_volume 2035.545545
_symmetry_space_group_name_H-M "I 21 21 21"
_symmetry_group_IT_number 24
_symmetry_cell_setting 'orthorhombic'
loop_
_space_group_symop_operation_xyz
x,y,z
-x,1/2-y,z
x,-y,1/2-z
1/2-x,y,-z
1/2+x,1/2+y,1/2+z
1/2-x,-y,1/2+z
1/2+x,1/2-y,-z
-x,1/2+y,1/2-z
loop_
_atom_site_type_symbol
_atom_site_label
_atom_site_fract_x
_atom_site_fract_y
_atom_site_fract_z
Si Si1 0.709814 0.920681 0.294941
Si Si2 0.360711 0.634336 0.463662
Si Si3 0.694050 0.063242 0.386648
Si Si4 0.234097 0.082798 0.613956
Si Si5 0.223455 0.925309 0.704534
Si Si6 0.423735 0.084530 0.528298
O O1 0.493240 0.925896 0.294771
O O2 0.772293 0.749329 0.296884
O O3 0.768494 0.000000 0.250000
O O4 0.757958 0.003624 0.339830
O O5 0.500000 0.750000 0.442889
O O6 0.250000 0.727241 0.500000
O O7 0.252493 0.545695 0.426543
O O8 0.453807 0.512402 0.495574
O O9 0.478166 0.055329 0.390494
O O10 0.749084 0.236451 0.389174
O O11 0.351523 0.017111 0.574396
O O12 0.282617 0.016151 0.661463
O O13 0.283047 0.000000 0.750000
O O14 0.500000 0.250000 0.536586
O O15 0.250000 0.113753 0.500000
#
# Coordination Sequence:
#
# PCOD9334003 Si02
#       6
#     8   8   8   8   8   8
#     4   9  17  28  49  80 121 159 192 245 305 363
#     4  12  27  42  61  88 123 163 206 257 310 371
#     4  10  20  35  55  83 120 156 201 249 305 361
#     4  10  20  34  57  84 115 158 201 251 301 364
#     4   9  17  29  49  80 119 157 199 242 301 363
#     4  12  23  40  63  88 121 160 210 255 310 369
#
# _framework density 23.580901000000001
#
# number of rings (size 3 to 8) (size 9 to 14) (size 15 to 20)
#    0.000    1.667    1.667    4.000    4.667    4.000 
#    0.000    0.000    0.000    0.000    0.000   10.500 
#    0.000    0.000    0.000    0.000    0.000    0.000 
#
# Total GULP energy -134247.023262 kJ/mol
# GULP energy per Si atom -5593.625969 kJ/mol
# Density = 2.352723 g / cm^3
# Si number density = 23.580901 Si / 1000 Ang^3
#
#
#
# Elastic Constant Matrix: (Units=GPa)
#
#
# Indices 1 2 3 4 5 6 
#
# 1 61.3396 11.4062 33.3261 0.0000 0.0000 0.0000
# 2 11.4062 106.1760 65.8454 0.0000 0.0000 0.0000
# 3 33.3261 65.8454 220.0095 0.0000 0.0000 0.0000
# 4 0.0000 0.0000 0.0000 46.5345 0.0000 0.0000
# 5 0.0000 0.0000 0.0000 0.0000 6.9546 0.0000
# 6 0.0000 0.0000 0.0000 0.0000 0.0000 5.0691
#
#
#
# Elastic Compliance Matrix: (Units=1/GPa)
#
#
# Indices 1 2 3 4 5 6 
#
# 1 0.017772 -0.000294 -0.002604 0.000000 0.000000 0.000000
# 2 -0.000294 0.011570 -0.003418 0.000000 0.000000 0.000000
# 3 -0.002604 -0.003418 0.005963 0.000000 0.000000 0.000000
# 4 0.000000 0.000000 0.000000 0.021489 0.000000 0.000000
# 5 0.000000 0.000000 0.000000 0.000000 0.143791 0.000000
# 6 0.000000 0.000000 0.000000 0.000000 0.000000 0.197272
#
#
# Mechanical properties :
#
#
# Convention : Reuss Voigt Hill
#
# Bulk Modulus (GPa) = 44.10770 67.63116 55.86943
# Shear Modulus (GPa) = 11.96039 30.17480 21.06759
#
# Velocity S-wave (km/s) = 2.25457 3.58107 2.99225
# Velocity P-wave (km/s) = 5.05202 6.77064 5.97346
#
# Compressibility (1/GPa) = 0.02267178
#
# Stress axis : x y z
#
# Youngs Moduli (GPa) = 56.26777 86.43305 167.71063
#
# Poissons Ratio (x) = 0.02544 0.43671
# Poissons Ratio (y) = 0.01656 0.57324
# Poissons Ratio (z) = 0.14652 0.29543
#
# Static dielectric constant tensor:
#      x y z
#    x 1.983750 0.000000 0.000000 
#    y 0.000000 1.828930 0.000000 
#    z 0.000000 0.000000 1.854670 
# 
# From -- ./inp_files/38299.got.cif
#   From: 2010.05.17/outbox.cif.g08.bks.cpg/sg24_20_cif.got.tgz:38299.got - 2010.06.04 00:33:39.
