data_PCOD9334326
_publ_section_title
;
Structure prediction by ZEFSAII (Michael W. Deem and Ramdas Pophale) SiO2 
 PCOD9334326
Probable space group: I 21 21 21
;
_chemical_formula_sum "Si O2"
_cell_formula_units_Z 52
_cell_length_a 8.514405
_cell_length_b 11.982778
_cell_length_c 25.739396
_cell_angle_alpha 90.000000
_cell_angle_beta 90.000000
_cell_angle_gamma 90.000000
_cell_volume 2626.093406
_symmetry_space_group_name_H-M "I 21 21 21"
_symmetry_group_IT_number 24
_symmetry_cell_setting 'orthorhombic'
loop_
_space_group_symop_operation_xyz
x,y,z
-x,1/2-y,z
x,-y,1/2-z
1/2-x,y,-z
1/2+x,1/2+y,1/2+z
1/2-x,-y,1/2+z
1/2+x,1/2-y,-z
-x,1/2+y,1/2-z
loop_
_atom_site_type_symbol
_atom_site_label
_atom_site_fract_x
_atom_site_fract_y
_atom_site_fract_z
Si Si1 0.279906 0.873158 0.866833
Si Si2 0.500000 0.250000 0.845899
Si Si3 0.669822 0.797754 0.339692
Si Si4 0.438609 0.453210 0.355586
Si Si5 0.765379 0.815766 0.780407
Si Si6 0.002599 0.997134 0.302672
Si Si7 0.825760 0.201651 0.553483
O O1 0.277814 0.785375 0.818668
O O2 0.275114 0.799165 0.918603
O O3 0.123453 0.948983 0.866570
O O4 0.425472 0.950829 0.854548
O O5 0.323170 0.250015 0.869765
O O6 0.484542 0.366576 0.814816
O O7 0.500000 0.750000 0.354316
O O8 0.702542 0.777774 0.278126
O O9 0.643630 0.929597 0.346537
O O10 0.416967 0.375324 0.305071
O O11 0.350575 0.392448 0.403033
O O12 0.635781 0.915311 0.786738
O O13 0.107397 0.000000 0.250000
O O14 0.750000 0.164421 0.500000
O O15 0.000000 0.250000 0.544074
#
# Coordination Sequence:
#
# PCOD9334326 Si02
#       7
#     8   4   8   8   8   8   8
#     4  10  22  36  59  88 120 161 200 247 314 370
#     4  12  24  38  54  84 118 162 220 250 286 372
#     4  12  23  38  59  83 124 175 210 256 300 353
#     4  10  20  38  55  85 120 155 197 254 307 374
#     4  11  20  36  53  83 123 160 212 250 295 356
#     4  12  22  36  53  79 126 165 207 259 289 343
#     4   9  20  39  63  93 122 143 194 253 320 387
#
# _framework density 19.801276000000001
#
# number of rings (size 3 to 8) (size 9 to 14) (size 15 to 20)
#    0.000    1.231    3.077    5.077    0.000    3.692 
#    0.000    0.000    0.000    0.000    2.000    1.077 
#    0.000    0.000    0.000    0.000    0.000    0.000 
#
# Total GULP energy -144887.110844 kJ/mol
# GULP energy per Si atom -5572.581186 kJ/mol
# Density = 1.975621 g / cm^3
# Si number density = 19.801276 Si / 1000 Ang^3
#
#
#
# Elastic Constant Matrix: (Units=GPa)
#
#
# Indices 1 2 3 4 5 6 
#
# 1 78.6129 20.5520 7.7652 0.0000 0.0000 0.0000
# 2 20.5520 77.3680 -3.3266 0.0000 0.0000 0.0000
# 3 7.7652 -3.3266 46.0482 0.0000 0.0000 0.0000
# 4 0.0000 0.0000 0.0000 4.8159 0.0000 0.0000
# 5 0.0000 0.0000 0.0000 0.0000 18.6528 0.0000
# 6 0.0000 0.0000 0.0000 0.0000 0.0000 26.3669
#
#
#
# Elastic Compliance Matrix: (Units=1/GPa)
#
#
# Indices 1 2 3 4 5 6 
#
# 1 0.013981 -0.003827 -0.002634 0.000000 0.000000 0.000000
# 2 -0.003827 0.014013 0.001658 0.000000 0.000000 0.000000
# 3 -0.002634 0.001658 0.022280 0.000000 0.000000 0.000000
# 4 0.000000 0.000000 0.000000 0.207645 0.000000 0.000000
# 5 0.000000 0.000000 0.000000 0.000000 0.053611 0.000000
# 6 0.000000 0.000000 0.000000 0.000000 0.000000 0.037926
#
#
# Mechanical properties :
#
#
# Convention : Reuss Voigt Hill
#
# Bulk Modulus (GPa) = 24.58970 28.00114 26.29542
# Shear Modulus (GPa) = 13.41848 21.76969 17.59409
#
# Velocity S-wave (km/s) = 2.60601 3.31933 2.98406
# Velocity P-wave (km/s) = 4.63684 5.37237 5.01810
#
# Compressibility (1/GPa) = 0.04066744
#
# Stress axis : x y z
#
# Youngs Moduli (GPa) = 71.52394 71.36135 44.88264
#
# Poissons Ratio (x) = 0.27312 0.11823
# Poissons Ratio (y) = 0.27374 -0.07440
# Poissons Ratio (z) = 0.18841 -0.11830
#
# Static dielectric constant tensor:
#      x y z
#    x 1.849530 0.000000 0.000000 
#    y 0.000000 1.733020 0.000000 
#    z 0.000000 0.000000 1.669780 
# 
# From -- ./inp_files/16414.got.cif
#   From: 2010.05.17/outbox.cif.g08.bks.cpg/sg24_9_cif.got.tgz:16414.got - 2010.06.04 00:33:39.
