data_PCOD9334170
_publ_section_title
;
Structure prediction by ZEFSAII (Michael W. Deem and Ramdas Pophale) SiO2 
 PCOD9334170
Probable space group: I 21 21 21
;
_chemical_formula_sum "Si O2"
_cell_formula_units_Z 60
_cell_length_a 18.654345
_cell_length_b 16.329480
_cell_length_c 10.563955
_cell_angle_alpha 90.000000
_cell_angle_beta 90.000000
_cell_angle_gamma 90.000000
_cell_volume 3217.947113
_symmetry_space_group_name_H-M "I 21 21 21"
_symmetry_group_IT_number 24
_symmetry_cell_setting 'orthorhombic'
loop_
_space_group_symop_operation_xyz
x,y,z
-x,1/2-y,z
x,-y,1/2-z
1/2-x,y,-z
1/2+x,1/2+y,1/2+z
1/2-x,-y,1/2+z
1/2+x,1/2-y,-z
-x,1/2+y,1/2-z
loop_
_atom_site_type_symbol
_atom_site_label
_atom_site_fract_x
_atom_site_fract_y
_atom_site_fract_z
Si Si1 0.228332 0.500000 0.250000
Si Si2 0.346430 0.376041 0.339444
Si Si3 0.602130 0.080372 0.883896
Si Si4 0.036447 0.663072 0.633946
Si Si5 0.415706 0.919735 0.190400
Si Si6 0.534750 0.937430 0.991376
Si Si7 0.670204 0.291463 0.477866
Si Si8 0.570475 0.211707 0.674403
O O1 0.279212 0.425245 0.287956
O O2 0.176987 0.532080 0.363170
O O3 0.399692 0.336638 0.236410
O O4 0.396382 0.440048 0.415950
O O5 0.322315 0.300623 0.424903
O O6 0.604146 0.148328 0.773515
O O7 0.545506 0.005197 0.884991
O O8 0.575405 0.125204 0.011274
O O9 0.000000 0.750000 0.605186
O O10 0.971947 0.613848 0.704353
O O11 0.368565 0.848317 0.126836
O O12 0.378340 0.000000 0.250000
O O13 0.464891 0.949191 0.073586
O O14 0.538408 0.845997 0.936690
O O15 0.750000 0.324346 0.500000
O O16 0.623320 0.276375 0.606247
O O17 0.500000 0.250000 0.737104
#
# Coordination Sequence:
#
# PCOD9334170 Si02
#       8
#     4   8   8   8   8   8   8   8
#     4  12  24  38  52  94 144 180 200 254 346 430
#     4  10  23  36  61  92 128 172 214 260 322 394
#     4  12  23  37  57  90 140 173 210 253 329 403
#     4  11  22  40  62  95 123 167 225 273 310 376
#     4  11  21  40  70  90 115 153 219 281 322 358
#     4  10  20  36  59  90 116 161 214 262 303 370
#     4  11  23  40  66  90 121 161 213 268 329 391
#     4  11  21  38  62  91 125 171 212 254 311 387
#
# _framework density 18.645429
#
# number of rings (size 3 to 8) (size 9 to 14) (size 15 to 20)
#    0.000    1.067    5.333    2.000    3.733    1.600 
#    0.000    0.000    2.933    1.600    0.000    0.000 
#    0.000    0.000    0.000    0.000    0.000    0.000 
#
# Total GULP energy -167135.131242 kJ/mol
# GULP energy per Si atom -5571.171041 kJ/mol
# Density = 1.860299 g / cm^3
# Si number density = 18.645429 Si / 1000 Ang^3
#
#
#
# Elastic Constant Matrix: (Units=GPa)
#
#
# Indices 1 2 3 4 5 6 
#
# 1 96.1667 38.8935 35.4282 0.0000 0.0000 0.0000
# 2 38.8935 73.5917 23.0763 0.0000 0.0000 0.0000
# 3 35.4282 23.0763 77.7226 0.0000 0.0000 0.0000
# 4 0.0000 0.0000 0.0000 40.1350 0.0000 0.0000
# 5 0.0000 0.0000 0.0000 0.0000 24.2181 0.0000
# 6 0.0000 0.0000 0.0000 0.0000 0.0000 26.9481
#
#
#
# Elastic Compliance Matrix: (Units=1/GPa)
#
#
# Indices 1 2 3 4 5 6 
#
# 1 0.014716 -0.006256 -0.004850 0.000000 0.000000 0.000000
# 2 -0.006256 0.017643 -0.002387 0.000000 0.000000 0.000000
# 3 -0.004850 -0.002387 0.015786 0.000000 0.000000 0.000000
# 4 0.000000 0.000000 0.000000 0.024916 0.000000 0.000000
# 5 0.000000 0.000000 0.000000 0.000000 0.041291 0.000000
# 6 0.000000 0.000000 0.000000 0.000000 0.000000 0.037108
#
#
# Mechanical properties :
#
#
# Convention : Reuss Voigt Hill
#
# Bulk Modulus (GPa) = 47.26268 49.14189 48.20229
# Shear Modulus (GPa) = 26.95416 28.26578 27.60997
#
# Velocity S-wave (km/s) = 3.80625 3.89776 3.85228
# Velocity P-wave (km/s) = 6.68729 6.83154 6.75980
#
# Compressibility (1/GPa) = 0.02115834
#
# Stress axis : x y z
#
# Youngs Moduli (GPa) = 67.95393 56.67835 63.34813
#
# Poissons Ratio (x) = 0.35461 0.30726
# Poissons Ratio (y) = 0.42515 0.15118
# Poissons Ratio (z) = 0.32960 0.13527
#
# Static dielectric constant tensor:
#      x y z
#    x 1.652600 0.000000 0.000000 
#    y 0.000000 1.690160 0.000000 
#    z 0.000000 0.000000 1.711880 
# 
# From -- ./inp_files/21688.got.cif
#   From: 2010.05.17/outbox.cif.g08.bks.cpg/sg24_11_cif.got.tgz:21688.got - 2010.06.04 00:33:39.
