data_PCOD9334567
_publ_section_title
;
Structure prediction by ZEFSAII (Michael W. Deem and Ramdas Pophale) SiO2 
 PCOD9334567
Probable space group: I 21 21 21
;
_chemical_formula_sum "Si O2"
_cell_formula_units_Z 36
_cell_length_a 25.583282
_cell_length_b 12.817696
_cell_length_c 5.261657
_cell_angle_alpha 90.000000
_cell_angle_beta 90.000000
_cell_angle_gamma 90.000000
_cell_volume 1725.395888
_symmetry_space_group_name_H-M "I 21 21 21"
_symmetry_group_IT_number 24
_symmetry_cell_setting 'orthorhombic'
loop_
_space_group_symop_operation_xyz
x,y,z
-x,1/2-y,z
x,-y,1/2-z
1/2-x,y,-z
1/2+x,1/2+y,1/2+z
1/2-x,-y,1/2+z
1/2+x,1/2-y,-z
-x,1/2+y,1/2-z
loop_
_atom_site_type_symbol
_atom_site_label
_atom_site_fract_x
_atom_site_fract_y
_atom_site_fract_z
Si Si1 0.500000 0.750000 0.261585
Si Si2 0.589108 0.886535 0.196515
Si Si3 0.847090 0.734429 0.505028
Si Si4 0.693095 0.823100 0.996537
Si Si5 0.065190 0.930845 0.497300
O O1 0.545984 0.804621 0.098710
O O2 0.523171 0.658413 0.435978
O O3 0.610622 0.827874 0.448156
O O4 0.642049 0.896021 0.030876
O O5 0.567139 0.000000 0.250000
O O6 0.814531 0.743799 0.766210
O O7 0.879927 0.630095 0.466525
O O8 0.813213 0.762139 0.263992
O O9 0.750000 0.874835 0.000000
O O10 0.053364 0.000000 0.250000
O O11 0.068548 0.000000 0.750000
#
# Coordination Sequence:
#
# PCOD9334567 Si02
#       5
#     4   8   8   8   8
#     4  10  22  44  62 100 128 176 214 274 324 392
#     4   9  21  40  61  96 130 169 218 268 321 394
#     4   9  21  39  61  92 125 162 215 263 322 387
#     4  10  20  40  65  91 129 171 209 272 333 384
#     4  11  23  41  66  93 126 172 216 266 324 389
#
# _framework density 20.864775000000002
#
# number of rings (size 3 to 8) (size 9 to 14) (size 15 to 20)
#    1.333    0.889    0.000    2.667    0.000    1.778 
#   16.000    0.000    0.000   13.333    0.000    0.000 
#    0.000    0.000    0.000    0.000    0.000    0.000 
#
# Total GULP energy -100255.898385 kJ/mol
# GULP energy per Si atom -5569.772132 kJ/mol
# Density = 2.081729 g / cm^3
# Si number density = 20.864775 Si / 1000 Ang^3
#
#
#
# Elastic Constant Matrix: (Units=GPa)
#
#
# Indices 1 2 3 4 5 6 
#
# 1 100.0104 24.5645 -11.2767 0.0000 0.0000 0.0000
# 2 24.5645 92.8958 8.2023 0.0000 0.0000 0.0000
# 3 -11.2767 8.2023 84.3781 0.0000 0.0000 0.0000
# 4 0.0000 0.0000 0.0000 13.7212 0.0000 0.0000
# 5 0.0000 0.0000 0.0000 0.0000 31.3547 0.0000
# 6 0.0000 0.0000 0.0000 0.0000 0.0000 14.7776
#
#
#
# Elastic Compliance Matrix: (Units=1/GPa)
#
#
# Indices 1 2 3 4 5 6 
#
# 1 0.010946 -0.003050 0.001759 0.000000 0.000000 0.000000
# 2 -0.003050 0.011708 -0.001546 0.000000 0.000000 0.000000
# 3 0.001759 -0.001546 0.012237 0.000000 0.000000 0.000000
# 4 0.000000 0.000000 0.000000 0.072880 0.000000 0.000000
# 5 0.000000 0.000000 0.000000 0.000000 0.031893 0.000000
# 6 0.000000 0.000000 0.000000 0.000000 0.000000 0.067670
#
#
# Mechanical properties :
#
#
# Convention : Reuss Voigt Hill
#
# Bulk Modulus (GPa) = 34.22482 35.58496 34.90489
# Shear Modulus (GPa) = 22.44709 29.02365 25.73537
#
# Velocity S-wave (km/s) = 3.28355 3.73371 3.51584
# Velocity P-wave (km/s) = 5.55107 5.97323 5.76602
#
# Compressibility (1/GPa) = 0.02921856
#
# Stress axis : x y z
#
# Youngs Moduli (GPa) = 91.35368 85.41372 81.72065
#
# Poissons Ratio (x) = 0.26051 -0.14378
# Poissons Ratio (y) = 0.27862 0.12632
# Poissons Ratio (z) = -0.16073 0.13202
#
# Static dielectric constant tensor:
#      x y z
#    x 1.840740 0.000000 0.000000 
#    y 0.000000 1.725070 0.000000 
#    z 0.000000 0.000000 1.733480 
# 
# From -- ./inp_files/6884.got.cif
#   From: 2010.05.17/outbox.cif.g08.bks.cpg/sg24_4_cif.got.tgz:6884.got - 2010.06.04 00:33:39.
