data_PCOD9334250
_publ_section_title
;
Structure prediction by ZEFSAII (Michael W. Deem and Ramdas Pophale) SiO2 
 PCOD9334250
Probable space group: I 21 21 21
;
_chemical_formula_sum "Si O2"
_cell_formula_units_Z 60
_cell_length_a 16.160902
_cell_length_b 19.713885
_cell_length_c 9.339080
_cell_angle_alpha 90.000000
_cell_angle_beta 90.000000
_cell_angle_gamma 90.000000
_cell_volume 2975.376381
_symmetry_space_group_name_H-M "I 21 21 21"
_symmetry_group_IT_number 24
_symmetry_cell_setting 'orthorhombic'
loop_
_space_group_symop_operation_xyz
x,y,z
-x,1/2-y,z
x,-y,1/2-z
1/2-x,y,-z
1/2+x,1/2+y,1/2+z
1/2-x,-y,1/2+z
1/2+x,1/2-y,-z
-x,1/2+y,1/2-z
loop_
_atom_site_type_symbol
_atom_site_label
_atom_site_fract_x
_atom_site_fract_y
_atom_site_fract_z
Si Si1 0.343796 0.249817 0.968598
Si Si2 0.870423 0.524168 0.031576
Si Si3 0.065572 0.119550 0.058794
Si Si4 0.570514 0.850039 0.330504
Si Si5 0.845388 0.037433 0.992551
Si Si6 0.041761 0.593395 0.969620
Si Si7 0.737367 0.500000 0.250000
Si Si8 0.409872 0.639904 0.729488
O O1 0.358580 0.170276 0.953071
O O2 0.366605 0.292887 0.828360
O O3 0.250000 0.264834 0.000000
O O4 0.401276 0.279835 0.096500
O O5 0.826053 0.494069 0.886052
O O6 0.944582 0.575874 0.995530
O O7 0.913958 0.457034 0.091639
O O8 0.803683 0.545416 0.154362
O O9 0.004453 0.147054 0.179304
O O10 0.010757 0.124702 0.915137
O O11 0.642379 0.903173 0.375512
O O12 0.553301 0.857675 0.165070
O O13 0.873124 0.075700 0.139713
O O14 0.750000 0.015621 0.000000
O O15 0.908680 0.977742 0.952053
O O16 0.086877 0.626175 0.105101
#
# Coordination Sequence:
#
# PCOD9334250 Si02
#       8
#     8   8   8   8   8   8   4   8
#     4  10  22  41  61  84 114 161 218 263 284 350
#     4  11  21  39  57  98 121 160 195 256 315 370
#     4  10  20  39  65  81 114 157 218 237 304 354
#     4  10  20  37  59  86 119 159 197 253 298 363
#     4  10  21  35  55  88 124 161 202 241 296 372
#     4  12  22  35  62  91 128 159 189 250 324 381
#     4  10  24  34  60  86 138 146 204 254 312 364
#     4  10  20  37  59  86 119 159 197 253 298 363
#
# _framework density 20.165514999999999
#
# number of rings (size 3 to 8) (size 9 to 14) (size 15 to 20)
#    0.000    1.867    2.667    5.600    1.867    3.200 
#    0.000    2.667    0.000    0.000    0.000    0.000 
#    0.000    0.000    0.000    0.000    0.000    0.000 
#
# Total GULP energy -167059.927753 kJ/mol
# GULP energy per Si atom -5568.664258 kJ/mol
# Density = 2.011962 g / cm^3
# Si number density = 20.165515 Si / 1000 Ang^3
#
#
#
# Elastic Constant Matrix: (Units=GPa)
#
#
# Indices 1 2 3 4 5 6 
#
# 1 85.3168 -0.3540 -3.3867 0.0000 0.0000 0.0000
# 2 -0.3540 34.4457 8.0624 0.0000 0.0000 0.0000
# 3 -3.3867 8.0624 91.4901 0.0000 0.0000 0.0000
# 4 0.0000 0.0000 0.0000 -15.9938 0.0000 0.0000
# 5 0.0000 0.0000 0.0000 0.0000 6.1309 0.0000
# 6 0.0000 0.0000 0.0000 0.0000 0.0000 2.0296
#
#
#
# Elastic Compliance Matrix: (Units=1/GPa)
#
#
# Indices 1 2 3 4 5 6 
#
# 1 0.011738 0.000019 0.000433 0.000000 0.000000 0.000000
# 2 0.000019 0.029643 -0.002611 0.000000 0.000000 0.000000
# 3 0.000433 -0.002611 0.011176 0.000000 0.000000 0.000000
# 4 0.000000 0.000000 0.000000 -0.062524 0.000000 0.000000
# 5 0.000000 0.000000 0.000000 0.000000 0.163109 0.000000
# 6 0.000000 0.000000 0.000000 0.000000 0.000000 0.492706
#
#
# Mechanical properties :
#
#
# Convention : Reuss Voigt Hill
#
# Bulk Modulus (GPa) = 20.73031 24.43289 22.58160
# Shear Modulus (GPa) = 7.50472 12.22873 9.86672
#
# Velocity S-wave (km/s) = 1.93123 2.46523 2.21438
# Velocity P-wave (km/s) = 3.90836 4.49951 4.21431
#
# Compressibility (1/GPa) = 0.04823854
#
# Stress axis : x y z
#
# Youngs Moduli (GPa) = 85.19139 33.73516 89.47505
#
# Poissons Ratio (x) = -0.00065 -0.03873
# Poissons Ratio (y) = -0.00165 0.23366
# Poissons Ratio (z) = -0.03687 0.08810
#
# Static dielectric constant tensor:
#      x y z
#    x 1.766680 0.000000 0.000000 
#    y 0.000000 1.738540 0.000000 
#    z 0.000000 0.000000 1.816920 
# 
# From -- ./inp_files/13314.got.cif
#   From: 2010.05.17/outbox.cif.g08.bks.cpg/sg24_7_cif.got.tgz:13314.got - 2010.06.04 00:33:39.
