data_PCOD9334175
_publ_section_title
;
Structure prediction by ZEFSAII (Michael W. Deem and Ramdas Pophale) SiO2 
 PCOD9334175
Probable space group: I 21 21 21
;
_chemical_formula_sum "Si O2"
_cell_formula_units_Z 36
_cell_length_a 19.579321
_cell_length_b 7.464303
_cell_length_c 9.573529
_cell_angle_alpha 90.000000
_cell_angle_beta 90.000000
_cell_angle_gamma 90.000000
_cell_volume 1399.132821
_symmetry_space_group_name_H-M "I 21 21 21"
_symmetry_group_IT_number 24
_symmetry_cell_setting 'orthorhombic'
loop_
_space_group_symop_operation_xyz
x,y,z
-x,1/2-y,z
x,-y,1/2-z
1/2-x,y,-z
1/2+x,1/2+y,1/2+z
1/2-x,-y,1/2+z
1/2+x,1/2-y,-z
-x,1/2+y,1/2-z
loop_
_atom_site_type_symbol
_atom_site_label
_atom_site_fract_x
_atom_site_fract_y
_atom_site_fract_z
Si Si1 0.000000 0.250000 0.267754
Si Si2 0.878352 0.359771 0.070706
Si Si3 0.621700 0.698360 0.258733
Si Si4 0.390601 0.289037 0.524767
Si Si5 0.768123 0.195318 0.282177
O O1 0.944173 0.329733 0.165077
O O2 0.951362 0.142291 0.376133
O O3 0.880319 0.572826 0.043481
O O4 0.814744 0.288341 0.162646
O O5 0.879444 0.258124 0.922286
O O6 0.590025 0.500000 0.250000
O O7 0.700662 0.686579 0.205106
O O8 0.591540 0.820665 0.136357
O O9 0.318908 0.349446 0.589594
O O10 0.738900 0.000000 0.250000
#
# Coordination Sequence:
#
# PCOD9334175 Si02
#       5
#     4   8   8   8   8
#     4  10  20  36  60  82 108 144 192 236 280 332
#     4  10  22  40  62  85 114 155 196 235 284 344
#     4  10  21  39  62  87 115 151 195 238 284 343
#     4  10  22  40  62  85 114 155 196 235 284 344
#     4  11  22  36  58  90 124 154 187 233 289 342
#
# _framework density 25.730222000000001
#
# number of rings (size 3 to 8) (size 9 to 14) (size 15 to 20)
#    0.000    1.778    0.000    5.333    0.000   15.111 
#    0.000    0.000    0.000    0.000    0.000    0.000 
#    0.000    0.000    0.000    0.000    0.000    0.000 
#
# Total GULP energy -100550.155969 kJ/mol
# GULP energy per Si atom -5586.119776 kJ/mol
# Density = 2.567166 g / cm^3
# Si number density = 25.730222 Si / 1000 Ang^3
#
#
#
# Elastic Constant Matrix: (Units=GPa)
#
#
# Indices 1 2 3 4 5 6 
#
# 1 96.9106 -9.2151 37.6485 0.0000 0.0000 0.0000
# 2 -9.2151 57.3112 -12.1458 0.0000 0.0000 0.0000
# 3 37.6485 -12.1458 203.5451 0.0000 0.0000 0.0000
# 4 0.0000 0.0000 0.0000 29.4009 0.0000 0.0000
# 5 0.0000 0.0000 0.0000 0.0000 20.3409 0.0000
# 6 0.0000 0.0000 0.0000 0.0000 0.0000 23.9016
#
#
#
# Elastic Compliance Matrix: (Units=1/GPa)
#
#
# Indices 1 2 3 4 5 6 
#
# 1 0.011225 0.001382 -0.001994 0.000000 0.000000 0.000000
# 2 0.001382 0.017842 0.000809 0.000000 0.000000 0.000000
# 3 -0.001994 0.000809 0.005330 0.000000 0.000000 0.000000
# 4 0.000000 0.000000 0.000000 0.034013 0.000000 0.000000
# 5 0.000000 0.000000 0.000000 0.000000 0.049162 0.000000
# 6 0.000000 0.000000 0.000000 0.000000 0.000000 0.041838
#
#
# Mechanical properties :
#
#
# Convention : Reuss Voigt Hill
#
# Bulk Modulus (GPa) = 28.74201 43.37134 36.05667
# Shear Modulus (GPa) = 29.30628 37.49398 33.40013
#
# Velocity S-wave (km/s) = 3.37854 3.82147 3.60681
# Velocity P-wave (km/s) = 5.13947 6.03028 5.60261
#
# Compressibility (1/GPa) = 0.03479228
#
# Stress axis : x y z
#
# Youngs Moduli (GPa) = 89.08875 56.04654 187.61900
#
# Poissons Ratio (x) = -0.07747 0.37405
# Poissons Ratio (y) = -0.12315 -0.15178
# Poissons Ratio (z) = 0.17762 -0.04534
#
# Static dielectric constant tensor:
#      x y z
#    x 1.935700 0.000000 0.000000 
#    y 0.000000 2.109550 0.000000 
#    z 0.000000 0.000000 2.126570 
# 
# From -- ./inp_files/9061.got.cif
#   From: 2010.05.17/outbox.cif.g08.bks.cpg/sg24_5_cif.got.tgz:9061.got - 2010.06.04 00:33:39.
