data_PCOD9334142
_publ_section_title
;
Structure prediction by ZEFSAII (Michael W. Deem and Ramdas Pophale) SiO2 
 PCOD9334142
Probable space group: I 21 21 21
;
_chemical_formula_sum "Si O2"
_cell_formula_units_Z 48
_cell_length_a 19.434083
_cell_length_b 24.417040
_cell_length_c 5.102805
_cell_angle_alpha 90.000000
_cell_angle_beta 90.000000
_cell_angle_gamma 90.000000
_cell_volume 2421.397224
_symmetry_space_group_name_H-M "I 21 21 21"
_symmetry_group_IT_number 24
_symmetry_cell_setting 'orthorhombic'
loop_
_space_group_symop_operation_xyz
x,y,z
-x,1/2-y,z
x,-y,1/2-z
1/2-x,y,-z
1/2+x,1/2+y,1/2+z
1/2-x,-y,1/2+z
1/2+x,1/2-y,-z
-x,1/2+y,1/2-z
loop_
_atom_site_type_symbol
_atom_site_label
_atom_site_fract_x
_atom_site_fract_y
_atom_site_fract_z
Si Si1 0.496770 0.315229 0.048284
Si Si2 0.799692 0.000000 0.250000
Si Si3 0.322664 0.206843 0.569956
Si Si4 0.584118 0.808187 0.962647
Si Si5 0.750000 0.540027 0.500000
Si Si6 0.298796 0.382591 0.750894
Si Si7 0.648049 0.360808 0.079017
O O1 0.500000 0.250000 0.113054
O O2 0.438109 0.332785 0.257692
O O3 0.565643 0.350984 0.081483
O O4 0.477363 0.315209 0.742920
O O5 0.750000 0.000615 0.500000
O O6 0.836428 0.941810 0.270166
O O7 0.250000 0.235241 0.500000
O O8 0.386288 0.246865 0.513373
O O9 0.326883 0.156879 0.366271
O O10 0.326426 0.183528 0.862606
O O11 0.645887 0.837585 0.811710
O O12 0.752005 0.500000 0.250000
O O13 0.683760 0.581315 0.488344
O O14 0.250000 0.385154 0.500000
O O15 0.250000 0.372900 0.000000
#
# Coordination Sequence:
#
# PCOD9334142 Si02
#       7
#     8   4   8   8   4   8   8
#     4  12  23  41  61  91 128 175 207 241 324 414
#     4   8  16  32  56  78 108 156 200 242 290 342
#     4  12  21  36  60  95 130 162 206 257 331 386
#     4  12  23  36  60  92 132 173 201 258 314 402
#     4  12  26  48  74 100 122 168 232 296 352 388
#     4  10  20  36  57  88 122 162 212 259 302 350
#     4  12  24  42  67  93 125 164 211 273 330 407
#
# _framework density 19.823267000000001
#
# number of rings (size 3 to 8) (size 9 to 14) (size 15 to 20)
#    0.000    0.667    5.000    4.000    0.000    1.333 
#    0.000    0.000    5.500    0.000    0.000    0.000 
#    0.000    0.000    0.000    0.000    0.000    0.000 
#
# Total GULP energy -133872.145692 kJ/mol
# GULP energy per Si atom -5578.006070 kJ/mol
# Density = 1.977815 g / cm^3
# Si number density = 19.823267 Si / 1000 Ang^3
#
#
#
# Elastic Constant Matrix: (Units=GPa)
#
#
# Indices 1 2 3 4 5 6 
#
# 1 86.9336 32.5961 21.6536 0.0000 0.0000 0.0000
# 2 32.5961 86.5869 13.8925 0.0000 0.0000 0.0000
# 3 21.6536 13.8925 113.5820 0.0000 0.0000 0.0000
# 4 0.0000 0.0000 0.0000 28.7353 0.0000 0.0000
# 5 0.0000 0.0000 0.0000 0.0000 34.6897 0.0000
# 6 0.0000 0.0000 0.0000 0.0000 0.0000 16.9103
#
#
#
# Elastic Compliance Matrix: (Units=1/GPa)
#
#
# Indices 1 2 3 4 5 6 
#
# 1 0.013843 -0.004884 -0.002042 0.000000 0.000000 0.000000
# 2 -0.004884 0.013503 -0.000721 0.000000 0.000000 0.000000
# 3 -0.002042 -0.000721 0.009282 0.000000 0.000000 0.000000
# 4 0.000000 0.000000 0.000000 0.034800 0.000000 0.000000
# 5 0.000000 0.000000 0.000000 0.000000 0.028827 0.000000
# 6 0.000000 0.000000 0.000000 0.000000 0.000000 0.059136
#
#
# Mechanical properties :
#
#
# Convention : Reuss Voigt Hill
#
# Bulk Modulus (GPa) = 46.86974 47.04299 46.95637
# Shear Modulus (GPa) = 27.50367 30.66442 29.08404
#
# Velocity S-wave (km/s) = 3.72888 3.93732 3.83452
# Velocity P-wave (km/s) = 6.49881 6.66729 6.58359
#
# Compressibility (1/GPa) = 0.02133573
#
# Stress axis : x y z
#
# Youngs Moduli (GPa) = 72.24026 74.05678 107.74029
#
# Poissons Ratio (x) = 0.36166 0.21997
# Poissons Ratio (y) = 0.35279 0.07764
# Poissons Ratio (z) = 0.14749 0.05336
#
# Static dielectric constant tensor:
#      x y z
#    x 1.745090 0.000000 0.000000 
#    y 0.000000 1.755110 0.000000 
#    z 0.000000 0.000000 1.713110 
# 
# From -- ./inp_files/4868.got.cif
#   From: 2010.05.17/outbox.cif.g08.bks.cpg/sg24_3_cif.got.tgz:4868.got - 2010.06.04 00:33:39.
