data_PCOD9334264
_publ_section_title
;
Structure prediction by ZEFSAII (Michael W. Deem and Ramdas Pophale) SiO2 
 PCOD9334264
Probable space group: I 21 21 21
;
_chemical_formula_sum "Si O2"
_cell_formula_units_Z 40
_cell_length_a 4.940727
_cell_length_b 27.915599
_cell_length_c 14.093370
_cell_angle_alpha 90.000000
_cell_angle_beta 90.000000
_cell_angle_gamma 90.000000
_cell_volume 1943.804855
_symmetry_space_group_name_H-M "I 21 21 21"
_symmetry_group_IT_number 24
_symmetry_cell_setting 'orthorhombic'
loop_
_space_group_symop_operation_xyz
x,y,z
-x,1/2-y,z
x,-y,1/2-z
1/2-x,y,-z
1/2+x,1/2+y,1/2+z
1/2-x,-y,1/2+z
1/2+x,1/2-y,-z
-x,1/2+y,1/2-z
loop_
_atom_site_type_symbol
_atom_site_label
_atom_site_fract_x
_atom_site_fract_y
_atom_site_fract_z
Si Si1 0.792270 0.347425 0.307849
Si Si2 0.000000 0.750000 0.438352
Si Si3 0.300709 0.671749 0.315273
Si Si4 0.302055 0.947271 0.278053
Si Si5 0.703762 0.927611 0.604680
Si Si6 0.750000 0.713315 0.000000
O O1 0.592944 0.321882 0.231617
O O2 0.717205 0.404172 0.298979
O O3 0.757207 0.321089 0.407768
O O4 0.097906 0.341857 0.270746
O O5 0.250000 0.772205 0.500000
O O6 0.164568 0.713999 0.372297
O O7 0.303972 0.627035 0.386685
O O8 0.604246 0.952319 0.317970
O O9 0.104944 0.930179 0.362655
O O10 0.208235 0.000000 0.250000
O O11 0.750000 0.946742 0.500000
O O12 0.500000 0.750000 0.001850
#
# Coordination Sequence:
#
# PCOD9334264 Si02
#       6
#     8   4   8   8   8   4
#     4  10  23  42  61  91 119 166 206 263 309 369
#     4  12  24  36  56  92 122 158 200 246 300 364
#     4  10  22  38  62  83 125 159 195 251 305 369
#     4  10  21  40  65  88 127 157 200 253 322 375
#     4  10  20  37  60  90 118 157 198 240 301 376
#     4  12  26  42  66  92 128 168 228 268 308 372
#
# _framework density 20.578196999999999
#
# number of rings (size 3 to 8) (size 9 to 14) (size 15 to 20)
#    0.000    1.600    0.000    4.200    4.200    3.200 
#    3.600    0.000    0.000    0.000    0.000    0.000 
#    0.000    0.000    0.000    0.000    0.000    0.000 
#
# Total GULP energy -111651.091596 kJ/mol
# GULP energy per Si atom -5582.554580 kJ/mol
# Density = 2.053136 g / cm^3
# Si number density = 20.578197 Si / 1000 Ang^3
#
#
#
# Elastic Constant Matrix: (Units=GPa)
#
#
# Indices 1 2 3 4 5 6 
#
# 1 92.7138 7.1130 3.5222 0.0000 0.0000 0.0000
# 2 7.1130 92.6880 53.5335 0.0000 0.0000 0.0000
# 3 3.5222 53.5335 81.1289 0.0000 0.0000 0.0000
# 4 0.0000 0.0000 0.0000 -8.1040 0.0000 0.0000
# 5 0.0000 0.0000 0.0000 0.0000 11.6494 0.0000
# 6 0.0000 0.0000 0.0000 0.0000 0.0000 7.3656
#
#
#
# Elastic Compliance Matrix: (Units=1/GPa)
#
#
# Indices 1 2 3 4 5 6 
#
# 1 0.010851 -0.000906 0.000127 0.000000 0.000000 0.000000
# 2 -0.000906 0.017508 -0.011514 0.000000 0.000000 0.000000
# 3 0.000127 -0.011514 0.019918 0.000000 0.000000 0.000000
# 4 0.000000 0.000000 0.000000 -0.123396 0.000000 0.000000
# 5 0.000000 0.000000 0.000000 0.000000 0.085841 0.000000
# 6 0.000000 0.000000 0.000000 0.000000 0.000000 0.135766
#
#
# Mechanical properties :
#
#
# Convention : Reuss Voigt Hill
#
# Bulk Modulus (GPa) = 42.20988 43.87420 43.04204
# Shear Modulus (GPa) = 27.93756 15.67302 21.80529
#
# Velocity S-wave (km/s) = 3.68860 2.76276 3.25873
# Velocity P-wave (km/s) = 6.22073 5.61642 5.92628
#
# Compressibility (1/GPa) = 0.02369114
#
# Stress axis : x y z
#
# Youngs Moduli (GPa) = 92.16107 57.11579 50.20602
#
# Poissons Ratio (x) = 0.05174 -0.00636
# Poissons Ratio (y) = 0.08348 0.57805
# Poissons Ratio (z) = -0.01167 0.65761
#
# Static dielectric constant tensor:
#      x y z
#    x 1.438080 0.000000 0.000000 
#    y 0.000000 1.773720 0.000000 
#    z 0.000000 0.000000 1.778670 
# 
# From -- ./inp_files/2517.got.cif
#   From: 2010.05.17/outbox.cif.g08.bks.cpg/sg24_2_cif.got.tgz:2517.got - 2010.06.04 00:33:39.
