data_PCOD9334936
_publ_section_title
;
Structure prediction by ZEFSAII (Michael W. Deem and Ramdas Pophale) SiO2 
 PCOD9334936
Probable space group: I 21 21 21
;
_chemical_formula_sum "Si O2"
_cell_formula_units_Z 32
_cell_length_a 17.991521
_cell_length_b 8.433609
_cell_length_c 10.202996
_cell_angle_alpha 90.000000
_cell_angle_beta 90.000000
_cell_angle_gamma 90.000000
_cell_volume 1548.135818
_symmetry_space_group_name_H-M "I 21 21 21"
_symmetry_group_IT_number 24
_symmetry_cell_setting 'orthorhombic'
loop_
_space_group_symop_operation_xyz
x,y,z
-x,1/2-y,z
x,-y,1/2-z
1/2-x,y,-z
1/2+x,1/2+y,1/2+z
1/2-x,-y,1/2+z
1/2+x,1/2-y,-z
-x,1/2+y,1/2-z
loop_
_atom_site_type_symbol
_atom_site_label
_atom_site_fract_x
_atom_site_fract_y
_atom_site_fract_z
Si Si1 0.416048 0.689828 0.772323
Si Si2 0.331828 0.000000 0.250000
Si Si3 0.270539 0.758117 0.638177
Si Si4 0.088426 0.269010 0.576481
Si Si5 0.171057 0.500000 0.750000
O O1 0.500000 0.750000 0.750570
O O2 0.413504 0.500000 0.750000
O O3 0.356365 0.767117 0.673675
O O4 0.392964 0.733872 0.921580
O O5 0.275970 0.918385 0.352531
O O6 0.379128 0.872170 0.167756
O O7 0.250000 0.682290 0.500000
O O8 0.228376 0.644195 0.738044
O O9 0.117156 0.437110 0.634858
O O10 0.000000 0.250000 0.584338
#
# Coordination Sequence:
#
# PCOD9334936 Si02
#       5
#     8   4   8   8   4
#     4  11  25  43  68  98 136 182 224 283 342 407
#     4  10  25  38  65  98 126 178 220 276 335 392
#     4  11  24  40  63  94 130 173 221 271 330 399
#     4  10  22  42  66  97 136 174 221 282 336 407
#     4  10  21  38  65  90 128 174 220 268 325 406
#
# _framework density 20.670020000000001
#
# number of rings (size 3 to 8) (size 9 to 14) (size 15 to 20)
#    0.000    1.500    1.250    2.250    5.250    4.000 
#    0.000    6.250    0.000    0.000    0.000    0.000 
#    0.000    0.000    0.000    0.000    0.000    0.000 
#
# Total GULP energy -89180.681395 kJ/mol
# GULP energy per Si atom -5573.792587 kJ/mol
# Density = 2.062297 g / cm^3
# Si number density = 20.670020 Si / 1000 Ang^3
#
#
#
# Elastic Constant Matrix: (Units=GPa)
#
#
# Indices 1 2 3 4 5 6 
#
# 1 119.2176 19.5610 57.0260 0.0000 0.0000 0.0000
# 2 19.5610 53.9559 7.2793 0.0000 0.0000 0.0000
# 3 57.0260 7.2793 85.0464 0.0000 0.0000 0.0000
# 4 0.0000 0.0000 0.0000 20.8521 0.0000 0.0000
# 5 0.0000 0.0000 0.0000 0.0000 70.5265 0.0000
# 6 0.0000 0.0000 0.0000 0.0000 0.0000 15.0737
#
#
#
# Elastic Compliance Matrix: (Units=1/GPa)
#
#
# Indices 1 2 3 4 5 6 
#
# 1 0.012997 -0.003578 -0.008409 0.000000 0.000000 0.000000
# 2 -0.003578 0.019735 0.000710 0.000000 0.000000 0.000000
# 3 -0.008409 0.000710 0.017336 0.000000 0.000000 0.000000
# 4 0.000000 0.000000 0.000000 0.047957 0.000000 0.000000
# 5 0.000000 0.000000 0.000000 0.000000 0.014179 0.000000
# 6 0.000000 0.000000 0.000000 0.000000 0.000000 0.066341
#
#
# Mechanical properties :
#
#
# Convention : Reuss Voigt Hill
#
# Bulk Modulus (GPa) = 36.34418 47.32807 41.83612
# Shear Modulus (GPa) = 23.77899 32.91403 28.34651
#
# Velocity S-wave (km/s) = 3.39545 3.99476 3.70724
# Velocity P-wave (km/s) = 5.74398 6.65013 6.21359
#
# Compressibility (1/GPa) = 0.02751472
#
# Stress axis : x y z
#
# Youngs Moduli (GPa) = 76.93925 50.67166 57.68376
#
# Poissons Ratio (x) = 0.18128 0.48505
# Poissons Ratio (y) = 0.27525 -0.04094
# Poissons Ratio (z) = 0.64697 -0.03596
#
# Static dielectric constant tensor:
#      x y z
#    x 1.707150 0.000000 0.000000 
#    y 0.000000 1.702490 0.000000 
#    z 0.000000 0.000000 1.897950 
# 
# From -- ./inp_files/10310.got.cif
#   From: 2010.05.17/outbox.cif.g08.bks.cpg/sg24_6_cif.got.tgz:10310.got - 2010.06.04 00:33:39.
