data_PCOD9334289
_publ_section_title
;
Structure prediction by ZEFSAII (Michael W. Deem and Ramdas Pophale) SiO2 
 PCOD9334289
Probable space group: I 21 21 21
;
_chemical_formula_sum "Si O2"
_cell_formula_units_Z 56
_cell_length_a 13.424013
_cell_length_b 23.771861
_cell_length_c 8.332160
_cell_angle_alpha 90.000000
_cell_angle_beta 90.000000
_cell_angle_gamma 90.000000
_cell_volume 2658.906999
_symmetry_space_group_name_H-M "I 21 21 21"
_symmetry_group_IT_number 24
_symmetry_cell_setting 'orthorhombic'
loop_
_space_group_symop_operation_xyz
x,y,z
-x,1/2-y,z
x,-y,1/2-z
1/2-x,y,-z
1/2+x,1/2+y,1/2+z
1/2-x,-y,1/2+z
1/2+x,1/2-y,-z
-x,1/2+y,1/2-z
loop_
_atom_site_type_symbol
_atom_site_label
_atom_site_fract_x
_atom_site_fract_y
_atom_site_fract_z
Si Si1 0.143969 0.663456 0.447461
Si Si2 0.073954 0.698132 0.807374
Si Si3 0.799202 0.362030 0.279428
Si Si4 0.859033 0.521429 0.042160
Si Si5 0.457464 0.091777 0.929764
Si Si6 0.573241 0.603452 0.207139
Si Si7 0.879466 0.242147 0.361568
O O1 0.250000 0.637694 0.500000
O O2 0.110769 0.688107 0.623415
O O3 0.153791 0.708590 0.300783
O O4 0.061367 0.619795 0.379349
O O5 0.000000 0.750000 0.789694
O O6 0.007813 0.645150 0.865294
O O7 0.140117 0.713525 0.963766
O O8 0.833634 0.419493 0.369477
O O9 0.865826 0.367664 0.119878
O O10 0.680818 0.366819 0.272724
O O11 0.831874 0.304153 0.359272
O O12 0.924887 0.471430 0.112853
O O13 0.750000 0.495807 0.000000
O O14 0.911590 0.546325 0.887389
O O15 0.464676 0.089984 0.118620
O O16 0.000000 0.250000 0.348348
#
# Coordination Sequence:
#
# PCOD9334289 Si02
#       7
#     8   8   8   8   8   8   8
#     4  11  26  43  64  94 128 178 232 267 316 383
#     4  10  23  41  63  94 132 171 213 265 330 391
#     4  11  22  37  60  98 127 165 210 259 333 406
#     4  10  20  37  62  97 129 163 206 261 333 408
#     4  11  22  39  62  87 130 169 208 271 327 376
#     4  10  22  37  61  95 129 161 212 259 328 408
#     4  11  22  43  64  93 138 172 214 271 328 388
#
# _framework density 21.061285999999999
#
# number of rings (size 3 to 8) (size 9 to 14) (size 15 to 20)
#    0.000    1.429    1.429    4.286    4.000    2.857 
#    2.571    0.000    0.000    6.857    0.000    0.000 
#    0.000    0.000    0.000    0.000    0.000    0.000 
#
# Total GULP energy -156071.290724 kJ/mol
# GULP energy per Si atom -5573.974669 kJ/mol
# Density = 2.101335 g / cm^3
# Si number density = 21.061286 Si / 1000 Ang^3
#
#
#
# Elastic Constant Matrix: (Units=GPa)
#
#
# Indices 1 2 3 4 5 6 
#
# 1 64.1621 53.7841 13.2073 -0.0014 0.0006 0.0001
# 2 53.7841 113.3500 36.1301 0.0011 -0.0012 -0.0012
# 3 13.2073 36.1301 95.8940 0.0007 -0.0037 -0.0002
# 4 -0.0014 0.0011 0.0007 12.5757 -0.0022 0.0004
# 5 0.0006 -0.0012 -0.0037 -0.0022 9.1829 0.0022
# 6 0.0001 -0.0012 -0.0002 0.0004 0.0022 17.0548
#
#
#
# Elastic Compliance Matrix: (Units=1/GPa)
#
#
# Indices 1 2 3 4 5 6 
#
# 1 0.026002 -0.012725 0.001213 0.000004 -0.000003 -0.000001
# 2 -0.012725 0.016253 -0.004371 -0.000003 0.000001 0.000001
# 3 0.001213 -0.004371 0.011908 0.000000 0.000004 0.000000
# 4 0.000004 -0.000003 0.000000 0.079518 0.000019 -0.000002
# 5 -0.000003 0.000001 0.000004 0.000019 0.108898 -0.000014
# 6 -0.000001 0.000001 0.000000 -0.000002 -0.000014 0.058635
#
#
# Mechanical properties :
#
#
# Convention : Reuss Voigt Hill
#
# Bulk Modulus (GPa) = 44.64684 53.29434 48.97059
# Shear Modulus (GPa) = 14.68659 19.11498 16.90079
#
# Velocity S-wave (km/s) = 2.64356 3.01589 2.83584
# Velocity P-wave (km/s) = 5.52833 6.12265 5.83306
#
# Compressibility (1/GPa) = 0.02239800
#
# Stress axis : x y z
#
# Youngs Moduli (GPa) = 38.45819 61.52587 83.97660
#
# Poissons Ratio (x) = 0.78289 -0.10187
# Poissons Ratio (y) = 0.48937 0.36708
# Poissons Ratio (z) = -0.04665 0.26894
#
# Static dielectric constant tensor:
#      x y z
#    x 1.835790 0.000000 0.000000 
#    y 0.000000 1.802440 -0.000010 
#    z 0.000000 -0.000010 1.838200 
# 
# From -- ./inp_files/13133.got.cif
#   From: 2010.05.17/outbox.cif.g08.bks.cpg/sg24_7_cif.got.tgz:13133.got - 2010.06.04 00:33:39.
