data_PCOD9334383
_publ_section_title
;
Structure prediction by ZEFSAII (Michael W. Deem and Ramdas Pophale) SiO2 
 PCOD9334383
Probable space group: I 21 21 21
;
_chemical_formula_sum "Si O2"
_cell_formula_units_Z 60
_cell_length_a 11.866916
_cell_length_b 14.287891
_cell_length_c 14.711103
_cell_angle_alpha 90.000000
_cell_angle_beta 90.000000
_cell_angle_gamma 90.000000
_cell_volume 2494.314623
_symmetry_space_group_name_H-M "I 21 21 21"
_symmetry_group_IT_number 24
_symmetry_cell_setting 'orthorhombic'
loop_
_space_group_symop_operation_xyz
x,y,z
-x,1/2-y,z
x,-y,1/2-z
1/2-x,y,-z
1/2+x,1/2+y,1/2+z
1/2-x,-y,1/2+z
1/2+x,1/2-y,-z
-x,1/2+y,1/2-z
loop_
_atom_site_type_symbol
_atom_site_label
_atom_site_fract_x
_atom_site_fract_y
_atom_site_fract_z
Si Si1 0.049067 0.595850 0.735638
Si Si2 0.296696 0.894217 0.240669
Si Si3 0.964879 0.145391 0.952302
Si Si4 0.429044 0.392074 0.645635
Si Si5 0.446043 0.387678 0.851025
Si Si6 0.801006 0.777248 0.857184
Si Si7 0.247190 0.250032 0.901737
Si Si8 0.500000 0.250000 0.502202
O O1 0.115567 0.500000 0.750000
O O2 0.003772 0.583996 0.632507
O O3 0.124834 0.680961 0.771566
O O4 0.929602 0.601047 0.785854
O O5 0.250006 0.824390 0.164780
O O6 0.281450 0.831922 0.331422
O O7 0.253387 0.000000 0.250000
O O8 0.832740 0.160764 0.929338
O O9 0.000000 0.250000 0.929102
O O10 0.009191 0.123484 0.051865
O O11 0.482547 0.375629 0.746541
O O12 0.411172 0.503719 0.639980
O O13 0.305017 0.345928 0.635358
O O14 0.501838 0.341057 0.568017
O O15 0.355931 0.304189 0.864683
O O16 0.889903 0.767110 0.938966
O O17 0.250000 0.201766 0.000000
#
# Coordination Sequence:
#
# PCOD9334383 Si02
#       8
#     8   8   8   8   8   8   8   4
#     4  11  22  34  67 103 141 174 226 287 357 417
#     4  11  21  38  63  93 133 181 227 275 346 417
#     4  11  20  35  62  98 134 171 212 275 347 404
#     4  11  26  47  70 100 135 185 237 285 348 418
#     4  10  24  42  73 101 133 174 234 291 348 408
#     4  12  23  44  68  98 138 184 223 289 355 405
#     4  10  20  38  63  97 131 165 219 286 338 404
#     4  12  28  44  66  96 148 180 228 286 348 432
#
# _framework density 24.054704000000001
#
# number of rings (size 3 to 8) (size 9 to 14) (size 15 to 20)
#    0.000    1.067    5.333    0.400    6.533    2.133 
#    0.000    1.333    5.867    0.000    0.000    0.000 
#    0.000    0.000    0.000    0.000    0.000    0.000 
#
# Total GULP energy -167029.832336 kJ/mol
# GULP energy per Si atom -5567.661078 kJ/mol
# Density = 2.399995 g / cm^3
# Si number density = 24.054704 Si / 1000 Ang^3
#
#
#
# Elastic Constant Matrix: (Units=GPa)
#
#
# Indices 1 2 3 4 5 6 
#
# 1 45.1240 18.6647 19.2051 0.0000 0.0000 0.0000
# 2 18.6647 166.4956 53.4227 0.0000 0.0000 0.0000
# 3 19.2051 53.4227 154.4051 0.0000 0.0000 0.0000
# 4 0.0000 0.0000 0.0000 30.3685 0.0000 0.0000
# 5 0.0000 0.0000 0.0000 0.0000 27.6596 0.0000
# 6 0.0000 0.0000 0.0000 0.0000 0.0000 -17.4123
#
#
#
# Elastic Compliance Matrix: (Units=1/GPa)
#
#
# Indices 1 2 3 4 5 6 
#
# 1 0.023947 -0.001945 -0.002306 0.000000 0.000000 0.000000
# 2 -0.001945 0.006914 -0.002150 0.000000 0.000000 0.000000
# 3 -0.002306 -0.002150 0.007507 0.000000 0.000000 0.000000
# 4 0.000000 0.000000 0.000000 0.032929 0.000000 0.000000
# 5 0.000000 0.000000 0.000000 0.000000 0.036154 0.000000
# 6 0.000000 0.000000 0.000000 0.000000 0.000000 -0.057431
#
#
# Mechanical properties :
#
#
# Convention : Reuss Voigt Hill
#
# Bulk Modulus (GPa) = 39.11326 60.95664 50.03495
# Shear Modulus (GPa) = 70.08297 26.43863 48.26080
#
# Velocity S-wave (km/s) = 5.40352 3.31887 4.48403
# Velocity P-wave (km/s) = 7.43143 6.33107 6.90321
#
# Compressibility (1/GPa) = 0.02556678
#
# Stress axis : x y z
#
# Youngs Moduli (GPa) = 41.75911 144.63103 133.20444
#
# Poissons Ratio (x) = 0.28126 0.30713
# Poissons Ratio (y) = 0.08121 0.28644
# Poissons Ratio (z) = 0.09628 0.31101
#
# Static dielectric constant tensor:
#      x y z
#    x 1.521910 0.000000 0.000000 
#    y 0.000000 2.253670 0.000000 
#    z 0.000000 0.000000 2.250570 
# 
# From -- ./inp_files/26678.got.cif
#   From: 2010.05.17/outbox.cif.g08.bks.cpg/sg24_14_cif.got.tgz:26678.got - 2010.06.04 00:33:39.
