data_PCOD9334313
_publ_section_title
;
Structure prediction by ZEFSAII (Michael W. Deem and Ramdas Pophale) SiO2 
 PCOD9334313
Probable space group: I 21 21 21
;
_chemical_formula_sum "Si O2"
_cell_formula_units_Z 60
_cell_length_a 8.835783
_cell_length_b 16.236290
_cell_length_c 20.792931
_cell_angle_alpha 90.000000
_cell_angle_beta 90.000000
_cell_angle_gamma 90.000000
_cell_volume 2982.960850
_symmetry_space_group_name_H-M "I 21 21 21"
_symmetry_group_IT_number 24
_symmetry_cell_setting 'orthorhombic'
loop_
_space_group_symop_operation_xyz
x,y,z
-x,1/2-y,z
x,-y,1/2-z
1/2-x,y,-z
1/2+x,1/2+y,1/2+z
1/2-x,-y,1/2+z
1/2+x,1/2-y,-z
-x,1/2+y,1/2-z
loop_
_atom_site_type_symbol
_atom_site_label
_atom_site_fract_x
_atom_site_fract_y
_atom_site_fract_z
Si Si1 0.296868 0.885585 0.307547
Si Si2 0.273327 0.879481 0.927383
Si Si3 0.678277 0.034526 0.678752
Si Si4 0.000000 0.250000 0.873679
Si Si5 0.580548 0.669354 0.805595
Si Si6 0.552430 0.448023 0.908827
Si Si7 0.587222 0.889796 0.469165
Si Si8 0.505120 0.524841 0.133759
O O1 0.389589 0.805314 0.330068
O O2 0.209478 0.868902 0.240829
O O3 0.166246 0.906279 0.359013
O O4 0.410102 0.963702 0.315708
O O5 0.350412 0.817818 0.876714
O O6 0.372875 0.964461 0.929800
O O7 0.118163 0.907290 0.893374
O O8 0.250000 0.849946 0.000000
O O9 0.554072 0.105154 0.684024
O O10 0.691054 0.000000 0.750000
O O11 0.603163 0.969558 0.628874
O O12 0.846396 0.059431 0.658470
O O13 0.915224 0.187845 0.921957
O O14 0.500000 0.750000 0.777824
O O15 0.525938 0.390328 0.970138
O O16 0.750000 0.901868 0.500000
O O17 0.535884 0.965851 0.425737
#
# Coordination Sequence:
#
# PCOD9334313 Si02
#       8
#     8   8   8   4   8   8   8   8
#     4  10  23  43  62  91 133 177 216 265 323 391
#     4  10  21  41  69  95 123 165 213 274 332 379
#     4  11  22  40  66  99 123 166 226 275 319 380
#     4  10  26  36  58  92 140 176 214 252 328 398
#     4  11  26  46  67  91 132 176 216 266 344 407
#     4  10  20  37  66  90 129 170 220 262 312 385
#     4  11  21  36  56  97 134 174 212 262 320 384
#     4  10  22  37  66  99 125 162 218 285 309 380
#
# _framework density 20.114242999999998
#
# number of rings (size 3 to 8) (size 9 to 14) (size 15 to 20)
#    0.000    1.600    4.000    0.000    3.733    3.200 
#    0.000    1.333    0.000    0.000    0.000    0.000 
#    0.000    0.000    0.000    0.000    0.000    0.000 
#
# Total GULP energy -167479.826795 kJ/mol
# GULP energy per Si atom -5582.660893 kJ/mol
# Density = 2.006846 g / cm^3
# Si number density = 20.114243 Si / 1000 Ang^3
#
#
#
# Elastic Constant Matrix: (Units=GPa)
#
#
# Indices 1 2 3 4 5 6 
#
# 1 115.1469 11.2408 50.6482 0.0000 0.0000 0.0000
# 2 11.2408 20.1642 11.3318 0.0000 0.0000 0.0000
# 3 50.6482 11.3318 117.8414 0.0000 0.0000 0.0000
# 4 0.0000 0.0000 0.0000 53.9101 0.0000 0.0000
# 5 0.0000 0.0000 0.0000 0.0000 37.0170 0.0000
# 6 0.0000 0.0000 0.0000 0.0000 0.0000 18.3239
#
#
#
# Elastic Compliance Matrix: (Units=1/GPa)
#
#
# Indices 1 2 3 4 5 6 
#
# 1 0.010959 -0.003660 -0.004358 0.000000 0.000000 0.000000
# 2 -0.003660 0.053648 -0.003586 0.000000 0.000000 0.000000
# 3 -0.004358 -0.003586 0.010704 0.000000 0.000000 0.000000
# 4 0.000000 0.000000 0.000000 0.018549 0.000000 0.000000
# 5 0.000000 0.000000 0.000000 0.000000 0.027015 0.000000
# 6 0.000000 0.000000 0.000000 0.000000 0.000000 0.054574
#
#
# Mechanical properties :
#
#
# Convention : Reuss Voigt Hill
#
# Bulk Modulus (GPa) = 19.19271 44.39934 31.79603
# Shear Modulus (GPa) = 23.14555 33.84563 28.49559
#
# Velocity S-wave (km/s) = 3.39588 4.10649 3.76797
# Velocity P-wave (km/s) = 4.99386 6.67876 5.89680
#
# Compressibility (1/GPa) = 0.05210311
#
# Stress axis : x y z
#
# Youngs Moduli (GPa) = 91.25072 18.63992 93.42363
#
# Poissons Ratio (x) = 0.06822 0.40715
# Poissons Ratio (y) = 0.33398 0.33500
# Poissons Ratio (z) = 0.39768 0.06684
#
# Static dielectric constant tensor:
#      x y z
#    x 1.074270 0.000000 0.000000 
#    y 0.000000 1.766030 0.000000 
#    z 0.000000 0.000000 1.722370 
# 
# From -- ./inp_files/14466.got.cif
#   From: 2010.05.17/outbox.cif.g08.bks.cpg/sg24_8_cif.got.tgz:14466.got - 2010.06.04 00:33:39.
