data_PCOD9334843
_publ_section_title
;
Structure prediction by ZEFSAII (Michael W. Deem and Ramdas Pophale) SiO2 
 PCOD9334843
Probable space group: I 21 21 21
;
_chemical_formula_sum "Si O2"
_cell_formula_units_Z 44
_cell_length_a 18.040435
_cell_length_b 10.500185
_cell_length_c 10.576963
_cell_angle_alpha 90.000000
_cell_angle_beta 90.000000
_cell_angle_gamma 90.000000
_cell_volume 2003.571942
_symmetry_space_group_name_H-M "I 21 21 21"
_symmetry_group_IT_number 24
_symmetry_cell_setting 'orthorhombic'
loop_
_space_group_symop_operation_xyz
x,y,z
-x,1/2-y,z
x,-y,1/2-z
1/2-x,y,-z
1/2+x,1/2+y,1/2+z
1/2-x,-y,1/2+z
1/2+x,1/2-y,-z
-x,1/2+y,1/2-z
loop_
_atom_site_type_symbol
_atom_site_label
_atom_site_fract_x
_atom_site_fract_y
_atom_site_fract_z
Si Si1 0.861931 0.892237 0.405824
Si Si2 0.196188 0.363286 0.809286
Si Si3 0.500000 0.750000 0.552687
Si Si4 0.541145 0.501856 0.394431
Si Si5 0.438376 0.340104 0.572961
Si Si6 0.325030 0.831211 0.077183
O O1 0.784079 0.867126 0.339106
O O2 0.845744 0.864138 0.555554
O O3 0.928269 0.797699 0.371659
O O4 0.894345 0.033756 0.381145
O O5 0.176549 0.500000 0.750000
O O6 0.182259 0.250220 0.707929
O O7 0.526229 0.633490 0.464744
O O8 0.518686 0.500000 0.250000
O O9 0.489833 0.399289 0.463210
O O10 0.626465 0.457441 0.401369
O O11 0.500000 0.250000 0.640092
O O12 0.373956 0.254198 0.516668
O O13 0.250000 0.855999 0.000000
#
# Coordination Sequence:
#
# PCOD9334843 Si02
#       6
#     8   8   4   8   8   8
#     4  10  21  37  61  92 119 164 203 253 306 366
#     4  11  21  35  62  95 126 157 206 252 308 371
#     4  10  22  40  62  82 124 160 206 250 302 372
#     4  10  22  36  61  92 120 157 202 259 314 358
#     4   9  19  33  58  90 122 151 202 254 310 355
#     4  11  22  39  60  93 126 161 199 252 313 370
#
# _framework density 21.960777
#
# number of rings (size 3 to 8) (size 9 to 14) (size 15 to 20)
#    0.000    1.818    1.818    2.182    8.909    0.000 
#    6.545    0.000   20.000    0.000    0.000    0.000 
#    0.000    0.000    0.000    0.000    0.000    0.000 
#
# Total GULP energy -122866.783813 kJ/mol
# GULP energy per Si atom -5584.853810 kJ/mol
# Density = 2.191079 g / cm^3
# Si number density = 21.960777 Si / 1000 Ang^3
#
#
#
# Elastic Constant Matrix: (Units=GPa)
#
#
# Indices 1 2 3 4 5 6 
#
# 1 162.0231 45.4501 41.1492 0.0000 0.0000 0.0000
# 2 45.4501 72.5657 10.2395 0.0000 0.0000 0.0000
# 3 41.1492 10.2395 81.8545 0.0000 0.0000 0.0000
# 4 0.0000 0.0000 0.0000 -15.4440 0.0000 0.0000
# 5 0.0000 0.0000 0.0000 0.0000 28.5602 0.0000
# 6 0.0000 0.0000 0.0000 0.0000 0.0000 157.1357
#
#
#
# Elastic Compliance Matrix: (Units=1/GPa)
#
#
# Indices 1 2 3 4 5 6 
#
# 1 0.008435 -0.004769 -0.003644 0.000000 0.000000 0.000000
# 2 -0.004769 0.016725 0.000305 0.000000 0.000000 0.000000
# 3 -0.003644 0.000305 0.014010 0.000000 0.000000 0.000000
# 4 0.000000 0.000000 0.000000 -0.064750 0.000000 0.000000
# 5 0.000000 0.000000 0.000000 0.000000 0.035014 0.000000
# 6 0.000000 0.000000 0.000000 0.000000 0.000000 0.006364
#
#
# Mechanical properties :
#
#
# Convention : Reuss Voigt Hill
#
# Bulk Modulus (GPa) = 43.56364 56.68010 50.12187
# Shear Modulus (GPa) = 126.05646 48.69066 87.37356
#
# Velocity S-wave (km/s) = 7.58455 4.71379 6.31447
# Velocity P-wave (km/s) = 9.82754 7.44930 8.71988
#
# Compressibility (1/GPa) = 0.02295492
#
# Stress axis : x y z
#
# Youngs Moduli (GPa) = 118.55080 59.79236 71.37537
#
# Poissons Ratio (x) = 0.28515 0.26008
# Poissons Ratio (y) = 0.56537 -0.02179
# Poissons Ratio (z) = 0.43199 -0.01826
#
# Static dielectric constant tensor:
#      x y z
#    x 1.841790 0.000000 0.000000 
#    y 0.000000 1.795490 0.000000 
#    z 0.000000 0.000000 1.799410 
# 
# From -- ./inp_files/21464.got.cif
#   From: 2010.05.17/outbox.cif.g08.bks.cpg/sg24_11_cif.got.tgz:21464.got - 2010.06.04 00:33:39.
