data_PCOD9334252
_publ_section_title
;
Structure prediction by ZEFSAII (Michael W. Deem and Ramdas Pophale) SiO2 
 PCOD9334252
Probable space group: I 21 21 21
;
_chemical_formula_sum "Si O2"
_cell_formula_units_Z 60
_cell_length_a 8.409329
_cell_length_b 17.848367
_cell_length_c 19.850486
_cell_angle_alpha 90.000000
_cell_angle_beta 90.000000
_cell_angle_gamma 90.000000
_cell_volume 2979.414831
_symmetry_space_group_name_H-M "I 21 21 21"
_symmetry_group_IT_number 24
_symmetry_cell_setting 'orthorhombic'
loop_
_space_group_symop_operation_xyz
x,y,z
-x,1/2-y,z
x,-y,1/2-z
1/2-x,y,-z
1/2+x,1/2+y,1/2+z
1/2-x,-y,1/2+z
1/2+x,1/2-y,-z
-x,1/2+y,1/2-z
loop_
_atom_site_type_symbol
_atom_site_label
_atom_site_fract_x
_atom_site_fract_y
_atom_site_fract_z
Si Si1 0.500000 0.750000 0.396298
Si Si2 0.574898 0.402250 0.034236
Si Si3 0.245247 0.218732 0.779554
Si Si4 0.925920 0.029331 0.094765
Si Si5 0.236520 0.040402 0.580957
Si Si6 0.951021 0.867140 0.281678
Si Si7 0.545943 0.672385 0.150724
Si Si8 0.283217 0.446998 0.310357
O O1 0.496526 0.673626 0.438992
O O2 0.647971 0.735013 0.346914
O O3 0.622592 0.466780 0.088312
O O4 0.750000 0.384893 0.000000
O O5 0.457097 0.439850 0.979861
O O6 0.354198 0.291230 0.770054
O O7 0.363405 0.148779 0.782045
O O8 0.133225 0.202281 0.717166
O O9 0.916920 0.099037 0.145422
O O10 0.770878 0.983912 0.119003
O O11 0.088245 0.981442 0.107010
O O12 0.250000 0.050524 0.500000
O O13 0.160698 0.114381 0.612334
O O14 0.880834 0.920791 0.224898
O O15 0.500000 0.750000 0.112871
O O16 0.396588 0.622233 0.173588
O O17 0.353874 0.500000 0.250000
#
# Coordination Sequence:
#
# PCOD9334252 Si02
#       8
#     4   8   8   8   8   8   8   8
#     4  12  22  38  62  98 132 170 218 264 324 380
#     4   9  21  40  61  89 129 173 216 264 319 391
#     4  11  22  36  59  89 131 163 204 261 317 381
#     4   9  19  39  61  87 121 164 220 258 312 385
#     4   9  21  44  66  88 122 168 216 260 318 389
#     4  10  20  37  59  89 124 166 206 262 321 377
#     4  12  23  42  63  92 128 161 207 269 324 376
#     4  10  21  37  61  93 124 161 216 268 319 373
#
# _framework density 20.138182
#
# number of rings (size 3 to 8) (size 9 to 14) (size 15 to 20)
#    0.000    2.133    2.000    2.400    0.000    6.400 
#    0.000    8.000    0.000    0.000    0.000    0.000 
#    0.000    0.000    0.000    0.000    0.000    0.000 
#
# Total GULP energy -167225.105121 kJ/mol
# GULP energy per Si atom -5574.170171 kJ/mol
# Density = 2.009235 g / cm^3
# Si number density = 20.138182 Si / 1000 Ang^3
#
#
#
# Elastic Constant Matrix: (Units=GPa)
#
#
# Indices 1 2 3 4 5 6 
#
# 1 82.6837 45.4915 27.6033 0.0000 0.0000 0.0000
# 2 45.4915 136.9822 40.2428 0.0000 0.0000 0.0000
# 3 27.6033 40.2428 62.3708 0.0000 0.0000 0.0000
# 4 0.0000 0.0000 0.0000 39.3747 0.0000 0.0000
# 5 0.0000 0.0000 0.0000 0.0000 3.7075 0.0000
# 6 0.0000 0.0000 0.0000 0.0000 0.0000 44.3496
#
#
#
# Elastic Compliance Matrix: (Units=1/GPa)
#
#
# Indices 1 2 3 4 5 6 
#
# 1 0.015732 -0.003923 -0.004431 0.000000 0.000000 0.000000
# 2 -0.003923 0.009986 -0.004707 0.000000 0.000000 0.000000
# 3 -0.004431 -0.004707 0.021031 0.000000 0.000000 0.000000
# 4 0.000000 0.000000 0.000000 0.025397 0.000000 0.000000
# 5 0.000000 0.000000 0.000000 0.000000 0.269725 0.000000
# 6 0.000000 0.000000 0.000000 0.000000 0.000000 0.022548
#
#
# Mechanical properties :
#
#
# Convention : Reuss Voigt Hill
#
# Bulk Modulus (GPa) = 48.48042 56.52357 52.50199
# Shear Modulus (GPa) = 12.58126 28.73296 20.65711
#
# Velocity S-wave (km/s) = 2.50220 3.78139 3.20624
# Velocity P-wave (km/s) = 5.69861 6.86979 6.31142
#
# Compressibility (1/GPa) = 0.02062689
#
# Stress axis : x y z
#
# Youngs Moduli (GPa) = 63.56523 100.14284 47.54801
#
# Poissons Ratio (x) = 0.39282 0.21071
# Poissons Ratio (y) = 0.24934 0.22381
# Poissons Ratio (z) = 0.28169 0.47137
#
# Static dielectric constant tensor:
#      x y z
#    x 1.743780 0.000000 0.000000 
#    y 0.000000 1.768350 0.000000 
#    z 0.000000 0.000000 1.722360 
# 
# From -- ./inp_files/29706.got.cif
#   From: 2010.05.17/outbox.cif.g08.bks.cpg/sg24_15_cif.got.tgz:29706.got - 2010.06.04 00:33:39.
