data_PCOD9334310
_publ_section_title
;
Structure prediction by ZEFSAII (Michael W. Deem and Ramdas Pophale) SiO2 
 PCOD9334310
Probable space group: I 21 21 21
;
_chemical_formula_sum "Si O2"
_cell_formula_units_Z 64
_cell_length_a 15.809998
_cell_length_b 9.693301
_cell_length_c 16.867814
_cell_angle_alpha 90.000000
_cell_angle_beta 90.000000
_cell_angle_gamma 90.000000
_cell_volume 2585.010534
_symmetry_space_group_name_H-M "I 21 21 21"
_symmetry_group_IT_number 24
_symmetry_cell_setting 'orthorhombic'
loop_
_space_group_symop_operation_xyz
x,y,z
-x,1/2-y,z
x,-y,1/2-z
1/2-x,y,-z
1/2+x,1/2+y,1/2+z
1/2-x,-y,1/2+z
1/2+x,1/2-y,-z
-x,1/2+y,1/2-z
loop_
_atom_site_type_symbol
_atom_site_label
_atom_site_fract_x
_atom_site_fract_y
_atom_site_fract_z
Si Si1 0.348627 0.012109 0.882220
Si Si2 0.403963 0.267600 0.127987
Si Si3 0.140407 0.305509 0.047328
Si Si4 0.836146 0.485480 0.661435
Si Si5 0.093996 0.708576 0.913799
Si Si6 0.780458 0.979625 0.635396
Si Si7 0.478557 0.394801 0.808288
Si Si8 0.325365 0.700768 0.934362
O O1 0.345235 0.142270 0.941385
O O2 0.434939 0.033568 0.835113
O O3 0.262697 0.019608 0.833284
O O4 0.343113 0.858483 0.915412
O O5 0.500000 0.250000 0.157687
O O6 0.332333 0.352128 0.178639
O O7 0.375698 0.111651 0.114950
O O8 0.397397 0.333600 0.039497
O O9 0.225291 0.385317 0.074528
O O10 0.074276 0.353193 0.114598
O O11 0.872538 0.500000 0.750000
O O12 0.853197 0.343596 0.615097
O O13 0.138433 0.578754 0.873844
O O14 0.000000 0.750000 0.890935
O O15 0.096479 0.665819 0.007585
O O16 0.707491 0.103892 0.637515
O O17 0.500000 0.250000 0.766366
O O18 0.433003 0.500000 0.750000
O O19 0.250000 0.686361 0.000000
#
# Coordination Sequence:
#
# PCOD9334310 Si02
#       8
#     8   8   8   8   8   8   8   8
#     4  11  21  41  69  94 135 180 228 274 340 425
#     4  12  24  42  69 101 132 173 232 297 352 400
#     4  11  23  42  68 103 136 175 234 289 349 412
#     4  12  26  43  66  93 130 190 237 272 341 424
#     4  11  23  42  65  96 136 171 224 289 345 408
#     4  11  23  40  66 101 138 167 217 293 350 408
#     4  10  24  44  65  99 142 181 222 279 339 431
#     4  10  20  37  65  98 129 171 222 279 351 400
#
# _framework density 24.758118
#
# number of rings (size 3 to 8) (size 9 to 14) (size 15 to 20)
#    0.000    1.000    3.750    5.625    0.000    3.500 
#    4.500    0.625    0.000    0.000    0.000    0.000 
#    0.000    0.000    0.000    0.000    0.000    0.000 
#
# Total GULP energy -178143.173238 kJ/mol
# GULP energy per Si atom -5566.974164 kJ/mol
# Density = 2.470177 g / cm^3
# Si number density = 24.758118 Si / 1000 Ang^3
#
#
#
# Elastic Constant Matrix: (Units=GPa)
#
#
# Indices 1 2 3 4 5 6 
#
# 1 118.1185 18.1693 17.2522 0.0000 0.0000 0.0000
# 2 18.1693 162.0386 20.5874 0.0000 0.0000 0.0000
# 3 17.2522 20.5874 64.8623 0.0000 0.0000 0.0000
# 4 0.0000 0.0000 0.0000 18.7728 0.0000 0.0000
# 5 0.0000 0.0000 0.0000 0.0000 1.6379 0.0000
# 6 0.0000 0.0000 0.0000 0.0000 0.0000 34.4330
#
#
#
# Elastic Compliance Matrix: (Units=1/GPa)
#
#
# Indices 1 2 3 4 5 6 
#
# 1 0.008889 -0.000726 -0.002134 0.000000 0.000000 0.000000
# 2 -0.000726 0.006490 -0.001867 0.000000 0.000000 0.000000
# 3 -0.002134 -0.001867 0.016577 0.000000 0.000000 0.000000
# 4 0.000000 0.000000 0.000000 0.053269 0.000000 0.000000
# 5 0.000000 0.000000 0.000000 0.000000 0.610543 0.000000
# 6 0.000000 0.000000 0.000000 0.000000 0.000000 0.029042
#
#
# Mechanical properties :
#
#
# Convention : Reuss Voigt Hill
#
# Bulk Modulus (GPa) = 44.43748 50.78191 47.60969
# Shear Modulus (GPa) = 6.74069 30.23610 18.48839
#
# Velocity S-wave (km/s) = 1.65183 3.49844 2.73566
# Velocity P-wave (km/s) = 4.65034 6.07244 5.40834
#
# Compressibility (1/GPa) = 0.02250353
#
# Stress axis : x y z
#
# Youngs Moduli (GPa) = 112.49360 154.08490 60.32281
#
# Poissons Ratio (x) = 0.11181 0.12874
# Poissons Ratio (y) = 0.08163 0.11262
# Poissons Ratio (z) = 0.24007 0.28766
#
# Static dielectric constant tensor:
#      x y z
#    x 2.028490 0.000000 0.000000 
#    y 0.000000 1.976790 0.000000 
#    z 0.000000 0.000000 2.084510 
# 
# From -- ./inp_files/34013.got.cif
#   From: 2010.05.17/outbox.cif.g08.bks.cpg/sg24_18_cif.got.tgz:34013.got - 2010.06.04 00:33:39.
