data_PCOD9334139
_publ_section_title
;
Structure prediction by ZEFSAII (Michael W. Deem and Ramdas Pophale) SiO2 
 PCOD9334139
Probable space group: I 21 21 21
;
_chemical_formula_sum "Si O2"
_cell_formula_units_Z 56
_cell_length_a 8.650812
_cell_length_b 25.892154
_cell_length_c 13.550641
_cell_angle_alpha 90.000000
_cell_angle_beta 90.000000
_cell_angle_gamma 90.000000
_cell_volume 3035.183097
_symmetry_space_group_name_H-M "I 21 21 21"
_symmetry_group_IT_number 24
_symmetry_cell_setting 'orthorhombic'
loop_
_space_group_symop_operation_xyz
x,y,z
-x,1/2-y,z
x,-y,1/2-z
1/2-x,y,-z
1/2+x,1/2+y,1/2+z
1/2-x,-y,1/2+z
1/2+x,1/2-y,-z
-x,1/2+y,1/2-z
loop_
_atom_site_type_symbol
_atom_site_label
_atom_site_fract_x
_atom_site_fract_y
_atom_site_fract_z
Si Si1 0.073516 0.009821 0.134386
Si Si2 0.564446 0.898890 0.106253
Si Si3 0.935619 0.880600 0.668975
Si Si4 0.434681 0.192309 1.000000
Si Si5 0.064445 0.601110 0.106253
Si Si6 0.564381 0.880600 0.668975
Si Si7 0.426485 0.009821 0.134386
O O1 0.250000 0.012838 0.099471
O O2 0.987035 0.064061 0.123975
O O3 0.082287 0.000000 0.250000
O O4 0.985040 0.958809 0.100521
O O5 0.511914 0.878587 0.214821
O O6 0.750000 0.895680 0.108589
O O7 0.514960 0.958809 0.100521
O O8 0.512025 0.875217 0.000000
O O9 0.750000 0.877380 0.667583
O O10 0.005964 0.837533 0.597651
O O11 0.987034 0.935939 0.623975
O O12 0.500000 0.250000 1.000000
O O13 0.250000 0.192536 0.000000
O O14 0.494036 0.162467 0.902348
O O15 0.011914 0.621413 0.214821
O O16 0.417714 0.000000 0.250000
#
# Coordination Sequence:
#
# PCOD9334139 Si02
#       7
#     8   8   8   8   8   8   8
#     4   9  17  29  46  73 110 151 191 227 265 315
#     4   9  18  32  52  80 115 153 188 222 266 327
#     4  10  20  36  57  80 109 146 186 229 279 331
#     4  12  26  44  64  84 106 136 182 238 291 338
#     4   9  18  32  52  80 115 153 188 222 266 327
#     4  10  20  36  57  80 109 146 186 229 279 331
#     4   9  17  29  46  73 110 151 191 227 265 315
#
# _framework density 18.450288
#
# number of rings (size 3 to 8) (size 9 to 14) (size 15 to 20)
#    0.000    2.286    0.000    3.000    2.000    5.143 
#    0.000    0.000    0.000    0.857    0.000    0.000 
#    0.000    0.000    0.000    0.000    0.000    0.000 
#
# Total GULP energy -155922.081842 kJ/mol
# GULP energy per Si atom -5568.645780 kJ/mol
# Density = 1.840829 g / cm^3
# Si number density = 18.450288 Si / 1000 Ang^3
#
#
#
# Elastic Constant Matrix: (Units=GPa)
#
#
# Indices 1 2 3 4 5 6 
#
# 1 50.4452 35.7102 29.6162 0.0000 0.0000 0.0000
# 2 35.7102 105.9560 64.5387 0.0000 0.0000 0.0000
# 3 29.6162 64.5387 200.4675 0.0000 0.0000 0.0000
# 4 0.0000 0.0000 0.0000 26.3952 0.0000 0.0000
# 5 0.0000 0.0000 0.0000 0.0000 -8.8691 0.0000
# 6 0.0000 0.0000 0.0000 0.0000 0.0000 25.8190
#
#
#
# Elastic Compliance Matrix: (Units=1/GPa)
#
#
# Indices 1 2 3 4 5 6 
#
# 1 0.026298 -0.008081 -0.001283 0.000000 0.000000 0.000000
# 2 -0.008081 0.014224 -0.003385 0.000000 0.000000 0.000000
# 3 -0.001283 -0.003385 0.006268 0.000000 0.000000 0.000000
# 4 0.000000 0.000000 0.000000 0.037886 0.000000 0.000000
# 5 0.000000 0.000000 0.000000 0.000000 -0.112752 0.000000
# 6 0.000000 0.000000 0.000000 0.000000 0.000000 0.038731
#
#
# Mechanical properties :
#
#
# Convention : Reuss Voigt Hill
#
# Bulk Modulus (GPa) = 46.97245 68.51098 57.74172
# Shear Modulus (GPa) = 115.60575 23.80262 69.70419
#
# Velocity S-wave (km/s) = 7.92427 3.59569 6.15317
# Velocity P-wave (km/s) = 10.45177 7.37916 9.04686
#
# Compressibility (1/GPa) = 0.02128908
#
# Stress axis : x y z
#
# Youngs Moduli (GPa) = 38.02607 70.30617 159.54601
#
# Poissons Ratio (x) = 0.56817 0.20476
# Poissons Ratio (y) = 0.30730 0.54010
# Poissons Ratio (z) = 0.04880 0.23800
#
# Static dielectric constant tensor:
#      x y z
#    x 1.626670 0.000000 0.000000 
#    y 0.000000 1.585730 0.000000 
#    z 0.000000 0.000000 1.736860 
# 
# From -- ./inp_files/25053.got.cif
#   From: 2010.05.17/outbox.cif.g08.bks.cpg/sg24_13_cif.got.tgz:25053.got - 2010.06.04 00:33:39.
