data_PCOD9334470
_publ_section_title
;
Structure prediction by ZEFSAII (Michael W. Deem and Ramdas Pophale) SiO2 
 PCOD9334470
Probable space group: I 21 21 21
;
_chemical_formula_sum "Si O2"
_cell_formula_units_Z 64
_cell_length_a 9.046368
_cell_length_b 18.801384
_cell_length_c 19.499080
_cell_angle_alpha 90.000000
_cell_angle_beta 90.000000
_cell_angle_gamma 90.000000
_cell_volume 3316.486175
_symmetry_space_group_name_H-M "I 21 21 21"
_symmetry_group_IT_number 24
_symmetry_cell_setting 'orthorhombic'
loop_
_space_group_symop_operation_xyz
x,y,z
-x,1/2-y,z
x,-y,1/2-z
1/2-x,y,-z
1/2+x,1/2+y,1/2+z
1/2-x,-y,1/2+z
1/2+x,1/2-y,-z
-x,1/2+y,1/2-z
loop_
_atom_site_type_symbol
_atom_site_label
_atom_site_fract_x
_atom_site_fract_y
_atom_site_fract_z
Si Si1 0.343556 0.837825 0.693562
Si Si2 0.373014 0.195554 0.659035
Si Si3 0.805452 0.068763 0.073040
Si Si4 0.864497 0.198656 0.669310
Si Si5 0.164436 0.063516 0.070161
Si Si6 0.303887 0.674814 0.690632
Si Si7 0.145458 0.582134 0.942897
Si Si8 0.620627 0.408535 0.542495
O O1 0.304536 0.843368 0.774181
O O2 0.286405 0.893199 0.637473
O O3 0.298709 0.758171 0.670722
O O4 0.521998 0.842948 0.696697
O O5 0.500000 0.250000 0.683065
O O6 0.247785 0.247722 0.631016
O O7 0.434543 0.142129 0.602717
O O8 0.750087 0.119731 0.133561
O O9 0.984667 0.070108 0.068953
O O10 0.734439 0.989310 0.079552
O O11 0.750000 0.096172 0.000000
O O12 0.783129 0.170539 0.737796
O O13 0.895255 0.133146 0.619374
O O14 0.000000 0.250000 0.687880
O O15 0.189377 0.979161 0.076169
O O16 0.250000 0.085923 0.000000
O O17 0.250000 0.618871 0.000000
O O18 0.000470 0.566304 0.987758
O O19 0.750000 0.370949 0.500000
#
# Coordination Sequence:
#
# PCOD9334470 Si02
#       8
#     8   8   8   8   8   8   8   8
#     4   9  18  38  63  86 116 152 199 248 290 365
#     4  11  21  38  61  84 114 156 206 251 301 367
#     4  10  20  39  61  86 120 154 196 246 297 372
#     4  11  23  39  57  87 125 159 201 259 309 360
#     4  10  21  38  61  88 119 153 194 248 307 358
#     4   9  19  38  61  86 117 156 197 242 300 359
#     4  11  22  38  58  87 123 157 204 254 308 365
#     4  11  23  38  57  85 118 158 201 250 302 365
#
# _framework density 19.297533000000001
#
# number of rings (size 3 to 8) (size 9 to 14) (size 15 to 20)
#    0.000    1.750    5.000    1.500    0.000    4.500 
#    4.500    2.500    0.000    4.500    0.000    0.000 
#    0.000    0.000    0.000    0.000    0.000    0.000 
#
# Total GULP energy -178195.307907 kJ/mol
# GULP energy per Si atom -5568.603372 kJ/mol
# Density = 1.925361 g / cm^3
# Si number density = 19.297533 Si / 1000 Ang^3
#
#
#
# Elastic Constant Matrix: (Units=GPa)
#
#
# Indices 1 2 3 4 5 6 
#
# 1 46.3228 19.3230 19.3022 0.0000 0.0000 0.0000
# 2 19.3230 81.7818 85.6895 0.0000 0.0000 0.0000
# 3 19.3022 85.6895 128.3258 0.0000 0.0000 0.0000
# 4 0.0000 0.0000 0.0000 32.3686 0.0000 0.0000
# 5 0.0000 0.0000 0.0000 0.0000 25.6609 0.0000
# 6 0.0000 0.0000 0.0000 0.0000 0.0000 13.7008
#
#
#
# Elastic Compliance Matrix: (Units=1/GPa)
#
#
# Indices 1 2 3 4 5 6 
#
# 1 0.023961 -0.006276 0.000587 0.000000 0.000000 0.000000
# 2 -0.006276 0.042356 -0.027339 0.000000 0.000000 0.000000
# 3 0.000587 -0.027339 0.025960 0.000000 0.000000 0.000000
# 4 0.000000 0.000000 0.000000 0.030894 0.000000 0.000000
# 5 0.000000 0.000000 0.000000 0.000000 0.038970 0.000000
# 6 0.000000 0.000000 0.000000 0.000000 0.000000 0.072988
#
#
# Mechanical properties :
#
#
# Convention : Reuss Voigt Hill
#
# Bulk Modulus (GPa) = 38.13873 56.11777 47.12825
# Shear Modulus (GPa) = 16.13282 23.15378 19.64330
#
# Velocity S-wave (km/s) = 2.89451 3.46762 3.19394
# Velocity P-wave (km/s) = 5.56573 6.72130 6.17063
#
# Compressibility (1/GPa) = 0.02622007
#
# Stress axis : x y z
#
# Youngs Moduli (GPa) = 41.73413 23.60933 38.52064
#
# Poissons Ratio (x) = 0.14818 -0.02261
# Poissons Ratio (y) = 0.26194 1.05312
# Poissons Ratio (z) = -0.02449 0.64546
#
# Static dielectric constant tensor:
#      x y z
#    x 1.747320 0.000000 0.000000 
#    y 0.000000 1.674130 0.000000 
#    z 0.000000 0.000000 1.683560 
# 
# From -- ./inp_files/29830.got.cif
#   From: 2010.05.17/outbox.cif.g08.bks.cpg/sg24_15_cif.got.tgz:29830.got - 2010.06.04 00:33:39.
