data_PCOD9334852
_publ_section_title
;
Structure prediction by ZEFSAII (Michael W. Deem and Ramdas Pophale) SiO2 
 PCOD9334852
Probable space group: I 21 21 21
;
_chemical_formula_sum "Si O2"
_cell_formula_units_Z 44
_cell_length_a 14.237116
_cell_length_b 18.461689
_cell_length_c 7.797434
_cell_angle_alpha 90.000000
_cell_angle_beta 90.000000
_cell_angle_gamma 90.000000
_cell_volume 2049.486971
_symmetry_space_group_name_H-M "I 21 21 21"
_symmetry_group_IT_number 24
_symmetry_cell_setting 'orthorhombic'
loop_
_space_group_symop_operation_xyz
x,y,z
-x,1/2-y,z
x,-y,1/2-z
1/2-x,y,-z
1/2+x,1/2+y,1/2+z
1/2-x,-y,1/2+z
1/2+x,1/2-y,-z
-x,1/2+y,1/2-z
loop_
_atom_site_type_symbol
_atom_site_label
_atom_site_fract_x
_atom_site_fract_y
_atom_site_fract_z
Si Si1 0.382988 0.000000 0.750000
Si Si2 0.750000 0.421219 0.500000
Si Si3 0.034863 0.614280 0.339162
Si Si4 0.205465 0.188226 0.814877
Si Si5 0.332580 0.543254 0.402783
Si Si6 0.783816 0.836398 0.192508
Si Si7 0.000000 0.250000 0.917088
O O1 0.324311 0.975507 0.914420
O O2 0.444113 0.928162 0.716582
O O3 0.786440 0.370429 0.659582
O O4 0.091891 0.559335 0.457373
O O5 0.108572 0.637811 0.195229
O O6 0.021321 0.682775 0.460237
O O7 0.271903 0.256036 0.766362
O O8 0.098186 0.222500 0.825837
O O9 0.250000 0.162866 0.000000
O O10 0.376986 0.500000 0.250000
O O11 0.250000 0.500335 0.500000
O O12 0.278856 0.611612 0.316277
O O13 0.750000 0.835846 0.000000
#
# Coordination Sequence:
#
# PCOD9334852 Si02
#       7
#     4   4   8   8   8   8   4
#     4  12  32  54  74 110 150 216 268 314 396 464
#     4  12  32  56  78 106 158 210 262 328 382 470
#     4  11  26  45  72 109 148 196 256 321 378 469
#     4  12  24  50  79 117 152 195 257 328 396 455
#     4  10  21  37  63 103 149 198 229 295 382 458
#     4  11  22  41  73 113 157 193 240 311 400 462
#     4  12  24  44  82 108 146 200 258 322 394 464
#
# _framework density 21.468786999999999
#
# number of rings (size 3 to 8) (size 9 to 14) (size 15 to 20)
#    0.000    0.727    4.545    2.182   11.455    2.909 
#    0.000    0.000    0.000    0.000    0.000    0.000 
#    0.000    0.000    0.000    0.000    0.000    0.000 
#
# Total GULP energy -122788.689342 kJ/mol
# GULP energy per Si atom -5581.304061 kJ/mol
# Density = 2.141992 g / cm^3
# Si number density = 21.468787 Si / 1000 Ang^3
#
#
#
# Elastic Constant Matrix: (Units=GPa)
#
#
# Indices 1 2 3 4 5 6 
#
# 1 125.2667 32.6122 54.3208 0.0000 0.0000 0.0000
# 2 32.6122 60.4882 26.1432 0.0000 0.0000 0.0000
# 3 54.3208 26.1432 135.3756 0.0000 0.0000 0.0000
# 4 0.0000 0.0000 0.0000 41.2051 0.0000 0.0000
# 5 0.0000 0.0000 0.0000 0.0000 41.7250 0.0000
# 6 0.0000 0.0000 0.0000 0.0000 0.0000 18.7371
#
#
#
# Elastic Compliance Matrix: (Units=1/GPa)
#
#
# Indices 1 2 3 4 5 6 
#
# 1 0.010566 -0.004216 -0.003426 0.000000 0.000000 0.000000
# 2 -0.004216 0.019720 -0.002116 0.000000 0.000000 0.000000
# 3 -0.003426 -0.002116 0.009170 0.000000 0.000000 0.000000
# 4 0.000000 0.000000 0.000000 0.024269 0.000000 0.000000
# 5 0.000000 0.000000 0.000000 0.000000 0.023966 0.000000
# 6 0.000000 0.000000 0.000000 0.000000 0.000000 0.053370
#
#
# Mechanical properties :
#
#
# Convention : Reuss Voigt Hill
#
# Bulk Modulus (GPa) = 50.15081 60.80923 55.48002
# Shear Modulus (GPa) = 29.89992 34.20374 32.05183
#
# Velocity S-wave (km/s) = 3.73596 3.99580 3.86806
# Velocity P-wave (km/s) = 6.48232 7.04802 6.77108
#
# Compressibility (1/GPa) = 0.01993986
#
# Stress axis : x y z
#
# Youngs Moduli (GPa) = 94.64268 50.70984 109.05003
#
# Poissons Ratio (x) = 0.21380 0.37355
# Poissons Ratio (y) = 0.39903 0.23080
# Poissons Ratio (z) = 0.32420 0.10733
#
# Static dielectric constant tensor:
#      x y z
#    x 1.822570 0.000000 0.000000 
#    y 0.000000 1.593900 0.000000 
#    z 0.000000 0.000000 1.722490 
# 
# From -- ./inp_files/12703.got.cif
#   From: 2010.05.17/outbox.cif.g08.bks.cpg/sg24_7_cif.got.tgz:12703.got - 2010.06.04 00:33:39.
