data_PCOD9334388
_publ_section_title
;
Structure prediction by ZEFSAII (Michael W. Deem and Ramdas Pophale) SiO2 
 PCOD9334388
Probable space group: I 21 21 21
;
_chemical_formula_sum "Si O2"
_cell_formula_units_Z 36
_cell_length_a 17.710812
_cell_length_b 13.337027
_cell_length_c 7.918005
_cell_angle_alpha 90.000000
_cell_angle_beta 90.000000
_cell_angle_gamma 90.000000
_cell_volume 1870.308618
_symmetry_space_group_name_H-M "I 21 21 21"
_symmetry_group_IT_number 24
_symmetry_cell_setting 'orthorhombic'
loop_
_space_group_symop_operation_xyz
x,y,z
-x,1/2-y,z
x,-y,1/2-z
1/2-x,y,-z
1/2+x,1/2+y,1/2+z
1/2-x,-y,1/2+z
1/2+x,1/2-y,-z
-x,1/2+y,1/2-z
loop_
_atom_site_type_symbol
_atom_site_label
_atom_site_fract_x
_atom_site_fract_y
_atom_site_fract_z
Si Si1 0.629581 0.657112 0.164029
Si Si2 0.286483 0.805350 0.671972
Si Si3 0.581373 0.797635 0.879464
Si Si4 0.469549 0.500000 0.750000
Si Si5 0.599506 0.445688 0.992578
O O1 0.717793 0.671525 0.203546
O O2 0.614587 0.559680 0.048899
O O3 0.593436 0.626010 0.343719
O O4 0.598698 0.753719 0.065889
O O5 0.250000 0.760378 0.500000
O O6 0.351259 0.741010 0.760388
O O7 0.329161 0.905398 0.611233
O O8 0.500000 0.750000 0.833430
O O9 0.575360 0.916427 0.854121
O O10 0.525118 0.555694 0.619544
#
# Coordination Sequence:
#
# PCOD9334388 Si02
#       5
#     8   8   8   4   8
#     4  10  22  38  64 100 132 168 213 274 337 396
#     4  10  22  40  63  97 126 170 216 272 336 391
#     4  12  23  42  64  91 135 173 215 269 333 397
#     4  12  24  42  64  98 132 178 216 266 336 398
#     4  10  20  38  64 102 133 161 212 276 341 395
#
# _framework density 19.248159999999999
#
# number of rings (size 3 to 8) (size 9 to 14) (size 15 to 20)
#    0.000    1.333    4.444    0.667    0.000   16.000 
#    8.000    2.222    0.000    0.000    0.000    0.000 
#    0.000    0.000    0.000    0.000    0.000    0.000 
#
# Total GULP energy -100515.702475 kJ/mol
# GULP energy per Si atom -5584.205693 kJ/mol
# Density = 1.920435 g / cm^3
# Si number density = 19.248160 Si / 1000 Ang^3
#
#
#
# Elastic Constant Matrix: (Units=GPa)
#
#
# Indices 1 2 3 4 5 6 
#
# 1 56.6154 26.5518 52.8703 0.0000 0.0000 0.0000
# 2 26.5518 100.3326 56.6768 0.0000 0.0000 0.0000
# 3 52.8703 56.6768 104.3463 0.0000 0.0000 0.0000
# 4 0.0000 0.0000 0.0000 36.0467 0.0000 0.0000
# 5 0.0000 0.0000 0.0000 0.0000 27.3520 0.0000
# 6 0.0000 0.0000 0.0000 0.0000 0.0000 32.6745
#
#
#
# Elastic Compliance Matrix: (Units=1/GPa)
#
#
# Indices 1 2 3 4 5 6 
#
# 1 0.033603 0.001046 -0.017594 0.000000 0.000000 0.000000
# 2 0.001046 0.014411 -0.008358 0.000000 0.000000 0.000000
# 3 -0.017594 -0.008358 0.023038 0.000000 0.000000 0.000000
# 4 0.000000 0.000000 0.000000 0.027742 0.000000 0.000000
# 5 0.000000 0.000000 0.000000 0.000000 0.036560 0.000000
# 6 0.000000 0.000000 0.000000 0.000000 0.000000 0.030605
#
#
# Mechanical properties :
#
#
# Convention : Reuss Voigt Hill
#
# Bulk Modulus (GPa) = 47.08030 59.27689 53.17860
# Shear Modulus (GPa) = 22.43665 27.56099 24.99882
#
# Velocity S-wave (km/s) = 3.41787 3.78812 3.60775
# Velocity P-wave (km/s) = 6.33155 7.07079 6.71136
#
# Compressibility (1/GPa) = 0.02124031
#
# Stress axis : x y z
#
# Youngs Moduli (GPa) = 29.75957 69.39083 43.40733
#
# Poissons Ratio (x) = -0.07259 0.76371
# Poissons Ratio (y) = -0.03113 0.36278
# Poissons Ratio (z) = 0.52359 0.57994
#
# Static dielectric constant tensor:
#      x y z
#    x 1.656110 0.000000 0.000000 
#    y 0.000000 1.663150 0.000000 
#    z 0.000000 0.000000 1.732190 
# 
# From -- ./inp_files/12223.got.cif
#   From: 2010.05.17/outbox.cif.g08.bks.cpg/sg24_7_cif.got.tgz:12223.got - 2010.06.04 00:33:39.
