data_PCOD9334703
_publ_section_title
;
Structure prediction by ZEFSAII (Michael W. Deem and Ramdas Pophale) SiO2 
 PCOD9334703
Probable space group: I 21 21 21
;
_chemical_formula_sum "Si O2"
_cell_formula_units_Z 32
_cell_length_a 5.170411
_cell_length_b 18.048602
_cell_length_c 15.566253
_cell_angle_alpha 90.000000
_cell_angle_beta 90.000000
_cell_angle_gamma 90.000000
_cell_volume 1452.622343
_symmetry_space_group_name_H-M "I 21 21 21"
_symmetry_group_IT_number 24
_symmetry_cell_setting 'orthorhombic'
loop_
_space_group_symop_operation_xyz
x,y,z
-x,1/2-y,z
x,-y,1/2-z
1/2-x,y,-z
1/2+x,1/2+y,1/2+z
1/2-x,-y,1/2+z
1/2+x,1/2-y,-z
-x,1/2+y,1/2-z
loop_
_atom_site_type_symbol
_atom_site_label
_atom_site_fract_x
_atom_site_fract_y
_atom_site_fract_z
Si Si1 0.408079 0.667795 0.125987
Si Si2 0.250000 0.555661 0.000000
Si Si3 0.354902 0.134406 0.200077
Si Si4 0.500000 0.250000 0.735219
Si Si5 0.342973 0.545895 0.662043
O O1 0.500000 0.750000 0.103794
O O2 0.572751 0.628696 0.199854
O O3 0.133189 0.687403 0.174069
O O4 0.435492 0.614613 0.045758
O O5 0.344063 0.506094 0.921251
O O6 0.615863 0.107736 0.153323
O O7 0.224247 0.216142 0.204364
O O8 0.122167 0.082419 0.171726
O O9 0.291292 0.500000 0.750000
#
# Coordination Sequence:
#
# PCOD9334703 Si02
#       5
#     8   4   8   4   8
#     4  10  23  43  71 110 145 188 239 301 366 434
#     4  12  26  46  68 114 152 196 230 306 356 450
#     4  11  22  45  70 104 136 189 244 289 358 421
#     4  10  20  44  78 104 142 186 242 306 358 432
#     4  12  25  44  69 101 150 195 239 287 358 441
#
# _framework density 22.029123999999999
#
# number of rings (size 3 to 8) (size 9 to 14) (size 15 to 20)
#    0.000    1.000    5.000    0.750    1.750    1.000 
#    9.000    0.000    0.000    3.000    3.250    0.000 
#    0.000    0.000    0.000    0.000    0.000    0.000 
#
# Total GULP energy -89193.460902 kJ/mol
# GULP energy per Si atom -5574.591306 kJ/mol
# Density = 2.197898 g / cm^3
# Si number density = 22.029124 Si / 1000 Ang^3
#
#
#
# Elastic Constant Matrix: (Units=GPa)
#
#
# Indices 1 2 3 4 5 6 
#
# 1 134.4574 37.7005 36.6271 0.0000 0.0000 0.0000
# 2 37.7005 88.0335 79.2826 0.0000 0.0000 0.0000
# 3 36.6271 79.2826 125.7062 0.0000 0.0000 0.0000
# 4 0.0000 0.0000 0.0000 35.2948 0.0000 0.0000
# 5 0.0000 0.0000 0.0000 0.0000 0.2357 0.0000
# 6 0.0000 0.0000 0.0000 0.0000 0.0000 25.3515
#
#
#
# Elastic Compliance Matrix: (Units=1/GPa)
#
#
# Indices 1 2 3 4 5 6 
#
# 1 0.008462 -0.003248 -0.000417 0.000000 0.000000 0.000000
# 2 -0.003248 0.027542 -0.016424 0.000000 0.000000 0.000000
# 3 -0.000417 -0.016424 0.018435 0.000000 0.000000 0.000000
# 4 0.000000 0.000000 0.000000 0.028333 0.000000 0.000000
# 5 0.000000 0.000000 0.000000 0.000000 4.242514 0.000000
# 6 0.000000 0.000000 0.000000 0.000000 0.000000 0.039445
#
#
# Mechanical properties :
#
#
# Convention : Reuss Voigt Hill
#
# Bulk Modulus (GPa) = 70.12530 72.82416 71.47473
# Shear Modulus (GPa) = 1.13387 25.14885 13.14136
#
# Velocity S-wave (km/s) = 0.71822 3.38245 2.44508
# Velocity P-wave (km/s) = 5.70875 6.95590 6.36295
#
# Compressibility (1/GPa) = 0.01426019
#
# Stress axis : x y z
#
# Youngs Moduli (GPa) = 118.18046 36.30812 54.24410
#
# Poissons Ratio (x) = 0.11794 0.02260
# Poissons Ratio (y) = 0.38390 0.89092
# Poissons Ratio (z) = 0.04924 0.59633
#
# Static dielectric constant tensor:
#      x y z
#    x 2.023040 0.000000 0.000000 
#    y 0.000000 1.922210 0.000000 
#    z 0.000000 0.000000 1.768310 
# 
# From -- ./inp_files/23492.got.cif
#   From: 2010.05.17/outbox.cif.g08.bks.cpg/sg24_12_cif.got.tgz:23492.got - 2010.06.04 00:33:39.
