data_PCOD9334758
_publ_section_title
;
Structure prediction by ZEFSAII (Michael W. Deem and Ramdas Pophale) SiO2 
 PCOD9334758
Probable space group: I 21 21 21
;
_chemical_formula_sum "Si O2"
_cell_formula_units_Z 52
_cell_length_a 20.377646
_cell_length_b 15.500978
_cell_length_c 8.842384
_cell_angle_alpha 90.000000
_cell_angle_beta 90.000000
_cell_angle_gamma 90.000000
_cell_volume 2793.074273
_symmetry_space_group_name_H-M "I 21 21 21"
_symmetry_group_IT_number 24
_symmetry_cell_setting 'orthorhombic'
loop_
_space_group_symop_operation_xyz
x,y,z
-x,1/2-y,z
x,-y,1/2-z
1/2-x,y,-z
1/2+x,1/2+y,1/2+z
1/2-x,-y,1/2+z
1/2+x,1/2-y,-z
-x,1/2+y,1/2-z
loop_
_atom_site_type_symbol
_atom_site_label
_atom_site_fract_x
_atom_site_fract_y
_atom_site_fract_z
Si Si1 0.621164 0.841554 0.955906
Si Si2 0.250000 0.227212 0.500000
Si Si3 0.000000 0.750000 0.217794
Si Si4 0.524307 0.847104 0.213645
Si Si5 0.400115 0.500000 0.750000
Si Si6 0.702666 0.434749 0.617334
Si Si7 0.906955 0.466779 0.595635
Si Si8 0.998127 0.603098 0.452493
O O1 0.561829 0.786812 0.876303
O O2 0.635055 0.922816 0.843615
O O3 0.685737 0.786188 0.991490
O O4 0.588640 0.867621 0.116206
O O5 0.260061 0.156863 0.637265
O O6 0.022302 0.826140 0.330055
O O7 0.500000 0.750000 0.187651
O O8 0.467813 0.910250 0.152094
O O9 0.529103 0.859425 0.393514
O O10 0.447995 0.544086 0.627970
O O11 0.688699 0.500000 0.750000
O O12 0.750000 0.484432 0.500000
O O13 0.637977 0.415186 0.519856
O O14 0.872669 0.500000 0.750000
O O15 0.936254 0.547196 0.504722
#
# Coordination Sequence:
#
# PCOD9334758 Si02
#       8
#     8   4   4   8   4   8   8   8
#     4  11  22  40  65  89 126 165 216 259 325 364
#     4  10  26  42  62  88 122 168 212 260 310 388
#     4  10  22  36  62  96 128 158 204 262 304 380
#     4  11  20  36  59  92 124 162 193 252 308 374
#     4  10  22  38  64  88 122 156 212 264 314 368
#     4  10  23  38  59  84 123 164 204 245 308 380
#     4  10  21  35  59  89 121 154 197 246 304 370
#     4  10  21  36  58  98 125 155 201 254 311 372
#
# _framework density 18.617478999999999
#
# number of rings (size 3 to 8) (size 9 to 14) (size 15 to 20)
#    0.462    1.231    3.077    1.385    3.231    0.000 
#    0.000    1.538    0.000    0.000    0.000    0.000 
#    0.000    0.000    0.000    0.000    0.000    0.000 
#
# Total GULP energy -144832.852430 kJ/mol
# GULP energy per Si atom -5570.494324 kJ/mol
# Density = 1.857510 g / cm^3
# Si number density = 18.617479 Si / 1000 Ang^3
#
#
#
# Elastic Constant Matrix: (Units=GPa)
#
#
# Indices 1 2 3 4 5 6 
#
# 1 69.1255 31.1152 40.0481 0.0000 0.0000 0.0000
# 2 31.1152 90.4618 34.2049 0.0000 0.0000 0.0000
# 3 40.0481 34.2049 95.7680 0.0000 0.0000 0.0000
# 4 0.0000 0.0000 0.0000 11.3897 0.0000 0.0000
# 5 0.0000 0.0000 0.0000 0.0000 10.9123 0.0000
# 6 0.0000 0.0000 0.0000 0.0000 0.0000 24.3967
#
#
#
# Elastic Compliance Matrix: (Units=1/GPa)
#
#
# Indices 1 2 3 4 5 6 
#
# 1 0.020506 -0.004406 -0.007002 0.000000 0.000000 0.000000
# 2 -0.004406 0.013727 -0.003060 0.000000 0.000000 0.000000
# 3 -0.007002 -0.003060 0.014463 0.000000 0.000000 0.000000
# 4 0.000000 0.000000 0.000000 0.087798 0.000000 0.000000
# 5 0.000000 0.000000 0.000000 0.000000 0.091640 0.000000
# 6 0.000000 0.000000 0.000000 0.000000 0.000000 0.040989
#
#
# Mechanical properties :
#
#
# Convention : Reuss Voigt Hill
#
# Bulk Modulus (GPa) = 50.60646 51.78795 51.19721
# Shear Modulus (GPa) = 16.41253 19.33889 17.87571
#
# Velocity S-wave (km/s) = 2.97234 3.22646 3.10200
# Velocity P-wave (km/s) = 6.24668 6.46199 6.35524
#
# Compressibility (1/GPa) = 0.01976032
#
# Stress axis : x y z
#
# Youngs Moduli (GPa) = 48.76623 72.84925 69.14263
#
# Poissons Ratio (x) = 0.32096 0.48411
# Poissons Ratio (y) = 0.21486 0.21160
# Poissons Ratio (z) = 0.34144 0.22294
#
# Static dielectric constant tensor:
#      x y z
#    x 1.654730 0.000000 0.000000 
#    y 0.000000 1.725240 0.000000 
#    z 0.000000 0.000000 1.687240 
# 
# From -- ./inp_files/15223.got.cif
#   From: 2010.05.17/outbox.cif.g08.bks.cpg/sg24_8_cif.got.tgz:15223.got - 2010.06.04 00:33:39.
