data_PCOD9334834
_publ_section_title
;
Structure prediction by ZEFSAII (Michael W. Deem and Ramdas Pophale) SiO2 
 PCOD9334834
Probable space group: I 21 21 21
;
_chemical_formula_sum "Si O2"
_cell_formula_units_Z 44
_cell_length_a 14.698675
_cell_length_b 5.296274
_cell_length_c 26.361319
_cell_angle_alpha 90.000000
_cell_angle_beta 90.000000
_cell_angle_gamma 90.000000
_cell_volume 2052.181504
_symmetry_space_group_name_H-M "I 21 21 21"
_symmetry_group_IT_number 24
_symmetry_cell_setting 'orthorhombic'
loop_
_space_group_symop_operation_xyz
x,y,z
-x,1/2-y,z
x,-y,1/2-z
1/2-x,y,-z
1/2+x,1/2+y,1/2+z
1/2-x,-y,1/2+z
1/2+x,1/2-y,-z
-x,1/2+y,1/2-z
loop_
_atom_site_type_symbol
_atom_site_label
_atom_site_fract_x
_atom_site_fract_y
_atom_site_fract_z
Si Si1 0.374248 0.112513 0.654436
Si Si2 0.306247 0.918674 0.339612
Si Si3 0.936751 0.498696 0.933083
Si Si4 0.359926 0.608283 0.693458
Si Si5 0.556069 0.500000 0.250000
Si Si6 0.438790 0.999942 0.953014
O O1 0.410957 0.392621 0.661370
O O2 0.377103 0.018478 0.596658
O O3 0.267836 0.137728 0.669756
O O4 0.407130 0.883267 0.689814
O O5 0.357621 0.964371 0.392096
O O6 0.237842 0.682089 0.331992
O O7 0.381559 0.917549 0.296662
O O8 0.000000 0.250000 0.929163
O O9 0.897606 0.502968 0.990483
O O10 0.000000 0.750000 0.925399
O O11 0.352231 0.500000 0.750000
O O12 0.500000 0.250000 0.264797
O O13 0.500000 0.750000 0.951061
O O14 0.500000 0.250000 0.948916
#
# Coordination Sequence:
#
# PCOD9334834 Si02
#       6
#     8   8   8   8   4   8
#     4  10  22  36  64  88 114 164 196 251 299 361
#     4  10  24  37  61  85 124 155 208 239 291 350
#     4  10  22  38  59  85 122 162 196 251 303 349
#     4  10  21  37  60  87 118 154 198 239 304 349
#     4  12  26  36  58  88 122 164 200 234 284 354
#     4  10  21  41  64  87 119 155 200 250 314 371
#
# _framework density 21.440598000000001
#
# number of rings (size 3 to 8) (size 9 to 14) (size 15 to 20)
#    1.091    0.727    0.000    3.818    6.364    0.727 
#    0.000    0.000    4.000   10.909    0.000    0.000 
#    0.000    0.000    0.000    0.000    0.000    0.000 
#
# Total GULP energy -122610.427639 kJ/mol
# GULP energy per Si atom -5573.201256 kJ/mol
# Density = 2.139180 g / cm^3
# Si number density = 21.440598 Si / 1000 Ang^3
#
#
#
# Elastic Constant Matrix: (Units=GPa)
#
#
# Indices 1 2 3 4 5 6 
#
# 1 53.6441 30.5153 21.5064 0.0000 0.0000 0.0000
# 2 30.5153 178.2972 35.1829 0.0000 0.0000 0.0000
# 3 21.5064 35.1829 130.8096 0.0000 0.0000 0.0000
# 4 0.0000 0.0000 0.0000 27.9402 0.0000 0.0000
# 5 0.0000 0.0000 0.0000 0.0000 -6.5438 0.0000
# 6 0.0000 0.0000 0.0000 0.0000 0.0000 31.2402
#
#
#
# Elastic Compliance Matrix: (Units=1/GPa)
#
#
# Indices 1 2 3 4 5 6 
#
# 1 0.021512 -0.003151 -0.002689 0.000000 0.000000 0.000000
# 2 -0.003151 0.006385 -0.001199 0.000000 0.000000 0.000000
# 3 -0.002689 -0.001199 0.008409 0.000000 0.000000 0.000000
# 4 0.000000 0.000000 0.000000 0.035791 0.000000 0.000000
# 5 0.000000 0.000000 0.000000 0.000000 -0.152817 0.000000
# 6 0.000000 0.000000 0.000000 0.000000 0.000000 0.032010
#
#
# Mechanical properties :
#
#
# Convention : Reuss Voigt Hill
#
# Bulk Modulus (GPa) = 44.99042 59.68447 52.33744
# Shear Modulus (GPa) = -183.67149 28.89708 -77.38721
#
# Velocity S-wave (km/s) = -9.26560 3.67519 -6.01433
# Velocity P-wave (km/s) = 9.66639 6.77546 4.87505
#
# Compressibility (1/GPa) = 0.02222695
#
# Stress axis : x y z
#
# Youngs Moduli (GPa) = 46.48562 156.62841 118.91503
#
# Poissons Ratio (x) = 0.49355 0.31979
# Poissons Ratio (y) = 0.14648 0.14260
# Poissons Ratio (z) = 0.12501 0.18782
#
# Static dielectric constant tensor:
#      x y z
#    x 1.784740 0.000000 0.000000 
#    y 0.000000 1.822610 0.000000 
#    z 0.000000 0.000000 1.794140 
# 
# From -- ./inp_files/35941.got.cif
#   From: 2010.05.17/outbox.cif.g08.bks.cpg/sg24_18_cif.got.tgz:35941.got - 2010.06.04 00:33:39.
