data_PCOD9334392
_publ_section_title
;
Structure prediction by ZEFSAII (Michael W. Deem and Ramdas Pophale) SiO2 
 PCOD9334392
Probable space group: I 21 21 21
;
_chemical_formula_sum "Si O2"
_cell_formula_units_Z 48
_cell_length_a 30.133200
_cell_length_b 8.769574
_cell_length_c 7.558790
_cell_angle_alpha 90.000000
_cell_angle_beta 90.000000
_cell_angle_gamma 90.000000
_cell_volume 1997.450525
_symmetry_space_group_name_H-M "I 21 21 21"
_symmetry_group_IT_number 24
_symmetry_cell_setting 'orthorhombic'
loop_
_space_group_symop_operation_xyz
x,y,z
-x,1/2-y,z
x,-y,1/2-z
1/2-x,y,-z
1/2+x,1/2+y,1/2+z
1/2-x,-y,1/2+z
1/2+x,1/2-y,-z
-x,1/2+y,1/2-z
loop_
_atom_site_type_symbol
_atom_site_label
_atom_site_fract_x
_atom_site_fract_y
_atom_site_fract_z
Si Si1 0.750000 0.499883 0.500000
Si Si2 0.905582 0.281510 0.635662
Si Si3 0.181435 0.765655 0.343330
Si Si4 0.000000 0.250000 0.008248
Si Si5 0.692991 0.763079 0.076308
Si Si6 0.913499 0.396819 0.029080
Si Si7 0.541762 0.000000 0.250000
Si Si8 0.250000 0.525539 0.500000
O O1 0.787002 0.598507 0.405789
O O2 0.721445 0.384613 0.380336
O O3 0.854175 0.241188 0.663487
O O4 0.919021 0.349266 0.824525
O O5 0.910325 0.417202 0.488467
O O6 0.930954 0.120026 0.626515
O O7 0.182568 0.739939 0.133484
O O8 0.131747 0.817301 0.400548
O O9 0.208236 0.623707 0.429833
O O10 0.957609 0.319935 0.113022
O O11 0.015128 0.391388 0.883665
O O12 0.724748 0.901018 0.121967
#
# Coordination Sequence:
#
# PCOD9334392 Si02
#       8
#     4   8   8   4   8   8   4   4
#     4  10  22  38  60  90 122 166 214 248 308 376
#     4  10  22  37  62  94 124 165 207 261 312 379
#     4  11  23  42  64  89 128 170 210 267 312 373
#     4  10  20  38  64  90 124 166 206 260 318 376
#     4  11  23  41  62  92 127 169 212 261 314 377
#     4  10  22  39  63  93 125 165 208 262 321 380
#     4  10  20  38  64  94 128 160 210 258 314 374
#     4  10  26  40  56  92 126 172 214 256 316 382
#
# _framework density 24.030633999999999
#
# number of rings (size 3 to 8) (size 9 to 14) (size 15 to 20)
#    0.000    1.667    1.667    3.000    4.667    8.000 
#    0.000    0.000    0.000    8.000    0.000    0.000 
#    0.000    0.000    0.000    0.000    0.000    0.000 
#
# Total GULP energy -133982.288731 kJ/mol
# GULP energy per Si atom -5582.595364 kJ/mol
# Density = 2.397594 g / cm^3
# Si number density = 24.030634 Si / 1000 Ang^3
#
#
#
# Elastic Constant Matrix: (Units=GPa)
#
#
# Indices 1 2 3 4 5 6 
#
# 1 191.4950 64.2762 18.0467 0.0000 0.0000 0.0000
# 2 64.2762 179.8132 25.8715 0.0000 0.0000 0.0000
# 3 18.0467 25.8715 39.3802 0.0000 0.0000 0.0000
# 4 0.0000 0.0000 0.0000 20.0615 0.0000 0.0000
# 5 0.0000 0.0000 0.0000 0.0000 34.9771 0.0000
# 6 0.0000 0.0000 0.0000 0.0000 0.0000 41.5592
#
#
#
# Elastic Compliance Matrix: (Units=1/GPa)
#
#
# Indices 1 2 3 4 5 6 
#
# 1 0.006012 -0.001935 -0.001483 0.000000 0.000000 0.000000
# 2 -0.001935 0.006765 -0.003557 0.000000 0.000000 0.000000
# 3 -0.001483 -0.003557 0.028410 0.000000 0.000000 0.000000
# 4 0.000000 0.000000 0.000000 0.049847 0.000000 0.000000
# 5 0.000000 0.000000 0.000000 0.000000 0.028590 0.000000
# 6 0.000000 0.000000 0.000000 0.000000 0.000000 0.024062
#
#
# Mechanical properties :
#
#
# Convention : Reuss Voigt Hill
#
# Bulk Modulus (GPa) = 36.71825 69.67523 53.19674
# Shear Modulus (GPa) = 29.99104 39.48583 34.73843
#
# Velocity S-wave (km/s) = 3.53658 4.05797 3.80622
# Velocity P-wave (km/s) = 5.65593 7.14237 6.44216
#
# Compressibility (1/GPa) = 0.02723441
#
# Stress axis : x y z
#
# Youngs Moduli (GPa) = 166.34770 147.81927 35.19841
#
# Poissons Ratio (x) = 0.28610 0.05221
# Poissons Ratio (y) = 0.32196 0.12522
# Poissons Ratio (z) = 0.24675 0.52586
#
# Static dielectric constant tensor:
#      x y z
#    x 1.930660 0.000000 0.000000 
#    y 0.000000 1.967410 0.000000 
#    z 0.000000 0.000000 1.998770 
# 
# From -- ./inp_files/16894.got.cif
#   From: 2010.05.17/outbox.cif.g08.bks.cpg/sg24_9_cif.got.tgz:16894.got - 2010.06.04 00:33:39.
