data_PCOD9334626
_publ_section_title
;
Structure prediction by ZEFSAII (Michael W. Deem and Ramdas Pophale) SiO2 
 PCOD9334626
Probable space group: I 21 21 21
;
_chemical_formula_sum "Si O2"
_cell_formula_units_Z 56
_cell_length_a 29.306918
_cell_length_b 14.702311
_cell_length_c 5.625200
_cell_angle_alpha 90.000000
_cell_angle_beta 90.000000
_cell_angle_gamma 90.000000
_cell_volume 2423.782930
_symmetry_space_group_name_H-M "I 21 21 21"
_symmetry_group_IT_number 24
_symmetry_cell_setting 'orthorhombic'
loop_
_space_group_symop_operation_xyz
x,y,z
-x,1/2-y,z
x,-y,1/2-z
1/2-x,y,-z
1/2+x,1/2+y,1/2+z
1/2-x,-y,1/2+z
1/2+x,1/2-y,-z
-x,1/2+y,1/2-z
loop_
_atom_site_type_symbol
_atom_site_label
_atom_site_fract_x
_atom_site_fract_y
_atom_site_fract_z
Si Si1 0.980110 0.147264 0.052682
Si Si2 0.777784 0.500000 0.750000
Si Si3 0.297895 0.401768 0.850207
Si Si4 0.381993 0.717511 0.471507
Si Si5 0.250000 0.720787 0.000000
Si Si6 0.014749 0.142700 0.554701
Si Si7 0.824784 0.665720 0.825198
Si Si8 0.609917 0.606782 0.812222
O O1 0.004134 0.105185 0.819187
O O2 0.000000 0.250000 0.074171
O O3 0.927385 0.158891 0.985400
O O4 0.988404 0.107299 0.316869
O O5 0.750000 0.479245 0.500000
O O6 0.812666 0.579652 0.667273
O O7 0.310393 0.500000 0.750000
O O8 0.339719 0.348356 0.966032
O O9 0.286363 0.340942 0.624825
O O10 0.250000 0.408336 0.000000
O O11 0.364360 0.763327 0.231267
O O12 0.391886 0.809866 0.623650
O O13 0.277211 0.782170 0.180741
O O14 0.000000 0.250000 0.572854
O O15 0.067353 0.126861 0.488734
O O16 0.840765 0.622696 0.070829
O O17 0.605318 0.500000 0.750000
#
# Coordination Sequence:
#
# PCOD9334626 Si02
#       8
#     8   4   8   8   4   8   8   8
#     4  10  20  40  73 101 136 186 238 304 361 437
#     4  12  30  46  66  98 154 198 252 300 358 436
#     4  12  26  47  73 105 143 186 251 324 398 464
#     4  12  25  43  76 107 141 198 254 311 385 462
#     4  12  24  42  72  96 138 194 242 308 386 444
#     4  10  20  42  69  97 140 188 239 300 367 424
#     4  12  26  42  69 102 145 199 250 303 366 449
#     4  12  26  43  70 109 152 198 249 303 371 455
#
# _framework density 23.104376999999999
#
# number of rings (size 3 to 8) (size 9 to 14) (size 15 to 20)
#    0.000    0.571    7.143    2.571    5.000    0.000 
#    0.000    0.714    0.000    1.714    0.000    0.000 
#    0.000    0.000    0.000    0.000    0.000    0.000 
#
# Total GULP energy -156055.957003 kJ/mol
# GULP energy per Si atom -5573.427036 kJ/mol
# Density = 2.305179 g / cm^3
# Si number density = 23.104377 Si / 1000 Ang^3
#
#
#
# Elastic Constant Matrix: (Units=GPa)
#
#
# Indices 1 2 3 4 5 6 
#
# 1 90.8277 15.2647 2.3012 0.0000 0.0000 0.0000
# 2 15.2647 93.0430 0.2569 0.0000 0.0000 0.0000
# 3 2.3012 0.2569 85.2773 0.0000 0.0000 0.0000
# 4 0.0000 0.0000 0.0000 13.7784 0.0000 0.0000
# 5 0.0000 0.0000 0.0000 0.0000 21.5127 0.0000
# 6 0.0000 0.0000 0.0000 0.0000 0.0000 11.9881
#
#
#
# Elastic Compliance Matrix: (Units=1/GPa)
#
#
# Indices 1 2 3 4 5 6 
#
# 1 0.011330 -0.001858 -0.000300 0.000000 0.000000 0.000000
# 2 -0.001858 0.011052 0.000017 0.000000 0.000000 0.000000
# 3 -0.000300 0.000017 0.011734 0.000000 0.000000 0.000000
# 4 0.000000 0.000000 0.000000 0.072578 0.000000 0.000000
# 5 0.000000 0.000000 0.000000 0.000000 0.046484 0.000000
# 6 0.000000 0.000000 0.000000 0.000000 0.000000 0.083416
#
#
# Mechanical properties :
#
#
# Convention : Reuss Voigt Hill
#
# Bulk Modulus (GPa) = 33.51852 33.86595 33.69224
# Shear Modulus (GPa) = 19.93447 26.21085 23.07266
#
# Velocity S-wave (km/s) = 2.94053 3.37182 3.16353
# Velocity P-wave (km/s) = 5.10567 5.46338 5.28755
#
# Compressibility (1/GPa) = 0.02983425
#
# Stress axis : x y z
#
# Youngs Moduli (GPa) = 88.26350 90.47736 85.21885
#
# Poissons Ratio (x) = 0.16810 0.02558
# Poissons Ratio (y) = 0.16399 -0.00144
# Poissons Ratio (z) = 0.02649 -0.00152
#
# Static dielectric constant tensor:
#      x y z
#    x 1.844430 0.000000 0.000000 
#    y 0.000000 1.984130 0.000000 
#    z 0.000000 0.000000 1.957560 
# 
# From -- ./inp_files/7781.got.cif
#   From: 2010.05.17/outbox.cif.g08.bks.cpg/sg24_4_cif.got.tgz:7781.got - 2010.06.04 00:33:39.
