data_PCOD9334510
_publ_section_title
;
Structure prediction by ZEFSAII (Michael W. Deem and Ramdas Pophale) SiO2 
 PCOD9334510
Probable space group: I 21 21 21
;
_chemical_formula_sum "Si O2"
_cell_formula_units_Z 28
_cell_length_a 7.093097
_cell_length_b 7.632864
_cell_length_c 23.510640
_cell_angle_alpha 90.000000
_cell_angle_beta 90.000000
_cell_angle_gamma 90.000000
_cell_volume 1272.881208
_symmetry_space_group_name_H-M "I 21 21 21"
_symmetry_group_IT_number 24
_symmetry_cell_setting 'orthorhombic'
loop_
_space_group_symop_operation_xyz
x,y,z
-x,1/2-y,z
x,-y,1/2-z
1/2-x,y,-z
1/2+x,1/2+y,1/2+z
1/2-x,-y,1/2+z
1/2+x,1/2-y,-z
-x,1/2+y,1/2-z
loop_
_atom_site_type_symbol
_atom_site_label
_atom_site_fract_x
_atom_site_fract_y
_atom_site_fract_z
Si Si1 0.500000 0.750000 0.871680
Si Si2 0.443854 0.545354 0.070810
Si Si3 0.859874 0.091090 0.690254
Si Si4 0.507825 0.050307 0.950355
O O1 0.662255 0.835765 0.833666
O O2 0.590713 0.596947 0.911511
O O3 0.500000 0.750000 0.068731
O O4 0.454997 0.487375 0.136690
O O5 0.223704 0.514208 0.056567
O O6 0.545787 0.455896 0.017170
O O7 0.000000 0.250000 0.701159
O O8 0.830350 0.000000 0.750000
O O9 0.500000 0.250000 0.930104
#
# Coordination Sequence:
#
# PCOD9334510 Si02
#       4
#     4   8   8   8
#     4  10  22  46  72  98 140 188 228 306 358 414
#     4   9  19  41  63  91 139 181 214 290 359 415
#     4  10  23  45  66  97 136 190 233 281 350 423
#     4  10  20  39  67 104 129 171 240 291 355 426
#
# _framework density 21.997337999999999
#
# number of rings (size 3 to 8) (size 9 to 14) (size 15 to 20)
#    0.000    2.286    1.429    0.000    0.000    2.286 
#   51.429    0.000    0.000    0.000    0.000    0.000 
#    0.000    0.000    0.000    0.000    0.000    0.000 
#
# Total GULP energy -78068.781524 kJ/mol
# GULP energy per Si atom -5576.341537 kJ/mol
# Density = 2.194727 g / cm^3
# Si number density = 21.997338 Si / 1000 Ang^3
#
#
#
# Elastic Constant Matrix: (Units=GPa)
#
#
# Indices 1 2 3 4 5 6 
#
# 1 77.0182 24.3721 34.1343 0.0000 0.0000 0.0000
# 2 24.3721 127.9429 76.2263 0.0000 0.0000 0.0000
# 3 34.1343 76.2263 226.7425 0.0000 0.0000 0.0000
# 4 0.0000 0.0000 0.0000 38.5101 0.0000 0.0000
# 5 0.0000 0.0000 0.0000 0.0000 28.1148 0.0000
# 6 0.0000 0.0000 0.0000 0.0000 0.0000 15.3179
#
#
#
# Elastic Compliance Matrix: (Units=1/GPa)
#
#
# Indices 1 2 3 4 5 6 
#
# 1 0.014234 -0.001794 -0.001540 0.000000 0.000000 0.000000
# 2 -0.001794 0.010000 -0.003092 0.000000 0.000000 0.000000
# 3 -0.001540 -0.003092 0.005681 0.000000 0.000000 0.000000
# 4 0.000000 0.000000 0.000000 0.025967 0.000000 0.000000
# 5 0.000000 0.000000 0.000000 0.000000 0.035568 0.000000
# 6 0.000000 0.000000 0.000000 0.000000 0.000000 0.065283
#
#
# Mechanical properties :
#
#
# Convention : Reuss Voigt Hill
#
# Bulk Modulus (GPa) = 58.60186 77.90766 68.25476
# Shear Modulus (GPa) = 28.52698 36.18663 32.35680
#
# Velocity S-wave (km/s) = 3.60507 4.06032 3.83945
# Velocity P-wave (km/s) = 6.63528 7.58125 7.12398
#
# Compressibility (1/GPa) = 0.01706431
#
# Stress axis : x y z
#
# Youngs Moduli (GPa) = 70.25393 100.00317 176.01272
#
# Poissons Ratio (x) = 0.17942 0.27100
# Poissons Ratio (y) = 0.12605 0.54416
# Poissons Ratio (z) = 0.10817 0.30917
#
# Static dielectric constant tensor:
#      x y z
#    x 1.608100 0.000000 0.000000 
#    y 0.000000 2.003240 0.000000 
#    z 0.000000 0.000000 1.871370 
# 
# From -- ./inp_files/8751.got.cif
#   From: 2010.05.17/outbox.cif.g08.bks.cpg/sg24_5_cif.got.tgz:8751.got - 2010.06.04 00:33:39.
