data_PCOD9334244
_publ_section_title
;
Structure prediction by ZEFSAII (Michael W. Deem and Ramdas Pophale) SiO2 
 PCOD9334244
Probable space group: I 21 21 21
;
_chemical_formula_sum "Si O2"
_cell_formula_units_Z 60
_cell_length_a 29.151222
_cell_length_b 9.822248
_cell_length_c 9.250301
_cell_angle_alpha 90.000000
_cell_angle_beta 90.000000
_cell_angle_gamma 90.000000
_cell_volume 2648.643606
_symmetry_space_group_name_H-M "I 21 21 21"
_symmetry_group_IT_number 24
_symmetry_cell_setting 'orthorhombic'
loop_
_space_group_symop_operation_xyz
x,y,z
-x,1/2-y,z
x,-y,1/2-z
1/2-x,y,-z
1/2+x,1/2+y,1/2+z
1/2-x,-y,1/2+z
1/2+x,1/2-y,-z
-x,1/2+y,1/2-z
loop_
_atom_site_type_symbol
_atom_site_label
_atom_site_fract_x
_atom_site_fract_y
_atom_site_fract_z
Si Si1 0.560257 0.561014 0.449370
Si Si2 0.540577 0.954821 0.436308
Si Si3 0.050825 0.276189 0.201077
Si Si4 0.325670 0.239415 0.381951
Si Si5 0.357875 0.000000 0.250000
Si Si6 0.796003 0.985135 0.076908
Si Si7 0.926395 0.242131 0.506123
Si Si8 0.641585 0.881022 0.363380
O O1 0.509666 0.592969 0.385496
O O2 0.563820 0.653067 0.592948
O O3 0.603910 0.583468 0.346035
O O4 0.559074 0.399404 0.482373
O O5 0.544393 0.907655 0.602371
O O6 0.585980 0.883715 0.371018
O O7 0.543768 0.117858 0.432921
O O8 0.082980 0.286765 0.337344
O O9 0.000000 0.250000 0.265044
O O10 0.326546 0.076344 0.369302
O O11 0.301054 0.333153 0.501105
O O12 0.378810 0.270296 0.412708
O O13 0.324059 0.272046 0.209722
O O14 0.792743 0.000000 0.250000
O O15 0.750000 0.039210 0.000000
O O16 0.839253 0.071588 0.017906
O O17 0.652616 0.000000 0.250000
#
# Coordination Sequence:
#
# PCOD9334244 Si02
#       8
#     8   8   8   8   4   8   8   8
#     4  10  22  35  50  76 115 174 225 263 323 375
#     4  11  20  32  54  81 117 161 219 278 322 380
#     4  10  21  34  47  73 114 162 210 273 331 375
#     4  10  22  40  62  91 128 171 208 264 325 388
#     4  10  22  40  58  84 124 184 228 270 308 390
#     4  11  23  42  73 106 132 161 201 265 350 424
#     4  11  20  33  53  78 114 160 211 267 320 377
#     4  10  20  37  58  90 127 159 203 264 330 381
#
# _framework density 22.653105
#
# number of rings (size 3 to 8) (size 9 to 14) (size 15 to 20)
#    0.000    1.600    2.667    4.000    2.800    2.133 
#    0.000    1.333    0.000    2.400    0.000    0.000 
#    0.000    0.000    0.000    0.000    0.000    0.000 
#
# Total GULP energy -167003.070935 kJ/mol
# GULP energy per Si atom -5566.769031 kJ/mol
# Density = 2.260155 g / cm^3
# Si number density = 22.653105 Si / 1000 Ang^3
#
#
#
# Elastic Constant Matrix: (Units=GPa)
#
#
# Indices 1 2 3 4 5 6 
#
# 1 53.1151 6.9501 17.4258 0.0000 0.0000 0.0000
# 2 6.9501 90.9981 13.0788 0.0000 0.0000 0.0000
# 3 17.4258 13.0788 139.9932 0.0000 0.0000 0.0000
# 4 0.0000 0.0000 0.0000 37.0306 0.0000 0.0000
# 5 0.0000 0.0000 0.0000 0.0000 23.4861 0.0000
# 6 0.0000 0.0000 0.0000 0.0000 0.0000 13.5156
#
#
#
# Elastic Compliance Matrix: (Units=1/GPa)
#
#
# Indices 1 2 3 4 5 6 
#
# 1 0.019751 -0.001171 -0.002349 0.000000 0.000000 0.000000
# 2 -0.001171 0.011208 -0.000901 0.000000 0.000000 0.000000
# 3 -0.002349 -0.000901 0.007520 0.000000 0.000000 0.000000
# 4 0.000000 0.000000 0.000000 0.027005 0.000000 0.000000
# 5 0.000000 0.000000 0.000000 0.000000 0.042578 0.000000
# 6 0.000000 0.000000 0.000000 0.000000 0.000000 0.073988
#
#
# Mechanical properties :
#
#
# Convention : Reuss Voigt Hill
#
# Bulk Modulus (GPa) = 33.74249 39.89063 36.81656
# Shear Modulus (GPa) = 24.90388 31.24992 28.07690
#
# Velocity S-wave (km/s) = 3.31925 3.71819 3.52437
# Velocity P-wave (km/s) = 5.44220 6.00673 5.73142
#
# Compressibility (1/GPa) = 0.02963623
#
# Stress axis : x y z
#
# Youngs Moduli (GPa) = 50.63053 89.22020 132.98190
#
# Poissons Ratio (x) = 0.10447 0.31239
# Poissons Ratio (y) = 0.05928 0.11987
# Poissons Ratio (z) = 0.11894 0.08042
#
# Static dielectric constant tensor:
#      x y z
#    x 1.826110 0.000000 0.000000 
#    y 0.000000 2.168860 0.000000 
#    z 0.000000 0.000000 1.944650 
# 
# From -- ./inp_files/16977.got.cif
#   From: 2010.05.17/outbox.cif.g08.bks.cpg/sg24_9_cif.got.tgz:16977.got - 2010.06.04 00:33:39.
