data_PCOD9334670
_publ_section_title
;
Structure prediction by ZEFSAII (Michael W. Deem and Ramdas Pophale) SiO2 
 PCOD9334670
Probable space group: I 21 21 21
;
_chemical_formula_sum "Si O2"
_cell_formula_units_Z 64
_cell_length_a 18.408537
_cell_length_b 15.116326
_cell_length_c 11.688771
_cell_angle_alpha 90.000000
_cell_angle_beta 90.000000
_cell_angle_gamma 90.000000
_cell_volume 3252.627836
_symmetry_space_group_name_H-M "I 21 21 21"
_symmetry_group_IT_number 24
_symmetry_cell_setting 'orthorhombic'
loop_
_space_group_symop_operation_xyz
x,y,z
-x,1/2-y,z
x,-y,1/2-z
1/2-x,y,-z
1/2+x,1/2+y,1/2+z
1/2-x,-y,1/2+z
1/2+x,1/2-y,-z
-x,1/2+y,1/2-z
loop_
_atom_site_type_symbol
_atom_site_label
_atom_site_fract_x
_atom_site_fract_y
_atom_site_fract_z
Si Si1 0.646802 0.069211 0.347750
Si Si2 0.122833 0.071666 0.659024
Si Si3 0.146352 0.408715 0.007612
Si Si4 0.346777 0.997098 0.909667
Si Si5 0.012668 0.346798 0.543204
Si Si6 0.257061 0.332595 0.179867
Si Si7 0.012640 0.514348 0.379658
Si Si8 0.272728 0.134205 0.759836
O O1 0.585445 0.138467 0.383858
O O2 0.714395 0.119989 0.293596
O O3 0.619433 0.000000 0.250000
O O4 0.663632 0.004411 0.452780
O O5 0.150797 0.026004 0.542432
O O6 0.191305 0.118971 0.715403
O O7 0.056495 0.132837 0.622660
O O8 0.095828 0.000000 0.750000
O O9 0.195333 0.388580 0.116813
O O10 0.063088 0.417353 0.049569
O O11 0.174351 0.338954 0.910370
O O12 0.325535 0.907966 0.838245
O O13 0.426770 0.034413 0.878728
O O14 0.290784 0.071122 0.867049
O O15 0.015872 0.421346 0.446352
O O16 0.000000 0.250000 0.494635
O O17 0.224976 0.236341 0.206128
O O18 0.038342 0.500000 0.250000
#
# Coordination Sequence:
#
# PCOD9334670 Si02
#       8
#     8   8   8   8   8   8   8   8
#     4   9  18  38  65  84 131 171 205 265 327 387
#     4  11  22  36  64  93 125 171 218 254 333 403
#     4   9  21  38  62  93 125 169 221 269 326 398
#     4  10  22  42  65  93 132 172 218 264 346 406
#     4  10  21  38  61  94 126 161 212 276 318 391
#     4  10  21  38  65  96 129 163 223 274 329 384
#     4  10  20  42  67  86 125 174 220 262 339 410
#     4  11  21  39  66  94 128 175 207 281 320 398
#
# _framework density 19.676399
#
# number of rings (size 3 to 8) (size 9 to 14) (size 15 to 20)
#    0.000    2.000    2.500    1.500    0.000    5.500 
#    4.500    0.625   19.250    1.500    0.000    0.000 
#    0.000    0.000    0.000    0.000    0.000    0.000 
#
# Total GULP energy -178421.730274 kJ/mol
# GULP energy per Si atom -5575.679071 kJ/mol
# Density = 1.963161 g / cm^3
# Si number density = 19.676399 Si / 1000 Ang^3
#
#
#
# Elastic Constant Matrix: (Units=GPa)
#
#
# Indices 1 2 3 4 5 6 
#
# 1 93.6133 44.3066 34.0351 0.0000 0.0000 0.0000
# 2 44.3066 85.2020 40.6866 0.0000 0.0000 0.0000
# 3 34.0351 40.6866 60.2600 0.0000 0.0000 0.0000
# 4 0.0000 0.0000 0.0000 12.9792 0.0000 0.0000
# 5 0.0000 0.0000 0.0000 0.0000 23.2414 0.0000
# 6 0.0000 0.0000 0.0000 0.0000 0.0000 14.6737
#
#
#
# Elastic Compliance Matrix: (Units=1/GPa)
#
#
# Indices 1 2 3 4 5 6 
#
# 1 0.015035 -0.005554 -0.004742 0.000000 0.000000 0.000000
# 2 -0.005554 0.019373 -0.009944 0.000000 0.000000 0.000000
# 3 -0.004742 -0.009944 0.025987 0.000000 0.000000 0.000000
# 4 0.000000 0.000000 0.000000 0.077046 0.000000 0.000000
# 5 0.000000 0.000000 0.000000 0.000000 0.043027 0.000000
# 6 0.000000 0.000000 0.000000 0.000000 0.000000 0.068149
#
#
# Mechanical properties :
#
#
# Convention : Reuss Voigt Hill
#
# Bulk Modulus (GPa) = 50.21072 53.01465 51.61269
# Shear Modulus (GPa) = 16.90703 18.18200 17.54452
#
# Velocity S-wave (km/s) = 2.93448 3.04312 2.98930
# Velocity P-wave (km/s) = 6.08730 6.27289 6.18079
#
# Compressibility (1/GPa) = 0.01991607
#
# Stress axis : x y z
#
# Youngs Moduli (GPa) = 66.51181 51.61697 38.48111
#
# Poissons Ratio (x) = 0.28669 0.18247
# Poissons Ratio (y) = 0.36941 0.38264
# Poissons Ratio (z) = 0.31538 0.51326
#
# Static dielectric constant tensor:
#      x y z
#    x 1.723870 0.000000 0.000000 
#    y 0.000000 1.690890 0.000000 
#    z 0.000000 0.000000 1.721450 
# 
# From -- ./inp_files/21724.got.cif
#   From: 2010.05.17/outbox.cif.g08.bks.cpg/sg24_11_cif.got.tgz:21724.got - 2010.06.04 00:33:39.
