data_PCOD9334500
_publ_section_title
;
Structure prediction by ZEFSAII (Michael W. Deem and Ramdas Pophale) SiO2 
 PCOD9334500
Probable space group: I 21 21 21
;
_chemical_formula_sum "Si O2"
_cell_formula_units_Z 40
_cell_length_a 10.061571
_cell_length_b 22.274770
_cell_length_c 9.254972
_cell_angle_alpha 90.000000
_cell_angle_beta 90.000000
_cell_angle_gamma 90.000000
_cell_volume 2074.216734
_symmetry_space_group_name_H-M "I 21 21 21"
_symmetry_group_IT_number 24
_symmetry_cell_setting 'orthorhombic'
loop_
_space_group_symop_operation_xyz
x,y,z
-x,1/2-y,z
x,-y,1/2-z
1/2-x,y,-z
1/2+x,1/2+y,1/2+z
1/2-x,-y,1/2+z
1/2+x,1/2-y,-z
-x,1/2+y,1/2-z
loop_
_atom_site_type_symbol
_atom_site_label
_atom_site_fract_x
_atom_site_fract_y
_atom_site_fract_z
Si Si1 0.156295 0.552124 0.643234
Si Si2 0.757002 0.151773 0.324391
Si Si3 0.905728 0.490036 0.025624
Si Si4 0.543264 0.599211 0.788705
Si Si5 0.149877 0.775941 0.132531
O O1 0.210731 0.500000 0.750000
O O2 0.250000 0.556750 0.500000
O O3 0.150108 0.613781 0.735288
O O4 0.010095 0.531303 0.594052
O O5 0.750000 0.149353 0.500000
O O6 0.777923 0.221392 0.283862
O O7 0.891671 0.118677 0.281768
O O8 0.937851 0.558425 0.069841
O O9 0.927635 0.444448 0.157492
O O10 0.750000 0.487474 0.000000
O O11 0.626451 0.660610 0.791359
O O12 0.000000 0.750000 0.093415
O O13 0.250000 0.786940 0.000000
#
# Coordination Sequence:
#
# PCOD9334500 Si02
#       5
#     8   8   8   8   8
#     4  12  23  38  63  93 126 160 206 260 315 374
#     4  10  20  39  65  95 120 158 211 258 308 372
#     4  11  24  38  57  89 122 164 202 253 318 372
#     4  10  20  40  61  85 126 158 205 258 311 369
#     4   9  19  37  63  89 119 160 207 257 307 364
#
# _framework density 19.284389000000001
#
# number of rings (size 3 to 8) (size 9 to 14) (size 15 to 20)
#    0.000    1.600    2.000    3.600    2.800    0.000 
#   10.800    1.000    0.000    0.000    0.000    0.000 
#    0.000    0.000    0.000    0.000    0.000    0.000 
#
# Total GULP energy -111491.801734 kJ/mol
# GULP energy per Si atom -5574.590087 kJ/mol
# Density = 1.924050 g / cm^3
# Si number density = 19.284389 Si / 1000 Ang^3
#
#
#
# Elastic Constant Matrix: (Units=GPa)
#
#
# Indices 1 2 3 4 5 6 
#
# 1 34.7240 22.7933 11.7364 0.0001 0.0000 0.0000
# 2 22.7933 154.7824 42.2534 0.0001 0.0000 0.0000
# 3 11.7364 42.2534 62.2602 0.0000 0.0000 0.0001
# 4 0.0001 0.0001 0.0000 31.3868 0.0000 0.0000
# 5 0.0000 0.0000 0.0000 0.0000 22.2361 0.0000
# 6 0.0000 0.0000 0.0001 0.0000 0.0000 32.3630
#
#
#
# Elastic Compliance Matrix: (Units=1/GPa)
#
#
# Indices 1 2 3 4 5 6 
#
# 1 0.032501 -0.003822 -0.003533 0.000000 0.000000 0.000000
# 2 -0.003822 0.008379 -0.004966 0.000000 0.000000 0.000000
# 3 -0.003533 -0.004966 0.020098 0.000000 0.000000 0.000000
# 4 0.000000 0.000000 0.000000 0.031861 0.000000 0.000000
# 5 0.000000 0.000000 0.000000 0.000000 0.044972 0.000000
# 6 0.000000 0.000000 0.000000 0.000000 0.000000 0.030899
#
#
# Mechanical properties :
#
#
# Convention : Reuss Voigt Hill
#
# Bulk Modulus (GPa) = 27.52047 45.03696 36.27872
# Shear Modulus (GPa) = 24.33511 28.86274 26.59893
#
# Velocity S-wave (km/s) = 3.55619 3.87290 3.71792
# Velocity P-wave (km/s) = 5.58245 6.58817 6.10605
#
# Compressibility (1/GPa) = 0.03633659
#
# Stress axis : x y z
#
# Youngs Moduli (GPa) = 30.76801 119.34375 49.75623
#
# Poissons Ratio (x) = 0.45609 0.17579
# Poissons Ratio (y) = 0.11758 0.24710
# Poissons Ratio (z) = 0.10871 0.59268
#
# Static dielectric constant tensor:
#      x y z
#    x 1.652170 0.000000 0.000000 
#    y 0.000000 1.696810 0.000000 
#    z 0.000000 0.000000 1.701230 
# 
# From -- ./inp_files/9298.got.cif
#   From: 2010.05.17/outbox.cif.g08.bks.cpg/sg24_5_cif.got.tgz:9298.got - 2010.06.04 00:33:39.
