data_PCOD9334340
_publ_section_title
;
Structure prediction by ZEFSAII (Michael W. Deem and Ramdas Pophale) SiO2 
 PCOD9334340
Probable space group: I 21 21 21
;
_chemical_formula_sum "Si O2"
_cell_formula_units_Z 64
_cell_length_a 17.116946
_cell_length_b 9.241137
_cell_length_c 20.320890
_cell_angle_alpha 90.000000
_cell_angle_beta 90.000000
_cell_angle_gamma 90.000000
_cell_volume 3214.359254
_symmetry_space_group_name_H-M "I 21 21 21"
_symmetry_group_IT_number 24
_symmetry_cell_setting 'orthorhombic'
loop_
_space_group_symop_operation_xyz
x,y,z
-x,1/2-y,z
x,-y,1/2-z
1/2-x,y,-z
1/2+x,1/2+y,1/2+z
1/2-x,-y,1/2+z
1/2+x,1/2-y,-z
-x,1/2+y,1/2-z
loop_
_atom_site_type_symbol
_atom_site_label
_atom_site_fract_x
_atom_site_fract_y
_atom_site_fract_z
Si Si1 0.658797 0.282858 0.696085
Si Si2 0.159497 0.092125 0.815872
Si Si3 0.077027 0.332394 0.731680
Si Si4 0.589244 0.257134 0.503513
Si Si5 0.812119 0.736689 0.352202
Si Si6 0.325123 0.805858 0.126586
Si Si7 0.431360 0.998655 0.883855
Si Si8 0.609914 0.981043 0.887846
O O1 0.676615 0.267880 0.772840
O O2 0.735396 0.319032 0.650877
O O3 0.595931 0.405866 0.679490
O O4 0.625374 0.132625 0.670102
O O5 0.107173 0.224768 0.790000
O O6 0.227765 0.164640 0.857902
O O7 0.185294 0.000000 0.750000
O O8 0.129361 0.956890 0.857901
O O9 0.064512 0.500000 0.750000
O O10 0.140328 0.317914 0.674009
O O11 0.000000 0.250000 0.708117
O O12 0.500000 0.250000 0.475853
O O13 0.654662 0.273724 0.448156
O O14 0.584460 0.389985 0.555206
O O15 0.608661 0.114486 0.546042
O O16 0.876127 0.635857 0.385884
O O17 0.825797 0.895153 0.380863
O O18 0.521905 0.039460 0.880637
#
# Coordination Sequence:
#
# PCOD9334340 Si02
#       8
#     8   8   8   8   8   8   8   8
#     4  11  21  35  60  87 126 162 205 259 320 378
#     4  10  20  38  59  93 126 160 205 259 317 384
#     4  11  23  39  65  96 128 159 202 257 317 382
#     4   9  21  43  64  87 120 163 218 261 302 373
#     4  12  20  36  60  89 128 161 196 263 327 367
#     4  11  21  39  68  89 120 168 212 255 323 373
#     4  10  21  39  57  86 124 167 214 258 306 371
#     4  10  24  36  57  90 124 166 215 259 306 380
#
# _framework density 19.910657
#
# number of rings (size 3 to 8) (size 9 to 14) (size 15 to 20)
#    0.000    1.500    3.750    3.750    1.750    5.000 
#    0.000    1.250    2.750    3.000    0.000    0.000 
#    0.000    0.000    0.000    0.000    0.000    0.000 
#
# Total GULP energy -178456.681356 kJ/mol
# GULP energy per Si atom -5576.771292 kJ/mol
# Density = 1.986534 g / cm^3
# Si number density = 19.910657 Si / 1000 Ang^3
#
#
#
# Elastic Constant Matrix: (Units=GPa)
#
#
# Indices 1 2 3 4 5 6 
#
# 1 51.2944 -4.2197 15.5148 0.0000 0.0000 0.0000
# 2 -4.2197 65.8290 5.3944 0.0000 0.0000 0.0000
# 3 15.5148 5.3944 55.6953 0.0000 0.0000 0.0000
# 4 0.0000 0.0000 0.0000 -6.3732 0.0000 0.0000
# 5 0.0000 0.0000 0.0000 0.0000 10.2450 0.0000
# 6 0.0000 0.0000 0.0000 0.0000 0.0000 31.3182
#
#
#
# Elastic Compliance Matrix: (Units=1/GPa)
#
#
# Indices 1 2 3 4 5 6 
#
# 1 0.021519 0.001886 -0.006177 0.000000 0.000000 0.000000
# 2 0.001886 0.015478 -0.002024 0.000000 0.000000 0.000000
# 3 -0.006177 -0.002024 0.019872 0.000000 0.000000 0.000000
# 4 0.000000 0.000000 0.000000 -0.156906 0.000000 0.000000
# 5 0.000000 0.000000 0.000000 0.000000 0.097609 0.000000
# 6 0.000000 0.000000 0.000000 0.000000 0.000000 0.031930
#
#
# Mechanical properties :
#
#
# Convention : Reuss Voigt Hill
#
# Bulk Modulus (GPa) = 22.60581 22.91083 22.75832
# Shear Modulus (GPa) = 87.90767 17.44662 52.67714
#
# Velocity S-wave (km/s) = 6.65184 2.96336 5.14919
# Velocity P-wave (km/s) = 8.38893 4.82083 6.84159
#
# Compressibility (1/GPa) = 0.04423641
#
# Stress axis : x y z
#
# Youngs Moduli (GPa) = 46.47112 64.60939 50.32304
#
# Poissons Ratio (x) = -0.12182 0.31085
# Poissons Ratio (y) = -0.08762 0.10187
# Poissons Ratio (z) = 0.28705 0.13079
#
# Static dielectric constant tensor:
#      x y z
#    x 1.801990 0.000000 0.000000 
#    y 0.000000 1.705890 0.000000 
#    z 0.000000 0.000000 1.705990 
# 
# From -- ./inp_files/33999.got.cif
#   From: 2010.05.17/outbox.cif.g08.bks.cpg/sg24_17_cif.got.tgz:33999.got - 2010.06.04 00:33:39.
