data_PCOD9334425
_publ_section_title
;
Structure prediction by ZEFSAII (Michael W. Deem and Ramdas Pophale) SiO2 
 PCOD9334425
Probable space group: I 21 21 21
;
_chemical_formula_sum "Si O2"
_cell_formula_units_Z 64
_cell_length_a 17.640993
_cell_length_b 20.272159
_cell_length_c 8.901209
_cell_angle_alpha 90.000000
_cell_angle_beta 90.000000
_cell_angle_gamma 90.000000
_cell_volume 3183.259397
_symmetry_space_group_name_H-M "I 21 21 21"
_symmetry_group_IT_number 24
_symmetry_cell_setting 'orthorhombic'
loop_
_space_group_symop_operation_xyz
x,y,z
-x,1/2-y,z
x,-y,1/2-z
1/2-x,y,-z
1/2+x,1/2+y,1/2+z
1/2-x,-y,1/2+z
1/2+x,1/2-y,-z
-x,1/2+y,1/2-z
loop_
_atom_site_type_symbol
_atom_site_label
_atom_site_fract_x
_atom_site_fract_y
_atom_site_fract_z
Si Si1 0.687518 0.304131 0.204963
Si Si2 0.932086 0.143650 0.938568
Si Si3 0.833512 0.117975 0.435667
Si Si4 0.664675 0.214013 0.835633
Si Si5 0.719752 0.429903 0.828917
Si Si6 0.410239 0.837855 0.595469
Si Si7 0.071728 0.284427 0.630424
Si Si8 0.173416 0.478164 0.923119
O O1 0.756279 0.253054 0.173310
O O2 0.727745 0.373234 0.246223
O O3 0.634379 0.270125 0.327341
O O4 0.636897 0.320815 0.058022
O O5 0.953964 0.180051 0.785059
O O6 0.896746 0.071741 0.915350
O O7 0.862341 0.184538 0.007115
O O8 0.003915 0.147474 0.049215
O O9 0.750000 0.131623 0.500000
O O10 0.835723 0.150693 0.272534
O O11 0.892575 0.159328 0.530941
O O12 0.845581 0.041008 0.471016
O O13 0.603090 0.272289 0.804674
O O14 0.723197 0.500000 0.750000
O O15 0.635255 0.399093 0.834798
O O16 0.750000 0.436095 0.000000
O O17 0.000000 0.250000 0.558608
O O18 0.190075 0.500000 0.750000
O O19 0.250000 0.449501 0.000000
#
# Coordination Sequence:
#
# PCOD9334425 Si02
#       8
#     8   8   8   8   8   8   8   8
#     4  10  20  38  66  93 119 163 214 261 308 382
#     4  12  24  39  70  89 128 175 214 263 317 389
#     4  11  25  43  62  92 137 166 209 272 323 376
#     4  11  22  38  68  96 126 162 215 266 321 368
#     4   9  20  41  64  88 126 162 211 266 308 380
#     4  10  21  41  64  99 125 162 218 261 318 388
#     4  12  22  39  66  97 124 164 214 264 321 380
#     4  11  27  45  65  94 127 175 227 265 321 390
#
# _framework density 20.105177999999999
#
# number of rings (size 3 to 8) (size 9 to 14) (size 15 to 20)
#    0.000    1.250    5.000    1.500    5.250    1.000 
#    6.750    5.000    0.000    0.000    0.000    0.000 
#    0.000    0.000    0.000    0.000    0.000    0.000 
#
# Total GULP energy -178634.623251 kJ/mol
# GULP energy per Si atom -5582.331977 kJ/mol
# Density = 2.005942 g / cm^3
# Si number density = 20.105178 Si / 1000 Ang^3
#
#
#
# Elastic Constant Matrix: (Units=GPa)
#
#
# Indices 1 2 3 4 5 6 
#
# 1 107.5546 42.8165 3.6018 0.0000 0.0000 0.0000
# 2 42.8165 112.9815 14.8598 0.0000 0.0000 0.0000
# 3 3.6018 14.8598 18.8428 0.0000 0.0000 0.0000
# 4 0.0000 0.0000 0.0000 27.4047 0.0000 0.0000
# 5 0.0000 0.0000 0.0000 0.0000 21.7424 0.0000
# 6 0.0000 0.0000 0.0000 0.0000 0.0000 5.6147
#
#
#
# Elastic Compliance Matrix: (Units=1/GPa)
#
#
# Indices 1 2 3 4 5 6 
#
# 1 0.010979 -0.004334 0.001319 0.000000 0.000000 0.000000
# 2 -0.004334 0.011586 -0.008309 0.000000 0.000000 0.000000
# 3 0.001319 -0.008309 0.059371 0.000000 0.000000 0.000000
# 4 0.000000 0.000000 0.000000 0.036490 0.000000 0.000000
# 5 0.000000 0.000000 0.000000 0.000000 0.045993 0.000000
# 6 0.000000 0.000000 0.000000 0.000000 0.000000 0.178105
#
#
# Mechanical properties :
#
#
# Convention : Reuss Voigt Hill
#
# Bulk Modulus (GPa) = 16.86650 40.21500 28.54075
# Shear Modulus (GPa) = 12.98925 22.82574 17.90749
#
# Velocity S-wave (km/s) = 2.54454 3.37310 2.98768
# Velocity P-wave (km/s) = 4.12798 5.93432 5.11157
#
# Compressibility (1/GPa) = 0.05928912
#
# Stress axis : x y z
#
# Youngs Moduli (GPa) = 91.08453 86.30871 16.84325
#
# Poissons Ratio (x) = 0.37408 -0.02222
# Poissons Ratio (y) = 0.39478 0.13995
# Poissons Ratio (z) = -0.12017 0.71711
#
# Static dielectric constant tensor:
#      x y z
#    x 1.699120 0.000000 0.000000 
#    y 0.000000 1.741800 0.000000 
#    z 0.000000 0.000000 1.799070 
# 
# From -- ./inp_files/14612.got.cif
#   From: 2010.05.17/outbox.cif.g08.bks.cpg/sg24_8_cif.got.tgz:14612.got - 2010.06.04 00:33:39.
