data_PCOD9334633
_publ_section_title
;
Structure prediction by ZEFSAII (Michael W. Deem and Ramdas Pophale) SiO2 
 PCOD9334633
Probable space group: I 21 21 21
;
_chemical_formula_sum "Si O2"
_cell_formula_units_Z 64
_cell_length_a 12.722294
_cell_length_b 30.742174
_cell_length_c 8.337783
_cell_angle_alpha 90.000000
_cell_angle_beta 90.000000
_cell_angle_gamma 90.000000
_cell_volume 3260.998445
_symmetry_space_group_name_H-M "I 21 21 21"
_symmetry_group_IT_number 24
_symmetry_cell_setting 'orthorhombic'
loop_
_space_group_symop_operation_xyz
x,y,z
-x,1/2-y,z
x,-y,1/2-z
1/2-x,y,-z
1/2+x,1/2+y,1/2+z
1/2-x,-y,1/2+z
1/2+x,1/2-y,-z
-x,1/2+y,1/2-z
loop_
_atom_site_type_symbol
_atom_site_label
_atom_site_fract_x
_atom_site_fract_y
_atom_site_fract_z
Si Si1 0.972805 0.800865 0.797331
Si Si2 0.136538 0.878256 0.794006
Si Si3 0.125280 0.122129 0.326575
Si Si4 0.259586 0.549641 0.189647
Si Si5 0.014970 0.547210 0.678272
Si Si6 0.369827 0.333844 0.979782
Si Si7 0.948834 0.921240 0.358904
Si Si8 0.535039 0.200069 0.660733
O O1 0.902170 0.809166 0.641435
O O2 0.000000 0.750000 0.798883
O O3 0.072984 0.832961 0.773945
O O4 0.927505 0.810379 0.977560
O O5 0.259341 0.875569 0.749577
O O6 0.076170 0.918027 0.710551
O O7 0.134273 0.886698 0.984783
O O8 0.048996 0.085931 0.251911
O O9 0.064093 0.168047 0.311080
O O10 0.252701 0.500000 0.250000
O O11 0.375217 0.564637 0.245467
O O12 0.160186 0.574029 0.265357
O O13 0.250000 0.551708 0.000000
O O14 0.991694 0.500000 0.750000
O O15 0.036245 0.541435 0.489050
O O16 0.438483 0.377170 0.962013
O O17 0.388372 0.308849 0.810993
O O18 0.250000 0.346671 0.000000
O O19 0.500000 0.250000 0.664202
#
# Coordination Sequence:
#
# PCOD9334633 Si02
#       8
#     8   8   8   8   8   8   8   8
#     4  10  21  39  64  90 121 170 210 259 323 375
#     4  10  20  41  61  86 124 159 211 259 306 381
#     4   9  21  38  62  85 118 169 200 258 321 356
#     4  11  22  38  62  90 122 163 206 254 312 370
#     4  11  22  38  61  88 123 162 201 251 307 369
#     4  11  22  37  57  89 127 161 202 262 320 374
#     4  11  22  40  59  90 125 159 209 255 311 376
#     4   9  20  39  60  88 124 159 216 263 308 382
#
# _framework density 19.625889999999998
#
# number of rings (size 3 to 8) (size 9 to 14) (size 15 to 20)
#    0.000    1.750    1.250    3.750    0.000    2.000 
#    0.000    5.625    0.000    0.000    0.000    0.000 
#    0.000    0.000    0.000    0.000    0.000    0.000 
#
# Total GULP energy -178535.787989 kJ/mol
# GULP energy per Si atom -5579.243375 kJ/mol
# Density = 1.958122 g / cm^3
# Si number density = 19.625890 Si / 1000 Ang^3
#
#
#
# Elastic Constant Matrix: (Units=GPa)
#
#
# Indices 1 2 3 4 5 6 
#
# 1 88.3213 10.9457 33.0548 -0.0001 -0.0001 0.0001
# 2 10.9457 54.9139 26.3904 0.0004 -0.0003 0.0001
# 3 33.0548 26.3904 102.2368 0.0046 -0.0009 0.0013
# 4 -0.0001 0.0004 0.0046 33.4908 -0.0006 -0.0001
# 5 -0.0001 -0.0003 -0.0009 -0.0006 20.6935 0.0003
# 6 0.0001 0.0001 0.0013 -0.0001 0.0003 16.2368
#
#
#
# Elastic Compliance Matrix: (Units=1/GPa)
#
#
# Indices 1 2 3 4 5 6 
#
# 1 0.012901 -0.000647 -0.004004 0.000001 0.000000 0.000000
# 2 -0.000647 0.020822 -0.005165 0.000000 0.000000 0.000000
# 3 -0.004004 -0.005165 0.012409 -0.000002 0.000000 -0.000001
# 4 0.000001 0.000000 -0.000002 0.029859 0.000001 0.000000
# 5 0.000000 0.000000 0.000000 0.000001 0.048324 -0.000001
# 6 0.000000 0.000000 -0.000001 0.000000 -0.000001 0.061588
#
#
# Mechanical properties :
#
#
# Convention : Reuss Voigt Hill
#
# Bulk Modulus (GPa) = 37.73805 42.91710 40.32757
# Shear Modulus (GPa) = 23.32418 25.75631 24.54024
#
# Velocity S-wave (km/s) = 3.45111 3.62659 3.53994
# Velocity P-wave (km/s) = 5.92880 6.28102 6.10745
#
# Compressibility (1/GPa) = 0.02649846
#
# Stress axis : x y z
#
# Youngs Moduli (GPa) = 77.51305 48.02671 80.58572
#
# Poissons Ratio (x) = 0.03108 0.32267
# Poissons Ratio (y) = 0.05017 0.41626
# Poissons Ratio (z) = 0.31037 0.24808
#
# Static dielectric constant tensor:
#      x y z
#    x 1.688400 0.000000 0.000000 
#    y 0.000000 1.733540 0.000000 
#    z 0.000000 0.000000 1.739910 
# 
# From -- ./inp_files/11646.got.cif
#   From: 2010.05.17/outbox.cif.g08.bks.cpg/sg24_6_cif.got.tgz:11646.got - 2010.06.04 00:33:39.
