data_PCOD9334436
_publ_section_title
;
Structure prediction by ZEFSAII (Michael W. Deem and Ramdas Pophale) SiO2 
 PCOD9334436
Probable space group: I 21 21 21
;
_chemical_formula_sum "Si O2"
_cell_formula_units_Z 60
_cell_length_a 12.025417
_cell_length_b 29.116093
_cell_length_c 8.532789
_cell_angle_alpha 90.000000
_cell_angle_beta 90.000000
_cell_angle_gamma 90.000000
_cell_volume 2987.612374
_symmetry_space_group_name_H-M "I 21 21 21"
_symmetry_group_IT_number 24
_symmetry_cell_setting 'orthorhombic'
loop_
_space_group_symop_operation_xyz
x,y,z
-x,1/2-y,z
x,-y,1/2-z
1/2-x,y,-z
1/2+x,1/2+y,1/2+z
1/2-x,-y,1/2+z
1/2+x,1/2-y,-z
-x,1/2+y,1/2-z
loop_
_atom_site_type_symbol
_atom_site_label
_atom_site_fract_x
_atom_site_fract_y
_atom_site_fract_z
Si Si1 0.072704 0.831539 0.881285
Si Si2 0.711240 0.548398 0.325582
Si Si3 0.350132 0.085149 0.600066
Si Si4 0.250000 0.761458 0.000000
Si Si5 0.641269 0.824800 0.916642
Si Si6 0.436358 0.408804 0.789289
Si Si7 0.786311 0.048901 0.683249
Si Si8 0.489149 0.596870 0.342542
O O1 0.164072 0.792247 0.901997
O O2 0.041600 0.855088 0.716852
O O3 0.117472 0.872559 0.992907
O O4 0.956695 0.817011 0.959352
O O5 0.744619 0.500000 0.250000
O O6 0.750000 0.545809 0.500000
O O7 0.778754 0.591781 0.255958
O O8 0.581952 0.558349 0.306559
O O9 0.250000 0.060534 0.500000
O O10 0.467603 0.069258 0.675538
O O11 0.313603 0.726341 0.882089
O O12 0.595475 0.858895 0.784398
O O13 0.750000 0.847215 0.000000
O O14 0.325910 0.438622 0.775286
O O15 0.467914 0.404406 0.971524
O O16 0.750000 0.047274 0.500000
O O17 0.882244 0.084790 0.735198
O O18 0.825952 0.000000 0.750000
#
# Coordination Sequence:
#
# PCOD9334436 Si02
#       8
#     8   8   8   4   8   8   8   8
#     4  11  20  38  67  96 126 171 219 271 330 403
#     4  12  25  41  60  94 133 174 217 277 334 396
#     4  11  21  40  65  93 126 170 222 264 328 401
#     4  10  20  38  68 102 124 166 226 272 326 412
#     4   9  21  37  65  96 126 161 220 267 329 404
#     4  11  23  42  65  99 132 180 219 277 343 401
#     4  12  26  45  67  99 133 180 236 285 333 397
#     4  12  24  42  68  96 135 177 227 275 342 403
#
# _framework density 20.082926
#
# number of rings (size 3 to 8) (size 9 to 14) (size 15 to 20)
#    0.400    0.533    3.333    5.200    0.000    0.533 
#    2.400    0.000    0.000    9.600    0.000    0.000 
#    0.000    0.000    0.000    0.000    0.000    0.000 
#
# Total GULP energy -167013.690964 kJ/mol
# GULP energy per Si atom -5567.123032 kJ/mol
# Density = 2.003722 g / cm^3
# Si number density = 20.082926 Si / 1000 Ang^3
#
#
#
# Elastic Constant Matrix: (Units=GPa)
#
#
# Indices 1 2 3 4 5 6 
#
# 1 129.3678 15.0055 15.5324 -0.0004 0.0004 -0.0002
# 2 15.0055 53.3402 16.5824 -0.0003 0.0003 -0.0002
# 3 15.5324 16.5824 76.1933 -0.0002 0.0023 -0.0004
# 4 -0.0004 -0.0003 -0.0002 17.5650 0.0001 -0.0001
# 5 0.0004 0.0003 0.0023 0.0001 37.0573 0.0002
# 6 -0.0002 -0.0002 -0.0004 -0.0001 0.0002 48.1704
#
#
#
# Elastic Compliance Matrix: (Units=1/GPa)
#
#
# Indices 1 2 3 4 5 6 
#
# 1 0.008098 -0.001893 -0.001239 0.000000 0.000000 0.000000
# 2 -0.001893 0.020551 -0.004087 0.000000 0.000000 0.000000
# 3 -0.001239 -0.004087 0.014266 0.000000 -0.000001 0.000000
# 4 0.000000 0.000000 0.000000 0.056932 0.000000 0.000000
# 5 0.000000 0.000000 -0.000001 0.000000 0.026985 0.000000
# 6 0.000000 0.000000 0.000000 0.000000 0.000000 0.020760
#
#
# Mechanical properties :
#
#
# Convention : Reuss Voigt Hill
#
# Bulk Modulus (GPa) = 35.11461 39.23801 37.17631
# Shear Modulus (GPa) = 29.15086 34.67727 31.91407
#
# Velocity S-wave (km/s) = 3.81402 4.15987 3.99069
# Velocity P-wave (km/s) = 6.07606 6.53093 6.30760
#
# Compressibility (1/GPa) = 0.02847817
#
# Stress axis : x y z
#
# Youngs Moduli (GPa) = 123.48402 48.66038 70.09442
#
# Poissons Ratio (x) = 0.09212 0.08684
# Poissons Ratio (y) = 0.23376 0.28645
# Poissons Ratio (z) = 0.15298 0.19886
#
# Static dielectric constant tensor:
#      x y z
#    x 1.770390 0.000000 0.000000 
#    y 0.000000 1.744720 0.000000 
#    z 0.000000 0.000000 1.734480 
# 
# From -- ./inp_files/11605.got.cif
#   From: 2010.05.17/outbox.cif.g08.bks.cpg/sg24_6_cif.got.tgz:11605.got - 2010.06.04 00:33:39.
