data_PCOD9334136
_publ_section_title
;
Structure prediction by ZEFSAII (Michael W. Deem and Ramdas Pophale) SiO2 
 PCOD9334136
Probable space group: I 21 21 21
;
_chemical_formula_sum "Si O2"
_cell_formula_units_Z 48
_cell_length_a 8.658840
_cell_length_b 15.815982
_cell_length_c 19.136099
_cell_angle_alpha 90.000000
_cell_angle_beta 90.000000
_cell_angle_gamma 90.000000
_cell_volume 2620.651588
_symmetry_space_group_name_H-M "I 21 21 21"
_symmetry_group_IT_number 24
_symmetry_cell_setting 'orthorhombic'
loop_
_space_group_symop_operation_xyz
x,y,z
-x,1/2-y,z
x,-y,1/2-z
1/2-x,y,-z
1/2+x,1/2+y,1/2+z
1/2-x,-y,1/2+z
1/2+x,1/2-y,-z
-x,1/2+y,1/2-z
loop_
_atom_site_type_symbol
_atom_site_label
_atom_site_fract_x
_atom_site_fract_y
_atom_site_fract_z
Si Si1 0.676375 0.457381 0.932234
Si Si2 0.827293 0.260437 0.729881
Si Si3 0.665474 0.711537 0.396161
Si Si4 0.172316 0.409505 0.229406
Si Si5 0.664391 0.570393 0.797465
Si Si6 0.651591 0.870171 0.566686
O O1 0.802043 0.385248 0.913402
O O2 0.641501 0.523469 0.870893
O O3 0.521009 0.403156 0.944741
O O4 0.750000 0.500684 0.000000
O O5 0.832454 0.283130 0.812364
O O6 0.744019 0.170039 0.730559
O O7 0.745099 0.339695 0.694439
O O8 0.000000 0.250000 0.703255
O O9 0.500000 0.750000 0.419673
O O10 0.802532 0.771003 0.425898
O O11 0.240799 0.500000 0.250000
O O12 0.190967 0.400338 0.145884
O O13 0.993018 0.411759 0.253741
O O14 0.752037 0.500000 0.750000
O O15 0.750000 0.901339 0.500000
#
# Coordination Sequence:
#
# PCOD9334136 Si02
#       6
#     8   8   8   8   8   8
#     4  12  23  37  58  86 125 162 202 253 302 354
#     4  10  21  36  60  92 122 151 198 258 304 341
#     4  10  20  36  56  87 125 166 195 236 303 375
#     4  10  20  40  65  89 114 160 208 241 294 366
#     4  11  20  40  63  86 117 165 211 237 285 367
#     4  11  21  36  57  86 126 155 198 244 306 365
#
# _framework density 18.316056
#
# number of rings (size 3 to 8) (size 9 to 14) (size 15 to 20)
#    0.000    1.333    5.000    2.500    0.000    3.333 
#    6.000    0.000    0.000    3.000    0.000    0.000 
#    0.000    0.000    0.000    0.000    0.000    0.000 
#
# Total GULP energy -133774.165220 kJ/mol
# GULP energy per Si atom -5573.923551 kJ/mol
# Density = 1.827437 g / cm^3
# Si number density = 18.316056 Si / 1000 Ang^3
#
#
#
# Elastic Constant Matrix: (Units=GPa)
#
#
# Indices 1 2 3 4 5 6 
#
# 1 74.9203 51.6971 24.2559 0.0000 0.0000 0.0000
# 2 51.6971 135.0893 37.7329 0.0000 0.0000 0.0000
# 3 24.2559 37.7329 91.0940 0.0000 0.0000 0.0000
# 4 0.0000 0.0000 0.0000 13.1240 0.0000 0.0000
# 5 0.0000 0.0000 0.0000 0.0000 24.0250 0.0000
# 6 0.0000 0.0000 0.0000 0.0000 0.0000 9.2877
#
#
#
# Elastic Compliance Matrix: (Units=1/GPa)
#
#
# Indices 1 2 3 4 5 6 
#
# 1 0.018539 -0.006464 -0.002259 0.000000 0.000000 0.000000
# 2 -0.006464 0.010625 -0.002680 0.000000 0.000000 0.000000
# 3 -0.002259 -0.002680 0.012689 0.000000 0.000000 0.000000
# 4 0.000000 0.000000 0.000000 0.076196 0.000000 0.000000
# 5 0.000000 0.000000 0.000000 0.000000 0.041623 0.000000
# 6 0.000000 0.000000 0.000000 0.000000 0.000000 0.107669
#
#
# Mechanical properties :
#
#
# Convention : Reuss Voigt Hill
#
# Bulk Modulus (GPa) = 52.49963 58.71949 55.60956
# Shear Modulus (GPa) = 16.86366 21.78187 19.32277
#
# Velocity S-wave (km/s) = 3.03760 3.45225 3.25154
# Velocity P-wave (km/s) = 6.40532 6.92960 6.67261
#
# Compressibility (1/GPa) = 0.01904775
#
# Stress axis : x y z
#
# Youngs Moduli (GPa) = 53.94029 94.12110 78.80693
#
# Poissons Ratio (x) = 0.60837 0.17803
# Poissons Ratio (y) = 0.34865 0.21119
# Poissons Ratio (z) = 0.12185 0.25223
#
# Static dielectric constant tensor:
#      x y z
#    x 1.677150 0.000000 0.000000 
#    y 0.000000 1.647470 0.000000 
#    z 0.000000 0.000000 1.649050 
# 
# From -- ./inp_files/14168.got.cif
#   From: 2010.05.17/outbox.cif.g08.bks.cpg/sg24_8_cif.got.tgz:14168.got - 2010.06.04 00:33:39.
