data_PCOD9334292
_publ_section_title
;
Structure prediction by ZEFSAII (Michael W. Deem and Ramdas Pophale) SiO2 
 PCOD9334292
Probable space group: I 21 21 21
;
_chemical_formula_sum "Si O2"
_cell_formula_units_Z 40
_cell_length_a 7.952573
_cell_length_b 8.168612
_cell_length_c 27.951239
_cell_angle_alpha 90.000000
_cell_angle_beta 90.000000
_cell_angle_gamma 90.000000
_cell_volume 1815.753944
_symmetry_space_group_name_H-M "I 21 21 21"
_symmetry_group_IT_number 24
_symmetry_cell_setting 'orthorhombic'
loop_
_space_group_symop_operation_xyz
x,y,z
-x,1/2-y,z
x,-y,1/2-z
1/2-x,y,-z
1/2+x,1/2+y,1/2+z
1/2-x,-y,1/2+z
1/2+x,1/2-y,-z
-x,1/2+y,1/2-z
loop_
_atom_site_type_symbol
_atom_site_label
_atom_site_fract_x
_atom_site_fract_y
_atom_site_fract_z
Si Si1 0.300956 0.265273 0.330172
Si Si2 0.689738 0.687629 0.269684
Si Si3 0.405965 0.421931 0.594967
Si Si4 0.750000 0.031456 0.000000
Si Si5 0.287308 0.904665 0.630574
Si Si6 0.000000 0.750000 0.562678
O O1 0.500000 0.250000 0.326254
O O2 0.235656 0.284288 0.275889
O O3 0.238722 0.408721 0.364870
O O4 0.252230 0.090059 0.352219
O O5 0.500000 0.750000 0.279187
O O6 0.680529 0.500000 0.250000
O O7 0.787087 0.693884 0.319607
O O8 0.500000 0.250000 0.599766
O O9 0.333926 0.429837 0.542169
O O10 0.534301 0.569740 0.604574
O O11 0.891351 0.135262 0.972280
O O12 0.139191 0.839856 0.596098
#
# Coordination Sequence:
#
# PCOD9334292 Si02
#       6
#     8   8   8   4   8   4
#     4   9  18  36  65  92 126 166 217 257 313 384
#     4   9  17  33  63  94 126 171 213 252 316 395
#     4  10  23  41  65  92 128 160 216 274 321 377
#     4  12  26  42  64  90 120 170 218 266 324 376
#     4  10  20  37  63  90 131 166 205 266 323 389
#     4  12  24  40  64  88 130 168 214 262 324 398
#
# _framework density 22.029416999999999
#
# number of rings (size 3 to 8) (size 9 to 14) (size 15 to 20)
#    0.000    2.000    1.000    2.400    0.000    4.000 
#    0.000    0.000   35.200    0.000    0.000    0.000 
#    0.000    0.000    0.000    0.000    0.000    0.000 
#
# Total GULP energy -111681.854890 kJ/mol
# GULP energy per Si atom -5584.092745 kJ/mol
# Density = 2.197928 g / cm^3
# Si number density = 22.029417 Si / 1000 Ang^3
#
#
#
# Elastic Constant Matrix: (Units=GPa)
#
#
# Indices 1 2 3 4 5 6 
#
# 1 87.0563 19.1448 61.6691 0.0000 0.0000 0.0000
# 2 19.1448 46.9412 29.3149 0.0000 0.0000 0.0000
# 3 61.6691 29.3149 175.6441 0.0000 0.0000 0.0000
# 4 0.0000 0.0000 0.0000 4.5420 0.0000 0.0000
# 5 0.0000 0.0000 0.0000 0.0000 29.8640 0.0000
# 6 0.0000 0.0000 0.0000 0.0000 0.0000 23.0255
#
#
#
# Elastic Compliance Matrix: (Units=1/GPa)
#
#
# Indices 1 2 3 4 5 6 
#
# 1 0.015738 -0.003313 -0.004973 0.000000 0.000000 0.000000
# 2 -0.003313 0.024480 -0.002922 0.000000 0.000000 0.000000
# 3 -0.004973 -0.002922 0.007927 0.000000 0.000000 0.000000
# 4 0.000000 0.000000 0.000000 0.220169 0.000000 0.000000
# 5 0.000000 0.000000 0.000000 0.000000 0.033485 0.000000
# 6 0.000000 0.000000 0.000000 0.000000 0.000000 0.043430
#
#
# Mechanical properties :
#
#
# Convention : Reuss Voigt Hill
#
# Bulk Modulus (GPa) = 38.86809 58.87770 48.87289
# Shear Modulus (GPa) = 13.29005 24.78713 19.03859
#
# Velocity S-wave (km/s) = 2.45885 3.35801 2.94298
# Velocity P-wave (km/s) = 5.07379 6.46683 5.81219
#
# Compressibility (1/GPa) = 0.02572805
#
# Stress axis : x y z
#
# Youngs Moduli (GPa) = 63.54048 40.85041 126.15126
#
# Poissons Ratio (x) = 0.13535 0.62731
# Poissons Ratio (y) = 0.21052 0.36866
# Poissons Ratio (z) = 0.31597 0.11938
#
# Static dielectric constant tensor:
#      x y z
#    x 1.903530 0.000000 0.000000 
#    y 0.000000 1.895420 0.000000 
#    z 0.000000 0.000000 1.797780 
# 
# From -- ./inp_files/9515.got.cif
#   From: 2010.05.17/outbox.cif.g08.bks.cpg/sg24_5_cif.got.tgz:9515.got - 2010.06.04 00:33:39.
