data_PCOD9334943
_publ_section_title
;
Structure prediction by ZEFSAII (Michael W. Deem and Ramdas Pophale) SiO2 
 PCOD9334943
Probable space group: I 21 21 21
;
_chemical_formula_sum "Si O2"
_cell_formula_units_Z 64
_cell_length_a 29.693805
_cell_length_b 10.525444
_cell_length_c 10.212115
_cell_angle_alpha 90.000000
_cell_angle_beta 90.000000
_cell_angle_gamma 90.000000
_cell_volume 3191.699341
_symmetry_space_group_name_H-M "I 21 21 21"
_symmetry_group_IT_number 24
_symmetry_cell_setting 'orthorhombic'
loop_
_space_group_symop_operation_xyz
x,y,z
-x,1/2-y,z
x,-y,1/2-z
1/2-x,y,-z
1/2+x,1/2+y,1/2+z
1/2-x,-y,1/2+z
1/2+x,1/2-y,-z
-x,1/2+y,1/2-z
loop_
_atom_site_type_symbol
_atom_site_label
_atom_site_fract_x
_atom_site_fract_y
_atom_site_fract_z
Si Si1 0.822770 0.826284 0.972432
Si Si2 0.238846 0.641373 0.207679
Si Si3 0.094348 0.471099 0.595281
Si Si4 0.269297 0.113545 0.855444
Si Si5 0.124869 0.901902 0.365733
Si Si6 0.628237 0.570005 0.120875
Si Si7 0.946171 0.773991 0.497523
Si Si8 0.947825 0.725746 0.795049
O O1 0.783782 0.873812 0.877287
O O2 0.860227 0.935363 0.978824
O O3 0.844893 0.699338 0.911585
O O4 0.799273 0.802129 0.110947
O O5 0.224982 0.500000 0.250000
O O6 0.250104 0.749008 0.314190
O O7 0.104425 0.500000 0.750000
O O8 0.066101 0.577772 0.519807
O O9 0.067469 0.341539 0.613879
O O10 0.323220 0.139286 0.848034
O O11 0.259919 0.000000 0.750000
O O12 0.250000 0.078689 0.000000
O O13 0.086869 0.794751 0.393538
O O14 0.112290 0.000000 0.250000
O O15 0.129559 0.981769 0.497480
O O16 0.645950 0.500000 0.250000
O O17 0.575775 0.604946 0.143476
O O18 0.932453 0.724867 0.643434
O O19 0.000000 0.750000 0.475597
O O20 0.000000 0.750000 0.785133
#
# Coordination Sequence:
#
# PCOD9334943 Si02
#       8
#     8   8   8   8   8   8   8   8
#     4  10  23  41  63  93 134 168 230 275 324 399
#     4  11  26  43  67  94 134 182 222 276 335 403
#     4   9  19  34  59  93 130 164 212 273 335 387
#     4  11  28  45  71 102 136 179 226 286 342 403
#     4  11  25  43  64  93 139 171 223 278 336 403
#     4  11  22  39  66  98 123 175 214 273 337 396
#     4  10  21  38  66  95 130 175 220 276 331 400
#     4   9  19  34  60  98 128 157 206 278 333 386
#
# _framework density 20.052014
#
# number of rings (size 3 to 8) (size 9 to 14) (size 15 to 20)
#    0.000    1.750    1.250    1.875   10.500    0.500 
#    0.000    0.625    2.750    0.000    0.000    0.000 
#    0.000    0.000    0.000    0.000    0.000    0.000 
#
# Total GULP energy -178343.466584 kJ/mol
# GULP energy per Si atom -5573.233331 kJ/mol
# Density = 2.000637 g / cm^3
# Si number density = 20.052014 Si / 1000 Ang^3
#
#
#
# Elastic Constant Matrix: (Units=GPa)
#
#
# Indices 1 2 3 4 5 6 
#
# 1 83.6935 33.2986 25.6599 0.0000 0.0000 0.0000
# 2 33.2986 92.9495 41.7078 0.0000 0.0000 0.0000
# 3 25.6599 41.7078 95.6931 0.0000 0.0000 0.0000
# 4 0.0000 0.0000 0.0000 26.7160 0.0000 0.0000
# 5 0.0000 0.0000 0.0000 0.0000 26.6957 0.0000
# 6 0.0000 0.0000 0.0000 0.0000 0.0000 22.6686
#
#
#
# Elastic Compliance Matrix: (Units=1/GPa)
#
#
# Indices 1 2 3 4 5 6 
#
# 1 0.014230 -0.004209 -0.001981 0.000000 0.000000 0.000000
# 2 -0.004209 0.014619 -0.005243 0.000000 0.000000 0.000000
# 3 -0.001981 -0.005243 0.013267 0.000000 0.000000 0.000000
# 4 0.000000 0.000000 0.000000 0.037431 0.000000 0.000000
# 5 0.000000 0.000000 0.000000 0.000000 0.037459 0.000000
# 6 0.000000 0.000000 0.000000 0.000000 0.000000 0.044114
#
#
# Mechanical properties :
#
#
# Convention : Reuss Voigt Hill
#
# Bulk Modulus (GPa) = 51.95011 52.62985 52.28998
# Shear Modulus (GPa) = 26.26012 26.66073 26.46042
#
# Velocity S-wave (km/s) = 3.62277 3.65029 3.63656
# Velocity P-wave (km/s) = 6.59266 6.63851 6.61563
#
# Compressibility (1/GPa) = 0.01924924
#
# Stress axis : x y z
#
# Youngs Moduli (GPa) = 70.27209 68.40428 75.37734
#
# Poissons Ratio (x) = 0.28790 0.14935
# Poissons Ratio (y) = 0.29577 0.39521
# Poissons Ratio (z) = 0.13924 0.35865
#
# Static dielectric constant tensor:
#      x y z
#    x 1.784530 0.000000 0.000000 
#    y 0.000000 1.748630 0.000000 
#    z 0.000000 0.000000 1.706080 
# 
# From -- ./inp_files/16988.got.cif
#   From: 2010.05.17/outbox.cif.g08.bks.cpg/sg24_9_cif.got.tgz:16988.got - 2010.06.04 00:33:39.
