data_PCOD9334186
_publ_section_title
;
Structure prediction by ZEFSAII (Michael W. Deem and Ramdas Pophale) SiO2 
 PCOD9334186
Probable space group: I 21 21 21
;
_chemical_formula_sum "Si O2"
_cell_formula_units_Z 28
_cell_length_a 16.734436
_cell_length_b 16.568581
_cell_length_c 5.068051
_cell_angle_alpha 90.000000
_cell_angle_beta 90.000000
_cell_angle_gamma 90.000000
_cell_volume 1405.197511
_symmetry_space_group_name_H-M "I 21 21 21"
_symmetry_group_IT_number 24
_symmetry_cell_setting 'orthorhombic'
loop_
_space_group_symop_operation_xyz
x,y,z
-x,1/2-y,z
x,-y,1/2-z
1/2-x,y,-z
1/2+x,1/2+y,1/2+z
1/2-x,-y,1/2+z
1/2+x,1/2-y,-z
-x,1/2+y,1/2-z
loop_
_atom_site_type_symbol
_atom_site_label
_atom_site_fract_x
_atom_site_fract_y
_atom_site_fract_z
Si Si1 0.658723 0.058488 0.998919
Si Si2 0.250000 0.942678 0.000000
Si Si3 0.994138 0.842483 0.364484
Si Si4 0.078107 0.908597 0.859575
O O1 0.645072 0.000000 0.250000
O O2 0.750000 0.090046 0.000000
O O3 0.592237 0.126857 0.962391
O O4 0.652482 0.000000 0.750000
O O5 0.170074 0.894103 0.937143
O O6 0.267843 0.000000 0.750000
O O7 0.050748 0.853924 0.617595
O O8 0.000000 0.750000 0.278468
O O9 0.024328 0.895613 0.117671
O O10 0.072335 0.000000 0.750000
#
# Coordination Sequence:
#
# PCOD9334186 Si02
#       4
#     8   4   8   8
#     4  10  21  39  63  88 115 158 213 259 298 363
#     4  10  20  36  60  92 118 148 208 254 294 358
#     4  12  24  39  60  93 129 160 204 256 327 374
#     4  11  22  40  64  89 120 165 210 252 296 368
#
# _framework density 19.926024999999999
#
# number of rings (size 3 to 8) (size 9 to 14) (size 15 to 20)
#    0.000    1.143    0.000    9.429    0.000    0.000 
#    5.143    0.000    0.000    0.000    0.000    0.000 
#    0.000    0.000    0.000    0.000    0.000    0.000 
#
# Total GULP energy -78266.231321 kJ/mol
# GULP energy per Si atom -5590.445094 kJ/mol
# Density = 1.988067 g / cm^3
# Si number density = 19.926025 Si / 1000 Ang^3
#
#
#
# Elastic Constant Matrix: (Units=GPa)
#
#
# Indices 1 2 3 4 5 6 
#
# 1 160.2924 64.9221 49.0637 0.0000 0.0000 0.0000
# 2 64.9221 64.7547 16.2307 0.0000 0.0000 0.0000
# 3 49.0637 16.2307 145.3132 0.0000 0.0000 0.0000
# 4 0.0000 0.0000 0.0000 23.9034 0.0000 0.0000
# 5 0.0000 0.0000 0.0000 0.0000 18.7399 0.0000
# 6 0.0000 0.0000 0.0000 0.0000 0.0000 0.7671
#
#
#
# Elastic Compliance Matrix: (Units=1/GPa)
#
#
# Indices 1 2 3 4 5 6 
#
# 1 0.011417 -0.010782 -0.002651 0.000000 0.000000 0.000000
# 2 -0.010782 0.026070 0.000729 0.000000 0.000000 0.000000
# 3 -0.002651 0.000729 0.007695 0.000000 0.000000 0.000000
# 4 0.000000 0.000000 0.000000 0.041835 0.000000 0.000000
# 5 0.000000 0.000000 0.000000 0.000000 0.053362 0.000000
# 6 0.000000 0.000000 0.000000 0.000000 0.000000 1.303548
#
#
# Mechanical properties :
#
#
# Convention : Reuss Voigt Hill
#
# Bulk Modulus (GPa) = 50.57065 70.08817 60.32941
# Shear Modulus (GPa) = 3.38770 24.69167 14.03968
#
# Velocity S-wave (km/s) = 1.30531 3.52400 2.65729
# Velocity P-wave (km/s) = 5.26366 7.19782 6.30534
#
# Compressibility (1/GPa) = 0.01977432
#
# Stress axis : x y z
#
# Youngs Moduli (GPa) = 87.58975 38.35797 129.95065
#
# Poissons Ratio (x) = 0.41358 0.34443
# Poissons Ratio (y) = 0.94440 -0.09468
# Poissons Ratio (z) = 0.23216 -0.02795
#
# Static dielectric constant tensor:
#      x y z
#    x 1.750500 0.000000 0.000000 
#    y 0.000000 1.669110 0.000000 
#    z 0.000000 0.000000 1.616580 
# 
# From -- ./inp_files/2988.got.cif
#   From: 2010.05.17/outbox.cif.g08.bks.cpg/sg24_2_cif.got.tgz:2988.got - 2010.06.04 00:33:39.
