data_PCOD9334585
_publ_section_title
;
Structure prediction by ZEFSAII (Michael W. Deem and Ramdas Pophale) SiO2 
 PCOD9334585
Probable space group: I 21 21 21
;
_chemical_formula_sum "Si O2"
_cell_formula_units_Z 60
_cell_length_a 8.330280
_cell_length_b 28.873798
_cell_length_c 10.886413
_cell_angle_alpha 90.000000
_cell_angle_beta 90.000000
_cell_angle_gamma 90.000000
_cell_volume 2618.474322
_symmetry_space_group_name_H-M "I 21 21 21"
_symmetry_group_IT_number 24
_symmetry_cell_setting 'orthorhombic'
loop_
_space_group_symop_operation_xyz
x,y,z
-x,1/2-y,z
x,-y,1/2-z
1/2-x,y,-z
1/2+x,1/2+y,1/2+z
1/2-x,-y,1/2+z
1/2+x,1/2-y,-z
-x,1/2+y,1/2-z
loop_
_atom_site_type_symbol
_atom_site_label
_atom_site_fract_x
_atom_site_fract_y
_atom_site_fract_z
Si Si1 0.750000 0.924437 0.000000
Si Si2 0.097785 0.294249 0.797953
Si Si3 0.504186 0.018540 0.616396
Si Si4 0.847992 0.384015 0.388477
Si Si5 0.063625 0.824429 0.461345
Si Si6 0.039594 0.701374 0.204504
Si Si7 0.442482 0.073092 0.027432
Si Si8 0.007448 0.107266 0.708817
O O1 0.825551 0.956980 0.104276
O O2 0.605428 0.901822 0.086686
O O3 0.279490 0.295100 0.752514
O O4 0.027655 0.340384 0.741496
O O5 0.000000 0.250000 0.753805
O O6 0.056404 0.299781 0.942888
O O7 0.395941 0.062967 0.584577
O O8 0.463152 0.000000 0.750000
O O9 0.501065 0.974975 0.527735
O O10 0.750000 0.361835 0.500000
O O11 0.702175 0.392325 0.295754
O O12 0.990083 0.348049 0.356201
O O13 0.250000 0.822980 0.500000
O O14 0.009942 0.878606 0.459860
O O15 0.061448 0.801051 0.329639
O O16 0.000000 0.750000 0.137147
O O17 0.512896 0.077331 0.166221
O O18 0.250000 0.071135 0.000000
#
# Coordination Sequence:
#
# PCOD9334585 Si02
#       8
#     4   8   8   8   8   8   8   8
#     4  12  28  46  66 106 146 202 242 304 384 442
#     4  11  23  41  70 108 145 186 239 300 367 447
#     4  12  26  45  71 104 145 187 245 302 371 451
#     4  12  25  48  72  99 136 190 246 308 366 439
#     4  10  20  40  67 106 149 190 236 298 369 437
#     4  12  24  42  70 103 143 190 242 301 370 443
#     4  10  22  42  73 108 139 194 247 304 368 453
#     4  11  25  47  74 101 150 192 246 310 380 449
#
# _framework density 22.914107000000001
#
# number of rings (size 3 to 8) (size 9 to 14) (size 15 to 20)
#    0.000    0.800    1.333    7.600    1.867    0.000 
#    2.400    2.000    1.467    0.000    0.000    0.000 
#    0.000    0.000    0.000    0.000    0.000    0.000 
#
# Total GULP energy -167072.813421 kJ/mol
# GULP energy per Si atom -5569.093781 kJ/mol
# Density = 2.286195 g / cm^3
# Si number density = 22.914107 Si / 1000 Ang^3
#
#
#
# Elastic Constant Matrix: (Units=GPa)
#
#
# Indices 1 2 3 4 5 6 
#
# 1 77.3651 40.1537 14.9196 0.0005 0.0000 0.0000
# 2 40.1537 144.2221 56.7495 0.0000 0.0000 -0.0001
# 3 14.9196 56.7495 92.9451 0.0005 0.0001 -0.0001
# 4 0.0005 0.0000 0.0005 101.3708 0.0000 -0.0003
# 5 0.0000 0.0000 0.0001 0.0000 42.2114 0.0000
# 6 0.0000 -0.0001 -0.0001 -0.0003 0.0000 49.7782
#
#
#
# Elastic Compliance Matrix: (Units=1/GPa)
#
#
# Indices 1 2 3 4 5 6 
#
# 1 0.015112 -0.004281 0.000188 0.000000 0.000000 0.000000
# 2 -0.004281 0.010339 -0.005626 0.000000 0.000000 0.000000
# 3 0.000188 -0.005626 0.014164 0.000000 0.000000 0.000000
# 4 0.000000 0.000000 0.000000 0.009865 0.000000 0.000000
# 5 0.000000 0.000000 0.000000 0.000000 0.023690 0.000000
# 6 0.000000 0.000000 0.000000 0.000000 0.000000 0.020089
#
#
# Mechanical properties :
#
#
# Convention : Reuss Voigt Hill
#
# Bulk Modulus (GPa) = 49.56091 59.79754 54.67922
# Shear Modulus (GPa) = 41.86841 52.18606 47.02723
#
# Velocity S-wave (km/s) = 4.27920 4.77746 4.53518
# Velocity P-wave (km/s) = 6.78906 7.52231 7.16507
#
# Compressibility (1/GPa) = 0.02017719
#
# Stress axis : x y z
#
# Youngs Moduli (GPa) = 66.17469 96.71753 70.60324
#
# Poissons Ratio (x) = 0.41409 -0.01330
# Poissons Ratio (y) = 0.28332 0.39719
# Poissons Ratio (z) = -0.01247 0.54410
#
# Static dielectric constant tensor:
#      x y z
#    x 1.413280 0.000000 0.000000 
#    y 0.000000 1.829610 0.000000 
#    z 0.000000 0.000000 1.714550 
# 
# From -- ./inp_files/18801.got.cif
#   From: 2010.05.17/outbox.cif.g08.bks.cpg/sg24_10_cif.got.tgz:18801.got - 2010.06.04 00:33:39.
