data_PCOD9334863
_publ_section_title
;
Structure prediction by ZEFSAII (Michael W. Deem and Ramdas Pophale) SiO2 
 PCOD9334863
Probable space group: I 21 21 21
;
_chemical_formula_sum "Si O2"
_cell_formula_units_Z 40
_cell_length_a 25.214960
_cell_length_b 8.716617
_cell_length_c 8.258832
_cell_angle_alpha 90.000000
_cell_angle_beta 90.000000
_cell_angle_gamma 90.000000
_cell_volume 1815.201657
_symmetry_space_group_name_H-M "I 21 21 21"
_symmetry_group_IT_number 24
_symmetry_cell_setting 'orthorhombic'
loop_
_space_group_symop_operation_xyz
x,y,z
-x,1/2-y,z
x,-y,1/2-z
1/2-x,y,-z
1/2+x,1/2+y,1/2+z
1/2-x,-y,1/2+z
1/2+x,1/2-y,-z
-x,1/2+y,1/2-z
loop_
_atom_site_type_symbol
_atom_site_label
_atom_site_fract_x
_atom_site_fract_y
_atom_site_fract_z
Si Si1 0.707178 0.119053 0.128183
Si Si2 0.883627 0.571437 0.070304
Si Si3 0.115581 0.443213 0.435177
Si Si4 0.710967 0.380848 0.364640
Si Si5 0.999515 0.434219 0.431701
O O1 0.688277 0.251486 0.247813
O O2 0.735590 0.000000 0.250000
O O3 0.750000 0.177225 0.000000
O O4 0.660072 0.029364 0.038811
O O5 0.878933 0.500000 0.250000
O O6 0.879563 0.757966 0.073258
O O7 0.941487 0.524022 0.001247
O O8 0.835349 0.527821 0.955386
O O9 0.118600 0.500000 0.250000
O O10 0.056364 0.481351 0.502914
O O11 0.741595 0.500000 0.250000
O O12 0.750000 0.314483 0.500000
O O13 0.999459 0.500000 0.250000
O O14 0.000000 0.250000 0.422810
#
# Coordination Sequence:
#
# PCOD9334863 Si02
#       5
#     8   8   8   8   8
#     4  12  25  42  65  94 131 165 213 271 329 389
#     4  10  21  39  66  92 129 171 215 265 315 383
#     4  10  21  37  66  98 127 167 214 267 322 379
#     4  12  27  45  64  92 128 172 220 267 331 395
#     4   8  16  34  59  92 125 163 212 257 309 381
#
# _framework density 22.036117000000001
#
# number of rings (size 3 to 8) (size 9 to 14) (size 15 to 20)
#    0.000    1.600    2.000    2.400    5.600    0.000 
#    0.000    1.000    0.000    0.000    0.000    0.000 
#    0.000    0.000    0.000    0.000    0.000    0.000 
#
# Total GULP energy -111597.542442 kJ/mol
# GULP energy per Si atom -5579.877122 kJ/mol
# Density = 2.198596 g / cm^3
# Si number density = 22.036117 Si / 1000 Ang^3
#
#
#
# Elastic Constant Matrix: (Units=GPa)
#
#
# Indices 1 2 3 4 5 6 
#
# 1 155.9038 25.9872 60.6999 0.0000 0.0000 0.0000
# 2 25.9872 52.9146 36.7901 0.0000 0.0000 0.0000
# 3 60.6999 36.7901 94.1635 0.0000 0.0000 0.0000
# 4 0.0000 0.0000 0.0000 41.4482 0.0000 0.0000
# 5 0.0000 0.0000 0.0000 0.0000 24.7794 0.0000
# 6 0.0000 0.0000 0.0000 0.0000 0.0000 17.7600
#
#
#
# Elastic Compliance Matrix: (Units=1/GPa)
#
#
# Indices 1 2 3 4 5 6 
#
# 1 0.008573 -0.000505 -0.005329 0.000000 0.000000 0.000000
# 2 -0.000505 0.025976 -0.009823 0.000000 0.000000 0.000000
# 3 -0.005329 -0.009823 0.017893 0.000000 0.000000 0.000000
# 4 0.000000 0.000000 0.000000 0.024127 0.000000 0.000000
# 5 0.000000 0.000000 0.000000 0.000000 0.040356 0.000000
# 6 0.000000 0.000000 0.000000 0.000000 0.000000 0.056306
#
#
# Mechanical properties :
#
#
# Convention : Reuss Voigt Hill
#
# Bulk Modulus (GPa) = 47.33212 61.10401 54.21807
# Shear Modulus (GPa) = 23.63062 28.76449 26.19756
#
# Velocity S-wave (km/s) = 3.27824 3.61686 3.45171
# Velocity P-wave (km/s) = 5.98791 6.72543 6.36736
#
# Compressibility (1/GPa) = 0.02112730
#
# Stress axis : x y z
#
# Youngs Moduli (GPa) = 116.64141 38.49634 55.88729
#
# Poissons Ratio (x) = 0.01945 0.29783
# Poissons Ratio (y) = 0.05894 0.54900
# Poissons Ratio (z) = 0.62160 0.37817
#
# Static dielectric constant tensor:
#      x y z
#    x 1.852080 0.000000 0.000000 
#    y 0.000000 1.847530 0.000000 
#    z 0.000000 0.000000 1.781800 
# 
# From -- ./inp_files/15628.got.cif
#   From: 2010.05.17/outbox.cif.g08.bks.cpg/sg24_8_cif.got.tgz:15628.got - 2010.06.04 00:33:39.
