data_PCOD9334776
_publ_section_title
;
Structure prediction by ZEFSAII (Michael W. Deem and Ramdas Pophale) SiO2 
 PCOD9334776
Probable space group: I 21 21 21
;
_chemical_formula_sum "Si O2"
_cell_formula_units_Z 64
_cell_length_a 13.484907
_cell_length_b 24.933627
_cell_length_c 9.731833
_cell_angle_alpha 90.000000
_cell_angle_beta 90.000000
_cell_angle_gamma 90.000000
_cell_volume 3272.111255
_symmetry_space_group_name_H-M "I 21 21 21"
_symmetry_group_IT_number 24
_symmetry_cell_setting 'orthorhombic'
loop_
_space_group_symop_operation_xyz
x,y,z
-x,1/2-y,z
x,-y,1/2-z
1/2-x,y,-z
1/2+x,1/2+y,1/2+z
1/2-x,-y,1/2+z
1/2+x,1/2-y,-z
-x,1/2+y,1/2-z
loop_
_atom_site_type_symbol
_atom_site_label
_atom_site_fract_x
_atom_site_fract_y
_atom_site_fract_z
Si Si1 0.912078 0.063126 0.740269
Si Si2 0.061603 0.376041 0.020477
Si Si3 0.585306 0.295222 0.651516
Si Si4 0.658331 0.217909 0.420167
Si Si5 0.461693 0.380289 0.513092
Si Si6 0.178828 0.565056 0.234942
Si Si7 0.844454 0.333777 0.070370
Si Si8 0.889131 0.234093 0.877817
O O1 0.981556 0.081595 0.615225
O O2 0.795556 0.078126 0.717693
O O3 0.914575 0.000000 0.750000
O O4 0.942290 0.089329 0.882765
O O5 0.130812 0.405258 0.132602
O O6 0.948686 0.365712 0.068321
O O7 0.105459 0.318561 0.972503
O O8 0.500000 0.250000 0.692991
O O9 0.632379 0.269189 0.514518
O O10 0.541372 0.353328 0.612625
O O11 0.658706 0.307953 0.777209
O O12 0.750000 0.192851 0.500000
O O13 0.574770 0.173711 0.437362
O O14 0.673464 0.226400 0.260017
O O15 0.382237 0.411702 0.606327
O O16 0.169284 0.500000 0.250000
O O17 0.750000 0.363086 0.000000
O O18 0.856658 0.283606 0.968416
O O19 0.000000 0.250000 0.828325
#
# Coordination Sequence:
#
# PCOD9334776 Si02
#       8
#     8   8   8   8   8   8   8   8
#     4  11  23  39  60  90 119 154 198 243 295 361
#     4  11  22  39  61  86 121 158 195 245 303 356
#     4  10  21  37  58  83 122 159 198 241 292 351
#     4  11  21  34  55  86 118 157 193 236 285 354
#     4  11  21  37  58  82 122 157 193 233 295 353
#     4  11  23  39  60  88 121 154 197 246 296 362
#     4  11  23  39  59  87 118 156 201 249 289 352
#     4  10  21  36  56  83 118 154 196 235 293 350
#
# _framework density 19.559237
#
# number of rings (size 3 to 8) (size 9 to 14) (size 15 to 20)
#    0.000    1.250    2.500    5.250    3.500    3.000 
#    0.000    0.000    0.000    0.750    0.000    0.000 
#    0.000    0.000    0.000    0.000    0.000    0.000 
#
# Total GULP energy -178515.269744 kJ/mol
# GULP energy per Si atom -5578.602180 kJ/mol
# Density = 1.951472 g / cm^3
# Si number density = 19.559237 Si / 1000 Ang^3
#
#
#
# Elastic Constant Matrix: (Units=GPa)
#
#
# Indices 1 2 3 4 5 6 
#
# 1 41.6843 9.4428 14.6723 0.0005 0.0000 0.0001
# 2 9.4428 57.4557 31.8893 0.0011 0.0001 0.0000
# 3 14.6723 31.8893 106.3894 -0.0004 0.0000 -0.0001
# 4 0.0005 0.0011 -0.0004 49.5730 -0.0003 0.0002
# 5 0.0000 0.0001 0.0000 -0.0003 22.2375 0.0000
# 6 0.0001 0.0000 -0.0001 0.0002 0.0000 29.0043
#
#
#
# Elastic Compliance Matrix: (Units=1/GPa)
#
#
# Indices 1 2 3 4 5 6 
#
# 1 0.025556 -0.002692 -0.002718 0.000000 0.000000 0.000000
# 2 -0.002692 0.021162 -0.005972 0.000000 0.000000 0.000000
# 3 -0.002718 -0.005972 0.011564 0.000000 0.000000 0.000000
# 4 0.000000 0.000000 0.000000 0.020172 0.000000 0.000000
# 5 0.000000 0.000000 0.000000 0.000000 0.044969 0.000000
# 6 0.000000 0.000000 0.000000 0.000000 0.000000 0.034478
#
#
# Mechanical properties :
#
#
# Convention : Reuss Voigt Hill
#
# Bulk Modulus (GPa) = 28.15347 35.28202 31.71775
# Shear Modulus (GPa) = 25.97359 30.13129 28.05244
#
# Velocity S-wave (km/s) = 3.64805 3.92920 3.79123
# Velocity P-wave (km/s) = 5.67182 6.21792 5.95114
#
# Compressibility (1/GPa) = 0.03551960
#
# Stress axis : x y z
#
# Youngs Moduli (GPa) = 39.12946 47.25545 86.47369
#
# Poissons Ratio (x) = 0.12720 0.23500
# Poissons Ratio (y) = 0.10533 0.51640
# Poissons Ratio (z) = 0.10634 0.28220
#
# Static dielectric constant tensor:
#      x y z
#    x 1.616200 0.000000 0.000000 
#    y 0.000000 1.661150 0.000000 
#    z 0.000000 0.000000 1.712630 
# 
# From -- ./inp_files/13351.got.cif
#   From: 2010.05.17/outbox.cif.g08.bks.cpg/sg24_7_cif.got.tgz:13351.got - 2010.06.04 00:33:39.
