data_PCOD9334801
_publ_section_title
;
Structure prediction by ZEFSAII (Michael W. Deem and Ramdas Pophale) SiO2 
 PCOD9334801
Probable space group: I 21 21 21
;
_chemical_formula_sum "Si O2"
_cell_formula_units_Z 40
_cell_length_a 25.485259
_cell_length_b 7.863641
_cell_length_c 8.783640
_cell_angle_alpha 90.000000
_cell_angle_beta 90.000000
_cell_angle_gamma 90.000000
_cell_volume 1760.302305
_symmetry_space_group_name_H-M "I 21 21 21"
_symmetry_group_IT_number 24
_symmetry_cell_setting 'orthorhombic'
loop_
_space_group_symop_operation_xyz
x,y,z
-x,1/2-y,z
x,-y,1/2-z
1/2-x,y,-z
1/2+x,1/2+y,1/2+z
1/2-x,-y,1/2+z
1/2+x,1/2-y,-z
-x,1/2+y,1/2-z
loop_
_atom_site_type_symbol
_atom_site_label
_atom_site_fract_x
_atom_site_fract_y
_atom_site_fract_z
Si Si1 0.083308 0.599168 0.991443
Si Si2 0.808951 0.284723 0.036292
Si Si3 0.384342 0.000000 0.750000
Si Si4 0.101558 0.240465 0.815961
Si Si5 0.657216 0.000000 0.750000
Si Si6 0.524296 0.432083 0.970371
O O1 0.096318 0.419708 0.906430
O O2 0.097626 0.734375 0.862937
O O3 0.117202 0.610895 0.144972
O O4 0.022373 0.566098 0.021551
O O5 0.843396 0.382268 0.160857
O O6 0.809261 0.099790 0.122095
O O7 0.750000 0.336124 0.000000
O O8 0.842168 0.312508 0.881177
O O9 0.428470 0.021214 0.619075
O O10 0.052556 0.131451 0.875980
O O11 0.500000 0.250000 0.906055
#
# Coordination Sequence:
#
# PCOD9334801 Si02
#       6
#     8   8   4   8   4   8
#     4   9  16  32  55  86 125 159 197 249 303 370
#     4  10  22  42  64  88 123 164 214 274 324 373
#     4  10  21  40  64  90 122 166 213 262 320 382
#     4   8  17  33  54  83 122 163 201 245 303 369
#     4  10  21  36  62  94 120 162 215 262 316 380
#     4   9  17  32  58  90 128 165 200 249 313 383
#
# _framework density 22.723367
#
# number of rings (size 3 to 8) (size 9 to 14) (size 15 to 20)
#    0.000    2.800    0.000    1.800    0.000    3.200 
#    0.000   17.000    0.000   19.200    0.000    0.000 
#    0.000    0.000    0.000    0.000    0.000    0.000 
#
# Total GULP energy -111362.353275 kJ/mol
# GULP energy per Si atom -5568.117664 kJ/mol
# Density = 2.267165 g / cm^3
# Si number density = 22.723367 Si / 1000 Ang^3
#
#
#
# Elastic Constant Matrix: (Units=GPa)
#
#
# Indices 1 2 3 4 5 6 
#
# 1 173.7072 20.8330 58.3123 0.0000 0.0000 0.0000
# 2 20.8330 15.5654 32.3282 0.0000 0.0000 0.0000
# 3 58.3123 32.3282 142.5729 0.0000 0.0000 0.0000
# 4 0.0000 0.0000 0.0000 876.3919 0.0000 0.0000
# 5 0.0000 0.0000 0.0000 0.0000 -34.3774 0.0000
# 6 0.0000 0.0000 0.0000 0.0000 0.0000 12.4323
#
#
#
# Elastic Compliance Matrix: (Units=1/GPa)
#
#
# Indices 1 2 3 4 5 6 
#
# 1 0.007002 -0.006471 -0.001396 0.000000 0.000000 0.000000
# 2 -0.006471 0.127412 -0.026244 0.000000 0.000000 0.000000
# 3 -0.001396 -0.026244 0.013536 0.000000 0.000000 0.000000
# 4 0.000000 0.000000 0.000000 0.001141 0.000000 0.000000
# 5 0.000000 0.000000 0.000000 0.000000 -0.029089 0.000000
# 6 0.000000 0.000000 0.000000 0.000000 0.000000 0.080435
#
#
# Mechanical properties :
#
#
# Convention : Reuss Voigt Hill
#
# Bulk Modulus (GPa) = 12.54274 61.64361 37.09318
# Shear Modulus (GPa) = 16.93563 185.58082 101.25823
#
# Velocity S-wave (km/s) = 2.73297 9.04693 6.68267
# Velocity P-wave (km/s) = 3.93581 11.67544 8.71225
#
# Compressibility (1/GPa) = 0.07972739
#
# Stress axis : x y z
#
# Youngs Moduli (GPa) = 142.82370 7.84854 73.87784
#
# Poissons Ratio (x) = 0.05079 0.10316
# Poissons Ratio (y) = 0.92419 1.93885
# Poissons Ratio (z) = 0.19944 0.20598
#
# Static dielectric constant tensor:
#      x y z
#    x 1.434460 0.000000 0.000000 
#    y 0.000000 2.068350 0.000000 
#    z 0.000000 0.000000 1.840610 
# 
# From -- ./inp_files/15650.got.cif
#   From: 2010.05.17/outbox.cif.g08.bks.cpg/sg24_8_cif.got.tgz:15650.got - 2010.06.04 00:33:39.
