data_PCOD9334828
_publ_section_title
;
Structure prediction by ZEFSAII (Michael W. Deem and Ramdas Pophale) SiO2 
 PCOD9334828
Probable space group: I 21 21 21
;
_chemical_formula_sum "Si O2"
_cell_formula_units_Z 60
_cell_length_a 9.222776
_cell_length_b 12.116025
_cell_length_c 28.476803
_cell_angle_alpha 90.000000
_cell_angle_beta 90.000000
_cell_angle_gamma 90.000000
_cell_volume 3182.094349
_symmetry_space_group_name_H-M "I 21 21 21"
_symmetry_group_IT_number 24
_symmetry_cell_setting 'orthorhombic'
loop_
_space_group_symop_operation_xyz
x,y,z
-x,1/2-y,z
x,-y,1/2-z
1/2-x,y,-z
1/2+x,1/2+y,1/2+z
1/2-x,-y,1/2+z
1/2+x,1/2-y,-z
-x,1/2+y,1/2-z
loop_
_atom_site_type_symbol
_atom_site_label
_atom_site_fract_x
_atom_site_fract_y
_atom_site_fract_z
Si Si1 0.835624 0.107074 0.451727
Si Si2 0.000000 0.250000 0.275908
Si Si3 0.629504 0.523413 0.803739
Si Si4 0.327460 0.239530 0.049889
Si Si5 0.829158 0.627909 0.047716
Si Si6 0.167231 0.409704 0.210976
Si Si7 0.335816 0.972843 0.386119
Si Si8 0.679547 0.053820 0.115637
O O1 0.750000 0.074706 0.500000
O O2 0.829362 0.239766 0.448904
O O3 0.007139 0.081873 0.453104
O O4 0.764177 0.050188 0.406444
O O5 0.075600 0.151505 0.305486
O O6 0.121367 0.303655 0.241566
O O7 0.670051 0.500000 0.750000
O O8 0.483304 0.453422 0.811542
O O9 0.755784 0.479372 0.836489
O O10 0.500000 0.250000 0.042186
O O11 0.296189 0.133820 0.082561
O O12 0.286206 0.347798 0.079354
O O13 0.250000 0.232251 0.000000
O O14 0.731719 0.578110 0.088241
O O15 0.750000 0.595687 0.000000
O O16 0.213091 0.500000 0.250000
O O17 0.275274 0.406457 0.167547
O O18 0.508965 0.972850 0.383640
#
# Coordination Sequence:
#
# PCOD9334828 Si02
#       8
#     8   4   8   8   8   8   8   8
#     4  10  21  38  58  85 117 149 195 241 295 350
#     4   8  18  38  62  86 116 144 198 248 296 354
#     4   9  20  37  60  87 114 151 194 243 297 354
#     4  10  24  41  57  85 121 159 200 245 289 347
#     4  10  21  37  59  84 115 154 190 242 294 350
#     4   9  20  37  60  85 114 151 195 244 297 352
#     4  11  23  38  58  86 121 155 198 240 295 357
#     4  11  23  38  60  85 121 156 197 244 295 353
#
# _framework density 18.855506999999999
#
# number of rings (size 3 to 8) (size 9 to 14) (size 15 to 20)
#    0.000    2.400    0.000    2.400    3.733    9.600 
#    0.000    0.000    0.000    0.000    0.000    0.000 
#    0.000    0.000    0.000    0.000    0.000    0.000 
#
# Total GULP energy -167338.574361 kJ/mol
# GULP energy per Si atom -5577.952479 kJ/mol
# Density = 1.881259 g / cm^3
# Si number density = 18.855507 Si / 1000 Ang^3
#
#
#
# Elastic Constant Matrix: (Units=GPa)
#
#
# Indices 1 2 3 4 5 6 
#
# 1 97.4341 33.3498 58.0956 0.0000 0.0000 0.0000
# 2 33.3498 41.4363 11.7601 0.0000 0.0000 0.0000
# 3 58.0956 11.7601 81.1894 0.0000 0.0000 0.0000
# 4 0.0000 0.0000 0.0000 -9.4170 0.0000 0.0000
# 5 0.0000 0.0000 0.0000 0.0000 34.4309 0.0000
# 6 0.0000 0.0000 0.0000 0.0000 0.0000 -14.4601
#
#
#
# Elastic Compliance Matrix: (Units=1/GPa)
#
#
# Indices 1 2 3 4 5 6 
#
# 1 0.024866 -0.015605 -0.015533 0.000000 0.000000 0.000000
# 2 -0.015605 0.034961 0.006102 0.000000 0.000000 0.000000
# 3 -0.015533 0.006102 0.022548 0.000000 0.000000 0.000000
# 4 0.000000 0.000000 0.000000 -0.106190 0.000000 0.000000
# 5 0.000000 0.000000 0.000000 0.000000 0.029044 0.000000
# 6 0.000000 0.000000 0.000000 0.000000 0.000000 -0.069156
#
#
# Mechanical properties :
#
#
# Convention : Reuss Voigt Hill
#
# Bulk Modulus (GPa) = 30.95623 47.38565 39.17094
# Shear Modulus (GPa) = -1618.54169 9.90106 -804.32032
#
# Velocity S-wave (km/s) = -29.33011 2.29400 -20.67599
# Velocity P-wave (km/s) = 33.62371 5.67468 23.43451
#
# Compressibility (1/GPa) = 0.03230367
#
# Stress axis : x y z
#
# Youngs Moduli (GPa) = 40.21548 28.60327 44.35078
#
# Poissons Ratio (x) = 0.44635 0.68889
# Poissons Ratio (y) = 0.62756 -0.27064
# Poissons Ratio (z) = 0.62466 -0.17454
#
# Static dielectric constant tensor:
#      x y z
#    x 1.664520 0.000000 0.000000 
#    y 0.000000 1.686860 0.000000 
#    z 0.000000 0.000000 1.904840 
# 
# From -- ./inp_files/38381.got.cif
#   From: 2010.05.17/outbox.cif.g08.bks.cpg/sg24_20_cif.got.tgz:38381.got - 2010.06.04 00:33:39.
