data_PCOD9334131
_publ_section_title
;
Structure prediction by ZEFSAII (Michael W. Deem and Ramdas Pophale) SiO2 
 PCOD9334131
Probable space group: I 21 21 21
;
_chemical_formula_sum "Si O2"
_cell_formula_units_Z 48
_cell_length_a 29.454384
_cell_length_b 14.790152
_cell_length_c 5.283092
_cell_angle_alpha 90.000000
_cell_angle_beta 90.000000
_cell_angle_gamma 90.000000
_cell_volume 2301.498814
_symmetry_space_group_name_H-M "I 21 21 21"
_symmetry_group_IT_number 24
_symmetry_cell_setting 'orthorhombic'
loop_
_space_group_symop_operation_xyz
x,y,z
-x,1/2-y,z
x,-y,1/2-z
1/2-x,y,-z
1/2+x,1/2+y,1/2+z
1/2-x,-y,1/2+z
1/2+x,1/2-y,-z
-x,1/2+y,1/2-z
loop_
_atom_site_type_symbol
_atom_site_label
_atom_site_fract_x
_atom_site_fract_y
_atom_site_fract_z
Si Si1 0.019592 0.607077 0.750237
Si Si2 0.969764 0.609231 0.253182
Si Si3 0.120593 0.328984 0.683451
Si Si4 0.300391 0.418913 0.582928
Si Si5 0.123378 0.208326 0.184523
Si Si6 0.778902 0.282569 0.249248
O O1 0.011807 0.500000 0.750000
O O2 0.073032 0.621935 0.775350
O O3 0.001252 0.642114 0.483450
O O4 0.990500 0.642698 0.987528
O O5 0.970638 0.500000 0.250000
O O6 0.918988 0.641744 0.307434
O O7 0.164928 0.391718 0.641054
O O8 0.115733 0.276839 0.417478
O O9 0.126584 0.260722 0.917467
O O10 0.320349 0.500000 0.750000
O O11 0.250000 0.448126 0.500000
O O12 0.291488 0.324770 0.732282
O O13 0.173039 0.166998 0.236446
O O14 0.750000 0.302494 0.500000
O O15 0.750000 0.298593 0.000000
#
# Coordination Sequence:
#
# PCOD9334131 Si02
#       6
#     8   8   8   8   8   8
#     4  10  22  38  56  82 117 152 186 231 285 338
#     4  10  22  40  61  84 111 146 187 234 293 354
#     4  11  24  37  57  86 116 154 196 238 286 335
#     4  10  21  35  54  80 113 155 201 241 276 325
#     4  11  22  38  60  85 112 148 192 237 286 342
#     4  10  20  36  55  79 111 146 185 230 283 334
#
# _framework density 20.855974
#
# number of rings (size 3 to 8) (size 9 to 14) (size 15 to 20)
#    0.000    1.667    0.000    5.500    0.000   10.667 
#    0.000    0.000    0.000    1.000    0.000    0.000 
#    0.000    0.000    0.000    0.000    0.000    0.000 
#
# Total GULP energy -134130.439953 kJ/mol
# GULP energy per Si atom -5588.768331 kJ/mol
# Density = 2.080850 g / cm^3
# Si number density = 20.855974 Si / 1000 Ang^3
#
#
#
# Elastic Constant Matrix: (Units=GPa)
#
#
# Indices 1 2 3 4 5 6 
#
# 1 170.1508 21.8617 69.0405 0.0000 0.0000 0.0000
# 2 21.8617 34.6496 24.2337 0.0000 0.0000 0.0000
# 3 69.0405 24.2337 116.9041 -0.0001 -0.0001 0.0009
# 4 0.0000 0.0000 -0.0001 5.9857 0.0000 -0.0002
# 5 0.0000 0.0000 -0.0001 0.0000 43.8305 -0.0001
# 6 0.0000 0.0000 0.0009 -0.0002 -0.0001 94.0621
#
#
#
# Elastic Compliance Matrix: (Units=1/GPa)
#
#
# Indices 1 2 3 4 5 6 
#
# 1 0.007846 -0.001999 -0.004219 0.000000 0.000000 0.000000
# 2 -0.001999 0.034264 -0.005922 0.000000 0.000000 0.000000
# 3 -0.004219 -0.005922 0.012273 0.000000 0.000000 0.000000
# 4 0.000000 0.000000 0.000000 0.167065 0.000000 0.000000
# 5 0.000000 0.000000 0.000000 0.000000 0.022815 0.000000
# 6 0.000000 0.000000 0.000000 0.000000 0.000000 0.010631
#
#
# Mechanical properties :
#
#
# Convention : Reuss Voigt Hill
#
# Bulk Modulus (GPa) = 33.22048 61.33069 47.27558
# Shear Modulus (GPa) = 17.28852 42.54690 29.91771
#
# Velocity S-wave (km/s) = 2.88227 4.52157 3.79158
# Velocity P-wave (km/s) = 5.19997 7.53194 6.47186
#
# Compressibility (1/GPa) = 0.03010192
#
# Stress axis : x y z
#
# Youngs Moduli (GPa) = 127.45329 29.18553 81.47757
#
# Poissons Ratio (x) = 0.05836 0.34377
# Poissons Ratio (y) = 0.25484 0.48250
# Poissons Ratio (z) = 0.53775 0.17283
#
# Static dielectric constant tensor:
#      x y z
#    x 1.763370 0.000000 0.000000 
#    y 0.000000 1.738580 0.000000 
#    z 0.000000 0.000000 1.781090 
# 
# From -- ./inp_files/7101.got.cif
#   From: 2010.05.17/outbox.cif.g08.bks.cpg/sg24_4_cif.got.tgz:7101.got - 2010.06.04 00:33:39.
