data_PCOD9334260
_publ_section_title
;
Structure prediction by ZEFSAII (Michael W. Deem and Ramdas Pophale) SiO2 
 PCOD9334260
Probable space group: I 21 21 21
;
_chemical_formula_sum "Si O2"
_cell_formula_units_Z 44
_cell_length_a 5.492228
_cell_length_b 22.950762
_cell_length_c 14.457788
_cell_angle_alpha 90.000000
_cell_angle_beta 90.000000
_cell_angle_gamma 90.000000
_cell_volume 1822.415999
_symmetry_space_group_name_H-M "I 21 21 21"
_symmetry_group_IT_number 24
_symmetry_cell_setting 'orthorhombic'
loop_
_space_group_symop_operation_xyz
x,y,z
-x,1/2-y,z
x,-y,1/2-z
1/2-x,y,-z
1/2+x,1/2+y,1/2+z
1/2-x,-y,1/2+z
1/2+x,1/2-y,-z
-x,1/2+y,1/2-z
loop_
_atom_site_type_symbol
_atom_site_label
_atom_site_fract_x
_atom_site_fract_y
_atom_site_fract_z
Si Si1 0.000000 0.250000 0.071892
Si Si2 0.497956 0.955330 0.177145
Si Si3 0.871580 0.134675 0.410568
Si Si4 0.997388 0.375655 0.041020
Si Si5 0.809814 0.354895 0.246132
Si Si6 0.750000 0.544266 0.000000
Si Si7 0.500000 0.750000 0.313972
O O1 0.007593 0.192187 0.010219
O O2 0.239850 0.257455 0.134489
O O3 0.679120 0.906034 0.141541
O O4 0.288968 0.918643 0.227941
O O5 0.382391 0.985680 0.086562
O O6 0.608974 0.000000 0.250000
O O7 0.750000 0.166062 0.500000
O O8 0.021068 0.167434 0.330556
O O9 0.053390 0.087869 0.456102
O O10 0.958244 0.366734 0.150998
O O11 0.750000 0.401969 0.000000
O O12 0.250000 0.400451 0.000000
O O13 0.580485 0.310442 0.236413
#
# Coordination Sequence:
#
# PCOD9334260 Si02
#       7
#     4   8   8   8   8   4   4
#     4  10  20  37  60  88 131 182 232 261 322 408
#     4  10  21  39  67  97 131 178 230 283 356 416
#     4   9  19  38  68  96 124 175 233 279 359 426
#     4  11  22  36  59  92 136 180 225 273 333 405
#     4  10  23  39  64  98 139 177 232 293 349 415
#     4   8  18  40  62  96 120 176 218 282 340 434
#     4  10  22  37  66 100 129 176 226 277 344 412
#
# _framework density 24.143772999999999
#
# number of rings (size 3 to 8) (size 9 to 14) (size 15 to 20)
#    0.000    2.182    0.000    2.727    7.636    3.636 
#    1.636    0.000    0.000    0.000   73.273    0.000 
#    0.000    0.000    0.000    0.000    0.000    0.000 
#
# Total GULP energy -122640.184271 kJ/mol
# GULP energy per Si atom -5574.553830 kJ/mol
# Density = 2.408882 g / cm^3
# Si number density = 24.143773 Si / 1000 Ang^3
#
#
#
# Elastic Constant Matrix: (Units=GPa)
#
#
# Indices 1 2 3 4 5 6 
#
# 1 166.5446 19.4806 84.6128 0.0000 0.0000 0.0000
# 2 19.4806 53.5735 24.5427 0.0000 0.0000 0.0000
# 3 84.6128 24.5427 156.5395 0.0000 0.0000 0.0000
# 4 0.0000 0.0000 0.0000 32.8605 0.0000 0.0000
# 5 0.0000 0.0000 0.0000 0.0000 63.6087 0.0000
# 6 0.0000 0.0000 0.0000 0.0000 0.0000 -12.1805
#
#
#
# Elastic Compliance Matrix: (Units=1/GPa)
#
#
# Indices 1 2 3 4 5 6 
#
# 1 0.008331 -0.001041 -0.004340 0.000000 0.000000 0.000000
# 2 -0.001041 0.020241 -0.002611 0.000000 0.000000 0.000000
# 3 -0.004340 -0.002611 0.009143 0.000000 0.000000 0.000000
# 4 0.000000 0.000000 0.000000 0.030432 0.000000 0.000000
# 5 0.000000 0.000000 0.000000 0.000000 0.015721 0.000000
# 6 0.000000 0.000000 0.000000 0.000000 0.000000 -0.082098
#
#
# Mechanical properties :
#
#
# Convention : Reuss Voigt Hill
#
# Bulk Modulus (GPa) = 46.01614 70.43664 58.22639
# Shear Modulus (GPa) = 200.02906 33.39250 116.71078
#
# Velocity S-wave (km/s) = 9.11202 3.72300 6.96023
# Velocity P-wave (km/s) = 11.39324 6.90783 9.42136
#
# Compressibility (1/GPa) = 0.02173150
#
# Stress axis : x y z
#
# Youngs Moduli (GPa) = 120.03299 49.40587 109.37052
#
# Poissons Ratio (x) = 0.05144 0.47465
# Poissons Ratio (y) = 0.12498 0.28552
# Poissons Ratio (z) = 0.52093 0.12898
#
# Static dielectric constant tensor:
#      x y z
#    x 1.783570 0.000000 0.000000 
#    y 0.000000 1.971680 0.000000 
#    z 0.000000 0.000000 2.127100 
# 
# From -- ./inp_files/23868.got.cif
#   From: 2010.05.17/outbox.cif.g08.bks.cpg/sg24_12_cif.got.tgz:23868.got - 2010.06.04 00:33:39.
