data_PCOD9334208
_publ_section_title
;
Structure prediction by ZEFSAII (Michael W. Deem and Ramdas Pophale) SiO2 
 PCOD9334208
Probable space group: I 21 21 21
;
_chemical_formula_sum "Si O2"
_cell_formula_units_Z 44
_cell_length_a 7.918186
_cell_length_b 25.812998
_cell_length_c 9.499920
_cell_angle_alpha 90.000000
_cell_angle_beta 90.000000
_cell_angle_gamma 90.000000
_cell_volume 1941.708783
_symmetry_space_group_name_H-M "I 21 21 21"
_symmetry_group_IT_number 24
_symmetry_cell_setting 'orthorhombic'
loop_
_space_group_symop_operation_xyz
x,y,z
-x,1/2-y,z
x,-y,1/2-z
1/2-x,y,-z
1/2+x,1/2+y,1/2+z
1/2-x,-y,1/2+z
1/2+x,1/2-y,-z
-x,1/2+y,1/2-z
loop_
_atom_site_type_symbol
_atom_site_label
_atom_site_fract_x
_atom_site_fract_y
_atom_site_fract_z
Si Si1 0.919457 0.023713 0.408494
Si Si2 0.500000 0.250000 0.055737
Si Si3 0.548577 0.079823 0.024235
Si Si4 0.883757 0.331385 0.166101
Si Si5 0.446876 0.862282 0.952881
Si Si6 0.508895 0.839576 0.253946
O O1 0.750000 0.032249 0.500000
O O2 0.012246 0.078594 0.409872
O O3 0.891678 0.000000 0.250000
O O4 0.013297 0.977933 0.494290
O O5 0.591125 0.207952 0.158653
O O6 0.592055 0.286192 0.943603
O O7 0.449291 0.118101 0.918751
O O8 0.750000 0.080231 0.000000
O O9 0.538770 0.104303 0.178401
O O10 0.981676 0.329024 0.313460
O O11 0.689859 0.332133 0.213501
O O12 0.545358 0.842321 0.089804
O O13 0.250000 0.860268 0.000000
#
# Coordination Sequence:
#
# PCOD9334208 Si02
#       6
#     8   4   8   8   8   8
#     4  11  24  41  61  92 131 168 207 252 306 365
#     4  10  20  36  64  86 112 154 198 246 312 368
#     4  10  21  36  60  88 122 165 206 245 300 365
#     4  10  21  42  62  89 122 158 200 262 304 364
#     4  10  23  42  64  91 125 163 207 256 306 361
#     4  10  23  40  63  91 122 157 204 257 312 361
#
# _framework density 22.660451999999999
#
# number of rings (size 3 to 8) (size 9 to 14) (size 15 to 20)
#    0.000    1.818    1.818    2.182    5.091    8.000 
#    0.000    0.000    0.000    0.000    0.000    0.000 
#    0.000    0.000    0.000    0.000    0.000    0.000 
#
# Total GULP energy -122707.936112 kJ/mol
# GULP energy per Si atom -5577.633460 kJ/mol
# Density = 2.260888 g / cm^3
# Si number density = 22.660452 Si / 1000 Ang^3
#
#
#
# Elastic Constant Matrix: (Units=GPa)
#
#
# Indices 1 2 3 4 5 6 
#
# 1 16.3157 16.8694 10.8780 0.0002 0.0001 0.0001
# 2 16.8694 102.7038 54.1552 0.0003 -0.0001 -0.0002
# 3 10.8780 54.1552 199.5221 0.0007 -0.0003 0.0010
# 4 0.0002 0.0003 0.0007 51.3343 -0.0002 0.0002
# 5 0.0001 -0.0001 -0.0003 -0.0002 24.1636 0.0000
# 6 0.0001 -0.0002 0.0010 0.0002 0.0000 1.6061
#
#
#
# Elastic Compliance Matrix: (Units=1/GPa)
#
#
# Indices 1 2 3 4 5 6 
#
# 1 0.073954 -0.011695 -0.000858 0.000000 0.000000 -0.000003
# 2 -0.011695 0.013212 -0.002949 0.000000 0.000000 0.000003
# 3 -0.000858 -0.002949 0.005859 0.000000 0.000000 -0.000004
# 4 0.000000 0.000000 0.000000 0.019480 0.000000 -0.000002
# 5 0.000000 0.000000 0.000000 0.000000 0.041385 0.000001
# 6 -0.000003 0.000003 -0.000004 -0.000002 0.000001 0.622628
#
#
# Mechanical properties :
#
#
# Convention : Reuss Voigt Hill
#
# Bulk Modulus (GPa) = 16.12297 53.59409 34.85853
# Shear Modulus (GPa) = 6.03722 31.19674 18.61698
#
# Velocity S-wave (km/s) = 1.63401 3.71442 2.86940
# Velocity P-wave (km/s) = 3.26963 6.48831 5.13754
#
# Compressibility (1/GPa) = 0.06202332
#
# Stress axis : x y z
#
# Youngs Moduli (GPa) = 13.52186 75.68625 170.67614
#
# Poissons Ratio (x) = 0.88515 0.14639
# Poissons Ratio (y) = 0.15814 0.50325
# Poissons Ratio (z) = 0.01160 0.22317
#
# Static dielectric constant tensor:
#      x y z
#    x 1.929030 0.000000 0.000000 
#    y 0.000000 1.874770 0.000000 
#    z 0.000000 0.000000 1.929650 
# 
# From -- ./inp_files/9637.got.cif
#   From: 2010.05.17/outbox.cif.g08.bks.cpg/sg24_5_cif.got.tgz:9637.got - 2010.06.04 00:33:39.
