data_PCOD9334921
_publ_section_title
;
Structure prediction by ZEFSAII (Michael W. Deem and Ramdas Pophale) SiO2 
 PCOD9334921
Probable space group: I 21 21 21
;
_chemical_formula_sum "Si O2"
_cell_formula_units_Z 56
_cell_length_a 25.315564
_cell_length_b 17.469966
_cell_length_c 5.276403
_cell_angle_alpha 90.000000
_cell_angle_beta 90.000000
_cell_angle_gamma 90.000000
_cell_volume 2333.552767
_symmetry_space_group_name_H-M "I 21 21 21"
_symmetry_group_IT_number 24
_symmetry_cell_setting 'orthorhombic'
loop_
_space_group_symop_operation_xyz
x,y,z
-x,1/2-y,z
x,-y,1/2-z
1/2-x,y,-z
1/2+x,1/2+y,1/2+z
1/2-x,-y,1/2+z
1/2+x,1/2-y,-z
-x,1/2+y,1/2-z
loop_
_atom_site_type_symbol
_atom_site_label
_atom_site_fract_x
_atom_site_fract_y
_atom_site_fract_z
Si Si1 0.667697 0.417195 0.802285
Si Si2 0.809556 0.918630 0.104376
Si Si3 0.945526 0.796476 0.211388
Si Si4 0.422507 0.547753 0.009088
Si Si5 0.438063 0.761613 0.277784
Si Si6 0.214707 0.253912 0.247873
Si Si7 0.602301 0.578750 0.204601
O O1 0.696125 0.500000 0.750000
O O2 0.690670 0.331858 0.770500
O O3 0.621081 0.417971 0.586799
O O4 0.650987 0.423369 0.096930
O O5 0.862045 0.925535 0.931107
O O6 0.816278 0.835779 0.239659
O O7 0.810071 0.000000 0.250000
O O8 0.750000 0.915761 0.000000
O O9 0.954966 0.878047 0.082042
O O10 0.920478 0.790852 0.489379
O O11 0.000000 0.750000 0.251420
O O12 0.911850 0.755210 0.992814
O O13 0.420765 0.500000 0.750000
O O14 0.441629 0.500000 0.250000
O O15 0.500000 0.750000 0.239801
O O16 0.429234 0.850239 0.315255
O O17 0.250000 0.251932 0.500000
O O18 0.250000 0.262148 0.000000
O O19 0.572023 0.500000 0.250000
#
# Coordination Sequence:
#
# PCOD9334921 Si02
#       7
#     8   8   8   8   8   8   8
#     4  10  22  40  62  94 127 167 211 269 323 387
#     4  10  22  40  64  93 136 175 222 280 338 392
#     4  10  22  42  63  94 129 167 216 272 340 398
#     4  11  24  42  66  98 130 176 228 272 338 413
#     4  10  21  38  62  92 123 163 214 259 335 394
#     4  11  24  40  61  95 128 170 221 262 331 400
#     4  10  21  38  62  90 125 162 213 261 324 389
#
# _framework density 23.997741000000001
#
# number of rings (size 3 to 8) (size 9 to 14) (size 15 to 20)
#    0.000    1.714    0.000    3.429    4.000    4.000 
#    0.000    8.571    0.000    0.000    0.000    0.000 
#    0.000    0.000    0.000    0.000    0.000    0.000 
#
# Total GULP energy -155983.988976 kJ/mol
# GULP energy per Si atom -5570.856749 kJ/mol
# Density = 2.394312 g / cm^3
# Si number density = 23.997741 Si / 1000 Ang^3
#
#
#
# Elastic Constant Matrix: (Units=GPa)
#
#
# Indices 1 2 3 4 5 6 
#
# 1 49.0018 30.2250 10.4870 0.0000 0.0000 0.0000
# 2 30.2250 185.5759 7.3873 0.0000 0.0000 0.0000
# 3 10.4870 7.3873 140.5863 0.0000 0.0000 0.0000
# 4 0.0000 0.0000 0.0000 44.5555 0.0000 0.0000
# 5 0.0000 0.0000 0.0000 0.0000 -79.5407 0.0000
# 6 0.0000 0.0000 0.0000 0.0000 0.0000 -2.5884
#
#
#
# Elastic Compliance Matrix: (Units=1/GPa)
#
#
# Indices 1 2 3 4 5 6 
#
# 1 0.023007 -0.003687 -0.001522 0.000000 0.000000 0.000000
# 2 -0.003687 0.005991 -0.000040 0.000000 0.000000 0.000000
# 3 -0.001522 -0.000040 0.007229 0.000000 0.000000 0.000000
# 4 0.000000 0.000000 0.000000 0.022444 0.000000 0.000000
# 5 0.000000 0.000000 0.000000 0.000000 -0.012572 0.000000
# 6 0.000000 0.000000 0.000000 0.000000 0.000000 -0.386341
#
#
# Mechanical properties :
#
#
# Convention : Reuss Voigt Hill
#
# Bulk Modulus (GPa) = 38.86692 52.37360 45.62026
# Shear Modulus (GPa) = -15.56816 14.28958 -0.63929
#
# Velocity S-wave (km/s) = -2.54979 2.44284 -0.51670
# Velocity P-wave (km/s) = 2.75003 5.46154 4.32383
#
# Compressibility (1/GPa) = 0.02572882
#
# Stress axis : x y z
#
# Youngs Moduli (GPa) = 43.46464 166.92658 138.33687
#
# Poissons Ratio (x) = 0.61539 0.21062
# Poissons Ratio (y) = 0.16024 0.00550
# Poissons Ratio (z) = 0.06617 0.00664
#
# Static dielectric constant tensor:
#      x y z
#    x 1.927890 0.000000 0.000000 
#    y 0.000000 2.275670 0.000000 
#    z 0.000000 0.000000 2.006060 
# 
# From -- ./inp_files/7750.got.cif
#   From: 2010.05.17/outbox.cif.g08.bks.cpg/sg24_4_cif.got.tgz:7750.got - 2010.06.04 00:33:39.
