data_PCOD9334129
_publ_section_title
;
Structure prediction by ZEFSAII (Michael W. Deem and Ramdas Pophale) SiO2 
 PCOD9334129
Probable space group: I 21 21 21
;
_chemical_formula_sum "Si O2"
_cell_formula_units_Z 48
_cell_length_a 7.416627
_cell_length_b 8.162445
_cell_length_c 38.434779
_cell_angle_alpha 90.000000
_cell_angle_beta 90.000000
_cell_angle_gamma 90.000000
_cell_volume 2326.757347
_symmetry_space_group_name_H-M "I 21 21 21"
_symmetry_group_IT_number 24
_symmetry_cell_setting 'orthorhombic'
loop_
_space_group_symop_operation_xyz
x,y,z
-x,1/2-y,z
x,-y,1/2-z
1/2-x,y,-z
1/2+x,1/2+y,1/2+z
1/2-x,-y,1/2+z
1/2+x,1/2-y,-z
-x,1/2+y,1/2-z
loop_
_atom_site_type_symbol
_atom_site_label
_atom_site_fract_x
_atom_site_fract_y
_atom_site_fract_z
Si Si1 0.785468 0.072656 0.416794
Si Si2 0.487234 0.555473 0.210281
Si Si3 0.227057 0.932725 0.344989
Si Si4 0.725009 0.434751 0.579996
Si Si5 0.284635 0.743300 0.540696
Si Si6 0.807258 0.954091 0.342031
O O1 0.721363 0.250090 0.429625
O O2 0.004888 0.067248 0.419301
O O3 0.718020 0.914897 0.437934
O O4 0.744239 0.053770 0.375913
O O5 0.500000 0.750000 0.208537
O O6 0.499089 0.500000 0.250000
O O7 0.644078 0.478002 0.186592
O O8 0.302477 0.499978 0.192030
O O9 0.225055 0.737182 0.350551
O O10 0.020247 0.980969 0.337417
O O11 0.283092 0.019789 0.380832
O O12 0.784642 0.582816 0.555181
O O13 0.500000 0.750000 0.546066
O O14 0.250000 0.724743 0.500000
#
# Coordination Sequence:
#
# PCOD9334129 Si02
#       6
#     8   8   8   8   8   8
#     4   9  17  33  58  83 111 153 203 250 300 365
#     4  12  26  42  60  90 130 166 206 259 321 376
#     4  10  20  39  66  92 119 159 209 259 313 373
#     4   9  17  33  58  83 111 153 203 250 300 365
#     4  10  20  36  54  80 116 152 194 250 314 368
#     4  10  20  39  66  92 119 159 209 259 313 373
#
# _framework density 20.629567999999999
#
# number of rings (size 3 to 8) (size 9 to 14) (size 15 to 20)
#    0.000    2.000    1.667    2.500    0.000    3.333 
#    3.000    0.000    0.000    0.000    0.000    0.000 
#    0.000    0.000    0.000    0.000    0.000    0.000 
#
# Total GULP energy -134151.314524 kJ/mol
# GULP energy per Si atom -5589.638105 kJ/mol
# Density = 2.058261 g / cm^3
# Si number density = 20.629568 Si / 1000 Ang^3
#
#
#
# Elastic Constant Matrix: (Units=GPa)
#
#
# Indices 1 2 3 4 5 6 
#
# 1 42.6473 -12.1752 -14.1438 0.0000 0.0000 0.0000
# 2 -12.1752 65.3273 -1.7270 0.0000 0.0000 0.0000
# 3 -14.1438 -1.7270 75.6112 0.0000 0.0000 0.0000
# 4 0.0000 0.0000 0.0000 25.3804 0.0000 0.0000
# 5 0.0000 0.0000 0.0000 0.0000 25.5266 0.0000
# 6 0.0000 0.0000 0.0000 0.0000 0.0000 10.8011
#
#
#
# Elastic Compliance Matrix: (Units=1/GPa)
#
#
# Indices 1 2 3 4 5 6 
#
# 1 0.026589 0.005090 0.005090 0.000000 0.000000 0.000000
# 2 0.005090 0.016291 0.001324 0.000000 0.000000 0.000000
# 3 0.005090 0.001324 0.014208 0.000000 0.000000 0.000000
# 4 0.000000 0.000000 0.000000 0.039400 0.000000 0.000000
# 5 0.000000 0.000000 0.000000 0.000000 0.039175 0.000000
# 6 0.000000 0.000000 0.000000 0.000000 0.000000 0.092583
#
#
# Mechanical properties :
#
#
# Convention : Reuss Voigt Hill
#
# Bulk Modulus (GPa) = 12.48479 14.16596 13.32538
# Shear Modulus (GPa) = 21.55755 26.45042 24.00398
#
# Velocity S-wave (km/s) = 3.23613 3.58461 3.41482
# Velocity P-wave (km/s) = 4.47531 4.90044 4.69269
#
# Compressibility (1/GPa) = 0.08009744
#
# Stress axis : x y z
#
# Youngs Moduli (GPa) = 37.60894 61.38285 70.38311
#
# Poissons Ratio (x) = -0.31244 -0.35826
# Poissons Ratio (y) = -0.19143 -0.09321
# Poissons Ratio (z) = -0.19143 -0.08129
#
# Static dielectric constant tensor:
#      x y z
#    x 1.759710 0.000000 0.000000 
#    y 0.000000 1.746080 0.000000 
#    z 0.000000 0.000000 1.681500 
# 
# From -- ./inp_files/38277.got.cif
#   From: 2010.05.17/outbox.cif.g08.bks.cpg/sg24_20_cif.got.tgz:38277.got - 2010.06.04 00:33:39.
