data_PCOD9334109
_publ_section_title
;
Structure prediction by ZEFSAII (Michael W. Deem and Ramdas Pophale) SiO2 
 PCOD9334109
Probable space group: I 21 21 21
;
_chemical_formula_sum "Si O2"
_cell_formula_units_Z 64
_cell_length_a 18.288688
_cell_length_b 12.916526
_cell_length_c 12.411272
_cell_angle_alpha 90.000000
_cell_angle_beta 90.000000
_cell_angle_gamma 90.000000
_cell_volume 2931.869037
_symmetry_space_group_name_H-M "I 21 21 21"
_symmetry_group_IT_number 24
_symmetry_cell_setting 'orthorhombic'
loop_
_space_group_symop_operation_xyz
x,y,z
-x,1/2-y,z
x,-y,1/2-z
1/2-x,y,-z
1/2+x,1/2+y,1/2+z
1/2-x,-y,1/2+z
1/2+x,1/2-y,-z
-x,1/2+y,1/2-z
loop_
_atom_site_type_symbol
_atom_site_label
_atom_site_fract_x
_atom_site_fract_y
_atom_site_fract_z
Si Si1 0.616469 0.595397 0.180438
Si Si2 0.335169 0.270266 0.781079
Si Si3 0.069867 0.923371 0.056246
Si Si4 0.410706 0.746874 0.362900
Si Si5 0.571919 0.074484 0.647288
Si Si6 0.268387 0.139546 0.617664
Si Si7 0.666163 0.919244 0.511150
Si Si8 0.062486 0.839877 0.424570
O O1 0.586372 0.500000 0.250000
O O2 0.613508 0.698561 0.253061
O O3 0.699552 0.567192 0.144375
O O4 0.574099 0.606954 0.068584
O O5 0.373481 0.340182 0.692519
O O6 0.269920 0.218756 0.716793
O O7 0.325501 0.338220 0.888614
O O8 0.386821 0.179084 0.823316
O O9 0.151113 0.909822 0.104232
O O10 0.002716 0.869632 0.114488
O O11 0.041396 0.041665 0.069442
O O12 0.500000 0.750000 0.357293
O O13 0.371923 0.641210 0.408844
O O14 0.394432 0.822062 0.463954
O O15 0.559047 0.000000 0.750000
O O16 0.612973 0.009394 0.553923
O O17 0.250000 0.186766 0.500000
O O18 0.750000 0.956453 0.500000
O O19 0.000000 0.750000 0.418695
#
# Coordination Sequence:
#
# PCOD9334109 Si02
#       8
#     8   8   8   8   8   8   8   8
#     4  11  23  41  62  91 135 171 215 273 327 395
#     4  10  22  38  62  91 127 165 214 266 334 383
#     4  11  23  41  61  91 131 167 223 266 327 396
#     4  10  20  40  67  93 132 168 216 269 325 388
#     4  10  22  40  66  95 129 165 220 281 325 382
#     4  10  25  41  56  89 132 176 214 263 331 400
#     4  10  21  40  69 101 125 164 221 275 332 393
#     4  10  20  35  61  95 119 159 212 272 322 380
#
# _framework density 21.829079
#
# number of rings (size 3 to 8) (size 9 to 14) (size 15 to 20)
#    0.000    1.750    1.250    3.750    5.250    0.500 
#    4.500    0.000    8.250    0.000    0.000    0.000 
#    0.000    0.000    0.000    0.000    0.000    0.000 
#
# Total GULP energy -178315.896772 kJ/mol
# GULP energy per Si atom -5572.371774 kJ/mol
# Density = 2.177939 g / cm^3
# Si number density = 21.829079 Si / 1000 Ang^3
#
#
#
# Elastic Constant Matrix: (Units=GPa)
#
#
# Indices 1 2 3 4 5 6 
#
# 1 132.2682 19.0895 32.3052 0.0000 0.0000 0.0000
# 2 19.0895 56.3345 30.6271 0.0000 0.0000 0.0000
# 3 32.3052 30.6271 68.6228 0.0000 0.0000 0.0000
# 4 0.0000 0.0000 0.0000 14.0837 0.0000 0.0000
# 5 0.0000 0.0000 0.0000 0.0000 21.5674 0.0000
# 6 0.0000 0.0000 0.0000 0.0000 0.0000 18.2839
#
#
#
# Elastic Compliance Matrix: (Units=1/GPa)
#
#
# Indices 1 2 3 4 5 6 
#
# 1 0.008580 -0.000939 -0.003620 0.000000 0.000000 0.000000
# 2 -0.000939 0.023541 -0.010064 0.000000 0.000000 0.000000
# 3 -0.003620 -0.010064 0.020768 0.000000 0.000000 0.000000
# 4 0.000000 0.000000 0.000000 0.071004 0.000000 0.000000
# 5 0.000000 0.000000 0.000000 0.000000 0.046366 0.000000
# 6 0.000000 0.000000 0.000000 0.000000 0.000000 0.054693
#
#
# Mechanical properties :
#
#
# Convention : Reuss Voigt Hill
#
# Bulk Modulus (GPa) = 42.29741 46.80765 44.55253
# Shear Modulus (GPa) = 19.07805 22.46724 20.77265
#
# Velocity S-wave (km/s) = 2.95951 3.21165 3.08816
# Velocity P-wave (km/s) = 5.57647 5.93652 5.75931
#
# Compressibility (1/GPa) = 0.02364211
#
# Stress axis : x y z
#
# Youngs Moduli (GPa) = 116.54857 42.47893 48.15009
#
# Poissons Ratio (x) = 0.03991 0.17430
# Poissons Ratio (y) = 0.10949 0.48460
# Poissons Ratio (z) = 0.42190 0.42752
#
# Static dielectric constant tensor:
#      x y z
#    x 1.531410 0.000000 0.000000 
#    y 0.000000 2.023190 0.000000 
#    z 0.000000 0.000000 1.808590 
# 
# From -- ./inp_files/21709.got.cif
#   From: 2010.05.17/outbox.cif.g08.bks.cpg/sg24_11_cif.got.tgz:21709.got - 2010.06.04 00:33:39.
