data_PCOD9334693
_publ_section_title
;
Structure prediction by ZEFSAII (Michael W. Deem and Ramdas Pophale) SiO2 
 PCOD9334693
Probable space group: I 21 21 21
;
_chemical_formula_sum "Si O2"
_cell_formula_units_Z 48
_cell_length_a 23.166321
_cell_length_b 10.834687
_cell_length_c 9.054761
_cell_angle_alpha 90.000000
_cell_angle_beta 90.000000
_cell_angle_gamma 90.000000
_cell_volume 2272.743535
_symmetry_space_group_name_H-M "I 21 21 21"
_symmetry_group_IT_number 24
_symmetry_cell_setting 'orthorhombic'
loop_
_space_group_symop_operation_xyz
x,y,z
-x,1/2-y,z
x,-y,1/2-z
1/2-x,y,-z
1/2+x,1/2+y,1/2+z
1/2-x,-y,1/2+z
1/2+x,1/2-y,-z
-x,1/2+y,1/2-z
loop_
_atom_site_type_symbol
_atom_site_label
_atom_site_fract_x
_atom_site_fract_y
_atom_site_fract_z
Si Si1 0.262923 0.733594 0.707396
Si Si2 0.828410 0.565617 0.461343
Si Si3 0.616809 0.500000 0.250000
Si Si4 0.427041 0.000000 0.750000
Si Si5 0.750000 0.975476 0.500000
Si Si6 0.058401 0.185367 0.508738
Si Si7 0.250000 0.842202 0.000000
Si Si8 0.362683 0.395349 0.641614
O O1 0.279660 0.852825 0.614996
O O2 0.231949 0.621564 0.627142
O O3 0.232491 0.765315 0.859193
O O4 0.326701 0.685186 0.743356
O O5 0.845182 0.579818 0.633197
O O6 0.885317 0.573473 0.362573
O O7 0.802901 0.427509 0.451902
O O8 0.583272 0.594876 0.138886
O O9 0.455090 0.098888 0.636640
O O10 0.691780 0.045355 0.550086
O O11 0.099368 0.299652 0.453997
O O12 0.000000 0.250000 0.561477
O O13 0.391157 0.500000 0.750000
#
# Coordination Sequence:
#
# PCOD9334693 Si02
#       8
#     8   8   4   4   4   8   4   8
#     4  11  21  39  59  92 142 184 232 276 337 422
#     4  11  21  38  60  98 137 183 230 287 346 424
#     4  10  26  43  66 100 140 177 226 298 378 422
#     4  10  20  43  70 102 122 173 236 296 368 416
#     4  10  24  40  62  88 146 191 231 278 350 432
#     4  11  24  48  78 101 137 175 241 312 368 438
#     4  12  22  32  62  98 142 179 231 286 334 404
#     4  10  22  44  69 100 137 184 237 292 346 427
#
# _framework density 21.119848999999999
#
# number of rings (size 3 to 8) (size 9 to 14) (size 15 to 20)
#    0.000    1.333    3.333    2.000    5.833    0.000 
#    6.000    6.667    0.000    0.000    0.000    0.000 
#    0.000    0.000    0.000    0.000    0.000    0.000 
#
# Total GULP energy -133663.304273 kJ/mol
# GULP energy per Si atom -5569.304345 kJ/mol
# Density = 2.107178 g / cm^3
# Si number density = 21.119849 Si / 1000 Ang^3
#
#
#
# Elastic Constant Matrix: (Units=GPa)
#
#
# Indices 1 2 3 4 5 6 
#
# 1 56.4826 39.2106 33.7235 0.0000 0.0000 0.0000
# 2 39.2106 126.6555 68.9200 0.0000 0.0000 0.0000
# 3 33.7235 68.9200 154.0318 0.0000 0.0000 0.0000
# 4 0.0000 0.0000 0.0000 -173.4172 0.0000 0.0000
# 5 0.0000 0.0000 0.0000 0.0000 23.9059 0.0000
# 6 0.0000 0.0000 0.0000 0.0000 0.0000 -26.6738
#
#
#
# Elastic Compliance Matrix: (Units=1/GPa)
#
#
# Indices 1 2 3 4 5 6 
#
# 1 0.023241 -0.005851 -0.002471 0.000000 0.000000 0.000000
# 2 -0.005851 0.011909 -0.004048 0.000000 0.000000 0.000000
# 3 -0.002471 -0.004048 0.008844 0.000000 0.000000 0.000000
# 4 0.000000 0.000000 0.000000 -0.005766 0.000000 0.000000
# 5 0.000000 0.000000 0.000000 0.000000 0.041831 0.000000
# 6 0.000000 0.000000 0.000000 0.000000 0.000000 -0.037490
#
#
# Mechanical properties :
#
#
# Convention : Reuss Voigt Hill
#
# Bulk Modulus (GPa) = 51.93012 68.98646 60.45829
# Shear Modulus (GPa) = 67.81847 -22.21598 22.80124
#
# Velocity S-wave (km/s) = 5.67283 -3.24682 3.28931
# Velocity P-wave (km/s) = 8.21886 4.32197 6.56616
#
# Compressibility (1/GPa) = 0.01925665
#
# Stress axis : x y z
#
# Youngs Moduli (GPa) = 43.02692 83.96762 113.06861
#
# Poissons Ratio (x) = 0.49128 0.27934
# Poissons Ratio (y) = 0.25174 0.45767
# Poissons Ratio (z) = 0.10630 0.33988
#
# Static dielectric constant tensor:
#      x y z
#    x 2.638780 0.000000 0.000000 
#    y 0.000000 1.879130 0.000000 
#    z 0.000000 0.000000 1.934900 
# 
# From -- ./inp_files/16382.got.cif
#   From: 2010.05.17/outbox.cif.g08.bks.cpg/sg24_9_cif.got.tgz:16382.got - 2010.06.04 00:33:39.
