data_PCOD9334518
_publ_section_title
;
Structure prediction by ZEFSAII (Michael W. Deem and Ramdas Pophale) SiO2 
 PCOD9334518
Probable space group: I 21 21 21
;
_chemical_formula_sum "Si O2"
_cell_formula_units_Z 64
_cell_length_a 11.566854
_cell_length_b 17.364177
_cell_length_c 15.209638
_cell_angle_alpha 90.000000
_cell_angle_beta 90.000000
_cell_angle_gamma 90.000000
_cell_volume 3054.839065
_symmetry_space_group_name_H-M "I 21 21 21"
_symmetry_group_IT_number 24
_symmetry_cell_setting 'orthorhombic'
loop_
_space_group_symop_operation_xyz
x,y,z
-x,1/2-y,z
x,-y,1/2-z
1/2-x,y,-z
1/2+x,1/2+y,1/2+z
1/2-x,-y,1/2+z
1/2+x,1/2-y,-z
-x,1/2+y,1/2-z
loop_
_atom_site_type_symbol
_atom_site_label
_atom_site_fract_x
_atom_site_fract_y
_atom_site_fract_z
Si Si1 0.018869 0.926011 0.069421
Si Si2 0.088675 0.183508 0.065882
Si Si3 0.960509 0.369809 0.625399
Si Si4 0.091238 0.684757 0.213264
Si Si5 0.650709 0.232925 0.301275
Si Si6 0.836614 0.667388 0.624030
Si Si7 0.242584 0.008936 0.651679
Si Si8 0.541394 0.057438 0.832111
O O1 0.976596 0.860589 0.136498
O O2 0.151565 0.955126 0.092788
O O3 0.006121 0.897553 0.971056
O O4 0.934574 0.998507 0.089565
O O5 0.216861 0.206426 0.093717
O O6 0.000000 0.250000 0.083153
O O7 0.059317 0.109763 0.125924
O O8 0.082028 0.169421 0.961253
O O9 0.888474 0.290739 0.622095
O O10 0.867599 0.433631 0.656842
O O11 0.071190 0.343581 0.685174
O O12 0.214438 0.718195 0.188286
O O13 0.120234 0.623066 0.290122
O O14 0.000000 0.750000 0.239299
O O15 0.629826 0.284531 0.211761
O O16 0.806261 0.576146 0.630116
O O17 0.289030 0.000000 0.750000
O O18 0.521398 0.000000 0.750000
#
# Coordination Sequence:
#
# PCOD9334518 Si02
#       8
#     8   8   8   8   8   8   8   8
#     4  11  24  41  68 105 139 180 237 307 346 407
#     4  11  23  38  67 104 138 172 228 297 354 407
#     4  11  26  44  67 100 148 194 231 288 358 444
#     4  11  23  39  72 104 136 184 235 300 362 414
#     4  11  25  47  67  99 149 192 236 280 366 448
#     4  11  24  41  68 104 135 184 233 297 349 419
#     4  12  22  41  70 104 135 180 247 297 356 413
#     4  10  20  39  67  99 136 167 222 298 356 400
#
# _framework density 20.950368000000001
#
# number of rings (size 3 to 8) (size 9 to 14) (size 15 to 20)
#    0.000    1.000    2.500    4.875    5.250    0.500 
#    0.000    1.875    0.000    9.000    0.000    0.000 
#    0.000    0.000    0.000    0.000    0.000    0.000 
#
# Total GULP energy -178137.056216 kJ/mol
# GULP energy per Si atom -5566.783007 kJ/mol
# Density = 2.090268 g / cm^3
# Si number density = 20.950368 Si / 1000 Ang^3
#
#
#
# Elastic Constant Matrix: (Units=GPa)
#
#
# Indices 1 2 3 4 5 6 
#
# 1 102.8870 55.8076 21.8278 0.0000 0.0000 0.0000
# 2 55.8076 119.0823 40.0255 0.0000 0.0000 0.0000
# 3 21.8278 40.0255 94.4637 0.0000 0.0000 0.0000
# 4 0.0000 0.0000 0.0000 35.0001 0.0000 0.0000
# 5 0.0000 0.0000 0.0000 0.0000 14.1335 0.0000
# 6 0.0000 0.0000 0.0000 0.0000 0.0000 34.8642
#
#
#
# Elastic Compliance Matrix: (Units=1/GPa)
#
#
# Indices 1 2 3 4 5 6 
#
# 1 0.013052 -0.005951 -0.000495 0.000000 0.000000 0.000000
# 2 -0.005951 0.012505 -0.003924 0.000000 0.000000 0.000000
# 3 -0.000495 -0.003924 0.012363 0.000000 0.000000 0.000000
# 4 0.000000 0.000000 0.000000 0.028571 0.000000 0.000000
# 5 0.000000 0.000000 0.000000 0.000000 0.070754 0.000000
# 6 0.000000 0.000000 0.000000 0.000000 0.000000 0.028683
#
#
# Mechanical properties :
#
#
# Convention : Reuss Voigt Hill
#
# Bulk Modulus (GPa) = 58.19892 61.30610 59.75251
# Shear Modulus (GPa) = 25.98848 30.05102 28.01975
#
# Velocity S-wave (km/s) = 3.52586 3.79144 3.66106
# Velocity P-wave (km/s) = 6.66448 6.96368 6.81572
#
# Compressibility (1/GPa) = 0.01718245
#
# Stress axis : x y z
#
# Youngs Moduli (GPa) = 76.61661 79.96789 80.88766
#
# Poissons Ratio (x) = 0.47585 0.04001
# Poissons Ratio (y) = 0.45591 0.31737
# Poissons Ratio (z) = 0.03790 0.31376
#
# Static dielectric constant tensor:
#      x y z
#    x 1.767990 0.000000 0.000000 
#    y 0.000000 1.855650 0.000000 
#    z 0.000000 0.000000 1.830500 
# 
# From -- ./inp_files/26041.got.cif
#   From: 2010.05.17/outbox.cif.g08.bks.cpg/sg24_14_cif.got.tgz:26041.got - 2010.06.04 00:33:39.
