data_PCOD9334200
_publ_section_title
;
Structure prediction by ZEFSAII (Michael W. Deem and Ramdas Pophale) SiO2 
 PCOD9334200
Probable space group: I 21 21 21
;
_chemical_formula_sum "Si O2"
_cell_formula_units_Z 64
_cell_length_a 29.145942
_cell_length_b 8.569691
_cell_length_c 12.650123
_cell_angle_alpha 90.000000
_cell_angle_beta 90.000000
_cell_angle_gamma 90.000000
_cell_volume 3159.642940
_symmetry_space_group_name_H-M "I 21 21 21"
_symmetry_group_IT_number 24
_symmetry_cell_setting 'orthorhombic'
loop_
_space_group_symop_operation_xyz
x,y,z
-x,1/2-y,z
x,-y,1/2-z
1/2-x,y,-z
1/2+x,1/2+y,1/2+z
1/2-x,-y,1/2+z
1/2+x,1/2-y,-z
-x,1/2+y,1/2-z
loop_
_atom_site_type_symbol
_atom_site_label
_atom_site_fract_x
_atom_site_fract_y
_atom_site_fract_z
Si Si1 0.448452 0.818133 0.742295
Si Si2 0.351272 0.851240 0.132691
Si Si3 0.281458 0.649782 0.408856
Si Si4 0.316282 0.641079 0.961132
Si Si5 0.905997 0.073394 0.364298
Si Si6 0.622248 0.295308 0.143428
Si Si7 0.551347 0.187678 0.979349
Si Si8 0.753596 0.328730 0.293083
O O1 0.500000 0.750000 0.749473
O O2 0.417940 0.750908 0.837300
O O3 0.429404 0.774160 0.625898
O O4 0.452070 0.000000 0.750000
O O5 0.375230 0.765987 0.231207
O O6 0.297169 0.868683 0.162145
O O7 0.373769 0.019793 0.125275
O O8 0.349708 0.752534 0.027618
O O9 0.250000 0.721773 0.500000
O O10 0.291817 0.472977 0.451968
O O11 0.331237 0.723662 0.402392
O O12 0.255984 0.699058 0.299673
O O13 0.352894 0.543432 0.892386
O O14 0.284364 0.745756 0.883949
O O15 0.916824 0.000000 0.250000
O O16 0.939656 0.992298 0.448211
O O17 0.579629 0.226580 0.082843
O O18 0.500000 0.250000 0.990329
O O19 0.770946 0.500000 0.250000
#
# Coordination Sequence:
#
# PCOD9334200 Si02
#       8
#     8   8   8   8   8   8   8   8
#     4  10  20  36  62  93 127 171 211 267 340 415
#     4  10  22  43  64  90 122 174 217 276 334 410
#     4  11  24  40  65  92 129 177 219 276 339 392
#     4  12  26  40  67  95 135 173 228 280 339 412
#     4  10  23  41  57  96 138 163 217 278 331 405
#     4  10  21  41  67  88 127 167 223 272 341 401
#     4  10  20  40  69  92 126 176 220 277 346 413
#     4  11  24  43  64  96 131 180 234 279 333 414
#
# _framework density 20.255454
#
# number of rings (size 3 to 8) (size 9 to 14) (size 15 to 20)
#    0.000    1.500    3.750    3.000    5.250    4.500 
#    0.000    0.000    5.500    0.000    0.000    0.000 
#    0.000    0.000    0.000    0.000    0.000    0.000 
#
# Total GULP energy -178366.898703 kJ/mol
# GULP energy per Si atom -5573.965584 kJ/mol
# Density = 2.020935 g / cm^3
# Si number density = 20.255454 Si / 1000 Ang^3
#
#
#
# Elastic Constant Matrix: (Units=GPa)
#
#
# Indices 1 2 3 4 5 6 
#
# 1 63.3791 28.3509 49.6010 0.0000 0.0000 0.0000
# 2 28.3509 94.9926 42.1332 0.0000 0.0000 0.0000
# 3 49.6010 42.1332 109.6708 0.0000 0.0000 0.0000
# 4 0.0000 0.0000 0.0000 25.2325 0.0000 0.0000
# 5 0.0000 0.0000 0.0000 0.0000 13.1939 0.0000
# 6 0.0000 0.0000 0.0000 0.0000 0.0000 25.7755
#
#
#
# Elastic Compliance Matrix: (Units=1/GPa)
#
#
# Indices 1 2 3 4 5 6 
#
# 1 0.025094 -0.002960 -0.010212 0.000000 0.000000 0.000000
# 2 -0.002960 0.013039 -0.003670 0.000000 0.000000 0.000000
# 3 -0.010212 -0.003670 0.015147 0.000000 0.000000 0.000000
# 4 0.000000 0.000000 0.000000 0.039631 0.000000 0.000000
# 5 0.000000 0.000000 0.000000 0.000000 0.075793 0.000000
# 6 0.000000 0.000000 0.000000 0.000000 0.000000 0.038797
#
#
# Mechanical properties :
#
#
# Convention : Reuss Voigt Hill
#
# Bulk Modulus (GPa) = 51.03455 56.46807 53.75131
# Shear Modulus (GPa) = 20.18429 22.70421 21.44425
#
# Velocity S-wave (km/s) = 3.16014 3.35161 3.25728
# Velocity P-wave (km/s) = 6.21011 6.55104 6.38285
#
# Compressibility (1/GPa) = 0.01959457
#
# Stress axis : x y z
#
# Youngs Moduli (GPa) = 39.84955 76.69573 66.01943
#
# Poissons Ratio (x) = 0.22701 0.67421
# Poissons Ratio (y) = 0.11795 0.24232
# Poissons Ratio (z) = 0.40696 0.28151
#
# Static dielectric constant tensor:
#      x y z
#    x 1.712480 0.000000 0.000000 
#    y 0.000000 1.808080 0.000000 
#    z 0.000000 0.000000 1.768090 
# 
# From -- ./inp_files/23186.got.cif
#   From: 2010.05.17/outbox.cif.g08.bks.cpg/sg24_12_cif.got.tgz:23186.got - 2010.06.04 00:33:39.
