data_PCOD9334070
_publ_section_title
;
Structure prediction by ZEFSAII (Michael W. Deem and Ramdas Pophale) SiO2 
 PCOD9334070
Probable space group: I 21 21 21
;
_chemical_formula_sum "Si O2"
_cell_formula_units_Z 32
_cell_length_a 21.639604
_cell_length_b 5.124537
_cell_length_c 15.473550
_cell_angle_alpha 90.000000
_cell_angle_beta 90.000000
_cell_angle_gamma 90.000000
_cell_volume 1715.907628
_symmetry_space_group_name_H-M "I 21 21 21"
_symmetry_group_IT_number 24
_symmetry_cell_setting 'orthorhombic'
loop_
_space_group_symop_operation_xyz
x,y,z
-x,1/2-y,z
x,-y,1/2-z
1/2-x,y,-z
1/2+x,1/2+y,1/2+z
1/2-x,-y,1/2+z
1/2+x,1/2-y,-z
-x,1/2+y,1/2-z
loop_
_atom_site_type_symbol
_atom_site_label
_atom_site_fract_x
_atom_site_fract_y
_atom_site_fract_z
Si Si1 0.500000 0.250000 0.688368
Si Si2 0.675469 0.714137 0.502048
Si Si3 0.867971 0.782459 0.104401
Si Si4 0.830456 0.258288 0.804886
Si Si5 0.208685 0.000000 0.250000
O O1 0.508653 0.500000 0.750000
O O2 0.439437 0.289021 0.630345
O O3 0.750000 0.704180 0.500000
O O4 0.648679 0.440264 0.534988
O O5 0.651822 0.764790 0.404491
O O6 0.653889 0.942792 0.566221
O O7 0.831375 0.686549 0.189736
O O8 0.858010 0.500000 0.750000
O O9 0.756886 0.326246 0.804668
O O10 0.840539 0.000000 0.750000
#
# Coordination Sequence:
#
# PCOD9334070 Si02
#       5
#     4   8   8   8   4
#     4  12  26  46  64  88 126 180 228 248 300 374
#     4  12  22  38  59  94 124 160 206 264 324 376
#     4  12  25  38  63  88 127 170 210 258 305 377
#     4  10  20  35  57  87 126 156 194 246 321 382
#     4  10  22  36  58  86 126 164 202 244 308 386
#
# _framework density 18.649023
#
# number of rings (size 3 to 8) (size 9 to 14) (size 15 to 20)
#    0.750    0.000    3.750    5.250    0.000    0.000 
#    0.000    0.000    0.000    0.000    0.000   17.500 
#    0.000    0.000    0.000    0.000    0.000    0.000 
#
# Total GULP energy -89372.036233 kJ/mol
# GULP energy per Si atom -5585.752265 kJ/mol
# Density = 1.860658 g / cm^3
# Si number density = 18.649023 Si / 1000 Ang^3
#
#
#
# Elastic Constant Matrix: (Units=GPa)
#
#
# Indices 1 2 3 4 5 6 
#
# 1 68.5471 8.7506 13.6753 0.0000 0.0000 0.0000
# 2 8.7506 84.6919 -4.8777 0.0000 0.0000 0.0000
# 3 13.6753 -4.8777 68.5128 0.0000 0.0000 0.0000
# 4 0.0000 0.0000 0.0000 47.0939 0.0000 0.0000
# 5 0.0000 0.0000 0.0000 0.0000 -390.1844 0.0000
# 6 0.0000 0.0000 0.0000 0.0000 0.0000 16.5469
#
#
#
# Elastic Compliance Matrix: (Units=1/GPa)
#
#
# Indices 1 2 3 4 5 6 
#
# 1 0.015457 -0.001782 -0.003212 0.000000 0.000000 0.000000
# 2 -0.001782 0.012062 0.001214 0.000000 0.000000 0.000000
# 3 -0.003212 0.001214 0.015323 0.000000 0.000000 0.000000
# 4 0.000000 0.000000 0.000000 0.021234 0.000000 0.000000
# 5 0.000000 0.000000 0.000000 0.000000 -0.002563 0.000000
# 6 0.000000 0.000000 0.000000 0.000000 0.000000 0.060434
#
#
# Mechanical properties :
#
#
# Convention : Reuss Voigt Hill
#
# Bulk Modulus (GPa) = 28.34276 28.53868 28.44072
# Shear Modulus (GPa) = 35.39385 -51.69515 -8.15065
#
# Velocity S-wave (km/s) = 4.36121 -5.27069 -2.09285
# Velocity P-wave (km/s) = 6.37112 4.65876 3.07304
#
# Compressibility (1/GPa) = 0.03528238
#
# Stress axis : x y z
#
# Youngs Moduli (GPa) = 64.69631 82.90792 65.25963
#
# Poissons Ratio (x) = 0.14774 0.20962
# Poissons Ratio (y) = 0.11529 -0.07925
# Poissons Ratio (z) = 0.20781 -0.10068
#
# Static dielectric constant tensor:
#      x y z
#    x 1.616610 0.000000 0.000000 
#    y 0.000000 1.657870 0.000000 
#    z 0.000000 0.000000 1.683620 
# 
# From -- ./inp_files/4312.got.cif
#   From: 2010.05.17/outbox.cif.g08.bks.cpg/sg24_3_cif.got.tgz:4312.got - 2010.06.04 00:33:39.
