data_PCOD9334885
_publ_section_title
;
Structure prediction by ZEFSAII (Michael W. Deem and Ramdas Pophale) SiO2 
 PCOD9334885
Probable space group: I 21 21 21
;
_chemical_formula_sum "Si O2"
_cell_formula_units_Z 56
_cell_length_a 16.085513
_cell_length_b 15.100225
_cell_length_c 12.122649
_cell_angle_alpha 90.000000
_cell_angle_beta 90.000000
_cell_angle_gamma 90.000000
_cell_volume 2944.529199
_symmetry_space_group_name_H-M "I 21 21 21"
_symmetry_group_IT_number 24
_symmetry_cell_setting 'orthorhombic'
loop_
_space_group_symop_operation_xyz
x,y,z
-x,1/2-y,z
x,-y,1/2-z
1/2-x,y,-z
1/2+x,1/2+y,1/2+z
1/2-x,-y,1/2+z
1/2+x,1/2-y,-z
-x,1/2+y,1/2-z
loop_
_atom_site_type_symbol
_atom_site_label
_atom_site_fract_x
_atom_site_fract_y
_atom_site_fract_z
Si Si1 0.806261 0.595549 0.899287
Si Si2 0.097103 0.942666 0.475145
Si Si3 0.681930 0.000000 0.750000
Si Si4 0.597850 0.750000 0.209591
Si Si5 0.193739 0.595548 0.899287
Si Si6 0.402897 0.557334 0.524855
Si Si7 0.318070 0.000000 0.750000
Si Si8 0.344158 0.250000 0.043233
O O1 0.874561 0.664269 0.859298
O O2 0.743193 0.573606 0.800591
O O3 0.750000 0.630654 0.000000
O O4 0.848708 0.505210 0.943826
O O5 0.127694 0.964574 0.351481
O O6 0.113654 0.840175 0.501035
O O7 0.000000 0.962899 0.487979
O O8 0.743193 0.926394 0.800591
O O9 0.627694 0.964574 0.648519
O O10 0.500000 0.750000 0.232356
O O11 0.625439 0.835731 0.140702
O O12 0.646895 0.750000 0.324891
O O13 0.250000 0.630654 0.000000
O O14 0.151292 0.505210 0.943826
O O15 0.386346 0.659826 0.498965
O O16 0.250000 0.250000 0.000000
#
# Coordination Sequence:
#
# PCOD9334885 Si02
#       8
#     8   8   4   8   8   8   4   8
#     4  10  21  38  59  83 115 155 193 233 284 346
#     4  11  22  39  60  88 118 149 191 243 287 334
#     4  10  21  38  61  82 112 154 190 230 291 348
#     4  12  23  37  58  87 116 151 193 240 286 332
#     4  10  21  38  59  83 115 155 193 233 284 346
#     4  11  22  39  60  88 118 149 191 243 287 334
#     4  10  21  38  61  82 112 154 190 230 291 348
#     4  12  24  39  60  85 116 153 193 236 287 348
#
# _framework density 19.018319999999999
#
# number of rings (size 3 to 8) (size 9 to 14) (size 15 to 20)
#    0.000    1.143    0.000    9.000    0.000    0.000 
#    0.000    5.714    0.000    0.000    0.000    0.000 
#    0.000    0.000    0.000    0.000    0.000    0.000 
#
# Total GULP energy -156532.540837 kJ/mol
# GULP energy per Si atom -5590.447887 kJ/mol
# Density = 1.897503 g / cm^3
# Si number density = 19.018320 Si / 1000 Ang^3
#
#
#
# Elastic Constant Matrix: (Units=GPa)
#
#
# Indices 1 2 3 4 5 6 
#
# 1 117.3931 19.1194 28.7627 0.0000 0.0000 0.0000
# 2 19.1194 107.7695 38.0430 0.0000 0.0000 0.0000
# 3 28.7627 38.0430 77.7887 0.0000 0.0000 0.0000
# 4 0.0000 0.0000 0.0000 12.8263 0.0000 0.0000
# 5 0.0000 0.0000 0.0000 0.0000 19.6817 0.0000
# 6 0.0000 0.0000 0.0000 0.0000 0.0000 29.7250
#
#
#
# Elastic Compliance Matrix: (Units=1/GPa)
#
#
# Indices 1 2 3 4 5 6 
#
# 1 0.009392 -0.000532 -0.003213 0.000000 0.000000 0.000000
# 2 -0.000532 0.011245 -0.005303 0.000000 0.000000 0.000000
# 3 -0.003213 -0.005303 0.016637 0.000000 0.000000 0.000000
# 4 0.000000 0.000000 0.000000 0.077965 0.000000 0.000000
# 5 0.000000 0.000000 0.000000 0.000000 0.050809 0.000000
# 6 0.000000 0.000000 0.000000 0.000000 0.000000 0.033642
#
#
# Mechanical properties :
#
#
# Convention : Reuss Voigt Hill
#
# Bulk Modulus (GPa) = 52.14041 52.75573 52.44807
# Shear Modulus (GPa) = 22.30374 26.91500 24.60937
#
# Velocity S-wave (km/s) = 3.42826 3.76601 3.60110
# Velocity P-wave (km/s) = 6.56856 6.83448 6.70284
#
# Compressibility (1/GPa) = 0.01917898
#
# Stress axis : x y z
#
# Youngs Moduli (GPa) = 106.47160 88.92514 60.10857
#
# Poissons Ratio (x) = 0.04733 0.19310
# Poissons Ratio (y) = 0.05667 0.31875
# Poissons Ratio (z) = 0.34204 0.47156
#
# Static dielectric constant tensor:
#      x y z
#    x 1.637340 0.000000 0.000000 
#    y 0.000000 1.646610 0.000000 
#    z 0.000000 0.000000 1.651090 
# 
# From -- ./inp_files/20906.got.cif
#   From: 2010.05.17/outbox.cif.g08.bks.cpg/sg24_11_cif.got.tgz:20906.got - 2010.06.04 00:33:39.
