data_PCOD9334536
_publ_section_title
;
Structure prediction by ZEFSAII (Michael W. Deem and Ramdas Pophale) SiO2 
 PCOD9334536
Probable space group: I 21 21 21
;
_chemical_formula_sum "Si O2"
_cell_formula_units_Z 60
_cell_length_a 19.220046
_cell_length_b 11.509564
_cell_length_c 12.686023
_cell_angle_alpha 90.000000
_cell_angle_beta 90.000000
_cell_angle_gamma 90.000000
_cell_volume 2806.330326
_symmetry_space_group_name_H-M "I 21 21 21"
_symmetry_group_IT_number 24
_symmetry_cell_setting 'orthorhombic'
loop_
_space_group_symop_operation_xyz
x,y,z
-x,1/2-y,z
x,-y,1/2-z
1/2-x,y,-z
1/2+x,1/2+y,1/2+z
1/2-x,-y,1/2+z
1/2+x,1/2-y,-z
-x,1/2+y,1/2-z
loop_
_atom_site_type_symbol
_atom_site_label
_atom_site_fract_x
_atom_site_fract_y
_atom_site_fract_z
Si Si1 0.264525 0.516687 0.107475
Si Si2 0.932035 0.827885 0.168656
Si Si3 0.227214 0.883396 0.816047
Si Si4 0.500000 0.250000 0.031091
Si Si5 0.296194 0.678558 0.709530
Si Si6 0.924255 0.048540 0.863672
Si Si7 0.487087 0.007364 0.947215
Si Si8 0.644232 0.346305 0.524238
O O1 0.238947 0.600826 0.198521
O O2 0.217213 0.400521 0.108498
O O3 0.343332 0.477781 0.120840
O O4 0.250000 0.582477 0.000000
O O5 0.877082 0.815645 0.262787
O O6 0.889363 0.773019 0.069069
O O7 0.000000 0.750000 0.185870
O O8 0.962298 0.954663 0.141398
O O9 0.253138 0.795518 0.724141
O O10 0.292929 0.882586 0.897118
O O11 0.211474 0.000000 0.750000
O O12 0.167212 0.846751 0.900900
O O13 0.555405 0.182165 0.106331
O O14 0.525322 0.354916 0.956332
O O15 0.943332 0.000000 0.750000
O O16 0.970539 0.979138 0.946767
O O17 0.415152 0.940780 0.952900
#
# Coordination Sequence:
#
# PCOD9334536 Si02
#       8
#     8   8   8   4   8   8   8   8
#     4  11  23  40  66  93 126 157 210 271 316 372
#     4   9  18  37  69  90 121 159 216 257 304 380
#     4  10  22  39  60  90 127 165 210 257 310 381
#     4   8  22  36  56  82 130 158 196 250 328 370
#     4  10  22  40  64  95 119 163 210 256 321 372
#     4  10  20  40  55  87 123 162 201 255 315 378
#     4   9  19  38  58  89 120 161 204 255 316 372
#     4   9  20  38  61  91 118 168 212 255 310 375
#
# _framework density 21.380234000000002
#
# number of rings (size 3 to 8) (size 9 to 14) (size 15 to 20)
#    0.800    1.600    1.333    0.800    5.600    1.600 
#   10.800    0.000   36.667    0.000    0.000    0.000 
#    0.000    0.000    0.000    0.000    0.000    0.000 
#
# Total GULP energy -167095.908266 kJ/mol
# GULP energy per Si atom -5569.863609 kJ/mol
# Density = 2.133157 g / cm^3
# Si number density = 21.380234 Si / 1000 Ang^3
#
#
#
# Elastic Constant Matrix: (Units=GPa)
#
#
# Indices 1 2 3 4 5 6 
#
# 1 99.1555 21.1609 8.6363 0.0000 0.0000 0.0000
# 2 21.1609 87.9479 6.3216 0.0000 0.0000 0.0000
# 3 8.6363 6.3216 60.8716 0.0000 0.0000 0.0000
# 4 0.0000 0.0000 0.0000 23.6576 0.0000 0.0000
# 5 0.0000 0.0000 0.0000 0.0000 6.3716 0.0000
# 6 0.0000 0.0000 0.0000 0.0000 0.0000 22.0345
#
#
#
# Elastic Compliance Matrix: (Units=1/GPa)
#
#
# Indices 1 2 3 4 5 6 
#
# 1 0.010727 -0.002490 -0.001263 0.000000 0.000000 0.000000
# 2 -0.002490 0.012034 -0.000896 0.000000 0.000000 0.000000
# 3 -0.001263 -0.000896 0.016700 0.000000 0.000000 0.000000
# 4 0.000000 0.000000 0.000000 0.042270 0.000000 0.000000
# 5 0.000000 0.000000 0.000000 0.000000 0.156947 0.000000
# 6 0.000000 0.000000 0.000000 0.000000 0.000000 0.045383
#
#
# Mechanical properties :
#
#
# Convention : Reuss Voigt Hill
#
# Bulk Modulus (GPa) = 33.15511 35.57919 34.36715
# Shear Modulus (GPa) = 16.47911 24.53648 20.50780
#
# Velocity S-wave (km/s) = 2.77928 3.39134 3.10045
# Velocity P-wave (km/s) = 5.08333 5.65793 5.37831
#
# Compressibility (1/GPa) = 0.03016126
#
# Stress axis : x y z
#
# Youngs Moduli (GPa) = 93.22611 83.09829 59.87903
#
# Poissons Ratio (x) = 0.20692 0.07564
# Poissons Ratio (y) = 0.23214 0.05368
# Poissons Ratio (z) = 0.11777 0.07449
#
# Static dielectric constant tensor:
#      x y z
#    x 1.770500 0.000000 0.000000 
#    y 0.000000 1.841770 0.000000 
#    z 0.000000 0.000000 1.898050 
# 
# From -- ./inp_files/27657.got.cif
#   From: 2010.05.17/outbox.cif.g08.bks.cpg/sg24_14_cif.got.tgz:27657.got - 2010.06.04 00:33:39.
