data_PCOD9334219
_publ_section_title
;
Structure prediction by ZEFSAII (Michael W. Deem and Ramdas Pophale) SiO2 
 PCOD9334219
Probable space group: I 21 21 21
;
_chemical_formula_sum "Si O2"
_cell_formula_units_Z 64
_cell_length_a 9.648718
_cell_length_b 29.777243
_cell_length_c 11.611755
_cell_angle_alpha 90.000000
_cell_angle_beta 90.000000
_cell_angle_gamma 90.000000
_cell_volume 3336.199113
_symmetry_space_group_name_H-M "I 21 21 21"
_symmetry_group_IT_number 24
_symmetry_cell_setting 'orthorhombic'
loop_
_space_group_symop_operation_xyz
x,y,z
-x,1/2-y,z
x,-y,1/2-z
1/2-x,y,-z
1/2+x,1/2+y,1/2+z
1/2-x,-y,1/2+z
1/2+x,1/2-y,-z
-x,1/2+y,1/2-z
loop_
_atom_site_type_symbol
_atom_site_label
_atom_site_fract_x
_atom_site_fract_y
_atom_site_fract_z
Si Si1 0.000504 0.989920 0.386407
Si Si2 0.743467 0.078237 0.877731
Si Si3 0.596862 0.792626 0.635910
Si Si4 0.581451 0.080703 0.493414
Si Si5 0.995779 0.395104 0.764606
Si Si6 0.293316 0.910210 0.621638
Si Si7 0.926439 0.200926 0.877035
Si Si8 0.533694 0.869979 0.779389
O O1 0.126712 0.956230 0.413036
O O2 0.853467 0.964396 0.398046
O O3 0.014299 0.000000 0.250000
O O4 0.987490 0.034059 0.463655
O O5 0.665799 0.105786 0.779318
O O6 0.898388 0.073206 0.835701
O O7 0.750000 0.102964 0.000000
O O8 0.500000 0.750000 0.635155
O O9 0.762866 0.788823 0.638677
O O10 0.557985 0.813846 0.511199
O O11 0.555022 0.818911 0.749984
O O12 0.750000 0.076882 0.500000
O O13 0.531250 0.096072 0.368332
O O14 0.531744 0.116170 0.589427
O O15 0.844291 0.411077 0.801968
O O16 0.024150 0.342663 0.802451
O O17 0.250000 0.887984 0.500000
O O18 0.405044 0.885875 0.702349
O O19 0.000000 0.250000 0.858773
#
# Coordination Sequence:
#
# PCOD9334219 Si02
#       8
#     8   8   8   8   8   8   8   8
#     4  11  22  43  61  88 131 167 221 283 326 379
#     4  11  20  37  65  90 120 164 223 280 329 382
#     4  10  20  36  65  96 130 175 212 280 352 396
#     4  12  23  44  70  95 126 183 233 284 328 411
#     4  12  24  41  68  98 131 186 226 263 354 409
#     4  11  25  41  63  93 130 175 216 280 340 399
#     4  10  21  38  62 101 137 163 224 289 329 405
#     4  11  22  42  63  89 134 169 223 272 331 399
#
# _framework density 19.183506999999999
#
# number of rings (size 3 to 8) (size 9 to 14) (size 15 to 20)
#    0.000    1.000    5.000    3.375    1.750    1.500 
#    0.000    2.500    0.000    0.000    0.000    0.000 
#    0.000    0.000    0.000    0.000    0.000    0.000 
#
# Total GULP energy -178451.072571 kJ/mol
# GULP energy per Si atom -5576.596018 kJ/mol
# Density = 1.913984 g / cm^3
# Si number density = 19.183507 Si / 1000 Ang^3
#
#
#
# Elastic Constant Matrix: (Units=GPa)
#
#
# Indices 1 2 3 4 5 6 
#
# 1 128.7570 30.8643 32.1828 0.0000 0.0001 -0.0001
# 2 30.8643 82.1211 39.4159 0.0000 0.0000 -0.0001
# 3 32.1828 39.4159 125.1660 -0.0004 -0.0005 -0.0020
# 4 0.0000 0.0000 -0.0004 33.3211 -0.0001 -0.0002
# 5 0.0001 0.0000 -0.0005 -0.0001 29.9081 -0.0001
# 6 -0.0001 -0.0001 -0.0020 -0.0002 -0.0001 -5.6855
#
#
#
# Elastic Compliance Matrix: (Units=1/GPa)
#
#
# Indices 1 2 3 4 5 6 
#
# 1 0.008748 -0.002601 -0.001430 0.000000 0.000000 0.000000
# 2 -0.002601 0.015119 -0.004092 0.000000 0.000000 0.000001
# 3 -0.001430 -0.004092 0.009646 0.000000 0.000000 -0.000003
# 4 0.000000 0.000000 0.000000 0.030011 0.000000 -0.000001
# 5 0.000000 0.000000 0.000000 0.000000 0.033436 0.000000
# 6 0.000000 0.000001 -0.000003 -0.000001 0.000000 -0.175886
#
#
# Mechanical properties :
#
#
# Convention : Reuss Voigt Hill
#
# Bulk Modulus (GPa) = 57.92006 60.10777 59.01392
# Shear Modulus (GPa) = -87.83502 27.08081 -30.37710
#
# Velocity S-wave (km/s) = -6.77393 3.76130 -3.98364
# Velocity P-wave (km/s) = 5.56088 7.08973 3.10973
#
# Compressibility (1/GPa) = 0.01726517
#
# Stress axis : x y z
#
# Youngs Moduli (GPa) = 114.31763 66.14199 103.67249
#
# Poissons Ratio (x) = 0.17206 0.14825
# Poissons Ratio (y) = 0.29738 0.42425
# Poissons Ratio (z) = 0.16347 0.27067
#
# Static dielectric constant tensor:
#      x y z
#    x 1.733270 0.000000 0.000000 
#    y 0.000000 1.724040 0.000000 
#    z 0.000000 0.000000 1.753850 
# 
# From -- ./inp_files/18902.got.cif
#   From: 2010.05.17/outbox.cif.g08.bks.cpg/sg24_10_cif.got.tgz:18902.got - 2010.06.04 00:33:39.
