data_PCOD9334831
_publ_section_title
;
Structure prediction by ZEFSAII (Michael W. Deem and Ramdas Pophale) SiO2 
 PCOD9334831
Probable space group: I 21 21 21
;
_chemical_formula_sum "Si O2"
_cell_formula_units_Z 64
_cell_length_a 8.427717
_cell_length_b 13.373765
_cell_length_c 23.883862
_cell_angle_alpha 90.000000
_cell_angle_beta 90.000000
_cell_angle_gamma 90.000000
_cell_volume 2691.957410
_symmetry_space_group_name_H-M "I 21 21 21"
_symmetry_group_IT_number 24
_symmetry_cell_setting 'orthorhombic'
loop_
_space_group_symop_operation_xyz
x,y,z
-x,1/2-y,z
x,-y,1/2-z
1/2-x,y,-z
1/2+x,1/2+y,1/2+z
1/2-x,-y,1/2+z
1/2+x,1/2-y,-z
-x,1/2+y,1/2-z
loop_
_atom_site_type_symbol
_atom_site_label
_atom_site_fract_x
_atom_site_fract_y
_atom_site_fract_z
Si Si1 0.794061 0.681931 0.658686
Si Si2 0.967639 0.476196 0.660589
Si Si3 0.218588 0.082637 0.564783
Si Si4 0.808606 0.893807 0.170262
Si Si5 0.979496 0.459385 0.134920
Si Si6 0.668841 0.290967 0.283436
Si Si7 0.833286 0.189450 0.060054
Si Si8 0.329578 0.700682 0.945540
O O1 0.921360 0.591867 0.660332
O O2 0.622026 0.629710 0.661437
O O3 0.822553 0.732882 0.717797
O O4 0.781434 0.747392 0.602352
O O5 0.943604 0.446321 0.595425
O O6 0.844873 0.406549 0.697040
O O7 0.141983 0.448554 0.681284
O O8 0.250000 0.060104 0.500000
O O9 0.230365 0.201439 0.571735
O O10 0.353262 0.022049 0.598171
O O11 0.803499 0.781003 0.192267
O O12 0.834375 0.876205 0.104161
O O13 0.947457 0.970383 0.182522
O O14 0.111233 0.407608 0.095197
O O15 0.500000 0.250000 0.305814
O O16 0.000000 0.250000 0.050906
O O17 0.750000 0.172685 0.000000
O O18 0.500000 0.750000 0.958423
O O19 0.250000 0.655863 0.000000
#
# Coordination Sequence:
#
# PCOD9334831 Si02
#       8
#     8   8   8   8   8   8   8   8
#     4  10  23  46  68  92 128 173 220 269 325 389
#     4  10  22  39  66  95 127 172 219 273 325 388
#     4  10  21  37  59  88 132 176 216 259 324 395
#     4  11  23  40  66  99 135 166 217 272 332 393
#     4  10  23  43  63  99 131 166 217 269 328 393
#     4  10  22  42  68  95 128 168 216 269 325 392
#     4  10  24  45  69  95 129 169 219 270 324 383
#     4  11  23  36  58  90 136 180 220 260 323 400
#
# _framework density 23.774522000000001
#
# number of rings (size 3 to 8) (size 9 to 14) (size 15 to 20)
#    0.000    1.750    2.500    0.375    3.500    8.500 
#    0.000   16.250    0.000    0.000    0.000    0.000 
#    0.000    0.000    0.000    0.000    0.000    0.000 
#
# Total GULP energy -178710.567032 kJ/mol
# GULP energy per Si atom -5584.705220 kJ/mol
# Density = 2.372041 g / cm^3
# Si number density = 23.774522 Si / 1000 Ang^3
#
#
#
# Elastic Constant Matrix: (Units=GPa)
#
#
# Indices 1 2 3 4 5 6 
#
# 1 65.6326 15.1478 14.1836 0.0000 0.0000 0.0000
# 2 15.1478 56.5800 10.4200 0.0000 0.0000 0.0000
# 3 14.1836 10.4200 82.7829 0.0000 0.0000 0.0000
# 4 0.0000 0.0000 0.0000 -2.7335 0.0000 0.0000
# 5 0.0000 0.0000 0.0000 0.0000 11.9955 0.0000
# 6 0.0000 0.0000 0.0000 0.0000 0.0000 32.4972
#
#
#
# Elastic Compliance Matrix: (Units=1/GPa)
#
#
# Indices 1 2 3 4 5 6 
#
# 1 0.016675 -0.004031 -0.002349 0.000000 0.000000 0.000000
# 2 -0.004031 0.019068 -0.001709 0.000000 0.000000 0.000000
# 3 -0.002349 -0.001709 0.012698 0.000000 0.000000 0.000000
# 4 0.000000 0.000000 0.000000 -0.365828 0.000000 0.000000
# 5 0.000000 0.000000 0.000000 0.000000 0.083365 0.000000
# 6 0.000000 0.000000 0.000000 0.000000 0.000000 0.030772
#
#
# Mechanical properties :
#
#
# Convention : Reuss Voigt Hill
#
# Bulk Modulus (GPa) = 30.99862 31.61094 31.30478
# Shear Modulus (GPa) = -28.35787 19.36812 -4.49487
#
# Velocity S-wave (km/s) = -3.45742 2.85732 -1.37649
# Velocity P-wave (km/s) = 1.69453 4.92044 3.26644
#
# Compressibility (1/GPa) = 0.03225950
#
# Stress axis : x y z
#
# Youngs Moduli (GPa) = 59.97178 52.44334 78.75565
#
# Poissons Ratio (x) = 0.21142 0.18504
# Poissons Ratio (y) = 0.24177 0.13463
# Poissons Ratio (z) = 0.14090 0.08965
#
# Static dielectric constant tensor:
#      x y z
#    x 1.972820 0.000000 0.000000 
#    y 0.000000 1.929030 0.000000 
#    z 0.000000 0.000000 1.936160 
# 
# From -- ./inp_files/35300.got.cif
#   From: 2010.05.17/outbox.cif.g08.bks.cpg/sg24_18_cif.got.tgz:35300.got - 2010.06.04 00:33:39.
