data_PCOD9334829
_publ_section_title
;
Structure prediction by ZEFSAII (Michael W. Deem and Ramdas Pophale) SiO2 
 PCOD9334829
Probable space group: I 21 21 21
;
_chemical_formula_sum "Si O2"
_cell_formula_units_Z 64
_cell_length_a 21.794648
_cell_length_b 15.755689
_cell_length_c 9.221160
_cell_angle_alpha 90.000000
_cell_angle_beta 90.000000
_cell_angle_gamma 90.000000
_cell_volume 3166.451327
_symmetry_space_group_name_H-M "I 21 21 21"
_symmetry_group_IT_number 24
_symmetry_cell_setting 'orthorhombic'
loop_
_space_group_symop_operation_xyz
x,y,z
-x,1/2-y,z
x,-y,1/2-z
1/2-x,y,-z
1/2+x,1/2+y,1/2+z
1/2-x,-y,1/2+z
1/2+x,1/2-y,-z
-x,1/2+y,1/2-z
loop_
_atom_site_type_symbol
_atom_site_label
_atom_site_fract_x
_atom_site_fract_y
_atom_site_fract_z
Si Si1 0.940596 0.954418 0.622576
Si Si2 0.460999 0.830967 0.243051
Si Si3 0.384350 0.278111 0.051630
Si Si4 0.028696 0.426597 0.356612
Si Si5 0.241798 0.746833 0.675098
Si Si6 0.594553 0.653735 0.944610
Si Si7 0.781947 0.583094 0.156457
Si Si8 0.638097 0.191727 0.728125
O O1 0.907355 0.874675 0.551602
O O2 0.997417 0.908638 0.704698
O O3 0.902960 0.000000 0.750000
O O4 0.957997 0.025023 0.506355
O O5 0.500000 0.750000 0.182330
O O6 0.430713 0.790561 0.385276
O O7 0.414370 0.856815 0.116737
O O8 0.329504 0.275987 0.169909
O O9 0.374138 0.260244 0.881705
O O10 0.006751 0.500000 0.250000
O O11 0.091063 0.385111 0.294580
O O12 0.973118 0.360954 0.378483
O O13 0.250000 0.753964 0.500000
O O14 0.257530 0.834751 0.755247
O O15 0.288600 0.679689 0.750128
O O16 0.645389 0.591939 0.876304
O O17 0.621429 0.745513 0.902984
O O18 0.769099 0.500000 0.250000
O O19 0.750000 0.580547 0.000000
#
# Coordination Sequence:
#
# PCOD9334829 Si02
#       8
#     8   8   8   8   8   8   8   8
#     4  11  23  40  58  89 127 159 206 252 320 368
#     4  10  21  37  59  87 120 159 203 246 307 380
#     4  10  21  40  64  87 118 164 208 255 307 381
#     4  12  23  38  60  92 128 160 200 265 315 373
#     4   9  20  42  65  88 118 165 211 255 304 377
#     4  11  23  39  60  90 122 164 205 253 313 384
#     4  11  23  42  61  92 126 161 207 260 315 371
#     4  10  22  38  64  88 122 161 210 254 317 368
#
# _framework density 20.2119
#
# number of rings (size 3 to 8) (size 9 to 14) (size 15 to 20)
#    0.000    1.500    2.500    2.625    3.500    1.000 
#    6.750    0.625    0.000    0.000    0.000    0.000 
#    0.000    0.000    0.000    0.000    0.000    0.000 
#
# Total GULP energy -178329.689510 kJ/mol
# GULP energy per Si atom -5572.802797 kJ/mol
# Density = 2.016590 g / cm^3
# Si number density = 20.211900 Si / 1000 Ang^3
#
#
#
# Elastic Constant Matrix: (Units=GPa)
#
#
# Indices 1 2 3 4 5 6 
#
# 1 82.8064 26.5217 20.8073 0.0000 0.0000 0.0000
# 2 26.5217 50.1075 12.9663 0.0000 0.0000 0.0000
# 3 20.8073 12.9663 74.5032 0.0000 0.0000 0.0000
# 4 0.0000 0.0000 0.0000 27.2752 0.0000 0.0000
# 5 0.0000 0.0000 0.0000 0.0000 21.8890 0.0000
# 6 0.0000 0.0000 0.0000 0.0000 0.0000 15.2886
#
#
#
# Elastic Compliance Matrix: (Units=1/GPa)
#
#
# Indices 1 2 3 4 5 6 
#
# 1 0.015143 -0.007247 -0.002968 0.000000 0.000000 0.000000
# 2 -0.007247 0.024367 -0.002217 0.000000 0.000000 0.000000
# 3 -0.002968 -0.002217 0.014637 0.000000 0.000000 0.000000
# 4 0.000000 0.000000 0.000000 0.036663 0.000000 0.000000
# 5 0.000000 0.000000 0.000000 0.000000 0.045685 0.000000
# 6 0.000000 0.000000 0.000000 0.000000 0.000000 0.065408
#
#
# Mechanical properties :
#
#
# Convention : Reuss Voigt Hill
#
# Bulk Modulus (GPa) = 34.14937 36.44528 35.29732
# Shear Modulus (GPa) = 21.13909 22.69867 21.91888
#
# Velocity S-wave (km/s) = 3.23751 3.35481 3.29668
# Velocity P-wave (km/s) = 5.55946 5.75126 5.65618
#
# Compressibility (1/GPa) = 0.02928312
#
# Stress axis : x y z
#
# Youngs Moduli (GPa) = 66.03565 41.03970 68.32045
#
# Poissons Ratio (x) = 0.29743 0.20277
# Poissons Ratio (y) = 0.47858 0.15144
# Poissons Ratio (z) = 0.19599 0.09097
#
# Static dielectric constant tensor:
#      x y z
#    x 1.825100 0.000000 0.000000 
#    y 0.000000 1.710460 0.000000 
#    z 0.000000 0.000000 1.765180 
# 
# From -- ./inp_files/16057.got.cif
#   From: 2010.05.17/outbox.cif.g08.bks.cpg/sg24_9_cif.got.tgz:16057.got - 2010.06.04 00:33:39.
