data_PCOD9334449
_publ_section_title
;
Structure prediction by ZEFSAII (Michael W. Deem and Ramdas Pophale) SiO2 
 PCOD9334449
Probable space group: I 21 21 21
;
_chemical_formula_sum "Si O2"
_cell_formula_units_Z 52
_cell_length_a 9.036457
_cell_length_b 20.067984
_cell_length_c 11.835516
_cell_angle_alpha 90.000000
_cell_angle_beta 90.000000
_cell_angle_gamma 90.000000
_cell_volume 2146.293594
_symmetry_space_group_name_H-M "I 21 21 21"
_symmetry_group_IT_number 24
_symmetry_cell_setting 'orthorhombic'
loop_
_space_group_symop_operation_xyz
x,y,z
-x,1/2-y,z
x,-y,1/2-z
1/2-x,y,-z
1/2+x,1/2+y,1/2+z
1/2-x,-y,1/2+z
1/2+x,1/2-y,-z
-x,1/2+y,1/2-z
loop_
_atom_site_type_symbol
_atom_site_label
_atom_site_fract_x
_atom_site_fract_y
_atom_site_fract_z
Si Si1 0.714345 0.446916 0.632492
Si Si2 0.501721 0.038686 0.949934
Si Si3 0.250000 0.276443 0.500000
Si Si4 0.323479 0.235378 0.253116
Si Si5 0.572290 0.893833 0.915849
Si Si6 0.583402 0.401044 0.177409
Si Si7 0.734208 0.874995 0.689126
O O1 0.750000 0.439748 0.500000
O O2 0.623428 0.516841 0.640858
O O3 0.586443 0.391346 0.645274
O O4 0.855313 0.436063 0.709660
O O5 0.088560 0.064443 0.943485
O O6 0.624386 0.088534 0.899029
O O7 0.573080 0.965827 0.976570
O O8 0.269622 0.236506 0.383826
O O9 0.112701 0.328881 0.487190
O O10 0.500000 0.250000 0.259446
O O11 0.324422 0.167391 0.183327
O O12 0.234352 0.294505 0.190816
O O13 0.686232 0.897446 0.813515
O O14 0.406297 0.392354 0.181607
#
# Coordination Sequence:
#
# PCOD9334449 Si02
#       7
#     8   8   4   8   8   8   8
#     4  10  26  44  67 110 153 194 244 324 395 464
#     4  10  24  43  74 108 154 202 251 313 392 475
#     4  10  20  38  70 110 158 196 256 322 390 450
#     4   9  22  39  70 110 148 191 257 314 372 462
#     4   9  23  40  67 110 153 190 248 324 390 468
#     4  11  24  45  75 112 152 207 256 316 397 458
#     4  10  21  45  75 109 150 196 262 318 379 473
#
# _framework density 24.227813999999999
#
# number of rings (size 3 to 8) (size 9 to 14) (size 15 to 20)
#    0.923    1.231    0.000    0.923    9.692    3.077 
#    2.769    2.308    0.000   20.308    0.000    0.000 
#    0.000    0.000    0.000    0.000    0.000    0.000 
#
# Total GULP energy -145119.543025 kJ/mol
# GULP energy per Si atom -5581.520886 kJ/mol
# Density = 2.417267 g / cm^3
# Si number density = 24.227814 Si / 1000 Ang^3
#
#
#
# Elastic Constant Matrix: (Units=GPa)
#
#
# Indices 1 2 3 4 5 6 
#
# 1 98.9487 47.2467 53.4475 0.0000 0.0000 0.0000
# 2 47.2467 141.8176 79.2856 0.0000 0.0000 -0.0001
# 3 53.4475 79.2856 144.8703 0.0000 0.0000 -0.0001
# 4 0.0000 0.0000 0.0000 36.0212 0.0000 -0.0001
# 5 0.0000 0.0000 0.0000 0.0000 58.1612 0.0000
# 6 0.0000 -0.0001 -0.0001 -0.0001 0.0000 1.6630
#
#
#
# Elastic Compliance Matrix: (Units=1/GPa)
#
#
# Indices 1 2 3 4 5 6 
#
# 1 0.013168 -0.002408 -0.003541 0.000000 0.000000 0.000000
# 2 -0.002408 0.010600 -0.004913 0.000000 0.000000 0.000000
# 3 -0.003541 -0.004913 0.010898 0.000000 0.000000 0.000000
# 4 0.000000 0.000000 0.000000 0.027761 0.000000 0.000002
# 5 0.000000 0.000000 0.000000 0.000000 0.017194 0.000000
# 6 0.000000 0.000000 0.000000 0.000002 0.000000 0.601336
#
#
# Mechanical properties :
#
#
# Convention : Reuss Voigt Hill
#
# Bulk Modulus (GPa) = 77.25734 82.84402 80.05068
# Shear Modulus (GPa) = 7.07220 32.87953 19.97586
#
# Velocity S-wave (km/s) = 1.71037 3.68788 2.87453
# Velocity P-wave (km/s) = 5.98812 7.23892 6.64302
#
# Compressibility (1/GPa) = 0.01294375
#
# Stress axis : x y z
#
# Youngs Moduli (GPa) = 75.93992 94.33829 91.76144
#
# Poissons Ratio (x) = 0.22713 0.32489
# Poissons Ratio (y) = 0.18283 0.45083
# Poissons Ratio (z) = 0.26887 0.46349
#
# Static dielectric constant tensor:
#      x y z
#    x 2.022100 0.000000 0.000000 
#    y 0.000000 2.085770 0.000000 
#    z 0.000000 0.000000 2.000470 
# 
# From -- ./inp_files/25145.got.cif
#   From: 2010.05.17/outbox.cif.g08.bks.cpg/sg24_13_cif.got.tgz:25145.got - 2010.06.04 00:33:39.
