data_PCOD9334286
_publ_section_title
;
Structure prediction by ZEFSAII (Michael W. Deem and Ramdas Pophale) SiO2 
 PCOD9334286
Probable space group: I 21 21 21
;
_chemical_formula_sum "Si O2"
_cell_formula_units_Z 48
_cell_length_a 13.431027
_cell_length_b 16.618740
_cell_length_c 9.678597
_cell_angle_alpha 90.000000
_cell_angle_beta 90.000000
_cell_angle_gamma 90.000000
_cell_volume 2160.328139
_symmetry_space_group_name_H-M "I 21 21 21"
_symmetry_group_IT_number 24
_symmetry_cell_setting 'orthorhombic'
loop_
_space_group_symop_operation_xyz
x,y,z
-x,1/2-y,z
x,-y,1/2-z
1/2-x,y,-z
1/2+x,1/2+y,1/2+z
1/2-x,-y,1/2+z
1/2+x,1/2-y,-z
-x,1/2+y,1/2-z
loop_
_atom_site_type_symbol
_atom_site_label
_atom_site_fract_x
_atom_site_fract_y
_atom_site_fract_z
Si Si1 0.913927 0.185565 0.568333
Si Si2 0.743305 0.311881 0.647169
Si Si3 0.675631 0.567080 0.371398
Si Si4 0.880088 0.170722 0.272498
Si Si5 0.330421 0.590832 0.295850
Si Si6 0.516081 0.155500 0.004122
O O1 0.819354 0.240123 0.608675
O O2 0.904758 0.138702 0.424800
O O3 0.915604 0.122645 0.690294
O O4 0.000000 0.250000 0.564397
O O5 0.750000 0.359006 0.500000
O O6 0.777148 0.361171 0.779241
O O7 0.643211 0.264635 0.690076
O O8 0.659221 0.500000 0.250000
O O9 0.750000 0.546541 0.500000
O O10 0.575515 0.602058 0.441996
O O11 0.776390 0.133324 0.220258
O O12 0.964198 0.157355 0.159864
O O13 0.314364 0.500000 0.250000
O O14 0.382293 0.616206 0.437297
O O15 0.500000 0.250000 0.047104
#
# Coordination Sequence:
#
# PCOD9334286 Si02
#       6
#     8   8   8   8   8   8
#     4  10  20  37  62  90 125 169 216 262 316 384
#     4   9  19  39  65  92 125 168 220 275 333 394
#     4  12  26  45  67  96 134 179 227 281 344 409
#     4  10  22  39  64  97 129 167 213 270 329 390
#     4  11  23  41  63  92 132 172 210 261 330 398
#     4  12  24  41  67  97 127 165 219 273 327 397
#
# _framework density 22.218847
#
# number of rings (size 3 to 8) (size 9 to 14) (size 15 to 20)
#    0.000    1.333    0.000    8.000    0.000    4.000 
#    0.000    4.167    0.000    0.000    0.000    0.000 
#    0.000    0.000    0.000    0.000    0.000    0.000 
#
# Total GULP energy -133804.255539 kJ/mol
# GULP energy per Si atom -5575.177314 kJ/mol
# Density = 2.216828 g / cm^3
# Si number density = 22.218847 Si / 1000 Ang^3
#
#
#
# Elastic Constant Matrix: (Units=GPa)
#
#
# Indices 1 2 3 4 5 6 
#
# 1 90.4739 28.9587 51.7025 0.0000 0.0000 0.0000
# 2 28.9587 69.4775 39.1653 0.0000 0.0000 0.0000
# 3 51.7025 39.1653 177.3479 0.0000 0.0000 0.0000
# 4 0.0000 0.0000 0.0000 4.4377 0.0000 0.0000
# 5 0.0000 0.0000 0.0000 0.0000 60.5177 0.0000
# 6 0.0000 0.0000 0.0000 0.0000 0.0000 -9.2793
#
#
#
# Elastic Compliance Matrix: (Units=1/GPa)
#
#
# Indices 1 2 3 4 5 6 
#
# 1 0.014216 -0.004099 -0.003239 0.000000 0.000000 0.000000
# 2 -0.004099 0.017622 -0.002696 0.000000 0.000000 0.000000
# 3 -0.003239 -0.002696 0.007178 0.000000 0.000000 0.000000
# 4 0.000000 0.000000 0.000000 0.225341 0.000000 0.000000
# 5 0.000000 0.000000 0.000000 0.000000 0.016524 0.000000
# 6 0.000000 0.000000 0.000000 0.000000 0.000000 -0.107766
#
#
# Mechanical properties :
#
#
# Convention : Reuss Voigt Hill
#
# Bulk Modulus (GPa) = 52.78072 64.10581 58.44326
# Shear Modulus (GPa) = 25.06253 25.63340 25.34797
#
# Velocity S-wave (km/s) = 3.36219 3.40027 3.38128
# Velocity P-wave (km/s) = 6.23530 6.65811 6.45017
#
# Compressibility (1/GPa) = 0.01894631
#
# Stress axis : x y z
#
# Youngs Moduli (GPa) = 70.34288 56.74771 139.30627
#
# Poissons Ratio (x) = 0.23263 0.45123
# Poissons Ratio (y) = 0.28837 0.37564
# Poissons Ratio (z) = 0.22785 0.15302
#
# Static dielectric constant tensor:
#      x y z
#    x 1.896870 0.000000 0.000000 
#    y 0.000000 1.785910 0.000000 
#    z 0.000000 0.000000 1.968170 
# 
# From -- ./inp_files/12765.got.cif
#   From: 2010.05.17/outbox.cif.g08.bks.cpg/sg24_7_cif.got.tgz:12765.got - 2010.06.04 00:33:39.
