data_PCOD9334967
_publ_section_title
;
Structure prediction by ZEFSAII (Michael W. Deem and Ramdas Pophale) SiO2 
 PCOD9334967
Probable space group: I 21 21 21
;
_chemical_formula_sum "Si O2"
_cell_formula_units_Z 56
_cell_length_a 6.259168
_cell_length_b 23.253830
_cell_length_c 19.804153
_cell_angle_alpha 90.000000
_cell_angle_beta 90.000000
_cell_angle_gamma 90.000000
_cell_volume 2882.487114
_symmetry_space_group_name_H-M "I 21 21 21"
_symmetry_group_IT_number 24
_symmetry_cell_setting 'orthorhombic'
loop_
_space_group_symop_operation_xyz
x,y,z
-x,1/2-y,z
x,-y,1/2-z
1/2-x,y,-z
1/2+x,1/2+y,1/2+z
1/2-x,-y,1/2+z
1/2+x,1/2-y,-z
-x,1/2+y,1/2-z
loop_
_atom_site_type_symbol
_atom_site_label
_atom_site_fract_x
_atom_site_fract_y
_atom_site_fract_z
Si Si1 0.242318 0.355311 0.577653
Si Si2 0.856191 0.665718 0.674762
Si Si3 0.356191 0.165717 0.325237
Si Si4 0.242318 0.644689 0.577653
Si Si5 0.000000 0.250000 0.127424
Si Si6 0.510641 0.566233 0.827403
Si Si7 0.489360 0.066233 0.827403
Si Si8 0.500000 0.750000 0.872575
O O1 0.250000 0.372992 0.500000
O O2 0.337470 0.406127 0.623428
O O3 0.396717 0.300361 0.583908
O O4 0.022455 0.335718 0.613328
O O5 0.956814 0.668079 0.750000
O O6 0.688507 0.718427 0.668666
O O7 0.716979 0.607412 0.669628
O O8 0.022455 0.664282 0.613327
O O9 0.188506 0.218427 0.331333
O O10 0.216980 0.107412 0.330372
O O11 0.250000 0.627007 0.500000
O O12 0.396718 0.699639 0.583907
O O13 0.337469 0.593873 0.623429
O O14 0.558695 0.500000 0.843278
O O15 0.432087 0.569107 0.750000
#
# Coordination Sequence:
#
# PCOD9334967 Si02
#       8
#     8   8   8   8   4   8   8   4
#     4  11  24  37  58  87 123 160 198 237 300 361
#     4  10  21  39  61  87 115 154 202 252 301 350
#     4  10  21  39  61  87 115 154 202 252 301 350
#     4  11  24  37  58  87 123 160 198 237 300 361
#     4  10  23  36  58  84 119 156 200 250 297 350
#     4   9  20  40  63  88 118 153 200 253 298 349
#     4   9  20  40  63  88 118 153 200 253 298 349
#     4  10  23  36  58  84 119 156 200 250 297 350
#
# _framework density 19.427668000000001
#
# number of rings (size 3 to 8) (size 9 to 14) (size 15 to 20)
#    0.000    2.000    0.000    2.143    4.000    9.714 
#    0.000    4.286    0.000    0.000    0.000    0.000 
#    0.000    0.000    0.000    0.000    0.000    0.000 
#
# Total GULP energy -156259.764148 kJ/mol
# GULP energy per Si atom -5580.705862 kJ/mol
# Density = 1.938345 g / cm^3
# Si number density = 19.427668 Si / 1000 Ang^3
#
#
#
# Elastic Constant Matrix: (Units=GPa)
#
#
# Indices 1 2 3 4 5 6 
#
# 1 62.2138 10.4116 54.6722 0.0000 0.0000 0.0000
# 2 10.4116 109.8362 29.9961 0.0000 0.0000 0.0000
# 3 54.6722 29.9961 130.2323 0.0000 0.0000 0.0000
# 4 0.0000 0.0000 0.0000 14.7560 0.0000 0.0000
# 5 0.0000 0.0000 0.0000 0.0000 -83.0560 0.0000
# 6 0.0000 0.0000 0.0000 0.0000 0.0000 14.1438
#
#
#
# Elastic Compliance Matrix: (Units=1/GPa)
#
#
# Indices 1 2 3 4 5 6 
#
# 1 0.025500 0.000540 -0.010829 0.000000 0.000000 0.000000
# 2 0.000540 0.009727 -0.002467 0.000000 0.000000 0.000000
# 3 -0.010829 -0.002467 0.012793 0.000000 0.000000 0.000000
# 4 0.000000 0.000000 0.000000 0.067769 0.000000 0.000000
# 5 0.000000 0.000000 0.000000 0.000000 -0.012040 0.000000
# 6 0.000000 0.000000 0.000000 0.000000 0.000000 0.070702
#
#
# Mechanical properties :
#
#
# Convention : Reuss Voigt Hill
#
# Bulk Modulus (GPa) = 44.43000 54.71580 49.57290
# Shear Modulus (GPa) = 24.10027 2.98226 13.54126
#
# Velocity S-wave (km/s) = 3.52591 1.24032 2.64296
# Velocity P-wave (km/s) = 6.28452 5.50238 5.90641
#
# Compressibility (1/GPa) = 0.02250731
#
# Stress axis : x y z
#
# Youngs Moduli (GPa) = 39.21596 102.80615 78.16723
#
# Poissons Ratio (x) = -0.05555 0.84650
# Poissons Ratio (y) = -0.02119 0.19286
# Poissons Ratio (z) = 0.42469 0.25365
#
# Static dielectric constant tensor:
#      x y z
#    x 1.701250 0.000000 0.000000 
#    y 0.000000 1.658180 0.000000 
#    z 0.000000 0.000000 1.681190 
# 
# From -- ./inp_files/32288.got.cif
#   From: 2010.05.17/outbox.cif.g08.bks.cpg/sg24_17_cif.got.tgz:32288.got - 2010.06.04 00:33:39.
