data_PCOD9334778
_publ_section_title
;
Structure prediction by ZEFSAII (Michael W. Deem and Ramdas Pophale) SiO2 
 PCOD9334778
Probable space group: I 21 21 21
;
_chemical_formula_sum "Si O2"
_cell_formula_units_Z 48
_cell_length_a 9.632485
_cell_length_b 23.378040
_cell_length_c 10.986638
_cell_angle_alpha 90.000000
_cell_angle_beta 90.000000
_cell_angle_gamma 90.000000
_cell_volume 2474.065846
_symmetry_space_group_name_H-M "I 21 21 21"
_symmetry_group_IT_number 24
_symmetry_cell_setting 'orthorhombic'
loop_
_space_group_symop_operation_xyz
x,y,z
-x,1/2-y,z
x,-y,1/2-z
1/2-x,y,-z
1/2+x,1/2+y,1/2+z
1/2-x,-y,1/2+z
1/2+x,1/2-y,-z
-x,1/2+y,1/2-z
loop_
_atom_site_type_symbol
_atom_site_label
_atom_site_fract_x
_atom_site_fract_y
_atom_site_fract_z
Si Si1 0.474995 0.854058 0.220120
Si Si2 0.237934 0.951980 0.854414
Si Si3 0.755304 0.849400 0.356250
Si Si4 0.484730 0.871819 0.767632
Si Si5 0.907505 0.199721 0.479030
Si Si6 0.234788 0.785048 0.353456
O O1 0.386806 0.906790 0.166766
O O2 0.611231 0.869841 0.297510
O O3 0.372225 0.814060 0.297841
O O4 0.528251 0.818089 0.106412
O O5 0.378076 0.919170 0.813591
O O6 0.217871 0.000000 0.750000
O O7 0.250000 0.967713 0.000000
O O8 0.750000 0.848480 0.500000
O O9 0.776337 0.782068 0.318738
O O10 0.889387 0.886598 0.321388
O O11 0.570385 0.850848 0.885007
O O12 0.392256 0.822641 0.700409
O O13 0.750000 0.216958 0.500000
O O14 0.000000 0.250000 0.426937
O O15 0.250000 0.788720 0.500000
#
# Coordination Sequence:
#
# PCOD9334778 Si02
#       6
#     8   8   8   8   8   8
#     4  11  23  39  61  92 127 166 216 265 323 386
#     4  11  26  48  71  92 122 166 226 291 338 392
#     4  11  21  36  59  93 134 170 206 252 318 401
#     4  11  23  39  61  92 127 166 216 265 323 386
#     4  12  24  36  64 100 140 176 208 252 324 399
#     4  10  21  36  56  89 136 180 212 249 308 393
#
# _framework density 19.401261999999999
#
# number of rings (size 3 to 8) (size 9 to 14) (size 15 to 20)
#    0.000    1.000    3.333    4.000    4.667    6.667 
#    0.000    0.833    0.000    0.000    0.000    0.000 
#    0.000    0.000    0.000    0.000    0.000    0.000 
#
# Total GULP energy -133982.991110 kJ/mol
# GULP energy per Si atom -5582.624630 kJ/mol
# Density = 1.935710 g / cm^3
# Si number density = 19.401262 Si / 1000 Ang^3
#
#
#
# Elastic Constant Matrix: (Units=GPa)
#
#
# Indices 1 2 3 4 5 6 
#
# 1 133.8994 17.9950 30.1787 0.0000 -0.0003 0.0002
# 2 17.9950 43.9654 26.0130 0.0002 -0.0001 0.0001
# 3 30.1787 26.0130 119.1022 0.0007 0.0009 -0.0028
# 4 0.0000 0.0002 0.0007 23.2323 -0.0002 0.0001
# 5 -0.0003 -0.0001 0.0009 -0.0002 32.7813 -0.0005
# 6 0.0002 0.0001 -0.0028 0.0001 -0.0005 9.0438
#
#
#
# Elastic Compliance Matrix: (Units=1/GPa)
#
#
# Indices 1 2 3 4 5 6 
#
# 1 0.008140 -0.002425 -0.001533 0.000000 0.000000 -0.000001
# 2 -0.002425 0.026843 -0.005248 0.000000 0.000000 -0.000002
# 3 -0.001533 -0.005248 0.009931 0.000000 0.000000 0.000003
# 4 0.000000 0.000000 0.000000 0.043043 0.000000 0.000000
# 5 0.000000 0.000000 0.000000 0.000000 0.030505 0.000002
# 6 -0.000001 -0.000002 0.000003 0.000000 0.000002 0.110573
#
#
# Mechanical properties :
#
#
# Convention : Reuss Voigt Hill
#
# Bulk Modulus (GPa) = 37.73352 49.48224 43.60788
# Shear Modulus (GPa) = 19.50986 27.86350 23.68668
#
# Velocity S-wave (km/s) = 3.17456 3.79379 3.49791
# Velocity P-wave (km/s) = 5.73832 6.68958 6.23213
#
# Compressibility (1/GPa) = 0.02650164
#
# Stress axis : x y z
#
# Youngs Moduli (GPa) = 122.85575 37.25393 100.69628
#
# Poissons Ratio (x) = 0.09032 0.15436
# Poissons Ratio (y) = 0.29787 0.52849
# Poissons Ratio (z) = 0.18833 0.19552
#
# Static dielectric constant tensor:
#      x y z
#    x 1.678730 0.000000 0.000000 
#    y 0.000000 1.680980 0.000000 
#    z 0.000000 0.000000 1.706080 
# 
# From -- ./inp_files/11287.got.cif
#   From: 2010.05.17/outbox.cif.g08.bks.cpg/sg24_6_cif.got.tgz:11287.got - 2010.06.04 00:33:39.
