data_PCOD9334619
_publ_section_title
;
Structure prediction by ZEFSAII (Michael W. Deem and Ramdas Pophale) SiO2 
 PCOD9334619
Probable space group: I 21 21 21
;
_chemical_formula_sum "Si O2"
_cell_formula_units_Z 36
_cell_length_a 9.539104
_cell_length_b 19.684737
_cell_length_c 7.728987
_cell_angle_alpha 90.000000
_cell_angle_beta 90.000000
_cell_angle_gamma 90.000000
_cell_volume 1451.308628
_symmetry_space_group_name_H-M "I 21 21 21"
_symmetry_group_IT_number 24
_symmetry_cell_setting 'orthorhombic'
loop_
_space_group_symop_operation_xyz
x,y,z
-x,1/2-y,z
x,-y,1/2-z
1/2-x,y,-z
1/2+x,1/2+y,1/2+z
1/2-x,-y,1/2+z
1/2+x,1/2-y,-z
-x,1/2+y,1/2-z
loop_
_atom_site_type_symbol
_atom_site_label
_atom_site_fract_x
_atom_site_fract_y
_atom_site_fract_z
Si Si1 0.859281 0.768835 0.122004
Si Si2 0.179542 0.845539 0.685275
Si Si3 0.093739 0.666175 0.480457
Si Si4 0.881419 0.500000 0.750000
Si Si5 0.402731 0.494054 0.951632
O O1 0.765075 0.705055 0.189528
O O2 0.928671 0.810323 0.282503
O O3 0.000000 0.750000 0.019073
O O4 0.750000 0.808581 0.000000
O O5 0.250000 0.841147 0.500000
O O6 0.192242 0.926509 0.727995
O O7 0.021070 0.822263 0.630428
O O8 0.250000 0.694906 0.500000
O O9 0.104113 0.585911 0.484037
O O10 0.978467 0.483413 0.583615
O O11 0.434493 0.500000 0.750000
O O12 0.250000 0.523483 0.000000
#
# Coordination Sequence:
#
# PCOD9334619 Si02
#       5
#     8   8   8   4   8
#     4  12  28  46  72 108 149 196 258 322 382 461
#     4  11  24  50  77 105 150 201 252 312 392 460
#     4  10  24  44  73 105 138 199 244 301 375 450
#     4  10  24  44  74 112 146 196 248 314 384 464
#     4  10  20  40  71 106 151 192 245 303 370 451
#
# _framework density 24.805199000000002
#
# number of rings (size 3 to 8) (size 9 to 14) (size 15 to 20)
#    0.000    1.333    3.333    0.667    3.111    3.556 
#    8.000    0.000    0.000    0.000    0.000    0.000 
#    0.000    0.000    0.000    0.000    0.000    0.000 
#
# Total GULP energy -100401.236086 kJ/mol
# GULP energy per Si atom -5577.846449 kJ/mol
# Density = 2.474874 g / cm^3
# Si number density = 24.805199 Si / 1000 Ang^3
#
#
#
# Elastic Constant Matrix: (Units=GPa)
#
#
# Indices 1 2 3 4 5 6 
#
# 1 128.1975 27.2586 32.6214 0.0000 0.0000 0.0000
# 2 27.2586 119.2331 0.2165 0.0000 0.0002 -0.0001
# 3 32.6214 0.2165 114.0444 0.0000 0.0011 0.0002
# 4 0.0000 0.0000 0.0000 33.6402 0.0004 0.0000
# 5 0.0000 0.0002 0.0011 0.0004 76.3733 -0.0001
# 6 0.0000 -0.0001 0.0002 0.0000 -0.0001 48.3690
#
#
#
# Elastic Compliance Matrix: (Units=1/GPa)
#
#
# Indices 1 2 3 4 5 6 
#
# 1 0.008876 -0.002025 -0.002535 0.000000 0.000000 0.000000
# 2 -0.002025 0.008849 0.000562 0.000000 0.000000 0.000000
# 3 -0.002535 0.000562 0.009493 0.000000 0.000000 0.000000
# 4 0.000000 0.000000 0.000000 0.029726 0.000000 0.000000
# 5 0.000000 0.000000 0.000000 0.000000 0.013094 0.000000
# 6 0.000000 0.000000 0.000000 0.000000 0.000000 0.020674
#
#
# Mechanical properties :
#
#
# Convention : Reuss Voigt Hill
#
# Bulk Modulus (GPa) = 52.02187 53.51868 52.77028
# Shear Modulus (GPa) = 47.56744 51.76841 49.66792
#
# Velocity S-wave (km/s) = 4.38384 4.57332 4.47958
# Velocity P-wave (km/s) = 6.82948 7.03630 6.93366
#
# Compressibility (1/GPa) = 0.01922268
#
# Stress axis : x y z
#
# Youngs Moduli (GPa) = 112.66296 113.01002 105.34546
#
# Poissons Ratio (x) = 0.22880 0.26706
# Poissons Ratio (y) = 0.22810 -0.05924
# Poissons Ratio (z) = 0.28561 -0.06355
#
# Static dielectric constant tensor:
#      x y z
#    x 2.091280 0.000000 0.000000 
#    y 0.000000 1.939240 0.000000 
#    z 0.000000 0.000000 1.868940 
# 
# From -- ./inp_files/9052.got.cif
#   From: 2010.05.17/outbox.cif.g08.bks.cpg/sg24_5_cif.got.tgz:9052.got - 2010.06.04 00:33:39.
