data_PCOD9334334
_publ_section_title
;
Structure prediction by ZEFSAII (Michael W. Deem and Ramdas Pophale) SiO2 
 PCOD9334334
Probable space group: I 21 21 21
;
_chemical_formula_sum "Si O2"
_cell_formula_units_Z 40
_cell_length_a 17.256460
_cell_length_b 8.615198
_cell_length_c 15.079935
_cell_angle_alpha 90.000000
_cell_angle_beta 90.000000
_cell_angle_gamma 90.000000
_cell_volume 2241.901057
_symmetry_space_group_name_H-M "I 21 21 21"
_symmetry_group_IT_number 24
_symmetry_cell_setting 'orthorhombic'
loop_
_space_group_symop_operation_xyz
x,y,z
-x,1/2-y,z
x,-y,1/2-z
1/2-x,y,-z
1/2+x,1/2+y,1/2+z
1/2-x,-y,1/2+z
1/2+x,1/2-y,-z
-x,1/2+y,1/2-z
loop_
_atom_site_type_symbol
_atom_site_label
_atom_site_fract_x
_atom_site_fract_y
_atom_site_fract_z
Si Si1 0.125972 0.768440 0.723183
Si Si2 0.463337 0.085658 0.061886
Si Si3 0.114304 0.556791 0.881711
Si Si4 0.250000 0.672318 0.000000
Si Si5 0.322592 0.975359 0.942626
Si Si6 0.265652 0.000000 0.750000
O O1 0.073771 0.880830 0.660535
O O2 0.099556 0.705344 0.818623
O O3 0.128295 0.606076 0.669709
O O4 0.206626 0.854192 0.742967
O O5 0.500000 0.250000 0.033681
O O6 0.535028 0.969506 0.066118
O O7 0.397847 0.028560 0.995090
O O8 0.192177 0.580834 0.937328
O O9 0.193366 0.791164 0.051479
O O10 0.315190 0.011554 0.839436
O O11 0.250000 0.043390 0.000000
#
# Coordination Sequence:
#
# PCOD9334334 Si02
#       6
#     8   8   8   4   8   4
#     4  10  20  38  57  94 121 155 193 259 312 367
#     4  10  22  39  60  92 125 158 199 255 315 360
#     4  10  22  37  60  89 128 155 199 251 312 366
#     4  10  20  40  58  90 122 164 196 244 316 364
#     4  10  21  39  61  87 122 165 203 247 304 371
#     4  12  20  38  70  86 122 164 216 242 304 380
#
# _framework density 17.842002000000001
#
# number of rings (size 3 to 8) (size 9 to 14) (size 15 to 20)
#    0.600    1.200    4.000    0.000    0.000    8.800 
#    3.600    0.000    4.400    0.000    0.000    0.000 
#    0.000    0.000    0.000    0.000    0.000    0.000 
#
# Total GULP energy -111389.551498 kJ/mol
# GULP energy per Si atom -5569.477575 kJ/mol
# Density = 1.780139 g / cm^3
# Si number density = 17.842002 Si / 1000 Ang^3
#
#
#
# Elastic Constant Matrix: (Units=GPa)
#
#
# Indices 1 2 3 4 5 6 
#
# 1 142.5651 43.0456 73.8894 0.0000 0.0000 0.0000
# 2 43.0456 40.8261 26.3671 0.0000 0.0000 0.0000
# 3 73.8894 26.3671 109.2996 0.0000 0.0000 0.0000
# 4 0.0000 0.0000 0.0000 11.1020 0.0000 0.0000
# 5 0.0000 0.0000 0.0000 0.0000 22.9534 0.0000
# 6 0.0000 0.0000 0.0000 0.0000 0.0000 29.8282
#
#
#
# Elastic Compliance Matrix: (Units=1/GPa)
#
#
# Indices 1 2 3 4 5 6 
#
# 1 0.013485 -0.009868 -0.006736 0.000000 0.000000 0.000000
# 2 -0.009868 0.036235 -0.002070 0.000000 0.000000 0.000000
# 3 -0.006736 -0.002070 0.014202 0.000000 0.000000 0.000000
# 4 0.000000 0.000000 0.000000 0.090074 0.000000 0.000000
# 5 0.000000 0.000000 0.000000 0.000000 0.043566 0.000000
# 6 0.000000 0.000000 0.000000 0.000000 0.000000 0.033525
#
#
# Mechanical properties :
#
#
# Convention : Reuss Voigt Hill
#
# Bulk Modulus (GPa) = 37.62975 64.36612 50.99793
# Shear Modulus (GPa) = 18.03142 22.73597 20.38369
#
# Velocity S-wave (km/s) = 3.18247 3.57360 3.38369
# Velocity P-wave (km/s) = 5.88561 7.29256 6.62653
#
# Compressibility (1/GPa) = 0.02657472
#
# Stress axis : x y z
#
# Youngs Moduli (GPa) = 74.15804 27.59725 70.41228
#
# Poissons Ratio (x) = 0.27232 0.47427
# Poissons Ratio (y) = 0.73177 0.14579
# Poissons Ratio (z) = 0.49950 0.05714
#
# Static dielectric constant tensor:
#      x y z
#    x 1.597210 0.000000 0.000000 
#    y 0.000000 1.663750 0.000000 
#    z 0.000000 0.000000 1.633040 
# 
# From -- ./inp_files/26937.got.cif
#   From: 2010.05.17/outbox.cif.g08.bks.cpg/sg24_14_cif.got.tgz:26937.got - 2010.06.04 00:33:39.
