data_PCOD9334401
_publ_section_title
;
Structure prediction by ZEFSAII (Michael W. Deem and Ramdas Pophale) SiO2 
 PCOD9334401
Probable space group: I 21 21 21
;
_chemical_formula_sum "Si O2"
_cell_formula_units_Z 40
_cell_length_a 15.205716
_cell_length_b 14.275478
_cell_length_c 8.847295
_cell_angle_alpha 90.000000
_cell_angle_beta 90.000000
_cell_angle_gamma 90.000000
_cell_volume 1920.472277
_symmetry_space_group_name_H-M "I 21 21 21"
_symmetry_group_IT_number 24
_symmetry_cell_setting 'orthorhombic'
loop_
_space_group_symop_operation_xyz
x,y,z
-x,1/2-y,z
x,-y,1/2-z
1/2-x,y,-z
1/2+x,1/2+y,1/2+z
1/2-x,-y,1/2+z
1/2+x,1/2-y,-z
-x,1/2+y,1/2-z
loop_
_atom_site_type_symbol
_atom_site_label
_atom_site_fract_x
_atom_site_fract_y
_atom_site_fract_z
Si Si1 0.283025 0.596871 0.667612
Si Si2 0.441353 0.096196 0.338165
Si Si3 0.396565 0.730248 0.809285
Si Si4 0.830582 0.576320 0.119821
Si Si5 0.374186 0.304811 0.343867
O O1 0.298832 0.500000 0.750000
O O2 0.250000 0.581163 0.500000
O O3 0.370279 0.659124 0.678972
O O4 0.208414 0.653456 0.758819
O O5 0.417007 0.072281 0.512235
O O6 0.388851 0.194063 0.305864
O O7 0.540641 0.130887 0.309545
O O8 0.421174 0.000000 0.250000
O O9 0.500000 0.750000 0.813034
O O10 0.341126 0.825102 0.796037
O O11 0.368723 0.691529 0.974104
O O12 0.823039 0.500000 0.250000
O O13 0.750000 0.573374 0.000000
#
# Coordination Sequence:
#
# PCOD9334401 Si02
#       5
#     8   8   8   8   8
#     4  12  27  46  70 102 136 181 235 285 342 417
#     4  10  20  38  64  96 133 173 224 275 340 407
#     4  11  22  46  70  96 135 181 223 283 344 404
#     4  11  23  40  64  96 134 175 218 275 341 408
#     4  10  20  44  67  95 132 180 227 279 346 403
#
# _framework density 20.828212000000001
#
# number of rings (size 3 to 8) (size 9 to 14) (size 15 to 20)
#    0.000    1.200    4.000    5.400    0.000    3.200 
#   10.800    0.000    0.000    0.000    0.000    0.000 
#    0.000    0.000    0.000    0.000    0.000    0.000 
#
# Total GULP energy -111701.804109 kJ/mol
# GULP energy per Si atom -5585.090205 kJ/mol
# Density = 2.078081 g / cm^3
# Si number density = 20.828212 Si / 1000 Ang^3
#
#
#
# Elastic Constant Matrix: (Units=GPa)
#
#
# Indices 1 2 3 4 5 6 
#
# 1 81.9957 24.8560 28.7760 0.0000 0.0000 0.0000
# 2 24.8560 139.5311 62.7818 0.0000 0.0000 0.0000
# 3 28.7760 62.7818 71.2847 0.0000 0.0000 0.0000
# 4 0.0000 0.0000 0.0000 17.8119 0.0000 0.0000
# 5 0.0000 0.0000 0.0000 0.0000 10.8452 0.0000
# 6 0.0000 0.0000 0.0000 0.0000 0.0000 8.8077
#
#
#
# Elastic Compliance Matrix: (Units=1/GPa)
#
#
# Indices 1 2 3 4 5 6 
#
# 1 0.014209 0.000082 -0.005808 0.000000 0.000000 0.000000
# 2 0.000082 0.011872 -0.010489 0.000000 0.000000 0.000000
# 3 -0.005808 -0.010489 0.025611 0.000000 0.000000 0.000000
# 4 0.000000 0.000000 0.000000 0.056142 0.000000 0.000000
# 5 0.000000 0.000000 0.000000 0.000000 0.092206 0.000000
# 6 0.000000 0.000000 0.000000 0.000000 0.000000 0.113538
#
#
# Mechanical properties :
#
#
# Convention : Reuss Voigt Hill
#
# Bulk Modulus (GPa) = 51.91651 58.40434 55.16043
# Shear Modulus (GPa) = 14.18729 19.25280 16.72005
#
# Velocity S-wave (km/s) = 2.61273 3.04363 2.83638
# Velocity P-wave (km/s) = 5.83798 6.36030 6.10473
#
# Compressibility (1/GPa) = 0.01926169
#
# Stress axis : x y z
#
# Youngs Moduli (GPa) = 70.37661 84.23458 39.04629
#
# Poissons Ratio (x) = -0.00693 0.22680
# Poissons Ratio (y) = -0.00579 0.40955
# Poissons Ratio (z) = 0.40878 0.88352
#
# Static dielectric constant tensor:
#      x y z
#    x 1.816790 0.000000 0.000000 
#    y 0.000000 1.781930 0.000000 
#    z 0.000000 0.000000 1.718390 
# 
# From -- ./inp_files/12320.got.cif
#   From: 2010.05.17/outbox.cif.g08.bks.cpg/sg24_7_cif.got.tgz:12320.got - 2010.06.04 00:33:39.
