data_PCOD9334080
_publ_section_title
;
Structure prediction by ZEFSAII (Michael W. Deem and Ramdas Pophale) SiO2 
 PCOD9334080
Probable space group: I 21 21 21
;
_chemical_formula_sum "Si O2"
_cell_formula_units_Z 48
_cell_length_a 27.955730
_cell_length_b 9.928366
_cell_length_c 9.038715
_cell_angle_alpha 90.000000
_cell_angle_beta 90.000000
_cell_angle_gamma 90.000000
_cell_volume 2508.738004
_symmetry_space_group_name_H-M "I 21 21 21"
_symmetry_group_IT_number 24
_symmetry_cell_setting 'orthorhombic'
loop_
_space_group_symop_operation_xyz
x,y,z
-x,1/2-y,z
x,-y,1/2-z
1/2-x,y,-z
1/2+x,1/2+y,1/2+z
1/2-x,-y,1/2+z
1/2+x,1/2-y,-z
-x,1/2+y,1/2-z
loop_
_atom_site_type_symbol
_atom_site_label
_atom_site_fract_x
_atom_site_fract_y
_atom_site_fract_z
Si Si1 0.576206 0.988528 0.074368
Si Si2 0.977431 0.393369 0.621102
Si Si3 0.728988 0.137847 0.833995
Si Si4 0.714893 0.384968 0.630047
Si Si5 0.385915 0.639029 0.666234
Si Si6 0.888684 0.282976 0.447264
O O1 0.522092 0.951838 0.028502
O O2 0.577180 0.000000 0.250000
O O3 0.609990 0.864850 0.024236
O O4 0.591898 0.124794 0.994586
O O5 0.967839 0.500000 0.750000
O O6 0.929604 0.365741 0.529681
O O7 0.000000 0.250000 0.676208
O O8 0.738564 0.261421 0.722076
O O9 0.671280 0.139426 0.847418
O O10 0.743352 0.000000 0.750000
O O11 0.750000 0.147931 0.000000
O O12 0.705428 0.500000 0.750000
O O13 0.750000 0.430416 0.500000
O O14 0.664706 0.340106 0.556915
O O15 0.399562 0.500000 0.750000
O O16 0.401402 0.757455 0.774796
#
# Coordination Sequence:
#
# PCOD9334080 Si02
#       6
#     8   8   8   8   8   8
#     4   9  17  32  58  89 117 146 182 231 286 334
#     4   9  18  35  58  85 114 145 187 235 279 332
#     4  10  20  35  58  87 115 146 190 237 279 334
#     4  11  24  42  58  79 113 152 192 237 287 337
#     4   8  16  31  51  78 113 144 176 224 277 326
#     4   9  19  37  57  78 111 151 188 230 279 339
#
# _framework density 19.133123999999999
#
# number of rings (size 3 to 8) (size 9 to 14) (size 15 to 20)
#    0.000    2.667    0.000    2.000    0.000    2.667 
#    0.000   15.833    0.000   29.000    0.000    0.000 
#    0.000    0.000    0.000    0.000    0.000    0.000 
#
# Total GULP energy -133710.421800 kJ/mol
# GULP energy per Si atom -5571.267575 kJ/mol
# Density = 1.908958 g / cm^3
# Si number density = 19.133124 Si / 1000 Ang^3
#
#
#
# Elastic Constant Matrix: (Units=GPa)
#
#
# Indices 1 2 3 4 5 6 
#
# 1 87.4991 38.7846 63.7900 0.0000 0.0000 0.0000
# 2 38.7846 50.4715 27.6933 0.0000 0.0000 0.0000
# 3 63.7900 27.6933 105.6948 0.0000 0.0000 0.0000
# 4 0.0000 0.0000 0.0000 44.3840 0.0000 0.0000
# 5 0.0000 0.0000 0.0000 0.0000 31.0825 0.0000
# 6 0.0000 0.0000 0.0000 0.0000 0.0000 18.3007
#
#
#
# Elastic Compliance Matrix: (Units=1/GPa)
#
#
# Indices 1 2 3 4 5 6 
#
# 1 0.026506 -0.013537 -0.012450 0.000000 0.000000 0.000000
# 2 -0.013537 0.030053 0.000296 0.000000 0.000000 0.000000
# 3 -0.012450 0.000296 0.016898 0.000000 0.000000 0.000000
# 4 0.000000 0.000000 0.000000 0.022531 0.000000 0.000000
# 5 0.000000 0.000000 0.000000 0.000000 0.032172 0.000000
# 6 0.000000 0.000000 0.000000 0.000000 0.000000 0.054643
#
#
# Mechanical properties :
#
#
# Convention : Reuss Voigt Hill
#
# Bulk Modulus (GPa) = 45.30233 56.02236 50.66234
# Shear Modulus (GPa) = 20.70022 26.31327 23.50675
#
# Velocity S-wave (km/s) = 3.29280 3.71249 3.50893
# Velocity P-wave (km/s) = 6.17945 6.90801 6.55386
#
# Compressibility (1/GPa) = 0.02207392
#
# Stress axis : x y z
#
# Youngs Moduli (GPa) = 37.72792 33.27415 59.17944
#
# Poissons Ratio (x) = 0.45043 0.73679
# Poissons Ratio (y) = 0.51072 -0.01749
# Poissons Ratio (z) = 0.46972 -0.00983
#
# Static dielectric constant tensor:
#      x y z
#    x 1.649740 0.000000 0.000000 
#    y 0.000000 1.718670 0.000000 
#    z 0.000000 0.000000 1.691910 
# 
# From -- ./inp_files/16825.got.cif
#   From: 2010.05.17/outbox.cif.g08.bks.cpg/sg24_9_cif.got.tgz:16825.got - 2010.06.04 00:33:39.
