data_PCOD9334046
_publ_section_title
;
Structure prediction by ZEFSAII (Michael W. Deem and Ramdas Pophale) SiO2 
 PCOD9334046
Probable space group: I 21 21 21
;
_chemical_formula_sum "Si O2"
_cell_formula_units_Z 32
_cell_length_a 8.152599
_cell_length_b 22.892702
_cell_length_c 7.170802
_cell_angle_alpha 90.000000
_cell_angle_beta 90.000000
_cell_angle_gamma 90.000000
_cell_volume 1338.322771
_symmetry_space_group_name_H-M "I 21 21 21"
_symmetry_group_IT_number 24
_symmetry_cell_setting 'orthorhombic'
loop_
_space_group_symop_operation_xyz
x,y,z
-x,1/2-y,z
x,-y,1/2-z
1/2-x,y,-z
1/2+x,1/2+y,1/2+z
1/2-x,-y,1/2+z
1/2+x,1/2-y,-z
-x,1/2+y,1/2-z
loop_
_atom_site_type_symbol
_atom_site_label
_atom_site_fract_x
_atom_site_fract_y
_atom_site_fract_z
Si Si1 0.948375 0.437108 0.531001
Si Si2 0.555232 0.437460 0.026107
Si Si3 0.556401 0.187578 0.023042
Si Si4 0.942658 0.687548 0.957004
O O1 0.750000 0.436996 0.500000
O O2 0.977517 0.437191 0.752844
O O3 0.010079 0.499589 0.456555
O O4 0.013524 0.373928 0.466890
O O5 0.500736 0.375279 0.946152
O O6 0.750000 0.439060 0.000000
O O7 0.500000 0.250000 0.942522
O O8 0.486884 0.187808 0.236172
O O9 0.750000 0.187732 0.000000
O O10 0.000000 0.750000 0.030394
O O11 0.750000 0.685554 0.000000
#
# Coordination Sequence:
#
# PCOD9334046 Si02
#       4
#     8   8   8   8
#     4   8  15  29  50  74 105 141 181 221 272 335
#     4   9  16  29  52  78 103 140 184 228 272 329
#     4  10  20  35  54  81 112 146 185 233 283 333
#     4   9  18  35  56  81 111 149 189 230 277 335
#
# _framework density 23.910523999999999
#
# number of rings (size 3 to 8) (size 9 to 14) (size 15 to 20)
#    0.000    3.000    0.000    0.750    0.000    0.000 
#    0.000   21.250    0.000   21.000    0.000    0.000 
#    0.000    0.000    0.000    0.000    0.000    0.000 
#
# Total GULP energy -89132.291253 kJ/mol
# GULP energy per Si atom -5570.768203 kJ/mol
# Density = 2.385610 g / cm^3
# Si number density = 23.910524 Si / 1000 Ang^3
#
#
#
# Elastic Constant Matrix: (Units=GPa)
#
#
# Indices 1 2 3 4 5 6 
#
# 1 51.7004 37.8639 -1.6833 -0.0016 -0.0007 0.0001
# 2 37.8639 381.4657 12.8186 -0.0015 -0.0004 0.0001
# 3 -1.6833 12.8186 143.3586 -0.0044 -0.0017 0.0005
# 4 -0.0016 -0.0015 -0.0044 47.2864 -0.0021 0.0000
# 5 -0.0007 -0.0004 -0.0017 -0.0021 14.7343 0.0001
# 6 0.0001 0.0001 0.0005 0.0000 0.0001 24.4874
#
#
#
# Elastic Compliance Matrix: (Units=1/GPa)
#
#
# Indices 1 2 3 4 5 6 
#
# 1 0.020885 -0.002088 0.000432 0.000001 0.000001 0.000000
# 2 -0.002088 0.002838 -0.000278 0.000000 0.000000 0.000000
# 3 0.000432 -0.000278 0.007005 0.000001 0.000001 0.000000
# 4 0.000001 0.000000 0.000001 0.021148 0.000003 0.000000
# 5 0.000001 0.000000 0.000001 0.000003 0.067869 0.000000
# 6 0.000000 0.000000 0.000000 0.000000 0.000000 0.040837
#
#
# Mechanical properties :
#
#
# Convention : Reuss Voigt Hill
#
# Bulk Modulus (GPa) = 37.22902 74.94701 56.08801
# Shear Modulus (GPa) = 28.83437 52.46998 40.65217
#
# Velocity S-wave (km/s) = 3.47641 4.68956 4.12780
# Velocity P-wave (km/s) = 5.63186 7.79329 6.79902
#
# Compressibility (1/GPa) = 0.02686076
#
# Stress axis : x y z
#
# Youngs Moduli (GPa) = 47.88092 352.35756 142.74559
#
# Poissons Ratio (x) = 0.73556 -0.06165
# Poissons Ratio (y) = 0.09995 0.03972
# Poissons Ratio (z) = -0.02068 0.09805
#
# Static dielectric constant tensor:
#      x y z
#    x 1.835010 0.000000 0.000000 
#    y 0.000000 2.057990 0.000000 
#    z 0.000000 0.000000 1.872190 
# 
# From -- ./inp_files/9180.got.cif
#   From: 2010.05.17/outbox.cif.g08.bks.cpg/sg24_5_cif.got.tgz:9180.got - 2010.06.04 00:33:39.
