data_PCOD9334214
_publ_section_title
;
Structure prediction by ZEFSAII (Michael W. Deem and Ramdas Pophale) SiO2 
 PCOD9334214
Probable space group: I 21 21 21
;
_chemical_formula_sum "Si O2"
_cell_formula_units_Z 48
_cell_length_a 18.181751
_cell_length_b 12.018633
_cell_length_c 10.479626
_cell_angle_alpha 90.000000
_cell_angle_beta 90.000000
_cell_angle_gamma 90.000000
_cell_volume 2290.005700
_symmetry_space_group_name_H-M "I 21 21 21"
_symmetry_group_IT_number 24
_symmetry_cell_setting 'orthorhombic'
loop_
_space_group_symop_operation_xyz
x,y,z
-x,1/2-y,z
x,-y,1/2-z
1/2-x,y,-z
1/2+x,1/2+y,1/2+z
1/2-x,-y,1/2+z
1/2+x,1/2-y,-z
-x,1/2+y,1/2-z
loop_
_atom_site_type_symbol
_atom_site_label
_atom_site_fract_x
_atom_site_fract_y
_atom_site_fract_z
Si Si1 0.103786 0.459235 0.606779
Si Si2 0.414094 0.234382 0.013152
Si Si3 0.432102 0.994824 0.094125
Si Si4 0.294707 0.638537 0.387883
Si Si5 0.087769 0.759647 0.019451
Si Si6 0.855728 0.869620 0.265183
O O1 0.113486 0.500000 0.750000
O O2 0.171597 0.526649 0.546250
O O3 0.109257 0.329514 0.587575
O O4 0.020853 0.491830 0.568234
O O5 0.500000 0.250000 0.037058
O O6 0.392937 0.302926 0.884677
O O7 0.366954 0.288082 0.127476
O O8 0.401018 0.102820 0.022266
O O9 0.423817 0.000000 0.250000
O O10 0.399009 0.883317 0.031825
O O11 0.250000 0.700102 0.500000
O O12 0.232933 0.624664 0.282474
O O13 0.125272 0.707491 0.144423
O O14 0.000000 0.750000 0.041163
O O15 0.881340 0.000000 0.250000
#
# Coordination Sequence:
#
# PCOD9334214 Si02
#       6
#     8   8   8   8   8   8
#     4  10  20  36  64  96 131 170 221 286 341 385
#     4  11  22  40  71  98 134 184 229 284 345 403
#     4  10  23  39  65  99 133 178 230 281 341 402
#     4  10  21  38  65  93 131 175 227 274 342 397
#     4  10  22  40  63 102 142 175 230 282 335 416
#     4  11  24  42  67  99 141 181 227 283 345 415
#
# _framework density 20.960646000000001
#
# number of rings (size 3 to 8) (size 9 to 14) (size 15 to 20)
#    0.000    1.667    1.667    3.000    4.667    1.333 
#    0.000    0.000   11.000    0.000    0.000    0.000 
#    0.000    0.000    0.000    0.000    0.000    0.000 
#
# Total GULP energy -133667.903715 kJ/mol
# GULP energy per Si atom -5569.495988 kJ/mol
# Density = 2.091294 g / cm^3
# Si number density = 20.960646 Si / 1000 Ang^3
#
#
#
# Elastic Constant Matrix: (Units=GPa)
#
#
# Indices 1 2 3 4 5 6 
#
# 1 99.7202 56.0043 36.8394 0.0000 0.0000 0.0000
# 2 56.0043 226.0150 69.5978 0.0000 0.0000 0.0000
# 3 36.8394 69.5978 109.0328 0.0000 0.0000 0.0000
# 4 0.0000 0.0000 0.0000 39.4357 0.0000 0.0000
# 5 0.0000 0.0000 0.0000 0.0000 31.1781 0.0000
# 6 0.0000 0.0000 0.0000 0.0000 0.0000 27.8946
#
#
#
# Elastic Compliance Matrix: (Units=1/GPa)
#
#
# Indices 1 2 3 4 5 6 
#
# 1 0.012276 -0.002196 -0.002746 0.000000 0.000000 0.000000
# 2 -0.002196 0.005900 -0.003024 0.000000 0.000000 0.000000
# 3 -0.002746 -0.003024 0.012030 0.000000 0.000000 0.000000
# 4 0.000000 0.000000 0.000000 0.025358 0.000000 0.000000
# 5 0.000000 0.000000 0.000000 0.000000 0.032074 0.000000
# 6 0.000000 0.000000 0.000000 0.000000 0.000000 0.035849
#
#
# Mechanical properties :
#
#
# Convention : Reuss Voigt Hill
#
# Bulk Modulus (GPa) = 70.06103 84.40567 77.23335
# Shear Modulus (GPa) = 34.67986 37.85678 36.26832
#
# Velocity S-wave (km/s) = 4.07200 4.25442 4.16421
# Velocity P-wave (km/s) = 7.45693 8.03054 7.74904
#
# Compressibility (1/GPa) = 0.01427327
#
# Stress axis : x y z
#
# Youngs Moduli (GPa) = 81.46032 169.49474 83.12896
#
# Poissons Ratio (x) = 0.37227 0.22825
# Poissons Ratio (y) = 0.17891 0.25138
# Poissons Ratio (z) = 0.22367 0.51254
#
# Static dielectric constant tensor:
#      x y z
#    x 1.826930 0.000000 0.000000 
#    y 0.000000 1.816700 0.000000 
#    z 0.000000 0.000000 1.877650 
# 
# From -- ./inp_files/21530.got.cif
#   From: 2010.05.17/outbox.cif.g08.bks.cpg/sg24_11_cif.got.tgz:21530.got - 2010.06.04 00:33:39.
