data_PCOD9334350
_publ_section_title
;
Structure prediction by ZEFSAII (Michael W. Deem and Ramdas Pophale) SiO2 
 PCOD9334350
Probable space group: I 21 21 21
;
_chemical_formula_sum "Si O2"
_cell_formula_units_Z 32
_cell_length_a 5.095374
_cell_length_b 10.633188
_cell_length_c 24.659495
_cell_angle_alpha 90.000000
_cell_angle_beta 90.000000
_cell_angle_gamma 90.000000
_cell_volume 1336.053157
_symmetry_space_group_name_H-M "I 21 21 21"
_symmetry_group_IT_number 24
_symmetry_cell_setting 'orthorhombic'
loop_
_space_group_symop_operation_xyz
x,y,z
-x,1/2-y,z
x,-y,1/2-z
1/2-x,y,-z
1/2+x,1/2+y,1/2+z
1/2-x,-y,1/2+z
1/2+x,1/2-y,-z
-x,1/2+y,1/2-z
loop_
_atom_site_type_symbol
_atom_site_label
_atom_site_fract_x
_atom_site_fract_y
_atom_site_fract_z
Si Si1 0.500408 0.467212 0.538808
Si Si2 0.000000 0.750000 0.244224
Si Si3 0.418379 0.957904 0.845949
Si Si4 0.422898 0.584402 0.302857
Si Si5 0.000000 0.250000 0.037481
O O1 0.750000 0.460056 0.500000
O O2 0.577308 0.397033 0.594388
O O3 0.468413 0.611433 0.561807
O O4 0.250000 0.437833 0.500000
O O5 0.101006 0.858370 0.203595
O O6 0.247498 0.702765 0.280394
O O7 0.705829 0.014104 0.838294
O O8 0.192478 0.063577 0.836517
O O9 0.461405 0.500000 0.250000
O O10 0.250000 0.236386 0.000000
#
# Coordination Sequence:
#
# PCOD9334350 Si02
#       5
#     8   4   8   8   4
#     4  10  20  38  60  89 128 169 222 281 333 407
#     4  10  24  45  68  96 142 180 228 303 360 420
#     4  11  23  40  65  96 130 179 228 280 352 418
#     4  10  22  40  62  92 128 172 226 279 341 416
#     4   8  16  31  52  74 108 154 198 259 322 360
#
# _framework density 23.951143999999999
#
# number of rings (size 3 to 8) (size 9 to 14) (size 15 to 20)
#    0.000    2.000    0.000    3.750    0.000   10.000 
#    0.000   11.250    0.000    0.000    0.000    0.000 
#    0.000    0.000    0.000    0.000    0.000    0.000 
#
# Total GULP energy -89110.030249 kJ/mol
# GULP energy per Si atom -5569.376891 kJ/mol
# Density = 2.389663 g / cm^3
# Si number density = 23.951144 Si / 1000 Ang^3
#
#
#
# Elastic Constant Matrix: (Units=GPa)
#
#
# Indices 1 2 3 4 5 6 
#
# 1 185.4330 16.0382 57.9430 0.0000 0.0000 0.0000
# 2 16.0382 66.5401 18.7718 0.0000 0.0000 0.0000
# 3 57.9430 18.7718 143.6199 0.0000 0.0000 0.0000
# 4 0.0000 0.0000 0.0000 8.5357 0.0000 0.0000
# 5 0.0000 0.0000 0.0000 0.0000 22.6205 0.0000
# 6 0.0000 0.0000 0.0000 0.0000 0.0000 23.5148
#
#
#
# Elastic Compliance Matrix: (Units=1/GPa)
#
#
# Indices 1 2 3 4 5 6 
#
# 1 0.006214 -0.000821 -0.002400 0.000000 0.000000 0.000000
# 2 -0.000821 0.015712 -0.001723 0.000000 0.000000 0.000000
# 3 -0.002400 -0.001723 0.008156 0.000000 0.000000 0.000000
# 4 0.000000 0.000000 0.000000 0.117155 0.000000 0.000000
# 5 0.000000 0.000000 0.000000 0.000000 0.044208 0.000000
# 6 0.000000 0.000000 0.000000 0.000000 0.000000 0.042526
#
#
# Mechanical properties :
#
#
# Convention : Reuss Voigt Hill
#
# Bulk Modulus (GPa) = 49.51414 64.56656 57.04035
# Shear Modulus (GPa) = 19.95303 31.12353 25.53828
#
# Velocity S-wave (km/s) = 2.88943 3.60871 3.26891
# Velocity P-wave (km/s) = 5.64354 6.66182 6.17371
#
# Compressibility (1/GPa) = 0.02019625
#
# Stress axis : x y z
#
# Youngs Moduli (GPa) = 160.93805 63.64443 122.60805
#
# Poissons Ratio (x) = 0.05223 0.29421
# Poissons Ratio (y) = 0.13208 0.21120
# Poissons Ratio (z) = 0.38618 0.10963
#
# Static dielectric constant tensor:
#      x y z
#    x 1.884430 0.000000 0.000000 
#    y 0.000000 2.192370 0.000000 
#    z 0.000000 0.000000 1.877560 
# 
# From -- ./inp_files/21924.got.cif
#   From: 2010.05.17/outbox.cif.g08.bks.cpg/sg24_11_cif.got.tgz:21924.got - 2010.06.04 00:33:39.
