data_PCOD9334912
_publ_section_title
;
Structure prediction by ZEFSAII (Michael W. Deem and Ramdas Pophale) SiO2 
 PCOD9334912
Probable space group: I 21 21 21
;
_chemical_formula_sum "Si O2"
_cell_formula_units_Z 64
_cell_length_a 15.130687
_cell_length_b 24.486535
_cell_length_c 8.926398
_cell_angle_alpha 90.000000
_cell_angle_beta 90.000000
_cell_angle_gamma 90.000000
_cell_volume 3307.213470
_symmetry_space_group_name_H-M "I 21 21 21"
_symmetry_group_IT_number 24
_symmetry_cell_setting 'orthorhombic'
loop_
_space_group_symop_operation_xyz
x,y,z
-x,1/2-y,z
x,-y,1/2-z
1/2-x,y,-z
1/2+x,1/2+y,1/2+z
1/2-x,-y,1/2+z
1/2+x,1/2-y,-z
-x,1/2+y,1/2-z
loop_
_atom_site_type_symbol
_atom_site_label
_atom_site_fract_x
_atom_site_fract_y
_atom_site_fract_z
Si Si1 0.254690 0.738493 0.226368
Si Si2 0.907535 0.217618 0.494004
Si Si3 0.600030 0.440373 0.809022
Si Si4 0.259504 0.863098 0.322085
Si Si5 0.926215 0.095804 0.367925
Si Si6 0.240111 0.378725 0.168120
Si Si7 0.105979 0.441931 0.686275
Si Si8 0.084226 0.057919 0.828027
O O1 0.165373 0.738743 0.125814
O O2 0.263791 0.799652 0.284432
O O3 0.237931 0.687086 0.333666
O O4 0.346299 0.723543 0.141144
O O5 0.930888 0.155693 0.445649
O O6 0.000000 0.250000 0.501259
O O7 0.626684 0.500000 0.750000
O O8 0.674272 0.396046 0.765521
O O9 0.511506 0.422201 0.724134
O O10 0.587168 0.444096 0.990063
O O11 0.250000 0.867384 0.500000
O O12 0.347041 0.895966 0.276843
O O13 0.845945 0.099173 0.251809
O O14 0.908603 0.056142 0.508303
O O15 0.321682 0.397904 0.269118
O O16 0.250000 0.399760 0.000000
O O17 0.136291 0.500000 0.750000
O O18 0.013505 0.429177 0.768112
O O19 0.107851 0.000000 0.750000
#
# Coordination Sequence:
#
# PCOD9334912 Si02
#       8
#     8   8   8   8   8   8   8   8
#     4  10  21  39  59  92 124 160 209 256 308 377
#     4  10  21  38  61  90 126 161 204 258 314 368
#     4  11  22  40  63  92 126 167 211 260 314 372
#     4  10  22  39  62  89 127 169 210 255 313 376
#     4  11  23  41  64  88 127 159 204 259 313 368
#     4  11  23  40  63  90 123 161 201 254 313 368
#     4  11  23  40  61  88 120 159 204 257 311 374
#     4  10  22  41  60  90 128 165 211 261 310 372
#
# _framework density 19.351638999999999
#
# number of rings (size 3 to 8) (size 9 to 14) (size 15 to 20)
#    0.000    1.500    1.250    4.125    1.750    1.500 
#    4.500    0.000    0.000    6.000    0.000    0.000 
#    0.000    0.000    0.000    0.000    0.000    0.000 
#
# Total GULP energy -178582.828881 kJ/mol
# GULP energy per Si atom -5580.713403 kJ/mol
# Density = 1.930759 g / cm^3
# Si number density = 19.351639 Si / 1000 Ang^3
#
#
#
# Elastic Constant Matrix: (Units=GPa)
#
#
# Indices 1 2 3 4 5 6 
#
# 1 62.0598 42.3749 22.8890 0.0000 0.0001 0.0000
# 2 42.3749 94.0183 10.6894 0.0000 0.0001 0.0000
# 3 22.8890 10.6894 82.1077 0.0013 -0.0004 -0.0002
# 4 0.0000 0.0000 0.0013 18.0202 -0.0001 0.0001
# 5 0.0001 0.0001 -0.0004 -0.0001 5.0756 0.0000
# 6 0.0000 0.0000 -0.0002 0.0001 0.0000 20.2519
#
#
#
# Elastic Compliance Matrix: (Units=1/GPa)
#
#
# Indices 1 2 3 4 5 6 
#
# 1 0.025691 -0.010927 -0.005739 0.000000 -0.000001 0.000000
# 2 -0.010927 0.015443 0.001035 0.000000 0.000000 0.000000
# 3 -0.005739 0.001035 0.013644 -0.000001 0.000001 0.000000
# 4 0.000000 0.000000 -0.000001 0.055493 0.000001 0.000000
# 5 -0.000001 0.000000 0.000001 0.000001 0.197020 0.000000
# 6 0.000000 0.000000 0.000000 0.000000 0.000000 0.049378
#
#
# Mechanical properties :
#
#
# Convention : Reuss Voigt Hill
#
# Bulk Modulus (GPa) = 42.52144 43.34361 42.93252
# Shear Modulus (GPa) = 12.63359 19.48504 16.05931
#
# Velocity S-wave (km/s) = 2.55785 3.17660 2.88387
# Velocity P-wave (km/s) = 5.54475 5.99174 5.77257
#
# Compressibility (1/GPa) = 0.02351755
#
# Stress axis : x y z
#
# Youngs Moduli (GPa) = 38.92392 64.75311 73.29089
#
# Poissons Ratio (x) = 0.70754 0.42064
# Poissons Ratio (y) = 0.42531 -0.07589
# Poissons Ratio (z) = 0.22340 -0.06705
#
# Static dielectric constant tensor:
#      x y z
#    x 1.654260 0.000000 0.000000 
#    y 0.000000 1.699910 0.000000 
#    z 0.000000 0.000000 1.679170 
# 
# From -- ./inp_files/13363.got.cif
#   From: 2010.05.17/outbox.cif.g08.bks.cpg/sg24_7_cif.got.tgz:13363.got - 2010.06.04 00:33:39.
