data_PCOD9334044
_publ_section_title
;
Structure prediction by ZEFSAII (Michael W. Deem and Ramdas Pophale) SiO2 
 PCOD9334044
Probable space group: I 21 21 21
;
_chemical_formula_sum "Si O2"
_cell_formula_units_Z 48
_cell_length_a 7.866256
_cell_length_b 19.275840
_cell_length_c 13.166421
_cell_angle_alpha 90.000000
_cell_angle_beta 90.000000
_cell_angle_gamma 90.000000
_cell_volume 1996.407195
_symmetry_space_group_name_H-M "I 21 21 21"
_symmetry_group_IT_number 24
_symmetry_cell_setting 'orthorhombic'
loop_
_space_group_symop_operation_xyz
x,y,z
-x,1/2-y,z
x,-y,1/2-z
1/2-x,y,-z
1/2+x,1/2+y,1/2+z
1/2-x,-y,1/2+z
1/2+x,1/2-y,-z
-x,1/2+y,1/2-z
loop_
_atom_site_type_symbol
_atom_site_label
_atom_site_fract_x
_atom_site_fract_y
_atom_site_fract_z
Si Si1 0.365879 0.540181 0.880072
Si Si2 0.805167 0.168575 0.242317
Si Si3 0.302335 0.174557 0.768576
Si Si4 0.557308 0.973088 0.419773
Si Si5 0.499477 0.173834 0.075666
Si Si6 0.754771 0.551806 0.121776
O O1 0.296181 0.611013 0.831181
O O2 0.232403 0.478402 0.857742
O O3 0.558463 0.527285 0.846530
O O4 0.405855 0.534658 0.000802
O O5 0.795251 0.248388 0.278795
O O6 0.653412 0.168664 0.158888
O O7 0.000430 0.160885 0.203519
O O8 0.230136 0.120739 0.686674
O O9 0.179583 0.171506 0.865723
O O10 0.526875 0.900539 0.476587
O O11 0.388900 0.994054 0.361590
O O12 0.500000 0.250000 0.024299
O O13 0.750000 0.565147 0.000000
#
# Coordination Sequence:
#
# PCOD9334044 Si02
#       6
#     8   8   8   8   8   8
#     4   9  19  35  55  75 110 148 181 231 277 333
#     4   9  18  34  54  80 112 148 186 224 279 338
#     4   9  18  33  53  79 113 145 185 225 273 339
#     4  10  20  35  54  77 114 143 186 235 281 335
#     4  10  21  36  57  81 110 147 188 238 284 337
#     4   9  18  33  52  78 108 144 183 228 275 327
#
# _framework density 24.043191
#
# number of rings (size 3 to 8) (size 9 to 14) (size 15 to 20)
#    0.000    2.667    0.000    1.000    0.000    4.000 
#    3.000    3.333   18.333    0.000    0.000    0.000 
#    0.000    0.000    0.000    0.000    0.000    0.000 
#
# Total GULP energy -133751.475200 kJ/mol
# GULP energy per Si atom -5572.978133 kJ/mol
# Density = 2.398847 g / cm^3
# Si number density = 24.043191 Si / 1000 Ang^3
#
#
#
# Elastic Constant Matrix: (Units=GPa)
#
#
# Indices 1 2 3 4 5 6 
#
# 1 96.1725 56.6190 -25.7125 0.0000 0.0000 0.0000
# 2 56.6190 146.0305 22.3680 0.0000 0.0000 0.0000
# 3 -25.7125 22.3680 63.2706 0.0000 0.0000 0.0000
# 4 0.0000 0.0000 0.0000 30.7330 0.0000 0.0000
# 5 0.0000 0.0000 0.0000 0.0000 -4.2408 0.0000
# 6 0.0000 0.0000 0.0000 0.0000 0.0000 43.1068
#
#
#
# Elastic Compliance Matrix: (Units=1/GPa)
#
#
# Indices 1 2 3 4 5 6 
#
# 1 0.018361 -0.008735 0.010550 0.000000 0.000000 0.000000
# 2 -0.008735 0.011395 -0.007578 0.000000 0.000000 0.000000
# 3 0.010550 -0.007578 0.022772 0.000000 0.000000 0.000000
# 4 0.000000 0.000000 0.000000 0.032538 0.000000 0.000000
# 5 0.000000 0.000000 0.000000 0.000000 -0.235804 0.000000
# 6 0.000000 0.000000 0.000000 0.000000 0.000000 0.023198
#
#
# Mechanical properties :
#
#
# Convention : Reuss Voigt Hill
#
# Bulk Modulus (GPa) = 24.38966 45.78029 35.08497
# Shear Modulus (GPa) = -48.85421 30.73305 -9.06058
#
# Velocity S-wave (km/s) = -4.51259 3.57913 -1.94336
# Velocity P-wave (km/s) = 4.12131 6.01352 3.09655
#
# Compressibility (1/GPa) = 0.04100099
#
# Stress axis : x y z
#
# Youngs Moduli (GPa) = 54.46337 87.75492 43.91432
#
# Poissons Ratio (x) = 0.76653 -0.46328
# Poissons Ratio (y) = 0.47573 0.33280
# Poissons Ratio (z) = -0.57457 0.66504
#
# Static dielectric constant tensor:
#      x y z
#    x 2.046570 0.000000 0.000000 
#    y 0.000000 1.951810 0.000000 
#    z 0.000000 0.000000 1.991210 
# 
# From -- ./inp_files/14206.got.cif
#   From: 2010.05.17/outbox.cif.g08.bks.cpg/sg24_8_cif.got.tgz:14206.got - 2010.06.04 00:33:39.
