data_PCOD9334215
_publ_section_title
;
Structure prediction by ZEFSAII (Michael W. Deem and Ramdas Pophale) SiO2 
 PCOD9334215
Probable space group: I 21 21 21
;
_chemical_formula_sum "Si O2"
_cell_formula_units_Z 56
_cell_length_a 13.661496
_cell_length_b 10.865683
_cell_length_c 16.123895
_cell_angle_alpha 90.000000
_cell_angle_beta 90.000000
_cell_angle_gamma 90.000000
_cell_volume 2393.454915
_symmetry_space_group_name_H-M "I 21 21 21"
_symmetry_group_IT_number 24
_symmetry_cell_setting 'orthorhombic'
loop_
_space_group_symop_operation_xyz
x,y,z
-x,1/2-y,z
x,-y,1/2-z
1/2-x,y,-z
1/2+x,1/2+y,1/2+z
1/2-x,-y,1/2+z
1/2+x,1/2-y,-z
-x,1/2+y,1/2-z
loop_
_atom_site_type_symbol
_atom_site_label
_atom_site_fract_x
_atom_site_fract_y
_atom_site_fract_z
Si Si1 0.528535 0.610050 0.684079
Si Si2 0.201772 0.691813 0.918640
Si Si3 0.851268 0.782580 0.612667
Si Si4 0.902880 0.665830 0.779659
Si Si5 0.818000 0.032255 0.152364
Si Si6 0.513832 0.982483 0.091253
Si Si7 0.142901 0.082909 0.023761
O O1 0.500000 0.750000 0.714508
O O2 0.545871 0.500000 0.750000
O O3 0.429470 0.567399 0.637548
O O4 0.617123 0.608874 0.618885
O O5 0.179609 0.781587 0.842432
O O6 0.280005 0.587246 0.894646
O O7 0.098063 0.618393 0.927815
O O8 0.250000 0.750078 0.000000
O O9 0.860804 0.686816 0.688172
O O10 0.751306 0.856538 0.625486
O O11 0.932226 0.890087 0.612577
O O12 0.862370 0.710015 0.527729
O O13 0.000000 0.750000 0.778528
O O14 0.947946 0.551273 0.829185
O O15 0.805779 0.000000 0.250000
O O16 0.440302 0.996576 0.015154
O O17 0.250000 0.035369 0.000000
#
# Coordination Sequence:
#
# PCOD9334215 Si02
#       7
#     8   8   8   8   8   8   8
#     4  11  25  49  77 108 147 194 256 316 378 450
#     4  10  20  36  64  98 134 180 237 295 364 443
#     4  11  22  39  69 100 135 181 239 300 371 445
#     4  10  21  37  60  95 138 178 227 287 367 443
#     4  10  20  40  70 103 137 186 249 310 361 443
#     4  10  23  40  62  96 138 183 229 298 368 441
#     4  12  26  46  67 100 141 191 251 307 370 447
#
# _framework density 23.39714
#
# number of rings (size 3 to 8) (size 9 to 14) (size 15 to 20)
#    0.000    1.429    1.429    3.857    0.000    6.857 
#    5.143    5.000    0.000    0.000    0.000    1.000 
#    0.000    0.000    0.000    0.000    0.000    0.000 
#
# Total GULP energy -156543.385034 kJ/mol
# GULP energy per Si atom -5590.835180 kJ/mol
# Density = 2.334389 g / cm^3
# Si number density = 23.397140 Si / 1000 Ang^3
#
#
#
# Elastic Constant Matrix: (Units=GPa)
#
#
# Indices 1 2 3 4 5 6 
#
# 1 110.1595 41.1176 44.9979 0.0000 0.0000 0.0000
# 2 41.1176 94.5232 49.3077 0.0000 0.0000 0.0000
# 3 44.9979 49.3077 122.1331 0.0000 0.0000 0.0000
# 4 0.0000 0.0000 0.0000 25.4051 0.0000 0.0000
# 5 0.0000 0.0000 0.0000 0.0000 40.3324 0.0000
# 6 0.0000 0.0000 0.0000 0.0000 0.0000 8.5428
#
#
#
# Elastic Compliance Matrix: (Units=1/GPa)
#
#
# Indices 1 2 3 4 5 6 
#
# 1 0.011558 -0.003555 -0.002823 0.000000 0.000000 0.000000
# 2 -0.003555 0.014495 -0.004542 0.000000 0.000000 0.000000
# 3 -0.002823 -0.004542 0.011062 0.000000 0.000000 0.000000
# 4 0.000000 0.000000 0.000000 0.039362 0.000000 0.000000
# 5 0.000000 0.000000 0.000000 0.000000 0.024794 0.000000
# 6 0.000000 0.000000 0.000000 0.000000 0.000000 0.117057
#
#
# Mechanical properties :
#
#
# Convention : Reuss Voigt Hill
#
# Bulk Modulus (GPa) = 65.47005 66.40689 65.93847
# Shear Modulus (GPa) = 20.38649 27.61558 24.00103
#
# Velocity S-wave (km/s) = 2.95502 3.43927 3.20630
# Velocity P-wave (km/s) = 6.29966 6.64948 6.47693
#
# Compressibility (1/GPa) = 0.01527416
#
# Stress axis : x y z
#
# Youngs Moduli (GPa) = 86.52144 68.98785 90.40203
#
# Poissons Ratio (x) = 0.24525 0.25521
# Poissons Ratio (y) = 0.30759 0.41063
# Poissons Ratio (z) = 0.24425 0.31336
#
# Static dielectric constant tensor:
#      x y z
#    x 1.891950 0.000000 0.000000 
#    y 0.000000 1.942200 0.000000 
#    z 0.000000 0.000000 1.902810 
# 
# From -- ./inp_files/26509.got.cif
#   From: 2010.05.17/outbox.cif.g08.bks.cpg/sg24_14_cif.got.tgz:26509.got - 2010.06.04 00:33:39.
