data_PCOD9334802
_publ_section_title
;
Structure prediction by ZEFSAII (Michael W. Deem and Ramdas Pophale) SiO2 
 PCOD9334802
Probable space group: I 21 21 21
;
_chemical_formula_sum "Si O2"
_cell_formula_units_Z 32
_cell_length_a 5.136249
_cell_length_b 20.180103
_cell_length_c 17.893841
_cell_angle_alpha 90.000000
_cell_angle_beta 90.000000
_cell_angle_gamma 90.000000
_cell_volume 1854.697225
_symmetry_space_group_name_H-M "I 21 21 21"
_symmetry_group_IT_number 24
_symmetry_cell_setting 'orthorhombic'
loop_
_space_group_symop_operation_xyz
x,y,z
-x,1/2-y,z
x,-y,1/2-z
1/2-x,y,-z
1/2+x,1/2+y,1/2+z
1/2-x,-y,1/2+z
1/2+x,1/2-y,-z
-x,1/2+y,1/2-z
loop_
_atom_site_type_symbol
_atom_site_label
_atom_site_fract_x
_atom_site_fract_y
_atom_site_fract_z
Si Si1 0.500000 0.750000 0.051188
Si Si2 0.192242 0.687333 0.325001
Si Si3 0.965910 0.576773 0.235487
Si Si4 0.500000 0.250000 0.049677
Si Si5 0.556694 0.856587 0.178391
O O1 0.547936 0.812898 0.104749
O O2 0.750000 0.738761 0.000000
O O3 0.384660 0.693528 0.395199
O O4 0.354361 0.689077 0.248195
O O5 0.000000 0.750000 0.329283
O O6 0.034772 0.619016 0.310898
O O7 0.921819 0.500000 0.250000
O O8 0.718006 0.611181 0.198105
O O9 0.215876 0.588364 0.182008
O O10 0.750000 0.270587 0.000000
#
# Coordination Sequence:
#
# PCOD9334802 Si02
#       5
#     4   8   8   4   8
#     4  12  23  36  59  94 124 160 194 246 307 360
#     4  10  21  38  60  90 116 149 197 250 295 342
#     4  10  21  36  63  88 115 153 203 249 294 342
#     4  12  23  34  55  90 122 150 184 242 301 356
#     4  10  22  37  59  88 121 149 203 248 289 347
#
# _framework density 17.253488000000001
#
# number of rings (size 3 to 8) (size 9 to 14) (size 15 to 20)
#    1.500    0.000    1.250    6.000    1.750    0.000 
#    0.000    0.000    0.000    6.000    6.500    0.000 
#    0.000    0.000    0.000    0.000    0.000    0.000 
#
# Total GULP energy -89067.987735 kJ/mol
# GULP energy per Si atom -5566.749233 kJ/mol
# Density = 1.721422 g / cm^3
# Si number density = 17.253488 Si / 1000 Ang^3
#
#
#
# Elastic Constant Matrix: (Units=GPa)
#
#
# Indices 1 2 3 4 5 6 
#
# 1 104.5316 6.2453 41.4414 0.0000 0.0000 0.0000
# 2 6.2453 69.9381 25.4956 0.0000 0.0000 0.0000
# 3 41.4414 25.4956 102.2181 0.0000 0.0000 0.0000
# 4 0.0000 0.0000 0.0000 -0.4327 0.0000 0.0000
# 5 0.0000 0.0000 0.0000 0.0000 77.3929 0.0000
# 6 0.0000 0.0000 0.0000 0.0000 0.0000 15.8144
#
#
#
# Elastic Compliance Matrix: (Units=1/GPa)
#
#
# Indices 1 2 3 4 5 6 
#
# 1 0.011433 0.000736 -0.004819 0.000000 0.000000 0.000000
# 2 0.000736 0.015776 -0.004233 0.000000 0.000000 0.000000
# 3 -0.004819 -0.004233 0.012792 0.000000 0.000000 0.000000
# 4 0.000000 0.000000 0.000000 -2.311142 0.000000 0.000000
# 5 0.000000 0.000000 0.000000 0.000000 0.012921 0.000000
# 6 0.000000 0.000000 0.000000 0.000000 0.000000 0.063234
#
#
# Mechanical properties :
#
#
# Convention : Reuss Voigt Hill
#
# Bulk Modulus (GPa) = 42.79178 47.00582 44.89880
# Shear Modulus (GPa) = -2.30355 32.12195 14.90920
#
# Velocity S-wave (km/s) = -1.15673 4.31950 2.94279
# Velocity P-wave (km/s) = 4.80329 7.22363 6.13402
#
# Compressibility (1/GPa) = 0.02336897
#
# Stress axis : x y z
#
# Youngs Moduli (GPa) = 87.46708 63.38815 78.17133
#
# Poissons Ratio (x) = -0.04663 0.37668
# Poissons Ratio (y) = -0.06435 0.33091
# Poissons Ratio (z) = 0.42147 0.26833
#
# Static dielectric constant tensor:
#      x y z
#    x 1.627960 0.000000 0.000000 
#    y 0.000000 1.562170 0.000000 
#    z 0.000000 0.000000 1.585390 
# 
# From -- ./inp_files/28595.got.cif
#   From: 2010.05.17/outbox.cif.g08.bks.cpg/sg24_15_cif.got.tgz:28595.got - 2010.06.04 00:33:39.
