data_PCOD9334140
_publ_section_title
;
Structure prediction by ZEFSAII (Michael W. Deem and Ramdas Pophale) SiO2 
 PCOD9334140
Probable space group: I 21 21 21
;
_chemical_formula_sum "Si O2"
_cell_formula_units_Z 64
_cell_length_a 10.456628
_cell_length_b 11.933779
_cell_length_c 26.908712
_cell_angle_alpha 90.000000
_cell_angle_beta 90.000000
_cell_angle_gamma 90.000000
_cell_volume 3357.859803
_symmetry_space_group_name_H-M "I 21 21 21"
_symmetry_group_IT_number 24
_symmetry_cell_setting 'orthorhombic'
loop_
_space_group_symop_operation_xyz
x,y,z
-x,1/2-y,z
x,-y,1/2-z
1/2-x,y,-z
1/2+x,1/2+y,1/2+z
1/2-x,-y,1/2+z
1/2+x,1/2-y,-z
-x,1/2+y,1/2-z
loop_
_atom_site_type_symbol
_atom_site_label
_atom_site_fract_x
_atom_site_fract_y
_atom_site_fract_z
Si Si1 0.773220 0.990300 0.942035
Si Si2 0.320771 0.704909 0.870794
Si Si3 0.963199 0.959176 0.639288
Si Si4 0.071162 0.636044 0.390130
Si Si5 0.766913 0.808406 0.691968
Si Si6 0.284567 0.955963 0.302898
Si Si7 0.437257 0.074893 0.643793
Si Si8 0.119569 0.670450 0.794442
O O1 0.911282 0.014813 0.916222
O O2 0.683202 0.094314 0.926066
O O3 0.723944 0.879090 0.913444
O O4 0.750000 0.974620 0.000000
O O5 0.376243 0.823610 0.887530
O O6 0.428513 0.633124 0.840694
O O7 0.207264 0.735434 0.833654
O O8 0.887857 0.848633 0.658393
O O9 0.112592 0.959257 0.652176
O O10 0.915112 0.059031 0.675482
O O11 0.141475 0.649049 0.336656
O O12 0.000000 0.750000 0.403135
O O13 0.971687 0.534820 0.387022
O O14 0.753245 0.675527 0.699912
O O15 0.799596 0.856411 0.745786
O O16 0.339356 0.000000 0.250000
O O17 0.160942 0.031536 0.314869
O O18 0.000000 0.750000 0.780949
#
# Coordination Sequence:
#
# PCOD9334140 Si02
#       8
#     8   8   8   8   8   8   8   8
#     4   9  20  40  68  87 108 152 201 253 318 379
#     4   9  20  37  60  84 116 158 196 255 304 361
#     4  10  21  35  56  83 118 156 193 253 309 360
#     4  10  20  39  59  82 120 158 198 251 299 359
#     4  11  21  34  54  84 117 163 206 241 291 362
#     4  12  22  33  54  86 126 166 201 241 293 358
#     4  10  20  36  57  80 118 160 201 241 294 356
#     4  11  20  35  56  82 122 159 202 244 301 362
#
# _framework density 19.059757999999999
#
# number of rings (size 3 to 8) (size 9 to 14) (size 15 to 20)
#    0.000    1.750    1.250    5.250    0.000    1.000 
#    2.250    2.500   33.000    0.000    0.000    0.000 
#    0.000    0.000    0.000    0.000    0.000    0.000 
#
# Total GULP energy -178292.823255 kJ/mol
# GULP energy per Si atom -5571.650727 kJ/mol
# Density = 1.901638 g / cm^3
# Si number density = 19.059758 Si / 1000 Ang^3
#
#
#
# Elastic Constant Matrix: (Units=GPa)
#
#
# Indices 1 2 3 4 5 6 
#
# 1 58.0368 18.0662 29.8494 0.0000 0.0000 0.0000
# 2 18.0662 103.2422 4.3988 0.0000 0.0000 0.0000
# 3 29.8494 4.3988 97.6362 0.0000 0.0000 0.0000
# 4 0.0000 0.0000 0.0000 6.3616 0.0000 0.0000
# 5 0.0000 0.0000 0.0000 0.0000 14.9095 0.0000
# 6 0.0000 0.0000 0.0000 0.0000 0.0000 14.5281
#
#
#
# Elastic Compliance Matrix: (Units=1/GPa)
#
#
# Indices 1 2 3 4 5 6 
#
# 1 0.021646 -0.003513 -0.006459 0.000000 0.000000 0.000000
# 2 -0.003513 0.010275 0.000611 0.000000 0.000000 0.000000
# 3 -0.006459 0.000611 0.012189 0.000000 0.000000 0.000000
# 4 0.000000 0.000000 0.000000 0.157192 0.000000 0.000000
# 5 0.000000 0.000000 0.000000 0.000000 0.067071 0.000000
# 6 0.000000 0.000000 0.000000 0.000000 0.000000 0.068832
#
#
# Mechanical properties :
#
#
# Convention : Reuss Voigt Hill
#
# Bulk Modulus (GPa) = 39.38874 40.39378 39.89126
# Shear Modulus (GPa) = 13.72154 20.93323 17.32739
#
# Velocity S-wave (km/s) = 2.68605 3.31765 3.01841
# Velocity P-wave (km/s) = 5.50732 5.99291 5.75524
#
# Compressibility (1/GPa) = 0.02538797
#
# Stress axis : x y z
#
# Youngs Moduli (GPa) = 46.19774 97.32745 82.03882
#
# Poissons Ratio (x) = 0.34187 0.52992
# Poissons Ratio (y) = 0.16227 -0.05012
# Poissons Ratio (z) = 0.29841 -0.05946
#
# Static dielectric constant tensor:
#      x y z
#    x 1.742270 0.000000 0.000000 
#    y 0.000000 1.687720 0.000000 
#    z 0.000000 0.000000 1.628330 
# 
# From -- ./inp_files/35656.got.cif
#   From: 2010.05.17/outbox.cif.g08.bks.cpg/sg24_18_cif.got.tgz:35656.got - 2010.06.04 00:33:39.
