data_PCOD9334368
_publ_section_title
;
Structure prediction by ZEFSAII (Michael W. Deem and Ramdas Pophale) SiO2 
 PCOD9334368
Probable space group: I 21 21 21
;
_chemical_formula_sum "Si O2"
_cell_formula_units_Z 44
_cell_length_a 16.599052
_cell_length_b 7.098670
_cell_length_c 16.958224
_cell_angle_alpha 90.000000
_cell_angle_beta 90.000000
_cell_angle_gamma 90.000000
_cell_volume 1998.207756
_symmetry_space_group_name_H-M "I 21 21 21"
_symmetry_group_IT_number 24
_symmetry_cell_setting 'orthorhombic'
loop_
_space_group_symop_operation_xyz
x,y,z
-x,1/2-y,z
x,-y,1/2-z
1/2-x,y,-z
1/2+x,1/2+y,1/2+z
1/2-x,-y,1/2+z
1/2+x,1/2-y,-z
-x,1/2+y,1/2-z
loop_
_atom_site_type_symbol
_atom_site_label
_atom_site_fract_x
_atom_site_fract_y
_atom_site_fract_z
Si Si1 0.840950 0.290045 0.979717
Si Si2 0.097362 0.266388 0.817165
Si Si3 0.406425 0.292576 0.351724
Si Si4 0.930344 0.098164 0.328585
Si Si5 0.339723 0.659935 0.984508
Si Si6 0.000000 0.250000 0.074079
O O1 0.858734 0.335157 0.888697
O O2 0.750000 0.354680 0.000000
O O3 0.924567 0.336436 0.024940
O O4 0.839858 0.064892 0.998908
O O5 0.126943 0.208182 0.730310
O O6 0.111411 0.486862 0.836158
O O7 0.000000 0.250000 0.822898
O O8 0.500000 0.250000 0.344836
O O9 0.386718 0.249763 0.442146
O O10 0.871833 0.187509 0.395662
O O11 0.000000 0.250000 0.308077
O O12 0.893476 0.000000 0.250000
O O13 0.969535 0.922093 0.373680
O O14 0.250000 0.725039 0.000000
#
# Coordination Sequence:
#
# PCOD9334368 Si02
#       6
#     8   8   8   8   8   4
#     4   9  17  32  55  84 116 153 198 239 297 363
#     4   9  16  29  50  76 105 139 179 227 275 343
#     4   9  17  30  51  77 101 138 179 224 282 343
#     4  11  22  40  64  91 118 160 211 258 309 374
#     4   9  19  36  53  83 115 149 193 242 304 362
#     4  10  20  38  62  88 122 160 206 256 306 374
#
# _framework density 22.019732999999999
#
# number of rings (size 3 to 8) (size 9 to 14) (size 15 to 20)
#    0.000    2.545    1.818    0.545    0.000    0.000 
#   13.091    0.909    0.000    0.000    0.000    0.000 
#    0.000    0.000    0.000    0.000    0.000    0.000 
#
# Total GULP energy -122484.887240 kJ/mol
# GULP energy per Si atom -5567.494875 kJ/mol
# Density = 2.196962 g / cm^3
# Si number density = 22.019733 Si / 1000 Ang^3
#
#
#
# Elastic Constant Matrix: (Units=GPa)
#
#
# Indices 1 2 3 4 5 6 
#
# 1 91.7831 -5.6867 79.1327 0.0000 0.0000 0.0000
# 2 -5.6867 68.3956 12.3817 0.0000 0.0000 0.0000
# 3 79.1327 12.3817 213.6978 0.0000 0.0000 0.0000
# 4 0.0000 0.0000 0.0000 -24.9937 0.0000 0.0000
# 5 0.0000 0.0000 0.0000 0.0000 8.3940 0.0000
# 6 0.0000 0.0000 0.0000 0.0000 0.0000 4.9140
#
#
#
# Elastic Compliance Matrix: (Units=1/GPa)
#
#
# Indices 1 2 3 4 5 6 
#
# 1 0.016415 0.002491 -0.006223 0.000000 0.000000 0.000000
# 2 0.002491 0.015154 -0.001801 0.000000 0.000000 0.000000
# 3 -0.006223 -0.001801 0.007088 0.000000 0.000000 0.000000
# 4 0.000000 0.000000 0.000000 -0.040010 0.000000 0.000000
# 5 0.000000 0.000000 0.000000 0.000000 0.119133 0.000000
# 6 0.000000 0.000000 0.000000 0.000000 0.000000 0.203499
#
#
# Mechanical properties :
#
#
# Convention : Reuss Voigt Hill
#
# Bulk Modulus (GPa) = 36.24145 60.61466 48.42806
# Shear Modulus (GPa) = 14.63960 16.86613 15.75286
#
# Velocity S-wave (km/s) = 2.58125 2.77059 2.67759
# Velocity P-wave (km/s) = 5.03767 6.14997 5.62140
#
# Compressibility (1/GPa) = 0.02759271
#
# Stress axis : x y z
#
# Youngs Moduli (GPa) = 60.92111 65.98958 141.08111
#
# Poissons Ratio (x) = -0.16440 0.87791
# Poissons Ratio (y) = -0.15177 0.25402
# Poissons Ratio (z) = 0.37910 0.11882
#
# Static dielectric constant tensor:
#      x y z
#    x 1.853970 0.000000 0.000000 
#    y 0.000000 1.881510 0.000000 
#    z 0.000000 0.000000 1.894570 
# 
# From -- ./inp_files/30660.got.cif
#   From: 2010.05.17/outbox.cif.g08.bks.cpg/sg24_16_cif.got.tgz:30660.got - 2010.06.04 00:33:39.
