data_PCOD9334747
_publ_section_title
;
Structure prediction by ZEFSAII (Michael W. Deem and Ramdas Pophale) SiO2 
 PCOD9334747
Probable space group: I 21 21 21
;
_chemical_formula_sum "Si O2"
_cell_formula_units_Z 64
_cell_length_a 18.005650
_cell_length_b 8.872085
_cell_length_c 22.368635
_cell_angle_alpha 90.000000
_cell_angle_beta 90.000000
_cell_angle_gamma 90.000000
_cell_volume 3573.337038
_symmetry_space_group_name_H-M "I 21 21 21"
_symmetry_group_IT_number 24
_symmetry_cell_setting 'orthorhombic'
loop_
_space_group_symop_operation_xyz
x,y,z
-x,1/2-y,z
x,-y,1/2-z
1/2-x,y,-z
1/2+x,1/2+y,1/2+z
1/2-x,-y,1/2+z
1/2+x,1/2-y,-z
-x,1/2+y,1/2-z
loop_
_atom_site_type_symbol
_atom_site_label
_atom_site_fract_x
_atom_site_fract_y
_atom_site_fract_z
Si Si1 0.419627 0.190242 0.372559
Si Si2 0.420731 0.171346 0.117283
Si Si3 0.709177 0.171364 0.766167
Si Si4 0.441596 0.378148 0.701065
Si Si5 0.165130 0.322781 0.988421
Si Si6 0.712764 0.858995 0.060531
Si Si7 0.844346 0.944137 0.386433
Si Si8 0.638480 0.320900 0.246194
O O1 0.500000 0.250000 0.393295
O O2 0.347141 0.253514 0.407374
O O3 0.406514 0.239741 0.303288
O O4 0.423032 0.009390 0.377794
O O5 0.500000 0.250000 0.110746
O O6 0.374157 0.217317 0.058997
O O7 0.387405 0.230051 0.180499
O O8 0.632550 0.193757 0.730763
O O9 0.775277 0.278950 0.748326
O O10 0.732664 0.000000 0.750000
O O11 0.690807 0.165986 0.836514
O O12 0.500000 0.250000 0.687668
O O13 0.469355 0.500000 0.750000
O O14 0.412815 0.471411 0.644348
O O15 0.169767 0.489351 0.959452
O O16 0.250000 0.273649 0.000000
O O17 0.133514 0.353106 0.054436
O O18 0.781555 0.929064 0.098417
O O19 0.750000 0.792867 0.000000
O O20 0.630079 0.500000 0.250000
#
# Coordination Sequence:
#
# PCOD9334747 Si02
#       8
#     8   8   8   8   8   8   8   8
#     4  11  22  36  55  79 109 141 177 220 267 321
#     4  11  23  37  53  78 111 141 175 221 272 319
#     4   9  17  31  55  80 105 138 177 215 261 320
#     4   9  18  32  51  78 112 143 177 222 271 318
#     4   9  18  35  58  78 104 139 178 220 264 318
#     4   9  18  35  57  78 104 137 175 216 260 312
#     4   8  16  33  57  79 100 139 185 218 259 320
#     4  10  21  35  53  80 108 136 174 220 268 322
#
# _framework density 17.910429000000001
#
# number of rings (size 3 to 8) (size 9 to 14) (size 15 to 20)
#    0.000    3.000    0.000    4.125    0.000    2.000 
#    0.000    7.500    0.000    3.000    0.000    0.000 
#    0.000    0.000    0.000    0.000    0.000    0.000 
#
# Total GULP energy -178242.809933 kJ/mol
# GULP energy per Si atom -5570.087810 kJ/mol
# Density = 1.786966 g / cm^3
# Si number density = 17.910429 Si / 1000 Ang^3
#
#
#
# Elastic Constant Matrix: (Units=GPa)
#
#
# Indices 1 2 3 4 5 6 
#
# 1 65.4203 25.5183 42.0259 0.0000 0.0000 0.0000
# 2 25.5183 31.8120 34.5892 0.0000 0.0000 0.0000
# 3 42.0259 34.5892 126.7826 0.0000 0.0000 0.0000
# 4 0.0000 0.0000 0.0000 18.8280 0.0000 0.0000
# 5 0.0000 0.0000 0.0000 0.0000 8.1256 0.0000
# 6 0.0000 0.0000 0.0000 0.0000 0.0000 23.2213
#
#
#
# Elastic Compliance Matrix: (Units=1/GPa)
#
#
# Indices 1 2 3 4 5 6 
#
# 1 0.023439 -0.014721 -0.003753 0.000000 0.000000 0.000000
# 2 -0.014721 0.053937 -0.009836 0.000000 0.000000 0.000000
# 3 -0.003753 -0.009836 0.011815 0.000000 0.000000 0.000000
# 4 0.000000 0.000000 0.000000 0.053112 0.000000 0.000000
# 5 0.000000 0.000000 0.000000 0.000000 0.123067 0.000000
# 6 0.000000 0.000000 0.000000 0.000000 0.000000 0.043064
#
#
# Mechanical properties :
#
#
# Convention : Reuss Voigt Hill
#
# Bulk Modulus (GPa) = 30.70143 47.58684 39.14413
# Shear Modulus (GPa) = 13.30098 18.16043 15.73071
#
# Velocity S-wave (km/s) = 2.72810 3.18773 2.96683
# Velocity P-wave (km/s) = 5.20598 6.33844 5.79992
#
# Compressibility (1/GPa) = 0.03257177
#
# Stress axis : x y z
#
# Youngs Moduli (GPa) = 42.66383 18.54002 84.63746
#
# Poissons Ratio (x) = 0.27292 0.31768
# Poissons Ratio (y) = 0.62804 0.83247
# Poissons Ratio (z) = 0.16014 0.18235
#
# Static dielectric constant tensor:
#      x y z
#    x 1.616330 0.000000 0.000000 
#    y 0.000000 1.602320 0.000000 
#    z 0.000000 0.000000 1.663480 
# 
# From -- ./inp_files/36013.got.cif
#   From: 2010.05.17/outbox.cif.g08.bks.cpg/sg24_19_cif.got.tgz:36013.got - 2010.06.04 00:33:39.
