data_PCOD9334901
_publ_section_title
;
Structure prediction by ZEFSAII (Michael W. Deem and Ramdas Pophale) SiO2 
 PCOD9334901
Probable space group: I 21 21 21
;
_chemical_formula_sum "Si O2"
_cell_formula_units_Z 36
_cell_length_a 15.563044
_cell_length_b 13.686709
_cell_length_c 7.996333
_cell_angle_alpha 90.000000
_cell_angle_beta 90.000000
_cell_angle_gamma 90.000000
_cell_volume 1703.273739
_symmetry_space_group_name_H-M "I 21 21 21"
_symmetry_group_IT_number 24
_symmetry_cell_setting 'orthorhombic'
loop_
_space_group_symop_operation_xyz
x,y,z
-x,1/2-y,z
x,-y,1/2-z
1/2-x,y,-z
1/2+x,1/2+y,1/2+z
1/2-x,-y,1/2+z
1/2+x,1/2-y,-z
-x,1/2+y,1/2-z
loop_
_atom_site_type_symbol
_atom_site_label
_atom_site_fract_x
_atom_site_fract_y
_atom_site_fract_z
Si Si1 0.405082 0.294047 0.406714
Si Si2 0.165881 0.000000 0.250000
Si Si3 0.053127 0.083492 0.009825
Si Si4 0.500000 0.250000 0.729565
Si Si5 0.922157 0.000000 0.750000
Si Si6 0.788596 0.680601 0.670850
O O1 0.500000 0.250000 0.343117
O O2 0.422124 0.280723 0.604880
O O3 0.386596 0.404530 0.345608
O O4 0.323652 0.238523 0.329328
O O5 0.102265 0.992044 0.093059
O O6 0.223322 0.094941 0.222058
O O7 0.025322 0.159877 0.152029
O O8 0.124490 0.132039 0.895578
O O9 0.976502 0.049617 0.896975
O O10 0.750000 0.730305 0.500000
#
# Coordination Sequence:
#
# PCOD9334901 Si02
#       6
#     8   4   8   4   4   8
#     4  10  22  38  61  93 130 170 217 271 332 393
#     4  10  23  34  60  94 139 166 212 266 341 406
#     4  11  20  36  57  93 127 174 209 266 330 391
#     4  10  22  38  62  94 140 170 218 268 332 412
#     4  12  21  38  70  94 131 168 228 272 327 402
#     4  10  21  38  60  90 129 172 211 266 333 400
#
# _framework density 21.135769
#
# number of rings (size 3 to 8) (size 9 to 14) (size 15 to 20)
#    0.667    0.889    2.222    3.333    0.000    3.556 
#    0.000    3.333    0.000    5.333    0.000    0.000 
#    0.000    0.000    0.000    0.000    0.000    0.000 
#
# Total GULP energy -100273.785116 kJ/mol
# GULP energy per Si atom -5570.765840 kJ/mol
# Density = 2.108766 g / cm^3
# Si number density = 21.135769 Si / 1000 Ang^3
#
#
#
# Elastic Constant Matrix: (Units=GPa)
#
#
# Indices 1 2 3 4 5 6 
#
# 1 19.7034 13.2153 23.2706 0.0000 0.0000 0.0000
# 2 13.2153 83.2436 55.7851 0.0000 0.0000 0.0000
# 3 23.2706 55.7851 122.9253 0.0000 0.0000 0.0000
# 4 0.0000 0.0000 0.0000 29.4134 0.0000 0.0000
# 5 0.0000 0.0000 0.0000 0.0000 3323.9695 0.0000
# 6 0.0000 0.0000 0.0000 0.0000 0.0000 -78.5615
#
#
#
# Elastic Compliance Matrix: (Units=1/GPa)
#
#
# Indices 1 2 3 4 5 6 
#
# 1 0.065891 -0.003020 -0.011103 0.000000 0.000000 0.000000
# 2 -0.003020 0.017401 -0.007325 0.000000 0.000000 0.000000
# 3 -0.011103 -0.007325 0.013561 0.000000 0.000000 0.000000
# 4 0.000000 0.000000 0.000000 0.033998 0.000000 0.000000
# 5 0.000000 0.000000 0.000000 0.000000 0.000301 0.000000
# 6 0.000000 0.000000 0.000000 0.000000 0.000000 -0.012729
#
#
# Mechanical properties :
#
#
# Convention : Reuss Voigt Hill
#
# Bulk Modulus (GPa) = 18.53318 45.60157 32.06738
# Shear Modulus (GPa) = 27.88524 663.87104 345.87814
#
# Velocity S-wave (km/s) = 3.63621 17.74205 12.80629
# Velocity P-wave (km/s) = 5.13975 21.00784 15.29291
#
# Compressibility (1/GPa) = 0.05395728
#
# Stress axis : x y z
#
# Youngs Moduli (GPa) = 15.17650 57.46689 73.73954
#
# Poissons Ratio (x) = 0.17354 0.81875
# Poissons Ratio (y) = 0.04583 0.54016
# Poissons Ratio (z) = 0.16851 0.42096
#
# Static dielectric constant tensor:
#      x y z
#    x 1.761680 0.000000 0.000000 
#    y 0.000000 1.713740 0.000000 
#    z 0.000000 0.000000 1.857590 
# 
# From -- ./inp_files/12266.got.cif
#   From: 2010.05.17/outbox.cif.g08.bks.cpg/sg24_7_cif.got.tgz:12266.got - 2010.06.04 00:33:39.
