data_PCOD9334419
_publ_section_title
;
Structure prediction by ZEFSAII (Michael W. Deem and Ramdas Pophale) SiO2 
 PCOD9334419
Probable space group: I 21 21 21
;
_chemical_formula_sum "Si O2"
_cell_formula_units_Z 56
_cell_length_a 8.495611
_cell_length_b 20.141226
_cell_length_c 14.336425
_cell_angle_alpha 90.000000
_cell_angle_beta 90.000000
_cell_angle_gamma 90.000000
_cell_volume 2453.134658
_symmetry_space_group_name_H-M "I 21 21 21"
_symmetry_group_IT_number 24
_symmetry_cell_setting 'orthorhombic'
loop_
_space_group_symop_operation_xyz
x,y,z
-x,1/2-y,z
x,-y,1/2-z
1/2-x,y,-z
1/2+x,1/2+y,1/2+z
1/2-x,-y,1/2+z
1/2+x,1/2-y,-z
-x,1/2+y,1/2-z
loop_
_atom_site_type_symbol
_atom_site_label
_atom_site_fract_x
_atom_site_fract_y
_atom_site_fract_z
Si Si1 0.659235 0.115034 0.406734
Si Si2 0.654798 0.529402 0.854461
Si Si3 0.015128 0.990490 0.545716
Si Si4 0.664876 0.347638 0.332052
Si Si5 0.262380 0.269755 0.105959
Si Si6 0.656168 0.215440 0.707235
Si Si7 0.559154 0.643676 0.365994
O O1 0.750000 0.133694 0.500000
O O2 0.483148 0.146175 0.400772
O O3 0.772866 0.146593 0.329149
O O4 0.620830 0.036411 0.410134
O O5 0.627311 0.500000 0.750000
O O6 0.823638 0.506653 0.897367
O O7 0.680863 0.609027 0.855290
O O8 0.534910 0.508308 0.936413
O O9 0.005667 0.912535 0.563144
O O10 0.711799 0.272213 0.312014
O O11 0.602242 0.381761 0.236503
O O12 0.133679 0.289713 0.181166
O O13 0.413904 0.307386 0.144809
O O14 0.295552 0.190668 0.104967
O O15 0.250000 0.290812 0.000000
O O16 0.500000 0.250000 0.666548
#
# Coordination Sequence:
#
# PCOD9334419 Si02
#       7
#     8   8   8   8   8   8   8
#     4  11  25  45  67  98 137 176 229 282 342 414
#     4  10  20  38  66 105 134 177 230 285 336 404
#     4  10  23  39  68 101 136 180 237 274 347 423
#     4  10  21  44  73  93 137 183 229 279 344 407
#     4  10  23  40  66 100 139 176 235 287 342 413
#     4  11  25  43  70 102 135 180 235 289 344 409
#     4  10  20  41  71  96 130 191 227 275 349 422
#
# _framework density 22.827936000000001
#
# number of rings (size 3 to 8) (size 9 to 14) (size 15 to 20)
#    0.000    1.714    2.857    0.429    6.000    1.714 
#    2.571    0.000    3.143    0.000    0.000    0.000 
#    0.000    0.000    0.000    0.000    0.000    0.000 
#
# Total GULP energy -156107.178775 kJ/mol
# GULP energy per Si atom -5575.256385 kJ/mol
# Density = 2.277598 g / cm^3
# Si number density = 22.827936 Si / 1000 Ang^3
#
#
#
# Elastic Constant Matrix: (Units=GPa)
#
#
# Indices 1 2 3 4 5 6 
#
# 1 57.2557 20.9451 25.2767 0.0000 0.0000 0.0000
# 2 20.9451 98.3491 50.5760 0.0000 0.0000 0.0000
# 3 25.2767 50.5760 127.9877 0.0000 0.0000 0.0000
# 4 0.0000 0.0000 0.0000 18.8550 0.0000 0.0000
# 5 0.0000 0.0000 0.0000 0.0000 9.1480 0.0000
# 6 0.0000 0.0000 0.0000 0.0000 0.0000 19.7349
#
#
#
# Elastic Compliance Matrix: (Units=1/GPa)
#
#
# Indices 1 2 3 4 5 6 
#
# 1 0.019712 -0.002756 -0.002804 0.000000 0.000000 0.000000
# 2 -0.002756 0.013146 -0.004651 0.000000 0.000000 0.000000
# 3 -0.002804 -0.004651 0.010205 0.000000 0.000000 0.000000
# 4 0.000000 0.000000 0.000000 0.053036 0.000000 0.000000
# 5 0.000000 0.000000 0.000000 0.000000 0.109314 0.000000
# 6 0.000000 0.000000 0.000000 0.000000 0.000000 0.050672
#
#
# Mechanical properties :
#
#
# Convention : Reuss Voigt Hill
#
# Bulk Modulus (GPa) = 44.16642 53.02091 48.59366
# Shear Modulus (GPa) = 17.60235 22.00055 19.80145
#
# Velocity S-wave (km/s) = 2.77986 3.10781 2.94840
# Velocity P-wave (km/s) = 5.44913 6.01288 5.73793
#
# Compressibility (1/GPa) = 0.02264164
#
# Stress axis : x y z
#
# Youngs Moduli (GPa) = 50.73179 76.06632 97.99350
#
# Poissons Ratio (x) = 0.20964 0.27475
# Poissons Ratio (y) = 0.13982 0.45574
# Poissons Ratio (z) = 0.14224 0.35376
#
# Static dielectric constant tensor:
#      x y z
#    x 1.877540 0.000000 0.000000 
#    y 0.000000 1.943380 0.000000 
#    z 0.000000 0.000000 1.939410 
# 
# From -- ./inp_files/25055.got.cif
#   From: 2010.05.17/outbox.cif.g08.bks.cpg/sg24_13_cif.got.tgz:25055.got - 2010.06.04 00:33:39.
