data_PCOD9334919
_publ_section_title
;
Structure prediction by ZEFSAII (Michael W. Deem and Ramdas Pophale) SiO2 
 PCOD9334919
Probable space group: I 21 21 21
;
_chemical_formula_sum "Si O2"
_cell_formula_units_Z 24
_cell_length_a 16.392547
_cell_length_b 13.922177
_cell_length_c 4.958119
_cell_angle_alpha 90.000000
_cell_angle_beta 90.000000
_cell_angle_gamma 90.000000
_cell_volume 1131.541625
_symmetry_space_group_name_H-M "I 21 21 21"
_symmetry_group_IT_number 24
_symmetry_cell_setting 'orthorhombic'
loop_
_space_group_symop_operation_xyz
x,y,z
-x,1/2-y,z
x,-y,1/2-z
1/2-x,y,-z
1/2+x,1/2+y,1/2+z
1/2-x,-y,1/2+z
1/2+x,1/2-y,-z
-x,1/2+y,1/2-z
loop_
_atom_site_type_symbol
_atom_site_label
_atom_site_fract_x
_atom_site_fract_y
_atom_site_fract_z
Si Si1 0.342604 0.604880 0.886230
Si Si2 0.810201 0.396619 0.748543
Si Si3 0.909889 0.788039 0.627530
O O1 0.351977 0.500000 0.750000
O O2 0.363922 0.677116 0.642236
O O3 0.250000 0.613764 0.000000
O O4 0.400513 0.630199 0.141235
O O5 0.854645 0.500000 0.750000
O O6 0.750000 0.393916 0.500000
O O7 0.866384 0.305004 0.749934
O O8 0.750000 0.392897 0.000000
O O9 0.000000 0.750000 0.562547
#
# Coordination Sequence:
#
# PCOD9334919 Si02
#       3
#     8   8   8
#     4  12  25  44  70  98 131 178 231 277 328 399
#     4  10  21  38  62  88 117 162 216 265 316 383
#     4  12  25  42  65  98 137 174 216 276 345 400
#
# _framework density 21.210000999999998
#
# number of rings (size 3 to 8) (size 9 to 14) (size 15 to 20)
#    0.000    0.667    0.000   10.000    0.000    2.667 
#    0.000    3.333    0.000    0.000    0.000    0.000 
#    0.000    0.000    0.000    0.000    0.000    0.000 
#
# Total GULP energy -67087.342346 kJ/mol
# GULP energy per Si atom -5590.611862 kJ/mol
# Density = 2.116173 g / cm^3
# Si number density = 21.210001 Si / 1000 Ang^3
#
#
#
# Elastic Constant Matrix: (Units=GPa)
#
#
# Indices 1 2 3 4 5 6 
#
# 1 74.8385 62.1864 31.9745 0.0000 0.0000 0.0000
# 2 62.1864 137.6709 43.1919 0.0000 0.0000 0.0000
# 3 31.9745 43.1919 162.6274 0.0000 0.0000 0.0000
# 4 0.0000 0.0000 0.0000 21.8189 0.0000 0.0000
# 5 0.0000 0.0000 0.0000 0.0000 24.7658 0.0000
# 6 0.0000 0.0000 0.0000 0.0000 0.0000 0.5203
#
#
#
# Elastic Compliance Matrix: (Units=1/GPa)
#
#
# Indices 1 2 3 4 5 6 
#
# 1 0.021879 -0.009309 -0.001829 0.000000 0.000000 0.000000
# 2 -0.009309 0.011885 -0.001326 0.000000 0.000000 0.000000
# 3 -0.001829 -0.001326 0.006861 0.000000 0.000000 0.000000
# 4 0.000000 0.000000 0.000000 0.045832 0.000000 0.000000
# 5 0.000000 0.000000 0.000000 0.000000 0.040378 0.000000
# 6 0.000000 0.000000 0.000000 0.000000 0.000000 1.921984
#
#
# Mechanical properties :
#
#
# Convention : Reuss Voigt Hill
#
# Bulk Modulus (GPa) = 63.71193 72.20471 67.95832
# Shear Modulus (GPa) = 2.40503 25.27325 13.83914
#
# Velocity S-wave (km/s) = 1.06601 3.45566 2.55714
# Velocity P-wave (km/s) = 5.62308 7.07381 6.38975
#
# Compressibility (1/GPa) = 0.01569565
#
# Stress axis : x y z
#
# Youngs Moduli (GPa) = 45.70653 84.14280 145.75317
#
# Poissons Ratio (x) = 0.78326 0.26663
# Poissons Ratio (y) = 0.42547 0.19330
# Poissons Ratio (z) = 0.08361 0.11159
#
# Static dielectric constant tensor:
#      x y z
#    x 1.785050 0.000000 0.000000 
#    y 0.000000 1.822850 0.000000 
#    z 0.000000 0.000000 1.737850 
# 
# From -- ./inp_files/1698.got.cif
#   From: 2010.05.17/outbox.cif.g08.bks.cpg/sg24_1_cif.got.tgz:1698.got - 2010.06.04 00:33:39.
