data_PCOD9334999
_publ_section_title
;
Structure prediction by ZEFSAII (Michael W. Deem and Ramdas Pophale) SiO2 
 PCOD9334999
Probable space group: I 21 21 21
;
_chemical_formula_sum "Si O2"
_cell_formula_units_Z 40
_cell_length_a 9.307941
_cell_length_b 7.409043
_cell_length_c 24.580460
_cell_angle_alpha 90.000000
_cell_angle_beta 90.000000
_cell_angle_gamma 90.000000
_cell_volume 1695.140668
_symmetry_space_group_name_H-M "I 21 21 21"
_symmetry_group_IT_number 24
_symmetry_cell_setting 'orthorhombic'
loop_
_space_group_symop_operation_xyz
x,y,z
-x,1/2-y,z
x,-y,1/2-z
1/2-x,y,-z
1/2+x,1/2+y,1/2+z
1/2-x,-y,1/2+z
1/2+x,1/2-y,-z
-x,1/2+y,1/2-z
loop_
_atom_site_type_symbol
_atom_site_label
_atom_site_fract_x
_atom_site_fract_y
_atom_site_fract_z
Si Si1 0.000000 0.750000 0.932804
Si Si2 0.231548 0.915318 0.805761
Si Si3 0.058526 0.958468 0.097861
Si Si4 0.948781 0.938179 0.649600
Si Si5 0.835249 0.995569 0.190295
Si Si6 0.750000 0.557094 0.000000
O O1 0.065332 0.587112 0.897077
O O2 0.862345 0.674936 0.964996
O O3 0.312293 0.980098 0.859493
O O4 0.269707 0.705438 0.809133
O O5 0.284965 0.000000 0.750000
O O6 0.067141 0.970623 0.812073
O O7 0.134421 0.032010 0.042639
O O8 0.000000 0.750000 0.087669
O O9 0.929621 0.032193 0.136582
O O10 0.000000 0.750000 0.625009
O O11 0.807755 0.887777 0.683960
O O12 0.905857 0.000000 0.250000
#
# Coordination Sequence:
#
# PCOD9334999 Si02
#       6
#     4   8   8   8   8   4
#     4  12  24  46  76 100 140 190 234 298 356 412
#     4  11  21  39  65  99 143 184 230 289 353 422
#     4  10  21  39  65 100 133 184 241 284 355 420
#     4  12  24  43  68 105 146 184 236 292 348 426
#     4  11  22  40  65 102 144 188 232 287 359 427
#     4  12  22  42  78 100 132 196 242 292 356 420
#
# _framework density 23.596861000000001
#
# number of rings (size 3 to 8) (size 9 to 14) (size 15 to 20)
#    0.000    0.800    5.000    3.600    0.000    0.000 
#    0.000    4.000    0.000    0.000    0.000    0.000 
#    0.000    0.000    0.000    0.000    0.000    0.000 
#
# Total GULP energy -111465.774741 kJ/mol
# GULP energy per Si atom -5573.288737 kJ/mol
# Density = 2.354315 g / cm^3
# Si number density = 23.596861 Si / 1000 Ang^3
#
#
#
# Elastic Constant Matrix: (Units=GPa)
#
#
# Indices 1 2 3 4 5 6 
#
# 1 139.2858 -7.2502 51.6066 0.0000 0.0000 0.0000
# 2 -7.2502 51.3975 18.9057 0.0000 0.0000 0.0000
# 3 51.6066 18.9057 144.3868 0.0000 0.0000 0.0000
# 4 0.0000 0.0000 0.0000 28.6006 0.0000 0.0000
# 5 0.0000 0.0000 0.0000 0.0000 -415.7600 0.0000
# 6 0.0000 0.0000 0.0000 0.0000 0.0000 -5.6928
#
#
#
# Elastic Compliance Matrix: (Units=1/GPa)
#
#
# Indices 1 2 3 4 5 6 
#
# 1 0.008559 0.002451 -0.003380 0.000000 0.000000 0.000000
# 2 0.002451 0.021142 -0.003644 0.000000 0.000000 0.000000
# 3 -0.003380 -0.003644 0.008611 0.000000 0.000000 0.000000
# 4 0.000000 0.000000 0.000000 0.034964 0.000000 0.000000
# 5 0.000000 0.000000 0.000000 0.000000 -0.002405 0.000000
# 6 0.000000 0.000000 0.000000 0.000000 0.000000 -0.175661
#
#
# Mechanical properties :
#
#
# Convention : Reuss Voigt Hill
#
# Bulk Modulus (GPa) = 34.28701 51.28825 42.78763
# Shear Modulus (GPa) = -58.19387 -60.44992 -59.32189
#
# Velocity S-wave (km/s) = -4.97144 -5.06689 -5.01939
# Velocity P-wave (km/s) = 4.28856 3.52829 3.92687
#
# Compressibility (1/GPa) = 0.02916556
#
# Stress axis : x y z
#
# Youngs Moduli (GPa) = 116.82989 47.29827 116.12826
#
# Poissons Ratio (x) = -0.11592 0.39254
# Poissons Ratio (y) = -0.28632 0.42321
# Poissons Ratio (z) = 0.39491 0.17237
#
# Static dielectric constant tensor:
#      x y z
#    x 1.987030 0.000000 0.000000 
#    y 0.000000 2.025690 0.000000 
#    z 0.000000 0.000000 2.064710 
# 
# From -- ./inp_files/36773.got.cif
#   From: 2010.05.17/outbox.cif.g08.bks.cpg/sg24_19_cif.got.tgz:36773.got - 2010.06.04 00:33:39.
