data_PCOD9334825
_publ_section_title
;
Structure prediction by ZEFSAII (Michael W. Deem and Ramdas Pophale) SiO2 
 PCOD9334825
Probable space group: I 21 21 21
;
_chemical_formula_sum "Si O2"
_cell_formula_units_Z 36
_cell_length_a 12.547987
_cell_length_b 25.988827
_cell_length_c 5.335046
_cell_angle_alpha 90.000000
_cell_angle_beta 90.000000
_cell_angle_gamma 90.000000
_cell_volume 1739.798318
_symmetry_space_group_name_H-M "I 21 21 21"
_symmetry_group_IT_number 24
_symmetry_cell_setting 'orthorhombic'
loop_
_space_group_symop_operation_xyz
x,y,z
-x,1/2-y,z
x,-y,1/2-z
1/2-x,y,-z
1/2+x,1/2+y,1/2+z
1/2-x,-y,1/2+z
1/2+x,1/2-y,-z
-x,1/2+y,1/2-z
loop_
_atom_site_type_symbol
_atom_site_label
_atom_site_fract_x
_atom_site_fract_y
_atom_site_fract_z
Si Si1 0.924718 0.626220 0.999609
Si Si2 0.250000 0.716791 0.500000
Si Si3 0.750000 0.535704 0.000000
Si Si4 0.129235 0.480653 0.999965
Si Si5 0.750000 0.285433 0.500000
Si Si6 0.566553 0.867513 0.500426
O O1 0.851304 0.574937 0.999711
O O2 0.995791 0.629609 0.249322
O O3 0.850011 0.676314 0.000449
O O4 0.995254 0.629732 0.749039
O O5 0.250138 0.751033 0.249616
O O6 0.354502 0.680694 0.500287
O O7 0.750090 0.500000 0.250000
O O8 0.073990 0.500000 0.750000
O O9 0.133539 0.419984 0.999728
O O10 0.074043 0.500000 0.250000
O O11 0.250000 0.503358 0.000000
#
# Coordination Sequence:
#
# PCOD9334825 Si02
#       6
#     8   4   4   8   4   8
#     4  11  26  43  68  95 134 165 216 273 322 383
#     4  12  26  43  70  92 132 167 220 268 320 402
#     4  11  24  45  70 100 132 173 218 265 316 378
#     4  10  21  37  58  86 128 168 200 244 304 375
#     4  11  26  48  64  94 124 172 216 275 336 372
#     4  12  24  42  65 101 128 170 217 266 322 384
#
# _framework density 20.692055
#
# number of rings (size 3 to 8) (size 9 to 14) (size 15 to 20)
#    0.000    0.889    1.111    5.333    0.000   14.222 
#    0.000    0.000    0.000    0.000    0.000    0.000 
#    0.000    0.000    0.000    0.000    0.000    0.000 
#
# Total GULP energy -100657.507240 kJ/mol
# GULP energy per Si atom -5592.083736 kJ/mol
# Density = 2.064496 g / cm^3
# Si number density = 20.692055 Si / 1000 Ang^3
#
#
#
# Elastic Constant Matrix: (Units=GPa)
#
#
# Indices 1 2 3 4 5 6 
#
# 1 127.3855 69.2824 89.8838 -0.0006 -0.0150 -0.0030
# 2 69.2824 175.6273 104.0393 0.0346 -0.0158 -0.0031
# 3 89.8838 104.0393 262.7609 0.0784 -0.0974 0.0073
# 4 -0.0006 0.0346 0.0784 47.5664 -0.0400 0.0022
# 5 -0.0150 -0.0158 -0.0974 -0.0400 165.7994 0.0104
# 6 -0.0030 -0.0031 0.0073 0.0022 0.0104 14.8049
#
#
#
# Elastic Compliance Matrix: (Units=1/GPa)
#
#
# Indices 1 2 3 4 5 6 
#
# 1 0.011339 -0.002842 -0.002753 0.000007 -0.000001 0.000003
# 2 -0.002842 0.008151 -0.002255 -0.000002 -0.000001 0.000002
# 3 -0.002753 -0.002255 0.005641 -0.000008 0.000003 -0.000004
# 4 0.000007 -0.000002 -0.000008 0.021023 0.000005 -0.000003
# 5 -0.000001 -0.000001 0.000003 0.000005 0.006031 -0.000004
# 6 0.000003 0.000002 -0.000004 -0.000003 -0.000004 0.067545
#
#
# Mechanical properties :
#
#
# Convention : Reuss Voigt Hill
#
# Bulk Modulus (GPa) = 106.05412 121.35387 113.70399
# Shear Modulus (GPa) = 36.08186 65.80536 50.94361
#
# Velocity S-wave (km/s) = 4.18036 5.64547 4.96723
# Velocity P-wave (km/s) = 8.64091 10.06330 9.37911
#
# Compressibility (1/GPa) = 0.00942915
#
# Stress axis : x y z
#
# Youngs Moduli (GPa) = 88.19399 122.68608 177.28698
#
# Poissons Ratio (x) = 0.34865 0.48815
# Poissons Ratio (y) = 0.25063 0.39982
# Poissons Ratio (z) = 0.24284 0.27668
#
# Static dielectric constant tensor:
#      x y z
#    x 1.746430 0.000000 0.000040 
#    y 0.000000 1.699480 -0.000040 
#    z 0.000040 -0.000040 1.667520 
# 
# From -- ./inp_files/2309.got.cif
#   From: 2010.05.17/outbox.cif.g08.bks.cpg/sg24_2_cif.got.tgz:2309.got - 2010.06.04 00:33:39.
