data_PCOD9334316
_publ_section_title
;
Structure prediction by ZEFSAII (Michael W. Deem and Ramdas Pophale) SiO2 
 PCOD9334316
Probable space group: I 21 21 21
;
_chemical_formula_sum "Si O2"
_cell_formula_units_Z 64
_cell_length_a 14.642096
_cell_length_b 12.143281
_cell_length_c 15.072790
_cell_angle_alpha 90.000000
_cell_angle_beta 90.000000
_cell_angle_gamma 90.000000
_cell_volume 2679.988579
_symmetry_space_group_name_H-M "I 21 21 21"
_symmetry_group_IT_number 24
_symmetry_cell_setting 'orthorhombic'
loop_
_space_group_symop_operation_xyz
x,y,z
-x,1/2-y,z
x,-y,1/2-z
1/2-x,y,-z
1/2+x,1/2+y,1/2+z
1/2-x,-y,1/2+z
1/2+x,1/2-y,-z
-x,1/2+y,1/2-z
loop_
_atom_site_type_symbol
_atom_site_label
_atom_site_fract_x
_atom_site_fract_y
_atom_site_fract_z
Si Si1 0.103695 0.930157 0.488251
Si Si2 0.103649 0.765646 0.642195
Si Si3 0.875800 0.785652 0.831236
Si Si4 0.885364 0.976086 0.461816
Si Si5 0.839930 0.011620 0.844184
Si Si6 0.608697 0.240726 0.865384
Si Si7 0.145140 0.819724 0.008473
Si Si8 0.343452 0.678555 0.834375
O O1 0.134432 0.858362 0.573798
O O2 0.137363 0.859105 0.403371
O O3 0.143595 0.050455 0.490490
O O4 0.993234 0.955598 0.484040
O O5 0.104672 0.791007 0.746903
O O6 0.145572 0.642739 0.644032
O O7 0.000000 0.750000 0.612823
O O8 0.912198 0.911751 0.821150
O O9 0.903000 0.728964 0.922157
O O10 0.766239 0.805621 0.834236
O O11 0.833143 0.015635 0.550401
O O12 0.870283 0.063365 0.382080
O O13 0.853177 0.857015 0.427063
O O14 0.783712 0.000000 0.750000
O O15 0.500000 0.250000 0.876797
O O16 0.627171 0.204573 0.765370
O O17 0.250000 0.783916 0.000000
O O18 0.112112 0.768959 0.100385
#
# Coordination Sequence:
#
# PCOD9334316 Si02
#       8
#     8   8   8   8   8   8   8   8
#     4  11  23  41  65  94 131 173 214 268 327 400
#     4  11  21  41  66  94 136 164 209 269 333 413
#     4  10  24  44  64  95 130 174 216 275 337 392
#     4  11  21  40  68  95 127 165 212 275 332 387
#     4  10  20  37  66  96 126 157 209 266 331 388
#     4  10  23  41  64  95 129 165 214 274 328 385
#     4  10  24  43  61  87 128 173 221 265 316 395
#     4  11  24  44  66  91 131 172 226 278 326 389
#
# _framework density 23.880700000000001
#
# number of rings (size 3 to 8) (size 9 to 14) (size 15 to 20)
#    0.000    1.500    3.750    0.750    1.750    7.000 
#    0.000    2.500    0.000    0.000    0.000    0.000 
#    0.000    0.000    0.000    0.000    0.000    0.000 
#
# Total GULP energy -178343.639054 kJ/mol
# GULP energy per Si atom -5573.238720 kJ/mol
# Density = 2.382635 g / cm^3
# Si number density = 23.880700 Si / 1000 Ang^3
#
#
#
# Elastic Constant Matrix: (Units=GPa)
#
#
# Indices 1 2 3 4 5 6 
#
# 1 74.2668 3.8277 13.1313 0.0000 0.0000 0.0000
# 2 3.8277 139.7080 57.2615 0.0000 0.0000 0.0000
# 3 13.1313 57.2615 187.1305 0.0000 0.0000 0.0000
# 4 0.0000 0.0000 0.0000 29.1790 0.0000 0.0000
# 5 0.0000 0.0000 0.0000 0.0000 21.9908 0.0000
# 6 0.0000 0.0000 0.0000 0.0000 0.0000 29.1607
#
#
#
# Elastic Compliance Matrix: (Units=1/GPa)
#
#
# Indices 1 2 3 4 5 6 
#
# 1 0.013634 0.000021 -0.000963 0.000000 0.000000 0.000000
# 2 0.000021 0.008184 -0.002506 0.000000 0.000000 0.000000
# 3 -0.000963 -0.002506 0.006178 0.000000 0.000000 0.000000
# 4 0.000000 0.000000 0.000000 0.034271 0.000000 0.000000
# 5 0.000000 0.000000 0.000000 0.000000 0.045474 0.000000
# 6 0.000000 0.000000 0.000000 0.000000 0.000000 0.034293
#
#
# Mechanical properties :
#
#
# Convention : Reuss Voigt Hill
#
# Bulk Modulus (GPa) = 47.39112 61.06072 54.22592
# Shear Modulus (GPa) = 32.05875 37.85841 34.95858
#
# Velocity S-wave (km/s) = 3.66793 3.98592 3.83022
# Velocity P-wave (km/s) = 6.15031 6.84164 6.50516
#
# Compressibility (1/GPa) = 0.02110100
#
# Stress axis : x y z
#
# Youngs Moduli (GPa) = 73.34502 122.18562 161.85828
#
# Poissons Ratio (x) = -0.00260 0.15591
# Poissons Ratio (y) = -0.00156 0.40559
# Poissons Ratio (z) = 0.07065 0.30618
#
# Static dielectric constant tensor:
#      x y z
#    x 2.022070 0.000000 0.000000 
#    y 0.000000 2.003190 0.000000 
#    z 0.000000 0.000000 1.947490 
# 
# From -- ./inp_files/27234.got.cif
#   From: 2010.05.17/outbox.cif.g08.bks.cpg/sg24_14_cif.got.tgz:27234.got - 2010.06.04 00:33:39.
