data_PCOD9334076
_publ_section_title
;
Structure prediction by ZEFSAII (Michael W. Deem and Ramdas Pophale) SiO2 
 PCOD9334076
Probable space group: I 21 21 21
;
_chemical_formula_sum "Si O2"
_cell_formula_units_Z 40
_cell_length_a 10.201043
_cell_length_b 8.200311
_cell_length_c 24.653701
_cell_angle_alpha 90.000000
_cell_angle_beta 90.000000
_cell_angle_gamma 90.000000
_cell_volume 2062.324619
_symmetry_space_group_name_H-M "I 21 21 21"
_symmetry_group_IT_number 24
_symmetry_cell_setting 'orthorhombic'
loop_
_space_group_symop_operation_xyz
x,y,z
-x,1/2-y,z
x,-y,1/2-z
1/2-x,y,-z
1/2+x,1/2+y,1/2+z
1/2-x,-y,1/2+z
1/2+x,1/2-y,-z
-x,1/2+y,1/2-z
loop_
_atom_site_type_symbol
_atom_site_label
_atom_site_fract_x
_atom_site_fract_y
_atom_site_fract_z
Si Si1 0.191486 0.630093 0.609242
Si Si2 0.250000 0.565741 0.000000
Si Si3 0.394996 0.532490 0.813793
Si Si4 0.000000 0.750000 0.975088
Si Si5 0.592725 0.512754 0.388160
Si Si6 0.182113 0.912554 0.190861
O O1 0.225972 0.539210 0.553614
O O2 0.302178 0.588678 0.653046
O O3 0.162983 0.818094 0.595866
O O4 0.053675 0.558037 0.630982
O O5 0.118276 0.670657 0.008274
O O6 0.397615 0.500000 0.750000
O O7 0.343659 0.718702 0.814189
O O8 0.545592 0.517094 0.833368
O O9 0.931205 0.615014 0.936483
O O10 0.686257 0.443304 0.342155
O O11 0.194971 0.000000 0.250000
#
# Coordination Sequence:
#
# PCOD9334076 Si02
#       6
#     8   4   8   4   8   8
#     4  10  22  39  59  84 117 151 191 240 290 348
#     4  10  22  40  60  86 116 152 194 238 290 344
#     4  10  21  37  57  85 118 151 192 241 290 346
#     4  10  22  40  62  84 114 148 194 242 286 348
#     4  10  21  39  59  83 114 150 190 238 290 345
#     4  10  20  35  58  85 115 153 195 238 289 346
#
# _framework density 19.395588
#
# number of rings (size 3 to 8) (size 9 to 14) (size 15 to 20)
#    0.000    2.000    0.000    3.600    0.000    7.200 
#    0.000    8.000    0.000    0.000    0.000    0.000 
#    0.000    0.000    0.000    0.000    0.000    0.000 
#
# Total GULP energy -111536.051973 kJ/mol
# GULP energy per Si atom -5576.802599 kJ/mol
# Density = 1.935144 g / cm^3
# Si number density = 19.395588 Si / 1000 Ang^3
#
#
#
# Elastic Constant Matrix: (Units=GPa)
#
#
# Indices 1 2 3 4 5 6 
#
# 1 134.7762 55.3450 57.8828 0.0000 0.0000 0.0000
# 2 55.3450 84.2836 16.6961 0.0000 0.0000 0.0000
# 3 57.8828 16.6961 41.1824 0.0000 0.0000 0.0000
# 4 0.0000 0.0000 0.0000 15.3744 0.0000 0.0000
# 5 0.0000 0.0000 0.0000 0.0000 42.9988 0.0000
# 6 0.0000 0.0000 0.0000 0.0000 0.0000 25.8522
#
#
#
# Elastic Compliance Matrix: (Units=1/GPa)
#
#
# Indices 1 2 3 4 5 6 
#
# 1 0.024807 -0.010202 -0.030731 0.000000 0.000000 0.000000
# 2 -0.010202 0.017096 0.007408 0.000000 0.000000 0.000000
# 3 -0.030731 0.007408 0.064472 0.000000 0.000000 0.000000
# 4 0.000000 0.000000 0.000000 0.065043 0.000000 0.000000
# 5 0.000000 0.000000 0.000000 0.000000 0.023256 0.000000
# 6 0.000000 0.000000 0.000000 0.000000 0.000000 0.038681
#
#
# Mechanical properties :
#
#
# Convention : Reuss Voigt Hill
#
# Bulk Modulus (GPa) = 25.42871 57.78780 41.60826
# Shear Modulus (GPa) = 15.94812 25.53295 20.74054
#
# Velocity S-wave (km/s) = 2.87061 3.63220 3.27363
# Velocity P-wave (km/s) = 4.91185 6.88836 5.98230
#
# Compressibility (1/GPa) = 0.03932563
#
# Stress axis : x y z
#
# Youngs Moduli (GPa) = 40.31055 58.49160 15.51054
#
# Poissons Ratio (x) = 0.59674 0.47666
# Poissons Ratio (y) = 0.41125 -0.11490
# Poissons Ratio (z) = 1.23879 -0.43331
#
# Static dielectric constant tensor:
#      x y z
#    x 1.674490 0.000000 0.000000 
#    y 0.000000 0.938480 0.000000 
#    z 0.000000 0.000000 1.633270 
# 
# From -- ./inp_files/9323.got.cif
#   From: 2010.05.17/outbox.cif.g08.bks.cpg/sg24_5_cif.got.tgz:9323.got - 2010.06.04 00:33:39.
