data_PCOD9334152
_publ_section_title
;
Structure prediction by ZEFSAII (Michael W. Deem and Ramdas Pophale) SiO2 
 PCOD9334152
Probable space group: I 21 21 21
;
_chemical_formula_sum "Si O2"
_cell_formula_units_Z 64
_cell_length_a 8.980794
_cell_length_b 18.423223
_cell_length_c 20.091826
_cell_angle_alpha 90.000000
_cell_angle_beta 90.000000
_cell_angle_gamma 90.000000
_cell_volume 3324.296498
_symmetry_space_group_name_H-M "I 21 21 21"
_symmetry_group_IT_number 24
_symmetry_cell_setting 'orthorhombic'
loop_
_space_group_symop_operation_xyz
x,y,z
-x,1/2-y,z
x,-y,1/2-z
1/2-x,y,-z
1/2+x,1/2+y,1/2+z
1/2-x,-y,1/2+z
1/2+x,1/2-y,-z
-x,1/2+y,1/2-z
loop_
_atom_site_type_symbol
_atom_site_label
_atom_site_fract_x
_atom_site_fract_y
_atom_site_fract_z
Si Si1 0.785327 0.389721 0.783721
Si Si2 0.148502 0.489160 0.865646
Si Si3 0.673052 0.233891 0.568389
Si Si4 0.679498 0.252051 0.715983
Si Si5 0.814202 0.468986 0.349141
Si Si6 0.095405 0.432050 0.427003
Si Si7 0.131101 0.390469 0.748991
Si Si8 0.612266 0.490621 0.458550
O O1 0.719091 0.310369 0.772533
O O2 0.736308 0.431424 0.717318
O O3 0.719423 0.444245 0.840042
O O4 0.963256 0.380638 0.777026
O O5 0.275739 0.509832 0.917227
O O6 0.204404 0.431563 0.811610
O O7 0.116953 0.558305 0.816582
O O8 0.003286 0.468894 0.909214
O O9 0.500000 0.250000 0.561245
O O10 0.750000 0.256901 0.500000
O O11 0.725644 0.268056 0.638606
O O12 0.673130 0.146114 0.574206
O O13 0.500000 0.250000 0.713711
O O14 0.770217 0.179007 0.732268
O O15 0.708176 0.441832 0.408409
O O16 0.981162 0.445759 0.366187
O O17 0.993520 0.446872 0.491210
O O18 0.750000 0.527594 0.500000
#
# Coordination Sequence:
#
# PCOD9334152 Si02
#       8
#     8   8   8   8   8   8   8   8
#     4  11  21  38  62  82 122 156 203 256 304 370
#     4  11  20  38  59  90 121 151 208 251 311 368
#     4  11  24  41  54  83 126 175 212 244 290 366
#     4  11  25  40  57  88 122 161 210 250 305 374
#     4  10  20  37  59  92 114 157 201 255 315 349
#     4  11  23  35  61  87 124 161 200 259 305 363
#     4  11  22  37  62  84 120 161 198 262 306 363
#     4  10  20  36  58  87 121 152 194 250 298 369
#
# _framework density 19.252192000000001
#
# number of rings (size 3 to 8) (size 9 to 14) (size 15 to 20)
#    0.000    1.250    3.750    3.750    1.750    4.500 
#    0.000    0.000    0.000    0.000    0.000    8.750 
#    0.000    0.000    0.000    0.000    0.000    0.000 
#
# Total GULP energy -178194.960098 kJ/mol
# GULP energy per Si atom -5568.592503 kJ/mol
# Density = 1.920837 g / cm^3
# Si number density = 19.252192 Si / 1000 Ang^3
#
#
#
# Elastic Constant Matrix: (Units=GPa)
#
#
# Indices 1 2 3 4 5 6 
#
# 1 46.4844 -3.3295 7.0454 0.0000 0.0000 0.0000
# 2 -3.3295 52.8058 11.4922 0.0000 0.0000 0.0000
# 3 7.0454 11.4922 64.7075 0.0000 0.0000 0.0000
# 4 0.0000 0.0000 0.0000 16.7664 0.0000 0.0000
# 5 0.0000 0.0000 0.0000 0.0000 10.2775 0.0000
# 6 0.0000 0.0000 0.0000 0.0000 0.0000 18.0798
#
#
#
# Elastic Compliance Matrix: (Units=1/GPa)
#
#
# Indices 1 2 3 4 5 6 
#
# 1 0.022073 0.001992 -0.002757 0.000000 0.000000 0.000000
# 2 0.001992 0.019878 -0.003747 0.000000 0.000000 0.000000
# 3 -0.002757 -0.003747 0.016420 0.000000 0.000000 0.000000
# 4 0.000000 0.000000 0.000000 0.059643 0.000000 0.000000
# 5 0.000000 0.000000 0.000000 0.000000 0.097300 0.000000
# 6 0.000000 0.000000 0.000000 0.000000 0.000000 0.055310
#
#
# Mechanical properties :
#
#
# Convention : Reuss Voigt Hill
#
# Bulk Modulus (GPa) = 20.26498 21.60154 20.93326
# Shear Modulus (GPa) = 16.88624 18.94404 17.91514
#
# Velocity S-wave (km/s) = 2.96481 3.14027 3.05380
# Velocity P-wave (km/s) = 4.71901 4.93893 4.83022
#
# Compressibility (1/GPa) = 0.04934622
#
# Stress axis : x y z
#
# Youngs Moduli (GPa) = 45.30393 50.30580 60.90177
#
# Poissons Ratio (x) = -0.10020 0.16791
# Poissons Ratio (y) = -0.09024 0.22822
# Poissons Ratio (z) = 0.12491 0.18851
#
# Static dielectric constant tensor:
#      x y z
#    x 1.717220 0.000000 0.000000 
#    y 0.000000 1.808270 0.000000 
#    z 0.000000 0.000000 1.739110 
# 
# From -- ./inp_files/32935.got.cif
#   From: 2010.05.17/outbox.cif.g08.bks.cpg/sg24_17_cif.got.tgz:32935.got - 2010.06.04 00:33:39.
