data_PCOD9334103
_publ_section_title
;
Structure prediction by ZEFSAII (Michael W. Deem and Ramdas Pophale) SiO2 
 PCOD9334103
Probable space group: I 21 21 21
;
_chemical_formula_sum "Si O2"
_cell_formula_units_Z 48
_cell_length_a 18.352690
_cell_length_b 8.279606
_cell_length_c 15.293767
_cell_angle_alpha 90.000000
_cell_angle_beta 90.000000
_cell_angle_gamma 90.000000
_cell_volume 2323.934423
_symmetry_space_group_name_H-M "I 21 21 21"
_symmetry_group_IT_number 24
_symmetry_cell_setting 'orthorhombic'
loop_
_space_group_symop_operation_xyz
x,y,z
-x,1/2-y,z
x,-y,1/2-z
1/2-x,y,-z
1/2+x,1/2+y,1/2+z
1/2-x,-y,1/2+z
1/2+x,1/2-y,-z
-x,1/2+y,1/2-z
loop_
_atom_site_type_symbol
_atom_site_label
_atom_site_fract_x
_atom_site_fract_y
_atom_site_fract_z
Si Si1 0.276004 0.598812 0.126820
Si Si2 0.386609 0.831034 0.619215
Si Si3 0.868779 0.806038 0.022300
Si Si4 0.173045 0.972200 0.544872
Si Si5 0.763746 0.265197 0.804875
Si Si6 0.030115 0.498701 0.146543
O O1 0.203469 0.673093 0.082699
O O2 0.289950 0.720702 0.207706
O O3 0.259728 0.414815 0.153446
O O4 0.344243 0.588319 0.061342
O O5 0.356747 0.839453 0.521319
O O6 0.318868 0.830737 0.685869
O O7 0.430226 0.666324 0.622007
O O8 0.443568 0.975077 0.636126
O O9 0.933953 0.866939 0.084050
O O10 0.874521 0.631275 0.975204
O O11 0.250000 0.016071 0.500000
O O12 0.187786 0.890696 0.638626
O O13 0.045036 0.500000 0.250000
#
# Coordination Sequence:
#
# PCOD9334103 Si02
#       6
#     8   8   8   8   8   8
#     4  10  20  35  61  89 116 168 206 279 316 390
#     4  10  22  36  56  84 120 169 206 248 322 394
#     4  11  21  37  56  89 127 163 216 255 336 379
#     4  10  21  37  55  86 122 160 204 273 330 390
#     4  10  20  37  61  89 123 160 215 268 335 385
#     4  11  23  39  57  86 126 176 216 252 313 414
#
# _framework density 20.654629
#
# number of rings (size 3 to 8) (size 9 to 14) (size 15 to 20)
#    0.000    1.667    3.333    2.000    4.667    5.333 
#    0.000    0.000    0.000    0.000    0.000   18.667 
#    0.000    0.000    0.000    0.000    0.000    0.000 
#
# Total GULP energy -133734.201790 kJ/mol
# GULP energy per Si atom -5572.258408 kJ/mol
# Density = 2.060762 g / cm^3
# Si number density = 20.654629 Si / 1000 Ang^3
#
#
#
# Elastic Constant Matrix: (Units=GPa)
#
#
# Indices 1 2 3 4 5 6 
#
# 1 75.9089 35.7590 52.1676 0.0000 0.0000 0.0000
# 2 35.7590 106.7089 53.2975 0.0000 0.0000 0.0000
# 3 52.1676 53.2975 125.8292 0.0000 0.0000 0.0000
# 4 0.0000 0.0000 0.0000 0.6341 0.0000 0.0000
# 5 0.0000 0.0000 0.0000 0.0000 29.1640 0.0000
# 6 0.0000 0.0000 0.0000 0.0000 0.0000 24.5795
#
#
#
# Elastic Compliance Matrix: (Units=1/GPa)
#
#
# Indices 1 2 3 4 5 6 
#
# 1 0.019208 -0.003119 -0.006642 0.000000 0.000000 0.000000
# 2 -0.003119 0.012392 -0.003956 0.000000 0.000000 0.000000
# 3 -0.006642 -0.003956 0.012377 0.000000 0.000000 0.000000
# 4 0.000000 0.000000 0.000000 1.577154 0.000000 0.000000
# 5 0.000000 0.000000 0.000000 0.000000 0.034289 0.000000
# 6 0.000000 0.000000 0.000000 0.000000 0.000000 0.040684
#
#
# Mechanical properties :
#
#
# Convention : Reuss Voigt Hill
#
# Bulk Modulus (GPa) = 60.45064 65.65503 63.05283
# Shear Modulus (GPa) = 2.89176 22.02371 12.45773
#
# Velocity S-wave (km/s) = 1.18452 3.26894 2.45857
# Velocity P-wave (km/s) = 5.58585 6.79000 6.21714
#
# Compressibility (1/GPa) = 0.01654242
#
# Stress axis : x y z
#
# Youngs Moduli (GPa) = 52.06205 80.69493 80.79719
#
# Poissons Ratio (x) = 0.25170 0.53667
# Poissons Ratio (y) = 0.16239 0.31962
# Poissons Ratio (z) = 0.34581 0.31922
#
# Static dielectric constant tensor:
#      x y z
#    x 1.771930 0.000000 0.000000 
#    y 0.000000 1.803310 0.000000 
#    z 0.000000 0.000000 1.813930 
# 
# From -- ./inp_files/27054.got.cif
#   From: 2010.05.17/outbox.cif.g08.bks.cpg/sg24_14_cif.got.tgz:27054.got - 2010.06.04 00:33:39.
