data_PCOD9334526
_publ_section_title
;
Structure prediction by ZEFSAII (Michael W. Deem and Ramdas Pophale) SiO2 
 PCOD9334526
Probable space group: I 21 21 21
;
_chemical_formula_sum "Si O2"
_cell_formula_units_Z 60
_cell_length_a 8.788159
_cell_length_b 18.613151
_cell_length_c 17.273392
_cell_angle_alpha 90.000000
_cell_angle_beta 90.000000
_cell_angle_gamma 90.000000
_cell_volume 2825.500805
_symmetry_space_group_name_H-M "I 21 21 21"
_symmetry_group_IT_number 24
_symmetry_cell_setting 'orthorhombic'
loop_
_space_group_symop_operation_xyz
x,y,z
-x,1/2-y,z
x,-y,1/2-z
1/2-x,y,-z
1/2+x,1/2+y,1/2+z
1/2-x,-y,1/2+z
1/2+x,1/2-y,-z
-x,1/2+y,1/2-z
loop_
_atom_site_type_symbol
_atom_site_label
_atom_site_fract_x
_atom_site_fract_y
_atom_site_fract_z
Si Si1 0.641775 0.376660 0.885447
Si Si2 0.292110 0.627300 0.918959
Si Si3 0.500000 0.750000 0.894245
Si Si4 0.514437 0.100375 0.315332
Si Si5 0.805351 0.351080 0.285515
Si Si6 0.925142 0.820580 0.522160
Si Si7 0.980711 0.437588 0.865448
Si Si8 0.996865 0.019092 0.327320
O O1 0.662247 0.333719 0.804446
O O2 0.541573 0.447127 0.869425
O O3 0.812641 0.409801 0.893366
O O4 0.547473 0.335609 0.952078
O O5 0.383057 0.699877 0.938889
O O6 0.155970 0.637131 0.857950
O O7 0.404026 0.571788 0.879338
O O8 0.250000 0.593569 0.000000
O O9 0.405511 0.801606 0.838751
O O10 0.365576 0.149940 0.315731
O O11 0.523492 0.084443 0.222969
O O12 0.490014 0.024171 0.360827
O O13 0.859637 0.434131 0.296726
O O14 0.750000 0.804304 0.500000
O O15 0.917090 0.891584 0.575870
O O16 0.000000 0.750000 0.562749
O O17 0.903954 0.000000 0.250000
#
# Coordination Sequence:
#
# PCOD9334526 Si02
#       8
#     8   8   4   8   8   8   8   8
#     4  10  20  39  69  97 136 176 220 278 335 406
#     4  11  26  42  64  98 134 174 233 288 349 415
#     4  10  24  44  62  88 136 178 222 276 348 410
#     4  10  22  41  70  99 128 172 233 289 338 399
#     4   9  19  41  66  97 126 177 226 272 336 410
#     4  12  28  45  65 100 146 190 226 275 344 414
#     4  10  22  43  68  97 137 174 226 284 342 401
#     4   9  19  37  63  96 131 169 215 270 338 401
#
# _framework density 21.235174000000001
#
# number of rings (size 3 to 8) (size 9 to 14) (size 15 to 20)
#    0.000    1.867    1.333    1.200    6.533    3.733 
#    4.800    2.000    0.000    0.000    0.000    0.000 
#    0.000    0.000    0.000    0.000    0.000    0.000 
#
# Total GULP energy -167224.594623 kJ/mol
# GULP energy per Si atom -5574.153154 kJ/mol
# Density = 2.118684 g / cm^3
# Si number density = 21.235174 Si / 1000 Ang^3
#
#
#
# Elastic Constant Matrix: (Units=GPa)
#
#
# Indices 1 2 3 4 5 6 
#
# 1 100.4293 12.8547 31.4685 0.0000 0.0000 0.0000
# 2 12.8547 40.4351 11.5978 0.0000 0.0000 0.0000
# 3 31.4685 11.5978 47.1771 0.0000 0.0000 0.0000
# 4 0.0000 0.0000 0.0000 16.9043 0.0000 0.0000
# 5 0.0000 0.0000 0.0000 0.0000 21.9260 0.0000
# 6 0.0000 0.0000 0.0000 0.0000 0.0000 3.3339
#
#
#
# Elastic Compliance Matrix: (Units=1/GPa)
#
#
# Indices 1 2 3 4 5 6 
#
# 1 0.012700 -0.001730 -0.008046 0.000000 0.000000 0.000000
# 2 -0.001730 0.026843 -0.005445 0.000000 0.000000 0.000000
# 3 -0.008046 -0.005445 0.027902 0.000000 0.000000 0.000000
# 4 0.000000 0.000000 0.000000 0.059156 0.000000 0.000000
# 5 0.000000 0.000000 0.000000 0.000000 0.045608 0.000000
# 6 0.000000 0.000000 0.000000 0.000000 0.000000 0.299950
#
#
# Mechanical properties :
#
#
# Convention : Reuss Voigt Hill
#
# Bulk Modulus (GPa) = 27.02465 33.32039 30.17252
# Shear Modulus (GPa) = 9.70996 17.24087 13.47542
#
# Velocity S-wave (km/s) = 2.14068 2.85248 2.52182
# Velocity P-wave (km/s) = 4.34327 5.15500 4.76645
#
# Compressibility (1/GPa) = 0.03700325
#
# Stress axis : x y z
#
# Youngs Moduli (GPa) = 78.74174 37.25409 35.83943
#
# Poissons Ratio (x) = 0.06444 0.28836
# Poissons Ratio (y) = 0.13619 0.19515
# Poissons Ratio (z) = 0.63355 0.20286
#
# Static dielectric constant tensor:
#      x y z
#    x 1.848210 0.000000 0.000000 
#    y 0.000000 1.767450 0.000000 
#    z 0.000000 0.000000 1.785860 
# 
# From -- ./inp_files/29692.got.cif
#   From: 2010.05.17/outbox.cif.g08.bks.cpg/sg24_15_cif.got.tgz:29692.got - 2010.06.04 00:33:39.
