data_PCOD9334684
_publ_section_title
;
Structure prediction by ZEFSAII (Michael W. Deem and Ramdas Pophale) SiO2 
 PCOD9334684
Probable space group: I 21 21 21
;
_chemical_formula_sum "Si O2"
_cell_formula_units_Z 56
_cell_length_a 15.674666
_cell_length_b 5.098454
_cell_length_c 29.046555
_cell_angle_alpha 90.000000
_cell_angle_beta 90.000000
_cell_angle_gamma 90.000000
_cell_volume 2321.300859
_symmetry_space_group_name_H-M "I 21 21 21"
_symmetry_group_IT_number 24
_symmetry_cell_setting 'orthorhombic'
loop_
_space_group_symop_operation_xyz
x,y,z
-x,1/2-y,z
x,-y,1/2-z
1/2-x,y,-z
1/2+x,1/2+y,1/2+z
1/2-x,-y,1/2+z
1/2+x,1/2-y,-z
-x,1/2+y,1/2-z
loop_
_atom_site_type_symbol
_atom_site_label
_atom_site_fract_x
_atom_site_fract_y
_atom_site_fract_z
Si Si1 0.324347 0.047846 0.195279
Si Si2 0.576133 0.453761 0.549659
Si Si3 0.000000 0.250000 0.132869
Si Si4 0.500000 0.250000 0.218218
Si Si5 0.058083 0.012681 0.950073
Si Si6 0.090863 0.399749 0.300218
Si Si7 0.245207 0.439374 0.652204
Si Si8 0.761457 0.214744 0.552633
O O1 0.418342 0.167141 0.189926
O O2 0.264499 0.279459 0.176201
O O3 0.309404 0.000000 0.250000
O O4 0.324043 0.771648 0.168991
O O5 0.500000 0.250000 0.539615
O O6 0.546476 0.560991 0.598064
O O7 0.575836 0.617354 0.502593
O O8 0.671895 0.363228 0.556556
O O9 0.069461 0.364728 0.166149
O O10 0.477360 0.500000 0.250000
O O11 0.000000 0.250000 0.928771
O O12 0.154527 0.898825 0.940335
O O13 0.000000 0.750000 0.945945
O O14 0.114686 0.500000 0.250000
O O15 0.171714 0.285525 0.326723
O O16 0.000000 0.250000 0.296548
O O17 0.240970 0.473413 0.597210
O O18 0.750000 0.104174 0.500000
#
# Coordination Sequence:
#
# PCOD9334684 Si02
#       8
#     8   8   4   4   8   8   8   8
#     4  11  24  46  74 109 145 192 241 306 376 453
#     4  10  21  43  70 106 139 192 252 318 380 462
#     4  12  22  40  72  93 142 184 247 308 374 462
#     4  10  20  42  76 107 140 182 237 292 366 458
#     4  10  22  46  72 105 148 195 252 316 391 451
#     4  12  27  45  67 101 143 192 246 307 382 456
#     4  12  27  46  72 108 150 196 251 312 383 459
#     4  10  24  48  74 109 151 206 264 328 389 469
#
# _framework density 24.124403000000001
#
# number of rings (size 3 to 8) (size 9 to 14) (size 15 to 20)
#    0.000    1.143    1.429    5.143    4.000    1.714 
#    6.429    2.857    0.000    0.000    0.000    0.000 
#    0.000    0.000    0.000    0.000    0.000    0.000 
#
# Total GULP energy -156118.820071 kJ/mol
# GULP energy per Si atom -5575.672145 kJ/mol
# Density = 2.406950 g / cm^3
# Si number density = 24.124403 Si / 1000 Ang^3
#
#
#
# Elastic Constant Matrix: (Units=GPa)
#
#
# Indices 1 2 3 4 5 6 
#
# 1 157.0754 26.5612 17.5457 0.0000 0.0000 0.0000
# 2 26.5612 92.0173 23.8918 0.0000 0.0000 0.0000
# 3 17.5457 23.8918 148.8060 0.0000 0.0000 0.0000
# 4 0.0000 0.0000 0.0000 33.1591 0.0000 0.0000
# 5 0.0000 0.0000 0.0000 0.0000 33.7758 0.0000
# 6 0.0000 0.0000 0.0000 0.0000 0.0000 7.2157
#
#
#
# Elastic Compliance Matrix: (Units=1/GPa)
#
#
# Indices 1 2 3 4 5 6 
#
# 1 0.006729 -0.001812 -0.000502 0.000000 0.000000 0.000000
# 2 -0.001812 0.011828 -0.001685 0.000000 0.000000 0.000000
# 3 -0.000502 -0.001685 0.007050 0.000000 0.000000 0.000000
# 4 0.000000 0.000000 0.000000 0.030158 0.000000 0.000000
# 5 0.000000 0.000000 0.000000 0.000000 0.029607 0.000000
# 6 0.000000 0.000000 0.000000 0.000000 0.000000 0.138586
#
#
# Mechanical properties :
#
#
# Convention : Reuss Voigt Hill
#
# Bulk Modulus (GPa) = 56.79419 59.32180 58.05800
# Shear Modulus (GPa) = 21.02373 36.82345 28.92359
#
# Velocity S-wave (km/s) = 2.95527 3.91115 3.46632
# Velocity P-wave (km/s) = 5.93617 6.71115 6.33552
#
# Compressibility (1/GPa) = 0.01760744
#
# Stress axis : x y z
#
# Youngs Moduli (GPa) = 148.61311 84.54412 141.84359
#
# Poissons Ratio (x) = 0.15318 0.07128
# Poissons Ratio (y) = 0.26927 0.23907
# Poissons Ratio (z) = 0.07468 0.14250
#
# Static dielectric constant tensor:
#      x y z
#    x 1.835360 0.000000 0.000000 
#    y 0.000000 1.992310 0.000000 
#    z 0.000000 0.000000 2.123690 
# 
# From -- ./inp_files/38755.got.cif
#   From: 2010.05.17/outbox.cif.g08.bks.cpg/sg24_20_cif.got.tgz:38755.got - 2010.06.04 00:33:39.
