data_PCOD9334201
_publ_section_title
;
Structure prediction by ZEFSAII (Michael W. Deem and Ramdas Pophale) SiO2 
 PCOD9334201
Probable space group: I 21 21 21
;
_chemical_formula_sum "Si O2"
_cell_formula_units_Z 48
_cell_length_a 21.818329
_cell_length_b 6.527865
_cell_length_c 16.774396
_cell_angle_alpha 90.000000
_cell_angle_beta 90.000000
_cell_angle_gamma 90.000000
_cell_volume 2389.128681
_symmetry_space_group_name_H-M "I 21 21 21"
_symmetry_group_IT_number 24
_symmetry_cell_setting 'orthorhombic'
loop_
_space_group_symop_operation_xyz
x,y,z
-x,1/2-y,z
x,-y,1/2-z
1/2-x,y,-z
1/2+x,1/2+y,1/2+z
1/2-x,-y,1/2+z
1/2+x,1/2-y,-z
-x,1/2+y,1/2-z
loop_
_atom_site_type_symbol
_atom_site_label
_atom_site_fract_x
_atom_site_fract_y
_atom_site_fract_z
Si Si1 0.824192 0.288514 0.204308
Si Si2 0.432767 0.717410 0.979822
Si Si3 0.750000 0.794004 0.000000
Si Si4 0.842824 0.561917 0.467649
Si Si5 0.660437 0.941716 0.415946
Si Si6 0.953684 0.080267 0.169447
Si Si7 0.712993 0.000000 0.250000
O O1 0.833701 0.500000 0.250000
O O2 0.816560 0.326614 0.109898
O O3 0.889199 0.171566 0.201121
O O4 0.764312 0.183173 0.243663
O O5 0.500000 0.750000 0.014600
O O6 0.438719 0.588863 0.897494
O O7 0.407649 0.946318 0.961074
O O8 0.390951 0.582446 0.040351
O O9 0.802080 0.639974 0.025099
O O10 0.724605 0.943679 0.066051
O O11 0.841245 0.721066 0.540799
O O12 0.665522 0.948231 0.321509
O O13 0.000000 0.250000 0.135188
O O14 0.985664 0.000000 0.250000
#
# Coordination Sequence:
#
# PCOD9334201 Si02
#       7
#     8   8   4   8   8   8   4
#     4  12  23  38  63  98 142 181 223 272 340 410
#     4  11  25  44  69  97 133 179 236 285 344 421
#     4  10  20  36  62  94 128 170 216 274 334 422
#     4  11  22  40  66  97 133 182 224 278 346 409
#     4  11  24  42  66  95 136 179 232 288 352 402
#     4  12  23  40  62 101 141 183 224 278 337 418
#     4  12  26  42  66  98 140 178 234 288 340 418
#
# _framework density 20.091006
#
# number of rings (size 3 to 8) (size 9 to 14) (size 15 to 20)
#    0.000    0.667    2.500    6.500    2.333    1.333 
#    0.000    0.000    3.667    0.000    0.000    0.000 
#    0.000    0.000    0.000    0.000    0.000    0.000 
#
# Total GULP energy -133734.522178 kJ/mol
# GULP energy per Si atom -5572.271757 kJ/mol
# Density = 2.004528 g / cm^3
# Si number density = 20.091006 Si / 1000 Ang^3
#
#
#
# Elastic Constant Matrix: (Units=GPa)
#
#
# Indices 1 2 3 4 5 6 
#
# 1 80.6616 48.1709 32.9170 0.0000 0.0000 0.0000
# 2 48.1709 131.1609 60.6679 0.0000 0.0000 0.0000
# 3 32.9170 60.6679 113.8697 0.0000 0.0000 0.0000
# 4 0.0000 0.0000 0.0000 30.9429 0.0000 0.0000
# 5 0.0000 0.0000 0.0000 0.0000 7.5315 0.0000
# 6 0.0000 0.0000 0.0000 0.0000 0.0000 53.1577
#
#
#
# Elastic Compliance Matrix: (Units=1/GPa)
#
#
# Indices 1 2 3 4 5 6 
#
# 1 0.016220 -0.005027 -0.002010 0.000000 0.000000 0.000000
# 2 -0.005027 0.011676 -0.004767 0.000000 0.000000 0.000000
# 3 -0.002010 -0.004767 0.011903 0.000000 0.000000 0.000000
# 4 0.000000 0.000000 0.000000 0.032318 0.000000 0.000000
# 5 0.000000 0.000000 0.000000 0.000000 0.132775 0.000000
# 6 0.000000 0.000000 0.000000 0.000000 0.000000 0.018812
#
#
# Mechanical properties :
#
#
# Convention : Reuss Voigt Hill
#
# Bulk Modulus (GPa) = 61.77062 67.68930 64.72996
# Shear Modulus (GPa) = 19.78555 30.58885 25.18720
#
# Velocity S-wave (km/s) = 3.14155 3.90617 3.54454
# Velocity P-wave (km/s) = 6.63108 7.35587 7.00286
#
# Compressibility (1/GPa) = 0.01618893
#
# Stress axis : x y z
#
# Youngs Moduli (GPa) = 61.65175 85.64827 84.01159
#
# Poissons Ratio (x) = 0.43057 0.16890
# Poissons Ratio (y) = 0.30993 0.40051
# Poissons Ratio (z) = 0.12395 0.40832
#
# Static dielectric constant tensor:
#      x y z
#    x 1.303400 0.000000 0.000000 
#    y 0.000000 1.795440 0.000000 
#    z 0.000000 0.000000 1.981830 
# 
# From -- ./inp_files/31516.got.cif
#   From: 2010.05.17/outbox.cif.g08.bks.cpg/sg24_16_cif.got.tgz:31516.got - 2010.06.04 00:33:39.
