data_PCOD9334924
_publ_section_title
;
Structure prediction by ZEFSAII (Michael W. Deem and Ramdas Pophale) SiO2 
 PCOD9334924
Probable space group: I 21 21 21
;
_chemical_formula_sum "Si O2"
_cell_formula_units_Z 52
_cell_length_a 14.935853
_cell_length_b 19.892433
_cell_length_c 8.088813
_cell_angle_alpha 90.000000
_cell_angle_beta 90.000000
_cell_angle_gamma 90.000000
_cell_volume 2403.270912
_symmetry_space_group_name_H-M "I 21 21 21"
_symmetry_group_IT_number 24
_symmetry_cell_setting 'orthorhombic'
loop_
_space_group_symop_operation_xyz
x,y,z
-x,1/2-y,z
x,-y,1/2-z
1/2-x,y,-z
1/2+x,1/2+y,1/2+z
1/2-x,-y,1/2+z
1/2+x,1/2-y,-z
-x,1/2+y,1/2-z
loop_
_atom_site_type_symbol
_atom_site_label
_atom_site_fract_x
_atom_site_fract_y
_atom_site_fract_z
Si Si1 0.753698 0.422844 0.800803
Si Si2 0.886654 0.953322 0.899565
Si Si3 0.147845 0.298678 0.519189
Si Si4 0.060722 0.891364 0.336445
Si Si5 0.552736 0.603596 0.292966
Si Si6 0.000000 0.750000 0.239504
Si Si7 0.500000 0.250000 0.244398
Si Si8 0.576883 0.000000 0.750000
O O1 0.760410 0.500000 0.750000
O O2 0.656204 0.398376 0.747076
O O3 0.844992 0.390827 0.733919
O O4 0.750000 0.413484 0.000000
O O5 0.849496 0.878062 0.931944
O O6 0.987964 0.935443 0.832759
O O7 0.849247 0.000000 0.750000
O O8 0.876031 0.994233 0.071433
O O9 0.250000 0.276249 0.500000
O O10 0.081812 0.283025 0.365100
O O11 0.092752 0.258183 0.656254
O O12 0.060577 0.924521 0.520089
O O13 0.039835 0.812698 0.336897
O O14 0.985286 0.933951 0.245454
O O15 0.509489 0.675975 0.326391
#
# Coordination Sequence:
#
# PCOD9334924 Si02
#       8
#     8   8   8   8   8   4   4   4
#     4  10  22  35  54  92 128 164 212 265 328 396
#     4  11  22  42  70  92 130 176 218 277 341 391
#     4  10  23  43  63  95 132 169 224 279 324 403
#     4  11  22  38  62  93 134 170 219 276 332 400
#     4  10  21  38  62  92 127 176 216 270 329 403
#     4  11  23  42  66  94 130 182 216 272 350 388
#     4   9  21  40  64  88 122 176 222 254 346 388
#     4  12  22  40  64  98 132 174 224 278 334 400
#
# _framework density 21.637176
#
# number of rings (size 3 to 8) (size 9 to 14) (size 15 to 20)
#    0.000    1.538    3.846    0.923    4.308    0.000 
#    1.385    0.000    0.000    1.846    0.000    0.000 
#    0.000    0.000    0.000    0.000    0.000    0.000 
#
# Total GULP energy -144758.881125 kJ/mol
# GULP energy per Si atom -5567.649274 kJ/mol
# Density = 2.158793 g / cm^3
# Si number density = 21.637176 Si / 1000 Ang^3
#
#
#
# Elastic Constant Matrix: (Units=GPa)
#
#
# Indices 1 2 3 4 5 6 
#
# 1 104.1206 5.6885 19.8959 0.0000 0.0000 0.0000
# 2 5.6885 101.3212 9.3256 0.0000 0.0000 0.0000
# 3 19.8959 9.3256 85.9248 0.0000 0.0000 0.0000
# 4 0.0000 0.0000 0.0000 16.0989 0.0000 0.0000
# 5 0.0000 0.0000 0.0000 0.0000 -113.0117 0.0000
# 6 0.0000 0.0000 0.0000 0.0000 0.0000 25.4253
#
#
#
# Elastic Compliance Matrix: (Units=1/GPa)
#
#
# Indices 1 2 3 4 5 6 
#
# 1 0.010061 -0.000354 -0.002291 0.000000 0.000000 0.000000
# 2 -0.000354 0.009982 -0.001001 0.000000 0.000000 0.000000
# 3 -0.002291 -0.001001 0.012277 0.000000 0.000000 0.000000
# 4 0.000000 0.000000 0.000000 0.062116 0.000000 0.000000
# 5 0.000000 0.000000 0.000000 0.000000 -0.008849 0.000000
# 6 0.000000 0.000000 0.000000 0.000000 0.000000 0.039331
#
#
# Mechanical properties :
#
#
# Convention : Reuss Voigt Hill
#
# Bulk Modulus (GPa) = 39.95674 40.13184 40.04429
# Shear Modulus (GPa) = 35.57348 2.79961 19.18654
#
# Velocity S-wave (km/s) = 4.05914 1.13873 2.98105
# Velocity P-wave (km/s) = 6.36204 4.50742 5.51328
#
# Compressibility (1/GPa) = 0.02502707
#
# Stress axis : x y z
#
# Youngs Moduli (GPa) = 99.38951 100.18392 81.45103
#
# Poissons Ratio (x) = 0.03546 0.18663
# Poissons Ratio (y) = 0.03518 0.08156
# Poissons Ratio (z) = 0.22773 0.10032
#
# Static dielectric constant tensor:
#      x y z
#    x 1.806020 0.000000 0.000000 
#    y 0.000000 2.094830 0.000000 
#    z 0.000000 0.000000 1.848210 
# 
# From -- ./inp_files/13105.got.cif
#   From: 2010.05.17/outbox.cif.g08.bks.cpg/sg24_7_cif.got.tgz:13105.got - 2010.06.04 00:33:39.
