data_PCOD9334962
_publ_section_title
;
Structure prediction by ZEFSAII (Michael W. Deem and Ramdas Pophale) SiO2 
 PCOD9334962
Probable space group: I 21 21 21
;
_chemical_formula_sum "Si O2"
_cell_formula_units_Z 40
_cell_length_a 7.337835
_cell_length_b 7.785459
_cell_length_c 29.316256
_cell_angle_alpha 90.000000
_cell_angle_beta 90.000000
_cell_angle_gamma 90.000000
_cell_volume 1674.791196
_symmetry_space_group_name_H-M "I 21 21 21"
_symmetry_group_IT_number 24
_symmetry_cell_setting 'orthorhombic'
loop_
_space_group_symop_operation_xyz
x,y,z
-x,1/2-y,z
x,-y,1/2-z
1/2-x,y,-z
1/2+x,1/2+y,1/2+z
1/2-x,-y,1/2+z
1/2+x,1/2-y,-z
-x,1/2+y,1/2-z
loop_
_atom_site_type_symbol
_atom_site_label
_atom_site_fract_x
_atom_site_fract_y
_atom_site_fract_z
Si Si1 0.289881 0.185485 0.811237
Si Si2 0.782274 0.936692 0.551605
Si Si3 0.714177 0.769173 0.115208
Si Si4 0.286982 0.217490 0.714952
Si Si5 0.806618 0.396810 0.909590
O O1 0.500000 0.250000 0.817466
O O2 0.213051 0.271540 0.764649
O O3 0.191567 0.195329 0.859740
O O4 0.272851 0.984170 0.797425
O O5 0.750000 0.990367 0.500000
O O6 0.710016 0.743901 0.559053
O O7 0.996210 0.926451 0.566838
O O8 0.704204 0.078767 0.585697
O O9 0.500000 0.750000 0.106153
O O10 0.725741 0.810554 0.168963
O O11 0.784407 0.580855 0.100615
O O12 0.500000 0.250000 0.719310
#
# Coordination Sequence:
#
# PCOD9334962 Si02
#       5
#     8   8   8   8   8
#     4   9  18  34  58  83 123 158 191 245 300 356
#     4  10  21  39  61  83 114 154 204 252 300 358
#     4   9  19  38  60  85 121 156 195 248 299 359
#     4   9  18  33  55  89 121 156 198 236 296 366
#     4   9  20  40  59  83 117 153 197 251 302 354
#
# _framework density 23.883575
#
# number of rings (size 3 to 8) (size 9 to 14) (size 15 to 20)
#    0.000    2.800    0.000    0.000    2.800    0.800 
#    7.200    3.000    0.000    0.000    0.000    0.000 
#    0.000    0.000    0.000    0.000    0.000    0.000 
#
# Total GULP energy -111454.907085 kJ/mol
# GULP energy per Si atom -5572.745354 kJ/mol
# Density = 2.382921 g / cm^3
# Si number density = 23.883575 Si / 1000 Ang^3
#
#
#
# Elastic Constant Matrix: (Units=GPa)
#
#
# Indices 1 2 3 4 5 6 
#
# 1 94.7330 5.3586 29.8564 0.0000 0.0000 0.0000
# 2 5.3586 61.6081 48.8048 0.0000 0.0000 0.0000
# 3 29.8564 48.8048 181.5400 0.0000 0.0000 0.0000
# 4 0.0000 0.0000 0.0000 38.8504 0.0000 0.0000
# 5 0.0000 0.0000 0.0000 0.0000 33.5583 0.0000
# 6 0.0000 0.0000 0.0000 0.0000 0.0000 1.3697
#
#
#
# Elastic Compliance Matrix: (Units=1/GPa)
#
#
# Indices 1 2 3 4 5 6 
#
# 1 0.011151 0.000614 -0.001999 0.000000 0.000000 0.000000
# 2 0.000614 0.020658 -0.005654 0.000000 0.000000 0.000000
# 3 -0.001999 -0.005654 0.007357 0.000000 0.000000 0.000000
# 4 0.000000 0.000000 0.000000 0.025740 0.000000 0.000000
# 5 0.000000 0.000000 0.000000 0.000000 0.029799 0.000000
# 6 0.000000 0.000000 0.000000 0.000000 0.000000 0.730110
#
#
# Mechanical properties :
#
#
# Convention : Reuss Voigt Hill
#
# Bulk Modulus (GPa) = 39.86190 56.21339 48.03764
# Shear Modulus (GPa) = 5.90140 31.67976 18.79058
#
# Velocity S-wave (km/s) = 1.57362 3.64596 2.80796
# Velocity P-wave (km/s) = 4.47527 6.42741 5.53803
#
# Compressibility (1/GPa) = 0.02508661
#
# Stress axis : x y z
#
# Youngs Moduli (GPa) = 89.67593 48.40833 135.91940
#
# Poissons Ratio (x) = -0.02970 0.27169
# Poissons Ratio (y) = -0.05502 0.76855
# Poissons Ratio (z) = 0.17925 0.27372
#
# Static dielectric constant tensor:
#      x y z
#    x 1.914060 0.000000 0.000000 
#    y 0.000000 1.984690 0.000000 
#    z 0.000000 0.000000 1.946350 
# 
# From -- ./inp_files/16256.got.cif
#   From: 2010.05.17/outbox.cif.g08.bks.cpg/sg24_9_cif.got.tgz:16256.got - 2010.06.04 00:33:39.
