data_PCOD9334604
_publ_section_title
;
Structure prediction by ZEFSAII (Michael W. Deem and Ramdas Pophale) SiO2 
 PCOD9334604
Probable space group: I 21 21 21
;
_chemical_formula_sum "Si O2"
_cell_formula_units_Z 48
_cell_length_a 14.086955
_cell_length_b 17.225703
_cell_length_c 10.026596
_cell_angle_alpha 90.000000
_cell_angle_beta 90.000000
_cell_angle_gamma 90.000000
_cell_volume 2433.030754
_symmetry_space_group_name_H-M "I 21 21 21"
_symmetry_group_IT_number 24
_symmetry_cell_setting 'orthorhombic'
loop_
_space_group_symop_operation_xyz
x,y,z
-x,1/2-y,z
x,-y,1/2-z
1/2-x,y,-z
1/2+x,1/2+y,1/2+z
1/2-x,-y,1/2+z
1/2+x,1/2-y,-z
-x,1/2+y,1/2-z
loop_
_atom_site_type_symbol
_atom_site_label
_atom_site_fract_x
_atom_site_fract_y
_atom_site_fract_z
Si Si1 0.250000 0.737039 0.000000
Si Si2 0.029565 0.065133 0.491951
Si Si3 0.509334 0.106476 0.082168
Si Si4 0.000000 0.250000 0.108242
Si Si5 0.080280 0.679830 0.846729
Si Si6 0.862071 0.335224 0.305297
Si Si7 0.329522 0.913571 0.243597
O O1 0.309784 0.698862 0.121328
O O2 0.164753 0.786499 0.063921
O O3 0.078420 0.089557 0.353731
O O4 0.108140 0.080788 0.608463
O O5 0.951383 0.129405 0.525827
O O6 0.987534 0.978983 0.515090
O O7 0.569639 0.125109 0.215796
O O8 0.401474 0.107906 0.138903
O O9 0.528621 0.176991 0.982985
O O10 0.918186 0.283168 0.202448
O O11 0.000000 0.750000 0.830414
O O12 0.759319 0.358659 0.253576
O O13 0.289840 0.000000 0.250000
#
# Coordination Sequence:
#
# PCOD9334604 Si02
#       7
#     4   8   8   4   8   8   8
#     4  12  22  38  70  98 124 166 226 286 322 394
#     4  10  20  40  69  93 122 167 222 275 332 384
#     4  10  23  43  61  91 137 181 210 263 344 412
#     4  12  28  38  58  92 136 186 206 254 344 408
#     4  11  19  39  68  96 128 170 221 267 333 398
#     4  12  22  38  58  99 128 163 221 276 329 390
#     4   9  19  36  65  96 120 160 215 276 339 391
#
# _framework density 19.728480999999999
#
# number of rings (size 3 to 8) (size 9 to 14) (size 15 to 20)
#    0.000    1.333    4.167    3.500    2.333    0.667 
#    0.000    0.000    7.333    0.000    0.000    0.000 
#    0.000    0.000    0.000    0.000    0.000    0.000 
#
# Total GULP energy -133683.962000 kJ/mol
# GULP energy per Si atom -5570.165083 kJ/mol
# Density = 1.968358 g / cm^3
# Si number density = 19.728481 Si / 1000 Ang^3
#
#
#
# Elastic Constant Matrix: (Units=GPa)
#
#
# Indices 1 2 3 4 5 6 
#
# 1 50.6921 39.4807 15.4701 0.0000 0.0000 0.0000
# 2 39.4807 114.6223 26.5251 0.0000 0.0000 0.0000
# 3 15.4701 26.5251 47.7233 0.0000 0.0000 0.0000
# 4 0.0000 0.0000 0.0000 30.6087 0.0000 0.0000
# 5 0.0000 0.0000 0.0000 0.0000 12.4009 0.0000
# 6 0.0000 0.0000 0.0000 0.0000 0.0000 35.8265
#
#
#
# Elastic Compliance Matrix: (Units=1/GPa)
#
#
# Indices 1 2 3 4 5 6 
#
# 1 0.027679 -0.008558 -0.004216 0.000000 0.000000 0.000000
# 2 -0.008558 0.012658 -0.004261 0.000000 0.000000 0.000000
# 3 -0.004216 -0.004261 0.024689 0.000000 0.000000 0.000000
# 4 0.000000 0.000000 0.000000 0.032670 0.000000 0.000000
# 5 0.000000 0.000000 0.000000 0.000000 0.080640 0.000000
# 6 0.000000 0.000000 0.000000 0.000000 0.000000 0.027912
#
#
# Mechanical properties :
#
#
# Convention : Reuss Voigt Hill
#
# Bulk Modulus (GPa) = 32.30408 41.77661 37.04035
# Shear Modulus (GPa) = 19.94913 24.53801 22.24357
#
# Velocity S-wave (km/s) = 3.18336 3.53056 3.36145
# Velocity P-wave (km/s) = 5.47007 6.15155 5.82079
#
# Compressibility (1/GPa) = 0.03095584
#
# Stress axis : x y z
#
# Youngs Moduli (GPa) = 36.12869 79.00004 40.50355
#
# Poissons Ratio (x) = 0.67610 0.17075
# Poissons Ratio (y) = 0.30920 0.17260
# Poissons Ratio (z) = 0.15231 0.33665
#
# Static dielectric constant tensor:
#      x y z
#    x 1.692980 0.000000 0.000000 
#    y 0.000000 1.802730 0.000000 
#    z 0.000000 0.000000 1.765740 
# 
# From -- ./inp_files/12871.got.cif
#   From: 2010.05.17/outbox.cif.g08.bks.cpg/sg24_7_cif.got.tgz:12871.got - 2010.06.04 00:33:39.
