data_PCOD9334985
_publ_section_title
;
Structure prediction by ZEFSAII (Michael W. Deem and Ramdas Pophale) SiO2 
 PCOD9334985
Probable space group: I 21 21 21
;
_chemical_formula_sum "Si O2"
_cell_formula_units_Z 48
_cell_length_a 18.449854
_cell_length_b 9.150913
_cell_length_c 13.927662
_cell_angle_alpha 90.000000
_cell_angle_beta 90.000000
_cell_angle_gamma 90.000000
_cell_volume 2351.449081
_symmetry_space_group_name_H-M "I 21 21 21"
_symmetry_group_IT_number 24
_symmetry_cell_setting 'orthorhombic'
loop_
_space_group_symop_operation_xyz
x,y,z
-x,1/2-y,z
x,-y,1/2-z
1/2-x,y,-z
1/2+x,1/2+y,1/2+z
1/2-x,-y,1/2+z
1/2+x,1/2-y,-z
-x,1/2+y,1/2-z
loop_
_atom_site_type_symbol
_atom_site_label
_atom_site_fract_x
_atom_site_fract_y
_atom_site_fract_z
Si Si1 0.333180 0.331035 0.867136
Si Si2 0.162751 0.613498 0.661564
Si Si3 0.929182 0.668773 0.224261
Si Si4 0.919930 0.683444 0.543313
Si Si5 0.664234 0.087482 0.508670
Si Si6 0.432170 0.155424 0.495080
O O1 0.246035 0.338262 0.858334
O O2 0.363979 0.260513 0.770448
O O3 0.366031 0.233600 0.955274
O O4 0.356595 0.498635 0.894242
O O5 0.161130 0.500000 0.750000
O O6 0.113277 0.756372 0.644160
O O7 0.133771 0.514837 0.574327
O O8 0.923681 0.500000 0.250000
O O9 0.937091 0.661354 0.110426
O O10 0.000000 0.750000 0.265148
O O11 0.927234 0.508616 0.540952
O O12 0.000000 0.750000 0.527066
O O13 0.750000 0.081941 0.500000
O O14 0.639135 0.247952 0.482750
O O15 0.500000 0.250000 0.456750
#
# Coordination Sequence:
#
# PCOD9334985 Si02
#       6
#     8   8   8   8   8   8
#     4  10  21  39  63  91 134 173 214 268 334 401
#     4  10  23  43  67  92 123 173 226 276 338 394
#     4  11  24  35  58  97 135 173 214 261 325 403
#     4  11  22  43  68  93 129 179 221 274 337 400
#     4   9  21  38  60  87 119 168 213 262 325 390
#     4  11  23  37  61  96 132 169 217 270 328 402
#
# _framework density 20.412946000000002
#
# number of rings (size 3 to 8) (size 9 to 14) (size 15 to 20)
#    0.000    1.667    1.667    4.000    9.333    1.333 
#    0.000    3.333    0.000    0.000    0.000    0.000 
#    0.000    0.000    0.000    0.000    0.000    0.000 
#
# Total GULP energy -133647.929086 kJ/mol
# GULP energy per Si atom -5568.663712 kJ/mol
# Density = 2.036649 g / cm^3
# Si number density = 20.412946 Si / 1000 Ang^3
#
#
#
# Elastic Constant Matrix: (Units=GPa)
#
#
# Indices 1 2 3 4 5 6 
#
# 1 63.5028 62.2346 33.6355 0.0000 0.0000 0.0000
# 2 62.2346 193.7894 45.3495 0.0000 0.0000 0.0000
# 3 33.6355 45.3495 42.7041 0.0000 0.0000 0.0000
# 4 0.0000 0.0000 0.0000 28.4000 0.0000 0.0000
# 5 0.0000 0.0000 0.0000 0.0000 -27.2922 0.0000
# 6 0.0000 0.0000 0.0000 0.0000 0.0000 45.8171
#
#
#
# Elastic Compliance Matrix: (Units=1/GPa)
#
#
# Indices 1 2 3 4 5 6 
#
# 1 0.031073 -0.005658 -0.018466 0.000000 0.000000 0.000000
# 2 -0.005658 0.007897 -0.003930 0.000000 0.000000 0.000000
# 3 -0.018466 -0.003930 0.042135 0.000000 0.000000 0.000000
# 4 0.000000 0.000000 0.000000 0.035211 0.000000 0.000000
# 5 0.000000 0.000000 0.000000 0.000000 -0.036641 0.000000
# 6 0.000000 0.000000 0.000000 0.000000 0.000000 0.021826
#
#
# Mechanical properties :
#
#
# Convention : Reuss Voigt Hill
#
# Bulk Modulus (GPa) = 40.00415 64.71505 52.35960
# Shear Modulus (GPa) = 30.13113 19.97011 25.05062
#
# Velocity S-wave (km/s) = 3.84615 3.13118 3.50693
# Velocity P-wave (km/s) = 6.27406 6.69658 6.48876
#
# Compressibility (1/GPa) = 0.02499740
#
# Stress axis : x y z
#
# Youngs Moduli (GPa) = 32.18231 126.63385 23.73319
#
# Poissons Ratio (x) = 0.71644 0.43826
# Poissons Ratio (y) = 0.18207 0.09327
# Poissons Ratio (z) = 0.59429 0.49765
#
# Static dielectric constant tensor:
#      x y z
#    x 1.775010 0.000000 0.000000 
#    y 0.000000 1.933930 0.000000 
#    z 0.000000 0.000000 1.710320 
# 
# From -- ./inp_files/27030.got.cif
#   From: 2010.05.17/outbox.cif.g08.bks.cpg/sg24_14_cif.got.tgz:27030.got - 2010.06.04 00:33:39.
