data_PCOD9334182
_publ_section_title
;
Structure prediction by ZEFSAII (Michael W. Deem and Ramdas Pophale) SiO2 
 PCOD9334182
Probable space group: I 21 21 21
;
_chemical_formula_sum "Si O2"
_cell_formula_units_Z 64
_cell_length_a 36.357730
_cell_length_b 8.037269
_cell_length_c 12.259246
_cell_angle_alpha 90.000000
_cell_angle_beta 90.000000
_cell_angle_gamma 90.000000
_cell_volume 3582.358326
_symmetry_space_group_name_H-M "I 21 21 21"
_symmetry_group_IT_number 24
_symmetry_cell_setting 'orthorhombic'
loop_
_space_group_symop_operation_xyz
x,y,z
-x,1/2-y,z
x,-y,1/2-z
1/2-x,y,-z
1/2+x,1/2+y,1/2+z
1/2-x,-y,1/2+z
1/2+x,1/2-y,-z
-x,1/2+y,1/2-z
loop_
_atom_site_type_symbol
_atom_site_label
_atom_site_fract_x
_atom_site_fract_y
_atom_site_fract_z
Si Si1 0.273970 1.000000 0.885113
Si Si2 0.826946 0.183948 0.120887
Si Si3 0.457114 0.698764 0.750000
Si Si4 0.594549 0.301477 0.550057
Si Si5 0.539199 0.299714 0.373319
Si Si6 0.905452 0.698523 0.449942
Si Si7 0.826946 0.816053 0.120886
Si Si8 0.039199 0.200286 0.873319
O O1 0.298716 0.834120 0.896515
O O2 0.261543 0.000000 0.750000
O O3 0.298717 0.165878 0.896514
O O4 0.250000 0.000001 0.000000
O O5 0.866201 0.217765 0.066227
O O6 0.834699 0.183221 0.250001
O O7 0.812835 0.000001 0.090151
O O8 0.500000 0.750000 0.750001
O O9 0.455414 0.500000 0.750000
O O10 0.434232 0.765180 0.853301
O O11 0.434233 0.765181 0.646699
O O12 0.573689 0.241969 0.442185
O O13 0.600567 0.500000 0.545912
O O14 0.633800 0.217765 0.566225
O O15 0.500000 0.250000 0.423554
O O16 0.540264 0.500000 0.370855
O O17 0.540079 0.234934 0.250000
O O18 0.926311 0.758031 0.557815
O O19 0.000000 0.250000 0.923554
#
# Coordination Sequence:
#
# PCOD9334182 Si02
#       8
#     8   8   8   8   8   8   8   8
#     4  10  22  42  68  96 126 160 198 240 306 368
#     4  10  20  36  60  90 120 155 194 236 289 359
#     4  12  24  34  46  74 112 150 192 245 299 338
#     4  11  20  33  54  78 108 145 190 240 289 345
#     4   9  19  34  50  69  98 141 191 241 292 343
#     4  11  20  33  54  78 108 145 190 240 289 345
#     4  10  20  36  60  90 120 155 194 236 289 359
#     4   9  19  34  50  69  98 141 191 241 292 343
#
# _framework density 17.865327000000001
#
# number of rings (size 3 to 8) (size 9 to 14) (size 15 to 20)
#    0.000    1.750    2.500    2.625    0.000    4.500 
#    0.000    1.250    0.000    1.500    0.000    0.000 
#    0.000    0.000    0.000    0.000    0.000    0.000 
#
# Total GULP energy -178301.990886 kJ/mol
# GULP energy per Si atom -5571.937215 kJ/mol
# Density = 1.782466 g / cm^3
# Si number density = 17.865327 Si / 1000 Ang^3
#
#
#
# Elastic Constant Matrix: (Units=GPa)
#
#
# Indices 1 2 3 4 5 6 
#
# 1 87.0442 38.6709 53.2925 0.0000 0.0000 0.0000
# 2 38.6709 94.8584 24.7595 0.0000 0.0000 0.0000
# 3 53.2925 24.7595 79.4968 0.0000 0.0000 0.0000
# 4 0.0000 0.0000 0.0000 76.0128 0.0000 0.0000
# 5 0.0000 0.0000 0.0000 0.0000 121.4956 0.0000
# 6 0.0000 0.0000 0.0000 0.0000 0.0000 18.4251
#
#
#
# Elastic Compliance Matrix: (Units=1/GPa)
#
#
# Indices 1 2 3 4 5 6 
#
# 1 0.021869 -0.005539 -0.012935 0.000000 0.000000 0.000000
# 2 -0.005539 0.012878 -0.000298 0.000000 0.000000 0.000000
# 3 -0.012935 -0.000298 0.021343 0.000000 0.000000 0.000000
# 4 0.000000 0.000000 0.000000 0.013156 0.000000 0.000000
# 5 0.000000 0.000000 0.000000 0.000000 0.008231 0.000000
# 6 0.000000 0.000000 0.000000 0.000000 0.000000 0.054274
#
#
# Mechanical properties :
#
#
# Convention : Reuss Voigt Hill
#
# Bulk Modulus (GPa) = 53.91918 54.98281 54.45100
# Shear Modulus (GPa) = 28.49409 52.83180 40.66295
#
# Velocity S-wave (km/s) = 3.99800 5.44394 4.77601
# Velocity P-wave (km/s) = 7.18042 8.38799 7.80759
#
# Compressibility (1/GPa) = 0.01854628
#
# Stress axis : x y z
#
# Youngs Moduli (GPa) = 45.72772 77.65313 46.85355
#
# Poissons Ratio (x) = 0.43012 0.60605
# Poissons Ratio (y) = 0.25328 0.01395
# Poissons Ratio (z) = 0.59149 0.02312
#
# Static dielectric constant tensor:
#      x y z
#    x 1.596720 0.000000 0.000000 
#    y 0.000000 1.631280 0.000000 
#    z 0.000000 0.000000 1.653220 
# 
# From -- ./inp_files/23199.got.cif
#   From: 2010.05.17/outbox.cif.g08.bks.cpg/sg24_12_cif.got.tgz:23199.got - 2010.06.04 00:33:39.
