data_PCOD9334398
_publ_section_title
;
Structure prediction by ZEFSAII (Michael W. Deem and Ramdas Pophale) SiO2 
 PCOD9334398
Probable space group: I 21 21 21
;
_chemical_formula_sum "Si O2"
_cell_formula_units_Z 40
_cell_length_a 6.648042
_cell_length_b 12.873009
_cell_length_c 17.487993
_cell_angle_alpha 90.000000
_cell_angle_beta 90.000000
_cell_angle_gamma 90.000000
_cell_volume 1496.627766
_symmetry_space_group_name_H-M "I 21 21 21"
_symmetry_group_IT_number 24
_symmetry_cell_setting 'orthorhombic'
loop_
_space_group_symop_operation_xyz
x,y,z
-x,1/2-y,z
x,-y,1/2-z
1/2-x,y,-z
1/2+x,1/2+y,1/2+z
1/2-x,-y,1/2+z
1/2+x,1/2-y,-z
-x,1/2+y,1/2-z
loop_
_atom_site_type_symbol
_atom_site_label
_atom_site_fract_x
_atom_site_fract_y
_atom_site_fract_z
Si Si1 0.065866 0.138035 0.443297
Si Si2 0.231881 0.281483 0.084635
Si Si3 0.389599 0.854806 0.173108
Si Si4 0.642373 0.418471 0.153792
Si Si5 0.618271 0.978401 0.659869
O O1 0.250000 0.098951 0.500000
O O2 0.171540 0.162289 0.362190
O O3 0.000000 0.250000 0.475562
O O4 0.889936 0.061208 0.412056
O O5 0.358357 0.175411 0.093806
O O6 0.255623 0.378322 0.140892
O O7 0.000000 0.250000 0.096308
O O8 0.250000 0.322855 0.000000
O O9 0.500000 0.750000 0.152300
O O10 0.393801 0.869817 0.263281
O O11 0.459000 0.968354 0.142629
O O12 0.881018 0.448084 0.158223
O O13 0.659904 0.000000 0.750000
#
# Coordination Sequence:
#
# PCOD9334398 Si02
#       5
#     8   8   8   8   8
#     4  11  24  41  65  95 137 179 232 289 350 417
#     4  10  23  40  69 102 137 182 232 291 360 412
#     4  10  20  38  64  94 132 179 229 276 350 425
#     4   9  19  39  63  95 135 175 225 285 350 410
#     4  10  20  40  70  99 129 183 234 290 343 419
#
# _framework density 26.726752000000001
#
# number of rings (size 3 to 8) (size 9 to 14) (size 15 to 20)
#    0.000    2.000    4.000    0.600    2.800    8.800 
#    0.000    8.000    0.000    0.000    0.000    0.000 
#    0.000    0.000    0.000    0.000    0.000    0.000 
#
# Total GULP energy -111667.240250 kJ/mol
# GULP energy per Si atom -5583.362013 kJ/mol
# Density = 2.666592 g / cm^3
# Si number density = 26.726752 Si / 1000 Ang^3
#
#
#
# Elastic Constant Matrix: (Units=GPa)
#
#
# Indices 1 2 3 4 5 6 
#
# 1 43.5453 40.6971 12.1767 0.0000 0.0000 0.0000
# 2 40.6971 190.4016 63.2442 0.0000 0.0000 0.0000
# 3 12.1767 63.2442 143.5368 0.0000 0.0000 0.0000
# 4 0.0000 0.0000 0.0000 38.2735 0.0000 0.0000
# 5 0.0000 0.0000 0.0000 0.0000 35.4565 0.0000
# 6 0.0000 0.0000 0.0000 0.0000 0.0000 68.5489
#
#
#
# Elastic Compliance Matrix: (Units=1/GPa)
#
#
# Indices 1 2 3 4 5 6 
#
# 1 0.028709 -0.006241 0.000314 0.000000 0.000000 0.000000
# 2 -0.006241 0.007509 -0.002779 0.000000 0.000000 0.000000
# 3 0.000314 -0.002779 0.008165 0.000000 0.000000 0.000000
# 4 0.000000 0.000000 0.000000 0.026128 0.000000 0.000000
# 5 0.000000 0.000000 0.000000 0.000000 0.028204 0.000000
# 6 0.000000 0.000000 0.000000 0.000000 0.000000 0.014588
#
#
# Mechanical properties :
#
#
# Convention : Reuss Voigt Hill
#
# Bulk Modulus (GPa) = 37.07583 67.74666 52.41124
# Shear Modulus (GPa) = 35.78976 45.88016 40.83496
#
# Velocity S-wave (km/s) = 3.66334 4.14773 3.91304
# Velocity P-wave (km/s) = 5.63877 6.95278 6.32996
#
# Compressibility (1/GPa) = 0.02697175
#
# Stress axis : x y z
#
# Youngs Moduli (GPa) = 34.83183 133.17108 122.47785
#
# Poissons Ratio (x) = 0.83110 -0.03849
# Poissons Ratio (y) = 0.21738 0.34039
# Poissons Ratio (z) = -0.01095 0.37011
#
# Static dielectric constant tensor:
#      x y z
#    x 2.402120 0.000000 0.000000 
#    y 0.000000 2.167810 0.000000 
#    z 0.000000 0.000000 2.013140 
# 
# From -- ./inp_files/29264.got.cif
#   From: 2010.05.17/outbox.cif.g08.bks.cpg/sg24_15_cif.got.tgz:29264.got - 2010.06.04 00:33:39.
