data_PCOD9334268
_publ_section_title
;
Structure prediction by ZEFSAII (Michael W. Deem and Ramdas Pophale) SiO2 
 PCOD9334268
Probable space group: I 21 21 21
;
_chemical_formula_sum "Si O2"
_cell_formula_units_Z 32
_cell_length_a 4.955906
_cell_length_b 11.741385
_cell_length_c 21.857885
_cell_angle_alpha 90.000000
_cell_angle_beta 90.000000
_cell_angle_gamma 90.000000
_cell_volume 1271.892850
_symmetry_space_group_name_H-M "I 21 21 21"
_symmetry_group_IT_number 24
_symmetry_cell_setting 'orthorhombic'
loop_
_space_group_symop_operation_xyz
x,y,z
-x,1/2-y,z
x,-y,1/2-z
1/2-x,y,-z
1/2+x,1/2+y,1/2+z
1/2-x,-y,1/2+z
1/2+x,1/2-y,-z
-x,1/2+y,1/2-z
loop_
_atom_site_type_symbol
_atom_site_label
_atom_site_fract_x
_atom_site_fract_y
_atom_site_fract_z
Si Si1 0.500000 0.250000 0.750602
Si Si2 0.300720 0.563289 0.655596
Si Si3 0.294618 0.936950 0.187247
Si Si4 0.000000 0.750000 0.954824
Si Si5 0.500776 0.497425 0.045033
O O1 0.344185 0.332900 0.798330
O O2 0.706075 0.311038 0.704113
O O3 0.588856 0.503448 0.640835
O O4 0.118627 0.589369 0.595614
O O5 0.107678 0.467146 0.684237
O O6 0.203763 0.000000 0.250000
O O7 0.031165 0.874354 0.923843
O O8 0.750000 0.753364 0.000000
O O9 0.250000 0.511667 0.000000
O O10 0.750000 0.470685 0.000000
#
# Coordination Sequence:
#
# PCOD9334268 Si02
#       5
#     4   8   8   4   8
#     4  10  24  44  69 100 144 182 227 302 364 424
#     4  11  23  40  66  98 133 182 229 280 356 422
#     4  10  22  39  61  94 130 172 227 280 342 422
#     4   8  16  30  51  78 118 166 203 256 322 364
#     4  10  20  37  60  93 136 175 223 280 332 409
#
# _framework density 25.159354
#
# number of rings (size 3 to 8) (size 9 to 14) (size 15 to 20)
#    0.000    2.000    0.000    3.750    0.000   11.000 
#    0.000    2.500    0.000    7.500    0.000    0.000 
#    0.000    0.000    0.000    0.000    0.000    0.000 
#
# Total GULP energy -89154.651517 kJ/mol
# GULP energy per Si atom -5572.165720 kJ/mol
# Density = 2.510209 g / cm^3
# Si number density = 25.159354 Si / 1000 Ang^3
#
#
#
# Elastic Constant Matrix: (Units=GPa)
#
#
# Indices 1 2 3 4 5 6 
#
# 1 155.3293 25.5861 -10.1892 0.0000 0.0000 0.0000
# 2 25.5861 53.9339 0.3111 0.0000 0.0000 0.0000
# 3 -10.1892 0.3111 48.7197 0.0000 0.0000 0.0000
# 4 0.0000 0.0000 0.0000 30.9107 0.0000 0.0000
# 5 0.0000 0.0000 0.0000 0.0000 25.5525 0.0000
# 6 0.0000 0.0000 0.0000 0.0000 0.0000 23.4123
#
#
#
# Elastic Compliance Matrix: (Units=1/GPa)
#
#
# Indices 1 2 3 4 5 6 
#
# 1 0.007092 -0.003373 0.001505 0.000000 0.000000 0.000000
# 2 -0.003373 0.020146 -0.000834 0.000000 0.000000 0.000000
# 3 0.001505 -0.000834 0.020846 0.000000 0.000000 0.000000
# 4 0.000000 0.000000 0.000000 0.032351 0.000000 0.000000
# 5 0.000000 0.000000 0.000000 0.000000 0.039135 0.000000
# 6 0.000000 0.000000 0.000000 0.000000 0.000000 0.042713
#
#
# Mechanical properties :
#
#
# Convention : Reuss Voigt Hill
#
# Bulk Modulus (GPa) = 23.43067 32.15543 27.79305
# Shear Modulus (GPa) = 27.48542 32.12676 29.80609
#
# Velocity S-wave (km/s) = 3.30881 3.57729 3.44567
# Velocity P-wave (km/s) = 4.89191 5.46545 5.18662
#
# Compressibility (1/GPa) = 0.04267910
#
# Stress axis : x y z
#
# Youngs Moduli (GPa) = 140.99811 49.63694 47.97170
#
# Poissons Ratio (x) = 0.16744 -0.07219
# Poissons Ratio (y) = 0.47562 0.04001
# Poissons Ratio (z) = -0.21218 0.04140
#
# Static dielectric constant tensor:
#      x y z
#    x 1.962520 0.000000 0.000000 
#    y 0.000000 2.093690 0.000000 
#    z 0.000000 0.000000 2.366030 
# 
# From -- ./inp_files/36307.got.cif
#   From: 2010.05.17/outbox.cif.g08.bks.cpg/sg24_19_cif.got.tgz:36307.got - 2010.06.04 00:33:39.
