data_PCOD9334206
_publ_section_title
;
Structure prediction by ZEFSAII (Michael W. Deem and Ramdas Pophale) SiO2 
 PCOD9334206
Probable space group: I 21 21 21
;
_chemical_formula_sum "Si O2"
_cell_formula_units_Z 32
_cell_length_a 5.004497
_cell_length_b 32.913720
_cell_length_c 8.137936
_cell_angle_alpha 90.000000
_cell_angle_beta 90.000000
_cell_angle_gamma 90.000000
_cell_volume 1340.453255
_symmetry_space_group_name_H-M "I 21 21 21"
_symmetry_group_IT_number 24
_symmetry_cell_setting 'orthorhombic'
loop_
_space_group_symop_operation_xyz
x,y,z
-x,1/2-y,z
x,-y,1/2-z
1/2-x,y,-z
1/2+x,1/2+y,1/2+z
1/2-x,-y,1/2+z
1/2+x,1/2-y,-z
-x,1/2+y,1/2-z
loop_
_atom_site_type_symbol
_atom_site_label
_atom_site_fract_x
_atom_site_fract_y
_atom_site_fract_z
Si Si1 0.000000 0.250000 0.618636
Si Si2 0.139442 0.384901 0.213108
Si Si3 0.750000 0.057057 0.500000
Si Si4 0.563473 0.500000 0.250000
Si Si5 0.668318 0.336260 0.306675
Si Si6 0.750000 0.434989 0.000000
O O1 0.750000 0.240404 0.500000
O O2 0.932293 0.290585 0.717430
O O3 0.093283 0.413648 0.373590
O O4 0.439387 0.367923 0.247235
O O5 0.944187 0.346301 0.218076
O O6 0.005974 0.409145 0.059475
O O7 0.905741 0.026464 0.617569
O O8 0.711547 0.465419 0.150461
O O9 0.750000 0.339756 0.500000
#
# Coordination Sequence:
#
# PCOD9334206 Si02
#       6
#     4   8   4   4   8   4
#     4  10  20  36  64 106 150 184 238 298 364 434
#     4  12  25  42  72 103 149 189 248 305 373 443
#     4  12  24  44  72 102 136 196 240 318 376 442
#     4  12  26  48  70 100 144 188 248 310 374 450
#     4  11  21  41  68 108 146 193 237 306 367 439
#     4  12  28  46  70 108 142 204 244 318 372 454
#
# _framework density 23.872525
#
# number of rings (size 3 to 8) (size 9 to 14) (size 15 to 20)
#    0.000    0.500    2.500    7.500    0.000    3.000 
#    0.000    0.000    0.000    3.000    0.000    0.000 
#    0.000    0.000    0.000    0.000    0.000    0.000 
#
# Total GULP energy -89380.627786 kJ/mol
# GULP energy per Si atom -5586.289237 kJ/mol
# Density = 2.381819 g / cm^3
# Si number density = 23.872525 Si / 1000 Ang^3
#
#
#
# Elastic Constant Matrix: (Units=GPa)
#
#
# Indices 1 2 3 4 5 6 
#
# 1 123.7305 35.7217 40.7787 0.0000 0.0000 0.0000
# 2 35.7217 143.4330 55.4221 0.0000 0.0000 0.0000
# 3 40.7787 55.4221 100.9899 -0.0002 0.0000 0.0002
# 4 0.0000 0.0000 -0.0002 8.4873 0.0000 0.0000
# 5 0.0000 0.0000 0.0000 0.0000 45.3264 0.0000
# 6 0.0000 0.0000 0.0002 0.0000 0.0000 45.3899
#
#
#
# Elastic Compliance Matrix: (Units=1/GPa)
#
#
# Indices 1 2 3 4 5 6 
#
# 1 0.009462 -0.001117 -0.003208 0.000000 0.000000 0.000000
# 2 -0.001117 0.008980 -0.004477 0.000000 0.000000 0.000000
# 3 -0.003208 -0.004477 0.013654 0.000000 0.000000 0.000000
# 4 0.000000 0.000000 0.000000 0.117823 0.000000 0.000000
# 5 0.000000 0.000000 0.000000 0.000000 0.022062 0.000000
# 6 0.000000 0.000000 0.000000 0.000000 0.000000 0.022031
#
#
# Mechanical properties :
#
#
# Convention : Reuss Voigt Hill
#
# Bulk Modulus (GPa) = 69.00095 70.22203 69.61149
# Shear Modulus (GPa) = 23.10042 35.58946 29.34494
#
# Velocity S-wave (km/s) = 3.11409 3.86529 3.50985
# Velocity P-wave (km/s) = 6.47277 7.02851 6.75636
#
# Compressibility (1/GPa) = 0.01449255
#
# Stress axis : x y z
#
# Youngs Moduli (GPa) = 105.68919 111.35826 73.23799
#
# Poissons Ratio (x) = 0.12439 0.23491
# Poissons Ratio (y) = 0.11806 0.32789
# Poissons Ratio (z) = 0.33900 0.49856
#
# Static dielectric constant tensor:
#      x y z
#    x 1.995190 0.000000 0.000000 
#    y 0.000000 1.902470 0.000000 
#    z 0.000000 0.000000 2.006600 
# 
# From -- ./inp_files/1225.got.cif
#   From: 2010.05.17/outbox.cif.g08.bks.cpg/sg24_1_cif.got.tgz:1225.got - 2010.06.04 00:33:39.
