data_PCOD9334735
_publ_section_title
;
Structure prediction by ZEFSAII (Michael W. Deem and Ramdas Pophale) SiO2 
 PCOD9334735
Probable space group: I 21 21 21
;
_chemical_formula_sum "Si O2"
_cell_formula_units_Z 60
_cell_length_a 21.406655
_cell_length_b 5.284725
_cell_length_c 28.103251
_cell_angle_alpha 90.000000
_cell_angle_beta 90.000000
_cell_angle_gamma 90.000000
_cell_volume 3179.272584
_symmetry_space_group_name_H-M "I 21 21 21"
_symmetry_group_IT_number 24
_symmetry_cell_setting 'orthorhombic'
loop_
_space_group_symop_operation_xyz
x,y,z
-x,1/2-y,z
x,-y,1/2-z
1/2-x,y,-z
1/2+x,1/2+y,1/2+z
1/2-x,-y,1/2+z
1/2+x,1/2-y,-z
-x,1/2+y,1/2-z
loop_
_atom_site_type_symbol
_atom_site_label
_atom_site_fract_x
_atom_site_fract_y
_atom_site_fract_z
Si Si1 0.160643 0.120838 0.435584
Si Si2 0.932599 0.812896 0.814333
Si Si3 0.672434 0.943256 0.023666
Si Si4 0.897142 0.583042 0.909450
Si Si5 0.830460 0.787406 0.658680
Si Si6 0.275699 0.395826 0.905555
Si Si7 0.431032 0.843674 0.507401
Si Si8 0.339952 0.000000 0.250000
O O1 0.183924 0.205221 0.488677
O O2 0.173973 0.376921 0.406587
O O3 0.194923 0.883361 0.410984
O O4 0.091672 0.031915 0.450990
O O5 0.936574 0.659573 0.863828
O O6 0.883307 0.695463 0.778157
O O7 0.000000 0.750000 0.791977
O O8 0.896557 0.072927 0.828801
O O9 0.635601 0.827855 0.068642
O O10 0.732861 0.067518 0.047244
O O11 0.624349 0.133953 0.997668
O O12 0.846295 0.399508 0.885338
O O13 0.932242 0.464043 0.954303
O O14 0.771345 0.938510 0.638514
O O15 0.808120 0.646726 0.706573
O O16 0.500000 0.750000 0.517667
#
# Coordination Sequence:
#
# PCOD9334735 Si02
#       8
#     8   8   8   8   8   8   8   4
#     4  11  26  37  60  87 112 158 198 252 307 356
#     4  11  24  38  58  77 109 148 203 261 313 367
#     4  11  22  37  56  84 116 155 194 260 300 350
#     4  10  21  34  55  82 105 150 199 248 317 346
#     4  11  23  41  58  82 109 149 195 270 317 380
#     4  12  23  38  63  84 116 144 208 255 308 365
#     4  11  24  39  56  83 122 159 205 251 309 360
#     4  10  26  40  58  80 108 144 204 244 348 368
#
# _framework density 18.872240000000001
#
# number of rings (size 3 to 8) (size 9 to 14) (size 15 to 20)
#    0.000    1.067    4.000    1.600   11.200    2.667 
#    0.000    0.000    0.000    0.000    0.000    0.000 
#    0.000    0.000    0.000    0.000   10.133    5.467 
#
# Total GULP energy -167127.648975 kJ/mol
# GULP energy per Si atom -5570.921632 kJ/mol
# Density = 1.882929 g / cm^3
# Si number density = 18.872240 Si / 1000 Ang^3
#
#
#
# Elastic Constant Matrix: (Units=GPa)
#
#
# Indices 1 2 3 4 5 6 
#
# 1 56.2619 18.3568 21.8997 0.0000 0.0000 0.0000
# 2 18.3568 82.6437 17.7246 0.0000 0.0000 0.0000
# 3 21.8997 17.7246 62.6685 0.0000 0.0000 0.0000
# 4 0.0000 0.0000 0.0000 31.9762 0.0000 0.0000
# 5 0.0000 0.0000 0.0000 0.0000 -6.9928 0.0000
# 6 0.0000 0.0000 0.0000 0.0000 0.0000 12.5309
#
#
#
# Elastic Compliance Matrix: (Units=1/GPa)
#
#
# Indices 1 2 3 4 5 6 
#
# 1 0.021412 -0.003355 -0.006534 0.000000 0.000000 0.000000
# 2 -0.003355 0.013407 -0.002620 0.000000 0.000000 0.000000
# 3 -0.006534 -0.002620 0.018981 0.000000 0.000000 0.000000
# 4 0.000000 0.000000 0.000000 0.031273 0.000000 0.000000
# 5 0.000000 0.000000 0.000000 0.000000 -0.143004 0.000000
# 6 0.000000 0.000000 0.000000 0.000000 0.000000 0.079803
#
#
# Mechanical properties :
#
#
# Convention : Reuss Voigt Hill
#
# Bulk Modulus (GPa) = 34.74144 35.28181 35.01162
# Shear Modulus (GPa) = 88.52356 17.07573 52.79965
#
# Velocity S-wave (km/s) = 6.85628 3.01126 5.29511
# Velocity P-wave (km/s) = 9.00704 5.55211 7.48174
#
# Compressibility (1/GPa) = 0.02878407
#
# Stress axis : x y z
#
# Youngs Moduli (GPa) = 46.70339 74.58726 52.68412
#
# Poissons Ratio (x) = 0.25022 0.34422
# Poissons Ratio (y) = 0.15668 0.13801
# Poissons Ratio (z) = 0.30514 0.19539
#
# Static dielectric constant tensor:
#      x y z
#    x 1.731680 0.000000 0.000000 
#    y 0.000000 1.801820 0.000000 
#    z 0.000000 0.000000 1.678340 
# 
# From -- ./inp_files/37601.got.cif
#   From: 2010.05.17/outbox.cif.g08.bks.cpg/sg24_19_cif.got.tgz:37601.got - 2010.06.04 00:33:39.
