data_PCOD9334081
_publ_section_title
;
Structure prediction by ZEFSAII (Michael W. Deem and Ramdas Pophale) SiO2 
 PCOD9334081
Probable space group: I 21 21 21
;
_chemical_formula_sum "Si O2"
_cell_formula_units_Z 48
_cell_length_a 28.664191
_cell_length_b 8.887805
_cell_length_c 10.446757
_cell_angle_alpha 90.000000
_cell_angle_beta 90.000000
_cell_angle_gamma 90.000000
_cell_volume 2661.433992
_symmetry_space_group_name_H-M "I 21 21 21"
_symmetry_group_IT_number 24
_symmetry_cell_setting 'orthorhombic'
loop_
_space_group_symop_operation_xyz
x,y,z
-x,1/2-y,z
x,-y,1/2-z
1/2-x,y,-z
1/2+x,1/2+y,1/2+z
1/2-x,-y,1/2+z
1/2+x,1/2-y,-z
-x,1/2+y,1/2-z
loop_
_atom_site_type_symbol
_atom_site_label
_atom_site_fract_x
_atom_site_fract_y
_atom_site_fract_z
Si Si1 0.950137 0.320905 0.902400
Si Si2 0.144421 0.320335 0.987121
Si Si3 0.198352 0.679016 0.250000
Si Si4 0.450137 0.179095 0.402400
Si Si5 0.355579 0.679665 0.012880
Si Si6 0.200098 0.179312 0.750000
O O1 0.907380 0.246300 0.976496
O O2 0.950819 0.500000 0.921278
O O3 0.942722 0.292599 0.750000
O O4 0.000000 0.250000 0.936748
O O5 0.174892 0.246672 0.874674
O O6 0.168526 0.289216 0.123055
O O7 0.142895 0.500000 0.968466
O O8 0.209742 0.500000 0.250000
O O9 0.168526 0.710784 0.123054
O O10 0.246184 0.770700 0.250000
O O11 0.500000 0.250000 0.436748
O O12 0.407380 0.253700 0.476496
O O13 0.325109 0.753327 0.125328
O O14 0.195428 0.000000 0.750000
#
# Coordination Sequence:
#
# PCOD9334081 Si02
#       6
#     8   8   8   8   8   8
#     4  10  20  35  58  88 119 149 190 238 286 341
#     4  11  22  39  62  86 117 154 194 240 290 342
#     4  10  24  42  59  84 117 156 197 238 289 346
#     4  10  20  35  58  88 119 149 190 238 286 341
#     4  11  22  39  62  86 117 154 194 240 290 342
#     4  12  24  38  59  88 117 152 198 242 287 342
#
# _framework density 18.035391000000001
#
# number of rings (size 3 to 8) (size 9 to 14) (size 15 to 20)
#    0.000    1.333    1.667    4.500    0.000    8.000 
#    0.000    0.833    0.000    0.000    0.000    0.000 
#    0.000    0.000    0.000    0.000    0.000    0.000 
#
# Total GULP energy -134203.755811 kJ/mol
# GULP energy per Si atom -5591.823159 kJ/mol
# Density = 1.799434 g / cm^3
# Si number density = 18.035391 Si / 1000 Ang^3
#
#
#
# Elastic Constant Matrix: (Units=GPa)
#
#
# Indices 1 2 3 4 5 6 
#
# 1 175.0308 90.7776 77.6562 0.0000 0.0000 0.0000
# 2 90.7776 99.3132 77.1931 0.0000 0.0000 0.0000
# 3 77.6562 77.1931 127.6547 0.0000 0.0000 0.0000
# 4 0.0000 0.0000 0.0000 0.0128 0.0000 0.0000
# 5 0.0000 0.0000 0.0000 0.0000 -18.2933 0.0000
# 6 0.0000 0.0000 0.0000 0.0000 0.0000 41.3235
#
#
#
# Elastic Compliance Matrix: (Units=1/GPa)
#
#
# Indices 1 2 3 4 5 6 
#
# 1 0.010952 -0.009117 -0.001149 0.000000 0.000000 0.000000
# 2 -0.009117 0.026589 -0.010532 0.000000 0.000000 0.000000
# 3 -0.001149 -0.010532 0.014901 0.000000 0.000000 0.000000
# 4 0.000000 0.000000 0.000000 77.933709 0.000000 0.000000
# 5 0.000000 0.000000 0.000000 0.000000 -0.054665 0.000000
# 6 0.000000 0.000000 0.000000 0.000000 0.000000 0.024199
#
#
# Mechanical properties :
#
#
# Convention : Reuss Voigt Hill
#
# Bulk Modulus (GPa) = 92.20577 99.25028 95.72803
# Shear Modulus (GPa) = 0.06410 15.03339 7.54875
#
# Velocity S-wave (km/s) = 0.18873 2.89026 2.04807
# Velocity P-wave (km/s) = 7.16124 8.14177 7.66720
#
# Compressibility (1/GPa) = 0.01084531
#
# Stress axis : x y z
#
# Youngs Moduli (GPa) = 91.31060 37.60911 67.10758
#
# Poissons Ratio (x) = 0.34290 0.07710
# Poissons Ratio (y) = 0.83251 0.70679
# Poissons Ratio (z) = 0.10491 0.39611
#
# Static dielectric constant tensor:
#      x y z
#    x 1.594420 0.000000 0.000000 
#    y 0.000000 1.599340 0.000000 
#    z 0.000000 0.000000 1.590820 
# 
# From -- ./inp_files/11280.got.cif
#   From: 2010.05.17/outbox.cif.g08.bks.cpg/sg24_6_cif.got.tgz:11280.got - 2010.06.04 00:33:39.
