data_PCOD9334773
_publ_section_title
;
Structure prediction by ZEFSAII (Michael W. Deem and Ramdas Pophale) SiO2 
 PCOD9334773
Probable space group: I 21 21 21
;
_chemical_formula_sum "Si O2"
_cell_formula_units_Z 32
_cell_length_a 7.656652
_cell_length_b 5.160838
_cell_length_c 36.738873
_cell_angle_alpha 90.000000
_cell_angle_beta 90.000000
_cell_angle_gamma 90.000000
_cell_volume 1451.727036
_symmetry_space_group_name_H-M "I 21 21 21"
_symmetry_group_IT_number 24
_symmetry_cell_setting 'orthorhombic'
loop_
_space_group_symop_operation_xyz
x,y,z
-x,1/2-y,z
x,-y,1/2-z
1/2-x,y,-z
1/2+x,1/2+y,1/2+z
1/2-x,-y,1/2+z
1/2+x,1/2-y,-z
-x,1/2+y,1/2-z
loop_
_atom_site_type_symbol
_atom_site_label
_atom_site_fract_x
_atom_site_fract_y
_atom_site_fract_z
Si Si1 0.790396 0.253062 0.729097
Si Si2 0.790827 0.245749 0.355577
Si Si3 0.287950 0.250896 0.898672
Si Si4 0.609689 0.008861 0.029911
O O1 0.718524 0.500000 0.750000
O O2 0.755427 0.278464 0.686387
O O3 0.000000 0.250000 0.732958
O O4 0.723332 0.000000 0.750000
O O5 0.730410 0.471953 0.383148
O O6 0.000000 0.250000 0.358017
O O7 0.734880 0.963702 0.368808
O O8 0.500000 0.250000 0.902754
O O9 0.202118 0.355412 0.935535
O O10 0.500000 0.250000 0.013561
O O11 0.500000 0.750000 0.039312
O O12 0.750000 0.924237 0.000000
#
# Coordination Sequence:
#
# PCOD9334773 Si02
#       4
#     8   8   8   8
#     4  10  21  36  54  80 116 157 200 251 309 367
#     4  10  21  37  60  88 118 158 204 255 313 372
#     4  10  22  41  63  90 126 162 204 259 318 377
#     4  12  26  44  68  98 130 169 215 263 322 384
#
# _framework density 22.042712000000002
#
# number of rings (size 3 to 8) (size 9 to 14) (size 15 to 20)
#    0.000    1.500    0.000    4.500    0.000    7.000 
#    0.000    0.000    0.000    0.000    0.000    0.000 
#    0.000    0.000    0.000    0.000    0.000    0.000 
#
# Total GULP energy -89432.932791 kJ/mol
# GULP energy per Si atom -5589.558299 kJ/mol
# Density = 2.199254 g / cm^3
# Si number density = 22.042712 Si / 1000 Ang^3
#
#
#
# Elastic Constant Matrix: (Units=GPa)
#
#
# Indices 1 2 3 4 5 6 
#
# 1 53.2183 45.9125 33.2156 0.0000 0.0000 0.0000
# 2 45.9125 170.6478 50.2133 0.0000 0.0000 0.0000
# 3 33.2156 50.2133 135.0221 0.0000 0.0000 0.0000
# 4 0.0000 0.0000 0.0000 39.2808 0.0000 0.0000
# 5 0.0000 0.0000 0.0000 0.0000 34.6264 0.0000
# 6 0.0000 0.0000 0.0000 0.0000 0.0000 11.6671
#
#
#
# Elastic Compliance Matrix: (Units=1/GPa)
#
#
# Indices 1 2 3 4 5 6 
#
# 1 0.026570 -0.005867 -0.004354 0.000000 0.000000 0.000000
# 2 -0.005867 0.007876 -0.001486 0.000000 0.000000 0.000000
# 3 -0.004354 -0.001486 0.009030 0.000000 0.000000 0.000000
# 4 0.000000 0.000000 0.000000 0.025458 0.000000 0.000000
# 5 0.000000 0.000000 0.000000 0.000000 0.028880 0.000000
# 6 0.000000 0.000000 0.000000 0.000000 0.000000 0.085711
#
#
# Mechanical properties :
#
#
# Convention : Reuss Voigt Hill
#
# Bulk Modulus (GPa) = 49.84723 68.61901 59.23312
# Shear Modulus (GPa) = 23.40545 32.41798 27.91172
#
# Velocity S-wave (km/s) = 3.26210 3.83912 3.56231
# Velocity P-wave (km/s) = 6.07053 7.13087 6.62196
#
# Compressibility (1/GPa) = 0.02006129
#
# Stress axis : x y z
#
# Youngs Moduli (GPa) = 37.63630 126.97197 110.74444
#
# Poissons Ratio (x) = 0.74499 0.48221
# Poissons Ratio (y) = 0.22083 0.16451
# Poissons Ratio (z) = 0.16388 0.18862
#
# Static dielectric constant tensor:
#      x y z
#    x 1.855740 0.000000 0.000000 
#    y 0.000000 1.792380 0.000000 
#    z 0.000000 0.000000 1.762880 
# 
# From -- ./inp_files/1158.got.cif
#   From: 2010.05.17/outbox.cif.g08.bks.cpg/sg24_1_cif.got.tgz:1158.got - 2010.06.04 00:33:39.
