data_PCOD9334024
_publ_section_title
;
Structure prediction by ZEFSAII (Michael W. Deem and Ramdas Pophale) SiO2 
 PCOD9334024
Probable space group: I 21 21 21
;
_chemical_formula_sum "Si O2"
_cell_formula_units_Z 40
_cell_length_a 9.752568
_cell_length_b 17.531501
_cell_length_c 12.221124
_cell_angle_alpha 90.000000
_cell_angle_beta 90.000000
_cell_angle_gamma 90.000000
_cell_volume 2089.533020
_symmetry_space_group_name_H-M "I 21 21 21"
_symmetry_group_IT_number 24
_symmetry_cell_setting 'orthorhombic'
loop_
_space_group_symop_operation_xyz
x,y,z
-x,1/2-y,z
x,-y,1/2-z
1/2-x,y,-z
1/2+x,1/2+y,1/2+z
1/2-x,-y,1/2+z
1/2+x,1/2-y,-z
-x,1/2+y,1/2-z
loop_
_atom_site_type_symbol
_atom_site_label
_atom_site_fract_x
_atom_site_fract_y
_atom_site_fract_z
Si Si1 0.061294 0.886764 0.254039
Si Si2 0.609333 0.512373 0.940778
Si Si3 0.850668 0.954523 0.909339
Si Si4 0.252551 0.610152 0.297398
Si Si5 0.157902 0.761243 0.406445
O O1 0.122162 0.915983 0.141095
O O2 0.131639 0.810439 0.297586
O O3 0.897163 0.886756 0.240874
O O4 0.077191 0.944685 0.356038
O O5 0.750000 0.496853 0.000000
O O6 0.491327 0.525223 0.030237
O O7 0.858746 0.900281 0.802854
O O8 0.779009 0.033661 0.868026
O O9 0.750000 0.920037 0.000000
O O10 0.241224 0.684617 0.373398
O O11 0.250000 0.799599 0.500000
O O12 0.000000 0.750000 0.446746
#
# Coordination Sequence:
#
# PCOD9334024 Si02
#       5
#     8   8   8   8   8
#     4  10  20  38  57  83 120 155 189 240 302 353
#     4  11  22  36  60  86 118 155 193 246 304 349
#     4  11  18  35  62  85 113 147 200 250 285 340
#     4  10  20  34  61  90 111 147 205 244 285 348
#     4  10  22  39  59  84 120 156 190 243 300 354
#
# _framework density 19.143034
#
# number of rings (size 3 to 8) (size 9 to 14) (size 15 to 20)
#    0.000    1.600    4.000    2.400    2.800    3.200 
#    3.600    1.000    0.000    0.000    0.000    0.000 
#    0.000    0.000    0.000    0.000    0.000    0.000 
#
# Total GULP energy -111429.659770 kJ/mol
# GULP energy per Si atom -5571.482989 kJ/mol
# Density = 1.909946 g / cm^3
# Si number density = 19.143034 Si / 1000 Ang^3
#
#
#
# Elastic Constant Matrix: (Units=GPa)
#
#
# Indices 1 2 3 4 5 6 
#
# 1 56.8695 15.3475 25.3825 0.0000 0.0000 0.0000
# 2 15.3475 61.6129 21.7685 0.0001 0.0000 0.0000
# 3 25.3825 21.7685 94.1576 0.0002 0.0000 0.0000
# 4 0.0000 0.0001 0.0002 14.9605 0.0000 0.0000
# 5 0.0000 0.0000 0.0000 0.0000 26.8257 0.0000
# 6 0.0000 0.0000 0.0000 0.0000 0.0000 12.8608
#
#
#
# Elastic Compliance Matrix: (Units=1/GPa)
#
#
# Indices 1 2 3 4 5 6 
#
# 1 0.020645 -0.003459 -0.004766 0.000000 0.000000 0.000000
# 2 -0.003459 0.018253 -0.003288 0.000000 0.000000 0.000000
# 3 -0.004766 -0.003288 0.012665 0.000000 0.000000 0.000000
# 4 0.000000 0.000000 0.000000 0.066843 0.000000 0.000000
# 5 0.000000 0.000000 0.000000 0.000000 0.037278 0.000000
# 6 0.000000 0.000000 0.000000 0.000000 0.000000 0.077756
#
#
# Mechanical properties :
#
#
# Convention : Reuss Voigt Hill
#
# Bulk Modulus (GPa) = 35.03943 37.51522 36.27733
# Shear Modulus (GPa) = 18.79863 20.93881 19.86872
#
# Velocity S-wave (km/s) = 3.13710 3.31087 3.22515
# Velocity P-wave (km/s) = 5.60942 5.85283 5.73242
#
# Compressibility (1/GPa) = 0.02853927
#
# Stress axis : x y z
#
# Youngs Moduli (GPa) = 48.43884 54.78406 78.95602
#
# Poissons Ratio (x) = 0.18948 0.37628
# Poissons Ratio (y) = 0.16754 0.25958
# Poissons Ratio (z) = 0.23084 0.18011
#
# Static dielectric constant tensor:
#      x y z
#    x 1.650840 0.000000 0.000000 
#    y 0.000000 1.749410 0.000000 
#    z 0.000000 0.000000 1.677300 
# 
# From -- ./inp_files/11019.got.cif
#   From: 2010.05.17/outbox.cif.g08.bks.cpg/sg24_6_cif.got.tgz:11019.got - 2010.06.04 00:33:39.
