data_PCOD9334512
_publ_section_title
;
Structure prediction by ZEFSAII (Michael W. Deem and Ramdas Pophale) SiO2 
 PCOD9334512
Probable space group: I 21 21 21
;
_chemical_formula_sum "Si O2"
_cell_formula_units_Z 40
_cell_length_a 14.197121
_cell_length_b 13.322571
_cell_length_c 8.390343
_cell_angle_alpha 90.000000
_cell_angle_beta 90.000000
_cell_angle_gamma 90.000000
_cell_volume 1586.967535
_symmetry_space_group_name_H-M "I 21 21 21"
_symmetry_group_IT_number 24
_symmetry_cell_setting 'orthorhombic'
loop_
_space_group_symop_operation_xyz
x,y,z
-x,1/2-y,z
x,-y,1/2-z
1/2-x,y,-z
1/2+x,1/2+y,1/2+z
1/2-x,-y,1/2+z
1/2+x,1/2-y,-z
-x,1/2+y,1/2-z
loop_
_atom_site_type_symbol
_atom_site_label
_atom_site_fract_x
_atom_site_fract_y
_atom_site_fract_z
Si Si1 0.855347 0.993162 0.940094
Si Si2 0.205690 0.803413 0.151833
Si Si3 0.836244 0.598605 0.619064
Si Si4 0.397948 0.714038 0.563830
Si Si5 0.537940 0.551508 0.925654
O O1 0.857575 0.000000 0.750000
O O2 0.750000 0.976182 0.000000
O O3 0.934670 0.919334 0.012191
O O4 0.889481 0.100859 0.009164
O O5 0.281966 0.886784 0.213999
O O6 0.178882 0.734496 0.299919
O O7 0.111223 0.859720 0.100311
O O8 0.250000 0.751148 0.000000
O O9 0.750000 0.578710 0.500000
O O10 0.876923 0.708686 0.578895
O O11 0.916868 0.522225 0.561068
O O12 0.500000 0.750000 0.623986
O O13 0.531896 0.500000 0.750000
#
# Coordination Sequence:
#
# PCOD9334512 Si02
#       5
#     8   8   8   8   8
#     4  12  28  50  77 105 146 205 263 312 374 455
#     4  11  25  39  71 117 153 195 244 312 383 448
#     4  10  20  39  67 105 148 195 234 298 379 437
#     4  11  22  48  75 102 150 201 250 312 384 439
#     4  12  22  41  72 114 153 195 244 306 378 456
#
# _framework density 25.205304000000002
#
# number of rings (size 3 to 8) (size 9 to 14) (size 15 to 20)
#    0.000    0.800    6.000    3.000    2.800    0.000 
#    0.000   13.000    0.000    0.000    0.000    0.000 
#    0.000    0.000    0.000    0.000    0.000    0.000 
#
# Total GULP energy -112040.062606 kJ/mol
# GULP energy per Si atom -5602.003130 kJ/mol
# Density = 2.514794 g / cm^3
# Si number density = 25.205304 Si / 1000 Ang^3
#
#
#
# Elastic Constant Matrix: (Units=GPa)
#
#
# Indices 1 2 3 4 5 6 
#
# 1 175.8710 21.7575 56.1854 0.0000 0.0000 0.0000
# 2 21.7575 69.9780 31.3169 0.0000 0.0000 0.0000
# 3 56.1854 31.3169 123.4443 0.0000 0.0000 0.0000
# 4 0.0000 0.0000 0.0000 18.1973 0.0000 0.0000
# 5 0.0000 0.0000 0.0000 0.0000 46.3614 0.0000
# 6 0.0000 0.0000 0.0000 0.0000 0.0000 30.0705
#
#
#
# Elastic Compliance Matrix: (Units=1/GPa)
#
#
# Indices 1 2 3 4 5 6 
#
# 1 0.006694 -0.000810 -0.002841 0.000000 0.000000 0.000000
# 2 -0.000810 0.016218 -0.003746 0.000000 0.000000 0.000000
# 3 -0.002841 -0.003746 0.010344 0.000000 0.000000 0.000000
# 4 0.000000 0.000000 0.000000 0.054953 0.000000 0.000000
# 5 0.000000 0.000000 0.000000 0.000000 0.021570 0.000000
# 6 0.000000 0.000000 0.000000 0.000000 0.000000 0.033255
#
#
# Mechanical properties :
#
#
# Convention : Reuss Voigt Hill
#
# Bulk Modulus (GPa) = 54.16323 65.31253 59.73788
# Shear Modulus (GPa) = 30.49101 36.26140 33.37620
#
# Velocity S-wave (km/s) = 3.48186 3.79706 3.64287
# Velocity P-wave (km/s) = 6.14002 6.72250 6.43785
#
# Compressibility (1/GPa) = 0.01846271
#
# Stress axis : x y z
#
# Youngs Moduli (GPa) = 149.39067 61.65855 96.67124
#
# Poissons Ratio (x) = 0.04993 0.27467
# Poissons Ratio (y) = 0.12096 0.36212
# Poissons Ratio (z) = 0.42446 0.23097
#
# Static dielectric constant tensor:
#      x y z
#    x 2.004880 0.000000 0.000000 
#    y 0.000000 2.031050 0.000000 
#    z 0.000000 0.000000 2.016620 
# 
# From -- ./inp_files/12338.got.cif
#   From: 2010.05.17/outbox.cif.g08.bks.cpg/sg24_7_cif.got.tgz:12338.got - 2010.06.04 00:33:39.
