data_PCOD9334494
_publ_section_title
;
Structure prediction by ZEFSAII (Michael W. Deem and Ramdas Pophale) SiO2 
 PCOD9334494
Probable space group: I 21 21 21
;
_chemical_formula_sum "Si O2"
_cell_formula_units_Z 56
_cell_length_a 21.288773
_cell_length_b 8.531612
_cell_length_c 13.460775
_cell_angle_alpha 90.000000
_cell_angle_beta 90.000000
_cell_angle_gamma 90.000000
_cell_volume 2444.847600
_symmetry_space_group_name_H-M "I 21 21 21"
_symmetry_group_IT_number 24
_symmetry_cell_setting 'orthorhombic'
loop_
_space_group_symop_operation_xyz
x,y,z
-x,1/2-y,z
x,-y,1/2-z
1/2-x,y,-z
1/2+x,1/2+y,1/2+z
1/2-x,-y,1/2+z
1/2+x,1/2-y,-z
-x,1/2+y,1/2-z
loop_
_atom_site_type_symbol
_atom_site_label
_atom_site_fract_x
_atom_site_fract_y
_atom_site_fract_z
Si Si1 0.231658 0.659485 0.859441
Si Si2 0.811806 0.825264 0.631616
Si Si3 0.884271 0.844122 0.130522
Si Si4 0.714834 0.583526 0.642272
Si Si5 0.901423 0.207551 0.155086
Si Si6 0.141305 0.112635 0.523021
Si Si7 0.566019 0.683960 0.447365
O O1 0.203392 0.667478 0.748644
O O2 0.211836 0.492914 0.906449
O O3 0.307506 0.659849 0.858015
O O4 0.195745 0.801923 0.913581
O O5 0.778028 0.662114 0.601932
O O6 0.882082 0.801574 0.596232
O O7 0.916073 0.768592 0.228753
O O8 0.898016 0.749922 0.031028
O O9 0.904530 0.024424 0.130533
O O10 0.722026 0.500000 0.750000
O O11 0.670564 0.735988 0.650317
O O12 0.677164 0.473009 0.567953
O O13 0.934637 0.303332 0.068087
O O14 0.093788 0.989605 0.574301
O O15 0.500000 0.750000 0.410687
#
# Coordination Sequence:
#
# PCOD9334494 Si02
#       7
#     8   8   8   8   8   8   8
#     4  11  22  41  65 106 136 164 211 271 345 431
#     4  11  23  42  65  89 139 175 214 269 348 390
#     4  11  19  38  62 106 137 161 202 265 344 432
#     4  11  20  37  61 105 138 170 202 266 347 432
#     4  10  20  39  64  90 138 172 204 267 344 394
#     4  11  25  37  68  98 138 170 223 268 333 410
#     4  11  28  46  59  86 129 176 236 286 317 379
#
# _framework density 22.905311999999999
#
# number of rings (size 3 to 8) (size 9 to 14) (size 15 to 20)
#    0.000    1.143    4.286    2.143    6.000    1.714 
#    0.000    8.571    0.000    0.000    0.000    0.000 
#    0.000    0.000    0.000    0.000    0.000    0.000 
#
# Total GULP energy -156422.052025 kJ/mol
# GULP energy per Si atom -5586.501858 kJ/mol
# Density = 2.285318 g / cm^3
# Si number density = 22.905312 Si / 1000 Ang^3
#
#
#
# Elastic Constant Matrix: (Units=GPa)
#
#
# Indices 1 2 3 4 5 6 
#
# 1 82.5987 19.7840 1.8153 0.0000 0.0000 0.0000
# 2 19.7840 108.3068 11.4023 0.0000 0.0000 0.0000
# 3 1.8153 11.4023 67.4996 0.0000 0.0000 0.0000
# 4 0.0000 0.0000 0.0000 36.7302 0.0000 0.0000
# 5 0.0000 0.0000 0.0000 0.0000 9.1871 0.0000
# 6 0.0000 0.0000 0.0000 0.0000 0.0000 14.6598
#
#
#
# Elastic Compliance Matrix: (Units=1/GPa)
#
#
# Indices 1 2 3 4 5 6 
#
# 1 0.012661 -0.002318 0.000051 0.000000 0.000000 0.000000
# 2 -0.002318 0.009825 -0.001597 0.000000 0.000000 0.000000
# 3 0.000051 -0.001597 0.015083 0.000000 0.000000 0.000000
# 4 0.000000 0.000000 0.000000 0.027226 0.000000 0.000000
# 5 0.000000 0.000000 0.000000 0.000000 0.108848 0.000000
# 6 0.000000 0.000000 0.000000 0.000000 0.000000 0.068214
#
#
# Mechanical properties :
#
#
# Convention : Reuss Voigt Hill
#
# Bulk Modulus (GPa) = 33.51177 36.04536 34.77857
# Shear Modulus (GPa) = 19.26547 27.14233 23.20390
#
# Velocity S-wave (km/s) = 2.90330 3.44609 3.18628
# Velocity P-wave (km/s) = 5.08933 5.62182 5.36219
#
# Compressibility (1/GPa) = 0.02984026
#
# Stress axis : x y z
#
# Youngs Moduli (GPa) = 78.98379 101.78509 66.29831
#
# Poissons Ratio (x) = 0.23595 -0.00339
# Poissons Ratio (y) = 0.18309 0.10590
# Poissons Ratio (z) = -0.00404 0.16258
#
# Static dielectric constant tensor:
#      x y z
#    x 1.860420 0.000000 0.000000 
#    y 0.000000 1.924110 0.000000 
#    z 0.000000 0.000000 1.921990 
# 
# From -- ./inp_files/27561.got.cif
#   From: 2010.05.17/outbox.cif.g08.bks.cpg/sg24_14_cif.got.tgz:27561.got - 2010.06.04 00:33:39.
