data_PCOD9334295
_publ_section_title
;
Structure prediction by ZEFSAII (Michael W. Deem and Ramdas Pophale) SiO2 
 PCOD9334295
Probable space group: I 21 21 21
;
_chemical_formula_sum "Si O2"
_cell_formula_units_Z 36
_cell_length_a 16.027948
_cell_length_b 13.547198
_cell_length_c 8.430355
_cell_angle_alpha 90.000000
_cell_angle_beta 90.000000
_cell_angle_gamma 90.000000
_cell_volume 1830.514891
_symmetry_space_group_name_H-M "I 21 21 21"
_symmetry_group_IT_number 24
_symmetry_cell_setting 'orthorhombic'
loop_
_space_group_symop_operation_xyz
x,y,z
-x,1/2-y,z
x,-y,1/2-z
1/2-x,y,-z
1/2+x,1/2+y,1/2+z
1/2-x,-y,1/2+z
1/2+x,1/2-y,-z
-x,1/2+y,1/2-z
loop_
_atom_site_type_symbol
_atom_site_label
_atom_site_fract_x
_atom_site_fract_y
_atom_site_fract_z
Si Si1 0.632655 0.567109 0.525415
Si Si2 0.940484 0.968204 0.425884
Si Si3 0.681252 0.088600 0.366725
Si Si4 0.763255 0.500000 0.750000
Si Si5 0.842729 0.213327 0.928748
O O1 0.540163 0.534971 0.566880
O O2 0.695787 0.576739 0.675829
O O3 0.675149 0.490914 0.400537
O O4 0.629401 0.674337 0.445975
O O5 0.902165 0.862685 0.477044
O O6 0.914876 0.000000 0.250000
O O7 0.900694 0.045875 0.548107
O O8 0.750000 0.108375 0.500000
O O9 0.661336 0.179313 0.253195
O O10 0.711157 0.000000 0.250000
O O11 0.750000 0.202507 0.000000
#
# Coordination Sequence:
#
# PCOD9334295 Si02
#       5
#     8   8   8   4   8
#     4  11  23  44  67  89 120 163 214 258 309 363
#     4  11  22  39  66  92 130 164 204 252 308 372
#     4  10  20  37  63  95 128 165 199 247 314 375
#     4  10  22  44  68  86 112 168 204 254 318 358
#     4  11  22  40  65  91 127 165 202 255 311 364
#
# _framework density 19.666598
#
# number of rings (size 3 to 8) (size 9 to 14) (size 15 to 20)
#    0.000    1.333    3.333    5.333    4.667    0.000 
#    4.000    0.000    0.000    0.000    0.000    0.000 
#    0.000    0.000    0.000    0.000    0.000    0.000 
#
# Total GULP energy -100388.808318 kJ/mol
# GULP energy per Si atom -5577.156018 kJ/mol
# Density = 1.962184 g / cm^3
# Si number density = 19.666598 Si / 1000 Ang^3
#
#
#
# Elastic Constant Matrix: (Units=GPa)
#
#
# Indices 1 2 3 4 5 6 
#
# 1 131.8813 16.3536 42.5584 0.0000 0.0000 0.0000
# 2 16.3536 70.0586 56.7744 0.0000 0.0000 0.0000
# 3 42.5584 56.7744 135.2001 0.0000 0.0000 0.0000
# 4 0.0000 0.0000 0.0000 28.1391 0.0000 0.0000
# 5 0.0000 0.0000 0.0000 0.0000 29.1780 0.0000
# 6 0.0000 0.0000 0.0000 0.0000 0.0000 14.5782
#
#
#
# Elastic Compliance Matrix: (Units=1/GPa)
#
#
# Indices 1 2 3 4 5 6 
#
# 1 0.008443 0.000277 -0.002774 0.000000 0.000000 0.000000
# 2 0.000277 0.021646 -0.009177 0.000000 0.000000 0.000000
# 3 -0.002774 -0.009177 0.012123 0.000000 0.000000 0.000000
# 4 0.000000 0.000000 0.000000 0.035538 0.000000 0.000000
# 5 0.000000 0.000000 0.000000 0.000000 0.034272 0.000000
# 6 0.000000 0.000000 0.000000 0.000000 0.000000 0.068596
#
#
# Mechanical properties :
#
#
# Convention : Reuss Voigt Hill
#
# Bulk Modulus (GPa) = 53.00876 63.16809 58.08843
# Shear Modulus (GPa) = 23.78064 29.14264 26.46164
#
# Velocity S-wave (km/s) = 3.48111 3.85364 3.67210
# Velocity P-wave (km/s) = 6.57037 7.21040 6.89781
#
# Compressibility (1/GPa) = 0.01886481
#
# Stress axis : x y z
#
# Youngs Moduli (GPa) = 118.43495 46.19790 82.48475
#
# Poissons Ratio (x) = -0.01281 0.22884
# Poissons Ratio (y) = -0.03284 0.75697
# Poissons Ratio (z) = 0.32857 0.42396
#
# Static dielectric constant tensor:
#      x y z
#    x 1.687350 0.000000 0.000000 
#    y 0.000000 1.692510 0.000000 
#    z 0.000000 0.000000 1.727170 
# 
# From -- ./inp_files/12194.got.cif
#   From: 2010.05.17/outbox.cif.g08.bks.cpg/sg24_7_cif.got.tgz:12194.got - 2010.06.04 00:33:39.
