data_PCOD9334283
_publ_section_title
;
Structure prediction by ZEFSAII (Michael W. Deem and Ramdas Pophale) SiO2 
 PCOD9334283
Probable space group: I 21 21 21
;
_chemical_formula_sum "Si O2"
_cell_formula_units_Z 52
_cell_length_a 7.508261
_cell_length_b 21.687131
_cell_length_c 13.872314
_cell_angle_alpha 90.000000
_cell_angle_beta 90.000000
_cell_angle_gamma 90.000000
_cell_volume 2258.865510
_symmetry_space_group_name_H-M "I 21 21 21"
_symmetry_group_IT_number 24
_symmetry_cell_setting 'orthorhombic'
loop_
_space_group_symop_operation_xyz
x,y,z
-x,1/2-y,z
x,-y,1/2-z
1/2-x,y,-z
1/2+x,1/2+y,1/2+z
1/2-x,-y,1/2+z
1/2+x,1/2-y,-z
-x,1/2+y,1/2-z
loop_
_atom_site_type_symbol
_atom_site_label
_atom_site_fract_x
_atom_site_fract_y
_atom_site_fract_z
Si Si1 0.996009 0.154027 0.332515
Si Si2 0.955011 0.134663 0.033525
Si Si3 0.955801 0.686436 0.966448
Si Si4 0.348151 0.560411 0.696218
Si Si5 0.058793 0.059724 0.864779
Si Si6 0.666358 0.425016 0.354353
Si Si7 0.000000 0.250000 0.176737
O O1 0.934221 0.182421 0.433437
O O2 0.136199 0.101892 0.364648
O O3 0.086333 0.204374 0.260338
O O4 0.849324 0.118651 0.268949
O O5 0.976331 0.078997 0.109166
O O6 0.968861 0.196059 0.097021
O O7 0.750000 0.134763 0.000000
O O8 0.070660 0.116100 0.940432
O O9 0.963558 0.624565 0.904428
O O10 0.000000 0.750000 0.913395
O O11 0.750000 0.691503 0.000000
O O12 0.410683 0.500000 0.750000
O O13 0.152157 0.548888 0.654638
O O14 0.134617 0.074632 0.760041
O O15 0.136453 0.993435 0.894310
#
# Coordination Sequence:
#
# PCOD9334283 Si02
#       7
#     8   8   8   8   8   8   4
#     4  10  22  39  64  88 123 164 205 260 304 376
#     4   9  21  38  61  88 122 159 207 260 304 375
#     4  10  22  42  60  91 122 159 206 253 310 374
#     4  10  20  37  62  89 115 159 204 248 311 366
#     4  10  21  43  57  91 131 154 204 262 316 378
#     4  10  22  40  60  89 130 162 201 258 322 371
#     4  10  20  42  62  88 122 166 218 248 310 380
#
# _framework density 23.020403999999999
#
# number of rings (size 3 to 8) (size 9 to 14) (size 15 to 20)
#    0.000    2.154    2.308    0.000    4.308    2.462 
#    9.692    2.308    0.000    0.000    0.000    0.000 
#    0.000    0.000    0.000    0.000    0.000    0.000 
#
# Total GULP energy -144820.192048 kJ/mol
# GULP energy per Si atom -5570.007386 kJ/mol
# Density = 2.296801 g / cm^3
# Si number density = 23.020404 Si / 1000 Ang^3
#
#
#
# Elastic Constant Matrix: (Units=GPa)
#
#
# Indices 1 2 3 4 5 6 
#
# 1 26.3141 21.6302 8.8510 0.0000 0.0000 0.0000
# 2 21.6302 142.8723 60.6787 0.0000 0.0000 0.0000
# 3 8.8510 60.6787 111.3818 -0.0001 0.0000 0.0001
# 4 0.0000 0.0000 -0.0001 53.0260 0.0000 0.0000
# 5 0.0000 0.0000 0.0000 0.0000 28.3955 0.0000
# 6 0.0000 0.0000 0.0001 0.0000 0.0000 -16.1844
#
#
#
# Elastic Compliance Matrix: (Units=1/GPa)
#
#
# Indices 1 2 3 4 5 6 
#
# 1 0.043406 -0.006644 0.000170 0.000000 0.000000 0.000000
# 2 -0.006644 0.010123 -0.004987 0.000000 0.000000 0.000000
# 3 0.000170 -0.004987 0.011681 0.000000 0.000000 0.000000
# 4 0.000000 0.000000 0.000000 0.018859 0.000000 0.000000
# 5 0.000000 0.000000 0.000000 0.000000 0.035217 0.000000
# 6 0.000000 0.000000 0.000000 0.000000 0.000000 -0.061788
#
#
# Mechanical properties :
#
#
# Convention : Reuss Voigt Hill
#
# Bulk Modulus (GPa) = 23.64644 51.43199 37.53922
# Shear Modulus (GPa) = 52.90115 25.67466 39.28791
#
# Velocity S-wave (km/s) = 4.79896 3.34323 4.13565
# Velocity P-wave (km/s) = 6.40320 6.10683 6.25677
#
# Compressibility (1/GPa) = 0.04228966
#
# Stress axis : x y z
#
# Youngs Moduli (GPa) = 23.03811 98.78442 85.60632
#
# Poissons Ratio (x) = 0.65630 -0.01456
# Poissons Ratio (y) = 0.15306 0.42691
# Poissons Ratio (z) = -0.00392 0.49263
#
# Static dielectric constant tensor:
#      x y z
#    x 1.904890 0.000000 0.000000 
#    y 0.000000 1.881320 0.000000 
#    z 0.000000 0.000000 2.078520 
# 
# From -- ./inp_files/24995.got.cif
#   From: 2010.05.17/outbox.cif.g08.bks.cpg/sg24_13_cif.got.tgz:24995.got - 2010.06.04 00:33:39.
