data_PCOD9334815
_publ_section_title
;
Structure prediction by ZEFSAII (Michael W. Deem and Ramdas Pophale) SiO2 
 PCOD9334815
Probable space group: I 21 21 21
;
_chemical_formula_sum "Si O2"
_cell_formula_units_Z 32
_cell_length_a 5.107092
_cell_length_b 37.876116
_cell_length_c 7.517887
_cell_angle_alpha 90.000000
_cell_angle_beta 90.000000
_cell_angle_gamma 90.000000
_cell_volume 1454.236072
_symmetry_space_group_name_H-M "I 21 21 21"
_symmetry_group_IT_number 24
_symmetry_cell_setting 'orthorhombic'
loop_
_space_group_symop_operation_xyz
x,y,z
-x,1/2-y,z
x,-y,1/2-z
1/2-x,y,-z
1/2+x,1/2+y,1/2+z
1/2-x,-y,1/2+z
1/2+x,1/2-y,-z
-x,1/2+y,1/2-z
loop_
_atom_site_type_symbol
_atom_site_label
_atom_site_fract_x
_atom_site_fract_y
_atom_site_fract_z
Si Si1 0.790461 0.641238 0.710916
Si Si2 0.712538 0.103549 0.785673
Si Si3 0.997797 0.031859 0.380926
Si Si4 0.998244 0.288495 0.628004
O O1 0.750000 0.637802 0.500000
O O2 0.498332 0.632994 0.778411
O O3 0.929354 0.678414 0.749074
O O4 0.997691 0.612560 0.782477
O O5 0.599531 0.066363 0.724468
O O6 0.750000 0.103965 0.000000
O O7 0.250000 0.039757 0.500000
O O8 0.750000 0.020508 0.500000
O O9 0.066918 0.000000 0.250000
O O10 0.750000 0.286436 0.500000
O O11 0.000000 0.250000 0.721393
O O12 0.250000 0.293130 0.500000
#
# Coordination Sequence:
#
# PCOD9334815 Si02
#       4
#     8   8   8   8
#     4  10  21  38  60  88 119 156 199 249 304 356
#     4  10  22  40  62  88 122 157 197 250 304 357
#     4  12  26  43  65  93 124 162 205 248 302 361
#     4  10  21  37  57  83 118 159 201 249 302 356
#
# _framework density 22.00468
#
# number of rings (size 3 to 8) (size 9 to 14) (size 15 to 20)
#    0.000    1.500    0.000    4.500    0.000    9.000 
#    0.000    7.500    0.000    0.000    0.000    0.000 
#    0.000    0.000    0.000    0.000    0.000    0.000 
#
# Total GULP energy -89360.720688 kJ/mol
# GULP energy per Si atom -5585.045043 kJ/mol
# Density = 2.195460 g / cm^3
# Si number density = 22.004680 Si / 1000 Ang^3
#
#
#
# Elastic Constant Matrix: (Units=GPa)
#
#
# Indices 1 2 3 4 5 6 
#
# 1 169.8527 62.8091 59.2510 0.0000 0.0000 0.0000
# 2 62.8091 142.3095 26.7478 0.0000 0.0000 0.0000
# 3 59.2510 26.7478 39.1523 0.0000 0.0000 0.0000
# 4 0.0000 0.0000 0.0000 28.8991 0.0000 0.0000
# 5 0.0000 0.0000 0.0000 0.0000 26.7526 0.0000
# 6 0.0000 0.0000 0.0000 0.0000 0.0000 26.7605
#
#
#
# Elastic Compliance Matrix: (Units=1/GPa)
#
#
# Indices 1 2 3 4 5 6 
#
# 1 0.013129 -0.002364 -0.018254 0.000000 0.000000 0.000000
# 2 -0.002364 0.008488 -0.002221 0.000000 0.000000 0.000000
# 3 -0.018254 -0.002221 0.054684 0.000000 0.000000 0.000000
# 4 0.000000 0.000000 0.000000 0.034603 0.000000 0.000000
# 5 0.000000 0.000000 0.000000 0.000000 0.037380 0.000000
# 6 0.000000 0.000000 0.000000 0.000000 0.000000 0.037369
#
#
# Mechanical properties :
#
#
# Convention : Reuss Voigt Hill
#
# Bulk Modulus (GPa) = 32.65626 72.10338 52.37982
# Shear Modulus (GPa) = 20.70059 29.98286 25.34172
#
# Velocity S-wave (km/s) = 3.07047 3.69530 3.39728
# Velocity P-wave (km/s) = 5.23862 7.14461 6.26453
#
# Compressibility (1/GPa) = 0.03062200
#
# Stress axis : x y z
#
# Youngs Moduli (GPa) = 76.16529 117.81745 18.28683
#
# Poissons Ratio (x) = 0.27848 0.33382
# Poissons Ratio (y) = 0.18003 0.04062
# Poissons Ratio (z) = 1.39035 0.26173
#
# Static dielectric constant tensor:
#      x y z
#    x 1.793630 0.000000 0.000000 
#    y 0.000000 1.875340 0.000000 
#    z 0.000000 0.000000 1.796120 
# 
# From -- ./inp_files/8286.got.cif
#   From: 2010.05.17/outbox.cif.g08.bks.cpg/sg24_5_cif.got.tgz:8286.got - 2010.06.04 00:33:39.
