data_PCOD9334027
_publ_section_title
;
Structure prediction by ZEFSAII (Michael W. Deem and Ramdas Pophale) SiO2 
 PCOD9334027
Probable space group: I 21 21 21
;
_chemical_formula_sum "Si O2"
_cell_formula_units_Z 40
_cell_length_a 12.070095
_cell_length_b 17.929196
_cell_length_c 9.934297
_cell_angle_alpha 90.000000
_cell_angle_beta 90.000000
_cell_angle_gamma 90.000000
_cell_volume 2149.852394
_symmetry_space_group_name_H-M "I 21 21 21"
_symmetry_group_IT_number 24
_symmetry_cell_setting 'orthorhombic'
loop_
_space_group_symop_operation_xyz
x,y,z
-x,1/2-y,z
x,-y,1/2-z
1/2-x,y,-z
1/2+x,1/2+y,1/2+z
1/2-x,-y,1/2+z
1/2+x,1/2-y,-z
-x,1/2+y,1/2-z
loop_
_atom_site_type_symbol
_atom_site_label
_atom_site_fract_x
_atom_site_fract_y
_atom_site_fract_z
Si Si1 0.073017 0.576129 0.323481
Si Si2 0.851865 0.173325 0.422335
Si Si3 0.220821 0.221025 0.767759
Si Si4 0.186569 0.062316 0.137164
Si Si5 0.750000 0.157213 0.000000
Si Si6 0.500000 0.750000 0.134031
O O1 0.109234 0.500000 0.250000
O O2 0.086411 0.634242 0.200779
O O3 0.151843 0.605685 0.442212
O O4 0.947102 0.567147 0.373706
O O5 0.750000 0.132512 0.500000
O O6 0.794221 0.246079 0.354881
O O7 0.938756 0.192502 0.536799
O O8 0.271472 0.144440 0.820462
O O9 0.095064 0.211033 0.720275
O O10 0.218177 0.286668 0.879114
O O11 0.210419 0.000000 0.250000
O O12 0.250000 0.042388 0.000000
#
# Coordination Sequence:
#
# PCOD9334027 Si02
#       6
#     8   8   8   8   4   4
#     4  10  23  40  63  90 128 173 204 267 327 388
#     4   9  19  36  58  91 121 158 205 262 326 379
#     4  10  21  37  63  91 121 164 213 269 312 386
#     4  11  25  43  62  92 133 176 218 265 332 396
#     4  10  22  40  64  96 122 162 220 266 322 370
#     4  10  20  34  62  90 118 156 214 260 316 378
#
# _framework density 18.605930000000001
#
# number of rings (size 3 to 8) (size 9 to 14) (size 15 to 20)
#    0.000    2.000    1.000    1.200    4.200    8.000 
#    0.000    1.000    0.000    0.000    0.000    0.000 
#    0.000    0.000    0.000    0.000    0.000    0.000 
#
# Total GULP energy -111523.498718 kJ/mol
# GULP energy per Si atom -5576.174936 kJ/mol
# Density = 1.856358 g / cm^3
# Si number density = 18.605930 Si / 1000 Ang^3
#
#
#
# Elastic Constant Matrix: (Units=GPa)
#
#
# Indices 1 2 3 4 5 6 
#
# 1 115.9306 49.7112 70.9729 0.0000 0.0000 0.0000
# 2 49.7112 91.7025 45.2763 0.0000 0.0000 0.0000
# 3 70.9729 45.2763 119.9011 -0.0001 0.0000 0.0000
# 4 0.0000 0.0000 -0.0001 25.1197 0.0000 0.0000
# 5 0.0000 0.0000 0.0000 0.0000 32.3356 0.0000
# 6 0.0000 0.0000 0.0000 0.0000 0.0000 10.9221
#
#
#
# Elastic Compliance Matrix: (Units=1/GPa)
#
#
# Indices 1 2 3 4 5 6 
#
# 1 0.014951 -0.004591 -0.007116 0.000000 0.000000 0.000000
# 2 -0.004591 0.014814 -0.002876 0.000000 0.000000 0.000000
# 3 -0.007116 -0.002876 0.013639 0.000000 0.000000 0.000000
# 4 0.000000 0.000000 0.000000 0.039809 0.000000 0.000000
# 5 0.000000 0.000000 0.000000 0.000000 0.030926 0.000000
# 6 0.000000 0.000000 0.000000 0.000000 0.000000 0.091557
#
#
# Mechanical properties :
#
#
# Convention : Reuss Voigt Hill
#
# Bulk Modulus (GPa) = 70.24430 73.27278 71.75854
# Shear Modulus (GPa) = 20.86730 24.44705 22.65717
#
# Velocity S-wave (km/s) = 3.35257 3.62876 3.49340
# Velocity P-wave (km/s) = 7.26788 7.55143 7.41101
#
# Compressibility (1/GPa) = 0.01423603
#
# Stress axis : x y z
#
# Youngs Moduli (GPa) = 66.88390 67.50447 73.32125
#
# Poissons Ratio (x) = 0.30994 0.52178
# Poissons Ratio (y) = 0.30709 0.21088
# Poissons Ratio (z) = 0.47597 0.19415
#
# Static dielectric constant tensor:
#      x y z
#    x 1.686640 0.000000 0.000000 
#    y 0.000000 1.697680 0.000000 
#    z 0.000000 0.000000 1.659880 
# 
# From -- ./inp_files/10747.got.cif
#   From: 2010.05.17/outbox.cif.g08.bks.cpg/sg24_6_cif.got.tgz:10747.got - 2010.06.04 00:33:39.
