data_PCOD9334628
_publ_section_title
;
Structure prediction by ZEFSAII (Michael W. Deem and Ramdas Pophale) SiO2 
 PCOD9334628
Probable space group: I 21 21 21
;
_chemical_formula_sum "Si O2"
_cell_formula_units_Z 40
_cell_length_a 26.407169
_cell_length_b 5.554003
_cell_length_c 11.168641
_cell_angle_alpha 90.000000
_cell_angle_beta 90.000000
_cell_angle_gamma 90.000000
_cell_volume 1638.054270
_symmetry_space_group_name_H-M "I 21 21 21"
_symmetry_group_IT_number 24
_symmetry_cell_setting 'orthorhombic'
loop_
_space_group_symop_operation_xyz
x,y,z
-x,1/2-y,z
x,-y,1/2-z
1/2-x,y,-z
1/2+x,1/2+y,1/2+z
1/2-x,-y,1/2+z
1/2+x,1/2-y,-z
-x,1/2+y,1/2-z
loop_
_atom_site_type_symbol
_atom_site_label
_atom_site_fract_x
_atom_site_fract_y
_atom_site_fract_z
Si Si1 0.810969 0.255480 0.189528
Si Si2 0.608541 0.773658 0.058388
Si Si3 0.796558 0.123644 0.936010
Si Si4 0.173796 0.000000 0.750000
Si Si5 0.000000 0.250000 0.679871
Si Si6 0.078541 0.248214 0.282842
O O1 0.794965 0.500000 0.250000
O O2 0.871431 0.244996 0.200813
O O3 0.794519 0.000000 0.250000
O O4 0.799283 0.294682 0.050893
O O5 0.636879 0.579080 0.141706
O O6 0.551942 0.809910 0.109164
O O7 0.650363 0.984541 0.068128
O O8 0.598655 0.731210 0.918493
O O9 0.795314 0.276111 0.811774
O O10 0.750000 0.965697 0.000000
O O11 0.989320 0.500000 0.750000
O O12 0.052998 0.500000 0.250000
O O13 0.051969 0.000000 0.250000
#
# Coordination Sequence:
#
# PCOD9334628 Si02
#       6
#     8   8   8   4   4   8
#     4  10  20  41  69 100 144 207 255 313 401 465
#     4  12  26  51  78 117 161 215 281 345 417 503
#     4  12  28  46  75 114 163 218 277 349 411 502
#     4  12  26  48  74 112 158 206 288 334 412 510
#     4  12  28  52  86 118 164 222 274 354 426 488
#     4  10  20  40  74 104 147 201 252 326 399 474
#
# _framework density 24.419218000000001
#
# number of rings (size 3 to 8) (size 9 to 14) (size 15 to 20)
#    0.000    0.800    5.000    4.200    1.400    2.400 
#    0.000    1.000    0.000    0.000    0.000    0.000 
#    0.000    0.000    0.000    0.000    0.000    0.000 
#
# Total GULP energy -111413.141599 kJ/mol
# GULP energy per Si atom -5570.657080 kJ/mol
# Density = 2.436364 g / cm^3
# Si number density = 24.419218 Si / 1000 Ang^3
#
#
#
# Elastic Constant Matrix: (Units=GPa)
#
#
# Indices 1 2 3 4 5 6 
#
# 1 175.1782 57.0119 35.4061 0.0000 0.0000 0.0000
# 2 57.0119 190.3775 53.0459 0.0000 0.0000 0.0000
# 3 35.4061 53.0459 101.0785 0.0000 0.0000 0.0000
# 4 0.0000 0.0000 0.0000 42.3526 0.0000 0.0000
# 5 0.0000 0.0000 0.0000 0.0000 -88.0022 0.0000
# 6 0.0000 0.0000 0.0000 0.0000 0.0000 260.9284
#
#
#
# Elastic Compliance Matrix: (Units=1/GPa)
#
#
# Indices 1 2 3 4 5 6 
#
# 1 0.006507 -0.001538 -0.001472 0.000000 0.000000 0.000000
# 2 -0.001538 0.006516 -0.002881 0.000000 0.000000 0.000000
# 3 -0.001472 -0.002881 0.011921 0.000000 0.000000 0.000000
# 4 0.000000 0.000000 0.000000 0.023611 0.000000 0.000000
# 5 0.000000 0.000000 0.000000 0.000000 -0.011363 0.000000
# 6 0.000000 0.000000 0.000000 0.000000 0.000000 0.003832
#
#
# Mechanical properties :
#
#
# Convention : Reuss Voigt Hill
#
# Bulk Modulus (GPa) = 75.97958 84.17356 80.07657
# Shear Modulus (GPa) = 87.42336 64.46712 75.94524
#
# Velocity S-wave (km/s) = 5.98989 5.14368 5.58284
# Velocity P-wave (km/s) = 8.88935 8.35594 8.62677
#
# Compressibility (1/GPa) = 0.01316143
#
# Stress axis : x y z
#
# Youngs Moduli (GPa) = 153.68941 153.46577 83.88791
#
# Poissons Ratio (x) = 0.23610 0.12347
# Poissons Ratio (y) = 0.23644 0.24166
# Poissons Ratio (z) = 0.22620 0.44210
#
# Static dielectric constant tensor:
#      x y z
#    x 2.067510 0.000000 0.000000 
#    y 0.000000 2.096360 0.000000 
#    z 0.000000 0.000000 1.828300 
# 
# From -- ./inp_files/22812.got.cif
#   From: 2010.05.17/outbox.cif.g08.bks.cpg/sg24_12_cif.got.tgz:22812.got - 2010.06.04 00:33:39.
