data_PCOD9334584
_publ_section_title
;
Structure prediction by ZEFSAII (Michael W. Deem and Ramdas Pophale) SiO2 
 PCOD9334584
Probable space group: I 21 21 21
;
_chemical_formula_sum "Si O2"
_cell_formula_units_Z 40
_cell_length_a 22.287795
_cell_length_b 13.604761
_cell_length_c 6.122370
_cell_angle_alpha 90.000000
_cell_angle_beta 90.000000
_cell_angle_gamma 90.000000
_cell_volume 1856.425792
_symmetry_space_group_name_H-M "I 21 21 21"
_symmetry_group_IT_number 24
_symmetry_cell_setting 'orthorhombic'
loop_
_space_group_symop_operation_xyz
x,y,z
-x,1/2-y,z
x,-y,1/2-z
1/2-x,y,-z
1/2+x,1/2+y,1/2+z
1/2-x,-y,1/2+z
1/2+x,1/2-y,-z
-x,1/2+y,1/2-z
loop_
_atom_site_type_symbol
_atom_site_label
_atom_site_fract_x
_atom_site_fract_y
_atom_site_fract_z
Si Si1 0.184172 0.292804 0.550030
Si Si2 0.073230 0.615007 0.203072
Si Si3 0.396056 0.240413 0.066996
Si Si4 0.349450 0.100782 0.686569
Si Si5 0.536072 0.597085 0.111208
O O1 0.250000 0.333078 0.500000
O O2 0.134309 0.350272 0.411415
O O3 0.158282 0.289261 0.795355
O O4 0.183481 0.180380 0.462973
O O5 0.074072 0.500000 0.250000
O O6 0.069290 0.678676 0.423762
O O7 0.018700 0.632220 0.037424
O O8 0.438504 0.182077 0.233048
O O9 0.369106 0.160533 0.900762
O O10 0.409055 0.071370 0.551315
O O11 0.316940 0.000000 0.750000
O O12 0.520075 0.500000 0.250000
#
# Coordination Sequence:
#
# PCOD9334584 Si02
#       5
#     8   8   8   8   8
#     4  10  25  47  67  98 131 183 238 284 344 400
#     4  11  27  45  65 104 137 180 237 280 350 410
#     4  10  24  45  70  94 146 177 223 288 345 413
#     4  10  20  40  67 104 137 177 221 271 355 417
#     4  11  23  41  68 101 143 180 222 280 350 428
#
# _framework density 21.546780999999999
#
# number of rings (size 3 to 8) (size 9 to 14) (size 15 to 20)
#    0.000    1.600    2.000    0.600    2.800   12.000 
#    7.200    0.000    0.000    0.000    0.000    0.000 
#    0.000    0.000    0.000    0.000    0.000    0.000 
#
# Total GULP energy -111914.319197 kJ/mol
# GULP energy per Si atom -5595.715960 kJ/mol
# Density = 2.149774 g / cm^3
# Si number density = 21.546781 Si / 1000 Ang^3
#
#
#
# Elastic Constant Matrix: (Units=GPa)
#
#
# Indices 1 2 3 4 5 6 
#
# 1 100.9412 3.4673 37.0892 0.0000 0.0000 0.0000
# 2 3.4673 95.3546 42.8777 0.0000 0.0000 0.0000
# 3 37.0892 42.8777 132.2973 0.0000 0.0000 0.0000
# 4 0.0000 0.0000 0.0000 41.3314 0.0000 0.0000
# 5 0.0000 0.0000 0.0000 0.0000 6.6229 0.0000
# 6 0.0000 0.0000 0.0000 0.0000 0.0000 7.5301
#
#
#
# Elastic Compliance Matrix: (Units=1/GPa)
#
#
# Indices 1 2 3 4 5 6 
#
# 1 0.011155 0.001171 -0.003507 0.000000 0.000000 0.000000
# 2 0.001171 0.012399 -0.004347 0.000000 0.000000 0.000000
# 3 -0.003507 -0.004347 0.009951 0.000000 0.000000 0.000000
# 4 0.000000 0.000000 0.000000 0.024195 0.000000 0.000000
# 5 0.000000 0.000000 0.000000 0.000000 0.150991 0.000000
# 6 0.000000 0.000000 0.000000 0.000000 0.000000 0.132801
#
#
# Mechanical properties :
#
#
# Convention : Reuss Voigt Hill
#
# Bulk Modulus (GPa) = 49.65264 55.05127 52.35196
# Shear Modulus (GPa) = 13.82856 27.44079 20.63468
#
# Velocity S-wave (km/s) = 2.53611 3.57255 3.09798
# Velocity P-wave (km/s) = 5.62761 6.52860 6.09477
#
# Compressibility (1/GPa) = 0.02013992
#
# Stress axis : x y z
#
# Youngs Moduli (GPa) = 89.64523 80.64988 100.49485
#
# Poissons Ratio (x) = -0.09447 0.35243
# Poissons Ratio (y) = -0.10500 0.43685
# Poissons Ratio (z) = 0.31438 0.35058
#
# Static dielectric constant tensor:
#      x y z
#    x 1.771000 0.000000 0.000000 
#    y 0.000000 1.779040 0.000000 
#    z 0.000000 0.000000 1.792760 
# 
# From -- ./inp_files/6292.got.cif
#   From: 2010.05.17/outbox.cif.g08.bks.cpg/sg24_4_cif.got.tgz:6292.got - 2010.06.04 00:33:39.
