data_PCOD9334061
_publ_section_title
;
Structure prediction by ZEFSAII (Michael W. Deem and Ramdas Pophale) SiO2 
 PCOD9334061
Probable space group: I 21 21 21
;
_chemical_formula_sum "Si O2"
_cell_formula_units_Z 44
_cell_length_a 13.910249
_cell_length_b 7.311203
_cell_length_c 22.815950
_cell_angle_alpha 90.000000
_cell_angle_beta 90.000000
_cell_angle_gamma 90.000000
_cell_volume 2320.397042
_symmetry_space_group_name_H-M "I 21 21 21"
_symmetry_group_IT_number 24
_symmetry_cell_setting 'orthorhombic'
loop_
_space_group_symop_operation_xyz
x,y,z
-x,1/2-y,z
x,-y,1/2-z
1/2-x,y,-z
1/2+x,1/2+y,1/2+z
1/2-x,-y,1/2+z
1/2+x,1/2-y,-z
-x,1/2+y,1/2-z
loop_
_atom_site_type_symbol
_atom_site_label
_atom_site_fract_x
_atom_site_fract_y
_atom_site_fract_z
Si Si1 0.113917 0.773772 0.302001
Si Si2 0.294004 0.290859 0.919834
Si Si3 0.182243 0.138022 0.447117
Si Si4 0.613817 0.293301 0.673099
Si Si5 0.410009 0.610873 0.465912
Si Si6 0.500000 0.250000 0.486375
O O1 0.166451 0.675151 0.355158
O O2 0.141938 0.713386 0.236443
O O3 0.000000 0.750000 0.306329
O O4 0.126546 0.989824 0.314527
O O5 0.183768 0.346364 0.927843
O O6 0.293909 0.073114 0.934348
O O7 0.366001 0.379411 0.967852
O O8 0.250000 0.207093 0.500000
O O9 0.175542 0.244032 0.385361
O O10 0.075778 0.145571 0.473170
O O11 0.500000 0.250000 0.663369
O O12 0.500000 0.750000 0.460675
O O13 0.446657 0.408346 0.451716
#
# Coordination Sequence:
#
# PCOD9334061 Si02
#       6
#     8   8   8   8   8   4
#     4   9  18  31  54  78 112 155 187 235 293 349
#     4  10  20  35  56  80 115 154 202 238 295 353
#     4  11  20  35  53  83 119 158 193 244 293 347
#     4   9  18  32  49  80 114 149 195 233 289 355
#     4  11  21  38  54  80 117 154 193 250 294 357
#     4  12  24  34  56  82 120 152 194 242 302 340
#
# _framework density 18.962273
#
# number of rings (size 3 to 8) (size 9 to 14) (size 15 to 20)
#    0.000    1.818    4.545    0.545    5.091    0.000 
#    0.000    0.000    0.000    0.000    2.364    0.000 
#    0.000    0.000    0.000    0.000    0.000    0.000 
#
# Total GULP energy -122758.899554 kJ/mol
# GULP energy per Si atom -5579.949980 kJ/mol
# Density = 1.891911 g / cm^3
# Si number density = 18.962273 Si / 1000 Ang^3
#
#
#
# Elastic Constant Matrix: (Units=GPa)
#
#
# Indices 1 2 3 4 5 6 
#
# 1 109.7676 29.4636 59.4504 0.0000 0.0000 0.0000
# 2 29.4636 87.1133 10.7761 0.0000 0.0000 0.0000
# 3 59.4504 10.7761 164.4436 0.0000 0.0000 0.0000
# 4 0.0000 0.0000 0.0000 9.7417 0.0000 0.0000
# 5 0.0000 0.0000 0.0000 0.0000 31.8589 0.0000
# 6 0.0000 0.0000 0.0000 0.0000 0.0000 30.4281
#
#
#
# Elastic Compliance Matrix: (Units=1/GPa)
#
#
# Indices 1 2 3 4 5 6 
#
# 1 0.012390 -0.003666 -0.004239 0.000000 0.000000 0.000000
# 2 -0.003666 0.012658 0.000496 0.000000 0.000000 0.000000
# 3 -0.004239 0.000496 0.007581 0.000000 0.000000 0.000000
# 4 0.000000 0.000000 0.000000 0.102651 0.000000 0.000000
# 5 0.000000 0.000000 0.000000 0.000000 0.031388 0.000000
# 6 0.000000 0.000000 0.000000 0.000000 0.000000 0.032864
#
#
# Mechanical properties :
#
#
# Convention : Reuss Voigt Hill
#
# Bulk Modulus (GPa) = 56.14665 62.30051 59.22358
# Shear Modulus (GPa) = 22.69747 31.84804 27.27276
#
# Velocity S-wave (km/s) = 3.46349 4.10267 3.79656
# Velocity P-wave (km/s) = 6.75783 7.44103 7.10764
#
# Compressibility (1/GPa) = 0.01781050
#
# Stress axis : x y z
#
# Youngs Moduli (GPa) = 80.70933 79.00176 131.90618
#
# Poissons Ratio (x) = 0.28964 0.55916
# Poissons Ratio (y) = 0.29590 -0.06542
# Poissons Ratio (z) = 0.34213 -0.03918
#
# Static dielectric constant tensor:
#      x y z
#    x 1.635570 0.000000 0.000000 
#    y 0.000000 1.533060 0.000000 
#    z 0.000000 0.000000 1.695510 
# 
# From -- ./inp_files/35492.got.cif
#   From: 2010.05.17/outbox.cif.g08.bks.cpg/sg24_18_cif.got.tgz:35492.got - 2010.06.04 00:33:39.
