data_PCOD9334137
_publ_section_title
;
Structure prediction by ZEFSAII (Michael W. Deem and Ramdas Pophale) SiO2 
 PCOD9334137
Probable space group: I 21 21 21
;
_chemical_formula_sum "Si O2"
_cell_formula_units_Z 32
_cell_length_a 19.057275
_cell_length_b 6.313545
_cell_length_c 11.724481
_cell_angle_alpha 90.000000
_cell_angle_beta 90.000000
_cell_angle_gamma 90.000000
_cell_volume 1410.677399
_symmetry_space_group_name_H-M "I 21 21 21"
_symmetry_group_IT_number 24
_symmetry_cell_setting 'orthorhombic'
loop_
_space_group_symop_operation_xyz
x,y,z
-x,1/2-y,z
x,-y,1/2-z
1/2-x,y,-z
1/2+x,1/2+y,1/2+z
1/2-x,-y,1/2+z
1/2+x,1/2-y,-z
-x,1/2+y,1/2-z
loop_
_atom_site_type_symbol
_atom_site_label
_atom_site_fract_x
_atom_site_fract_y
_atom_site_fract_z
Si Si1 0.000000 0.250000 0.583803
Si Si2 0.437487 0.876190 0.567326
Si Si3 0.256955 0.500000 0.250000
Si Si4 0.122543 0.504099 0.580237
Si Si5 0.688294 0.332747 0.590889
O O1 0.973545 0.434205 0.501044
O O2 0.066083 0.355392 0.647139
O O3 0.500000 0.750000 0.634988
O O4 0.411371 0.709874 0.473470
O O5 0.367381 0.982195 0.618358
O O6 0.309333 0.567646 0.350221
O O7 0.217245 0.704384 0.200022
O O8 0.147648 0.351572 0.478355
O O9 0.750000 0.399915 0.500000
#
# Coordination Sequence:
#
# PCOD9334137 Si02
#       5
#     4   8   4   8   8
#     4   8  16  34  54  82 112 156 200 246 298 370
#     4   9  17  34  61  85 115 163 204 246 305 369
#     4  10  20  36  56  90 132 156 204 260 308 376
#     4   9  18  35  55  85 119 160 202 249 307 370
#     4   9  19  35  55  85 127 160 205 253 308 374
#
# _framework density 22.684135000000001
#
# number of rings (size 3 to 8) (size 9 to 14) (size 15 to 20)
#    0.000    3.000    0.000    0.000    0.000    3.000 
#    6.750   18.750    0.000    0.000  100.750    0.000 
#    0.000    0.000    0.000    0.000    0.000    0.000 
#
# Total GULP energy -89136.415551 kJ/mol
# GULP energy per Si atom -5571.025972 kJ/mol
# Density = 2.263251 g / cm^3
# Si number density = 22.684135 Si / 1000 Ang^3
#
#
#
# Elastic Constant Matrix: (Units=GPa)
#
#
# Indices 1 2 3 4 5 6 
#
# 1 159.8164 97.7047 43.6493 0.0000 0.0000 0.0000
# 2 97.7047 122.0085 44.1321 0.0000 0.0000 0.0000
# 3 43.6493 44.1321 56.0641 0.0000 0.0000 0.0000
# 4 0.0000 0.0000 0.0000 23.9676 0.0000 0.0000
# 5 0.0000 0.0000 0.0000 0.0000 -38.3782 0.0000
# 6 0.0000 0.0000 0.0000 0.0000 0.0000 73.3309
#
#
#
# Elastic Compliance Matrix: (Units=1/GPa)
#
#
# Indices 1 2 3 4 5 6 
#
# 1 0.012523 -0.009090 -0.002595 0.000000 0.000000 0.000000
# 2 -0.009090 0.018057 -0.007137 0.000000 0.000000 0.000000
# 3 -0.002595 -0.007137 0.025475 0.000000 0.000000 0.000000
# 4 0.000000 0.000000 0.000000 0.041723 0.000000 0.000000
# 5 0.000000 0.000000 0.000000 0.000000 -0.026056 0.000000
# 6 0.000000 0.000000 0.000000 0.000000 0.000000 0.013637
#
#
# Mechanical properties :
#
#
# Convention : Reuss Voigt Hill
#
# Bulk Modulus (GPa) = 54.31267 78.76235 66.53751
# Shear Modulus (GPa) = 38.71832 21.94424 30.33128
#
# Velocity S-wave (km/s) = 4.13588 3.11365 3.66062
# Velocity P-wave (km/s) = 6.84122 6.90819 6.87479
#
# Compressibility (1/GPa) = 0.01841191
#
# Stress axis : x y z
#
# Youngs Moduli (GPa) = 79.85287 55.38053 39.25476
#
# Poissons Ratio (x) = 0.50341 0.10185
# Poissons Ratio (y) = 0.72586 0.28015
# Poissons Ratio (z) = 0.20718 0.39524
#
# Static dielectric constant tensor:
#      x y z
#    x 1.976200 0.000000 0.000000 
#    y 0.000000 1.796480 0.000000 
#    z 0.000000 0.000000 1.868070 
# 
# From -- ./inp_files/3294.got.cif
#   From: 2010.05.17/outbox.cif.g08.bks.cpg/sg24_2_cif.got.tgz:3294.got - 2010.06.04 00:33:39.
