data_PCOD9334598
_publ_section_title
;
Structure prediction by ZEFSAII (Michael W. Deem and Ramdas Pophale) SiO2 
 PCOD9334598
Probable space group: I 21 21 21
;
_chemical_formula_sum "Si O2"
_cell_formula_units_Z 40
_cell_length_a 10.146469
_cell_length_b 8.527909
_cell_length_c 20.712433
_cell_angle_alpha 90.000000
_cell_angle_beta 90.000000
_cell_angle_gamma 90.000000
_cell_volume 1792.208806
_symmetry_space_group_name_H-M "I 21 21 21"
_symmetry_group_IT_number 24
_symmetry_cell_setting 'orthorhombic'
loop_
_space_group_symop_operation_xyz
x,y,z
-x,1/2-y,z
x,-y,1/2-z
1/2-x,y,-z
1/2+x,1/2+y,1/2+z
1/2-x,-y,1/2+z
1/2+x,1/2-y,-z
-x,1/2+y,1/2-z
loop_
_atom_site_type_symbol
_atom_site_label
_atom_site_fract_x
_atom_site_fract_y
_atom_site_fract_z
Si Si1 0.641182 0.711064 0.946584
Si Si2 0.430479 0.016607 0.327769
Si Si3 0.592793 0.000000 0.750000
Si Si4 0.000000 0.250000 0.154109
Si Si5 0.207772 0.353063 0.659778
Si Si6 0.726417 0.627605 0.577084
O O1 0.500000 0.750000 0.974148
O O2 0.689510 0.845055 0.898486
O O3 0.645462 0.536980 0.917530
O O4 0.750000 0.704331 0.000000
O O5 0.364769 0.185612 0.341233
O O6 0.587399 0.024495 0.341662
O O7 0.415214 0.000000 0.250000
O O8 0.354520 0.899693 0.376887
O O9 0.505878 0.902751 0.699877
O O10 0.695599 0.876157 0.780336
O O11 0.130025 0.251823 0.109963
O O12 0.750000 0.654980 0.500000
#
# Coordination Sequence:
#
# PCOD9334598 Si02
#       6
#     8   8   4   4   8   8
#     4  10  22  38  68  98 135 181 228 289 342 427
#     4  10  20  40  68  96 133 178 229 294 344 423
#     4  12  26  44  66 102 136 184 236 298 356 424
#     4  12  28  46  70 102 142 190 240 296 362 424
#     4  10  22  38  63  98 132 168 230 281 353 409
#     4  10  24  45  67  97 142 189 237 289 366 423
#
# _framework density 22.318826999999999
#
# number of rings (size 3 to 8) (size 9 to 14) (size 15 to 20)
#    0.000    1.600    1.000    2.400   16.800    0.000 
#    3.600    1.000    0.000    0.000    0.000    0.000 
#    0.000    0.000    0.000    0.000    0.000    0.000 
#
# Total GULP energy -111593.793943 kJ/mol
# GULP energy per Si atom -5579.689697 kJ/mol
# Density = 2.226803 g / cm^3
# Si number density = 22.318827 Si / 1000 Ang^3
#
#
#
# Elastic Constant Matrix: (Units=GPa)
#
#
# Indices 1 2 3 4 5 6 
#
# 1 98.1462 18.8372 40.5021 0.0000 0.0000 0.0000
# 2 18.8372 34.9407 33.0128 0.0000 0.0000 0.0000
# 3 40.5021 33.0128 121.3101 0.0000 0.0000 0.0000
# 4 0.0000 0.0000 0.0000 29.9451 0.0000 0.0000
# 5 0.0000 0.0000 0.0000 0.0000 2.0742 0.0000
# 6 0.0000 0.0000 0.0000 0.0000 0.0000 26.3226
#
#
#
# Elastic Compliance Matrix: (Units=1/GPa)
#
#
# Indices 1 2 3 4 5 6 
#
# 1 0.012155 -0.003660 -0.003062 0.000000 0.000000 0.000000
# 2 -0.003660 0.039628 -0.009562 0.000000 0.000000 0.000000
# 3 -0.003062 -0.009562 0.011868 0.000000 0.000000 0.000000
# 4 0.000000 0.000000 0.000000 0.033394 0.000000 0.000000
# 5 0.000000 0.000000 0.000000 0.000000 0.482116 0.000000
# 6 0.000000 0.000000 0.000000 0.000000 0.000000 0.037990
#
#
# Mechanical properties :
#
#
# Convention : Reuss Voigt Hill
#
# Bulk Modulus (GPa) = 32.17278 48.78904 40.48091
# Shear Modulus (GPa) = 7.57484 22.47136 15.02310
#
# Velocity S-wave (km/s) = 1.84426 3.17651 2.59726
# Velocity P-wave (km/s) = 4.35677 5.94652 5.21261
#
# Compressibility (1/GPa) = 0.03108217
#
# Stress axis : x y z
#
# Youngs Moduli (GPa) = 82.27067 25.23497 84.26038
#
# Poissons Ratio (x) = 0.09235 0.25803
# Poissons Ratio (y) = 0.30108 0.80572
# Poissons Ratio (z) = 0.25194 0.24130
#
# Static dielectric constant tensor:
#      x y z
#    x 1.707380 0.000000 0.000000 
#    y 0.000000 2.592280 0.000000 
#    z 0.000000 0.000000 0.948910 
# 
# From -- ./inp_files/9333.got.cif
#   From: 2010.05.17/outbox.cif.g08.bks.cpg/sg24_5_cif.got.tgz:9333.got - 2010.06.04 00:33:39.
