data_PCOD9334994
_publ_section_title
;
Structure prediction by ZEFSAII (Michael W. Deem and Ramdas Pophale) SiO2 
 PCOD9334994
Probable space group: I 21 21 21
;
_chemical_formula_sum "Si O2"
_cell_formula_units_Z 56
_cell_length_a 31.690630
_cell_length_b 6.259544
_cell_length_c 13.919249
_cell_angle_alpha 90.000000
_cell_angle_beta 90.000000
_cell_angle_gamma 90.000000
_cell_volume 2761.146014
_symmetry_space_group_name_H-M "I 21 21 21"
_symmetry_group_IT_number 24
_symmetry_cell_setting 'orthorhombic'
loop_
_space_group_symop_operation_xyz
x,y,z
-x,1/2-y,z
x,-y,1/2-z
1/2-x,y,-z
1/2+x,1/2+y,1/2+z
1/2-x,-y,1/2+z
1/2+x,1/2-y,-z
-x,1/2+y,1/2-z
loop_
_atom_site_type_symbol
_atom_site_label
_atom_site_fract_x
_atom_site_fract_y
_atom_site_fract_z
Si Si1 0.500000 0.250000 0.988383
Si Si2 0.431374 0.087817 0.492998
Si Si3 0.885269 0.916872 0.859562
Si Si4 0.711317 0.867766 0.152221
Si Si5 0.627176 0.790126 0.529701
Si Si6 0.938351 0.964973 0.137770
Si Si7 0.758702 0.500000 0.250000
Si Si8 0.723030 0.216909 0.920281
O O1 0.468884 0.381125 0.920927
O O2 0.530233 0.429195 0.036675
O O3 0.416206 0.237423 0.404450
O O4 0.443411 0.236593 0.584915
O O5 0.392102 0.945990 0.531579
O O6 0.836913 0.841666 0.881039
O O7 0.890958 0.000000 0.750000
O O8 0.889626 0.119635 0.928723
O O9 0.730105 0.640853 0.179919
O O10 0.705543 0.000000 0.250000
O O11 0.747160 0.009417 0.099079
O O12 0.677096 0.811163 0.535967
O O13 0.607798 0.942268 0.611610
O O14 0.946258 0.000000 0.250000
O O15 0.782952 0.338922 0.180365
O O16 0.750000 0.344367 0.000000
#
# Coordination Sequence:
#
# PCOD9334994 Si02
#       8
#     4   8   8   8   8   8   4   8
#     4  10  22  40  66 102 134 164 208 258 332 394
#     4  10  23  40  64 100 133 168 214 270 321 393
#     4  10  21  39  64  93 126 170 220 271 325 381
#     4   9  20  37  56  84 124 164 222 276 315 374
#     4  10  23  40  59  96 128 175 218 268 325 381
#     4  10  23  40  67  98 133 170 210 259 320 392
#     4  10  24  36  58  90 116 178 218 274 320 386
#     4  11  22  38  58  86 133 177 220 269 327 372
#
# _framework density 20.281435999999999
#
# number of rings (size 3 to 8) (size 9 to 14) (size 15 to 20)
#    0.000    2.000    1.429    0.429    4.000    8.000 
#    0.000    0.000    0.000    0.000  133.714    0.000 
#    0.000    0.000    0.000    0.000    0.000    0.000 
#
# Total GULP energy -155922.020974 kJ/mol
# GULP energy per Si atom -5568.643606 kJ/mol
# Density = 2.023527 g / cm^3
# Si number density = 20.281436 Si / 1000 Ang^3
#
#
#
# Elastic Constant Matrix: (Units=GPa)
#
#
# Indices 1 2 3 4 5 6 
#
# 1 115.5243 41.4289 29.2624 0.0000 0.0000 0.0000
# 2 41.4289 104.1573 49.2620 0.0000 0.0000 0.0000
# 3 29.2624 49.2620 98.1500 0.0000 0.0000 0.0000
# 4 0.0000 0.0000 0.0000 15.2829 0.0000 0.0000
# 5 0.0000 0.0000 0.0000 0.0000 14.3871 0.0000
# 6 0.0000 0.0000 0.0000 0.0000 0.0000 130.1009
#
#
#
# Elastic Compliance Matrix: (Units=1/GPa)
#
#
# Indices 1 2 3 4 5 6 
#
# 1 0.010225 -0.003442 -0.001321 0.000000 0.000000 0.000000
# 2 -0.003442 0.013748 -0.005874 0.000000 0.000000 0.000000
# 3 -0.001321 -0.005874 0.013530 0.000000 0.000000 0.000000
# 4 0.000000 0.000000 0.000000 0.065433 0.000000 0.000000
# 5 0.000000 0.000000 0.000000 0.000000 0.069507 0.000000
# 6 0.000000 0.000000 0.000000 0.000000 0.000000 0.007686
#
#
# Mechanical properties :
#
#
# Convention : Reuss Voigt Hill
#
# Bulk Modulus (GPa) = 61.61608 61.97092 61.79350
# Shear Modulus (GPa) = 24.17633 45.14607 34.66120
#
# Velocity S-wave (km/s) = 3.45634 4.72315 4.13850
# Velocity P-wave (km/s) = 6.80991 7.76956 7.30551
#
# Compressibility (1/GPa) = 0.01622953
#
# Stress axis : x y z
#
# Youngs Moduli (GPa) = 97.79700 72.73646 73.90739
#
# Poissons Ratio (x) = 0.25039 0.09761
# Poissons Ratio (y) = 0.33666 0.43413
# Poissons Ratio (z) = 0.12917 0.42725
#
# Static dielectric constant tensor:
#      x y z
#    x 1.749590 0.000000 0.000000 
#    y 0.000000 1.770050 0.000000 
#    z 0.000000 0.000000 1.678990 
# 
# From -- ./inp_files/28233.got.cif
#   From: 2010.05.17/outbox.cif.g08.bks.cpg/sg24_15_cif.got.tgz:28233.got - 2010.06.04 00:33:39.
