data_PCOD9334199
_publ_section_title
;
Structure prediction by ZEFSAII (Michael W. Deem and Ramdas Pophale) SiO2 
 PCOD9334199
Probable space group: I 21 21 21
;
_chemical_formula_sum "Si O2"
_cell_formula_units_Z 56
_cell_length_a 19.360885
_cell_length_b 12.447403
_cell_length_c 11.872228
_cell_angle_alpha 90.000000
_cell_angle_beta 90.000000
_cell_angle_gamma 90.000000
_cell_volume 2861.120732
_symmetry_space_group_name_H-M "I 21 21 21"
_symmetry_group_IT_number 24
_symmetry_cell_setting 'orthorhombic'
loop_
_space_group_symop_operation_xyz
x,y,z
-x,1/2-y,z
x,-y,1/2-z
1/2-x,y,-z
1/2+x,1/2+y,1/2+z
1/2-x,-y,1/2+z
1/2+x,1/2-y,-z
-x,1/2+y,1/2-z
loop_
_atom_site_type_symbol
_atom_site_label
_atom_site_fract_x
_atom_site_fract_y
_atom_site_fract_z
Si Si1 0.374971 0.612723 0.369522
Si Si2 0.970972 0.540539 0.631342
Si Si3 0.880964 0.616925 0.232732
Si Si4 0.691650 0.878208 0.142003
Si Si5 0.492094 0.624282 0.932685
Si Si6 0.580091 0.715735 0.529448
Si Si7 0.158992 0.320790 0.402788
O O1 0.455786 0.597376 0.340367
O O2 0.337046 0.661314 0.261004
O O3 0.340941 0.495530 0.382175
O O4 0.375984 0.685326 0.480431
O O5 0.942329 0.500000 0.750000
O O6 0.922885 0.624386 0.566368
O O7 0.991171 0.448938 0.540305
O O8 0.848142 0.500000 0.250000
O O9 0.893799 0.669336 0.353796
O O10 0.842877 0.706197 0.158244
O O11 0.953263 0.599238 0.165617
O O12 0.774209 0.884113 0.140296
O O13 0.668617 0.806314 0.036855
O O14 0.500000 0.750000 0.962793
O O15 0.413487 0.617093 0.888670
O O16 0.500000 0.750000 0.546203
#
# Coordination Sequence:
#
# PCOD9334199 Si02
#       7
#     8   8   8   8   8   8   8
#     4  10  20  40  59  84 136 153 201 262 311 373
#     4  11  19  34  58  93 124 168 203 251 325 377
#     4  11  22  42  62  86 127 163 209 261 312 382
#     4  10  20  41  62  91 119 166 205 262 308 382
#     4  10  20  36  62  91 122 163 208 261 310 381
#     4  10  22  37  56  92 129 163 202 257 318 376
#     4  10  21  38  65  90 119 163 214 250 318 362
#
# _framework density 19.572749000000002
#
# number of rings (size 3 to 8) (size 9 to 14) (size 15 to 20)
#    0.000    1.714    4.286    1.286    0.000    4.000 
#   12.857    0.000    6.286    0.000    0.000    0.000 
#    0.000    0.000    0.000    0.000    0.000    0.000 
#
# Total GULP energy -156258.806511 kJ/mol
# GULP energy per Si atom -5580.671661 kJ/mol
# Density = 1.952820 g / cm^3
# Si number density = 19.572749 Si / 1000 Ang^3
#
#
#
# Elastic Constant Matrix: (Units=GPa)
#
#
# Indices 1 2 3 4 5 6 
#
# 1 57.5874 5.0249 17.2282 0.0000 0.0000 0.0000
# 2 5.0249 77.1714 44.2219 0.0000 0.0000 0.0000
# 3 17.2282 44.2219 133.4167 0.0000 0.0000 0.0000
# 4 0.0000 0.0000 0.0000 48.4191 0.0000 0.0000
# 5 0.0000 0.0000 0.0000 0.0000 17.6857 0.0000
# 6 0.0000 0.0000 0.0000 0.0000 0.0000 7.0772
#
#
#
# Elastic Compliance Matrix: (Units=1/GPa)
#
#
# Indices 1 2 3 4 5 6 
#
# 1 0.018065 0.000198 -0.002398 0.000000 0.000000 0.000000
# 2 0.000198 0.015999 -0.005328 0.000000 0.000000 0.000000
# 3 -0.002398 -0.005328 0.009571 0.000000 0.000000 0.000000
# 4 0.000000 0.000000 0.000000 0.020653 0.000000 0.000000
# 5 0.000000 0.000000 0.000000 0.000000 0.056543 0.000000
# 6 0.000000 0.000000 0.000000 0.000000 0.000000 0.141300
#
#
# Mechanical properties :
#
#
# Convention : Reuss Voigt Hill
#
# Bulk Modulus (GPa) = 34.99262 44.56948 39.78105
# Shear Modulus (GPa) = 17.43900 28.08309 22.76105
#
# Velocity S-wave (km/s) = 2.98817 3.79199 3.41382
# Velocity P-wave (km/s) = 5.46101 6.48019 5.99231
#
# Compressibility (1/GPa) = 0.02857746
#
# Stress axis : x y z
#
# Youngs Moduli (GPa) = 55.35514 62.50526 104.48040
#
# Poissons Ratio (x) = -0.01238 0.25059
# Poissons Ratio (y) = -0.01097 0.55672
# Poissons Ratio (z) = 0.13277 0.33306
#
# Static dielectric constant tensor:
#      x y z
#    x 1.692460 0.000000 0.000000 
#    y 0.000000 1.712370 0.000000 
#    z 0.000000 0.000000 1.691660 
# 
# From -- ./inp_files/22193.got.cif
#   From: 2010.05.17/outbox.cif.g08.bks.cpg/sg24_12_cif.got.tgz:22193.got - 2010.06.04 00:33:39.
