data_PCOD9334971
_publ_section_title
;
Structure prediction by ZEFSAII (Michael W. Deem and Ramdas Pophale) SiO2 
 PCOD9334971
Probable space group: I 21 21 21
;
_chemical_formula_sum "Si O2"
_cell_formula_units_Z 36
_cell_length_a 11.909025
_cell_length_b 25.448478
_cell_length_c 5.396754
_cell_angle_alpha 90.000000
_cell_angle_beta 90.000000
_cell_angle_gamma 90.000000
_cell_volume 1635.575674
_symmetry_space_group_name_H-M "I 21 21 21"
_symmetry_group_IT_number 24
_symmetry_cell_setting 'orthorhombic'
loop_
_space_group_symop_operation_xyz
x,y,z
-x,1/2-y,z
x,-y,1/2-z
1/2-x,y,-z
1/2+x,1/2+y,1/2+z
1/2-x,-y,1/2+z
1/2+x,1/2-y,-z
-x,1/2+y,1/2-z
loop_
_atom_site_type_symbol
_atom_site_label
_atom_site_fract_x
_atom_site_fract_y
_atom_site_fract_z
Si Si1 0.175298 0.718109 0.780489
Si Si2 0.067647 0.111772 0.266825
Si Si3 0.180001 0.000000 0.250000
Si Si4 0.578132 0.673795 0.264354
Si Si5 0.300185 0.608313 0.746662
O O1 0.138209 0.772099 0.650322
O O2 0.259187 0.669289 0.732638
O O3 0.053756 0.689136 0.786816
O O4 0.250000 0.742763 0.000000
O O5 0.110661 0.052924 0.292922
O O6 0.108957 0.146609 0.501670
O O7 0.932646 0.109331 0.263893
O O8 0.095446 0.135474 0.996630
O O9 0.250000 0.991401 0.500000
O O10 0.250000 0.582531 0.500000
O O11 0.250000 0.586084 0.000000
#
# Coordination Sequence:
#
# PCOD9334971 Si02
#       5
#     8   8   4   8   8
#     4  10  21  39  62 101 147 193 221 275 344 415
#     4  12  24  48  71 100 135 188 243 293 351 418
#     4  12  30  54  80  98 132 182 244 314 358 406
#     4  11  24  38  69 101 142 190 234 272 348 428
#     4  11  20  39  65  96 142 181 215 282 345 404
#
# _framework density 22.0106
#
# number of rings (size 3 to 8) (size 9 to 14) (size 15 to 20)
#    0.000    0.889    6.667    1.333    0.000    9.778 
#    0.000    1.111    0.000    0.000    0.000    0.000 
#    0.000    0.000    0.000    0.000    0.000    0.000 
#
# Total GULP energy -100222.556476 kJ/mol
# GULP energy per Si atom -5567.919804 kJ/mol
# Density = 2.196050 g / cm^3
# Si number density = 22.010600 Si / 1000 Ang^3
#
#
#
# Elastic Constant Matrix: (Units=GPa)
#
#
# Indices 1 2 3 4 5 6 
#
# 1 98.3867 44.0067 12.3371 0.0053 -0.0032 -0.0101
# 2 44.0067 107.5756 20.5636 -0.0037 -0.0040 0.0063
# 3 12.3371 20.5636 156.2624 0.0170 -0.0233 0.0618
# 4 0.0053 -0.0037 0.0170 28.8840 -0.0472 0.0182
# 5 -0.0032 -0.0040 -0.0233 -0.0472 18.9643 -0.0181
# 6 -0.0101 0.0063 0.0618 0.0182 -0.0181 1.0588
#
#
#
# Elastic Compliance Matrix: (Units=1/GPa)
#
#
# Indices 1 2 3 4 5 6 
#
# 1 0.012456 -0.005034 -0.000321 -0.000003 0.000001 0.000167
# 2 -0.005034 0.011570 -0.001125 0.000003 0.000000 -0.000051
# 3 -0.000321 -0.001125 0.006573 -0.000004 0.000007 -0.000380
# 4 -0.000003 0.000003 -0.000004 0.034622 0.000086 -0.000594
# 5 0.000001 0.000000 0.000007 0.000086 0.052732 0.000902
# 6 0.000167 -0.000051 -0.000380 -0.000594 0.000902 0.944558
#
#
# Mechanical properties :
#
#
# Convention : Reuss Voigt Hill
#
# Bulk Modulus (GPa) = 56.69345 57.33772 57.01559
# Shear Modulus (GPa) = 4.62385 28.80256 16.71320
#
# Velocity S-wave (km/s) = 1.45096 3.62135 2.75857
# Velocity P-wave (km/s) = 5.34980 6.60244 6.00885
#
# Compressibility (1/GPa) = 0.01763872
#
# Stress axis : x y z
#
# Youngs Moduli (GPa) = 80.28329 86.42900 152.13633
#
# Poissons Ratio (x) = 0.43509 0.04884
# Poissons Ratio (y) = 0.40415 0.17117
# Poissons Ratio (z) = 0.02577 0.09724
#
# Static dielectric constant tensor:
#      x y z
#    x 1.852020 -0.000030 -0.000010 
#    y -0.000030 1.716760 0.000000 
#    z -0.000010 0.000000 1.958500 
# 
# From -- ./inp_files/2277.got.cif
#   From: 2010.05.17/outbox.cif.g08.bks.cpg/sg24_2_cif.got.tgz:2277.got - 2010.06.04 00:33:39.
