data_PCOD9334904
_publ_section_title
;
Structure prediction by ZEFSAII (Michael W. Deem and Ramdas Pophale) SiO2 
 PCOD9334904
Probable space group: I 21 21 21
;
_chemical_formula_sum "Si O2"
_cell_formula_units_Z 48
_cell_length_a 14.240496
_cell_length_b 5.547472
_cell_length_c 27.763345
_cell_angle_alpha 90.000000
_cell_angle_beta 90.000000
_cell_angle_gamma 90.000000
_cell_volume 2193.269629
_symmetry_space_group_name_H-M "I 21 21 21"
_symmetry_group_IT_number 24
_symmetry_cell_setting 'orthorhombic'
loop_
_space_group_symop_operation_xyz
x,y,z
-x,1/2-y,z
x,-y,1/2-z
1/2-x,y,-z
1/2+x,1/2+y,1/2+z
1/2-x,-y,1/2+z
1/2+x,1/2-y,-z
-x,1/2+y,1/2-z
loop_
_atom_site_type_symbol
_atom_site_label
_atom_site_fract_x
_atom_site_fract_y
_atom_site_fract_z
Si Si1 0.678627 0.171754 0.168260
Si Si2 0.906752 0.871291 0.450752
Si Si3 0.555743 0.000000 0.250000
Si Si4 0.684837 0.216812 0.671523
Si Si5 0.762220 0.541810 0.587628
Si Si6 0.267833 0.000000 0.250000
Si Si7 0.750000 0.208774 0.500000
Si Si8 0.000000 0.250000 0.377361
O O1 0.667727 0.266376 0.113605
O O2 0.675686 0.390933 0.205855
O O3 0.614258 0.989262 0.199092
O O4 0.783608 0.059687 0.167468
O O5 0.835204 0.674076 0.427997
O O6 0.000000 0.750000 0.474626
O O7 0.835503 0.040972 0.481154
O O8 0.955143 0.042439 0.410612
O O9 0.500000 0.750000 0.251847
O O10 0.745000 0.347233 0.629608
O O11 0.707278 0.295357 0.725277
O O12 0.583848 0.312958 0.657860
O O13 0.789700 0.386708 0.541277
#
# Coordination Sequence:
#
# PCOD9334904 Si02
#       8
#     8   8   4   8   8   4   4   4
#     4  11  22  43  72 106 140 190 250 307 380 447
#     4  12  23  43  69 108 142 187 249 313 373 467
#     4  12  27  46  77 116 148 206 266 325 388 461
#     4  11  21  39  65 101 143 186 231 297 363 455
#     4  11  23  40  74 102 140 190 243 304 376 455
#     4  10  21  38  61 100 140 192 224 289 370 457
#     4  12  24  44  70 112 138 206 252 298 396 452
#     4  12  22  40  64 108 132 186 236 292 364 444
#
# _framework density 21.885134000000001
#
# number of rings (size 3 to 8) (size 9 to 14) (size 15 to 20)
#    0.000    0.667    6.667    1.000    2.333    0.000 
#    3.000    0.000    0.000   21.000    0.000    0.000 
#    0.000    0.000    0.000    0.000    0.000    0.000 
#
# Total GULP energy -133610.326454 kJ/mol
# GULP energy per Si atom -5567.096936 kJ/mol
# Density = 2.183532 g / cm^3
# Si number density = 21.885134 Si / 1000 Ang^3
#
#
#
# Elastic Constant Matrix: (Units=GPa)
#
#
# Indices 1 2 3 4 5 6 
#
# 1 89.0773 38.8559 43.8279 0.0000 0.0000 0.0000
# 2 38.8559 89.6780 41.2640 0.0000 0.0000 0.0000
# 3 43.8279 41.2640 119.8268 0.0000 0.0000 0.0000
# 4 0.0000 0.0000 0.0000 30.7976 0.0000 0.0000
# 5 0.0000 0.0000 0.0000 0.0000 25.6643 0.0000
# 6 0.0000 0.0000 0.0000 0.0000 0.0000 35.7988
#
#
#
# Elastic Compliance Matrix: (Units=1/GPa)
#
#
# Indices 1 2 3 4 5 6 
#
# 1 0.015252 -0.004803 -0.003925 0.000000 0.000000 0.000000
# 2 -0.004803 0.014763 -0.003327 0.000000 0.000000 0.000000
# 3 -0.003925 -0.003327 0.010927 0.000000 0.000000 0.000000
# 4 0.000000 0.000000 0.000000 0.032470 0.000000 0.000000
# 5 0.000000 0.000000 0.000000 0.000000 0.038965 0.000000
# 6 0.000000 0.000000 0.000000 0.000000 0.000000 0.027934
#
#
# Mechanical properties :
#
#
# Convention : Reuss Voigt Hill
#
# Bulk Modulus (GPa) = 59.40867 60.71974 60.06421
# Shear Modulus (GPa) = 29.40653 30.09444 29.75049
#
# Velocity S-wave (km/s) = 3.66960 3.71227 3.69099
# Velocity P-wave (km/s) = 6.72006 6.79555 6.75791
#
# Compressibility (1/GPa) = 0.01683256
#
# Stress axis : x y z
#
# Youngs Moduli (GPa) = 65.56436 67.73772 91.51907
#
# Poissons Ratio (x) = 0.32531 0.35920
# Poissons Ratio (y) = 0.31488 0.30450
# Poissons Ratio (z) = 0.25733 0.22538
#
# Static dielectric constant tensor:
#      x y z
#    x 1.901250 0.000000 0.000000 
#    y 0.000000 1.911170 0.000000 
#    z 0.000000 0.000000 1.832160 
# 
# From -- ./inp_files/37404.got.cif
#   From: 2010.05.17/outbox.cif.g08.bks.cpg/sg24_19_cif.got.tgz:37404.got - 2010.06.04 00:33:39.
