data_PCOD9334190
_publ_section_title
;
Structure prediction by ZEFSAII (Michael W. Deem and Ramdas Pophale) SiO2 
 PCOD9334190
Probable space group: I 21 21 21
;
_chemical_formula_sum "Si O2"
_cell_formula_units_Z 48
_cell_length_a 10.157467
_cell_length_b 14.661027
_cell_length_c 15.656584
_cell_angle_alpha 90.000000
_cell_angle_beta 90.000000
_cell_angle_gamma 90.000000
_cell_volume 2331.561235
_symmetry_space_group_name_H-M "I 21 21 21"
_symmetry_group_IT_number 24
_symmetry_cell_setting 'orthorhombic'
loop_
_space_group_symop_operation_xyz
x,y,z
-x,1/2-y,z
x,-y,1/2-z
1/2-x,y,-z
1/2+x,1/2+y,1/2+z
1/2-x,-y,1/2+z
1/2+x,1/2-y,-z
-x,1/2+y,1/2-z
loop_
_atom_site_type_symbol
_atom_site_label
_atom_site_fract_x
_atom_site_fract_y
_atom_site_fract_z
Si Si1 0.980687 0.056947 0.939838
Si Si2 0.793142 0.249182 0.700946
Si Si3 0.217585 0.544646 0.836060
Si Si4 0.210733 0.928841 0.898953
Si Si5 0.500000 0.750000 0.352601
Si Si6 0.500000 0.250000 0.644709
Si Si7 0.992191 0.547429 0.111622
O O1 0.988069 0.160987 0.911704
O O2 0.096201 0.002029 0.891090
O O3 0.843572 0.012445 0.912124
O O4 0.001266 0.027241 0.037181
O O5 0.822305 0.150104 0.661163
O O6 0.831928 0.332448 0.639699
O O7 0.632719 0.251982 0.701814
O O8 0.873024 0.255948 0.789350
O O9 0.163748 0.500000 0.750000
O O10 0.375031 0.536449 0.835822
O O11 0.345143 0.959743 0.852132
O O12 0.250000 0.920429 0.000000
O O13 0.499887 0.156834 0.589090
#
# Coordination Sequence:
#
# PCOD9334190 Si02
#       7
#     8   8   8   8   4   4   8
#     4  11  23  39  60  87 124 162 208 243 303 367
#     4  10  20  36  61  88 125 151 195 255 307 364
#     4  11  21  38  59  91 124 157 201 248 311 365
#     4   9  20  39  63  91 118 150 203 257 315 358
#     4  12  24  40  57  87 126 172 206 242 298 371
#     4   8  18  38  65  95 120 148 200 260 326 353
#     4   9  20  40  63  89 123 156 200 255 305 366
#
# _framework density 20.587064000000002
#
# number of rings (size 3 to 8) (size 9 to 14) (size 15 to 20)
#    0.000    2.000    1.667    1.500    0.000    5.333 
#    9.000    5.833    0.000    0.000    0.000    0.000 
#    0.000    0.000    0.000    0.000    0.000    0.000 
#
# Total GULP energy -133764.062265 kJ/mol
# GULP energy per Si atom -5573.502594 kJ/mol
# Density = 2.054021 g / cm^3
# Si number density = 20.587064 Si / 1000 Ang^3
#
#
#
# Elastic Constant Matrix: (Units=GPa)
#
#
# Indices 1 2 3 4 5 6 
#
# 1 73.0329 40.4020 13.7788 0.0000 0.0000 0.0000
# 2 40.4020 172.4711 64.3828 0.0000 0.0000 0.0000
# 3 13.7788 64.3828 57.3797 0.0000 0.0000 0.0000
# 4 0.0000 0.0000 0.0000 30.8978 0.0000 0.0000
# 5 0.0000 0.0000 0.0000 0.0000 21.7593 0.0000
# 6 0.0000 0.0000 0.0000 0.0000 0.0000 11.0724
#
#
#
# Elastic Compliance Matrix: (Units=1/GPa)
#
#
# Indices 1 2 3 4 5 6 
#
# 1 0.015744 -0.003918 0.000615 0.000000 0.000000 0.000000
# 2 -0.003918 0.010952 -0.011348 0.000000 0.000000 0.000000
# 3 0.000615 -0.011348 0.030013 0.000000 0.000000 0.000000
# 4 0.000000 0.000000 0.000000 0.032365 0.000000 0.000000
# 5 0.000000 0.000000 0.000000 0.000000 0.045957 0.000000
# 6 0.000000 0.000000 0.000000 0.000000 0.000000 0.090315
#
#
# Mechanical properties :
#
#
# Convention : Reuss Voigt Hill
#
# Bulk Modulus (GPa) = 36.48589 60.00122 48.24356
# Shear Modulus (GPa) = 18.95509 25.03391 21.99450
#
# Velocity S-wave (km/s) = 3.03764 3.49090 3.27213
# Velocity P-wave (km/s) = 5.48309 6.74218 6.14496
#
# Compressibility (1/GPa) = 0.02740785
#
# Stress axis : x y z
#
# Youngs Moduli (GPa) = 63.51771 91.30854 33.31916
#
# Poissons Ratio (x) = 0.35772 -0.02050
# Poissons Ratio (y) = 0.24884 0.37810
# Poissons Ratio (z) = -0.03908 1.03615
#
# Static dielectric constant tensor:
#      x y z
#    x 1.796950 0.000000 0.000000 
#    y 0.000000 1.722010 0.000000 
#    z 0.000000 0.000000 1.796030 
# 
# From -- ./inp_files/25750.got.cif
#   From: 2010.05.17/outbox.cif.g08.bks.cpg/sg24_13_cif.got.tgz:25750.got - 2010.06.04 00:33:39.
