data_PCOD9334615
_publ_section_title
;
Structure prediction by ZEFSAII (Michael W. Deem and Ramdas Pophale) SiO2 
 PCOD9334615
Probable space group: I 21 21 21
;
_chemical_formula_sum "Si O2"
_cell_formula_units_Z 36
_cell_length_a 12.929491
_cell_length_b 10.369015
_cell_length_c 12.192484
_cell_angle_alpha 90.000000
_cell_angle_beta 90.000000
_cell_angle_gamma 90.000000
_cell_volume 1634.598610
_symmetry_space_group_name_H-M "I 21 21 21"
_symmetry_group_IT_number 24
_symmetry_cell_setting 'orthorhombic'
loop_
_space_group_symop_operation_xyz
x,y,z
-x,1/2-y,z
x,-y,1/2-z
1/2-x,y,-z
1/2+x,1/2+y,1/2+z
1/2-x,-y,1/2+z
1/2+x,1/2-y,-z
-x,1/2+y,1/2-z
loop_
_atom_site_type_symbol
_atom_site_label
_atom_site_fract_x
_atom_site_fract_y
_atom_site_fract_z
Si Si1 0.369267 0.028612 0.377739
Si Si2 0.500000 0.750000 0.814163
Si Si3 0.250000 0.242568 0.500000
Si Si4 0.669384 0.119716 0.830112
Si Si5 0.750000 0.688537 0.500000
Si Si6 0.945660 0.932798 0.018370
O O1 0.339271 0.911056 0.460380
O O2 0.359014 0.000000 0.250000
O O3 0.292038 0.146471 0.406350
O O4 0.488420 0.060181 0.408722
O O5 0.595995 0.792128 0.742976
O O6 0.476757 0.870744 0.892382
O O7 0.347407 0.337551 0.515936
O O8 0.742928 0.215673 0.895455
O O9 0.705144 0.000000 0.750000
O O10 0.599072 0.060034 0.927145
#
# Coordination Sequence:
#
# PCOD9334615 Si02
#       6
#     8   4   4   8   4   8
#     4  11  26  44  72 105 146 192 228 308 368 426
#     4  10  20  40  70  94 138 178 236 288 350 418
#     4  11  23  46  74  98 145 189 246 280 356 449
#     4  10  23  40  68 100 132 189 231 298 352 419
#     4  11  25  46  66 108 145 179 250 292 358 451
#     4  11  22  46  70 102 140 182 243 293 351 438
#
# _framework density 22.023755000000001
#
# number of rings (size 3 to 8) (size 9 to 14) (size 15 to 20)
#    0.000    1.333    2.222    2.000    6.222    0.000 
#    8.000    3.333    0.000    0.000    0.000    0.000 
#    0.000    0.000    0.000    0.000    0.000    0.000 
#
# Total GULP energy -100364.340102 kJ/mol
# GULP energy per Si atom -5575.796672 kJ/mol
# Density = 2.197363 g / cm^3
# Si number density = 22.023755 Si / 1000 Ang^3
#
#
#
# Elastic Constant Matrix: (Units=GPa)
#
#
# Indices 1 2 3 4 5 6 
#
# 1 93.1401 50.0360 42.1318 0.0000 0.0000 0.0000
# 2 50.0360 94.2808 31.4654 0.0000 0.0000 0.0000
# 3 42.1318 31.4654 116.9569 0.0000 0.0000 0.0000
# 4 0.0000 0.0000 0.0000 40.0518 0.0000 0.0000
# 5 0.0000 0.0000 0.0000 0.0000 32.5621 0.0000
# 6 0.0000 0.0000 0.0000 0.0000 0.0000 17.3273
#
#
#
# Elastic Compliance Matrix: (Units=1/GPa)
#
#
# Indices 1 2 3 4 5 6 
#
# 1 0.016526 -0.007453 -0.003948 0.000000 0.000000 0.000000
# 2 -0.007453 0.015014 -0.001354 0.000000 0.000000 0.000000
# 3 -0.003948 -0.001354 0.010337 0.000000 0.000000 0.000000
# 4 0.000000 0.000000 0.000000 0.024968 0.000000 0.000000
# 5 0.000000 0.000000 0.000000 0.000000 0.030711 0.000000
# 6 0.000000 0.000000 0.000000 0.000000 0.000000 0.057712
#
#
# Mechanical properties :
#
#
# Convention : Reuss Voigt Hill
#
# Bulk Modulus (GPa) = 61.10302 61.29378 61.19840
# Shear Modulus (GPa) = 26.84786 30.03788 28.44287
#
# Velocity S-wave (km/s) = 3.49526 3.69709 3.59759
# Velocity P-wave (km/s) = 6.64030 6.79086 6.71600
#
# Compressibility (1/GPa) = 0.01636580
#
# Stress axis : x y z
#
# Youngs Moduli (GPa) = 60.50941 66.60411 96.74138
#
# Poissons Ratio (x) = 0.49640 0.38196
# Poissons Ratio (y) = 0.45098 0.13103
# Poissons Ratio (z) = 0.23890 0.09021
#
# Static dielectric constant tensor:
#      x y z
#    x 1.909060 0.000000 0.000000 
#    y 0.000000 1.828960 0.000000 
#    z 0.000000 0.000000 1.850520 
# 
# From -- ./inp_files/19235.got.cif
#   From: 2010.05.17/outbox.cif.g08.bks.cpg/sg24_10_cif.got.tgz:19235.got - 2010.06.04 00:33:39.
