data_PCOD9334718
_publ_section_title
;
Structure prediction by ZEFSAII (Michael W. Deem and Ramdas Pophale) SiO2 
 PCOD9334718
Probable space group: I 21 21 21
;
_chemical_formula_sum "Si O2"
_cell_formula_units_Z 64
_cell_length_a 25.800719
_cell_length_b 16.851699
_cell_length_c 8.959083
_cell_angle_alpha 90.000000
_cell_angle_beta 90.000000
_cell_angle_gamma 90.000000
_cell_volume 3895.283418
_symmetry_space_group_name_H-M "I 21 21 21"
_symmetry_group_IT_number 24
_symmetry_cell_setting 'orthorhombic'
loop_
_space_group_symop_operation_xyz
x,y,z
-x,1/2-y,z
x,-y,1/2-z
1/2-x,y,-z
1/2+x,1/2+y,1/2+z
1/2-x,-y,1/2+z
1/2+x,1/2-y,-z
-x,1/2+y,1/2-z
loop_
_atom_site_type_symbol
_atom_site_label
_atom_site_fract_x
_atom_site_fract_y
_atom_site_fract_z
Si Si1 0.037638 0.685383 0.973194
Si Si2 0.872187 0.075039 0.949070
Si Si3 0.022376 0.907984 0.210232
Si Si4 0.542155 0.189739 0.958952
Si Si5 0.704998 0.209726 0.602628
Si Si6 0.219562 0.580987 0.343064
Si Si7 0.362654 0.607761 0.127986
Si Si8 0.102831 0.782711 0.221401
O O1 0.067334 0.733882 0.103806
O O2 0.000000 0.750000 0.901306
O O3 0.005162 0.615761 0.054088
O O4 0.082973 0.653189 0.871954
O O5 0.843260 0.104062 0.798055
O O6 0.875143 0.980829 0.927199
O O7 0.926176 0.121649 0.956431
O O8 0.840064 0.087652 0.100392
O O9 0.080267 0.871447 0.212712
O O10 0.990765 0.857211 0.333218
O O11 0.020038 0.000000 0.250000
O O12 0.500000 0.250000 0.030280
O O13 0.586289 0.243908 0.878890
O O14 0.750000 0.246869 0.500000
O O15 0.728109 0.155504 0.734869
O O16 0.674854 0.149571 0.490215
O O17 0.661799 0.267634 0.673148
O O18 0.227894 0.500000 0.250000
O O19 0.250000 0.577970 0.500000
#
# Coordination Sequence:
#
# PCOD9334718 Si02
#       8
#     8   8   8   8   8   8   8   8
#     4   8  15  28  44  64  94 128 161 199 232 282
#     4  11  21  32  45  68  97 132 163 204 235 286
#     4   9  15  25  48  73  98 123 161 200 247 289
#     4   9  17  30  46  68  99 132 163 198 240 286
#     4  11  20  35  51  66  93 130 163 206 245 288
#     4  12  24  34  50  69  96 129 169 204 244 288
#     4  10  21  31  45  67  98 128 169 195 240 287
#     4   8  16  29  44  70  94 122 160 202 241 289
#
# _framework density 16.430126999999999
#
# number of rings (size 3 to 8) (size 9 to 14) (size 15 to 20)
#    0.000    2.250    2.500    3.375    1.750    1.000 
#    0.000    0.000    0.000    0.000    0.000    0.875 
#    0.000    0.000    0.000    0.000    0.000    0.000 
#
# Total GULP energy -178213.909242 kJ/mol
# GULP energy per Si atom -5569.184664 kJ/mol
# Density = 1.639273 g / cm^3
# Si number density = 16.430127 Si / 1000 Ang^3
#
#
#
# Elastic Constant Matrix: (Units=GPa)
#
#
# Indices 1 2 3 4 5 6 
#
# 1 84.1425 29.9193 22.1274 0.0000 0.0000 0.0000
# 2 29.9193 54.9466 5.4379 0.0000 0.0000 0.0000
# 3 22.1274 5.4379 57.0385 0.0000 0.0000 0.0000
# 4 0.0000 0.0000 0.0000 12.3650 0.0000 0.0000
# 5 0.0000 0.0000 0.0000 0.0000 24.5319 0.0000
# 6 0.0000 0.0000 0.0000 0.0000 0.0000 19.9921
#
#
#
# Elastic Compliance Matrix: (Units=1/GPa)
#
#
# Indices 1 2 3 4 5 6 
#
# 1 0.016300 -0.008328 -0.005529 0.000000 0.000000 0.000000
# 2 -0.008328 0.022628 0.001074 0.000000 0.000000 0.000000
# 3 -0.005529 0.001074 0.019575 0.000000 0.000000 0.000000
# 4 0.000000 0.000000 0.000000 0.080873 0.000000 0.000000
# 5 0.000000 0.000000 0.000000 0.000000 0.040763 0.000000
# 6 0.000000 0.000000 0.000000 0.000000 0.000000 0.050020
#
#
# Mechanical properties :
#
#
# Convention : Reuss Voigt Hill
#
# Bulk Modulus (GPa) = 30.36324 34.56630 32.46477
# Shear Modulus (GPa) = 18.74722 20.62066 19.68394
#
# Velocity S-wave (km/s) = 3.38157 3.54651 3.46503
# Velocity P-wave (km/s) = 5.81094 6.15259 5.98421
#
# Compressibility (1/GPa) = 0.03293456
#
# Stress axis : x y z
#
# Youngs Moduli (GPa) = 61.34920 44.19262 51.08622
#
# Poissons Ratio (x) = 0.36806 0.28248
# Poissons Ratio (y) = 0.51094 -0.05485
# Poissons Ratio (z) = 0.33923 -0.04745
#
# Static dielectric constant tensor:
#      x y z
#    x 1.603900 0.000000 0.000000 
#    y 0.000000 1.533160 0.000000 
#    z 0.000000 0.000000 1.582580 
# 
# From -- ./inp_files/16107.got.cif
#   From: 2010.05.17/outbox.cif.g08.bks.cpg/sg24_9_cif.got.tgz:16107.got - 2010.06.04 00:33:39.
