data_PCOD9334647
_publ_section_title
;
Structure prediction by ZEFSAII (Michael W. Deem and Ramdas Pophale) SiO2 
 PCOD9334647
Probable space group: I 21 21 21
;
_chemical_formula_sum "Si O2"
_cell_formula_units_Z 48
_cell_length_a 7.989026
_cell_length_b 16.297687
_cell_length_c 15.089363
_cell_angle_alpha 90.000000
_cell_angle_beta 90.000000
_cell_angle_gamma 90.000000
_cell_volume 1964.674977
_symmetry_space_group_name_H-M "I 21 21 21"
_symmetry_group_IT_number 24
_symmetry_cell_setting 'orthorhombic'
loop_
_space_group_symop_operation_xyz
x,y,z
-x,1/2-y,z
x,-y,1/2-z
1/2-x,y,-z
1/2+x,1/2+y,1/2+z
1/2-x,-y,1/2+z
1/2+x,1/2-y,-z
-x,1/2+y,1/2-z
loop_
_atom_site_type_symbol
_atom_site_label
_atom_site_fract_x
_atom_site_fract_y
_atom_site_fract_z
Si Si1 0.084119 0.515136 0.946204
Si Si2 0.093071 0.949581 0.125428
Si Si3 0.298763 0.262423 0.790868
Si Si4 0.802959 0.606171 0.601799
Si Si5 0.760453 0.087425 0.715207
Si Si6 0.306805 0.777469 0.900724
O O1 0.135276 0.586262 0.877597
O O2 0.977758 0.441025 0.905163
O O3 0.250000 0.487898 0.000000
O O4 0.965918 0.549905 0.023558
O O5 0.214957 0.872005 0.128710
O O6 0.932641 0.926274 0.183593
O O7 0.176505 0.037496 0.142546
O O8 0.500000 0.250000 0.798040
O O9 0.209576 0.190084 0.843204
O O10 0.251686 0.356504 0.804437
O O11 0.241237 0.267626 0.687049
O O12 0.750000 0.623808 0.500000
O O13 0.821638 0.000000 0.750000
O O14 0.500000 0.750000 0.901200
O O15 0.250000 0.762172 0.000000
#
# Coordination Sequence:
#
# PCOD9334647 Si02
#       6
#     8   8   8   8   8   8
#     4   9  21  41  71  99 136 188 240 298 367 444
#     4  10  20  41  69  95 133 182 240 293 369 430
#     4  11  23  43  69 111 139 188 242 305 378 435
#     4  10  22  45  75 106 138 185 252 304 361 441
#     4  11  22  41  65  94 138 186 230 290 370 444
#     4  11  23  38  62 101 143 181 232 294 371 438
#
# _framework density 24.431522000000001
#
# number of rings (size 3 to 8) (size 9 to 14) (size 15 to 20)
#    0.000    1.667    3.333    2.500    2.333    0.000 
#    6.000    6.667    0.000    0.000    0.000    0.000 
#    0.000    0.000    0.000    0.000    0.000    0.000 
#
# Total GULP energy -133921.514075 kJ/mol
# GULP energy per Si atom -5580.063086 kJ/mol
# Density = 2.437591 g / cm^3
# Si number density = 24.431522 Si / 1000 Ang^3
#
#
#
# Elastic Constant Matrix: (Units=GPa)
#
#
# Indices 1 2 3 4 5 6 
#
# 1 79.3058 46.8654 41.3433 0.0000 0.0000 0.0000
# 2 46.8654 94.5527 14.0760 0.0000 0.0000 0.0000
# 3 41.3433 14.0760 58.3356 0.0000 0.0000 0.0000
# 4 0.0000 0.0000 0.0000 33.7902 0.0000 0.0000
# 5 0.0000 0.0000 0.0000 0.0000 39.4679 0.0000
# 6 0.0000 0.0000 0.0000 0.0000 0.0000 42.3783
#
#
#
# Elastic Compliance Matrix: (Units=1/GPa)
#
#
# Indices 1 2 3 4 5 6 
#
# 1 0.028509 -0.011537 -0.017421 0.000000 0.000000 0.000000
# 2 -0.011537 0.015639 0.004403 0.000000 0.000000 0.000000
# 3 -0.017421 0.004403 0.028426 0.000000 0.000000 0.000000
# 4 0.000000 0.000000 0.000000 0.029594 0.000000 0.000000
# 5 0.000000 0.000000 0.000000 0.000000 0.025337 0.000000
# 6 0.000000 0.000000 0.000000 0.000000 0.000000 0.023597
#
#
# Mechanical properties :
#
#
# Convention : Reuss Voigt Hill
#
# Bulk Modulus (GPa) = 42.61833 48.52927 45.57380
# Shear Modulus (GPa) = 24.03450 31.78791 27.91120
#
# Velocity S-wave (km/s) = 3.13988 3.61099 3.38365
# Velocity P-wave (km/s) = 5.53417 6.10673 5.82749
#
# Compressibility (1/GPa) = 0.02346408
#
# Stress axis : x y z
#
# Youngs Moduli (GPa) = 35.07662 63.94238 35.17877
#
# Poissons Ratio (x) = 0.73771 0.61285
# Poissons Ratio (y) = 0.40468 -0.15489
# Poissons Ratio (z) = 0.61107 -0.28153
#
# Static dielectric constant tensor:
#      x y z
#    x 1.982380 0.000000 0.000000 
#    y 0.000000 -1.553680 0.000000 
#    z 0.000000 0.000000 1.388590 
# 
# From -- ./inp_files/29486.got.cif
#   From: 2010.05.17/outbox.cif.g08.bks.cpg/sg24_15_cif.got.tgz:29486.got - 2010.06.04 00:33:39.
