data_PCOD9334557
_publ_section_title
;
Structure prediction by ZEFSAII (Michael W. Deem and Ramdas Pophale) SiO2 
 PCOD9334557
Probable space group: I 21 21 21
;
_chemical_formula_sum "Si O2"
_cell_formula_units_Z 32
_cell_length_a 8.379952
_cell_length_b 15.409768
_cell_length_c 10.496396
_cell_angle_alpha 90.000000
_cell_angle_beta 90.000000
_cell_angle_gamma 90.000000
_cell_volume 1355.432324
_symmetry_space_group_name_H-M "I 21 21 21"
_symmetry_group_IT_number 24
_symmetry_cell_setting 'orthorhombic'
loop_
_space_group_symop_operation_xyz
x,y,z
-x,1/2-y,z
x,-y,1/2-z
1/2-x,y,-z
1/2+x,1/2+y,1/2+z
1/2-x,-y,1/2+z
1/2+x,1/2-y,-z
-x,1/2+y,1/2-z
loop_
_atom_site_type_symbol
_atom_site_label
_atom_site_fract_x
_atom_site_fract_y
_atom_site_fract_z
Si Si1 0.034179 0.155197 0.125972
Si Si2 0.656367 0.000000 0.750000
Si Si3 0.085780 0.100861 0.574885
Si Si4 0.250000 0.414900 0.500000
Si Si5 0.096428 0.893622 0.634298
O O1 0.221107 0.136836 0.128399
O O2 0.000000 0.250000 0.176696
O O3 0.949757 0.079861 0.203723
O O4 0.989332 0.149223 0.975732
O O5 0.755801 0.028457 0.628095
O O6 0.250000 0.125818 0.500000
O O7 0.055989 0.129784 0.720594
O O8 0.925458 0.127838 0.498881
O O9 0.097918 0.995865 0.595846
#
# Coordination Sequence:
#
# PCOD9334557 Si02
#       5
#     8   4   8   4   8
#     4  11  23  42  71 105 143 190 247 300 365 440
#     4  12  24  44  70 106 142 184 240 306 362 438
#     4  11  20  40  71 103 146 188 246 294 362 433
#     4  12  24  38  74 112 138 194 246 288 364 446
#     4  10  20  40  64 105 143 188 235 301 364 428
#
# _framework density 23.608703999999999
#
# number of rings (size 3 to 8) (size 9 to 14) (size 15 to 20)
#    0.000    1.000    5.000    4.500    0.000    2.000 
#    0.000    0.000    8.250    1.500    0.000    0.000 
#    0.000    0.000    0.000    0.000    0.000    0.000 
#
# Total GULP energy -89354.045891 kJ/mol
# GULP energy per Si atom -5584.627868 kJ/mol
# Density = 2.355497 g / cm^3
# Si number density = 23.608704 Si / 1000 Ang^3
#
#
#
# Elastic Constant Matrix: (Units=GPa)
#
#
# Indices 1 2 3 4 5 6 
#
# 1 157.1794 32.2486 40.5674 0.0000 0.0000 0.0001
# 2 32.2486 92.7435 11.8047 0.0000 0.0000 -0.0002
# 3 40.5674 11.8047 162.4496 -0.0001 0.0000 0.0000
# 4 0.0000 0.0000 -0.0001 11.1594 0.0000 0.0000
# 5 0.0000 0.0000 0.0000 0.0000 49.3646 0.0001
# 6 0.0001 -0.0002 0.0000 0.0000 0.0001 -51.4024
#
#
#
# Elastic Compliance Matrix: (Units=1/GPa)
#
#
# Indices 1 2 3 4 5 6 
#
# 1 0.007262 -0.002316 -0.001645 0.000000 0.000000 0.000000
# 2 -0.002316 0.011622 -0.000266 0.000000 0.000000 0.000000
# 3 -0.001645 -0.000266 0.006586 0.000000 0.000000 0.000000
# 4 0.000000 0.000000 0.000000 0.089611 0.000000 0.000000
# 5 0.000000 0.000000 0.000000 0.000000 0.020257 0.000000
# 6 0.000000 0.000000 0.000000 0.000000 0.000000 -0.019454
#
#
# Mechanical properties :
#
#
# Convention : Reuss Voigt Hill
#
# Bulk Modulus (GPa) = 58.77109 64.62374 61.69741
# Shear Modulus (GPa) = 38.45892 23.67445 31.06669
#
# Velocity S-wave (km/s) = 4.04048 3.17011 3.63147
# Velocity P-wave (km/s) = 6.83485 6.38997 6.61615
#
# Compressibility (1/GPa) = 0.01701517
#
# Stress axis : x y z
#
# Youngs Moduli (GPa) = 137.70532 86.04731 151.83859
#
# Poissons Ratio (x) = 0.19926 0.24980
# Poissons Ratio (y) = 0.31888 0.04042
# Poissons Ratio (z) = 0.22655 0.02291
#
# Static dielectric constant tensor:
#      x y z
#    x 1.971470 0.000000 0.000000 
#    y 0.000000 1.864610 0.000000 
#    z 0.000000 0.000000 2.059130 
# 
# From -- ./inp_files/10281.got.cif
#   From: 2010.05.17/outbox.cif.g08.bks.cpg/sg24_6_cif.got.tgz:10281.got - 2010.06.04 00:33:39.
