data_PCOD9334042
_publ_section_title
;
Structure prediction by ZEFSAII (Michael W. Deem and Ramdas Pophale) SiO2 
 PCOD9334042
Probable space group: I 21 21 21
;
_chemical_formula_sum "Si O2"
_cell_formula_units_Z 36
_cell_length_a 5.130770
_cell_length_b 26.917506
_cell_length_c 13.901942
_cell_angle_alpha 90.000000
_cell_angle_beta 90.000000
_cell_angle_gamma 90.000000
_cell_volume 1919.962903
_symmetry_space_group_name_H-M "I 21 21 21"
_symmetry_group_IT_number 24
_symmetry_cell_setting 'orthorhombic'
loop_
_space_group_symop_operation_xyz
x,y,z
-x,1/2-y,z
x,-y,1/2-z
1/2-x,y,-z
1/2+x,1/2+y,1/2+z
1/2-x,-y,1/2+z
1/2+x,1/2-y,-z
-x,1/2+y,1/2-z
loop_
_atom_site_type_symbol
_atom_site_label
_atom_site_fract_x
_atom_site_fract_y
_atom_site_fract_z
Si Si1 0.244191 0.215516 0.715024
Si Si2 0.721386 0.053975 0.792796
Si Si3 0.250000 0.487559 0.000000
Si Si4 0.250000 0.218047 0.500000
Si Si5 0.279933 0.894961 0.213221
Si Si6 0.750000 0.439935 0.500000
O O1 0.500000 0.250000 0.724666
O O2 0.181736 0.197651 0.604322
O O3 0.279445 0.160257 0.754938
O O4 0.000000 0.250000 0.744782
O O5 0.430877 0.069241 0.763225
O O6 0.928186 0.091243 0.745236
O O7 0.781508 0.000000 0.750000
O O8 0.750753 0.046826 0.906193
O O9 0.498913 0.524226 0.999032
O O10 0.500000 0.250000 0.524627
O O11 0.251419 0.907308 0.098308
#
# Coordination Sequence:
#
# PCOD9334042 Si02
#       6
#     8   8   4   4   8   4
#     4  10  20  35  53  80 114 152 191 236 283 339
#     4  12  23  41  58  88 118 155 198 243 287 348
#     4  12  24  38  61  81 122 159 190 239 296 338
#     4   8  15  28  47  70 108 146 180 219 268 331
#     4  12  23  37  61  88 120 158 198 237 289 350
#     4  12  21  36  58  89 118 161 196 226 288 353
#
# _framework density 18.750361999999999
#
# number of rings (size 3 to 8) (size 9 to 14) (size 15 to 20)
#    0.000    0.889    4.444    4.000    0.000    0.000 
#    0.000    6.667    0.000    0.000    0.000   15.556 
#    0.000    0.000    0.000    0.000    0.000    0.000 
#
# Total GULP energy -100235.269614 kJ/mol
# GULP energy per Si atom -5568.626090 kJ/mol
# Density = 1.870769 g / cm^3
# Si number density = 18.750362 Si / 1000 Ang^3
#
#
#
# Elastic Constant Matrix: (Units=GPa)
#
#
# Indices 1 2 3 4 5 6 
#
# 1 95.2907 5.7368 -0.8853 0.0000 0.0000 0.0000
# 2 5.7368 77.6304 3.3842 0.0000 0.0000 0.0000
# 3 -0.8853 3.3842 93.0270 0.0000 0.0000 0.0000
# 4 0.0000 0.0000 0.0000 10.6015 0.0000 0.0000
# 5 0.0000 0.0000 0.0000 0.0000 22.9948 0.0000
# 6 0.0000 0.0000 0.0000 0.0000 0.0000 16.9358
#
#
#
# Elastic Compliance Matrix: (Units=1/GPa)
#
#
# Indices 1 2 3 4 5 6 
#
# 1 0.010543 -0.000785 0.000129 0.000000 0.000000 0.000000
# 2 -0.000785 0.012960 -0.000479 0.000000 0.000000 0.000000
# 3 0.000129 -0.000479 0.010768 0.000000 0.000000 0.000000
# 4 0.000000 0.000000 0.000000 0.094326 0.000000 0.000000
# 5 0.000000 0.000000 0.000000 0.000000 0.043488 0.000000
# 6 0.000000 0.000000 0.000000 0.000000 0.000000 0.059046
#
#
# Mechanical properties :
#
#
# Convention : Reuss Voigt Hill
#
# Bulk Modulus (GPa) = 31.24832 31.37994 31.31413
# Shear Modulus (GPa) = 20.48605 27.28726 23.88666
#
# Velocity S-wave (km/s) = 3.30899 3.81897 3.57309
# Velocity P-wave (km/s) = 5.59471 6.01814 5.81029
#
# Compressibility (1/GPa) = 0.03200172
#
# Stress axis : x y z
#
# Youngs Moduli (GPa) = 94.85285 77.15805 92.86587
#
# Poissons Ratio (x) = 0.06055 -0.01197
# Poissons Ratio (y) = 0.07443 0.04448
# Poissons Ratio (z) = -0.01222 0.03695
#
# Static dielectric constant tensor:
#      x y z
#    x 1.624930 0.000000 0.000000 
#    y 0.000000 1.678390 0.000000 
#    z 0.000000 0.000000 1.890500 
# 
# From -- ./inp_files/17565.got.cif
#   From: 2010.05.17/outbox.cif.g08.bks.cpg/sg24_9_cif.got.tgz:17565.got - 2010.06.04 00:33:39.
