data_PCOD9334561
_publ_section_title
;
Structure prediction by ZEFSAII (Michael W. Deem and Ramdas Pophale) SiO2 
 PCOD9334561
Probable space group: I 21 21 21
;
_chemical_formula_sum "Si O2"
_cell_formula_units_Z 56
_cell_length_a 9.015384
_cell_length_b 15.544543
_cell_length_c 21.096918
_cell_angle_alpha 90.000000
_cell_angle_beta 90.000000
_cell_angle_gamma 90.000000
_cell_volume 2956.522600
_symmetry_space_group_name_H-M "I 21 21 21"
_symmetry_group_IT_number 24
_symmetry_cell_setting 'orthorhombic'
loop_
_space_group_symop_operation_xyz
x,y,z
-x,1/2-y,z
x,-y,1/2-z
1/2-x,y,-z
1/2+x,1/2+y,1/2+z
1/2-x,-y,1/2+z
1/2+x,1/2-y,-z
-x,1/2+y,1/2-z
loop_
_atom_site_type_symbol
_atom_site_label
_atom_site_fract_x
_atom_site_fract_y
_atom_site_fract_z
Si Si1 0.763475 0.196202 0.181338
Si Si2 0.414121 0.524058 0.023815
Si Si3 0.883588 0.827305 0.548084
Si Si4 0.917933 0.620718 0.323893
Si Si5 0.581830 0.411163 0.361844
Si Si6 0.000000 0.750000 0.777293
Si Si7 0.712956 0.500000 0.250000
Si Si8 0.161772 0.008840 0.437963
O O1 0.680652 0.164711 0.118599
O O2 0.838993 0.288006 0.165350
O O3 0.635985 0.212534 0.234294
O O4 0.908440 0.135719 0.192959
O O5 0.444327 0.421453 0.030404
O O6 0.449495 0.568868 0.090121
O O7 0.250000 0.534799 0.000000
O O8 0.522567 0.555677 0.968839
O O9 0.750000 0.808147 0.500000
O O10 0.000000 0.750000 0.545379
O O11 0.824291 0.577176 0.267202
O O12 0.891728 0.561189 0.386178
O O13 0.561824 0.324779 0.322626
O O14 0.607094 0.484405 0.309289
O O15 0.729334 0.423754 0.403947
O O16 0.250000 0.973146 0.500000
#
# Coordination Sequence:
#
# PCOD9334561 Si02
#       8
#     8   8   8   8   8   4   4   8
#     4  11  24  38  58  88 135 166 203 256 304 370
#     4  10  22  42  60  96 128 155 213 268 315 374
#     4  11  25  35  58  92 130 171 202 248 310 377
#     4  10  21  39  59  88 123 168 210 247 301 373
#     4  10  23  40  68  86 123 169 208 261 313 379
#     4  12  24  46  60  96 130 160 216 262 326 374
#     4  10  20  40  64  90 118 176 218 242 314 388
#     4   9  20  38  66  89 121 167 208 257 307 375
#
# _framework density 18.941172000000002
#
# number of rings (size 3 to 8) (size 9 to 14) (size 15 to 20)
#    0.000    1.714    2.143    1.714   12.000    0.000 
#    7.714    2.143    0.000    0.000    0.000    0.000 
#    0.000    0.000    0.000    0.000    0.000    0.000 
#
# Total GULP energy -156117.371263 kJ/mol
# GULP energy per Si atom -5575.620402 kJ/mol
# Density = 1.889806 g / cm^3
# Si number density = 18.941172 Si / 1000 Ang^3
#
#
#
# Elastic Constant Matrix: (Units=GPa)
#
#
# Indices 1 2 3 4 5 6 
#
# 1 127.7759 39.4962 70.7464 0.0000 0.0000 0.0000
# 2 39.4962 40.4950 26.7167 0.0000 0.0000 0.0000
# 3 70.7464 26.7167 115.6827 0.0000 0.0000 0.0000
# 4 0.0000 0.0000 0.0000 26.4890 0.0000 0.0000
# 5 0.0000 0.0000 0.0000 0.0000 19.5360 0.0000
# 6 0.0000 0.0000 0.0000 0.0000 0.0000 30.0108
#
#
#
# Elastic Compliance Matrix: (Units=1/GPa)
#
#
# Indices 1 2 3 4 5 6 
#
# 1 0.014516 -0.009794 -0.006616 0.000000 0.000000 0.000000
# 2 -0.009794 0.035741 -0.002265 0.000000 0.000000 0.000000
# 3 -0.006616 -0.002265 0.013213 0.000000 0.000000 0.000000
# 4 0.000000 0.000000 0.000000 0.037752 0.000000 0.000000
# 5 0.000000 0.000000 0.000000 0.000000 0.051188 0.000000
# 6 0.000000 0.000000 0.000000 0.000000 0.000000 0.033321
#
#
# Mechanical properties :
#
#
# Convention : Reuss Voigt Hill
#
# Bulk Modulus (GPa) = 38.28212 61.98579 50.13395
# Shear Modulus (GPa) = 21.57154 25.00679 23.28916
#
# Velocity S-wave (km/s) = 3.37838 3.63745 3.51030
# Velocity P-wave (km/s) = 5.95591 7.10196 6.55403
#
# Compressibility (1/GPa) = 0.02612186
#
# Stress axis : x y z
#
# Youngs Moduli (GPa) = 68.88737 27.97930 75.68109
#
# Poissons Ratio (x) = 0.27402 0.50069
# Poissons Ratio (y) = 0.67465 0.17141
# Poissons Ratio (z) = 0.45574 0.06337
#
# Static dielectric constant tensor:
#      x y z
#    x 1.696910 0.000000 0.000000 
#    y 0.000000 1.696720 0.000000 
#    z 0.000000 0.000000 1.671240 
# 
# From -- ./inp_files/32868.got.cif
#   From: 2010.05.17/outbox.cif.g08.bks.cpg/sg24_17_cif.got.tgz:32868.got - 2010.06.04 00:33:39.
