data_PCOD9334677
_publ_section_title
;
Structure prediction by ZEFSAII (Michael W. Deem and Ramdas Pophale) SiO2 
 PCOD9334677
Probable space group: I 21 21 21
;
_chemical_formula_sum "Si O2"
_cell_formula_units_Z 40
_cell_length_a 13.477046
_cell_length_b 9.660145
_cell_length_c 14.707840
_cell_angle_alpha 90.000000
_cell_angle_beta 90.000000
_cell_angle_gamma 90.000000
_cell_volume 1914.816904
_symmetry_space_group_name_H-M "I 21 21 21"
_symmetry_group_IT_number 24
_symmetry_cell_setting 'orthorhombic'
loop_
_space_group_symop_operation_xyz
x,y,z
-x,1/2-y,z
x,-y,1/2-z
1/2-x,y,-z
1/2+x,1/2+y,1/2+z
1/2-x,-y,1/2+z
1/2+x,1/2-y,-z
-x,1/2+y,1/2-z
loop_
_atom_site_type_symbol
_atom_site_label
_atom_site_fract_x
_atom_site_fract_y
_atom_site_fract_z
Si Si1 0.562965 0.130023 0.315251
Si Si2 0.985202 0.914968 0.159645
Si Si3 0.025348 0.034768 0.971225
Si Si4 0.839405 0.774164 0.566712
Si Si5 0.744343 0.042597 0.610076
O O1 0.500000 0.250000 0.269191
O O2 0.677049 0.147631 0.344916
O O3 0.556189 0.000000 0.250000
O O4 0.505058 0.091500 0.407436
O O5 0.867593 0.938793 0.141275
O O6 0.000000 0.750000 0.168415
O O7 0.012634 0.000000 0.250000
O O8 0.043511 0.978061 0.072336
O O9 0.927831 0.133242 0.976284
O O10 0.107841 0.127012 0.919918
O O11 0.750000 0.742081 0.500000
O O12 0.787696 0.887581 0.633035
O O13 0.750000 0.055591 0.500000
#
# Coordination Sequence:
#
# PCOD9334677 Si02
#       5
#     8   8   8   8   8
#     4  11  24  41  65  96 130 168 214 269 330 391
#     4  12  26  43  67  97 133 179 227 276 331 394
#     4  10  21  39  64  93 129 169 216 267 319 390
#     4   9  17  35  69  90 118 167 216 256 324 385
#     4  10  20  42  70  87 126 179 211 258 338 392
#
# _framework density 20.889728000000002
#
# number of rings (size 3 to 8) (size 9 to 14) (size 15 to 20)
#    0.000    1.600    6.000    1.200    8.400    0.000 
#    3.600    1.000    0.000    0.000    0.000    0.000 
#    0.000    0.000    0.000    0.000    0.000    0.000 
#
# Total GULP energy -111427.773830 kJ/mol
# GULP energy per Si atom -5571.388691 kJ/mol
# Density = 2.084218 g / cm^3
# Si number density = 20.889728 Si / 1000 Ang^3
#
#
#
# Elastic Constant Matrix: (Units=GPa)
#
#
# Indices 1 2 3 4 5 6 
#
# 1 84.7659 30.7136 -2.0266 0.0000 0.0000 0.0000
# 2 30.7136 94.9537 20.3368 0.0000 0.0000 0.0000
# 3 -2.0266 20.3368 102.0680 0.0000 0.0000 0.0000
# 4 0.0000 0.0000 0.0000 21.0948 0.0000 0.0000
# 5 0.0000 0.0000 0.0000 0.0000 -20.1378 0.0000
# 6 0.0000 0.0000 0.0000 0.0000 0.0000 8.5907
#
#
#
# Elastic Compliance Matrix: (Units=1/GPa)
#
#
# Indices 1 2 3 4 5 6 
#
# 1 0.013500 -0.004621 0.001189 0.000000 0.000000 0.000000
# 2 -0.004621 0.012583 -0.002599 0.000000 0.000000 0.000000
# 3 0.001189 -0.002599 0.010339 0.000000 0.000000 0.000000
# 4 0.000000 0.000000 0.000000 0.047405 0.000000 0.000000
# 5 0.000000 0.000000 0.000000 0.000000 -0.049658 0.000000
# 6 0.000000 0.000000 0.000000 0.000000 0.000000 0.116406
#
#
# Mechanical properties :
#
#
# Convention : Reuss Voigt Hill
#
# Bulk Modulus (GPa) = 41.05252 42.20392 41.62822
# Shear Modulus (GPa) = 29.28139 17.42712 23.35425
#
# Velocity S-wave (km/s) = 3.74801 2.89146 3.34724
# Velocity P-wave (km/s) = 6.19877 5.60307 5.90843
#
# Compressibility (1/GPa) = 0.02435904
#
# Stress axis : x y z
#
# Youngs Moduli (GPa) = 74.07363 79.47314 96.72285
#
# Poissons Ratio (x) = 0.36727 -0.11499
# Poissons Ratio (y) = 0.34232 0.25137
# Poissons Ratio (z) = -0.08806 0.20654
#
# Static dielectric constant tensor:
#      x y z
#    x 1.759090 0.000000 0.000000 
#    y 0.000000 1.813150 0.000000 
#    z 0.000000 0.000000 1.823190 
# 
# From -- ./inp_files/12557.got.cif
#   From: 2010.05.17/outbox.cif.g08.bks.cpg/sg24_7_cif.got.tgz:12557.got - 2010.06.04 00:33:39.
