data_PCOD9334527
_publ_section_title
;
Structure prediction by ZEFSAII (Michael W. Deem and Ramdas Pophale) SiO2 
 PCOD9334527
Probable space group: I 21 21 21
;
_chemical_formula_sum "Si O2"
_cell_formula_units_Z 32
_cell_length_a 8.563564
_cell_length_b 8.045899
_cell_length_c 19.774400
_cell_angle_alpha 90.000000
_cell_angle_beta 90.000000
_cell_angle_gamma 90.000000
_cell_volume 1362.487226
_symmetry_space_group_name_H-M "I 21 21 21"
_symmetry_group_IT_number 24
_symmetry_cell_setting 'orthorhombic'
loop_
_space_group_symop_operation_xyz
x,y,z
-x,1/2-y,z
x,-y,1/2-z
1/2-x,y,-z
1/2+x,1/2+y,1/2+z
1/2-x,-y,1/2+z
1/2+x,1/2-y,-z
-x,1/2+y,1/2-z
loop_
_atom_site_type_symbol
_atom_site_label
_atom_site_fract_x
_atom_site_fract_y
_atom_site_fract_z
Si Si1 0.675290 0.978724 0.430582
Si Si2 0.634017 0.128768 0.695029
Si Si3 0.174856 0.076229 0.930751
Si Si4 0.651288 0.349321 0.207833
O O1 0.750000 0.045557 0.500000
O O2 0.674009 0.777569 0.438130
O O3 0.491696 0.014794 0.424676
O O4 0.773356 0.038796 0.365755
O O5 0.500000 0.250000 0.668100
O O6 0.750639 0.235396 0.742232
O O7 0.564297 0.000000 0.750000
O O8 0.246205 0.071268 0.855191
O O9 0.250000 0.012935 0.000000
O O10 0.500000 0.250000 0.181953
O O11 0.583913 0.500000 0.250000
#
# Coordination Sequence:
#
# PCOD9334527 Si02
#       4
#     8   8   8   8
#     4  10  21  42  68  97 140 181 228 292 350 421
#     4  12  25  45  67  99 143 187 235 296 354 415
#     4  10  20  39  70 102 134 183 233 288 349 420
#     4  12  23  42  69 101 138 185 237 289 353 420
#
# _framework density 23.486460000000001
#
# number of rings (size 3 to 8) (size 9 to 14) (size 15 to 20)
#    0.000    1.000    5.000    3.000    0.000    4.000 
#    0.000    5.000    0.000    0.000    0.000    0.000 
#    0.000    0.000    0.000    0.000    0.000    0.000 
#
# Total GULP energy -89299.732435 kJ/mol
# GULP energy per Si atom -5581.233277 kJ/mol
# Density = 2.343300 g / cm^3
# Si number density = 23.486460 Si / 1000 Ang^3
#
#
#
# Elastic Constant Matrix: (Units=GPa)
#
#
# Indices 1 2 3 4 5 6 
#
# 1 78.6406 32.5924 42.9451 0.0000 0.0000 0.0000
# 2 32.5924 53.2665 28.2187 0.0000 0.0000 0.0000
# 3 42.9451 28.2187 182.4335 0.0000 0.0000 0.0000
# 4 0.0000 0.0000 0.0000 -4.3564 0.0000 0.0000
# 5 0.0000 0.0000 0.0000 0.0000 40.8173 0.0000
# 6 0.0000 0.0000 0.0000 0.0000 0.0000 27.1122
#
#
#
# Elastic Compliance Matrix: (Units=1/GPa)
#
#
# Indices 1 2 3 4 5 6 
#
# 1 0.018261 -0.009690 -0.002800 0.000000 0.000000 0.000000
# 2 -0.009690 0.025591 -0.001677 0.000000 0.000000 0.000000
# 3 -0.002800 -0.001677 0.006400 0.000000 0.000000 0.000000
# 4 0.000000 0.000000 0.000000 -0.229545 0.000000 0.000000
# 5 0.000000 0.000000 0.000000 0.000000 0.024499 0.000000
# 6 0.000000 0.000000 0.000000 0.000000 0.000000 0.036884
#
#
# Mechanical properties :
#
#
# Convention : Reuss Voigt Hill
#
# Bulk Modulus (GPa) = 45.62543 57.98366 51.80455
# Shear Modulus (GPa) = -60.77616 26.75358 -17.01129
#
# Velocity S-wave (km/s) = -5.09247 3.37873 -2.69421
# Velocity P-wave (km/s) = 3.88706 6.32161 3.52516
#
# Compressibility (1/GPa) = 0.02191760
#
# Stress axis : x y z
#
# Youngs Moduli (GPa) = 54.76104 39.07572 156.25051
#
# Poissons Ratio (x) = 0.37865 0.43747
# Poissons Ratio (y) = 0.53065 0.26209
# Poissons Ratio (z) = 0.15332 0.06554
#
# Static dielectric constant tensor:
#      x y z
#    x 1.889350 0.000000 0.000000 
#    y 0.000000 1.945280 0.000000 
#    z 0.000000 0.000000 1.911000 
# 
# From -- ./inp_files/32443.got.cif
#   From: 2010.05.17/outbox.cif.g08.bks.cpg/sg24_17_cif.got.tgz:32443.got - 2010.06.04 00:33:39.
