data_PCOD9334881
_publ_section_title
;
Structure prediction by ZEFSAII (Michael W. Deem and Ramdas Pophale) SiO2 
 PCOD9334881
Probable space group: I 21 21 21
;
_chemical_formula_sum "Si O2"
_cell_formula_units_Z 36
_cell_length_a 13.557890
_cell_length_b 24.932346
_cell_length_c 5.035504
_cell_angle_alpha 90.000000
_cell_angle_beta 90.000000
_cell_angle_gamma 90.000000
_cell_volume 1702.151440
_symmetry_space_group_name_H-M "I 21 21 21"
_symmetry_group_IT_number 24
_symmetry_cell_setting 'orthorhombic'
loop_
_space_group_symop_operation_xyz
x,y,z
-x,1/2-y,z
x,-y,1/2-z
1/2-x,y,-z
1/2+x,1/2+y,1/2+z
1/2-x,-y,1/2+z
1/2+x,1/2-y,-z
-x,1/2+y,1/2-z
loop_
_atom_site_type_symbol
_atom_site_label
_atom_site_fract_x
_atom_site_fract_y
_atom_site_fract_z
Si Si1 0.439483 0.902247 0.995992
Si Si2 0.631428 0.220284 0.989202
Si Si3 0.366768 0.351436 0.486746
Si Si4 0.817469 0.500000 0.250000
Si Si5 0.131782 0.840975 0.496804
O O1 0.558023 0.900523 0.975319
O O2 0.385568 0.954875 0.886514
O O3 0.401296 0.856444 0.796995
O O4 0.407039 0.883873 0.289130
O O5 0.610857 0.194539 0.704092
O O6 0.750000 0.225878 0.000000
O O7 0.608408 0.175735 0.207105
O O8 0.595031 0.280263 0.047274
O O9 0.250000 0.364444 0.500000
O O10 0.750000 0.519613 0.500000
O O11 0.250000 0.842103 0.500000
#
# Coordination Sequence:
#
# PCOD9334881 Si02
#       5
#     8   8   8   4   8
#     4  12  24  38  63  87 113 159 202 241 301 351
#     4   9  19  35  56  85 126 163 191 234 288 340
#     4  10  21  38  58  86 123 159 195 238 284 346
#     4  12  26  46  66  88 118 148 192 256 312 354
#     4  11  22  37  58  90 124 156 198 242 288 355
#
# _framework density 21.149704
#
# number of rings (size 3 to 8) (size 9 to 14) (size 15 to 20)
#    0.000    1.333    0.000    6.667    0.000    8.889 
#    0.000    0.000    0.000    8.000    0.000    0.000 
#    0.000    0.000    0.000    0.000    0.000    0.000 
#
# Total GULP energy -100597.848853 kJ/mol
# GULP energy per Si atom -5588.769381 kJ/mol
# Density = 2.110157 g / cm^3
# Si number density = 21.149704 Si / 1000 Ang^3
#
#
#
# Elastic Constant Matrix: (Units=GPa)
#
#
# Indices 1 2 3 4 5 6 
#
# 1 129.4619 34.9819 -1.8332 -0.0173 -0.0103 -0.0217
# 2 34.9819 79.5148 -8.3707 -0.0016 -0.0100 -0.0216
# 3 -1.8332 -8.3707 67.1845 0.0148 -0.0200 0.0094
# 4 -0.0173 -0.0016 0.0148 -4.7084 0.0071 -0.0029
# 5 -0.0103 -0.0100 -0.0200 0.0071 13.6870 0.0089
# 6 -0.0217 -0.0216 0.0094 -0.0029 0.0089 22.3715
#
#
#
# Elastic Compliance Matrix: (Units=1/GPa)
#
#
# Indices 1 2 3 4 5 6 
#
# 1 0.008770 -0.003884 -0.000245 -0.000032 0.000003 0.000005
# 2 -0.003884 0.014464 0.001696 0.000015 0.000010 0.000009
# 3 -0.000245 0.001696 0.015089 0.000048 0.000023 -0.000005
# 4 -0.000032 0.000015 0.000048 -0.212385 0.000110 -0.000027
# 5 0.000003 0.000010 0.000023 0.000110 0.073062 -0.000029
# 6 0.000005 0.000009 -0.000005 -0.000027 -0.000029 0.044700
#
#
# Mechanical properties :
#
#
# Convention : Reuss Voigt Hill
#
# Bulk Modulus (GPa) = 29.88861 36.19080 33.03970
# Shear Modulus (GPa) = -124.12458 23.02889 -50.54785
#
# Velocity S-wave (km/s) = -7.66916 3.30335 -4.89407
# Velocity P-wave (km/s) = 8.01615 5.63013 4.03487
#
# Compressibility (1/GPa) = 0.03345757
#
# Stress axis : x y z
#
# Youngs Moduli (GPa) = 114.02039 69.13881 66.27328
#
# Poissons Ratio (x) = 0.26855 0.01621
# Poissons Ratio (y) = 0.44288 -0.11241
# Poissons Ratio (z) = 0.02789 -0.11727
#
# Static dielectric constant tensor:
#      x y z
#    x 1.945540 0.000020 0.000110 
#    y 0.000020 1.747900 0.000000 
#    z 0.000110 0.000000 1.723760 
# 
# From -- ./inp_files/3363.got.cif
#   From: 2010.05.17/outbox.cif.g08.bks.cpg/sg24_2_cif.got.tgz:3363.got - 2010.06.04 00:33:39.
