data_PCOD9334947
_publ_section_title
;
Structure prediction by ZEFSAII (Michael W. Deem and Ramdas Pophale) SiO2 
 PCOD9334947
Probable space group: I 21 21 21
;
_chemical_formula_sum "Si O2"
_cell_formula_units_Z 40
_cell_length_a 18.113556
_cell_length_b 17.781061
_cell_length_c 5.303592
_cell_angle_alpha 90.000000
_cell_angle_beta 90.000000
_cell_angle_gamma 90.000000
_cell_volume 1708.171599
_symmetry_space_group_name_H-M "I 21 21 21"
_symmetry_group_IT_number 24
_symmetry_cell_setting 'orthorhombic'
loop_
_space_group_symop_operation_xyz
x,y,z
-x,1/2-y,z
x,-y,1/2-z
1/2-x,y,-z
1/2+x,1/2+y,1/2+z
1/2-x,-y,1/2+z
1/2+x,1/2-y,-z
-x,1/2+y,1/2-z
loop_
_atom_site_type_symbol
_atom_site_label
_atom_site_fract_x
_atom_site_fract_y
_atom_site_fract_z
Si Si1 0.826613 0.143013 0.358038
Si Si2 0.418266 0.451357 0.992415
Si Si3 0.557084 0.186539 0.268880
Si Si4 0.664870 0.713562 0.560554
Si Si5 0.340483 0.043202 0.996689
O O1 0.750000 0.125371 0.500000
O O2 0.842884 0.089210 0.117479
O O3 0.900687 0.138833 0.521986
O O4 0.830416 0.232437 0.301438
O O5 0.444438 0.500000 0.750000
O O6 0.408081 0.500000 0.250000
O O7 0.467573 0.378513 0.071934
O O8 0.500000 0.250000 0.358524
O O9 0.618701 0.236216 0.130035
O O10 0.750000 0.706527 0.500000
O O11 0.636411 0.629164 0.545228
O O12 0.365555 0.000000 0.750000
O O13 0.250000 0.041227 0.000000
O O14 0.365150 0.000000 0.250000
#
# Coordination Sequence:
#
# PCOD9334947 Si02
#       5
#     8   8   8   8   8
#     4  11  23  42  75 110 147 191 251 301 370 439
#     4  11  24  50  74 106 148 194 240 305 369 447
#     4  11  25  46  72 105 144 191 242 298 367 434
#     4  10  21  38  68  98 137 183 243 299 353 431
#     4   9  19  33  56  90 129 169 218 282 344 394
#
# _framework density 23.416848000000002
#
# number of rings (size 3 to 8) (size 9 to 14) (size 15 to 20)
#    0.000    1.600    4.000    0.000    2.800    4.000 
#    3.600    2.000    0.000    0.000    0.000    0.000 
#    0.000    0.000    0.000    0.000    0.000    0.000 
#
# Total GULP energy -111371.844740 kJ/mol
# GULP energy per Si atom -5568.592237 kJ/mol
# Density = 2.336355 g / cm^3
# Si number density = 23.416848 Si / 1000 Ang^3
#
#
#
# Elastic Constant Matrix: (Units=GPa)
#
#
# Indices 1 2 3 4 5 6 
#
# 1 86.5703 19.3999 23.2694 0.0000 0.0000 0.0000
# 2 19.3999 192.9982 75.4866 0.0000 0.0000 0.0000
# 3 23.2694 75.4866 125.3575 0.0000 0.0000 0.0000
# 4 0.0000 0.0000 0.0000 63.1804 0.0000 0.0000
# 5 0.0000 0.0000 0.0000 0.0000 4.6326 0.0000
# 6 0.0000 0.0000 0.0000 0.0000 0.0000 -6.4609
#
#
#
# Elastic Compliance Matrix: (Units=1/GPa)
#
#
# Indices 1 2 3 4 5 6 
#
# 1 0.012187 -0.000445 -0.001994 0.000000 0.000000 0.000000
# 2 -0.000445 0.006794 -0.004009 0.000000 0.000000 0.000000
# 3 -0.001994 -0.004009 0.010761 0.000000 0.000000 0.000000
# 4 0.000000 0.000000 0.000000 0.015828 0.000000 0.000000
# 5 0.000000 0.000000 0.000000 0.000000 0.215862 0.000000
# 6 0.000000 0.000000 0.000000 0.000000 0.000000 -0.154778
#
#
# Mechanical properties :
#
#
# Convention : Reuss Voigt Hill
#
# Bulk Modulus (GPa) = 59.35899 71.24865 65.30382
# Shear Modulus (GPa) = 39.94735 31.38844 35.66789
#
# Velocity S-wave (km/s) = 4.13476 3.66515 3.90702
# Velocity P-wave (km/s) = 6.94254 6.95725 6.94990
#
# Compressibility (1/GPa) = 0.01684665
#
# Stress axis : x y z
#
# Youngs Moduli (GPa) = 82.05419 147.18949 92.92667
#
# Poissons Ratio (x) = 0.06550 0.18532
# Poissons Ratio (y) = 0.03652 0.37250
# Poissons Ratio (z) = 0.16363 0.59001
#
# Static dielectric constant tensor:
#      x y z
#    x 1.924190 0.000000 0.000000 
#    y 0.000000 2.252540 0.000000 
#    z 0.000000 0.000000 2.053490 
# 
# From -- ./inp_files/4493.got.cif
#   From: 2010.05.17/outbox.cif.g08.bks.cpg/sg24_3_cif.got.tgz:4493.got - 2010.06.04 00:33:39.
