data_PCOD9334166
_publ_section_title
;
Structure prediction by ZEFSAII (Michael W. Deem and Ramdas Pophale) SiO2 
 PCOD9334166
Probable space group: I 21 21 21
;
_chemical_formula_sum "Si O2"
_cell_formula_units_Z 40
_cell_length_a 9.069125
_cell_length_b 13.747905
_cell_length_c 13.747921
_cell_angle_alpha 90.000000
_cell_angle_beta 90.000000
_cell_angle_gamma 90.000000
_cell_volume 1714.110985
_symmetry_space_group_name_H-M "I 21 21 21"
_symmetry_group_IT_number 24
_symmetry_cell_setting 'orthorhombic'
loop_
_space_group_symop_operation_xyz
x,y,z
-x,1/2-y,z
x,-y,1/2-z
1/2-x,y,-z
1/2+x,1/2+y,1/2+z
1/2-x,-y,1/2+z
1/2+x,1/2-y,-z
-x,1/2+y,1/2-z
loop_
_atom_site_type_symbol
_atom_site_label
_atom_site_fract_x
_atom_site_fract_y
_atom_site_fract_z
Si Si1 0.169180 0.741085 0.737168
Si Si2 0.419180 0.012836 0.991085
Si Si3 0.578323 0.647947 0.822031
Si Si4 0.375001 0.612919 0.637084
Si Si5 0.328322 0.427974 0.397947
O O1 0.255710 0.830274 0.786560
O O2 0.272892 0.706487 0.649146
O O3 0.174996 0.656245 0.819095
O O4 0.000000 0.750000 0.709676
O O5 0.424996 0.930907 0.906247
O O6 0.522890 0.100858 0.956485
O O7 0.250000 0.040327 0.000000
O O8 0.505711 0.963446 0.080275
O O9 0.500000 0.750000 0.853343
O O10 0.483414 0.614386 0.729483
O O11 0.266588 0.520520 0.635616
O O12 0.250000 0.396662 0.500000
#
# Coordination Sequence:
#
# PCOD9334166 Si02
#       5
#     8   8   8   8   8
#     4  11  22  35  58  88 116 149 189 235 282 336
#     4  11  22  35  58  88 116 149 189 235 282 336
#     4  10  20  36  59  84 117 154 185 230 285 337
#     4  10  21  40  58  80 116 156 192 226 281 344
#     4  10  20  36  59  84 117 154 185 230 285 337
#
# _framework density 23.335712999999998
#
# number of rings (size 3 to 8) (size 9 to 14) (size 15 to 20)
#    0.000    1.600    0.000    8.400    0.000    6.400 
#    0.000    4.000    0.000   64.800    0.000    0.000 
#    0.000    0.000    0.000    0.000    0.000    0.000 
#
# Total GULP energy -111916.425941 kJ/mol
# GULP energy per Si atom -5595.821297 kJ/mol
# Density = 2.328260 g / cm^3
# Si number density = 23.335713 Si / 1000 Ang^3
#
#
#
# Elastic Constant Matrix: (Units=GPa)
#
#
# Indices 1 2 3 4 5 6 
#
# 1 198.1449 23.8164 23.8180 0.0000 0.0000 0.0000
# 2 23.8164 37.3910 17.4946 0.0000 0.0000 0.0000
# 3 23.8180 17.4946 37.3892 0.0000 0.0000 0.0000
# 4 0.0000 0.0000 0.0000 16.3478 0.0000 0.0000
# 5 0.0000 0.0000 0.0000 0.0000 11.1617 0.0000
# 6 0.0000 0.0000 0.0000 0.0000 0.0000 11.1614
#
#
#
# Elastic Compliance Matrix: (Units=1/GPa)
#
#
# Indices 1 2 3 4 5 6 
#
# 1 0.005635 -0.002445 -0.002445 0.000000 0.000000 0.000000
# 2 -0.002445 0.035301 -0.014960 0.000000 0.000000 0.000000
# 3 -0.002445 -0.014960 0.035303 0.000000 0.000000 0.000000
# 4 0.000000 0.000000 0.000000 0.061170 0.000000 0.000000
# 5 0.000000 0.000000 0.000000 0.000000 0.089592 0.000000
# 6 0.000000 0.000000 0.000000 0.000000 0.000000 0.089594
#
#
# Mechanical properties :
#
#
# Convention : Reuss Voigt Hill
#
# Bulk Modulus (GPa) = 27.36851 44.79814 36.08333
# Shear Modulus (GPa) = 13.56939 21.58726 17.57833
#
# Velocity S-wave (km/s) = 2.41402 3.04480 2.74757
# Velocity P-wave (km/s) = 4.41855 5.62139 5.05587
#
# Compressibility (1/GPa) = 0.03653834
#
# Stress axis : x y z
#
# Youngs Moduli (GPa) = 177.47399 28.32761 28.32585
#
# Poissons Ratio (x) = 0.06926 0.06927
# Poissons Ratio (y) = 0.43389 0.42376
# Poissons Ratio (z) = 0.43401 0.42379
#
# Static dielectric constant tensor:
#      x y z
#    x 1.907410 0.000000 0.000000 
#    y 0.000000 1.898060 0.000000 
#    z 0.000000 0.000000 1.898060 
# 
# From -- ./inp_files/24656.got.cif
#   From: 2010.05.17/outbox.cif.g08.bks.cpg/sg24_13_cif.got.tgz:24656.got - 2010.06.04 00:33:39.
