data_PCOD9334330
_publ_section_title
;
Structure prediction by ZEFSAII (Michael W. Deem and Ramdas Pophale) SiO2 
 PCOD9334330
Probable space group: I 21 21 21
;
_chemical_formula_sum "Si O2"
_cell_formula_units_Z 60
_cell_length_a 8.799653
_cell_length_b 22.597916
_cell_length_c 15.244021
_cell_angle_alpha 90.000000
_cell_angle_beta 90.000000
_cell_angle_gamma 90.000000
_cell_volume 3031.331798
_symmetry_space_group_name_H-M "I 21 21 21"
_symmetry_group_IT_number 24
_symmetry_cell_setting 'orthorhombic'
loop_
_space_group_symop_operation_xyz
x,y,z
-x,1/2-y,z
x,-y,1/2-z
1/2-x,y,-z
1/2+x,1/2+y,1/2+z
1/2-x,-y,1/2+z
1/2+x,1/2-y,-z
-x,1/2+y,1/2-z
loop_
_atom_site_type_symbol
_atom_site_label
_atom_site_fract_x
_atom_site_fract_y
_atom_site_fract_z
Si Si1 0.475913 0.081965 0.369065
Si Si2 0.750000 0.957401 0.500000
Si Si3 0.175756 0.639269 0.634011
Si Si4 0.306987 0.568030 0.784927
Si Si5 0.839965 0.645212 0.707564
Si Si6 0.998692 0.549093 0.060688
Si Si7 0.248100 0.018123 0.844315
Si Si8 0.680156 0.737120 0.589648
O O1 0.647966 0.080235 0.335167
O O2 0.370013 0.125444 0.309759
O O3 0.475714 0.088514 0.474133
O O4 0.410856 0.016295 0.350693
O O5 0.838623 0.913463 0.564311
O O6 0.631182 0.001281 0.544391
O O7 0.295443 0.612260 0.703478
O O8 0.240792 0.699290 0.596642
O O9 0.012030 0.653599 0.674254
O O10 0.311640 0.500000 0.750000
O O11 0.443763 0.581404 0.851597
O O12 0.773886 0.587410 0.658824
O O13 0.734993 0.698760 0.674064
O O14 0.852137 0.510530 0.082520
O O15 0.316577 0.000000 0.750000
O O16 0.500000 0.750000 0.584603
O O17 0.750000 0.708889 0.500000
#
# Coordination Sequence:
#
# PCOD9334330 Si02
#       8
#     8   4   8   8   8   8   8   8
#     4  10  20  38  56  87 123 166 209 254 313 379
#     4  12  22  32  58  86 134 162 206 248 312 372
#     4  11  23  39  60  86 124 170 209 261 312 384
#     4  11  19  34  57  86 127 165 204 251 310 381
#     4  10  23  42  62  82 122 170 214 257 319 376
#     4  12  21  33  57  94 128 163 210 251 314 380
#     4  10  22  35  56  87 123 158 200 253 315 376
#     4  12  27  43  64  90 123 162 216 266 321 390
#
# _framework density 19.793278999999998
#
# number of rings (size 3 to 8) (size 9 to 14) (size 15 to 20)
#    0.000    1.067    3.333    4.800    1.867    2.133 
#    0.000    0.000    0.000    0.000    0.000   35.467 
#    0.000    0.000    0.000    0.000    0.000    0.000 
#
# Total GULP energy -167453.618498 kJ/mol
# GULP energy per Si atom -5581.787283 kJ/mol
# Density = 1.974823 g / cm^3
# Si number density = 19.793279 Si / 1000 Ang^3
#
#
#
# Elastic Constant Matrix: (Units=GPa)
#
#
# Indices 1 2 3 4 5 6 
#
# 1 68.8405 12.6339 16.2960 0.0000 0.0000 0.0000
# 2 12.6339 61.6049 16.2889 0.0000 0.0000 0.0000
# 3 16.2960 16.2889 96.2883 0.0000 0.0000 0.0000
# 4 0.0000 0.0000 0.0000 22.9474 0.0000 0.0000
# 5 0.0000 0.0000 0.0000 0.0000 33.8197 0.0000
# 6 0.0000 0.0000 0.0000 0.0000 0.0000 18.8846
#
#
#
# Elastic Compliance Matrix: (Units=1/GPa)
#
#
# Indices 1 2 3 4 5 6 
#
# 1 0.015522 -0.002605 -0.002186 0.000000 0.000000 0.000000
# 2 -0.002605 0.017430 -0.002508 0.000000 0.000000 0.000000
# 3 -0.002186 -0.002508 0.011180 0.000000 0.000000 0.000000
# 4 0.000000 0.000000 0.000000 0.043578 0.000000 0.000000
# 5 0.000000 0.000000 0.000000 0.000000 0.029569 0.000000
# 6 0.000000 0.000000 0.000000 0.000000 0.000000 0.052953
#
#
# Mechanical properties :
#
#
# Convention : Reuss Voigt Hill
#
# Bulk Modulus (GPa) = 33.86009 35.24126 34.55067
# Shear Modulus (GPa) = 25.68398 27.23133 26.45766
#
# Velocity S-wave (km/s) = 3.60615 3.71318 3.66006
# Velocity P-wave (km/s) = 5.87223 6.01888 5.94601
#
# Compressibility (1/GPa) = 0.02953330
#
# Stress axis : x y z
#
# Youngs Moduli (GPa) = 64.42472 57.37303 89.44785
#
# Poissons Ratio (x) = 0.14947 0.19556
# Poissons Ratio (y) = 0.16784 0.22430
# Poissons Ratio (z) = 0.14085 0.14387
#
# Static dielectric constant tensor:
#      x y z
#    x 1.756130 0.000000 0.000000 
#    y 0.000000 1.644220 0.000000 
#    z 0.000000 0.000000 1.816300 
# 
# From -- ./inp_files/25180.got.cif
#   From: 2010.05.17/outbox.cif.g08.bks.cpg/sg24_13_cif.got.tgz:25180.got - 2010.06.04 00:33:39.
