data_PCOD9334667
_publ_section_title
;
Structure prediction by ZEFSAII (Michael W. Deem and Ramdas Pophale) SiO2 
 PCOD9334667
Probable space group: I 21 21 21
;
_chemical_formula_sum "Si O2"
_cell_formula_units_Z 36
_cell_length_a 7.528660
_cell_length_b 17.058071
_cell_length_c 13.222611
_cell_angle_alpha 90.000000
_cell_angle_beta 90.000000
_cell_angle_gamma 90.000000
_cell_volume 1698.106106
_symmetry_space_group_name_H-M "I 21 21 21"
_symmetry_group_IT_number 24
_symmetry_cell_setting 'orthorhombic'
loop_
_space_group_symop_operation_xyz
x,y,z
-x,1/2-y,z
x,-y,1/2-z
1/2-x,y,-z
1/2+x,1/2+y,1/2+z
1/2-x,-y,1/2+z
1/2+x,1/2-y,-z
-x,1/2+y,1/2-z
loop_
_atom_site_type_symbol
_atom_site_label
_atom_site_fract_x
_atom_site_fract_y
_atom_site_fract_z
Si Si1 0.732574 0.955860 0.883969
Si Si2 0.701117 0.380355 0.118145
Si Si3 0.704337 0.855558 0.388938
Si Si4 0.987542 0.167280 0.270699
Si Si5 0.536827 0.500000 0.250000
O O1 0.733807 0.948404 0.612888
O O2 0.568054 0.909096 0.835574
O O3 0.902483 0.941630 0.810395
O O4 0.750000 0.930767 0.000000
O O5 0.504241 0.344320 0.126478
O O6 0.657831 0.466498 0.161445
O O7 0.848368 0.349976 0.195878
O O8 0.750000 0.379515 0.000000
O O9 0.750000 0.824866 0.500000
O O10 0.823186 0.817474 0.304573
O O11 0.000000 0.250000 0.329692
#
# Coordination Sequence:
#
# PCOD9334667 Si02
#       5
#     8   8   8   8   4
#     4  10  21  42  68  89 124 173 217 275 329 373
#     4  11  23  38  63  99 124 166 217 267 331 399
#     4  10  20  42  66  94 129 165 217 278 325 386
#     4  12  25  40  62  95 136 176 211 266 342 403
#     4  10  22  38  66  98 120 160 220 280 326 376
#
# _framework density 21.200088999999998
#
# number of rings (size 3 to 8) (size 9 to 14) (size 15 to 20)
#    0.000    1.333    6.667    0.000    3.111    1.778 
#    0.000    2.222    0.000    0.000    0.000    0.000 
#    0.000    0.000    0.000    0.000    0.000    0.000 
#
# Total GULP energy -100265.658592 kJ/mol
# GULP energy per Si atom -5570.314366 kJ/mol
# Density = 2.115184 g / cm^3
# Si number density = 21.200089 Si / 1000 Ang^3
#
#
#
# Elastic Constant Matrix: (Units=GPa)
#
#
# Indices 1 2 3 4 5 6 
#
# 1 136.5499 37.4180 38.2624 0.0000 0.0000 0.0000
# 2 37.4180 84.1667 29.1299 0.0000 0.0000 0.0000
# 3 38.2624 29.1299 112.8275 0.0000 0.0000 0.0000
# 4 0.0000 0.0000 0.0000 3.7777 0.0000 0.0000
# 5 0.0000 0.0000 0.0000 0.0000 25.5642 0.0000
# 6 0.0000 0.0000 0.0000 0.0000 0.0000 -28.2385
#
#
#
# Elastic Compliance Matrix: (Units=1/GPa)
#
#
# Indices 1 2 3 4 5 6 
#
# 1 0.008797 -0.003161 -0.002167 0.000000 0.000000 0.000000
# 2 -0.003161 0.014183 -0.002590 0.000000 0.000000 0.000000
# 3 -0.002167 -0.002590 0.010267 0.000000 0.000000 0.000000
# 4 0.000000 0.000000 0.000000 0.264714 0.000000 0.000000
# 5 0.000000 0.000000 0.000000 0.000000 0.039117 0.000000
# 6 0.000000 0.000000 0.000000 0.000000 0.000000 -0.035413
#
#
# Mechanical properties :
#
#
# Convention : Reuss Voigt Hill
#
# Bulk Modulus (GPa) = 57.43597 60.35164 58.89380
# Shear Modulus (GPa) = 15.46533 15.46960 15.46747
#
# Velocity S-wave (km/s) = 2.70384 2.70422 2.70403
# Velocity P-wave (km/s) = 6.07444 6.18707 6.13101
#
# Compressibility (1/GPa) = 0.01741069
#
# Stress axis : x y z
#
# Youngs Moduli (GPa) = 113.67919 70.50859 97.40267
#
# Poissons Ratio (x) = 0.22286 0.21108
# Poissons Ratio (y) = 0.35931 0.25226
# Poissons Ratio (z) = 0.24636 0.18261
#
# Static dielectric constant tensor:
#      x y z
#    x 1.789340 0.000000 0.000000 
#    y 0.000000 1.894460 0.000000 
#    z 0.000000 0.000000 1.786140 
# 
# From -- ./inp_files/18488.got.cif
#   From: 2010.05.17/outbox.cif.g08.bks.cpg/sg24_10_cif.got.tgz:18488.got - 2010.06.04 00:33:39.
