data_PCOD9334597
_publ_section_title
;
Structure prediction by ZEFSAII (Michael W. Deem and Ramdas Pophale) SiO2 
 PCOD9334597
Probable space group: I 21 21 21
;
_chemical_formula_sum "Si O2"
_cell_formula_units_Z 52
_cell_length_a 20.705301
_cell_length_b 5.914445
_cell_length_c 18.812356
_cell_angle_alpha 90.000000
_cell_angle_beta 90.000000
_cell_angle_gamma 90.000000
_cell_volume 2303.767963
_symmetry_space_group_name_H-M "I 21 21 21"
_symmetry_group_IT_number 24
_symmetry_cell_setting 'orthorhombic'
loop_
_space_group_symop_operation_xyz
x,y,z
-x,1/2-y,z
x,-y,1/2-z
1/2-x,y,-z
1/2+x,1/2+y,1/2+z
1/2-x,-y,1/2+z
1/2+x,1/2-y,-z
-x,1/2+y,1/2-z
loop_
_atom_site_type_symbol
_atom_site_label
_atom_site_fract_x
_atom_site_fract_y
_atom_site_fract_z
Si Si1 0.977900 0.997712 0.167991
Si Si2 0.068456 0.656952 0.527865
Si Si3 0.320457 0.005390 0.495716
Si Si4 0.901302 0.114054 0.819870
Si Si5 0.176733 0.000000 0.750000
Si Si6 0.642003 0.119607 0.593029
Si Si7 0.719390 0.824405 0.132171
O O1 0.000000 0.250000 0.142697
O O2 0.998792 0.000000 0.250000
O O3 0.901547 0.962217 0.158187
O O4 0.000000 0.750000 0.136115
O O5 0.057829 0.581570 0.609053
O O6 0.101231 0.482551 0.473186
O O7 0.000000 0.750000 0.502906
O O8 0.122772 0.849877 0.531468
O O9 0.250000 0.887735 0.500000
O O10 0.344744 0.119820 0.569349
O O11 0.305575 0.202473 0.439151
O O12 0.873462 0.356305 0.797817
O O13 0.931385 0.000000 0.750000
O O14 0.835170 0.987194 0.839237
O O15 0.221802 0.141460 0.695981
O O16 0.714959 0.048956 0.611226
#
# Coordination Sequence:
#
# PCOD9334597 Si02
#       7
#     8   8   8   8   4   8   8
#     4  10  24  48  69  96 142 192 236 294 368 443
#     4  12  26  42  66 100 138 182 236 293 366 439
#     4  10  23  41  66  97 131 179 224 285 361 428
#     4  10  22  42  64  93 134 180 228 286 344 426
#     4  10  20  40  68  94 138 172 228 282 350 420
#     4  11  25  40  69  99 136 174 234 298 357 428
#     4  10  21  42  66  99 129 177 226 289 354 422
#
# _framework density 22.571718000000001
#
# number of rings (size 3 to 8) (size 9 to 14) (size 15 to 20)
#    0.000    1.538    3.077    0.462    6.462    1.846 
#    5.538    0.000    0.000    0.000    0.000    0.000 
#    0.000    0.000    0.000    0.000    0.000    0.000 
#
# Total GULP energy -144836.547631 kJ/mol
# GULP energy per Si atom -5570.636447 kJ/mol
# Density = 2.252034 g / cm^3
# Si number density = 22.571718 Si / 1000 Ang^3
#
#
#
# Elastic Constant Matrix: (Units=GPa)
#
#
# Indices 1 2 3 4 5 6 
#
# 1 90.5235 29.4632 5.6778 0.0000 0.0000 0.0000
# 2 29.4632 71.6257 10.5897 0.0000 0.0000 0.0000
# 3 5.6778 10.5897 96.9583 0.0000 0.0000 0.0000
# 4 0.0000 0.0000 0.0000 35.6462 0.0000 0.0000
# 5 0.0000 0.0000 0.0000 0.0000 5.3905 0.0000
# 6 0.0000 0.0000 0.0000 0.0000 0.0000 14.7489
#
#
#
# Elastic Compliance Matrix: (Units=1/GPa)
#
#
# Indices 1 2 3 4 5 6 
#
# 1 0.012757 -0.005222 -0.000177 0.000000 0.000000 0.000000
# 2 -0.005222 0.016328 -0.001478 0.000000 0.000000 0.000000
# 3 -0.000177 -0.001478 0.010485 0.000000 0.000000 0.000000
# 4 0.000000 0.000000 0.000000 0.028053 0.000000 0.000000
# 5 0.000000 0.000000 0.000000 0.000000 0.185512 0.000000
# 6 0.000000 0.000000 0.000000 0.000000 0.000000 0.067802
#
#
# Mechanical properties :
#
#
# Convention : Reuss Voigt Hill
#
# Bulk Modulus (GPa) = 38.73141 38.95212 38.84177
# Shear Modulus (GPa) = 14.56471 25.38224 19.97347
#
# Velocity S-wave (km/s) = 2.54296 3.35702 2.97794
# Velocity P-wave (km/s) = 5.08121 5.68512 5.39163
#
# Compressibility (1/GPa) = 0.02581884
#
# Stress axis : x y z
#
# Youngs Moduli (GPa) = 78.38547 61.24508 95.37039
#
# Poissons Ratio (x) = 0.31980 0.01686
# Poissons Ratio (y) = 0.40930 0.14091
# Poissons Ratio (z) = 0.01386 0.09049
#
# Static dielectric constant tensor:
#      x y z
#    x 1.750070 0.000000 0.000000 
#    y 0.000000 1.924930 0.000000 
#    z 0.000000 0.000000 1.923660 
# 
# From -- ./inp_files/34126.got.cif
#   From: 2010.05.17/outbox.cif.g08.bks.cpg/sg24_18_cif.got.tgz:34126.got - 2010.06.04 00:33:39.
