data_PCOD9334155
_publ_section_title
;
Structure prediction by ZEFSAII (Michael W. Deem and Ramdas Pophale) SiO2 
 PCOD9334155
Probable space group: I 21 21 21
;
_chemical_formula_sum "Si O2"
_cell_formula_units_Z 48
_cell_length_a 19.360144
_cell_length_b 11.537843
_cell_length_c 11.341461
_cell_angle_alpha 90.000000
_cell_angle_beta 90.000000
_cell_angle_gamma 90.000000
_cell_volume 2533.390934
_symmetry_space_group_name_H-M "I 21 21 21"
_symmetry_group_IT_number 24
_symmetry_cell_setting 'orthorhombic'
loop_
_space_group_symop_operation_xyz
x,y,z
-x,1/2-y,z
x,-y,1/2-z
1/2-x,y,-z
1/2+x,1/2+y,1/2+z
1/2-x,-y,1/2+z
1/2+x,1/2-y,-z
-x,1/2+y,1/2-z
loop_
_atom_site_type_symbol
_atom_site_label
_atom_site_fract_x
_atom_site_fract_y
_atom_site_fract_z
Si Si1 0.633126 0.334529 0.058671
Si Si2 0.250000 0.996292 0.500000
Si Si3 0.678235 0.000000 0.750000
Si Si4 0.152981 0.854226 0.834800
Si Si5 0.122394 0.562106 0.503158
Si Si6 0.712816 0.876641 0.117233
Si Si7 0.518233 0.502464 0.111861
O O1 0.657029 0.364876 0.193259
O O2 0.557018 0.388836 0.062292
O O3 0.685969 0.407235 0.975982
O O4 0.627613 0.198921 0.030163
O O5 0.216389 0.080647 0.599592
O O6 0.637150 0.035292 0.866410
O O7 0.728883 0.105176 0.714239
O O8 0.156353 0.717124 0.852239
O O9 0.080700 0.903446 0.886347
O O10 0.180393 0.499300 0.582389
O O11 0.051825 0.497246 0.539068
O O12 0.750000 0.832866 0.000000
O O13 0.498323 0.500000 0.250000
#
# Coordination Sequence:
#
# PCOD9334155 Si02
#       7
#     8   4   4   8   8   8   8
#     4  10  22  36  63  90 123 163 213 265 314 381
#     4  10  20  36  58  88 122 160 200 266 318 368
#     4  10  24  40  60  96 128 164 206 260 318 394
#     4  10  20  39  60  90 127 158 215 263 317 377
#     4  11  23  40  64  90 127 164 208 259 320 391
#     4  10  21  36  60  91 120 156 200 260 309 374
#     4   9  21  39  61  92 119 165 212 267 311 368
#
# _framework density 18.946936000000001
#
# number of rings (size 3 to 8) (size 9 to 14) (size 15 to 20)
#    0.000    2.000    0.833    3.000    9.333    0.667 
#    0.000    0.000   29.333    0.000    0.000    0.000 
#    0.000    0.000    0.000    0.000    0.000    0.000 
#
# Total GULP energy -133618.356937 kJ/mol
# GULP energy per Si atom -5567.431539 kJ/mol
# Density = 1.890381 g / cm^3
# Si number density = 18.946936 Si / 1000 Ang^3
#
#
#
# Elastic Constant Matrix: (Units=GPa)
#
#
# Indices 1 2 3 4 5 6 
#
# 1 102.9522 35.1951 73.0922 0.0000 0.0000 0.0000
# 2 35.1951 87.0997 20.3017 0.0000 0.0000 0.0000
# 3 73.0922 20.3017 84.2918 0.0000 0.0000 0.0000
# 4 0.0000 0.0000 0.0000 -21.7365 0.0000 0.0000
# 5 0.0000 0.0000 0.0000 0.0000 35.6554 0.0000
# 6 0.0000 0.0000 0.0000 0.0000 0.0000 15.2228
#
#
#
# Elastic Compliance Matrix: (Units=1/GPa)
#
#
# Indices 1 2 3 4 5 6 
#
# 1 0.027927 -0.005976 -0.022777 0.000000 0.000000 0.000000
# 2 -0.005976 0.013443 0.001944 0.000000 0.000000 0.000000
# 3 -0.022777 0.001944 0.031146 0.000000 0.000000 0.000000
# 4 0.000000 0.000000 0.000000 -0.046006 0.000000 0.000000
# 5 0.000000 0.000000 0.000000 0.000000 0.028046 0.000000
# 6 0.000000 0.000000 0.000000 0.000000 0.000000 0.065691
#
#
# Mechanical properties :
#
#
# Convention : Reuss Voigt Hill
#
# Bulk Modulus (GPa) = 52.91519 59.05799 55.98659
# Shear Modulus (GPa) = 27.75235 15.54531 21.64883
#
# Velocity S-wave (km/s) = 3.83135 2.86748 3.38391
# Velocity P-wave (km/s) = 6.89645 6.49624 6.69933
#
# Compressibility (1/GPa) = 0.01889817
#
# Stress axis : x y z
#
# Youngs Moduli (GPa) = 35.80752 74.39032 32.10662
#
# Poissons Ratio (x) = 0.44453 0.73130
# Poissons Ratio (y) = 0.21397 -0.06242
# Poissons Ratio (z) = 0.81560 -0.14462
#
# Static dielectric constant tensor:
#      x y z
#    x 1.675830 0.000000 0.000000 
#    y 0.000000 1.740590 0.000000 
#    z 0.000000 0.000000 1.680840 
# 
# From -- ./inp_files/21560.got.cif
#   From: 2010.05.17/outbox.cif.g08.bks.cpg/sg24_11_cif.got.tgz:21560.got - 2010.06.04 00:33:39.
