data_PCOD9334939
_publ_section_title
;
Structure prediction by ZEFSAII (Michael W. Deem and Ramdas Pophale) SiO2 
 PCOD9334939
Probable space group: I 21 21 21
;
_chemical_formula_sum "Si O2"
_cell_formula_units_Z 56
_cell_length_a 14.575213
_cell_length_b 16.288222
_cell_length_c 10.039815
_cell_angle_alpha 90.000000
_cell_angle_beta 90.000000
_cell_angle_gamma 90.000000
_cell_volume 2383.495303
_symmetry_space_group_name_H-M "I 21 21 21"
_symmetry_group_IT_number 24
_symmetry_cell_setting 'orthorhombic'
loop_
_space_group_symop_operation_xyz
x,y,z
-x,1/2-y,z
x,-y,1/2-z
1/2-x,y,-z
1/2+x,1/2+y,1/2+z
1/2-x,-y,1/2+z
1/2+x,1/2-y,-z
-x,1/2+y,1/2-z
loop_
_atom_site_type_symbol
_atom_site_label
_atom_site_fract_x
_atom_site_fract_y
_atom_site_fract_z
Si Si1 0.450982 0.875754 0.483339
Si Si2 0.900918 0.290623 0.726606
Si Si3 0.438228 0.167928 0.706106
Si Si4 0.293975 0.717705 0.806953
Si Si5 0.852320 0.946073 0.043270
Si Si6 0.536446 0.436234 0.453504
Si Si7 0.351981 0.373979 0.943632
O O1 0.395999 0.819724 0.380395
O O2 0.437686 0.858957 0.640230
O O3 0.560566 0.859025 0.462336
O O4 0.430420 0.970523 0.450234
O O5 0.814744 0.231869 0.694762
O O6 0.907664 0.373212 0.636705
O O7 0.000000 0.250000 0.701670
O O8 0.500000 0.250000 0.688064
O O9 0.338719 0.196286 0.654753
O O10 0.468563 0.096810 0.605850
O O11 0.333753 0.641545 0.889368
O O12 0.340294 0.696149 0.665410
O O13 0.926671 0.938081 0.924821
O O14 0.875591 0.034357 0.112643
O O15 0.750000 0.964784 0.000000
O O16 0.250000 0.374599 0.000000
#
# Coordination Sequence:
#
# PCOD9334939 Si02
#       7
#     8   8   8   8   8   8   8
#     4  11  24  46  69  98 140 186 231 286 348 414
#     4  12  27  44  68 104 143 184 227 285 353 414
#     4  12  23  41  71 102 132 175 237 288 348 403
#     4  12  25  39  68  96 139 176 235 284 345 405
#     4  10  21  38  65  98 133 174 224 285 354 420
#     4  11  24  46  69  98 140 186 231 286 348 414
#     4  10  21  38  65  98 133 174 224 285 354 420
#
# _framework density 23.494907000000001
#
# number of rings (size 3 to 8) (size 9 to 14) (size 15 to 20)
#    0.000    0.857    2.857    3.857    4.000    2.286 
#    0.000   10.000    0.000    0.000    0.000    0.000 
#    0.000    0.000    0.000    0.000    0.000    0.000 
#
# Total GULP energy -156230.556758 kJ/mol
# GULP energy per Si atom -5579.662741 kJ/mol
# Density = 2.344143 g / cm^3
# Si number density = 23.494907 Si / 1000 Ang^3
#
#
#
# Elastic Constant Matrix: (Units=GPa)
#
#
# Indices 1 2 3 4 5 6 
#
# 1 81.2727 17.9107 -7.4343 0.0000 0.0000 0.0000
# 2 17.9107 131.7020 19.5653 0.0000 0.0000 0.0000
# 3 -7.4343 19.5653 59.9558 0.0000 0.0000 0.0000
# 4 0.0000 0.0000 0.0000 31.3284 0.0000 0.0000
# 5 0.0000 0.0000 0.0000 0.0000 19.2384 0.0000
# 6 0.0000 0.0000 0.0000 0.0000 0.0000 40.3899
#
#
#
# Elastic Compliance Matrix: (Units=1/GPa)
#
#
# Indices 1 2 3 4 5 6 
#
# 1 0.012978 -0.002106 0.002297 0.000000 0.000000 0.000000
# 2 -0.002106 0.008322 -0.002977 0.000000 0.000000 0.000000
# 3 0.002297 -0.002977 0.017935 0.000000 0.000000 0.000000
# 4 0.000000 0.000000 0.000000 0.031920 0.000000 0.000000
# 5 0.000000 0.000000 0.000000 0.000000 0.051979 0.000000
# 6 0.000000 0.000000 0.000000 0.000000 0.000000 0.024759
#
#
# Mechanical properties :
#
#
# Convention : Reuss Voigt Hill
#
# Bulk Modulus (GPa) = 29.70661 37.00154 33.35407
# Shear Modulus (GPa) = 30.36069 34.38392 32.37230
#
# Velocity S-wave (km/s) = 3.59865 3.82967 3.71596
# Velocity P-wave (km/s) = 5.47160 5.94459 5.71299
#
# Compressibility (1/GPa) = 0.03366254
#
# Stress axis : x y z
#
# Youngs Moduli (GPa) = 77.05062 120.17006 55.75654
#
# Poissons Ratio (x) = 0.25310 -0.12805
# Poissons Ratio (y) = 0.16228 0.16597
# Poissons Ratio (z) = -0.17695 0.35771
#
# Static dielectric constant tensor:
#      x y z
#    x 2.015210 0.000000 0.000000 
#    y 0.000000 1.935700 0.000000 
#    z 0.000000 0.000000 1.999670 
# 
# From -- ./inp_files/20853.got.cif
#   From: 2010.05.17/outbox.cif.g08.bks.cpg/sg24_11_cif.got.tgz:20853.got - 2010.06.04 00:33:39.
