data_PCOD9334094
_publ_section_title
;
Structure prediction by ZEFSAII (Michael W. Deem and Ramdas Pophale) SiO2 
 PCOD9334094
Probable space group: I 21 21 21
;
_chemical_formula_sum "Si O2"
_cell_formula_units_Z 40
_cell_length_a 10.104771
_cell_length_b 21.152199
_cell_length_c 9.037707
_cell_angle_alpha 90.000000
_cell_angle_beta 90.000000
_cell_angle_gamma 90.000000
_cell_volume 1931.702567
_symmetry_space_group_name_H-M "I 21 21 21"
_symmetry_group_IT_number 24
_symmetry_cell_setting 'orthorhombic'
loop_
_space_group_symop_operation_xyz
x,y,z
-x,1/2-y,z
x,-y,1/2-z
1/2-x,y,-z
1/2+x,1/2+y,1/2+z
1/2-x,-y,1/2+z
1/2+x,1/2-y,-z
-x,1/2+y,1/2-z
loop_
_atom_site_type_symbol
_atom_site_label
_atom_site_fract_x
_atom_site_fract_y
_atom_site_fract_z
Si Si1 0.111709 0.000000 0.250000
Si Si2 0.750000 0.418614 0.000000
Si Si3 0.750000 0.091361 0.500000
Si Si4 0.528369 0.385612 0.203528
Si Si5 0.963927 0.610161 0.045413
Si Si6 0.143755 0.500000 0.750000
Si Si7 0.250000 0.797417 0.000000
Si Si8 0.500000 0.750000 0.190158
O O1 0.033776 0.050341 0.348542
O O2 0.197197 0.962286 0.368650
O O3 0.862724 0.378906 0.921493
O O4 0.617287 0.130951 0.533547
O O5 0.720275 0.044698 0.363604
O O6 0.572984 0.403725 0.372811
O O7 0.441604 0.447103 0.162114
O O8 0.470666 0.315280 0.223716
O O9 0.849760 0.658098 0.096715
O O10 0.363890 0.763699 0.097768
#
# Coordination Sequence:
#
# PCOD9334094 Si02
#       8
#     4   4   4   8   8   4   4   4
#     4  12  20  32  60  96 133 166 213 268 325 392
#     4  12  21  34  59  94 128 170 212 270 328 388
#     4  10  20  35  59  92 131 167 210 264 322 385
#     4  10  22  39  62  89 132 174 215 266 327 386
#     4  10  21  38  61  95 130 168 213 262 322 385
#     4  10  20  38  60  92 129 170 211 268 327 378
#     4  10  21  39  64  90 121 165 218 268 324 389
#     4  10  22  42  66  98 132 174 222 272 326 394
#
# _framework density 20.707121000000001
#
# number of rings (size 3 to 8) (size 9 to 14) (size 15 to 20)
#    0.000    1.600    0.000    7.800    0.000    7.200 
#    0.000    1.000    0.000   21.600    0.000    0.000 
#    0.000    0.000    0.000    0.000    0.000    0.000 
#
# Total GULP energy -111357.995975 kJ/mol
# GULP energy per Si atom -5567.899799 kJ/mol
# Density = 2.065999 g / cm^3
# Si number density = 20.707121 Si / 1000 Ang^3
#
#
#
# Elastic Constant Matrix: (Units=GPa)
#
#
# Indices 1 2 3 4 5 6 
#
# 1 158.8002 52.1777 22.5479 -0.0001 0.0001 0.0000
# 2 52.1777 117.7239 11.0204 -0.0005 0.0001 -0.0002
# 3 22.5479 11.0204 69.8169 -0.0004 0.0002 -0.0002
# 4 -0.0001 -0.0005 -0.0004 26.1234 0.0001 -0.0001
# 5 0.0001 0.0001 0.0002 0.0001 32.7700 0.0001
# 6 0.0000 -0.0002 -0.0002 -0.0001 0.0001 13.0904
#
#
#
# Elastic Compliance Matrix: (Units=1/GPa)
#
#
# Indices 1 2 3 4 5 6 
#
# 1 0.007626 -0.003196 -0.001958 0.000000 0.000000 0.000000
# 2 -0.003196 0.009962 -0.000540 0.000000 0.000000 0.000000
# 3 -0.001958 -0.000540 0.015041 0.000000 0.000000 0.000000
# 4 0.000000 0.000000 0.000000 0.038280 0.000000 0.000000
# 5 0.000000 0.000000 0.000000 0.000000 0.030516 0.000000
# 6 0.000000 0.000000 0.000000 0.000000 0.000000 0.076392
#
#
# Mechanical properties :
#
#
# Convention : Reuss Voigt Hill
#
# Bulk Modulus (GPa) = 47.08406 57.53699 52.31053
# Shear Modulus (GPa) = 25.47324 31.76977 28.62150
#
# Velocity S-wave (km/s) = 3.51118 3.92119 3.72184
# Velocity P-wave (km/s) = 6.26301 6.95323 6.61713
#
# Compressibility (1/GPa) = 0.02123861
#
# Stress axis : x y z
#
# Youngs Moduli (GPa) = 131.13813 100.38380 66.48566
#
# Poissons Ratio (x) = 0.32088 0.13019
# Poissons Ratio (y) = 0.41918 0.03591
# Poissons Ratio (z) = 0.25679 0.05422
#
# Static dielectric constant tensor:
#      x y z
#    x 1.836080 0.000000 0.000000 
#    y 0.000000 1.798330 0.000000 
#    z 0.000000 0.000000 1.715170 
# 
# From -- ./inp_files/11119.got.cif
#   From: 2010.05.17/outbox.cif.g08.bks.cpg/sg24_6_cif.got.tgz:11119.got - 2010.06.04 00:33:39.
