data_PCOD9334941
_publ_section_title
;
Structure prediction by ZEFSAII (Michael W. Deem and Ramdas Pophale) SiO2 
 PCOD9334941
Probable space group: I 21 21 21
;
_chemical_formula_sum "Si O2"
_cell_formula_units_Z 40
_cell_length_a 24.732810
_cell_length_b 8.297271
_cell_length_c 9.019973
_cell_angle_alpha 90.000000
_cell_angle_beta 90.000000
_cell_angle_gamma 90.000000
_cell_volume 1851.032200
_symmetry_space_group_name_H-M "I 21 21 21"
_symmetry_group_IT_number 24
_symmetry_cell_setting 'orthorhombic'
loop_
_space_group_symop_operation_xyz
x,y,z
-x,1/2-y,z
x,-y,1/2-z
1/2-x,y,-z
1/2+x,1/2+y,1/2+z
1/2-x,-y,1/2+z
1/2+x,1/2-y,-z
-x,1/2+y,1/2-z
loop_
_atom_site_type_symbol
_atom_site_label
_atom_site_fract_x
_atom_site_fract_y
_atom_site_fract_z
Si Si1 0.928475 0.500000 0.750000
Si Si2 0.235074 0.000000 0.750000
Si Si3 0.362451 0.303315 0.133699
Si Si4 0.750000 0.725257 0.500000
Si Si5 0.191061 0.720735 0.941970
Si Si6 0.096353 0.564385 0.084902
Si Si7 0.000000 0.750000 0.941937
O O1 0.891357 0.627972 0.656241
O O2 0.966799 0.619158 0.844660
O O3 0.203174 0.101673 0.624647
O O4 0.265570 0.873499 0.648657
O O5 0.305364 0.307737 0.046585
O O6 0.341865 0.346859 0.299575
O O7 0.399461 0.419601 0.036197
O O8 0.250000 0.662958 0.000000
O O9 0.148248 0.683124 0.068617
O O10 0.094836 0.500000 0.250000
O O11 0.043578 0.661490 0.041909
#
# Coordination Sequence:
#
# PCOD9334941 Si02
#       7
#     4   4   8   4   8   8   4
#     4  12  25  50  84 106 140 202 258 329 370 456
#     4  10  21  38  66 108 152 202 240 281 364 440
#     4  11  25  47  73 117 150 198 253 296 381 459
#     4  10  22  36  66 104 160 190 230 298 348 458
#     4  11  24  43  75 109 159 196 243 303 371 463
#     4  12  30  48  75 112 150 202 249 318 389 450
#     4  12  28  50  80 106 144 192 268 330 380 440
#
# _framework density 21.609563000000001
#
# number of rings (size 3 to 8) (size 9 to 14) (size 15 to 20)
#    0.000    0.800    3.000    4.200    7.000    1.600 
#    0.000    0.000    2.200    0.000    0.000    0.000 
#    0.000    0.000    0.000    0.000    0.000    0.000 
#
# Total GULP energy -111441.173809 kJ/mol
# GULP energy per Si atom -5572.058690 kJ/mol
# Density = 2.156038 g / cm^3
# Si number density = 21.609563 Si / 1000 Ang^3
#
#
#
# Elastic Constant Matrix: (Units=GPa)
#
#
# Indices 1 2 3 4 5 6 
#
# 1 163.3826 65.3920 85.8641 0.0000 0.0000 0.0000
# 2 65.3920 101.8004 74.2405 0.0000 0.0000 0.0000
# 3 85.8641 74.2405 132.2117 0.0000 0.0000 0.0000
# 4 0.0000 0.0000 0.0000 46.4926 0.0000 0.0000
# 5 0.0000 0.0000 0.0000 0.0000 18.1375 0.0000
# 6 0.0000 0.0000 0.0000 0.0000 0.0000 508.4212
#
#
#
# Elastic Compliance Matrix: (Units=1/GPa)
#
#
# Indices 1 2 3 4 5 6 
#
# 1 0.009736 -0.002782 -0.004761 0.000000 0.000000 0.000000
# 2 -0.002782 0.017430 -0.007981 0.000000 0.000000 0.000000
# 3 -0.004761 -0.007981 0.015137 0.000000 0.000000 0.000000
# 4 0.000000 0.000000 0.000000 0.021509 0.000000 0.000000
# 5 0.000000 0.000000 0.000000 0.000000 0.055134 0.000000
# 6 0.000000 0.000000 0.000000 0.000000 0.000000 0.001967
#
#
# Mechanical properties :
#
#
# Convention : Reuss Voigt Hill
#
# Bulk Modulus (GPa) = 88.84162 94.26532 91.55347
# Shear Modulus (GPa) = 32.11029 126.07014 79.09021
#
# Velocity S-wave (km/s) = 3.85896 7.64635 6.05633
# Velocity P-wave (km/s) = 7.81389 11.03051 9.55848
#
# Compressibility (1/GPa) = 0.01125599
#
# Stress axis : x y z
#
# Youngs Moduli (GPa) = 102.71039 57.37074 66.06320
#
# Poissons Ratio (x) = 0.15961 0.31452
# Poissons Ratio (y) = 0.28575 0.52724
# Poissons Ratio (z) = 0.48899 0.45787
#
# Static dielectric constant tensor:
#      x y z
#    x 1.783220 0.000000 0.000000 
#    y 0.000000 1.934700 0.000000 
#    z 0.000000 0.000000 1.508750 
# 
# From -- ./inp_files/15698.got.cif
#   From: 2010.05.17/outbox.cif.g08.bks.cpg/sg24_8_cif.got.tgz:15698.got - 2010.06.04 00:33:39.
