data_PCOD9334875
_publ_section_title
;
Structure prediction by ZEFSAII (Michael W. Deem and Ramdas Pophale) SiO2 
 PCOD9334875
Probable space group: I 21 21 21
;
_chemical_formula_sum "Si O2"
_cell_formula_units_Z 60
_cell_length_a 19.481456
_cell_length_b 7.559105
_cell_length_c 16.742959
_cell_angle_alpha 90.000000
_cell_angle_beta 90.000000
_cell_angle_gamma 90.000000
_cell_volume 2465.607848
_symmetry_space_group_name_H-M "I 21 21 21"
_symmetry_group_IT_number 24
_symmetry_cell_setting 'orthorhombic'
loop_
_space_group_symop_operation_xyz
x,y,z
-x,1/2-y,z
x,-y,1/2-z
1/2-x,y,-z
1/2+x,1/2+y,1/2+z
1/2-x,-y,1/2+z
1/2+x,1/2-y,-z
-x,1/2+y,1/2-z
loop_
_atom_site_type_symbol
_atom_site_label
_atom_site_fract_x
_atom_site_fract_y
_atom_site_fract_z
Si Si1 0.260743 0.969621 0.166783
Si Si2 0.255331 0.435456 0.663947
Si Si3 0.382706 0.496157 0.553994
Si Si4 0.394458 0.479654 0.130105
Si Si5 0.500000 0.250000 0.335062
Si Si6 0.489961 0.960880 0.656938
Si Si7 0.402915 0.924931 0.382870
Si Si8 0.360000 0.917972 0.560858
O O1 0.271449 0.762555 0.163857
O O2 0.221509 0.000000 0.250000
O O3 0.334523 0.058580 0.169008
O O4 0.214483 0.039208 0.094694
O O5 0.283984 0.500000 0.750000
O O6 0.313363 0.432254 0.596080
O O7 0.186445 0.545766 0.647991
O O8 0.395970 0.447797 0.461881
O O9 0.448753 0.450038 0.607242
O O10 0.371837 0.707802 0.558225
O O11 0.431258 0.628629 0.185230
O O12 0.425290 0.280429 0.125691
O O13 0.540914 0.426794 0.364153
O O14 0.500000 0.750000 0.647004
O O15 0.416471 0.003847 0.618994
O O16 0.493766 0.000000 0.750000
O O17 0.376466 0.972370 0.471375
#
# Coordination Sequence:
#
# PCOD9334875 Si02
#       8
#     8   8   8   8   4   8   8   8
#     4  12  25  43  68  99 137 180 234 289 347 415
#     4  12  25  43  68  99 137 180 234 289 347 415
#     4  10  22  41  66  98 135 184 226 277 342 411
#     4  11  24  45  72 101 140 179 230 291 348 409
#     4  12  24  44  70 104 134 180 228 284 342 416
#     4  10  21  38  57  91 136 175 223 267 332 405
#     4  11  24  45  72 101 140 179 230 291 348 409
#     4  10  22  41  66  98 135 184 226 277 342 411
#
# _framework density 24.334769000000001
#
# number of rings (size 3 to 8) (size 9 to 14) (size 15 to 20)
#    0.000    1.067    1.333    5.200    1.867    8.533 
#    2.400    0.667    0.000    0.000    0.000    0.000 
#    0.000    0.000    0.000    0.000    0.000    0.000 
#
# Total GULP energy -167570.445505 kJ/mol
# GULP energy per Si atom -5585.681517 kJ/mol
# Density = 2.427938 g / cm^3
# Si number density = 24.334769 Si / 1000 Ang^3
#
#
#
# Elastic Constant Matrix: (Units=GPa)
#
#
# Indices 1 2 3 4 5 6 
#
# 1 114.5701 13.4098 18.8707 0.0000 0.0000 0.0000
# 2 13.4098 87.0685 33.0952 0.0000 0.0000 0.0000
# 3 18.8707 33.0952 44.1122 0.0000 0.0000 0.0000
# 4 0.0000 0.0000 0.0000 23.3923 0.0000 0.0000
# 5 0.0000 0.0000 0.0000 0.0000 19.1638 0.0000
# 6 0.0000 0.0000 0.0000 0.0000 0.0000 35.7088
#
#
#
# Elastic Compliance Matrix: (Units=1/GPa)
#
#
# Indices 1 2 3 4 5 6 
#
# 1 0.009391 0.000113 -0.004102 0.000000 0.000000 0.000000
# 2 0.000113 0.016069 -0.012104 0.000000 0.000000 0.000000
# 3 -0.004102 -0.012104 0.033505 0.000000 0.000000 0.000000
# 4 0.000000 0.000000 0.000000 0.042749 0.000000 0.000000
# 5 0.000000 0.000000 0.000000 0.000000 0.052182 0.000000
# 6 0.000000 0.000000 0.000000 0.000000 0.000000 0.028004
#
#
# Mechanical properties :
#
#
# Convention : Reuss Voigt Hill
#
# Bulk Modulus (GPa) = 37.34306 41.83360 39.58833
# Shear Modulus (GPa) = 22.42040 27.67799 25.04919
#
# Velocity S-wave (km/s) = 3.03864 3.37617 3.21184
# Velocity P-wave (km/s) = 5.26213 5.69440 5.48253
#
# Compressibility (1/GPa) = 0.02677874
#
# Stress axis : x y z
#
# Youngs Moduli (GPa) = 106.48843 62.23350 29.84623
#
# Poissons Ratio (x) = -0.00702 0.12243
# Poissons Ratio (y) = -0.01202 0.36125
# Poissons Ratio (z) = 0.43681 0.75326
#
# Static dielectric constant tensor:
#      x y z
#    x 1.937250 0.000000 0.000000 
#    y 0.000000 1.934160 0.000000 
#    z 0.000000 0.000000 2.002480 
# 
# From -- ./inp_files/31180.got.cif
#   From: 2010.05.17/outbox.cif.g08.bks.cpg/sg24_16_cif.got.tgz:31180.got - 2010.06.04 00:33:39.
