data_PCOD9334491
_publ_section_title
;
Structure prediction by ZEFSAII (Michael W. Deem and Ramdas Pophale) SiO2 
 PCOD9334491
Probable space group: I 21 21 21
;
_chemical_formula_sum "Si O2"
_cell_formula_units_Z 52
_cell_length_a 17.611041
_cell_length_b 19.541694
_cell_length_c 7.729518
_cell_angle_alpha 90.000000
_cell_angle_beta 90.000000
_cell_angle_gamma 90.000000
_cell_volume 2660.110329
_symmetry_space_group_name_H-M "I 21 21 21"
_symmetry_group_IT_number 24
_symmetry_cell_setting 'orthorhombic'
loop_
_space_group_symop_operation_xyz
x,y,z
-x,1/2-y,z
x,-y,1/2-z
1/2-x,y,-z
1/2+x,1/2+y,1/2+z
1/2-x,-y,1/2+z
1/2+x,1/2-y,-z
-x,1/2+y,1/2-z
loop_
_atom_site_type_symbol
_atom_site_label
_atom_site_fract_x
_atom_site_fract_y
_atom_site_fract_z
Si Si1 0.250000 0.098803 0.000000
Si Si2 0.287430 0.334476 0.811588
Si Si3 0.314284 0.444893 0.383776
Si Si4 0.151163 0.811419 0.268866
Si Si5 0.902751 0.556415 0.107416
Si Si6 0.341675 0.000000 0.250000
Si Si7 0.000000 0.750000 0.196264
Si Si8 0.567610 0.884967 0.855883
O O1 0.185320 0.148146 0.071935
O O2 0.287246 0.054159 0.152479
O O3 0.230600 0.381211 0.700179
O O4 0.300841 0.257694 0.737121
O O5 0.371336 0.370947 0.799472
O O6 0.250000 0.329066 0.000000
O O7 0.342463 0.500000 0.250000
O O8 0.250000 0.481544 0.500000
O O9 0.381954 0.419352 0.499742
O O10 0.141935 0.871107 0.125598
O O11 0.065901 0.785471 0.305255
O O12 0.876344 0.500000 0.250000
O O13 0.989857 0.573176 0.162066
O O14 0.890533 0.530055 0.911503
O O15 0.040105 0.690660 0.089024
#
# Coordination Sequence:
#
# PCOD9334491 Si02
#       8
#     4   8   8   8   8   4   4   8
#     4  12  22  42  68 100 132 168 226 282 338 394
#     4  10  20  39  63  95 131 167 227 277 341 413
#     4  10  21  37  59  90 125 162 219 275 331 400
#     4  10  20  41  65  94 133 176 215 279 339 398
#     4  11  23  44  66  94 137 176 224 279 340 415
#     4  12  26  44  66 104 132 176 234 284 344 418
#     4   8  18  40  62  86 130 168 214 262 346 400
#     4   9  21  39  61  90 126 176 210 279 342 398
#
# _framework density 19.548061000000001
#
# number of rings (size 3 to 8) (size 9 to 14) (size 15 to 20)
#    0.000    1.846    2.308    1.385    1.077    3.692 
#   16.615    0.000    0.000    0.923    0.000    0.000 
#    0.000    0.000    0.000    0.000    0.000    0.000 
#
# Total GULP energy -144794.853702 kJ/mol
# GULP energy per Si atom -5569.032835 kJ/mol
# Density = 1.950357 g / cm^3
# Si number density = 19.548061 Si / 1000 Ang^3
#
#
#
# Elastic Constant Matrix: (Units=GPa)
#
#
# Indices 1 2 3 4 5 6 
#
# 1 73.9053 52.8751 29.0343 0.0000 0.0000 0.0000
# 2 52.8751 114.1025 49.7676 0.0000 0.0000 0.0000
# 3 29.0343 49.7676 87.5413 0.0000 0.0000 0.0000
# 4 0.0000 0.0000 0.0000 27.3554 0.0000 0.0000
# 5 0.0000 0.0000 0.0000 0.0000 22.7382 0.0000
# 6 0.0000 0.0000 0.0000 0.0000 0.0000 -60.9533
#
#
#
# Elastic Compliance Matrix: (Units=1/GPa)
#
#
# Indices 1 2 3 4 5 6 
#
# 1 0.020466 -0.008674 -0.001857 0.000000 0.000000 0.000000
# 2 -0.008674 0.015330 -0.005838 0.000000 0.000000 0.000000
# 3 -0.001857 -0.005838 0.015358 0.000000 0.000000 0.000000
# 4 0.000000 0.000000 0.000000 0.036556 0.000000 0.000000
# 5 0.000000 0.000000 0.000000 0.000000 0.043979 0.000000
# 6 0.000000 0.000000 0.000000 0.000000 0.000000 -0.016406
#
#
# Mechanical properties :
#
#
# Convention : Reuss Voigt Hill
#
# Bulk Modulus (GPa) = 54.30025 59.87811 57.08918
# Shear Modulus (GPa) = 32.43381 7.41951 19.92666
#
# Velocity S-wave (km/s) = 4.07773 1.95032 3.19622
# Velocity P-wave (km/s) = 7.07167 5.98075 6.54897
#
# Compressibility (1/GPa) = 0.01841612
#
# Stress axis : x y z
#
# Youngs Moduli (GPa) = 48.86124 65.23084 65.11244
#
# Poissons Ratio (x) = 0.56583 0.12088
# Poissons Ratio (y) = 0.42383 0.38015
# Poissons Ratio (z) = 0.09071 0.38084
#
# Static dielectric constant tensor:
#      x y z
#    x 1.706140 0.000000 0.000000 
#    y 0.000000 1.725870 0.000000 
#    z 0.000000 0.000000 1.700590 
# 
# From -- ./inp_files/14442.got.cif
#   From: 2010.05.17/outbox.cif.g08.bks.cpg/sg24_8_cif.got.tgz:14442.got - 2010.06.04 00:33:39.
