data_PCOD9334444
_publ_section_title
;
Structure prediction by ZEFSAII (Michael W. Deem and Ramdas Pophale) SiO2 
 PCOD9334444
Probable space group: I 21 21 21
;
_chemical_formula_sum "Si O2"
_cell_formula_units_Z 40
_cell_length_a 7.260943
_cell_length_b 18.018704
_cell_length_c 13.793866
_cell_angle_alpha 90.000000
_cell_angle_beta 90.000000
_cell_angle_gamma 90.000000
_cell_volume 1804.689873
_symmetry_space_group_name_H-M "I 21 21 21"
_symmetry_group_IT_number 24
_symmetry_cell_setting 'orthorhombic'
loop_
_space_group_symop_operation_xyz
x,y,z
-x,1/2-y,z
x,-y,1/2-z
1/2-x,y,-z
1/2+x,1/2+y,1/2+z
1/2-x,-y,1/2+z
1/2+x,1/2-y,-z
-x,1/2+y,1/2-z
loop_
_atom_site_type_symbol
_atom_site_label
_atom_site_fract_x
_atom_site_fract_y
_atom_site_fract_z
Si Si1 0.495759 0.375794 0.717918
Si Si2 0.914759 0.172880 0.745195
Si Si3 0.057415 0.520077 0.393094
Si Si4 0.994964 0.038762 0.887960
Si Si5 0.177183 0.881314 0.891541
O O1 0.306938 0.333918 0.740954
O O2 0.482625 0.434505 0.628654
O O3 0.525657 0.427063 0.811569
O O4 0.683461 0.339344 0.682732
O O5 0.000139 0.108597 0.815826
O O6 0.000000 0.250000 0.779028
O O7 0.983747 0.156342 0.635936
O O8 0.278104 0.519053 0.379588
O O9 0.991018 0.550134 0.496281
O O10 0.129122 0.968752 0.868883
O O11 0.250000 0.872667 0.000000
#
# Coordination Sequence:
#
# PCOD9334444 Si02
#       5
#     8   8   8   8   8
#     4  10  21  39  67  96 132 169 213 284 331 377
#     4  11  26  46  64  94 142 184 213 266 343 418
#     4   9  18  36  65  99 131 159 211 286 333 371
#     4  10  20  38  68  99 127 168 226 279 330 388
#     4  12  24  39  68 100 123 170 235 285 329 381
#
# _framework density 22.164473999999998
#
# number of rings (size 3 to 8) (size 9 to 14) (size 15 to 20)
#    0.000    1.600    4.000    0.600    5.600    1.600 
#    3.600    0.000   26.400    0.000    0.000    0.000 
#    0.000    0.000    0.000    0.000    0.000    0.000 
#
# Total GULP energy -111445.627963 kJ/mol
# GULP energy per Si atom -5572.281398 kJ/mol
# Density = 2.211403 g / cm^3
# Si number density = 22.164474 Si / 1000 Ang^3
#
#
#
# Elastic Constant Matrix: (Units=GPa)
#
#
# Indices 1 2 3 4 5 6 
#
# 1 85.7637 16.4218 17.6057 0.0000 0.0000 0.0000
# 2 16.4218 73.2577 21.2454 0.0000 0.0000 0.0000
# 3 17.6057 21.2454 102.2606 0.0000 0.0000 0.0000
# 4 0.0000 0.0000 0.0000 11.0474 0.0000 0.0000
# 5 0.0000 0.0000 0.0000 0.0000 35.3963 0.0000
# 6 0.0000 0.0000 0.0000 0.0000 0.0000 18.0881
#
#
#
# Elastic Compliance Matrix: (Units=1/GPa)
#
#
# Indices 1 2 3 4 5 6 
#
# 1 0.012443 -0.002307 -0.001663 0.000000 0.000000 0.000000
# 2 -0.002307 0.014953 -0.002709 0.000000 0.000000 0.000000
# 3 -0.001663 -0.002709 0.010628 0.000000 0.000000 0.000000
# 4 0.000000 0.000000 0.000000 0.090519 0.000000 0.000000
# 5 0.000000 0.000000 0.000000 0.000000 0.028252 0.000000
# 6 0.000000 0.000000 0.000000 0.000000 0.000000 0.055285
#
#
# Mechanical properties :
#
#
# Convention : Reuss Voigt Hill
#
# Bulk Modulus (GPa) = 40.54220 41.31420 40.92820
# Shear Modulus (GPa) = 21.39848 26.64028 24.01938
#
# Velocity S-wave (km/s) = 3.11052 3.47066 3.29551
# Velocity P-wave (km/s) = 5.58853 5.89414 5.74337
#
# Compressibility (1/GPa) = 0.02466566
#
# Stress axis : x y z
#
# Youngs Moduli (GPa) = 80.36604 66.87454 94.08964
#
# Poissons Ratio (x) = 0.15428 0.15647
# Poissons Ratio (y) = 0.18541 0.25494
# Poissons Ratio (z) = 0.13365 0.18120
#
# Static dielectric constant tensor:
#      x y z
#    x 1.970970 0.000000 0.000000 
#    y 0.000000 1.874690 0.000000 
#    z 0.000000 0.000000 1.836200 
# 
# From -- ./inp_files/24640.got.cif
#   From: 2010.05.17/outbox.cif.g08.bks.cpg/sg24_13_cif.got.tgz:24640.got - 2010.06.04 00:33:39.
