data_PCOD9334572
_publ_section_title
;
Structure prediction by ZEFSAII (Michael W. Deem and Ramdas Pophale) SiO2 
 PCOD9334572
Probable space group: I 21 21 21
;
_chemical_formula_sum "Si O2"
_cell_formula_units_Z 36
_cell_length_a 9.998573
_cell_length_b 22.412378
_cell_length_c 7.806418
_cell_angle_alpha 90.000000
_cell_angle_beta 90.000000
_cell_angle_gamma 90.000000
_cell_volume 1749.354242
_symmetry_space_group_name_H-M "I 21 21 21"
_symmetry_group_IT_number 24
_symmetry_cell_setting 'orthorhombic'
loop_
_space_group_symop_operation_xyz
x,y,z
-x,1/2-y,z
x,-y,1/2-z
1/2-x,y,-z
1/2+x,1/2+y,1/2+z
1/2-x,-y,1/2+z
1/2+x,1/2-y,-z
-x,1/2+y,1/2-z
loop_
_atom_site_type_symbol
_atom_site_label
_atom_site_fract_x
_atom_site_fract_y
_atom_site_fract_z
Si Si1 0.160243 0.133177 0.831028
Si Si2 0.091468 0.000000 0.750000
Si Si3 0.250000 0.795263 0.000000
Si Si4 0.596295 0.158391 0.972779
Si Si5 0.500000 0.750000 0.809859
Si Si6 0.102763 0.484168 0.056977
O O1 0.164058 0.062006 0.792875
O O2 0.211026 0.165093 0.662510
O O3 0.011698 0.159067 0.872936
O O4 0.250000 0.144507 0.000000
O O5 0.998988 0.009342 0.582904
O O6 0.126477 0.757599 0.068413
O O7 0.750000 0.179844 0.000000
O O8 0.531442 0.194632 0.816467
O O9 0.603896 0.087577 0.942740
O O10 0.069093 0.500000 0.250000
O O11 0.250000 0.505144 0.000000
#
# Coordination Sequence:
#
# PCOD9334572 Si02
#       6
#     8   4   4   8   4   8
#     4  11  25  49  70 104 144 181 229 290 353 423
#     4  10  24  38  72 102 134 186 218 276 358 424
#     4  12  30  48  72 104 134 184 246 286 348 418
#     4  10  25  46  72 100 136 185 228 282 352 402
#     4  12  28  48  72 102 134 188 234 296 338 416
#     4  10  20  40  66 101 139 177 225 281 336 412
#
# _framework density 20.579021999999998
#
# number of rings (size 3 to 8) (size 9 to 14) (size 15 to 20)
#    0.000    1.333    3.333    0.000   10.889    0.000 
#    4.000    0.000    0.000    0.000    0.000    0.000 
#    0.000    0.000    0.000    0.000    0.000    0.000 
#
# Total GULP energy -100521.280905 kJ/mol
# GULP energy per Si atom -5584.515606 kJ/mol
# Density = 2.053218 g / cm^3
# Si number density = 20.579022 Si / 1000 Ang^3
#
#
#
# Elastic Constant Matrix: (Units=GPa)
#
#
# Indices 1 2 3 4 5 6 
#
# 1 104.6778 32.4250 51.8659 -0.0006 -0.0001 0.0000
# 2 32.4250 28.5019 33.2968 -0.0006 0.0000 -0.0001
# 3 51.8659 33.2968 167.5957 0.0000 -0.0001 -0.0004
# 4 -0.0006 -0.0006 0.0000 -224.5260 -0.0022 -0.0018
# 5 -0.0001 0.0000 -0.0001 -0.0022 14.0353 0.0003
# 6 0.0000 -0.0001 -0.0004 -0.0018 0.0003 21.6433
#
#
#
# Elastic Compliance Matrix: (Units=1/GPa)
#
#
# Indices 1 2 3 4 5 6 
#
# 1 0.015090 -0.015251 -0.001640 0.000000 0.000000 0.000000
# 2 -0.015251 0.061104 -0.007420 0.000000 0.000000 0.000000
# 3 -0.001640 -0.007420 0.007948 0.000000 0.000000 0.000000
# 4 0.000000 0.000000 0.000000 -0.004454 -0.000001 0.000000
# 5 0.000000 0.000000 0.000000 -0.000001 0.071249 -0.000001
# 6 0.000000 0.000000 0.000000 0.000000 -0.000001 0.046204
#
#
# Mechanical properties :
#
#
# Convention : Reuss Voigt Hill
#
# Bulk Modulus (GPa) = 28.15295 59.55009 43.85152
# Shear Modulus (GPa) = 19.40971 -25.55698 -3.07364
#
# Velocity S-wave (km/s) = 3.07445 -3.52788 -1.22345
# Velocity P-wave (km/s) = 5.12963 3.52215 4.39993
#
# Compressibility (1/GPa) = 0.03552026
#
# Stress axis : x y z
#
# Youngs Moduli (GPa) = 66.26986 16.36557 125.81180
#
# Poissons Ratio (x) = 0.24959 0.20631
# Poissons Ratio (y) = 1.01069 0.93352
# Poissons Ratio (z) = 0.10867 0.12143
#
# Static dielectric constant tensor:
#      x y z
#    x 1.824750 0.000000 0.000000 
#    y 0.000000 1.727660 0.000000 
#    z 0.000000 0.000000 1.689710 
# 
# From -- ./inp_files/2322.got.cif
#   From: 2010.05.17/outbox.cif.g08.bks.cpg/sg24_2_cif.got.tgz:2322.got - 2010.06.04 00:33:39.
