data_PCOD9334297
_publ_section_title
;
Structure prediction by ZEFSAII (Michael W. Deem and Ramdas Pophale) SiO2 
 PCOD9334297
Probable space group: I 21 21 21
;
_chemical_formula_sum "Si O2"
_cell_formula_units_Z 48
_cell_length_a 7.280722
_cell_length_b 30.569911
_cell_length_c 9.399686
_cell_angle_alpha 90.000000
_cell_angle_beta 90.000000
_cell_angle_gamma 90.000000
_cell_volume 2092.097734
_symmetry_space_group_name_H-M "I 21 21 21"
_symmetry_group_IT_number 24
_symmetry_cell_setting 'orthorhombic'
loop_
_space_group_symop_operation_xyz
x,y,z
-x,1/2-y,z
x,-y,1/2-z
1/2-x,y,-z
1/2+x,1/2+y,1/2+z
1/2-x,-y,1/2+z
1/2+x,1/2-y,-z
-x,1/2+y,1/2-z
loop_
_atom_site_type_symbol
_atom_site_label
_atom_site_fract_x
_atom_site_fract_y
_atom_site_fract_z
Si Si1 0.285670 0.243935 0.659268
Si Si2 0.250000 0.051109 0.000000
Si Si3 0.879012 0.352758 0.310068
Si Si4 0.034425 0.933143 0.013504
Si Si5 0.526402 0.596066 0.287630
Si Si6 0.947016 0.500000 0.250000
Si Si7 0.754194 0.175866 0.834144
O O1 0.500000 0.250000 0.692190
O O2 0.250000 0.259451 0.500000
O O3 0.264848 0.191757 0.661669
O O4 0.187018 0.278774 0.759100
O O5 0.435774 0.074000 0.060289
O O6 0.179051 0.026633 0.140418
O O7 0.964593 0.381993 0.437741
O O8 0.730238 0.384772 0.242381
O O9 0.051606 0.339057 0.215506
O O10 0.958529 0.964847 0.139281
O O11 0.250000 0.944740 0.000000
O O12 0.968470 0.933167 0.849457
O O13 0.388580 0.636190 0.299226
O O14 0.750000 0.184054 0.000000
#
# Coordination Sequence:
#
# PCOD9334297 Si02
#       7
#     8   4   8   8   8   4   8
#     4  10  23  41  64  95 132 176 226 278 327 390
#     4  12  20  38  62 106 128 180 222 274 340 412
#     4  10  22  44  65  95 133 173 227 275 325 399
#     4  10  20  37  64 102 128 173 224 279 326 407
#     4  11  23  40  70  96 126 180 222 263 346 392
#     4  12  20  36  66 102 142 164 232 280 338 406
#     4  11  26  43  62  98 136 174 224 282 331 393
#
# _framework density 22.943477999999999
#
# number of rings (size 3 to 8) (size 9 to 14) (size 15 to 20)
#    0.000    1.333    4.167    2.500    7.000    0.000 
#   10.500    0.000    0.000    5.000    0.000    0.000 
#    0.000    0.000    0.000    0.000    0.000    0.000 
#
# Total GULP energy -133793.782887 kJ/mol
# GULP energy per Si atom -5574.740954 kJ/mol
# Density = 2.289126 g / cm^3
# Si number density = 22.943478 Si / 1000 Ang^3
#
#
#
# Elastic Constant Matrix: (Units=GPa)
#
#
# Indices 1 2 3 4 5 6 
#
# 1 64.4817 25.9146 26.7740 0.0000 0.0000 -0.0001
# 2 25.9146 128.6749 81.1171 -0.0003 -0.0001 -0.0003
# 3 26.7740 81.1171 171.1202 -0.0008 -0.0001 -0.0007
# 4 0.0000 -0.0003 -0.0008 71.1620 -0.0005 -0.0004
# 5 0.0000 -0.0001 -0.0001 -0.0005 16.1526 -0.0001
# 6 -0.0001 -0.0003 -0.0007 -0.0004 -0.0001 -12.4224
#
#
#
# Elastic Compliance Matrix: (Units=1/GPa)
#
#
# Indices 1 2 3 4 5 6 
#
# 1 0.017137 -0.002511 -0.001491 0.000000 0.000000 0.000000
# 2 -0.002511 0.011452 -0.005036 0.000000 0.000000 0.000000
# 3 -0.001491 -0.005036 0.008464 0.000000 0.000000 0.000000
# 4 0.000000 0.000000 0.000000 0.014052 0.000000 0.000000
# 5 0.000000 0.000000 0.000000 0.000000 0.061910 0.000000
# 6 0.000000 0.000000 0.000000 0.000000 0.000000 -0.080500
#
#
# Mechanical properties :
#
#
# Convention : Reuss Voigt Hill
#
# Bulk Modulus (GPa) = 52.69560 70.20979 61.45270
# Shear Modulus (GPa) = 87.84901 30.34318 59.09610
#
# Velocity S-wave (km/s) = 6.19455 3.64059 5.08067
# Velocity P-wave (km/s) = 8.61282 6.95266 7.82688
#
# Compressibility (1/GPa) = 0.01897691
#
# Stress axis : x y z
#
# Youngs Moduli (GPa) = 58.35472 87.32259 118.14542
#
# Poissons Ratio (x) = 0.21931 0.17612
# Poissons Ratio (y) = 0.14656 0.59493
# Poissons Ratio (z) = 0.08699 0.43972
#
# Static dielectric constant tensor:
#      x y z
#    x 1.848400 0.000000 0.000000 
#    y 0.000000 1.986200 0.000000 
#    z 0.000000 0.000000 1.926360 
# 
# From -- ./inp_files/9816.got.cif
#   From: 2010.05.17/outbox.cif.g08.bks.cpg/sg24_5_cif.got.tgz:9816.got - 2010.06.04 00:33:39.
