data_PCOD9334666
_publ_section_title
;
Structure prediction by ZEFSAII (Michael W. Deem and Ramdas Pophale) SiO2 
 PCOD9334666
Probable space group: I 21 21 21
;
_chemical_formula_sum "Si O2"
_cell_formula_units_Z 56
_cell_length_a 15.354424
_cell_length_b 8.949929
_cell_length_c 18.859031
_cell_angle_alpha 90.000000
_cell_angle_beta 90.000000
_cell_angle_gamma 90.000000
_cell_volume 2591.626986
_symmetry_space_group_name_H-M "I 21 21 21"
_symmetry_group_IT_number 24
_symmetry_cell_setting 'orthorhombic'
loop_
_space_group_symop_operation_xyz
x,y,z
-x,1/2-y,z
x,-y,1/2-z
1/2-x,y,-z
1/2+x,1/2+y,1/2+z
1/2-x,-y,1/2+z
1/2+x,1/2-y,-z
-x,1/2+y,1/2-z
loop_
_atom_site_type_symbol
_atom_site_label
_atom_site_fract_x
_atom_site_fract_y
_atom_site_fract_z
Si Si1 0.909115 0.325558 0.512115
Si Si2 0.290531 0.036772 0.074382
Si Si3 0.092101 0.179226 0.743069
Si Si4 0.342657 0.169184 0.641670
Si Si5 0.272459 0.318574 0.149577
Si Si6 0.914977 0.171895 0.223169
Si Si7 0.319059 0.355459 0.382368
O O1 0.886459 0.469675 0.561387
O O2 0.901151 0.354798 0.428069
O O3 0.841907 0.199216 0.539270
O O4 0.000000 0.250000 0.527073
O O5 0.280864 0.211168 0.082445
O O6 0.230529 0.962685 0.136079
O O7 0.250000 0.985005 0.000000
O O8 0.171904 0.231619 0.791680
O O9 0.118289 0.257883 0.668691
O O10 0.000000 0.250000 0.765340
O O11 0.086568 0.000000 0.750000
O O12 0.394380 0.210788 0.712249
O O13 0.280437 0.311333 0.631840
O O14 0.172955 0.334505 0.175860
O O15 0.321781 0.472349 0.135455
O O16 0.000000 0.250000 0.187967
O O17 0.930511 0.000000 0.250000
#
# Coordination Sequence:
#
# PCOD9334666 Si02
#       7
#     8   8   8   8   8   8   8
#     4  10  21  40  65  96 125 171 227 277 325 404
#     4   9  22  40  65  94 123 171 222 268 339 404
#     4  12  24  39  64  96 130 174 222 272 332 395
#     4  10  20  42  66  90 126 170 220 270 329 399
#     4  12  24  42  64  92 136 171 216 281 336 400
#     4  12  26  43  66 100 132 174 225 279 341 406
#     4  11  21  40  64  89 132 169 219 266 336 394
#
# _framework density 21.608049000000001
#
# number of rings (size 3 to 8) (size 9 to 14) (size 15 to 20)
#    0.000    1.143    2.857    5.143    2.000    2.286 
#    0.000    0.000    0.000    0.857    0.000    0.000 
#    0.000    0.000    0.000    0.000    0.000    0.000 
#
# Total GULP energy -156090.556937 kJ/mol
# GULP energy per Si atom -5574.662748 kJ/mol
# Density = 2.155887 g / cm^3
# Si number density = 21.608049 Si / 1000 Ang^3
#
#
#
# Elastic Constant Matrix: (Units=GPa)
#
#
# Indices 1 2 3 4 5 6 
#
# 1 101.8043 32.0134 6.8982 0.0000 0.0000 0.0000
# 2 32.0134 167.0081 21.7065 0.0000 0.0000 0.0000
# 3 6.8982 21.7065 53.1708 0.0000 0.0000 0.0000
# 4 0.0000 0.0000 0.0000 20.6728 0.0000 0.0000
# 5 0.0000 0.0000 0.0000 0.0000 17.3300 0.0000
# 6 0.0000 0.0000 0.0000 0.0000 0.0000 27.4406
#
#
#
# Elastic Compliance Matrix: (Units=1/GPa)
#
#
# Indices 1 2 3 4 5 6 
#
# 1 0.010469 -0.001933 -0.000569 0.000000 0.000000 0.000000
# 2 -0.001933 0.006680 -0.002476 0.000000 0.000000 0.000000
# 3 -0.000569 -0.002476 0.019892 0.000000 0.000000 0.000000
# 4 0.000000 0.000000 0.000000 0.048373 0.000000 0.000000
# 5 0.000000 0.000000 0.000000 0.000000 0.057703 0.000000
# 6 0.000000 0.000000 0.000000 0.000000 0.000000 0.036442
#
#
# Mechanical properties :
#
#
# Convention : Reuss Voigt Hill
#
# Bulk Modulus (GPa) = 36.92125 49.24660 43.08392
# Shear Modulus (GPa) = 25.18324 30.51301 27.84813
#
# Velocity S-wave (km/s) = 3.41758 3.76189 3.59386
# Velocity P-wave (km/s) = 5.71813 6.45828 6.09944
#
# Compressibility (1/GPa) = 0.02708467
#
# Stress axis : x y z
#
# Youngs Moduli (GPa) = 95.51891 149.69861 50.27123
#
# Poissons Ratio (x) = 0.28934 0.02861
# Poissons Ratio (y) = 0.18462 0.12449
# Poissons Ratio (z) = 0.05437 0.37070
#
# Static dielectric constant tensor:
#      x y z
#    x 1.848000 0.000000 0.000000 
#    y 0.000000 1.818390 0.000000 
#    z 0.000000 0.000000 1.922490 
# 
# From -- ./inp_files/15239.got.cif
#   From: 2010.05.17/outbox.cif.g08.bks.cpg/sg24_8_cif.got.tgz:15239.got - 2010.06.04 00:33:39.
