data_PCOD9334631
_publ_section_title
;
Structure prediction by ZEFSAII (Michael W. Deem and Ramdas Pophale) SiO2 
 PCOD9334631
Probable space group: I 21 21 21
;
_chemical_formula_sum "Si O2"
_cell_formula_units_Z 48
_cell_length_a 31.317251
_cell_length_b 8.572405
_cell_length_c 9.708006
_cell_angle_alpha 90.000000
_cell_angle_beta 90.000000
_cell_angle_gamma 90.000000
_cell_volume 2606.251667
_symmetry_space_group_name_H-M "I 21 21 21"
_symmetry_group_IT_number 24
_symmetry_cell_setting 'orthorhombic'
loop_
_space_group_symop_operation_xyz
x,y,z
-x,1/2-y,z
x,-y,1/2-z
1/2-x,y,-z
1/2+x,1/2+y,1/2+z
1/2-x,-y,1/2+z
1/2+x,1/2-y,-z
-x,1/2+y,1/2-z
loop_
_atom_site_type_symbol
_atom_site_label
_atom_site_fract_x
_atom_site_fract_y
_atom_site_fract_z
Si Si1 0.111575 0.198951 0.531141
Si Si2 0.547332 0.313132 0.234197
Si Si3 0.679686 0.815386 0.246452
Si Si4 0.236465 0.156962 0.339898
Si Si5 0.879023 0.674168 0.523694
Si Si6 0.353253 0.682876 0.766919
O O1 0.071241 0.240789 0.626600
O O2 0.152560 0.250748 0.618916
O O3 0.112462 0.285276 0.386522
O O4 0.116335 0.012662 0.512706
O O5 0.500000 0.250000 0.218467
O O6 0.546053 0.500000 0.250000
O O7 0.578601 0.272025 0.106775
O O8 0.728734 0.774658 0.223015
O O9 0.660249 0.727272 0.378928
O O10 0.673112 0.000000 0.250000
O O11 0.250000 0.131102 0.500000
O O12 0.189522 0.228336 0.317427
O O13 0.239080 0.000000 0.250000
O O14 0.870434 0.747155 0.375649
O O15 0.344553 0.500000 0.750000
#
# Coordination Sequence:
#
# PCOD9334631 Si02
#       6
#     8   8   8   8   8   8
#     4  10  20  41  60  87 120 160 202 238 297 367
#     4   9  20  38  65  94 120 152 195 243 295 361
#     4  11  22  38  60  86 117 154 202 255 297 343
#     4  12  26  42  61  85 119 164 209 252 299 366
#     4  10  22  39  64  86 120 163 198 241 298 372
#     4  12  25  40  60  90 121 157 203 260 308 344
#
# _framework density 18.417254
#
# number of rings (size 3 to 8) (size 9 to 14) (size 15 to 20)
#    0.000    1.333    1.667    5.500    2.333    4.000 
#    0.000    0.833    0.000    0.000    0.000    0.000 
#    0.000    0.000    0.000    0.000    0.000    0.000 
#
# Total GULP energy -134063.329377 kJ/mol
# GULP energy per Si atom -5585.972057 kJ/mol
# Density = 1.837534 g / cm^3
# Si number density = 18.417254 Si / 1000 Ang^3
#
#
#
# Elastic Constant Matrix: (Units=GPa)
#
#
# Indices 1 2 3 4 5 6 
#
# 1 111.6562 14.6366 57.4681 0.0000 0.0000 0.0000
# 2 14.6366 68.5087 42.4814 0.0000 0.0000 0.0000
# 3 57.4681 42.4814 172.5153 0.0000 0.0000 0.0000
# 4 0.0000 0.0000 0.0000 16.1579 0.0000 0.0000
# 5 0.0000 0.0000 0.0000 0.0000 54.3455 0.0000
# 6 0.0000 0.0000 0.0000 0.0000 0.0000 33.6205
#
#
#
# Elastic Compliance Matrix: (Units=1/GPa)
#
#
# Indices 1 2 3 4 5 6 
#
# 1 0.010810 -0.000090 -0.003579 0.000000 0.000000 0.000000
# 2 -0.000090 0.017228 -0.004212 0.000000 0.000000 0.000000
# 3 -0.003579 -0.004212 0.008026 0.000000 0.000000 0.000000
# 4 0.000000 0.000000 0.000000 0.061889 0.000000 0.000000
# 5 0.000000 0.000000 0.000000 0.000000 0.018401 0.000000
# 6 0.000000 0.000000 0.000000 0.000000 0.000000 0.029744
#
#
# Mechanical properties :
#
#
# Convention : Reuss Voigt Hill
#
# Bulk Modulus (GPa) = 49.25830 64.65027 56.95429
# Shear Modulus (GPa) = 29.65122 36.69773 33.17448
#
# Velocity S-wave (km/s) = 4.01680 4.46867 4.24874
# Velocity P-wave (km/s) = 6.95102 7.86159 7.42029
#
# Compressibility (1/GPa) = 0.02030115
#
# Stress axis : x y z
#
# Youngs Moduli (GPa) = 92.50848 58.04523 124.59554
#
# Poissons Ratio (x) = 0.00524 0.44589
# Poissons Ratio (y) = 0.00836 0.52483
# Poissons Ratio (z) = 0.33106 0.24450
#
# Static dielectric constant tensor:
#      x y z
#    x 1.615080 0.000000 0.000000 
#    y 0.000000 1.573400 0.000000 
#    z 0.000000 0.000000 1.607520 
# 
# From -- ./inp_files/9713.got.cif
#   From: 2010.05.17/outbox.cif.g08.bks.cpg/sg24_5_cif.got.tgz:9713.got - 2010.06.04 00:33:39.
