data_PCOD9334602
_publ_section_title
;
Structure prediction by ZEFSAII (Michael W. Deem and Ramdas Pophale) SiO2 
 PCOD9334602
Probable space group: I 21 21 21
;
_chemical_formula_sum "Si O2"
_cell_formula_units_Z 36
_cell_length_a 13.333876
_cell_length_b 5.797415
_cell_length_c 18.742005
_cell_angle_alpha 90.000000
_cell_angle_beta 90.000000
_cell_angle_gamma 90.000000
_cell_volume 1448.794709
_symmetry_space_group_name_H-M "I 21 21 21"
_symmetry_group_IT_number 24
_symmetry_cell_setting 'orthorhombic'
loop_
_space_group_symop_operation_xyz
x,y,z
-x,1/2-y,z
x,-y,1/2-z
1/2-x,y,-z
1/2+x,1/2+y,1/2+z
1/2-x,-y,1/2+z
1/2+x,1/2-y,-z
-x,1/2+y,1/2-z
loop_
_atom_site_type_symbol
_atom_site_label
_atom_site_fract_x
_atom_site_fract_y
_atom_site_fract_z
Si Si1 0.763560 0.500000 0.250000
Si Si2 0.905379 0.873032 0.321956
Si Si3 0.943674 0.000000 0.750000
Si Si4 0.749487 0.766495 0.113792
Si Si5 0.106338 0.375531 0.905311
Si Si6 0.250000 0.933180 0.500000
O O1 0.832528 0.679586 0.291466
O O2 0.712597 0.637274 0.185567
O O3 0.000000 0.750000 0.358959
O O4 0.944813 0.000000 0.250000
O O5 0.833929 0.045703 0.365572
O O6 0.884059 0.906775 0.680803
O O7 0.000000 0.750000 0.770012
O O8 0.650515 0.871769 0.075617
O O9 0.801094 0.591915 0.059457
O O10 0.000000 0.250000 0.914107
O O11 0.177977 0.217469 0.951703
#
# Coordination Sequence:
#
# PCOD9334602 Si02
#       6
#     4   8   4   8   8   4
#     4  10  22  41  71 110 154 194 276 339 407 498
#     4  10  20  40  69 113 155 201 262 337 407 496
#     4  10  26  49  87 136 162 218 298 369 429 506
#     4  11  26  44  78 113 157 218 270 343 427 513
#     4  11  28  53  82 118 165 217 285 357 438 519
#     4  12  28  54  76 118 168 220 278 344 436 528
#
# _framework density 24.848244000000001
#
# number of rings (size 3 to 8) (size 9 to 14) (size 15 to 20)
#    0.000    1.333    1.111    2.000   14.000    0.000 
#    0.000   16.667    0.000    0.000    0.000    0.000 
#    0.000    0.000    0.000    0.000    0.000    0.000 
#
# Total GULP energy -100382.844664 kJ/mol
# GULP energy per Si atom -5576.824704 kJ/mol
# Density = 2.479169 g / cm^3
# Si number density = 24.848244 Si / 1000 Ang^3
#
#
#
# Elastic Constant Matrix: (Units=GPa)
#
#
# Indices 1 2 3 4 5 6 
#
# 1 119.6663 70.2248 65.1895 0.0000 0.0000 0.0000
# 2 70.2248 164.9586 81.7065 0.0000 0.0000 0.0000
# 3 65.1895 81.7065 148.6309 0.0000 0.0000 0.0000
# 4 0.0000 0.0000 0.0000 70.9645 0.0000 0.0000
# 5 0.0000 0.0000 0.0000 0.0000 16.0644 0.0000
# 6 0.0000 0.0000 0.0000 0.0000 0.0000 -2.3910
#
#
#
# Elastic Compliance Matrix: (Units=1/GPa)
#
#
# Indices 1 2 3 4 5 6 
#
# 1 0.012312 -0.003527 -0.003461 0.000000 0.000000 0.000000
# 2 -0.003527 0.009341 -0.003588 0.000000 0.000000 0.000000
# 3 -0.003461 -0.003588 0.010219 0.000000 0.000000 0.000000
# 4 0.000000 0.000000 0.000000 0.014092 0.000000 0.000000
# 5 0.000000 0.000000 0.000000 0.000000 0.062249 0.000000
# 6 0.000000 0.000000 0.000000 0.000000 0.000000 -0.418228
#
#
# Mechanical properties :
#
#
# Convention : Reuss Voigt Hill
#
# Bulk Modulus (GPa) = 93.29164 96.38861 94.84012
# Shear Modulus (GPa) = -17.52595 31.33658 6.90532
#
# Velocity S-wave (km/s) = -2.65867 3.55508 1.66884
# Velocity P-wave (km/s) = 5.31050 7.46502 6.47796
#
# Compressibility (1/GPa) = 0.01071907
#
# Stress axis : x y z
#
# Youngs Moduli (GPa) = 81.22300 107.05773 97.86164
#
# Poissons Ratio (x) = 0.37759 0.33871
# Poissons Ratio (y) = 0.28647 0.35112
# Poissons Ratio (z) = 0.28112 0.38412
#
# Static dielectric constant tensor:
#      x y z
#    x 1.990680 0.000000 0.000000 
#    y 0.000000 2.101320 0.000000 
#    z 0.000000 0.000000 1.979490 
# 
# From -- ./inp_files/33581.got.cif
#   From: 2010.05.17/outbox.cif.g08.bks.cpg/sg24_17_cif.got.tgz:33581.got - 2010.06.04 00:33:39.
