data_PCOD9334224
_publ_section_title
;
Structure prediction by ZEFSAII (Michael W. Deem and Ramdas Pophale) SiO2 
 PCOD9334224
Probable space group: I 21 21 21
;
_chemical_formula_sum "Si O2"
_cell_formula_units_Z 60
_cell_length_a 28.616458
_cell_length_b 7.900493
_cell_length_c 11.556409
_cell_angle_alpha 90.000000
_cell_angle_beta 90.000000
_cell_angle_gamma 90.000000
_cell_volume 2612.720630
_symmetry_space_group_name_H-M "I 21 21 21"
_symmetry_group_IT_number 24
_symmetry_cell_setting 'orthorhombic'
loop_
_space_group_symop_operation_xyz
x,y,z
-x,1/2-y,z
x,-y,1/2-z
1/2-x,y,-z
1/2+x,1/2+y,1/2+z
1/2-x,-y,1/2+z
1/2+x,1/2-y,-z
-x,1/2+y,1/2-z
loop_
_atom_site_type_symbol
_atom_site_label
_atom_site_fract_x
_atom_site_fract_y
_atom_site_fract_z
Si Si1 0.000000 0.250000 0.911686
Si Si2 0.596748 0.897868 0.385250
Si Si3 0.233475 0.210345 0.127685
Si Si4 0.430604 0.032513 0.489184
Si Si5 0.126911 0.774388 0.818289
Si Si6 0.732747 0.681183 0.123674
Si Si7 0.875972 0.252178 0.116071
Si Si8 0.550808 0.307585 0.706900
O O1 0.956410 0.154001 0.851962
O O2 0.972662 0.398469 0.979286
O O3 0.628102 0.755599 0.319554
O O4 0.605307 0.876303 0.520303
O O5 0.611726 0.085934 0.355294
O O6 0.253798 0.268410 0.253112
O O7 0.178652 0.246413 0.134437
O O8 0.245766 0.008878 0.125776
O O9 0.250000 0.275191 0.000000
O O10 0.411807 0.099270 0.367842
O O11 0.444914 0.189188 0.569178
O O12 0.390059 0.933438 0.558733
O O13 0.176583 0.825196 0.870342
O O14 0.750000 0.756493 0.000000
O O15 0.905899 0.221291 0.230821
O O16 0.500000 0.250000 0.744280
O O17 0.553221 0.500000 0.750000
#
# Coordination Sequence:
#
# PCOD9334224 Si02
#       8
#     4   8   8   8   8   8   8   8
#     4  10  24  42  64  98 130 176 218 284 330 400
#     4  10  25  44  67  91 140 168 226 280 341 412
#     4  10  20  36  66  97 128 170 226 286 340 405
#     4  10  23  39  68  92 136 168 230 269 339 406
#     4  11  24  43  65  99 128 182 219 283 348 410
#     4  10  22  37  66  94 135 164 229 279 339 413
#     4  10  22  40  66  97 134 171 223 279 339 397
#     4  10  24  37  63  94 133 175 217 272 329 399
#
# _framework density 22.964568
#
# number of rings (size 3 to 8) (size 9 to 14) (size 15 to 20)
#    0.000    1.867    0.000    2.400   17.733    7.467 
#    0.000    3.333    0.000    0.000    0.000    0.000 
#    0.000    0.000    0.000    0.000    0.000    0.000 
#
# Total GULP energy -167383.697945 kJ/mol
# GULP energy per Si atom -5579.456598 kJ/mol
# Density = 2.291230 g / cm^3
# Si number density = 22.964568 Si / 1000 Ang^3
#
#
#
# Elastic Constant Matrix: (Units=GPa)
#
#
# Indices 1 2 3 4 5 6 
#
# 1 156.0713 16.0646 45.6622 0.0000 0.0000 0.0000
# 2 16.0646 52.5768 22.7913 0.0000 0.0000 0.0000
# 3 45.6622 22.7913 144.1799 0.0000 0.0000 0.0000
# 4 0.0000 0.0000 0.0000 15.2616 0.0000 0.0000
# 5 0.0000 0.0000 0.0000 0.0000 28.0208 0.0000
# 6 0.0000 0.0000 0.0000 0.0000 0.0000 10.1862
#
#
#
# Elastic Compliance Matrix: (Units=1/GPa)
#
#
# Indices 1 2 3 4 5 6 
#
# 1 0.007142 -0.001290 -0.002058 0.000000 0.000000 0.000000
# 2 -0.001290 0.020652 -0.002856 0.000000 0.000000 0.000000
# 3 -0.002058 -0.002856 0.008039 0.000000 0.000000 0.000000
# 4 0.000000 0.000000 0.000000 0.065524 0.000000 0.000000
# 5 0.000000 0.000000 0.000000 0.000000 0.035688 0.000000
# 6 0.000000 0.000000 0.000000 0.000000 0.000000 0.098172
#
#
# Mechanical properties :
#
#
# Convention : Reuss Voigt Hill
#
# Bulk Modulus (GPa) = 42.68948 57.98490 50.33719
# Shear Modulus (GPa) = 19.57456 28.58104 24.07780
#
# Velocity S-wave (km/s) = 2.92272 3.53168 3.24153
# Velocity P-wave (km/s) = 5.47899 6.47571 5.99809
#
# Compressibility (1/GPa) = 0.02342498
#
# Stress axis : x y z
#
# Youngs Moduli (GPa) = 140.01192 48.42136 124.39317
#
# Poissons Ratio (x) = 0.06247 0.25600
# Poissons Ratio (y) = 0.18064 0.35527
# Poissons Ratio (z) = 0.28815 0.13829
#
# Static dielectric constant tensor:
#      x y z
#    x 1.877510 0.000000 0.000000 
#    y 0.000000 1.854670 0.000000 
#    z 0.000000 0.000000 2.012580 
# 
# From -- ./inp_files/23171.got.cif
#   From: 2010.05.17/outbox.cif.g08.bks.cpg/sg24_12_cif.got.tgz:23171.got - 2010.06.04 00:33:39.
