data_PCOD9334613
_publ_section_title
;
Structure prediction by ZEFSAII (Michael W. Deem and Ramdas Pophale) SiO2 
 PCOD9334613
Probable space group: I 21 21 21
;
_chemical_formula_sum "Si O2"
_cell_formula_units_Z 56
_cell_length_a 16.200394
_cell_length_b 11.769938
_cell_length_c 13.791700
_cell_angle_alpha 90.000000
_cell_angle_beta 90.000000
_cell_angle_gamma 90.000000
_cell_volume 2629.768710
_symmetry_space_group_name_H-M "I 21 21 21"
_symmetry_group_IT_number 24
_symmetry_cell_setting 'orthorhombic'
loop_
_space_group_symop_operation_xyz
x,y,z
-x,1/2-y,z
x,-y,1/2-z
1/2-x,y,-z
1/2+x,1/2+y,1/2+z
1/2-x,-y,1/2+z
1/2+x,1/2-y,-z
-x,1/2+y,1/2-z
loop_
_atom_site_type_symbol
_atom_site_label
_atom_site_fract_x
_atom_site_fract_y
_atom_site_fract_z
Si Si1 0.335969 0.603043 0.047907
Si Si2 0.581453 0.686387 0.466590
Si Si3 0.764389 0.155331 0.279047
Si Si4 0.707268 0.613781 0.300055
Si Si5 0.674407 0.128856 0.935436
Si Si6 0.332553 0.007487 0.566488
Si Si7 0.906809 0.247082 0.403074
O O1 0.308322 0.594289 0.159439
O O2 0.250000 0.646540 0.000000
O O3 0.352336 0.483412 0.994599
O O4 0.402288 0.693213 0.011646
O O5 0.500000 0.750000 0.428002
O O6 0.645671 0.669253 0.378234
O O7 0.607592 0.774093 0.551806
O O8 0.593082 0.562664 0.515652
O O9 0.730436 0.283837 0.270006
O O10 0.791178 0.112075 0.172515
O O11 0.850034 0.165511 0.337441
O O12 0.671632 0.500000 0.250000
O O13 0.791896 0.569774 0.349840
O O14 0.750000 0.174183 0.000000
O O15 0.250000 0.024598 0.500000
O O16 0.367869 0.128163 0.596578
O O17 0.000000 0.250000 0.368452
#
# Coordination Sequence:
#
# PCOD9334613 Si02
#       7
#     8   8   8   8   8   8   8
#     4   9  23  39  63  93 131 181 223 277 345 434
#     4  11  24  40  65 101 141 178 227 301 364 410
#     4  11  21  43  67  98 129 179 248 285 341 443
#     4  11  21  41  71  99 128 182 251 290 335 429
#     4  11  21  42  68  93 130 181 230 280 353 428
#     4  10  20  40  70  93 127 185 233 282 337 426
#     4  11  24  40  61 102 147 176 226 296 367 405
#
# _framework density 21.294647999999999
#
# number of rings (size 3 to 8) (size 9 to 14) (size 15 to 20)
#    0.000    1.429    4.286    1.714    4.000    5.714 
#    0.000    3.571    0.000    0.000    0.000    0.000 
#    0.000    0.000    0.000    0.000    0.000    0.000 
#
# Total GULP energy -155955.764580 kJ/mol
# GULP energy per Si atom -5569.848735 kJ/mol
# Density = 2.124618 g / cm^3
# Si number density = 21.294648 Si / 1000 Ang^3
#
#
#
# Elastic Constant Matrix: (Units=GPa)
#
#
# Indices 1 2 3 4 5 6 
#
# 1 50.0482 37.9992 17.3326 0.0000 0.0000 0.0000
# 2 37.9992 120.7931 37.8712 0.0000 0.0000 0.0000
# 3 17.3326 37.8712 101.2812 0.0000 0.0000 0.0000
# 4 0.0000 0.0000 0.0000 25.1342 0.0000 0.0000
# 5 0.0000 0.0000 0.0000 0.0000 14.4854 0.0000
# 6 0.0000 0.0000 0.0000 0.0000 0.0000 26.5695
#
#
#
# Elastic Compliance Matrix: (Units=1/GPa)
#
#
# Indices 1 2 3 4 5 6 
#
# 1 0.026479 -0.007827 -0.001605 0.000000 0.000000 0.000000
# 2 -0.007827 0.011691 -0.003032 0.000000 0.000000 0.000000
# 3 -0.001605 -0.003032 0.011282 0.000000 0.000000 0.000000
# 4 0.000000 0.000000 0.000000 0.039786 0.000000 0.000000
# 5 0.000000 0.000000 0.000000 0.000000 0.069035 0.000000
# 6 0.000000 0.000000 0.000000 0.000000 0.000000 0.037637
#
#
# Mechanical properties :
#
#
# Convention : Reuss Voigt Hill
#
# Bulk Modulus (GPa) = 40.77511 50.94761 45.86136
# Shear Modulus (GPa) = 21.83280 25.16579 23.49929
#
# Velocity S-wave (km/s) = 3.20546 3.44145 3.32555
# Velocity P-wave (km/s) = 5.73494 6.30622 6.02735
#
# Compressibility (1/GPa) = 0.02452476
#
# Stress axis : x y z
#
# Youngs Moduli (GPa) = 37.76594 85.53298 88.63689
#
# Poissons Ratio (x) = 0.66943 0.14225
# Poissons Ratio (y) = 0.29558 0.26877
# Poissons Ratio (z) = 0.06061 0.25936
#
# Static dielectric constant tensor:
#      x y z
#    x 1.810530 0.000000 0.000000 
#    y 0.000000 1.828510 0.000000 
#    z 0.000000 0.000000 1.883080 
# 
# From -- ./inp_files/26511.got.cif
#   From: 2010.05.17/outbox.cif.g08.bks.cpg/sg24_14_cif.got.tgz:26511.got - 2010.06.04 00:33:39.
