data_PCOD9334072
_publ_section_title
;
Structure prediction by ZEFSAII (Michael W. Deem and Ramdas Pophale) SiO2 
 PCOD9334072
Probable space group: I 21 21 21
;
_chemical_formula_sum "Si O2"
_cell_formula_units_Z 52
_cell_length_a 8.932003
_cell_length_b 15.391813
_cell_length_c 19.271873
_cell_angle_alpha 90.000000
_cell_angle_beta 90.000000
_cell_angle_gamma 90.000000
_cell_volume 2649.491702
_symmetry_space_group_name_H-M "I 21 21 21"
_symmetry_group_IT_number 24
_symmetry_cell_setting 'orthorhombic'
loop_
_space_group_symop_operation_xyz
x,y,z
-x,1/2-y,z
x,-y,1/2-z
1/2-x,y,-z
1/2+x,1/2+y,1/2+z
1/2-x,-y,1/2+z
1/2+x,1/2-y,-z
-x,1/2+y,1/2-z
loop_
_atom_site_type_symbol
_atom_site_label
_atom_site_fract_x
_atom_site_fract_y
_atom_site_fract_z
Si Si1 0.500000 0.250000 0.834010
Si Si2 0.088083 0.399708 0.076243
Si Si3 0.031223 0.905158 0.724486
Si Si4 0.374041 0.444077 0.679506
Si Si5 0.065674 0.347899 0.925461
Si Si6 0.360599 0.701936 0.160067
Si Si7 0.833192 0.335119 0.276060
O O1 0.512028 0.333526 0.880837
O O2 0.636150 0.259922 0.781038
O O3 0.088975 0.488463 0.118386
O O4 0.253661 0.355311 0.080407
O O5 0.036063 0.399812 0.996849
O O6 0.205548 0.894947 0.743636
O O7 0.001202 0.889934 0.643754
O O8 0.941615 0.833136 0.769068
O O9 0.985143 0.000000 0.750000
O O10 0.338242 0.500000 0.750000
O O11 0.242391 0.383149 0.648055
O O12 0.518146 0.386104 0.702023
O O13 0.000000 0.250000 0.931926
O O14 0.500000 0.750000 0.121196
O O15 0.241982 0.780119 0.163545
#
# Coordination Sequence:
#
# PCOD9334072 Si02
#       7
#     4   8   8   8   8   8   8
#     4  12  18  36  54  86 122 156 204 242 308 368
#     4  11  24  35  61  90 122 173 203 251 308 375
#     4  11  22  36  59  92 123 163 205 258 311 368
#     4  12  20  36  58  87 125 162 210 264 313 364
#     4  11  22  42  58  86 126 168 206 240 305 383
#     4  10  20  35  57  88 120 158 203 259 319 367
#     4  11  21  34  59  87 123 156 205 264 307 364
#
# _framework density 19.626407
#
# number of rings (size 3 to 8) (size 9 to 14) (size 15 to 20)
#    0.000    0.923    3.846    6.000    0.000    0.000 
#    0.000    0.000    0.000    0.000    0.000   43.077 
#    0.000    0.000    0.000    0.000    0.000    0.000 
#
# Total GULP energy -144771.272070 kJ/mol
# GULP energy per Si atom -5568.125849 kJ/mol
# Density = 1.958174 g / cm^3
# Si number density = 19.626407 Si / 1000 Ang^3
#
#
#
# Elastic Constant Matrix: (Units=GPa)
#
#
# Indices 1 2 3 4 5 6 
#
# 1 66.7150 31.7025 11.5605 0.0000 0.0000 0.0000
# 2 31.7025 118.7056 46.3014 0.0000 0.0000 0.0000
# 3 11.5605 46.3014 83.9281 0.0000 0.0000 0.0000
# 4 0.0000 0.0000 0.0000 28.2615 0.0000 0.0000
# 5 0.0000 0.0000 0.0000 0.0000 62.9099 0.0000
# 6 0.0000 0.0000 0.0000 0.0000 0.0000 36.7943
#
#
#
# Elastic Compliance Matrix: (Units=1/GPa)
#
#
# Indices 1 2 3 4 5 6 
#
# 1 0.017171 -0.004668 0.000210 0.000000 0.000000 0.000000
# 2 -0.004668 0.012003 -0.005979 0.000000 0.000000 0.000000
# 3 0.000210 -0.005979 0.015184 0.000000 0.000000 0.000000
# 4 0.000000 0.000000 0.000000 0.035384 0.000000 0.000000
# 5 0.000000 0.000000 0.000000 0.000000 0.015896 0.000000
# 6 0.000000 0.000000 0.000000 0.000000 0.000000 0.027178
#
#
# Mechanical properties :
#
#
# Convention : Reuss Voigt Hill
#
# Bulk Modulus (GPa) = 42.58041 49.83083 46.20562
# Shear Modulus (GPa) = 32.99958 37.57877 35.28918
#
# Velocity S-wave (km/s) = 4.10492 4.38048 4.24494
# Velocity P-wave (km/s) = 6.64904 7.14350 6.90070
#
# Compressibility (1/GPa) = 0.02348498
#
# Stress axis : x y z
#
# Youngs Moduli (GPa) = 58.23843 83.31384 65.85703
#
# Poissons Ratio (x) = 0.38888 -0.01382
# Poissons Ratio (y) = 0.27184 0.39374
# Poissons Ratio (z) = -0.01222 0.49811
#
# Static dielectric constant tensor:
#      x y z
#    x 1.763230 0.000000 0.000000 
#    y 0.000000 1.701540 0.000000 
#    z 0.000000 0.000000 1.705690 
# 
# From -- ./inp_files/13053.got.cif
#   From: 2010.05.17/outbox.cif.g08.bks.cpg/sg24_7_cif.got.tgz:13053.got - 2010.06.04 00:33:39.
