data_PCOD9334698
_publ_section_title
;
Structure prediction by ZEFSAII (Michael W. Deem and Ramdas Pophale) SiO2 
 PCOD9334698
Probable space group: I 21 21 21
;
_chemical_formula_sum "Si O2"
_cell_formula_units_Z 32
_cell_length_a 19.961601
_cell_length_b 5.435739
_cell_length_c 11.849601
_cell_angle_alpha 90.000000
_cell_angle_beta 90.000000
_cell_angle_gamma 90.000000
_cell_volume 1285.753435
_symmetry_space_group_name_H-M "I 21 21 21"
_symmetry_group_IT_number 24
_symmetry_cell_setting 'orthorhombic'
loop_
_space_group_symop_operation_xyz
x,y,z
-x,1/2-y,z
x,-y,1/2-z
1/2-x,y,-z
1/2+x,1/2+y,1/2+z
1/2-x,-y,1/2+z
1/2+x,1/2-y,-z
-x,1/2+y,1/2-z
loop_
_atom_site_type_symbol
_atom_site_label
_atom_site_fract_x
_atom_site_fract_y
_atom_site_fract_z
Si Si1 0.133325 0.260162 0.881275
Si Si2 0.000000 0.750000 0.179662
Si Si3 0.250000 0.477156 0.500000
Si Si4 0.921714 0.748721 0.869523
Si Si5 0.650185 0.250870 0.675057
O O1 0.089545 0.487938 0.925430
O O2 0.121703 0.254943 0.746608
O O3 0.104389 0.002995 0.923147
O O4 0.206187 0.341793 0.921141
O O5 0.003201 0.500000 0.250000
O O6 0.925984 0.733284 0.127484
O O7 0.204462 0.302298 0.421789
O O8 0.000000 0.750000 0.839755
O O9 0.662195 0.500000 0.750000
O O10 0.653236 0.000000 0.750000
#
# Coordination Sequence:
#
# PCOD9334698 Si02
#       5
#     8   4   4   8   8
#     4  10  22  38  66 103 143 184 240 297 355 454
#     4   8  16  40  74 100 124 186 250 302 366 420
#     4  12  28  46  70 118 148 200 254 302 390 464
#     4  10  20  43  75 100 137 197 245 299 377 441
#     4  10  24  46  77 102 144 192 246 316 372 446
#
# _framework density 24.888131999999999
#
# number of rings (size 3 to 8) (size 9 to 14) (size 15 to 20)
#    0.000    2.000    0.000    3.750    3.500    6.000 
#    2.250    0.000   33.000    0.000    0.000    0.000 
#    0.000    0.000    0.000    0.000    0.000    0.000 
#
# Total GULP energy -89347.096250 kJ/mol
# GULP energy per Si atom -5584.193516 kJ/mol
# Density = 2.483149 g / cm^3
# Si number density = 24.888132 Si / 1000 Ang^3
#
#
#
# Elastic Constant Matrix: (Units=GPa)
#
#
# Indices 1 2 3 4 5 6 
#
# 1 218.5928 80.7567 91.8938 0.0000 0.0000 0.0000
# 2 80.7567 278.3895 77.3704 0.0000 0.0000 0.0000
# 3 91.8938 77.3704 84.6254 0.0000 0.0000 0.0000
# 4 0.0000 0.0000 0.0000 39.6748 0.0000 0.0000
# 5 0.0000 0.0000 0.0000 0.0000 10.4880 0.0000
# 6 0.0000 0.0000 0.0000 0.0000 0.0000 53.1124
#
#
#
# Elastic Compliance Matrix: (Units=1/GPa)
#
#
# Indices 1 2 3 4 5 6 
#
# 1 0.008421 0.000132 -0.009265 0.000000 0.000000 0.000000
# 2 0.000132 0.004818 -0.004548 0.000000 0.000000 0.000000
# 3 -0.009265 -0.004548 0.026036 0.000000 0.000000 0.000000
# 4 0.000000 0.000000 0.000000 0.025205 0.000000 0.000000
# 5 0.000000 0.000000 0.000000 0.000000 0.095347 0.000000
# 6 0.000000 0.000000 0.000000 0.000000 0.000000 0.018828
#
#
# Mechanical properties :
#
#
# Convention : Reuss Voigt Hill
#
# Bulk Modulus (GPa) = 83.94642 120.18327 102.06485
# Shear Modulus (GPa) = 23.81098 42.76082 33.28590
#
# Velocity S-wave (km/s) = 3.09645 4.14952 3.66104
# Velocity P-wave (km/s) = 6.82544 8.44703 7.67916
#
# Compressibility (1/GPa) = 0.01191236
#
# Stress axis : x y z
#
# Youngs Moduli (GPa) = 118.75510 207.56279 38.40889
#
# Poissons Ratio (x) = -0.02743 0.35585
# Poissons Ratio (y) = -0.01569 0.17469
# Poissons Ratio (z) = 1.10024 0.94406
#
# Static dielectric constant tensor:
#      x y z
#    x 2.018760 0.000000 0.000000 
#    y 0.000000 1.992070 0.000000 
#    z 0.000000 0.000000 1.995360 
# 
# From -- ./inp_files/3230.got.cif
#   From: 2010.05.17/outbox.cif.g08.bks.cpg/sg24_2_cif.got.tgz:3230.got - 2010.06.04 00:33:39.
