data_PCOD9334566
_publ_section_title
;
Structure prediction by ZEFSAII (Michael W. Deem and Ramdas Pophale) SiO2 
 PCOD9334566
Probable space group: I 21 21 21
;
_chemical_formula_sum "Si O2"
_cell_formula_units_Z 60
_cell_length_a 10.806560
_cell_length_b 9.229090
_cell_length_c 26.904633
_cell_angle_alpha 90.000000
_cell_angle_beta 90.000000
_cell_angle_gamma 90.000000
_cell_volume 2683.325900
_symmetry_space_group_name_H-M "I 21 21 21"
_symmetry_group_IT_number 24
_symmetry_cell_setting 'orthorhombic'
loop_
_space_group_symop_operation_xyz
x,y,z
-x,1/2-y,z
x,-y,1/2-z
1/2-x,y,-z
1/2+x,1/2+y,1/2+z
1/2-x,-y,1/2+z
1/2+x,1/2-y,-z
-x,1/2+y,1/2-z
loop_
_atom_site_type_symbol
_atom_site_label
_atom_site_fract_x
_atom_site_fract_y
_atom_site_fract_z
Si Si1 0.831422 0.605764 0.951083
Si Si2 0.203633 0.847352 0.729766
Si Si3 0.619480 0.344974 0.685409
Si Si4 0.798019 0.093027 0.080755
Si Si5 0.055174 0.410301 0.987731
Si Si6 0.695648 0.604643 0.626753
Si Si7 0.500000 0.250000 0.294565
Si Si8 0.327441 0.660875 0.130706
O O1 0.756602 0.493420 0.915871
O O2 0.852230 0.754530 0.920837
O O3 0.750000 0.634773 0.000000
O O4 0.955574 0.521148 0.966108
O O5 0.337573 0.842716 0.756945
O O6 0.210392 0.849599 0.671036
O O7 0.112330 0.737456 0.755631
O O8 0.150309 0.000000 0.750000
O O9 0.500000 0.250000 0.677804
O O10 0.604306 0.499605 0.658008
O O11 0.740840 0.275321 0.659856
O O12 0.897209 0.034942 0.041245
O O13 0.844339 0.244966 0.102546
O O14 0.756006 0.979035 0.121901
O O15 0.671990 0.111854 0.048690
O O16 0.000000 0.250000 0.994325
O O17 0.450944 0.365507 0.336621
#
# Coordination Sequence:
#
# PCOD9334566 Si02
#       8
#     8   8   8   8   8   8   4   8
#     4  11  23  42  65  88 129 182 230 273 336 404
#     4   9  20  38  65  97 128 171 220 273 342 413
#     4   9  20  42  66  91 128 171 217 270 335 412
#     4  11  24  40  60  93 129 163 221 278 334 396
#     4  11  23  40  62  86 126 170 216 278 332 393
#     4  10  21  41  66  95 130 174 221 276 344 406
#     4  10  20  40  64  94 136 172 218 286 350 408
#     4  10  23  40  62  94 130 169 223 283 335 408
#
# _framework density 22.360309999999998
#
# number of rings (size 3 to 8) (size 9 to 14) (size 15 to 20)
#    0.000    1.867    1.333    2.400    1.867    5.333 
#    0.000    8.000    0.000    0.000    0.000    0.000 
#    0.000    0.000    0.000    0.000    0.000    0.000 
#
# Total GULP energy -167258.058030 kJ/mol
# GULP energy per Si atom -5575.268601 kJ/mol
# Density = 2.230942 g / cm^3
# Si number density = 22.360310 Si / 1000 Ang^3
#
#
#
# Elastic Constant Matrix: (Units=GPa)
#
#
# Indices 1 2 3 4 5 6 
#
# 1 63.3606 7.7902 20.4117 0.0000 0.0000 0.0000
# 2 7.7902 60.8297 4.6905 0.0000 0.0000 0.0000
# 3 20.4117 4.6905 114.2530 0.0000 0.0000 0.0000
# 4 0.0000 0.0000 0.0000 20.4489 0.0000 0.0000
# 5 0.0000 0.0000 0.0000 0.0000 -19.8980 0.0000
# 6 0.0000 0.0000 0.0000 0.0000 0.0000 -6.5784
#
#
#
# Elastic Compliance Matrix: (Units=1/GPa)
#
#
# Indices 1 2 3 4 5 6 
#
# 1 0.016973 -0.001946 -0.002952 0.000000 0.000000 0.000000
# 2 -0.001946 0.016715 -0.000339 0.000000 0.000000 0.000000
# 3 -0.002952 -0.000339 0.009294 0.000000 0.000000 0.000000
# 4 0.000000 0.000000 0.000000 0.048902 0.000000 0.000000
# 5 0.000000 0.000000 0.000000 0.000000 -0.050256 0.000000
# 6 0.000000 0.000000 0.000000 0.000000 0.000000 -0.152012
#
#
# Mechanical properties :
#
#
# Convention : Reuss Voigt Hill
#
# Bulk Modulus (GPa) = 30.76198 33.80313 32.28255
# Shear Modulus (GPa) = -56.13248 12.49790 -21.81729
#
# Velocity S-wave (km/s) = -5.01579 2.36674 -3.12703
# Velocity P-wave (km/s) = 4.44487 4.75593 1.19624
#
# Compressibility (1/GPa) = 0.03250766
#
# Stress axis : x y z
#
# Youngs Moduli (GPa) = 58.91687 59.82774 107.59792
#
# Poissons Ratio (x) = 0.11643 0.31767
# Poissons Ratio (y) = 0.11465 0.03642
# Poissons Ratio (z) = 0.17395 0.02025
#
# Static dielectric constant tensor:
#      x y z
#    x 1.874860 0.000000 0.000000 
#    y 0.000000 1.884030 0.000000 
#    z 0.000000 0.000000 1.931570 
# 
# From -- ./inp_files/37210.got.cif
#   From: 2010.05.17/outbox.cif.g08.bks.cpg/sg24_19_cif.got.tgz:37210.got - 2010.06.04 00:33:39.
