data_PCOD9334016
_publ_section_title
;
Structure prediction by ZEFSAII (Michael W. Deem and Ramdas Pophale) SiO2 
 PCOD9334016
Probable space group: I 21 21 21
;
_chemical_formula_sum "Si O2"
_cell_formula_units_Z 44
_cell_length_a 8.487165
_cell_length_b 19.494706
_cell_length_c 11.359501
_cell_angle_alpha 90.000000
_cell_angle_beta 90.000000
_cell_angle_gamma 90.000000
_cell_volume 1879.483812
_symmetry_space_group_name_H-M "I 21 21 21"
_symmetry_group_IT_number 24
_symmetry_cell_setting 'orthorhombic'
loop_
_space_group_symop_operation_xyz
x,y,z
-x,1/2-y,z
x,-y,1/2-z
1/2-x,y,-z
1/2+x,1/2+y,1/2+z
1/2-x,-y,1/2+z
1/2+x,1/2-y,-z
-x,1/2+y,1/2-z
loop_
_atom_site_type_symbol
_atom_site_label
_atom_site_fract_x
_atom_site_fract_y
_atom_site_fract_z
Si Si1 0.070610 0.825592 0.050145
Si Si2 0.193711 0.975720 0.614548
Si Si3 0.978192 0.168066 0.691404
Si Si4 0.823349 0.350903 0.205265
Si Si5 0.610216 0.886742 0.415215
Si Si6 0.000000 0.750000 0.448328
O O1 0.074488 0.860223 0.177481
O O2 0.000000 0.750000 0.071695
O O3 0.250000 0.817857 0.000000
O O4 0.972696 0.857661 0.942356
O O5 0.250000 0.019474 0.500000
O O6 0.322537 0.913842 0.616229
O O7 0.018701 0.946575 0.595654
O O8 0.202378 0.000000 0.750000
O O9 0.851184 0.137755 0.781232
O O10 0.000000 0.250000 0.684661
O O11 0.144946 0.148772 0.749191
O O12 0.866503 0.281583 0.136984
O O13 0.750000 0.908892 0.500000
O O14 0.549465 0.814954 0.473652
#
# Coordination Sequence:
#
# PCOD9334016 Si02
#       6
#     8   8   8   8   8   4
#     4   9  17  30  48  80 124 175 207 256 328 409
#     4  11  25  46  68  99 133 187 242 277 331 413
#     4   9  17  30  50  83 129 168 207 256 341 420
#     4  10  20  34  59  93 128 172 218 278 343 402
#     4  11  23  37  64  99 131 174 218 291 359 402
#     4  12  20  32  64 100 148 156 220 288 372 406
#
# _framework density 23.410682000000001
#
# number of rings (size 3 to 8) (size 9 to 14) (size 15 to 20)
#    0.000    1.818    3.636    1.091    2.545    3.636 
#    0.000    0.909    0.000    0.000    0.000    0.000 
#    0.000    0.000    0.000    0.000    0.000    0.000 
#
# Total GULP energy -122709.464048 kJ/mol
# GULP energy per Si atom -5577.702911 kJ/mol
# Density = 2.335740 g / cm^3
# Si number density = 23.410682 Si / 1000 Ang^3
#
#
#
# Elastic Constant Matrix: (Units=GPa)
#
#
# Indices 1 2 3 4 5 6 
#
# 1 39.1804 20.7568 38.9193 0.0000 0.0000 0.0000
# 2 20.7568 46.9181 14.9630 0.0000 0.0000 0.0000
# 3 38.9193 14.9630 186.9545 0.0000 0.0000 0.0000
# 4 0.0000 0.0000 0.0000 30.0920 0.0000 0.0000
# 5 0.0000 0.0000 0.0000 0.0000 37.3785 0.0000
# 6 0.0000 0.0000 0.0000 0.0000 0.0000 23.1944
#
#
#
# Elastic Compliance Matrix: (Units=1/GPa)
#
#
# Indices 1 2 3 4 5 6 
#
# 1 0.041201 -0.015898 -0.007305 0.000000 0.000000 0.000000
# 2 -0.015898 0.028007 0.001068 0.000000 0.000000 0.000000
# 3 -0.007305 0.001068 0.006784 0.000000 0.000000 0.000000
# 4 0.000000 0.000000 0.000000 0.033231 0.000000 0.000000
# 5 0.000000 0.000000 0.000000 0.000000 0.026753 0.000000
# 6 0.000000 0.000000 0.000000 0.000000 0.000000 0.043114
#
#
# Mechanical properties :
#
#
# Convention : Reuss Voigt Hill
#
# Bulk Modulus (GPa) = 31.52334 46.92568 39.22451
# Shear Modulus (GPa) = 21.37352 31.36058 26.36705
#
# Velocity S-wave (km/s) = 3.02484 3.66400 3.35965
# Velocity P-wave (km/s) = 5.06894 6.16344 5.64279
#
# Compressibility (1/GPa) = 0.03172252
#
# Stress axis : x y z
#
# Youngs Moduli (GPa) = 24.27099 35.70599 147.40422
#
# Poissons Ratio (x) = 0.56766 1.07674
# Poissons Ratio (y) = 0.38586 -0.15744
# Poissons Ratio (z) = 0.17729 -0.03814
#
# Static dielectric constant tensor:
#      x y z
#    x 1.911360 0.000000 0.000000 
#    y 0.000000 2.008360 0.000000 
#    z 0.000000 0.000000 2.020540 
# 
# From -- ./inp_files/18517.got.cif
#   From: 2010.05.17/outbox.cif.g08.bks.cpg/sg24_10_cif.got.tgz:18517.got - 2010.06.04 00:33:39.
