data_PCOD9334506
_publ_section_title
;
Structure prediction by ZEFSAII (Michael W. Deem and Ramdas Pophale) SiO2 
 PCOD9334506
Probable space group: I 21 21 21
;
_chemical_formula_sum "Si O2"
_cell_formula_units_Z 56
_cell_length_a 20.993725
_cell_length_b 9.083084
_cell_length_c 14.220411
_cell_angle_alpha 90.000000
_cell_angle_beta 90.000000
_cell_angle_gamma 90.000000
_cell_volume 2711.658429
_symmetry_space_group_name_H-M "I 21 21 21"
_symmetry_group_IT_number 24
_symmetry_cell_setting 'orthorhombic'
loop_
_space_group_symop_operation_xyz
x,y,z
-x,1/2-y,z
x,-y,1/2-z
1/2-x,y,-z
1/2+x,1/2+y,1/2+z
1/2-x,-y,1/2+z
1/2+x,1/2-y,-z
-x,1/2+y,1/2-z
loop_
_atom_site_type_symbol
_atom_site_label
_atom_site_fract_x
_atom_site_fract_y
_atom_site_fract_z
Si Si1 0.108712 0.751536 0.893308
Si Si2 0.246252 0.365289 0.611496
Si Si3 0.000000 0.250000 0.873866
Si Si4 0.445109 0.475865 0.011518
Si Si5 0.651642 0.078191 0.846574
Si Si6 0.161297 0.154905 0.270252
Si Si7 0.062159 0.000000 0.750000
Si Si8 0.444839 0.126429 0.579433
O O1 0.173936 0.671702 0.865038
O O2 0.061024 0.612885 0.914938
O O3 0.096372 0.881925 0.819122
O O4 0.103346 0.828853 0.995558
O O5 0.250000 0.346411 0.500000
O O6 0.275836 0.524253 0.637103
O O7 0.293311 0.254994 0.665557
O O8 0.944404 0.179404 0.936452
O O9 0.977422 0.387622 0.813661
O O10 0.389390 0.478763 0.934163
O O11 0.512498 0.491339 0.957298
O O12 0.647715 0.249956 0.823101
O O13 0.628142 0.000000 0.750000
O O14 0.096855 0.119401 0.327453
O O15 0.193509 0.000000 0.250000
O O16 0.500000 0.250000 0.591431
#
# Coordination Sequence:
#
# PCOD9334506 Si02
#       8
#     8   8   4   8   8   8   4   8
#     4  11  22  42  69  93 125 178 228 272 340 387
#     4  11  20  44  68  85 125 178 220 273 324 389
#     4  12  26  44  64  98 142 172 222 280 336 406
#     4  11  23  42  68  99 136 175 224 266 331 417
#     4  10  22  44  66  99 133 171 229 265 323 409
#     4  11  25  40  63 100 138 168 216 281 332 393
#     4  12  26  44  66  98 138 176 226 292 330 400
#     4  10  20  39  66  95 128 174 214 261 336 404
#
# _framework density 20.651568999999999
#
# number of rings (size 3 to 8) (size 9 to 14) (size 15 to 20)
#    0.000    1.143    4.286    3.429    4.000    1.714 
#    7.714    0.714    0.000    0.000    0.000    0.000 
#    0.000    0.000    0.000    0.000    0.000    0.000 
#
# Total GULP energy -156109.367288 kJ/mol
# GULP energy per Si atom -5575.334546 kJ/mol
# Density = 2.060457 g / cm^3
# Si number density = 20.651569 Si / 1000 Ang^3
#
#
#
# Elastic Constant Matrix: (Units=GPa)
#
#
# Indices 1 2 3 4 5 6 
#
# 1 88.9317 27.9957 31.5249 0.0000 0.0000 0.0000
# 2 27.9957 126.1973 46.5336 0.0000 0.0000 0.0000
# 3 31.5249 46.5336 82.7771 0.0000 0.0000 0.0000
# 4 0.0000 0.0000 0.0000 29.5881 0.0000 0.0000
# 5 0.0000 0.0000 0.0000 0.0000 29.0904 0.0000
# 6 0.0000 0.0000 0.0000 0.0000 0.0000 14.4192
#
#
#
# Elastic Compliance Matrix: (Units=1/GPa)
#
#
# Indices 1 2 3 4 5 6 
#
# 1 0.013180 -0.001354 -0.004259 0.000000 0.000000 0.000000
# 2 -0.001354 0.010135 -0.005182 0.000000 0.000000 0.000000
# 3 -0.004259 -0.005182 0.016616 0.000000 0.000000 0.000000
# 4 0.000000 0.000000 0.000000 0.033797 0.000000 0.000000
# 5 0.000000 0.000000 0.000000 0.000000 0.034376 0.000000
# 6 0.000000 0.000000 0.000000 0.000000 0.000000 0.069352
#
#
# Mechanical properties :
#
#
# Convention : Reuss Voigt Hill
#
# Bulk Modulus (GPa) = 54.51818 56.66829 55.59323
# Shear Modulus (GPa) = 24.37133 27.40966 25.89049
#
# Velocity S-wave (km/s) = 3.43901 3.64709 3.54458
# Velocity P-wave (km/s) = 6.49811 6.72568 6.61287
#
# Compressibility (1/GPa) = 0.01834250
#
# Stress axis : x y z
#
# Youngs Moduli (GPa) = 75.87056 98.66607 60.18429
#
# Poissons Ratio (x) = 0.13356 0.25631
# Poissons Ratio (y) = 0.10270 0.31188
# Poissons Ratio (z) = 0.32311 0.51129
#
# Static dielectric constant tensor:
#      x y z
#    x 1.757700 0.000000 0.000000 
#    y 0.000000 1.774620 0.000000 
#    z 0.000000 0.000000 1.784950 
# 
# From -- ./inp_files/27609.got.cif
#   From: 2010.05.17/outbox.cif.g08.bks.cpg/sg24_14_cif.got.tgz:27609.got - 2010.06.04 00:33:39.
