data_PCOD9334406
_publ_section_title
;
Structure prediction by ZEFSAII (Michael W. Deem and Ramdas Pophale) SiO2 
 PCOD9334406
Probable space group: I 21 21 21
;
_chemical_formula_sum "Si O2"
_cell_formula_units_Z 44
_cell_length_a 9.242941
_cell_length_b 13.848369
_cell_length_c 16.636717
_cell_angle_alpha 90.000000
_cell_angle_beta 90.000000
_cell_angle_gamma 90.000000
_cell_volume 2129.494080
_symmetry_space_group_name_H-M "I 21 21 21"
_symmetry_group_IT_number 24
_symmetry_cell_setting 'orthorhombic'
loop_
_space_group_symop_operation_xyz
x,y,z
-x,1/2-y,z
x,-y,1/2-z
1/2-x,y,-z
1/2+x,1/2+y,1/2+z
1/2-x,-y,1/2+z
1/2+x,1/2-y,-z
-x,1/2+y,1/2-z
loop_
_atom_site_type_symbol
_atom_site_label
_atom_site_fract_x
_atom_site_fract_y
_atom_site_fract_z
Si Si1 0.511363 0.479389 0.058500
Si Si2 0.206823 0.384812 0.821885
Si Si3 0.019607 0.864314 0.811319
Si Si4 0.484480 0.057635 0.875375
Si Si5 0.760267 0.695310 0.587327
Si Si6 0.741140 0.500000 0.750000
O O1 0.374509 0.439930 0.106642
O O2 0.542724 0.579342 0.104682
O O3 0.635485 0.397617 0.073825
O O4 0.488121 0.486646 0.963416
O O5 0.371621 0.418906 0.826199
O O6 0.191427 0.272796 0.847936
O O7 0.123872 0.396267 0.737894
O O8 0.152158 0.907763 0.757541
O O9 0.000000 0.750000 0.821413
O O10 0.397337 0.156419 0.891087
O O11 0.367500 0.997749 0.824877
O O12 0.750000 0.745413 0.500000
#
# Coordination Sequence:
#
# PCOD9334406 Si02
#       6
#     8   8   8   8   8   4
#     4  11  22  42  65  96 134 181 216 266 334 402
#     4  12  22  37  65 104 136 167 219 278 337 394
#     4  12  25  44  71  96 132 181 229 271 331 411
#     4  11  24  38  67  94 139 170 217 277 333 391
#     4  10  20  38  65 101 136 171 213 270 339 401
#     4  12  24  46  68  96 128 178 228 280 340 390
#
# _framework density 20.662185000000001
#
# number of rings (size 3 to 8) (size 9 to 14) (size 15 to 20)
#    0.000    0.727    3.636    4.909    2.545    2.909 
#    0.000    0.000    8.000    0.000    0.000    0.000 
#    0.000    0.000    0.000    0.000    0.000    0.000 
#
# Total GULP energy -122873.628940 kJ/mol
# GULP energy per Si atom -5585.164952 kJ/mol
# Density = 2.061516 g / cm^3
# Si number density = 20.662185 Si / 1000 Ang^3
#
#
#
# Elastic Constant Matrix: (Units=GPa)
#
#
# Indices 1 2 3 4 5 6 
#
# 1 127.8848 29.4167 21.9010 0.0000 0.0000 0.0000
# 2 29.4167 128.8859 39.1394 0.0000 0.0000 0.0000
# 3 21.9010 39.1394 106.1080 0.0000 0.0000 0.0000
# 4 0.0000 0.0000 0.0000 32.1043 0.0000 0.0000
# 5 0.0000 0.0000 0.0000 0.0000 29.2228 0.0000
# 6 0.0000 0.0000 0.0000 0.0000 0.0000 18.3293
#
#
#
# Elastic Compliance Matrix: (Units=1/GPa)
#
#
# Indices 1 2 3 4 5 6 
#
# 1 0.008376 -0.001562 -0.001153 0.000000 0.000000 0.000000
# 2 -0.001562 0.009029 -0.003008 0.000000 0.000000 0.000000
# 3 -0.001153 -0.003008 0.010772 0.000000 0.000000 0.000000
# 4 0.000000 0.000000 0.000000 0.031148 0.000000 0.000000
# 5 0.000000 0.000000 0.000000 0.000000 0.034220 0.000000
# 6 0.000000 0.000000 0.000000 0.000000 0.000000 0.054557
#
#
# Mechanical properties :
#
#
# Convention : Reuss Voigt Hill
#
# Bulk Modulus (GPa) = 59.76683 60.42142 60.09413
# Shear Modulus (GPa) = 30.28014 34.09274 32.18644
#
# Velocity S-wave (km/s) = 3.83232 4.06643 3.95111
# Velocity P-wave (km/s) = 6.96927 7.16616 7.06840
#
# Compressibility (1/GPa) = 0.01673169
#
# Stress axis : x y z
#
# Youngs Moduli (GPa) = 119.38604 110.75793 92.83448
#
# Poissons Ratio (x) = 0.17297 0.10702
# Poissons Ratio (y) = 0.18644 0.27925
# Poissons Ratio (z) = 0.13763 0.33316
#
# Static dielectric constant tensor:
#      x y z
#    x 1.765800 0.000000 0.000000 
#    y 0.000000 1.770770 0.000000 
#    z 0.000000 0.000000 1.798470 
# 
# From -- ./inp_files/29408.got.cif
#   From: 2010.05.17/outbox.cif.g08.bks.cpg/sg24_15_cif.got.tgz:29408.got - 2010.06.04 00:33:39.
