data_PCOD9334038
_publ_section_title
;
Structure prediction by ZEFSAII (Michael W. Deem and Ramdas Pophale) SiO2 
 PCOD9334038
Probable space group: I 21 21 21
;
_chemical_formula_sum "Si O2"
_cell_formula_units_Z 56
_cell_length_a 8.756539
_cell_length_b 21.400740
_cell_length_c 18.649648
_cell_angle_alpha 90.000000
_cell_angle_beta 90.000000
_cell_angle_gamma 90.000000
_cell_volume 3494.877166
_symmetry_space_group_name_H-M "I 21 21 21"
_symmetry_group_IT_number 24
_symmetry_cell_setting 'orthorhombic'
loop_
_space_group_symop_operation_xyz
x,y,z
-x,1/2-y,z
x,-y,1/2-z
1/2-x,y,-z
1/2+x,1/2+y,1/2+z
1/2-x,-y,1/2+z
1/2+x,1/2-y,-z
-x,1/2+y,1/2-z
loop_
_atom_site_type_symbol
_atom_site_label
_atom_site_fract_x
_atom_site_fract_y
_atom_site_fract_z
Si Si1 0.318977 0.998183 0.422334
Si Si2 0.324512 0.564941 0.794948
Si Si3 0.318977 0.501817 0.422334
Si Si4 0.815522 0.374069 0.151518
Si Si5 0.324512 0.935059 0.794948
Si Si6 0.183076 0.750000 0.580156
Si Si7 0.315522 0.625932 0.651519
O O1 0.250000 0.011906 0.500000
O O2 0.500000 0.990668 0.426622
O O3 0.245524 0.933605 0.393033
O O4 0.275561 0.051339 0.364436
O O5 0.324687 0.500000 0.750000
O O6 0.224439 0.551339 0.864436
O O7 0.500000 0.577179 0.816293
O O8 0.274592 0.614926 0.735317
O O9 0.250000 0.488094 0.500000
O O10 0.245524 0.566395 0.393033
O O11 0.774592 0.385074 0.235317
O O12 0.744531 0.311491 0.120059
O O13 0.000000 0.373186 0.146811
O O14 0.324687 0.000000 0.750000
O O15 0.250000 0.750000 0.500000
O O16 0.244531 0.688509 0.620059
O O17 0.000000 0.750000 0.577655
#
# Coordination Sequence:
#
# PCOD9334038 Si02
#       7
#     8   8   8   8   8   8   8
#     4  11  20  30  47  71  99 127 158 196 238 282
#     4   8  16  31  49  68  92 122 155 193 237 284
#     4  11  20  30  47  71  99 127 158 196 238 282
#     4  10  20  35  51  68  95 128 161 196 237 282
#     4   8  16  31  49  68  92 122 155 193 237 284
#     4  12  24  36  50  70  97 128 165 200 232 274
#     4  10  20  35  51  68  95 128 161 196 237 282
#
# _framework density 16.023454000000001
#
# number of rings (size 3 to 8) (size 9 to 14) (size 15 to 20)
#    0.000    2.000    0.000    7.286    0.000    6.286 
#    0.000    0.000    0.000    0.000    0.000    1.000 
#    0.000    0.000    0.000    0.000    0.000    0.000 
#
# Total GULP energy -156204.415712 kJ/mol
# GULP energy per Si atom -5578.729133 kJ/mol
# Density = 1.598698 g / cm^3
# Si number density = 16.023454 Si / 1000 Ang^3
#
#
#
# Elastic Constant Matrix: (Units=GPa)
#
#
# Indices 1 2 3 4 5 6 
#
# 1 118.4081 41.9696 77.2286 0.0000 0.0000 0.0000
# 2 41.9696 79.0868 64.7657 0.0000 0.0000 0.0000
# 3 77.2286 64.7657 143.8062 0.0000 0.0000 0.0000
# 4 0.0000 0.0000 0.0000 26.7624 0.0000 0.0000
# 5 0.0000 0.0000 0.0000 0.0000 29.2139 0.0000
# 6 0.0000 0.0000 0.0000 0.0000 0.0000 20.7139
#
#
#
# Elastic Compliance Matrix: (Units=1/GPa)
#
#
# Indices 1 2 3 4 5 6 
#
# 1 0.013175 -0.001897 -0.006221 0.000000 0.000000 0.000000
# 2 -0.001897 0.020306 -0.008126 0.000000 0.000000 0.000000
# 3 -0.006221 -0.008126 0.013955 0.000000 0.000000 0.000000
# 4 0.000000 0.000000 0.000000 0.037366 0.000000 0.000000
# 5 0.000000 0.000000 0.000000 0.000000 0.034230 0.000000
# 6 0.000000 0.000000 0.000000 0.000000 0.000000 0.048277
#
#
# Mechanical properties :
#
#
# Convention : Reuss Voigt Hill
#
# Bulk Modulus (GPa) = 66.90499 78.80320 72.85409
# Shear Modulus (GPa) = 24.41641 25.82719 25.12180
#
# Velocity S-wave (km/s) = 3.90781 4.01912 3.96386
# Velocity P-wave (km/s) = 7.88710 8.41573 8.15570
#
# Compressibility (1/GPa) = 0.01494657
#
# Stress axis : x y z
#
# Youngs Moduli (GPa) = 75.89872 49.24677 71.66108
#
# Poissons Ratio (x) = 0.09343 0.44582
# Poissons Ratio (y) = 0.14400 0.58233
# Poissons Ratio (z) = 0.47218 0.40019
#
# Static dielectric constant tensor:
#      x y z
#    x 1.533350 0.000000 0.000000 
#    y 0.000000 1.521760 0.000000 
#    z 0.000000 0.000000 1.546920 
# 
# From -- ./inp_files/29761.got.cif
#   From: 2010.05.17/outbox.cif.g08.bks.cpg/sg24_15_cif.got.tgz:29761.got - 2010.06.04 00:33:39.
