data_PCOD9334004
_publ_section_title
;
Structure prediction by ZEFSAII (Michael W. Deem and Ramdas Pophale) SiO2 
 PCOD9334004
Probable space group: I 21 21 21
;
_chemical_formula_sum "Si O2"
_cell_formula_units_Z 36
_cell_length_a 8.229637
_cell_length_b 10.119080
_cell_length_c 20.111461
_cell_angle_alpha 90.000000
_cell_angle_beta 90.000000
_cell_angle_gamma 90.000000
_cell_volume 1674.809169
_symmetry_space_group_name_H-M "I 21 21 21"
_symmetry_group_IT_number 24
_symmetry_cell_setting 'orthorhombic'
loop_
_space_group_symop_operation_xyz
x,y,z
-x,1/2-y,z
x,-y,1/2-z
1/2-x,y,-z
1/2+x,1/2+y,1/2+z
1/2-x,-y,1/2+z
1/2+x,1/2-y,-z
-x,1/2+y,1/2-z
loop_
_atom_site_type_symbol
_atom_site_label
_atom_site_fract_x
_atom_site_fract_y
_atom_site_fract_z
Si Si1 0.311214 0.750280 0.200174
Si Si2 0.880492 0.467362 0.372164
Si Si3 0.612418 0.126880 0.946945
Si Si4 0.678147 0.701854 0.352355
Si Si5 0.391037 0.500000 0.750000
O O1 0.500000 0.750000 0.177390
O O2 0.191918 0.827878 0.150253
O O3 0.315587 0.818384 0.272940
O O4 0.227512 0.611440 0.219366
O O5 0.728797 0.564075 0.384450
O O6 0.005431 0.497758 0.431258
O O7 0.982167 0.526331 0.309661
O O8 0.500000 0.250000 0.969573
O O9 0.700063 0.188109 0.881224
O O10 0.750000 0.099465 0.000000
O O11 0.500000 0.750000 0.368765
#
# Coordination Sequence:
#
# PCOD9334004 Si02
#       5
#     8   8   8   8   4
#     4  11  24  36  57  91 138 180 219 271 352 422
#     4  11  22  37  59  91 137 182 219 276 348 410
#     4  10  21  38  61  94 133 182 233 286 335 396
#     4  10  20  34  57  88 134 175 218 270 334 408
#     4  12  22  38  58  92 136 172 220 276 344 420
#
# _framework density 21.494985
#
# number of rings (size 3 to 8) (size 9 to 14) (size 15 to 20)
#    0.000    1.333    4.444    1.333    6.222    0.000 
#    0.000    0.000    0.000    0.000    0.000   40.444 
#    0.000    0.000    0.000    0.000    0.000    0.000 
#
# Total GULP energy -100373.060881 kJ/mol
# GULP energy per Si atom -5576.281160 kJ/mol
# Density = 2.144606 g / cm^3
# Si number density = 21.494985 Si / 1000 Ang^3
#
#
#
# Elastic Constant Matrix: (Units=GPa)
#
#
# Indices 1 2 3 4 5 6 
#
# 1 163.1868 83.3373 37.3493 0.0000 0.0000 0.0000
# 2 83.3373 116.8591 18.6962 0.0000 0.0000 0.0000
# 3 37.3493 18.6962 53.5932 0.0000 0.0000 0.0000
# 4 0.0000 0.0000 0.0000 0.3322 0.0000 0.0000
# 5 0.0000 0.0000 0.0000 0.0000 22.6427 0.0000
# 6 0.0000 0.0000 0.0000 0.0000 0.0000 34.4921
#
#
#
# Elastic Compliance Matrix: (Units=1/GPa)
#
#
# Indices 1 2 3 4 5 6 
#
# 1 0.010828 -0.006899 -0.005139 0.000000 0.000000 0.000000
# 2 -0.006899 0.013460 0.000113 0.000000 0.000000 0.000000
# 3 -0.005139 0.000113 0.022201 0.000000 0.000000 0.000000
# 4 0.000000 0.000000 0.000000 3.009812 0.000000 0.000000
# 5 0.000000 0.000000 0.000000 0.000000 0.044164 0.000000
# 6 0.000000 0.000000 0.000000 0.000000 0.000000 0.028992
#
#
# Mechanical properties :
#
#
# Convention : Reuss Voigt Hill
#
# Bulk Modulus (GPa) = 44.17513 68.04494 56.11004
# Shear Modulus (GPa) = 1.58185 24.44383 13.01284
#
# Velocity S-wave (km/s) = 0.85879 3.37588 2.46314
# Velocity P-wave (km/s) = 4.64536 6.84984 5.85234
#
# Compressibility (1/GPa) = 0.02263717
#
# Stress axis : x y z
#
# Youngs Moduli (GPa) = 92.35708 74.29674 45.04299
#
# Poissons Ratio (x) = 0.51260 0.23147
# Poissons Ratio (y) = 0.63721 -0.00508
# Poissons Ratio (z) = 0.47461 -0.00838
#
# Static dielectric constant tensor:
#      x y z
#    x 1.812010 0.000000 0.000000 
#    y 0.000000 1.822050 0.000000 
#    z 0.000000 0.000000 1.819460 
# 
# From -- ./inp_files/9076.got.cif
#   From: 2010.05.17/outbox.cif.g08.bks.cpg/sg24_5_cif.got.tgz:9076.got - 2010.06.04 00:33:39.
