data_PCOD9334705
_publ_section_title
;
Structure prediction by ZEFSAII (Michael W. Deem and Ramdas Pophale) SiO2 
 PCOD9334705
Probable space group: I 21 21 21
;
_chemical_formula_sum "Si O2"
_cell_formula_units_Z 48
_cell_length_a 17.611312
_cell_length_b 11.700306
_cell_length_c 10.813753
_cell_angle_alpha 90.000000
_cell_angle_beta 90.000000
_cell_angle_gamma 90.000000
_cell_volume 2228.257498
_symmetry_space_group_name_H-M "I 21 21 21"
_symmetry_group_IT_number 24
_symmetry_cell_setting 'orthorhombic'
loop_
_space_group_symop_operation_xyz
x,y,z
-x,1/2-y,z
x,-y,1/2-z
1/2-x,y,-z
1/2+x,1/2+y,1/2+z
1/2-x,-y,1/2+z
1/2+x,1/2-y,-z
-x,1/2+y,1/2-z
loop_
_atom_site_type_symbol
_atom_site_label
_atom_site_fract_x
_atom_site_fract_y
_atom_site_fract_z
Si Si1 0.335906 0.826056 0.963267
Si Si2 0.403173 0.577461 0.997524
Si Si3 0.935943 0.511888 0.895179
Si Si4 0.285402 0.000000 0.750000
Si Si5 0.334765 0.500000 0.750000
Si Si6 0.181420 0.829347 0.596369
Si Si7 0.297241 0.586311 0.372466
O O1 0.381591 0.706796 0.958758
O O2 0.332000 0.919233 0.848816
O O3 0.250000 0.798365 0.000000
O O4 0.373899 0.892165 0.076747
O O5 0.383510 0.509715 0.871863
O O6 0.488956 0.552573 0.035097
O O7 0.352037 0.523413 0.109265
O O8 0.951166 0.500000 0.750000
O O9 0.893945 0.397151 0.942982
O O10 0.227995 0.910598 0.687568
O O11 0.270668 0.597353 0.728490
O O12 0.250000 0.809972 0.500000
O O13 0.157273 0.703318 0.637606
O O14 0.250000 0.577465 0.500000
#
# Coordination Sequence:
#
# PCOD9334705 Si02
#       7
#     8   8   8   4   4   8   8
#     4  12  23  45  75 104 139 182 241 295 352 432
#     4  11  26  44  67 106 144 191 230 293 368 428
#     4  12  25  45  64  98 145 186 235 297 365 425
#     4  12  20  39  75 110 126 178 242 314 354 409
#     4  10  20  45  69 100 138 178 238 290 342 437
#     4  11  20  41  67 101 135 176 243 292 348 431
#     4   9  21  39  68  98 131 177 231 284 339 420
#
# _framework density 21.541495000000001
#
# number of rings (size 3 to 8) (size 9 to 14) (size 15 to 20)
#    0.000    1.000    4.167    3.000    1.167    2.667 
#    3.000    0.000    0.000    0.000    0.000    0.000 
#    0.000    0.000    0.000    0.000    0.000    0.000 
#
# Total GULP energy -133627.029774 kJ/mol
# GULP energy per Si atom -5567.792907 kJ/mol
# Density = 2.149247 g / cm^3
# Si number density = 21.541495 Si / 1000 Ang^3
#
#
#
# Elastic Constant Matrix: (Units=GPa)
#
#
# Indices 1 2 3 4 5 6 
#
# 1 134.7463 43.3400 41.7804 0.0000 0.0000 0.0000
# 2 43.3400 124.1109 18.5169 0.0000 0.0000 0.0000
# 3 41.7804 18.5169 74.3384 0.0000 0.0000 0.0000
# 4 0.0000 0.0000 0.0000 13.8048 0.0000 0.0000
# 5 0.0000 0.0000 0.0000 0.0000 38.3211 0.0000
# 6 0.0000 0.0000 0.0000 0.0000 0.0000 28.2420
#
#
#
# Elastic Compliance Matrix: (Units=1/GPa)
#
#
# Indices 1 2 3 4 5 6 
#
# 1 0.009786 -0.002697 -0.004828 0.000000 0.000000 0.000000
# 2 -0.002697 0.009112 -0.000754 0.000000 0.000000 0.000000
# 3 -0.004828 -0.000754 0.016353 0.000000 0.000000 0.000000
# 4 0.000000 0.000000 0.000000 0.072438 0.000000 0.000000
# 5 0.000000 0.000000 0.000000 0.000000 0.026095 0.000000
# 6 0.000000 0.000000 0.000000 0.000000 0.000000 0.035408
#
#
# Mechanical properties :
#
#
# Convention : Reuss Voigt Hill
#
# Bulk Modulus (GPa) = 53.49628 60.05225 56.77426
# Shear Modulus (GPa) = 26.04418 31.37747 28.71082
#
# Velocity S-wave (km/s) = 3.48087 3.82069 3.65473
# Velocity P-wave (km/s) = 6.40650 6.88488 6.64999
#
# Compressibility (1/GPa) = 0.01869289
#
# Stress axis : x y z
#
# Youngs Moduli (GPa) = 102.18840 109.75082 61.14961
#
# Poissons Ratio (x) = 0.29599 0.29524
# Poissons Ratio (y) = 0.27559 0.04610
# Poissons Ratio (z) = 0.49338 0.08274
#
# Static dielectric constant tensor:
#      x y z
#    x 1.781150 0.000000 0.000000 
#    y 0.000000 1.893250 0.000000 
#    z 0.000000 0.000000 1.903500 
# 
# From -- ./inp_files/21556.got.cif
#   From: 2010.05.17/outbox.cif.g08.bks.cpg/sg24_11_cif.got.tgz:21556.got - 2010.06.04 00:33:39.
