data_PCOD9334371
_publ_section_title
;
Structure prediction by ZEFSAII (Michael W. Deem and Ramdas Pophale) SiO2 
 PCOD9334371
Probable space group: I 21 21 21
;
_chemical_formula_sum "Si O2"
_cell_formula_units_Z 64
_cell_length_a 9.511230
_cell_length_b 13.959293
_cell_length_c 23.059187
_cell_angle_alpha 90.000000
_cell_angle_beta 90.000000
_cell_angle_gamma 90.000000
_cell_volume 3061.569327
_symmetry_space_group_name_H-M "I 21 21 21"
_symmetry_group_IT_number 24
_symmetry_cell_setting 'orthorhombic'
loop_
_space_group_symop_operation_xyz
x,y,z
-x,1/2-y,z
x,-y,1/2-z
1/2-x,y,-z
1/2+x,1/2+y,1/2+z
1/2-x,-y,1/2+z
1/2+x,1/2-y,-z
-x,1/2+y,1/2-z
loop_
_atom_site_type_symbol
_atom_site_label
_atom_site_fract_x
_atom_site_fract_y
_atom_site_fract_z
Si Si1 0.231416 0.997595 0.171470
Si Si2 0.995354 0.596902 0.100536
Si Si3 0.157866 0.211643 0.217034
Si Si4 0.283321 0.744453 0.932676
Si Si5 0.141162 0.803813 0.818213
Si Si6 0.661790 0.418915 0.051996
Si Si7 0.387638 0.555198 0.517939
Si Si8 0.170182 0.734311 0.408805
O O1 0.181052 0.096934 0.202115
O O2 0.304731 0.028102 0.111360
O O3 0.343375 0.918318 0.193871
O O4 0.090137 0.935522 0.157492
O O5 0.139488 0.656623 0.100716
O O6 0.022762 0.501853 0.064796
O O7 0.892847 0.667865 0.066200
O O8 0.239717 0.236240 0.275264
O O9 0.211315 0.265068 0.158682
O O10 0.000000 0.250000 0.223775
O O11 0.167953 0.781529 0.886398
O O12 0.250000 0.723577 0.000000
O O13 0.000000 0.750000 0.801500
O O14 0.736609 0.316593 0.062180
O O15 0.750000 0.466153 0.000000
O O16 0.499784 0.415395 0.031452
O O17 0.250000 0.495250 0.500000
O O18 0.315086 0.639902 0.554030
O O19 0.000000 0.750000 0.410596
#
# Coordination Sequence:
#
# PCOD9334371 Si02
#       8
#     8   8   8   8   8   8   8   8
#     4  10  22  41  73  97 129 180 235 282 344 414
#     4  10  21  38  62  94 127 168 219 270 328 404
#     4  10  22  44  74  96 130 178 238 291 339 403
#     4  10  24  40  65  94 132 172 214 273 348 415
#     4  11  26  44  69  98 136 179 225 288 352 411
#     4  11  20  37  62  90 135 176 213 265 346 406
#     4  12  24  34  58  95 135 172 216 270 326 414
#     4  10  20  38  62  94 126 173 225 272 326 408
#
# _framework density 20.904312999999998
#
# number of rings (size 3 to 8) (size 9 to 14) (size 15 to 20)
#    0.000    1.500    2.500    2.625    8.750    1.000 
#    4.500    0.000    8.250    0.000    0.000    0.000 
#    0.000    0.000    0.000    0.000    0.000    0.000 
#
# Total GULP energy -178205.512314 kJ/mol
# GULP energy per Si atom -5568.922260 kJ/mol
# Density = 2.085673 g / cm^3
# Si number density = 20.904313 Si / 1000 Ang^3
#
#
#
# Elastic Constant Matrix: (Units=GPa)
#
#
# Indices 1 2 3 4 5 6 
#
# 1 100.4255 32.0149 35.8923 0.0000 0.0000 0.0000
# 2 32.0149 100.7794 26.9530 0.0000 0.0000 0.0000
# 3 35.8923 26.9530 110.8986 0.0000 0.0000 0.0000
# 4 0.0000 0.0000 0.0000 13.7257 0.0000 0.0000
# 5 0.0000 0.0000 0.0000 0.0000 26.2818 0.0000
# 6 0.0000 0.0000 0.0000 0.0000 0.0000 22.1413
#
#
#
# Elastic Compliance Matrix: (Units=1/GPa)
#
#
# Indices 1 2 3 4 5 6 
#
# 1 0.012041 -0.002976 -0.003174 0.000000 0.000000 0.000000
# 2 -0.002976 0.011348 -0.001795 0.000000 0.000000 0.000000
# 3 -0.003174 -0.001795 0.010481 0.000000 0.000000 0.000000
# 4 0.000000 0.000000 0.000000 0.072856 0.000000 0.000000
# 5 0.000000 0.000000 0.000000 0.000000 0.038049 0.000000
# 6 0.000000 0.000000 0.000000 0.000000 0.000000 0.045164
#
#
# Mechanical properties :
#
#
# Convention : Reuss Voigt Hill
#
# Bulk Modulus (GPa) = 55.61705 55.75823 55.68764
# Shear Modulus (GPa) = 23.60477 26.91266 25.25872
#
# Velocity S-wave (km/s) = 3.36398 3.59196 3.47983
# Velocity P-wave (km/s) = 6.46156 6.62826 6.54544
#
# Compressibility (1/GPa) = 0.01798010
#
# Stress axis : x y z
#
# Youngs Moduli (GPa) = 83.05174 88.12013 95.41432
#
# Poissons Ratio (x) = 0.26227 0.30281
# Poissons Ratio (y) = 0.24718 0.17125
# Poissons Ratio (z) = 0.26357 0.15816
#
# Static dielectric constant tensor:
#      x y z
#    x 1.884200 0.000000 0.000000 
#    y 0.000000 1.814850 0.000000 
#    z 0.000000 0.000000 1.795510 
# 
# From -- ./inp_files/35287.got.cif
#   From: 2010.05.17/outbox.cif.g08.bks.cpg/sg24_18_cif.got.tgz:35287.got - 2010.06.04 00:33:39.
