data_PCOD9334029
_publ_section_title
;
Structure prediction by ZEFSAII (Michael W. Deem and Ramdas Pophale) SiO2 
 PCOD9334029
Probable space group: I 21 21 21
;
_chemical_formula_sum "Si O2"
_cell_formula_units_Z 48
_cell_length_a 9.952472
_cell_length_b 14.270575
_cell_length_c 16.293182
_cell_angle_alpha 90.000000
_cell_angle_beta 90.000000
_cell_angle_gamma 90.000000
_cell_volume 2314.079876
_symmetry_space_group_name_H-M "I 21 21 21"
_symmetry_group_IT_number 24
_symmetry_cell_setting 'orthorhombic'
loop_
_space_group_symop_operation_xyz
x,y,z
-x,1/2-y,z
x,-y,1/2-z
1/2-x,y,-z
1/2+x,1/2+y,1/2+z
1/2-x,-y,1/2+z
1/2+x,1/2-y,-z
-x,1/2+y,1/2-z
loop_
_atom_site_type_symbol
_atom_site_label
_atom_site_fract_x
_atom_site_fract_y
_atom_site_fract_z
Si Si1 0.039024 0.000000 0.250000
Si Si2 0.837185 0.589800 0.402883
Si Si3 0.172498 0.349937 0.284601
Si Si4 0.500000 0.250000 0.855834
Si Si5 0.250000 0.072932 0.500000
Si Si6 0.425182 0.850038 0.328282
Si Si7 0.402445 0.500000 0.250000
Si Si8 0.353447 0.204200 0.357201
O O1 0.130422 0.944205 0.311431
O O2 0.945152 0.925783 0.201453
O O3 0.852286 0.499840 0.458646
O O4 0.688889 0.632760 0.395929
O O5 0.943191 0.670668 0.414314
O O6 0.304134 0.414412 0.273291
O O7 0.226073 0.275083 0.349930
O O8 0.115288 0.293186 0.204823
O O9 0.317083 0.132289 0.428259
O O10 0.500000 0.750000 0.343205
O O11 0.368680 0.837550 0.234796
O O12 0.509349 0.947318 0.319358
O O13 0.500000 0.250000 0.373877
#
# Coordination Sequence:
#
# PCOD9334029 Si02
#       8
#     4   8   8   4   4   8   4   8
#     4   9  21  36  66  90 121 157 210 274 298 369
#     4  11  22  40  59  93 120 168 210 255 322 371
#     4  10  20  34  62  97 115 155 205 268 321 348
#     4  10  20  40  66  86 124 152 222 280 306 360
#     4  12  28  38  58  90 136 180 200 236 324 398
#     4  11  20  37  70  94 120 155 215 283 311 356
#     4  11  17  32  58  98 127 141 198 268 320 369
#     4  11  22  42  61  94 128 165 207 258 314 378
#
# _framework density 20.742584999999998
#
# number of rings (size 3 to 8) (size 9 to 14) (size 15 to 20)
#    0.000    1.333    5.000    2.500    2.333    1.333 
#    1.500    0.000    0.000    0.000    0.000    0.000 
#    0.000    0.000    0.000    0.000    0.000    0.000 
#
# Total GULP energy -133743.300018 kJ/mol
# GULP energy per Si atom -5572.637501 kJ/mol
# Density = 2.069537 g / cm^3
# Si number density = 20.742585 Si / 1000 Ang^3
#
#
#
# Elastic Constant Matrix: (Units=GPa)
#
#
# Indices 1 2 3 4 5 6 
#
# 1 55.1065 53.8020 27.0181 0.0000 0.0000 0.0000
# 2 53.8020 136.8635 47.3030 0.0000 0.0000 0.0000
# 3 27.0181 47.3030 45.8184 0.0000 0.0000 0.0000
# 4 0.0000 0.0000 0.0000 40.3561 0.0000 0.0000
# 5 0.0000 0.0000 0.0000 0.0000 6.5615 0.0000
# 6 0.0000 0.0000 0.0000 0.0000 0.0000 26.8545
#
#
#
# Elastic Compliance Matrix: (Units=1/GPa)
#
#
# Indices 1 2 3 4 5 6 
#
# 1 0.031697 -0.009329 -0.009059 0.000000 0.000000 0.000000
# 2 -0.009329 0.014106 -0.009062 0.000000 0.000000 0.000000
# 3 -0.009059 -0.009062 0.036523 0.000000 0.000000 0.000000
# 4 0.000000 0.000000 0.000000 0.024779 0.000000 0.000000
# 5 0.000000 0.000000 0.000000 0.000000 0.152404 0.000000
# 6 0.000000 0.000000 0.000000 0.000000 0.000000 0.037238
#
#
# Mechanical properties :
#
#
# Convention : Reuss Voigt Hill
#
# Bulk Modulus (GPa) = 36.46338 54.89272 45.67805
# Shear Modulus (GPa) = 13.85853 22.06543 17.96198
#
# Velocity S-wave (km/s) = 2.58761 3.26509 2.94589
# Velocity P-wave (km/s) = 5.15216 6.38245 5.80002
#
# Compressibility (1/GPa) = 0.02742478
#
# Stress axis : x y z
#
# Youngs Moduli (GPa) = 31.54909 70.89287 27.38013
#
# Poissons Ratio (x) = 0.66136 0.24805
# Poissons Ratio (y) = 0.29432 0.24811
# Poissons Ratio (z) = 0.28582 0.64241
#
# Static dielectric constant tensor:
#      x y z
#    x 1.805850 0.000000 0.000000 
#    y 0.000000 1.916780 0.000000 
#    z 0.000000 0.000000 1.733600 
# 
# From -- ./inp_files/29551.got.cif
#   From: 2010.05.17/outbox.cif.g08.bks.cpg/sg24_15_cif.got.tgz:29551.got - 2010.06.04 00:33:39.
