data_PCOD9334883
_publ_section_title
;
Structure prediction by ZEFSAII (Michael W. Deem and Ramdas Pophale) SiO2 
 PCOD9334883
Probable space group: I 21 21 21
;
_chemical_formula_sum "Si O2"
_cell_formula_units_Z 56
_cell_length_a 23.704772
_cell_length_b 25.604307
_cell_length_c 5.120871
_cell_angle_alpha 90.000000
_cell_angle_beta 90.000000
_cell_angle_gamma 90.000000
_cell_volume 3108.083258
_symmetry_space_group_name_H-M "I 21 21 21"
_symmetry_group_IT_number 24
_symmetry_cell_setting 'orthorhombic'
loop_
_space_group_symop_operation_xyz
x,y,z
-x,1/2-y,z
x,-y,1/2-z
1/2-x,y,-z
1/2+x,1/2+y,1/2+z
1/2-x,-y,1/2+z
1/2+x,1/2-y,-z
-x,1/2+y,1/2-z
loop_
_atom_site_type_symbol
_atom_site_label
_atom_site_fract_x
_atom_site_fract_y
_atom_site_fract_z
Si Si1 0.750000 0.034401 0.500000
Si Si2 0.713284 0.500000 0.250000
Si Si3 0.211189 0.696702 0.743440
Si Si4 0.788851 0.318473 0.756048
Si Si5 0.442577 0.060852 0.827338
Si Si6 0.924064 0.939173 0.326131
Si Si7 0.125810 0.091201 0.662209
Si Si8 0.859939 0.099579 0.663184
O O1 0.802116 0.068843 0.599407
O O2 0.768025 0.000000 0.250000
O O3 0.750000 0.517266 0.500000
O O4 0.674492 0.547216 0.148668
O O5 0.250000 0.680250 0.500000
O O6 0.195702 0.757486 0.708845
O O7 0.158673 0.658191 0.768783
O O8 0.250000 0.692539 0.000000
O O9 0.750000 0.323111 0.500000
O O10 0.842815 0.354996 0.725716
O O11 0.750000 0.334600 0.000000
O O12 0.509195 0.070962 0.843037
O O13 0.409931 0.092416 0.602800
O O14 0.435134 0.000000 0.750000
O O15 0.414441 0.073182 0.103199
O O16 0.892475 0.926721 0.595687
O O17 0.916395 0.000000 0.250000
O O18 0.897444 0.905140 0.094831
#
# Coordination Sequence:
#
# PCOD9334883 Si02
#       8
#     4   4   8   8   8   8   8   8
#     4  12  24  34  54  86 124 150 178 228 302 366
#     4  12  22  32  52  88 122 144 172 222 296 348
#     4  10  21  38  59  83 113 153 192 225 280 354
#     4  10  21  38  59  86 117 149 190 231 280 349
#     4  11  22  40  58  81 111 157 203 231 277 340
#     4  11  24  39  58  82 115 152 199 239 277 339
#     4  12  21  37  60  83 117 153 189 237 283 338
#     4  12  22  38  58  84 116 152 187 238 288 340
#
# _framework density 18.017537000000001
#
# number of rings (size 3 to 8) (size 9 to 14) (size 15 to 20)
#    0.000    0.857    2.143    6.857    1.000    2.286 
#    0.000    0.000    0.000    5.143    0.000    0.000 
#    0.000    0.000    0.000    0.000    0.000    0.000 
#
# Total GULP energy -156625.762157 kJ/mol
# GULP energy per Si atom -5593.777220 kJ/mol
# Density = 1.797653 g / cm^3
# Si number density = 18.017537 Si / 1000 Ang^3
#
#
#
# Elastic Constant Matrix: (Units=GPa)
#
#
# Indices 1 2 3 4 5 6 
#
# 1 103.5977 33.1861 26.6298 0.0000 0.0000 0.0000
# 2 33.1861 56.8124 -4.8163 0.0000 0.0000 0.0000
# 3 26.6298 -4.8163 94.7164 0.0000 0.0000 0.0000
# 4 0.0000 0.0000 0.0000 2845.7176 0.0000 0.0000
# 5 0.0000 0.0000 0.0000 0.0000 22.6254 0.0000
# 6 0.0000 0.0000 0.0000 0.0000 0.0000 24.0091
#
#
#
# Elastic Compliance Matrix: (Units=1/GPa)
#
#
# Indices 1 2 3 4 5 6 
#
# 1 0.013330 -0.008139 -0.004162 0.000000 0.000000 0.000000
# 2 -0.008139 0.022648 0.003440 0.000000 0.000000 0.000000
# 3 -0.004162 0.003440 0.011903 0.000000 0.000000 0.000000
# 4 0.000000 0.000000 0.000000 0.000351 0.000000 0.000000
# 5 0.000000 0.000000 0.000000 0.000000 0.044198 0.000000
# 6 0.000000 0.000000 0.000000 0.000000 0.000000 0.041651
#
#
# Mechanical properties :
#
#
# Convention : Reuss Voigt Hill
#
# Bulk Modulus (GPa) = 33.15776 40.56951 36.86364
# Shear Modulus (GPa) = 30.89182 591.81221 311.35202
#
# Velocity S-wave (km/s) = 4.14519 18.14325 13.15979
# Velocity P-wave (km/s) = 6.43064 21.48183 15.85595
#
# Compressibility (1/GPa) = 0.03015885
#
# Stress axis : x y z
#
# Youngs Moduli (GPa) = 75.02021 44.15437 84.01383
#
# Poissons Ratio (x) = 0.35938 0.34963
# Poissons Ratio (y) = 0.61060 -0.28901
# Poissons Ratio (z) = 0.31220 -0.15189
#
# Static dielectric constant tensor:
#      x y z
#    x 1.555170 0.000000 0.000000 
#    y 0.000000 1.622150 0.000000 
#    z 0.000000 0.000000 1.612020 
# 
# From -- ./inp_files/5833.got.cif
#   From: 2010.05.17/outbox.cif.g08.bks.cpg/sg24_3_cif.got.tgz:5833.got - 2010.06.04 00:33:39.
