data_PCOD9334031
_publ_section_title
;
Structure prediction by ZEFSAII (Michael W. Deem and Ramdas Pophale) SiO2 
 PCOD9334031
Probable space group: I 21 21 21
;
_chemical_formula_sum "Si O2"
_cell_formula_units_Z 48
_cell_length_a 11.124893
_cell_length_b 24.433609
_cell_length_c 7.973342
_cell_angle_alpha 90.000000
_cell_angle_beta 90.000000
_cell_angle_gamma 90.000000
_cell_volume 2167.324074
_symmetry_space_group_name_H-M "I 21 21 21"
_symmetry_group_IT_number 24
_symmetry_cell_setting 'orthorhombic'
loop_
_space_group_symop_operation_xyz
x,y,z
-x,1/2-y,z
x,-y,1/2-z
1/2-x,y,-z
1/2+x,1/2+y,1/2+z
1/2-x,-y,1/2+z
1/2+x,1/2-y,-z
-x,1/2+y,1/2-z
loop_
_atom_site_type_symbol
_atom_site_label
_atom_site_fract_x
_atom_site_fract_y
_atom_site_fract_z
Si Si1 0.113211 0.824287 0.875159
Si Si2 0.639046 0.000000 0.750000
Si Si3 0.832563 0.801448 0.842326
Si Si4 0.966790 0.559751 0.510242
Si Si5 0.673023 0.386501 0.719635
Si Si6 0.750000 0.514349 0.000000
Si Si7 0.804277 0.908237 0.679482
O O1 0.165712 0.764073 0.832053
O O2 0.190970 0.864180 0.755644
O O3 0.971355 0.818524 0.857690
O O4 0.129636 0.846318 0.067552
O O5 0.550509 0.979868 0.603666
O O6 0.728077 0.949319 0.796022
O O7 0.783332 0.843980 0.706927
O O8 0.750000 0.814608 0.000000
O O9 0.913232 0.605659 0.379650
O O10 0.853499 0.524854 0.568315
O O11 0.054346 0.579297 0.658889
O O12 0.688467 0.445574 0.634209
O O13 0.750000 0.921585 0.500000
#
# Coordination Sequence:
#
# PCOD9334031 Si02
#       7
#     8   4   8   8   8   4   8
#     4   9  22  40  65  98 125 167 238 270 330 402
#     4  10  22  44  60  92 138 178 214 274 330 422
#     4  11  22  42  68  93 132 175 229 283 327 402
#     4  11  22  41  62  99 139 172 225 276 346 401
#     4  10  20  40  66  94 129 170 217 286 326 402
#     4  10  20  34  64  92 128 174 210 268 340 408
#     4  10  26  42  65  95 136 174 226 271 341 405
#
# _framework density 22.147124999999999
#
# number of rings (size 3 to 8) (size 9 to 14) (size 15 to 20)
#    0.000    2.000    3.333    0.000    7.000    4.667 
#    0.000    3.333    0.000    0.000    0.000    0.000 
#    0.000    0.000    0.000    0.000    0.000    0.000 
#
# Total GULP energy -133778.883660 kJ/mol
# GULP energy per Si atom -5574.120152 kJ/mol
# Density = 2.209672 g / cm^3
# Si number density = 22.147125 Si / 1000 Ang^3
#
#
#
# Elastic Constant Matrix: (Units=GPa)
#
#
# Indices 1 2 3 4 5 6 
#
# 1 107.5022 45.5085 9.6823 0.0003 0.0000 0.0000
# 2 45.5085 135.7384 27.3873 0.0019 -0.0005 -0.0001
# 3 9.6823 27.3873 38.1877 0.0049 -0.0015 -0.0010
# 4 0.0003 0.0019 0.0049 31.6606 -0.0010 -0.0004
# 5 0.0000 -0.0005 -0.0015 -0.0010 15.6579 0.0000
# 6 0.0000 -0.0001 -0.0010 -0.0004 0.0000 40.5825
#
#
#
# Elastic Compliance Matrix: (Units=1/GPa)
#
#
# Indices 1 2 3 4 5 6 
#
# 1 0.010842 -0.003601 -0.000166 0.000000 0.000000 0.000000
# 2 -0.003601 0.009810 -0.006122 0.000000 0.000000 0.000000
# 3 -0.000166 -0.006122 0.030619 -0.000004 0.000003 0.000001
# 4 0.000000 0.000000 -0.000004 0.031585 0.000002 0.000000
# 5 0.000000 0.000000 0.000003 0.000002 0.063866 0.000000
# 6 0.000000 0.000000 0.000001 0.000000 0.000000 0.024641
#
#
# Mechanical properties :
#
#
# Convention : Reuss Voigt Hill
#
# Bulk Modulus (GPa) = 31.75465 49.62048 40.68756
# Shear Modulus (GPa) = 24.79682 30.83688 27.81685
#
# Velocity S-wave (km/s) = 3.34973 3.73549 3.54786
# Velocity P-wave (km/s) = 5.41573 6.40771 5.93249
#
# Compressibility (1/GPa) = 0.03149145
#
# Stress axis : x y z
#
# Youngs Moduli (GPa) = 92.23707 101.93923 32.65917
#
# Poissons Ratio (x) = 0.36712 0.00542
# Poissons Ratio (y) = 0.33218 0.19995
# Poissons Ratio (z) = 0.01532 0.62409
#
# Static dielectric constant tensor:
#      x y z
#    x 1.895550 0.000000 0.000000 
#    y 0.000000 1.835840 0.000000 
#    z 0.000000 0.000000 1.852460 
# 
# From -- ./inp_files/11323.got.cif
#   From: 2010.05.17/outbox.cif.g08.bks.cpg/sg24_6_cif.got.tgz:11323.got - 2010.06.04 00:33:39.
