data_PCOD9334308
_publ_section_title
;
Structure prediction by ZEFSAII (Michael W. Deem and Ramdas Pophale) SiO2 
 PCOD9334308
Probable space group: I 21 21 21
;
_chemical_formula_sum "Si O2"
_cell_formula_units_Z 60
_cell_length_a 15.022398
_cell_length_b 30.169088
_cell_length_c 5.338783
_cell_angle_alpha 90.000000
_cell_angle_beta 90.000000
_cell_angle_gamma 90.000000
_cell_volume 2419.600773
_symmetry_space_group_name_H-M "I 21 21 21"
_symmetry_group_IT_number 24
_symmetry_cell_setting 'orthorhombic'
loop_
_space_group_symop_operation_xyz
x,y,z
-x,1/2-y,z
x,-y,1/2-z
1/2-x,y,-z
1/2+x,1/2+y,1/2+z
1/2-x,-y,1/2+z
1/2+x,1/2-y,-z
-x,1/2+y,1/2-z
loop_
_atom_site_type_symbol
_atom_site_label
_atom_site_fract_x
_atom_site_fract_y
_atom_site_fract_z
Si Si1 0.169596 0.044866 0.633543
Si Si2 0.023370 0.084940 0.986060
Si Si3 0.333469 0.245136 0.685555
Si Si4 0.202546 0.344087 0.207407
Si Si5 0.972149 0.708426 0.813776
Si Si6 0.651305 0.346010 0.976096
Si Si7 0.965365 0.500000 0.250000
Si Si8 0.114765 0.635085 0.850667
O O1 0.250000 0.070062 0.500000
O O2 0.113233 0.070512 0.837849
O O3 0.097191 0.026507 0.441019
O O4 0.210965 0.000000 0.750000
O O5 0.951008 0.101191 0.786999
O O6 0.071409 0.124209 0.147633
O O7 0.986561 0.040327 0.112353
O O8 0.250000 0.244744 0.500000
O O9 0.329923 0.292734 0.824323
O O10 0.420359 0.235000 0.525281
O O11 0.328705 0.200832 0.846473
O O12 0.250000 0.338059 0.500000
O O13 0.133549 0.377154 0.355076
O O14 0.190034 0.357871 0.882154
O O15 0.900602 0.672001 0.721037
O O16 0.000000 0.750000 0.632676
O O17 0.059669 0.680134 0.864229
O O18 0.750000 0.366731 0.000000
#
# Coordination Sequence:
#
# PCOD9334308 Si02
#       8
#     8   8   8   8   8   8   4   8
#     4  10  20  37  65  95 133 176 227 274 341 434
#     4  10  25  42  64  99 143 180 239 299 363 440
#     4  12  22  39  60  88 126 189 245 293 352 415
#     4  11  23  40  71  89 129 186 244 298 365 436
#     4  11  22  40  59  85 128 177 239 305 347 419
#     4  11  25  38  58  88 130 184 241 299 351 420
#     4  10  22  42  70  96 134 184 226 286 364 444
#     4  10  23  44  59  98 136 177 237 304 361 424
#
# _framework density 24.797478999999999
#
# number of rings (size 3 to 8) (size 9 to 14) (size 15 to 20)
#    0.000    1.333    4.667    0.400    3.733    5.867 
#    0.000    0.000    0.000    0.000    0.000    0.000 
#   74.000    0.000    0.000    0.000    0.000    0.000 
#
# Total GULP energy -167115.269264 kJ/mol
# GULP energy per Si atom -5570.508975 kJ/mol
# Density = 2.474104 g / cm^3
# Si number density = 24.797479 Si / 1000 Ang^3
#
#
#
# Elastic Constant Matrix: (Units=GPa)
#
#
# Indices 1 2 3 4 5 6 
#
# 1 131.0241 28.1972 54.9769 -0.0536 -0.0053 0.0159
# 2 28.1972 108.4412 46.9653 0.0712 -0.0026 -0.1183
# 3 54.9769 46.9653 123.0182 -0.1664 0.1259 -0.2487
# 4 -0.0536 0.0712 -0.1664 36.6335 0.0229 -0.2580
# 5 -0.0053 -0.0026 0.1259 0.0229 44.4000 -0.0196
# 6 0.0159 -0.1183 -0.2487 -0.2580 -0.0196 17.0981
#
#
#
# Elastic Compliance Matrix: (Units=1/GPa)
#
#
# Indices 1 2 3 4 5 6 
#
# 1 0.009445 -0.000752 -0.003934 -0.000003 0.000012 -0.000071
# 2 -0.000752 0.011108 -0.003905 -0.000040 0.000012 0.000020
# 3 -0.003934 -0.003905 0.011378 0.000055 -0.000033 0.000143
# 4 -0.000003 -0.000040 0.000055 0.027301 -0.000014 0.000412
# 5 0.000012 0.000012 -0.000033 -0.000014 0.022523 0.000025
# 6 -0.000071 0.000020 0.000143 0.000412 0.000025 0.058494
#
#
# Mechanical properties :
#
#
# Convention : Reuss Voigt Hill
#
# Bulk Modulus (GPa) = 67.79887 69.19585 68.49736
# Shear Modulus (GPa) = 30.79825 35.11594 32.95710
#
# Velocity S-wave (km/s) = 3.52801 3.76721 3.64957
# Velocity P-wave (km/s) = 6.63296 6.84744 6.74105
#
# Compressibility (1/GPa) = 0.01474951
#
# Stress axis : x y z
#
# Youngs Moduli (GPa) = 105.87977 90.02233 87.88855
#
# Poissons Ratio (x) = 0.06771 0.34574
# Poissons Ratio (y) = 0.07964 0.34318
# Poissons Ratio (z) = 0.41651 0.35152
#
# Static dielectric constant tensor:
#      x y z
#    x 1.393060 -0.000050 0.000190 
#    y -0.000050 2.024250 -0.000060 
#    z 0.000190 -0.000060 2.260440 
# 
# From -- ./inp_files/5086.got.cif
#   From: 2010.05.17/outbox.cif.g08.bks.cpg/sg24_3_cif.got.tgz:5086.got - 2010.06.04 00:33:39.
