data_PCOD9334845
_publ_section_title
;
Structure prediction by ZEFSAII (Michael W. Deem and Ramdas Pophale) SiO2 
 PCOD9334845
Probable space group: I 21 21 21
;
_chemical_formula_sum "Si O2"
_cell_formula_units_Z 40
_cell_length_a 22.368997
_cell_length_b 11.926644
_cell_length_c 6.264889
_cell_angle_alpha 90.000000
_cell_angle_beta 90.000000
_cell_angle_gamma 90.000000
_cell_volume 1671.391342
_symmetry_space_group_name_H-M "I 21 21 21"
_symmetry_group_IT_number 24
_symmetry_cell_setting 'orthorhombic'
loop_
_space_group_symop_operation_xyz
x,y,z
-x,1/2-y,z
x,-y,1/2-z
1/2-x,y,-z
1/2+x,1/2+y,1/2+z
1/2-x,-y,1/2+z
1/2+x,1/2-y,-z
-x,1/2+y,1/2-z
loop_
_atom_site_type_symbol
_atom_site_label
_atom_site_fract_x
_atom_site_fract_y
_atom_site_fract_z
Si Si1 0.852695 0.291614 0.688269
Si Si2 0.452978 0.617451 0.272173
Si Si3 0.500000 0.250000 0.862522
Si Si4 0.440068 0.902180 0.923371
Si Si5 0.694948 0.104648 0.638673
Si Si6 0.750000 0.260000 0.000000
O O1 0.910516 0.225447 0.776583
O O2 0.880110 0.396161 0.561895
O O3 0.830750 0.195102 0.525706
O O4 0.801598 0.319658 0.859437
O O5 0.418250 0.500000 0.250000
O O6 0.486373 0.642071 0.493435
O O7 0.502851 0.604326 0.085169
O O8 0.445816 0.213510 0.710933
O O9 0.438890 0.000000 0.750000
O O10 0.750000 0.053641 0.500000
O O11 0.716352 0.181375 0.832511
O O12 0.660879 0.000000 0.750000
#
# Coordination Sequence:
#
# PCOD9334845 Si02
#       6
#     8   8   4   8   8   4
#     4  11  25  40  65 104 141 196 243 301 372 442
#     4  12  25  40  67 107 146 191 234 292 381 454
#     4  12  22  42  66  98 154 184 240 300 358 456
#     4  12  25  44  68 104 144 199 249 307 375 449
#     4  10  21  37  61  95 135 180 233 297 366 433
#     4  10  24  42  62  96 148 190 244 300 364 444
#
# _framework density 23.932158000000001
#
# number of rings (size 3 to 8) (size 9 to 14) (size 15 to 20)
#    0.000    0.800    7.000    0.000    5.600    0.800 
#    0.000    0.000    0.000    0.000    7.800    0.000 
#    0.000    0.000    0.000    0.000    0.000    0.000 
#
# Total GULP energy -111547.244983 kJ/mol
# GULP energy per Si atom -5577.362249 kJ/mol
# Density = 2.387769 g / cm^3
# Si number density = 23.932158 Si / 1000 Ang^3
#
#
#
# Elastic Constant Matrix: (Units=GPa)
#
#
# Indices 1 2 3 4 5 6 
#
# 1 92.8986 24.7837 58.3227 0.0000 0.0000 0.0000
# 2 24.7837 61.6749 31.3348 0.0000 0.0000 0.0000
# 3 58.3227 31.3348 130.3936 0.0000 0.0000 0.0000
# 4 0.0000 0.0000 0.0000 35.5528 0.0000 0.0000
# 5 0.0000 0.0000 0.0000 0.0000 52.5401 0.0000
# 6 0.0000 0.0000 0.0000 0.0000 0.0000 18.6377
#
#
#
# Elastic Compliance Matrix: (Units=1/GPa)
#
#
# Indices 1 2 3 4 5 6 
#
# 1 0.015463 -0.003075 -0.006177 0.000000 0.000000 0.000000
# 2 -0.003075 0.019081 -0.003210 0.000000 0.000000 0.000000
# 3 -0.006177 -0.003210 0.011203 0.000000 0.000000 0.000000
# 4 0.000000 0.000000 0.000000 0.028127 0.000000 0.000000
# 5 0.000000 0.000000 0.000000 0.000000 0.019033 0.000000
# 6 0.000000 0.000000 0.000000 0.000000 0.000000 0.053655
#
#
# Mechanical properties :
#
#
# Convention : Reuss Voigt Hill
#
# Bulk Modulus (GPa) = 48.02522 57.09439 52.55980
# Shear Modulus (GPa) = 28.02263 32.71452 30.36857
#
# Velocity S-wave (km/s) = 3.42558 3.70127 3.56609
# Velocity P-wave (km/s) = 5.97971 6.49418 6.24225
#
# Compressibility (1/GPa) = 0.02082239
#
# Stress axis : x y z
#
# Youngs Moduli (GPa) = 64.67040 52.40936 89.25849
#
# Poissons Ratio (x) = 0.16117 0.55138
# Poissons Ratio (y) = 0.19888 0.28650
# Poissons Ratio (z) = 0.39949 0.16822
#
# Static dielectric constant tensor:
#      x y z
#    x 2.039140 0.000000 0.000000 
#    y 0.000000 1.922680 0.000000 
#    z 0.000000 0.000000 2.017850 
# 
# From -- ./inp_files/6323.got.cif
#   From: 2010.05.17/outbox.cif.g08.bks.cpg/sg24_4_cif.got.tgz:6323.got - 2010.06.04 00:33:39.
