data_PCOD9334499
_publ_section_title
;
Structure prediction by ZEFSAII (Michael W. Deem and Ramdas Pophale) SiO2 
 PCOD9334499
Probable space group: I 21 21 21
;
_chemical_formula_sum "Si O2"
_cell_formula_units_Z 56
_cell_length_a 19.581113
_cell_length_b 9.134199
_cell_length_c 15.041368
_cell_angle_alpha 90.000000
_cell_angle_beta 90.000000
_cell_angle_gamma 90.000000
_cell_volume 2690.265731
_symmetry_space_group_name_H-M "I 21 21 21"
_symmetry_group_IT_number 24
_symmetry_cell_setting 'orthorhombic'
loop_
_space_group_symop_operation_xyz
x,y,z
-x,1/2-y,z
x,-y,1/2-z
1/2-x,y,-z
1/2+x,1/2+y,1/2+z
1/2-x,-y,1/2+z
1/2+x,1/2-y,-z
-x,1/2+y,1/2-z
loop_
_atom_site_type_symbol
_atom_site_label
_atom_site_fract_x
_atom_site_fract_y
_atom_site_fract_z
Si Si1 0.832502 0.156651 0.999023
Si Si2 0.832300 0.925918 0.153559
Si Si3 0.491615 0.076964 0.162156
Si Si4 0.922460 0.312580 0.613152
Si Si5 0.426066 0.177578 0.592757
Si Si6 0.952653 0.372946 0.035799
Si Si7 0.678962 0.067971 0.345460
O O1 0.882483 0.296220 0.002833
O O2 0.851311 0.049921 0.081251
O O3 0.750000 0.188916 0.000000
O O4 0.846161 0.058761 0.911766
O O5 0.876440 0.779068 0.148985
O O6 0.754813 0.885455 0.126894
O O7 0.835971 0.000000 0.250000
O O8 0.500000 0.250000 0.179182
O O9 0.527030 0.000000 0.250000
O O10 0.424782 0.971479 0.157903
O O11 0.497647 0.073661 0.051687
O O12 0.902162 0.313906 0.510125
O O13 0.871408 0.202637 0.658197
O O14 0.000000 0.250000 0.616704
O O15 0.500000 0.250000 0.598795
O O16 0.435594 0.004102 0.602430
O O17 0.000000 0.250000 0.078982
O O18 0.686664 0.000000 0.250000
#
# Coordination Sequence:
#
# PCOD9334499 Si02
#       7
#     8   8   8   8   8   8   8
#     4  10  21  41  62  87 125 169 211 269 330 395
#     4  10  21  42  68  95 124 167 219 274 332 401
#     4  10  22  35  50  83 126 170 211 257 311 367
#     4  10  21  34  57  88 122 169 213 262 317 379
#     4  10  20  39  65  93 124 161 212 271 328 390
#     4  10  22  38  60  89 125 167 213 267 326 381
#     4  10  22  37  66  94 129 174 222 263 323 396
#
# _framework density 20.815788999999999
#
# number of rings (size 3 to 8) (size 9 to 14) (size 15 to 20)
#    0.000    2.000    1.429    1.286    8.000    1.143 
#    5.143    2.857    0.000    0.000    0.000    0.000 
#    0.000    0.000    0.000    0.000    0.000    0.000 
#
# Total GULP energy -155908.426371 kJ/mol
# GULP energy per Si atom -5568.158085 kJ/mol
# Density = 2.076841 g / cm^3
# Si number density = 20.815789 Si / 1000 Ang^3
#
#
#
# Elastic Constant Matrix: (Units=GPa)
#
#
# Indices 1 2 3 4 5 6 
#
# 1 93.8333 71.0277 6.7169 0.0000 0.0000 0.0000
# 2 71.0277 162.2413 24.2517 0.0000 0.0000 0.0000
# 3 6.7169 24.2517 65.9636 0.0000 0.0000 0.0000
# 4 0.0000 0.0000 0.0000 9.7374 0.0000 0.0000
# 5 0.0000 0.0000 0.0000 0.0000 24.2544 0.0000
# 6 0.0000 0.0000 0.0000 0.0000 0.0000 -50.3905
#
#
#
# Elastic Compliance Matrix: (Units=1/GPa)
#
#
# Indices 1 2 3 4 5 6 
#
# 1 0.016002 -0.007155 0.001001 0.000000 0.000000 0.000000
# 2 -0.007155 0.009721 -0.002846 0.000000 0.000000 0.000000
# 3 0.001001 -0.002846 0.016104 0.000000 0.000000 0.000000
# 4 0.000000 0.000000 0.000000 0.102696 0.000000 0.000000
# 5 0.000000 0.000000 0.000000 0.000000 0.041230 0.000000
# 6 0.000000 0.000000 0.000000 0.000000 0.000000 -0.019845
#
#
# Mechanical properties :
#
#
# Convention : Reuss Voigt Hill
#
# Bulk Modulus (GPa) = 41.96684 58.44788 50.20736
# Shear Modulus (GPa) = 26.06208 11.38973 18.72591
#
# Velocity S-wave (km/s) = 3.54225 2.34170 3.00259
# Velocity P-wave (km/s) = 6.07741 5.95407 6.01606
#
# Compressibility (1/GPa) = 0.02382834
#
# Stress axis : x y z
#
# Youngs Moduli (GPa) = 62.49399 102.86596 62.09596
#
# Poissons Ratio (x) = 0.73600 -0.06217
# Poissons Ratio (y) = 0.44714 0.17670
# Poissons Ratio (z) = -0.06257 0.29271
#
# Static dielectric constant tensor:
#      x y z
#    x 1.771860 0.000000 0.000000 
#    y 0.000000 1.812910 0.000000 
#    z 0.000000 0.000000 1.821040 
# 
# From -- ./inp_files/27544.got.cif
#   From: 2010.05.17/outbox.cif.g08.bks.cpg/sg24_14_cif.got.tgz:27544.got - 2010.06.04 00:33:39.
