data_PCOD9334592
_publ_section_title
;
Structure prediction by ZEFSAII (Michael W. Deem and Ramdas Pophale) SiO2 
 PCOD9334592
Probable space group: I 21 21 21
;
_chemical_formula_sum "Si O2"
_cell_formula_units_Z 24
_cell_length_a 8.673515
_cell_length_b 6.545200
_cell_length_c 17.729374
_cell_angle_alpha 90.000000
_cell_angle_beta 90.000000
_cell_angle_gamma 90.000000
_cell_volume 1006.494618
_symmetry_space_group_name_H-M "I 21 21 21"
_symmetry_group_IT_number 24
_symmetry_cell_setting 'orthorhombic'
loop_
_space_group_symop_operation_xyz
x,y,z
-x,1/2-y,z
x,-y,1/2-z
1/2-x,y,-z
1/2+x,1/2+y,1/2+z
1/2-x,-y,1/2+z
1/2+x,1/2-y,-z
-x,1/2+y,1/2-z
loop_
_atom_site_type_symbol
_atom_site_label
_atom_site_fract_x
_atom_site_fract_y
_atom_site_fract_z
Si Si1 0.077239 0.555705 0.144536
Si Si2 0.250000 0.533922 0.000000
Si Si3 0.500000 0.750000 0.422347
Si Si4 0.727073 0.360894 0.824741
O O1 0.000000 0.750000 0.187188
O O2 0.918158 0.438728 0.126649
O O3 0.813877 0.882381 0.317690
O O4 0.174390 0.638699 0.073220
O O5 0.111472 0.392990 0.970233
O O6 0.385648 0.878498 0.369388
O O7 0.737538 0.500000 0.750000
#
# Coordination Sequence:
#
# PCOD9334592 Si02
#       4
#     8   4   4   8
#     4  10  23  41  70 100 132 186 228 290 345 412
#     4  10  20  40  68 100 138 180 238 282 352 406
#     4  10  20  42  66 100 138 188 230 296 334 408
#     4  10  23  43  65  98 138 187 234 280 345 416
#
# _framework density 23.845134999999999
#
# number of rings (size 3 to 8) (size 9 to 14) (size 15 to 20)
#    0.000    2.000    0.000    4.000    4.667    2.667 
#   12.000    1.667    0.000    0.000    0.000    0.000 
#    0.000    0.000    0.000    0.000    0.000    0.000 
#
# Total GULP energy -66850.484599 kJ/mol
# GULP energy per Si atom -5570.873717 kJ/mol
# Density = 2.379086 g / cm^3
# Si number density = 23.845135 Si / 1000 Ang^3
#
#
#
# Elastic Constant Matrix: (Units=GPa)
#
#
# Indices 1 2 3 4 5 6 
#
# 1 148.6482 17.7876 33.8941 0.0000 0.0000 0.0000
# 2 17.7876 115.3487 32.0648 0.0000 0.0000 0.0000
# 3 33.8941 32.0648 90.6041 0.0000 0.0000 0.0000
# 4 0.0000 0.0000 0.0000 21.4840 0.0000 0.0000
# 5 0.0000 0.0000 0.0000 0.0000 56.9049 0.0000
# 6 0.0000 0.0000 0.0000 0.0000 0.0000 31.2872
#
#
#
# Elastic Compliance Matrix: (Units=1/GPa)
#
#
# Indices 1 2 3 4 5 6 
#
# 1 0.007372 -0.000411 -0.002613 0.000000 0.000000 0.000000
# 2 -0.000411 0.009638 -0.003257 0.000000 0.000000 0.000000
# 3 -0.002613 -0.003257 0.013167 0.000000 0.000000 0.000000
# 4 0.000000 0.000000 0.000000 0.046546 0.000000 0.000000
# 5 0.000000 0.000000 0.000000 0.000000 0.017573 0.000000
# 6 0.000000 0.000000 0.000000 0.000000 0.000000 0.031962
#
#
# Mechanical properties :
#
#
# Convention : Reuss Voigt Hill
#
# Bulk Modulus (GPa) = 56.76507 58.01044 57.38775
# Shear Modulus (GPa) = 34.55618 39.99219 37.27418
#
# Velocity S-wave (km/s) = 3.81096 4.09976 3.95799
# Velocity P-wave (km/s) = 6.57434 6.84043 6.70871
#
# Compressibility (1/GPa) = 0.01761647
#
# Stress axis : x y z
#
# Youngs Moduli (GPa) = 135.64615 103.75421 75.94668
#
# Poissons Ratio (x) = 0.04260 0.19841
# Poissons Ratio (y) = 0.05570 0.24739
# Poissons Ratio (z) = 0.35438 0.33796
#
# Static dielectric constant tensor:
#      x y z
#    x 1.834420 0.000000 0.000000 
#    y 0.000000 1.984160 0.000000 
#    z 0.000000 0.000000 2.027580 
# 
# From -- ./inp_files/29171.got.cif
#   From: 2010.05.17/outbox.cif.g08.bks.cpg/sg24_15_cif.got.tgz:29171.got - 2010.06.04 00:33:39.
