data_PCOD9334525
_publ_section_title
;
Structure prediction by ZEFSAII (Michael W. Deem and Ramdas Pophale) SiO2 
 PCOD9334525
Probable space group: I 21 21 21
;
_chemical_formula_sum "Si O2"
_cell_formula_units_Z 40
_cell_length_a 7.750052
_cell_length_b 19.198876
_cell_length_c 12.156972
_cell_angle_alpha 90.000000
_cell_angle_beta 90.000000
_cell_angle_gamma 90.000000
_cell_volume 1808.863671
_symmetry_space_group_name_H-M "I 21 21 21"
_symmetry_group_IT_number 24
_symmetry_cell_setting 'orthorhombic'
loop_
_space_group_symop_operation_xyz
x,y,z
-x,1/2-y,z
x,-y,1/2-z
1/2-x,y,-z
1/2+x,1/2+y,1/2+z
1/2-x,-y,1/2+z
1/2+x,1/2-y,-z
-x,1/2+y,1/2-z
loop_
_atom_site_type_symbol
_atom_site_label
_atom_site_fract_x
_atom_site_fract_y
_atom_site_fract_z
Si Si1 0.828009 0.147549 0.263798
Si Si2 0.626448 0.564251 0.677074
Si Si3 0.250000 0.358337 0.500000
Si Si4 0.000000 0.250000 0.106604
Si Si5 0.750000 0.648655 0.500000
Si Si6 0.881701 0.000000 0.750000
Si Si7 0.955247 0.528144 0.984736
O O1 0.761322 0.177204 0.380569
O O2 0.023756 0.117674 0.253318
O O3 0.850082 0.211335 0.177738
O O4 0.723815 0.074365 0.243682
O O5 0.679026 0.500000 0.750000
O O6 0.773051 0.602935 0.608945
O O7 0.510713 0.530939 0.577948
O O8 0.419575 0.406993 0.506418
O O9 0.086035 0.193333 0.029309
O O10 0.986793 0.993150 0.862997
O O11 0.750000 0.542998 0.000000
#
# Coordination Sequence:
#
# PCOD9334525 Si02
#       7
#     8   8   4   4   4   4   8
#     4  10  20  39  69  96 137 182 237 293 359 431
#     4  11  19  37  64  97 135 180 226 295 354 413
#     4  10  20  40  65  95 134 180 228 290 366 422
#     4  10  24  44  66 100 138 198 238 292 364 448
#     4  10  24  40  67  95 142 194 230 286 360 436
#     4  10  22  38  62 108 138 190 238 300 364 446
#     4  11  22  34  60 101 142 175 223 294 362 420
#
# _framework density 22.113329
#
# number of rings (size 3 to 8) (size 9 to 14) (size 15 to 20)
#    0.000    1.600    4.000    1.200    1.400    3.200 
#    0.000    0.000    2.200    3.600    0.000    0.000 
#    0.000    0.000    0.000    0.000    0.000    0.000 
#
# Total GULP energy -111383.619309 kJ/mol
# GULP energy per Si atom -5569.180965 kJ/mol
# Density = 2.206300 g / cm^3
# Si number density = 22.113329 Si / 1000 Ang^3
#
#
#
# Elastic Constant Matrix: (Units=GPa)
#
#
# Indices 1 2 3 4 5 6 
#
# 1 79.7603 23.0490 46.3870 0.0000 0.0000 0.0000
# 2 23.0490 79.0756 39.2480 0.0000 0.0000 0.0000
# 3 46.3870 39.2480 174.3391 0.0000 0.0000 0.0000
# 4 0.0000 0.0000 0.0000 19.5632 0.0000 0.0000
# 5 0.0000 0.0000 0.0000 0.0000 39.4454 0.0000
# 6 0.0000 0.0000 0.0000 0.0000 0.0000 22.9638
#
#
#
# Elastic Compliance Matrix: (Units=1/GPa)
#
#
# Indices 1 2 3 4 5 6 
#
# 1 0.015348 -0.002755 -0.003464 0.000000 0.000000 0.000000
# 2 -0.002755 0.014731 -0.002583 0.000000 0.000000 0.000000
# 3 -0.003464 -0.002583 0.007239 0.000000 0.000000 0.000000
# 4 0.000000 0.000000 0.000000 0.051116 0.000000 0.000000
# 5 0.000000 0.000000 0.000000 0.000000 0.025351 0.000000
# 6 0.000000 0.000000 0.000000 0.000000 0.000000 0.043547
#
#
# Mechanical properties :
#
#
# Convention : Reuss Voigt Hill
#
# Bulk Modulus (GPa) = 50.72231 61.17145 55.94688
# Shear Modulus (GPa) = 27.54706 31.36058 29.45382
#
# Velocity S-wave (km/s) = 3.53331 3.76995 3.65355
# Velocity P-wave (km/s) = 6.29547 6.83175 6.56908
#
# Compressibility (1/GPa) = 0.01971519
#
# Stress axis : x y z
#
# Youngs Moduli (GPa) = 65.15554 67.88279 138.13855
#
# Poissons Ratio (x) = 0.18698 0.47845
# Poissons Ratio (y) = 0.17947 0.35688
# Poissons Ratio (z) = 0.22567 0.17537
#
# Static dielectric constant tensor:
#      x y z
#    x 1.847190 0.000000 0.000000 
#    y 0.000000 1.866000 0.000000 
#    z 0.000000 0.000000 1.940800 
# 
# From -- ./inp_files/18466.got.cif
#   From: 2010.05.17/outbox.cif.g08.bks.cpg/sg24_10_cif.got.tgz:18466.got - 2010.06.04 00:33:39.
