data_PCOD9334084
_publ_section_title
;
Structure prediction by ZEFSAII (Michael W. Deem and Ramdas Pophale) SiO2 
 PCOD9334084
Probable space group: I 21 21 21
;
_chemical_formula_sum "Si O2"
_cell_formula_units_Z 52
_cell_length_a 14.124905
_cell_length_b 25.902716
_cell_length_c 7.541370
_cell_angle_alpha 90.000000
_cell_angle_beta 90.000000
_cell_angle_gamma 90.000000
_cell_volume 2759.186703
_symmetry_space_group_name_H-M "I 21 21 21"
_symmetry_group_IT_number 24
_symmetry_cell_setting 'orthorhombic'
loop_
_space_group_symop_operation_xyz
x,y,z
-x,1/2-y,z
x,-y,1/2-z
1/2-x,y,-z
1/2+x,1/2+y,1/2+z
1/2-x,-y,1/2+z
1/2+x,1/2-y,-z
-x,1/2+y,1/2-z
loop_
_atom_site_type_symbol
_atom_site_label
_atom_site_fract_x
_atom_site_fract_y
_atom_site_fract_z
Si Si1 0.442306 0.000000 0.750000
Si Si2 0.987347 0.189090 0.272222
Si Si3 0.138855 0.363013 0.979465
Si Si4 0.520050 0.964920 0.401466
Si Si5 0.132774 0.106804 0.719217
Si Si6 0.348886 0.892499 0.791714
Si Si7 0.023115 0.309302 0.692270
O O1 0.383609 0.052161 0.775645
O O2 0.501353 0.001270 0.569771
O O3 0.963741 0.183734 0.481261
O O4 0.000000 0.250000 0.236116
O O5 0.081723 0.154441 0.239687
O O6 0.906962 0.165810 0.147477
O O7 0.085661 0.417601 0.958384
O O8 0.110529 0.329800 0.806247
O O9 0.250000 0.369069 0.000000
O O10 0.424023 0.939929 0.313794
O O11 0.565029 0.000000 0.250000
O O12 0.241542 0.114675 0.772353
O O13 0.141611 0.101578 0.505572
O O14 0.066816 0.156334 0.750271
O O15 0.000000 0.250000 0.726961
#
# Coordination Sequence:
#
# PCOD9334084 Si02
#       7
#     4   8   8   8   8   8   8
#     4  12  22  36  64  84 118 154 204 240 308 380
#     4  10  21  41  64  90 127 164 200 256 312 369
#     4  11  24  42  62  91 119 159 219 259 304 367
#     4  11  23  42  60  85 120 161 199 257 315 361
#     4   9  20  35  58  88 124 151 196 241 298 377
#     4  10  20  35  58  93 119 156 197 239 304 380
#     4   9  20  40  64  89 124 163 199 251 312 364
#
# _framework density 18.846132000000001
#
# number of rings (size 3 to 8) (size 9 to 14) (size 15 to 20)
#    0.000    1.846    3.077    0.462    1.077    2.462 
#    1.385    3.077    0.000    0.000    0.000    0.000 
#    0.000    0.000    0.000    0.000    0.000    0.000 
#
# Total GULP energy -145090.909168 kJ/mol
# GULP energy per Si atom -5580.419583 kJ/mol
# Density = 1.880324 g / cm^3
# Si number density = 18.846132 Si / 1000 Ang^3
#
#
#
# Elastic Constant Matrix: (Units=GPa)
#
#
# Indices 1 2 3 4 5 6 
#
# 1 127.2907 40.8358 42.4802 -0.0007 0.0007 -0.0002
# 2 40.8358 111.5203 35.3504 -0.0008 -0.0005 -0.0002
# 3 42.4802 35.3504 77.2675 -0.0102 0.0062 -0.0008
# 4 -0.0007 -0.0008 -0.0102 31.3448 0.0012 -0.0001
# 5 0.0007 -0.0005 0.0062 0.0012 11.0838 0.0001
# 6 -0.0002 -0.0002 -0.0008 -0.0001 0.0001 6.2281
#
#
#
# Elastic Compliance Matrix: (Units=1/GPa)
#
#
# Indices 1 2 3 4 5 6 
#
# 1 0.010088 -0.002264 -0.004510 -0.000001 0.000002 0.000000
# 2 -0.002264 0.010996 -0.003786 -0.000001 0.000003 0.000000
# 3 -0.004510 -0.003786 0.017154 0.000005 -0.000009 0.000002
# 4 -0.000001 -0.000001 0.000005 0.031903 -0.000004 0.000000
# 5 0.000002 0.000003 -0.000009 -0.000004 0.090222 -0.000002
# 6 0.000000 0.000000 0.000002 0.000000 -0.000002 0.160562
#
#
# Mechanical properties :
#
#
# Convention : Reuss Voigt Hill
#
# Bulk Modulus (GPa) = 58.42169 61.49014 59.95591
# Shear Modulus (GPa) = 14.37812 22.89215 18.63513
#
# Velocity S-wave (km/s) = 2.76510 3.48902 3.14794
# Velocity P-wave (km/s) = 6.42347 6.99495 6.71529
#
# Compressibility (1/GPa) = 0.01711693
#
# Stress axis : x y z
#
# Youngs Moduli (GPa) = 99.13243 90.94066 58.29631
#
# Poissons Ratio (x) = 0.20590 0.26292
# Poissons Ratio (y) = 0.22445 0.22071
# Poissons Ratio (z) = 0.44709 0.34431
#
# Static dielectric constant tensor:
#      x y z
#    x 1.634920 0.000000 0.000000 
#    y 0.000000 1.667560 -0.000010 
#    z 0.000000 -0.000010 1.701950 
# 
# From -- ./inp_files/11468.got.cif
#   From: 2010.05.17/outbox.cif.g08.bks.cpg/sg24_6_cif.got.tgz:11468.got - 2010.06.04 00:33:39.
