data_PCOD9334017
_publ_section_title
;
Structure prediction by ZEFSAII (Michael W. Deem and Ramdas Pophale) SiO2 
 PCOD9334017
Probable space group: I 21 21 21
;
_chemical_formula_sum "Si O2"
_cell_formula_units_Z 60
_cell_length_a 13.096784
_cell_length_b 21.298051
_cell_length_c 12.383415
_cell_angle_alpha 90.000000
_cell_angle_beta 90.000000
_cell_angle_gamma 90.000000
_cell_volume 3454.179919
_symmetry_space_group_name_H-M "I 21 21 21"
_symmetry_group_IT_number 24
_symmetry_cell_setting 'orthorhombic'
loop_
_space_group_symop_operation_xyz
x,y,z
-x,1/2-y,z
x,-y,1/2-z
1/2-x,y,-z
1/2+x,1/2+y,1/2+z
1/2-x,-y,1/2+z
1/2+x,1/2-y,-z
-x,1/2+y,1/2-z
loop_
_atom_site_type_symbol
_atom_site_label
_atom_site_fract_x
_atom_site_fract_y
_atom_site_fract_z
Si Si1 0.882026 0.366242 0.877522
Si Si2 0.063894 0.847620 0.178462
Si Si3 0.501049 0.440701 0.313306
Si Si4 0.868477 0.174097 0.624171
Si Si5 0.354087 0.909825 0.609171
Si Si6 0.864732 0.451778 0.478943
Si Si7 0.000000 0.750000 0.703512
Si Si8 0.139936 0.714693 0.120465
O O1 0.933493 0.403559 0.777852
O O2 0.760679 0.381555 0.877306
O O3 0.925512 0.296140 0.862446
O O4 0.908083 0.386741 0.999296
O O5 0.089276 0.884604 0.286641
O O6 0.075306 0.897777 0.083202
O O7 0.137571 0.788025 0.153033
O O8 0.951336 0.818996 0.182610
O O9 0.455682 0.500000 0.250000
O O10 0.416082 0.395384 0.365936
O O11 0.577597 0.463112 0.408046
O O12 0.926957 0.211188 0.717176
O O13 0.747672 0.181642 0.641018
O O14 0.886082 0.205330 0.506627
O O15 0.351727 0.984978 0.592032
O O16 0.750000 0.428666 0.500000
#
# Coordination Sequence:
#
# PCOD9334017 Si02
#       8
#     8   8   8   8   8   8   4   8
#     4  10  21  36  55  85 118 156 193 237 290 340
#     4  11  23  36  61  86 120 156 192 234 306 346
#     4  11  20  37  60  85 115 152 195 243 290 340
#     4  10  21  37  61  82 121 140 199 247 289 342
#     4  11  21  39  54  84 126 157 191 237 287 354
#     4  12  22  35  58  90 120 152 193 244 296 351
#     4  10  20  34  60  88 108 154 194 238 292 348
#     4  10  22  40  57  90 114 154 193 247 292 352
#
# _framework density 17.370258
#
# number of rings (size 3 to 8) (size 9 to 14) (size 15 to 20)
#    0.000    1.333    4.000    2.800    3.733    1.067 
#    0.000    1.333    0.000    2.400    0.000    0.000 
#    0.000    0.000    0.000    0.000    0.000    0.000 
#
# Total GULP energy -167257.439552 kJ/mol
# GULP energy per Si atom -5575.247985 kJ/mol
# Density = 1.733072 g / cm^3
# Si number density = 17.370258 Si / 1000 Ang^3
#
#
#
# Elastic Constant Matrix: (Units=GPa)
#
#
# Indices 1 2 3 4 5 6 
#
# 1 72.7639 29.0566 18.2574 0.0000 0.0000 0.0000
# 2 29.0566 91.9391 26.5970 -0.0001 0.0000 0.0000
# 3 18.2574 26.5970 82.8008 -0.0002 0.0000 0.0000
# 4 0.0000 -0.0001 -0.0002 -2.3743 0.0000 0.0000
# 5 0.0000 0.0000 0.0000 0.0000 16.3824 0.0000
# 6 0.0000 0.0000 0.0000 0.0000 0.0000 22.0654
#
#
#
# Elastic Compliance Matrix: (Units=1/GPa)
#
#
# Indices 1 2 3 4 5 6 
#
# 1 0.016054 -0.004465 -0.002106 0.000000 0.000000 0.000000
# 2 -0.004465 0.013233 -0.003266 0.000000 0.000000 0.000000
# 3 -0.002106 -0.003266 0.013591 -0.000001 0.000000 0.000000
# 4 0.000000 0.000000 -0.000001 -0.421172 0.000001 0.000000
# 5 0.000000 0.000000 0.000000 0.000001 0.061041 0.000000
# 6 0.000000 0.000000 0.000000 0.000000 0.000000 0.045320
#
#
# Mechanical properties :
#
#
# Convention : Reuss Voigt Hill
#
# Bulk Modulus (GPa) = 43.09518 43.92508 43.51013
# Shear Modulus (GPa) = -20.44778 18.78754 -0.83012
#
# Velocity S-wave (km/s) = -3.43472 3.29233 -0.69205
# Velocity P-wave (km/s) = 3.02224 6.30832 4.94615
#
# Compressibility (1/GPa) = 0.02320445
#
# Stress axis : x y z
#
# Youngs Moduli (GPa) = 62.28859 75.57079 73.58013
#
# Poissons Ratio (x) = 0.33740 0.15495
# Poissons Ratio (y) = 0.27810 0.24032
# Poissons Ratio (z) = 0.13117 0.24682
#
# Static dielectric constant tensor:
#      x y z
#    x 1.591950 0.000000 0.000000 
#    y 0.000000 1.630290 0.000000 
#    z 0.000000 0.000000 1.599560 
# 
# From -- ./inp_files/19998.got.cif
#   From: 2010.05.17/outbox.cif.g08.bks.cpg/sg24_10_cif.got.tgz:19998.got - 2010.06.04 00:33:39.
