data_PCOD9334595
_publ_section_title
;
Structure prediction by ZEFSAII (Michael W. Deem and Ramdas Pophale) SiO2 
 PCOD9334595
Probable space group: I 21 21 21
;
_chemical_formula_sum "Si O2"
_cell_formula_units_Z 48
_cell_length_a 41.964333
_cell_length_b 8.220621
_cell_length_c 7.494449
_cell_angle_alpha 90.000000
_cell_angle_beta 90.000000
_cell_angle_gamma 90.000000
_cell_volume 2585.381634
_symmetry_space_group_name_H-M "I 21 21 21"
_symmetry_group_IT_number 24
_symmetry_cell_setting 'orthorhombic'
loop_
_space_group_symop_operation_xyz
x,y,z
-x,1/2-y,z
x,-y,1/2-z
1/2-x,y,-z
1/2+x,1/2+y,1/2+z
1/2-x,-y,1/2+z
1/2+x,1/2-y,-z
-x,1/2+y,1/2-z
loop_
_atom_site_type_symbol
_atom_site_label
_atom_site_fract_x
_atom_site_fract_y
_atom_site_fract_z
Si Si1 0.034514 0.805900 0.450345
Si Si2 0.725141 0.655880 0.845751
Si Si3 0.686717 0.050346 0.546828
Si Si4 0.534634 0.695257 0.953564
Si Si5 0.750000 0.152948 0.000000
Si Si6 0.413690 0.801849 0.252144
Si Si7 0.865582 0.000000 0.750000
O O1 0.038430 0.740563 0.248648
O O2 0.063651 0.766392 0.578431
O O3 0.000000 0.750000 0.518333
O O4 0.033515 0.000638 0.443759
O O5 0.710813 0.500000 0.750000
O O6 0.698267 0.764594 0.937070
O O7 0.743307 0.750508 0.684352
O O8 0.750000 0.610407 0.000000
O O9 0.657502 0.014180 0.420334
O O10 0.679891 0.000000 0.750000
O O11 0.718303 0.954988 0.480739
O O12 0.500000 0.750000 0.021838
O O13 0.563953 0.734909 0.081115
O O14 0.385855 0.667773 0.256684
O O15 0.405926 0.000000 0.250000
#
# Coordination Sequence:
#
# PCOD9334595 Si02
#       7
#     8   8   8   8   4   8   4
#     4   9  18  33  57  89 119 152 201 255 310 361
#     4  11  20  35  61  97 127 152 192 245 315 377
#     4  10  23  42  63  91 121 157 205 253 306 377
#     4   9  18  33  57  89 119 152 200 257 310 359
#     4  10  20  40  68  90 122 160 192 260 314 358
#     4  10  23  41  58  84 121 164 206 254 303 366
#     4  12  26  44  64  88 122 174 214 246 318 382
#
# _framework density 18.565926000000001
#
# number of rings (size 3 to 8) (size 9 to 14) (size 15 to 20)
#    0.000    2.000    1.667    1.500    3.500    1.333 
#    6.000    0.000    0.000    0.000    0.000    0.000 
#    0.000    0.000    0.000    0.000    0.000    0.000 
#
# Total GULP energy -133823.486485 kJ/mol
# GULP energy per Si atom -5575.978604 kJ/mol
# Density = 1.852367 g / cm^3
# Si number density = 18.565926 Si / 1000 Ang^3
#
#
#
# Elastic Constant Matrix: (Units=GPa)
#
#
# Indices 1 2 3 4 5 6 
#
# 1 137.2359 64.0332 64.9551 0.0000 0.0000 0.0000
# 2 64.0332 76.8439 34.3665 0.0000 0.0000 0.0000
# 3 64.9551 34.3665 91.7478 0.0000 0.0000 0.0000
# 4 0.0000 0.0000 0.0000 21.6057 0.0000 0.0000
# 5 0.0000 0.0000 0.0000 0.0000 34.5477 0.0000
# 6 0.0000 0.0000 0.0000 0.0000 0.0000 26.0332
#
#
#
# Elastic Compliance Matrix: (Units=1/GPa)
#
#
# Indices 1 2 3 4 5 6 
#
# 1 0.015013 -0.009318 -0.007139 0.000000 0.000000 0.000000
# 2 -0.009318 0.021415 -0.001425 0.000000 0.000000 0.000000
# 3 -0.007139 -0.001425 0.016487 0.000000 0.000000 0.000000
# 4 0.000000 0.000000 0.000000 0.046284 0.000000 0.000000
# 5 0.000000 0.000000 0.000000 0.000000 0.028945 0.000000
# 6 0.000000 0.000000 0.000000 0.000000 0.000000 0.038413
#
#
# Mechanical properties :
#
#
# Convention : Reuss Voigt Hill
#
# Bulk Modulus (GPa) = 58.29962 70.28189 64.29075
# Shear Modulus (GPa) = 24.03416 25.93551 24.98484
#
# Velocity S-wave (km/s) = 3.60186 3.74162 3.67241
# Velocity P-wave (km/s) = 6.98337 7.52355 7.25849
#
# Compressibility (1/GPa) = 0.01715277
#
# Stress axis : x y z
#
# Youngs Moduli (GPa) = 66.60849 46.69638 60.65312
#
# Poissons Ratio (x) = 0.43510 0.43299
# Poissons Ratio (y) = 0.62063 0.08642
# Poissons Ratio (z) = 0.47550 0.06654
#
# Static dielectric constant tensor:
#      x y z
#    x 1.597440 0.000000 0.000000 
#    y 0.000000 1.700890 0.000000 
#    z 0.000000 0.000000 1.666770 
# 
# From -- ./inp_files/16884.got.cif
#   From: 2010.05.17/outbox.cif.g08.bks.cpg/sg24_9_cif.got.tgz:16884.got - 2010.06.04 00:33:39.
