data_PCOD9334035
_publ_section_title
;
Structure prediction by ZEFSAII (Michael W. Deem and Ramdas Pophale) SiO2 
 PCOD9334035
Probable space group: I 21 21 21
;
_chemical_formula_sum "Si O2"
_cell_formula_units_Z 60
_cell_length_a 11.709240
_cell_length_b 22.303359
_cell_length_c 11.390009
_cell_angle_alpha 90.000000
_cell_angle_beta 90.000000
_cell_angle_gamma 90.000000
_cell_volume 2974.562167
_symmetry_space_group_name_H-M "I 21 21 21"
_symmetry_group_IT_number 24
_symmetry_cell_setting 'orthorhombic'
loop_
_space_group_symop_operation_xyz
x,y,z
-x,1/2-y,z
x,-y,1/2-z
1/2-x,y,-z
1/2+x,1/2+y,1/2+z
1/2-x,-y,1/2+z
1/2+x,1/2-y,-z
-x,1/2+y,1/2-z
loop_
_atom_site_type_symbol
_atom_site_label
_atom_site_fract_x
_atom_site_fract_y
_atom_site_fract_z
Si Si1 0.710470 0.196227 0.736629
Si Si2 0.889684 0.619459 0.864497
Si Si3 0.540721 0.181107 0.183314
Si Si4 0.423885 0.051369 0.844107
Si Si5 0.127505 0.382287 0.048430
Si Si6 0.034137 0.687910 0.039187
Si Si7 0.750000 0.520192 0.000000
Si Si8 0.166564 0.172626 0.277805
O O1 0.843811 0.180910 0.738979
O O2 0.650596 0.153673 0.831447
O O3 0.654100 0.189003 0.607435
O O4 0.693108 0.264292 0.783906
O O5 0.777531 0.661862 0.858985
O O6 0.949261 0.634602 0.739525
O O7 0.829680 0.559357 0.911856
O O8 0.990227 0.635533 0.955646
O O9 0.500000 0.250000 0.181121
O O10 0.575656 0.159777 0.053392
O O11 0.535052 0.068484 0.918062
O O12 0.365955 0.112117 0.791491
O O13 0.454336 0.000000 0.750000
O O14 0.330797 0.020564 0.923945
O O15 0.250000 0.404210 0.000000
O O16 0.000000 0.750000 0.974836
O O17 0.944012 0.685627 0.145366
#
# Coordination Sequence:
#
# PCOD9334035 Si02
#       8
#     8   8   8   8   8   8   4   8
#     4  10  22  42  67 103 134 176 218 264 352 413
#     4  12  22  43  59 100 141 172 220 274 326 394
#     4  11  24  39  65  99 143 177 212 275 342 406
#     4  12  25  44  70  96 127 180 232 280 331 389
#     4  10  25  47  68  98 136 169 224 283 333 405
#     4  10  20  34  65  94 133 180 210 264 325 404
#     4  12  28  42  68  96 130 178 230 282 328 384
#     4  11  21  39  67  99 136 172 217 277 334 402
#
# _framework density 20.171036999999998
#
# number of rings (size 3 to 8) (size 9 to 14) (size 15 to 20)
#    0.000    1.067    5.333    0.400    3.733    0.533 
#    1.200    2.667    0.000    0.000    0.000    0.000 
#    0.000    0.000    0.000    0.000    0.000    0.000 
#
# Total GULP energy -167290.382656 kJ/mol
# GULP energy per Si atom -5576.346089 kJ/mol
# Density = 2.012513 g / cm^3
# Si number density = 20.171037 Si / 1000 Ang^3
#
#
#
# Elastic Constant Matrix: (Units=GPa)
#
#
# Indices 1 2 3 4 5 6 
#
# 1 115.5935 49.9975 55.1700 -0.0001 0.0000 0.0000
# 2 49.9975 87.8783 29.2947 0.0000 0.0000 0.0000
# 3 55.1700 29.2947 60.6957 0.0000 0.0000 -0.0001
# 4 -0.0001 0.0000 0.0000 19.7353 0.0000 0.0000
# 5 0.0000 0.0000 0.0000 0.0000 21.5813 0.0000
# 6 0.0000 0.0000 -0.0001 0.0000 0.0000 41.7389
#
#
#
# Elastic Compliance Matrix: (Units=1/GPa)
#
#
# Indices 1 2 3 4 5 6 
#
# 1 0.017230 -0.005460 -0.013026 0.000000 0.000000 0.000000
# 2 -0.005460 0.015292 -0.002417 0.000000 0.000000 0.000000
# 3 -0.013026 -0.002417 0.029482 0.000000 0.000000 0.000000
# 4 0.000000 0.000000 0.000000 0.050671 0.000000 0.000000
# 5 0.000000 0.000000 0.000000 0.000000 0.046336 0.000000
# 6 0.000000 0.000000 0.000000 0.000000 0.000000 0.023958
#
#
# Mechanical properties :
#
#
# Convention : Reuss Voigt Hill
#
# Bulk Modulus (GPa) = 49.51236 59.23243 54.37240
# Shear Modulus (GPa) = 21.59753 25.25812 23.42782
#
# Velocity S-wave (km/s) = 3.27574 3.54248 3.41172
# Velocity P-wave (km/s) = 6.23753 6.79419 6.52180
#
# Compressibility (1/GPa) = 0.02019698
#
# Stress axis : x y z
#
# Youngs Moduli (GPa) = 58.03964 65.39433 33.91894
#
# Poissons Ratio (x) = 0.35708 0.44181
# Poissons Ratio (y) = 0.31692 0.08199
# Poissons Ratio (z) = 0.75600 0.15807
#
# Static dielectric constant tensor:
#      x y z
#    x 1.714780 0.000000 0.000000 
#    y 0.000000 1.743660 0.000000 
#    z 0.000000 0.000000 1.564310 
# 
# From -- ./inp_files/20008.got.cif
#   From: 2010.05.17/outbox.cif.g08.bks.cpg/sg24_11_cif.got.tgz:20008.got - 2010.06.04 00:33:39.
