data_PCOD9334195
_publ_section_title
;
Structure prediction by ZEFSAII (Michael W. Deem and Ramdas Pophale) SiO2 
 PCOD9334195
Probable space group: I 21 21 21
;
_chemical_formula_sum "Si O2"
_cell_formula_units_Z 28
_cell_length_a 20.722130
_cell_length_b 7.652112
_cell_length_c 8.006448
_cell_angle_alpha 90.000000
_cell_angle_beta 90.000000
_cell_angle_gamma 90.000000
_cell_volume 1269.566924
_symmetry_space_group_name_H-M "I 21 21 21"
_symmetry_group_IT_number 24
_symmetry_cell_setting 'orthorhombic'
loop_
_space_group_symop_operation_xyz
x,y,z
-x,1/2-y,z
x,-y,1/2-z
1/2-x,y,-z
1/2+x,1/2+y,1/2+z
1/2-x,-y,1/2+z
1/2+x,1/2-y,-z
-x,1/2+y,1/2-z
loop_
_atom_site_type_symbol
_atom_site_label
_atom_site_fract_x
_atom_site_fract_y
_atom_site_fract_z
Si Si1 0.533997 0.500000 0.750000
Si Si2 0.819095 0.916084 0.564267
Si Si3 0.430359 0.200287 0.204651
Si Si4 0.417803 0.342199 0.577045
O O1 0.478847 0.469916 0.608364
O O2 0.575531 0.324921 0.703928
O O3 0.750000 0.856168 0.500000
O O4 0.872456 0.765872 0.589477
O O5 0.811567 0.000000 0.750000
O O6 0.850763 0.053586 0.433309
O O7 0.500000 0.250000 0.134724
O O8 0.425515 0.289615 0.384986
O O9 0.425228 0.000000 0.250000
#
# Coordination Sequence:
#
# PCOD9334195 Si02
#       4
#     4   8   8   8
#     4  10  20  36  62 102 136 160 232 286 338 400
#     4  10  24  47  71  97 141 190 234 280 354 425
#     4  11  22  42  72 102 134 178 237 292 353 411
#     4  10  22  40  63 103 138 182 222 290 354 406
#
# _framework density 22.054765
#
# number of rings (size 3 to 8) (size 9 to 14) (size 15 to 20)
#    0.000    1.714    2.857    2.571    2.000    4.571 
#    0.000    5.714    3.143    0.000    0.000    0.000 
#    0.000    0.000    0.000    0.000    0.000    0.000 
#
# Total GULP energy -78003.139821 kJ/mol
# GULP energy per Si atom -5571.652844 kJ/mol
# Density = 2.200457 g / cm^3
# Si number density = 22.054765 Si / 1000 Ang^3
#
#
#
# Elastic Constant Matrix: (Units=GPa)
#
#
# Indices 1 2 3 4 5 6 
#
# 1 204.4219 88.5515 48.7968 0.0000 0.0000 0.0000
# 2 88.5515 126.7977 59.1292 0.0000 0.0000 0.0000
# 3 48.7968 59.1292 107.1709 0.0000 0.0000 0.0000
# 4 0.0000 0.0000 0.0000 52.1360 0.0000 0.0000
# 5 0.0000 0.0000 0.0000 0.0000 42.5934 0.0000
# 6 0.0000 0.0000 0.0000 0.0000 0.0000 169.4381
#
#
#
# Elastic Compliance Matrix: (Units=1/GPa)
#
#
# Indices 1 2 3 4 5 6 
#
# 1 0.007049 -0.004613 -0.000664 0.000000 0.000000 0.000000
# 2 -0.004613 0.013637 -0.005424 0.000000 0.000000 0.000000
# 3 -0.000664 -0.005424 0.012626 0.000000 0.000000 0.000000
# 4 0.000000 0.000000 0.000000 0.019181 0.000000 0.000000
# 5 0.000000 0.000000 0.000000 0.000000 0.023478 0.000000
# 6 0.000000 0.000000 0.000000 0.000000 0.000000 0.005902
#
#
# Mechanical properties :
#
#
# Convention : Reuss Voigt Hill
#
# Bulk Modulus (GPa) = 83.96375 92.37172 88.16774
# Shear Modulus (GPa) = 46.62286 68.96102 57.79194
#
# Velocity S-wave (km/s) = 4.60277 5.59785 5.12452
# Velocity P-wave (km/s) = 8.14865 9.15178 8.66475
#
# Compressibility (1/GPa) = 0.01190990
#
# Stress axis : x y z
#
# Youngs Moduli (GPa) = 141.87312 73.32897 79.20251
#
# Poissons Ratio (x) = 0.33824 0.05262
# Poissons Ratio (y) = 0.65441 0.42958
# Poissons Ratio (z) = 0.09426 0.39772
#
# Static dielectric constant tensor:
#      x y z
#    x 1.807590 0.000000 0.000000 
#    y 0.000000 1.638120 0.000000 
#    z 0.000000 0.000000 0.409110 
# 
# From -- ./inp_files/8788.got.cif
#   From: 2010.05.17/outbox.cif.g08.bks.cpg/sg24_5_cif.got.tgz:8788.got - 2010.06.04 00:33:39.
