data_PCOD9334699
_publ_section_title
;
Structure prediction by ZEFSAII (Michael W. Deem and Ramdas Pophale) SiO2 
 PCOD9334699
Probable space group: I 21 21 21
;
_chemical_formula_sum "Si O2"
_cell_formula_units_Z 48
_cell_length_a 6.829001
_cell_length_b 24.078301
_cell_length_c 12.468235
_cell_angle_alpha 90.000000
_cell_angle_beta 90.000000
_cell_angle_gamma 90.000000
_cell_volume 2050.161128
_symmetry_space_group_name_H-M "I 21 21 21"
_symmetry_group_IT_number 24
_symmetry_cell_setting 'orthorhombic'
loop_
_space_group_symop_operation_xyz
x,y,z
-x,1/2-y,z
x,-y,1/2-z
1/2-x,y,-z
1/2+x,1/2+y,1/2+z
1/2-x,-y,1/2+z
1/2+x,1/2-y,-z
-x,1/2+y,1/2-z
loop_
_atom_site_type_symbol
_atom_site_label
_atom_site_fract_x
_atom_site_fract_y
_atom_site_fract_z
Si Si1 0.719522 0.230508 0.376789
Si Si2 0.750000 0.166588 0.000000
Si Si3 0.250000 0.523861 0.000000
Si Si4 0.202659 0.394289 0.697818
Si Si5 0.524475 0.544058 0.656043
Si Si6 0.765171 0.737034 0.657108
Si Si7 0.112165 0.880975 0.621497
O O1 0.500000 0.250000 0.362607
O O2 0.750000 0.243452 0.500000
O O3 0.751427 0.165744 0.351935
O O4 0.810597 0.263743 0.278215
O O5 0.681745 0.210678 0.908298
O O6 0.930652 0.129475 0.959605
O O7 0.320124 0.562563 0.099428
O O8 0.085406 0.486382 0.057593
O O9 0.369327 0.415195 0.781902
O O10 0.003502 0.387110 0.765573
O O11 0.571372 0.500000 0.750000
O O12 0.726370 0.571364 0.617933
O O13 0.000000 0.750000 0.650397
O O14 0.760421 0.675053 0.616038
#
# Coordination Sequence:
#
# PCOD9334699 Si02
#       7
#     8   4   4   8   8   8   8
#     4  11  21  41  71 111 150 194 246 304 384 463
#     4  10  20  43  76 108 158 206 239 310 384 450
#     4  10  24  53  80 108 146 196 263 330 388 444
#     4  11  22  48  80 101 153 201 244 322 384 449
#     4  10  26  51  78 108 142 200 262 319 385 452
#     4   9  19  42  69 105 153 197 242 290 370 466
#     4  11  23  49  78 110 154 199 252 309 380 467
#
# _framework density 23.412794000000002
#
# number of rings (size 3 to 8) (size 9 to 14) (size 15 to 20)
#    0.000    1.667    5.833    0.000    0.000    4.000 
#   12.000   12.500    0.000    0.000    0.000    0.000 
#    0.000    0.000    0.000    0.000    0.000    0.000 
#
# Total GULP energy -134071.886140 kJ/mol
# GULP energy per Si atom -5586.328589 kJ/mol
# Density = 2.335951 g / cm^3
# Si number density = 23.412794 Si / 1000 Ang^3
#
#
#
# Elastic Constant Matrix: (Units=GPa)
#
#
# Indices 1 2 3 4 5 6 
#
# 1 129.9491 50.4726 52.7937 0.0000 0.0000 0.0000
# 2 50.4726 123.0751 50.1893 0.0000 0.0000 0.0000
# 3 52.7937 50.1893 193.6492 0.0000 0.0000 0.0000
# 4 0.0000 0.0000 0.0000 65.8399 0.0000 0.0000
# 5 0.0000 0.0000 0.0000 0.0000 40.7308 0.0000
# 6 0.0000 0.0000 0.0000 0.0000 0.0000 44.4689
#
#
#
# Elastic Compliance Matrix: (Units=1/GPa)
#
#
# Indices 1 2 3 4 5 6 
#
# 1 0.009684 -0.003237 -0.001801 0.000000 0.000000 0.000000
# 2 -0.003237 0.010167 -0.001753 0.000000 0.000000 0.000000
# 3 -0.001801 -0.001753 0.006109 0.000000 0.000000 0.000000
# 4 0.000000 0.000000 0.000000 0.015188 0.000000 0.000000
# 5 0.000000 0.000000 0.000000 0.000000 0.024551 0.000000
# 6 0.000000 0.000000 0.000000 0.000000 0.000000 0.022488
#
#
# Mechanical properties :
#
#
# Convention : Reuss Voigt Hill
#
# Bulk Modulus (GPa) = 80.78062 83.73163 82.25612
# Shear Modulus (GPa) = 47.21589 49.75577 48.48583
#
# Velocity S-wave (km/s) = 4.49561 4.61494 4.55566
# Velocity P-wave (km/s) = 7.84379 8.01484 7.92978
#
# Compressibility (1/GPa) = 0.01237921
#
# Stress axis : x y z
#
# Youngs Moduli (GPa) = 103.25929 98.35450 163.68515
#
# Poissons Ratio (x) = 0.31837 0.29484
# Poissons Ratio (y) = 0.33425 0.28688
# Poissons Ratio (z) = 0.18600 0.17238
#
# Static dielectric constant tensor:
#      x y z
#    x 1.881150 0.000000 0.000000 
#    y 0.000000 1.881040 0.000000 
#    z 0.000000 0.000000 2.022990 
# 
# From -- ./inp_files/20059.got.cif
#   From: 2010.05.17/outbox.cif.g08.bks.cpg/sg24_11_cif.got.tgz:20059.got - 2010.06.04 00:33:39.
