data_PCOD9334267
_publ_section_title
;
Structure prediction by ZEFSAII (Michael W. Deem and Ramdas Pophale) SiO2 
 PCOD9334267
Probable space group: I 21 21 21
;
_chemical_formula_sum "Si O2"
_cell_formula_units_Z 36
_cell_length_a 5.539096
_cell_length_b 17.217347
_cell_length_c 14.619294
_cell_angle_alpha 90.000000
_cell_angle_beta 90.000000
_cell_angle_gamma 90.000000
_cell_volume 1394.220694
_symmetry_space_group_name_H-M "I 21 21 21"
_symmetry_group_IT_number 24
_symmetry_cell_setting 'orthorhombic'
loop_
_space_group_symop_operation_xyz
x,y,z
-x,1/2-y,z
x,-y,1/2-z
1/2-x,y,-z
1/2+x,1/2+y,1/2+z
1/2-x,-y,1/2+z
1/2+x,1/2-y,-z
-x,1/2+y,1/2-z
loop_
_atom_site_type_symbol
_atom_site_label
_atom_site_fract_x
_atom_site_fract_y
_atom_site_fract_z
Si Si1 0.332356 0.825518 0.605353
Si Si2 0.853877 0.158481 0.400502
Si Si3 0.850873 0.661060 0.801587
Si Si4 0.157393 0.471099 0.099511
Si Si5 0.469378 0.000000 0.250000
O O1 0.500000 0.750000 0.609655
O O2 0.250000 0.827027 0.500000
O O3 0.173391 0.815316 0.696138
O O4 0.447387 0.910827 0.621365
O O5 0.750000 0.182350 0.500000
O O6 0.623585 0.176559 0.335653
O O7 0.120461 0.184369 0.365051
O O8 0.879422 0.063847 0.404433
O O9 0.830343 0.566965 0.801537
O O10 0.358631 0.459181 0.176251
O O11 0.250000 0.446861 0.000000
#
# Coordination Sequence:
#
# PCOD9334267 Si02
#       5
#     8   8   8   8   4
#     4  12  26  42  63  96 142 199 248 284 331 412
#     4  10  22  40  69 103 133 164 213 287 367 423
#     4  11  22  40  65  96 133 174 223 282 345 410
#     4  10  20  37  60  92 132 174 222 280 344 412
#     4  10  20  38  66  96 130 172 222 292 364 418
#
# _framework density 25.820874
#
# number of rings (size 3 to 8) (size 9 to 14) (size 15 to 20)
#    0.000    1.333    0.000    6.667    0.000    6.222 
#    0.000    0.000    0.000    2.667    0.000    0.000 
#    0.000    0.000    0.000    0.000    0.000    0.000 
#
# Total GULP energy -100705.136916 kJ/mol
# GULP energy per Si atom -5594.729829 kJ/mol
# Density = 2.576211 g / cm^3
# Si number density = 25.820874 Si / 1000 Ang^3
#
#
#
# Elastic Constant Matrix: (Units=GPa)
#
#
# Indices 1 2 3 4 5 6 
#
# 1 167.8496 69.7824 127.9330 0.0000 0.0000 0.0000
# 2 69.7824 112.1680 31.6517 0.0000 0.0000 0.0000
# 3 127.9330 31.6517 235.5386 0.0000 0.0000 0.0000
# 4 0.0000 0.0000 0.0000 15.3080 0.0000 0.0000
# 5 0.0000 0.0000 0.0000 0.0000 17.3803 0.0000
# 6 0.0000 0.0000 0.0000 0.0000 0.0000 73.5867
#
#
#
# Elastic Compliance Matrix: (Units=1/GPa)
#
#
# Indices 1 2 3 4 5 6 
#
# 1 0.013749 -0.006700 -0.006567 0.000000 0.000000 0.000000
# 2 -0.006700 0.012532 0.001955 0.000000 0.000000 0.000000
# 3 -0.006567 0.001955 0.007550 0.000000 0.000000 0.000000
# 4 0.000000 0.000000 0.000000 0.065325 0.000000 0.000000
# 5 0.000000 0.000000 0.000000 0.000000 0.057536 0.000000
# 6 0.000000 0.000000 0.000000 0.000000 0.000000 0.013589
#
#
# Mechanical properties :
#
#
# Convention : Reuss Voigt Hill
#
# Bulk Modulus (GPa) = 89.23903 108.25450 98.74677
# Shear Modulus (GPa) = 25.42696 40.33427 32.88062
#
# Velocity S-wave (km/s) = 3.14147 3.95660 3.57236
# Velocity P-wave (km/s) = 6.91334 7.93027 7.43920
#
# Compressibility (1/GPa) = 0.01120586
#
# Stress axis : x y z
#
# Youngs Moduli (GPa) = 72.73322 79.79640 132.45221
#
# Poissons Ratio (x) = 0.53466 0.86986
# Poissons Ratio (y) = 0.48734 -0.25898
# Poissons Ratio (z) = 0.47766 -0.15602
#
# Static dielectric constant tensor:
#      x y z
#    x 2.099600 0.000000 0.000000 
#    y 0.000000 2.069340 0.000000 
#    z 0.000000 0.000000 2.003060 
# 
# From -- ./inp_files/23621.got.cif
#   From: 2010.05.17/outbox.cif.g08.bks.cpg/sg24_12_cif.got.tgz:23621.got - 2010.06.04 00:33:39.
