data_PCOD9334541
_publ_section_title
;
Structure prediction by ZEFSAII (Michael W. Deem and Ramdas Pophale) SiO2 
 PCOD9334541
Probable space group: I 21 21 21
;
_chemical_formula_sum "Si O2"
_cell_formula_units_Z 28
_cell_length_a 9.922259
_cell_length_b 8.591420
_cell_length_c 17.284839
_cell_angle_alpha 90.000000
_cell_angle_beta 90.000000
_cell_angle_gamma 90.000000
_cell_volume 1473.468474
_symmetry_space_group_name_H-M "I 21 21 21"
_symmetry_group_IT_number 24
_symmetry_cell_setting 'orthorhombic'
loop_
_space_group_symop_operation_xyz
x,y,z
-x,1/2-y,z
x,-y,1/2-z
1/2-x,y,-z
1/2+x,1/2+y,1/2+z
1/2-x,-y,1/2+z
1/2+x,1/2-y,-z
-x,1/2+y,1/2-z
loop_
_atom_site_type_symbol
_atom_site_label
_atom_site_fract_x
_atom_site_fract_y
_atom_site_fract_z
Si Si1 0.000000 0.750000 0.339051
Si Si2 0.349574 0.267366 0.353824
Si Si3 0.174938 0.000686 0.418819
Si Si4 0.000000 0.750000 0.004567
Si Si5 0.177610 0.500000 0.250000
O O1 0.887143 0.655692 0.386136
O O2 0.919076 0.875705 0.289979
O O3 0.500000 0.250000 0.318393
O O4 0.269387 0.103239 0.361326
O O5 0.384481 0.304806 0.444114
O O6 0.268085 0.400719 0.310254
O O7 0.250000 0.971947 0.500000
O O8 0.052587 0.113898 0.441952
#
# Coordination Sequence:
#
# PCOD9334541 Si02
#       5
#     4   8   8   4   4
#     4  12  26  37  60  83 116 158 188 240 274 336
#     4   9  21  38  62  85 114 155 181 236 285 336
#     4  10  20  40  60  89 111 146 194 239 288 331
#     4   8  18  39  64  85 112 148 188 238 292 328
#     4  12  24  40  56  86 118 156 194 222 282 346
#
# _framework density 19.002782
#
# number of rings (size 3 to 8) (size 9 to 14) (size 15 to 20)
#    0.857    1.143    0.000    3.429    0.000    4.571 
#    0.000    0.000    0.000    0.000    0.000    0.000 
#    0.000    0.000    0.000    0.000    0.000    0.000 
#
# Total GULP energy -78028.569391 kJ/mol
# GULP energy per Si atom -5573.469242 kJ/mol
# Density = 1.895953 g / cm^3
# Si number density = 19.002782 Si / 1000 Ang^3
#
#
#
# Elastic Constant Matrix: (Units=GPa)
#
#
# Indices 1 2 3 4 5 6 
#
# 1 102.5007 83.3652 42.3910 0.0000 0.0000 0.0000
# 2 83.3652 160.5854 71.9244 0.0000 0.0000 0.0000
# 3 42.3910 71.9244 60.6077 0.0000 0.0000 0.0000
# 4 0.0000 0.0000 0.0000 54.7529 0.0000 0.0000
# 5 0.0000 0.0000 0.0000 0.0000 31.2621 0.0000
# 6 0.0000 0.0000 0.0000 0.0000 0.0000 42.9704
#
#
#
# Elastic Compliance Matrix: (Units=1/GPa)
#
#
# Indices 1 2 3 4 5 6 
#
# 1 0.017146 -0.007534 -0.003051 0.000000 0.000000 0.000000
# 2 -0.007534 0.016603 -0.014434 0.000000 0.000000 0.000000
# 3 -0.003051 -0.014434 0.035762 0.000000 0.000000 0.000000
# 4 0.000000 0.000000 0.000000 0.018264 0.000000 0.000000
# 5 0.000000 0.000000 0.000000 0.000000 0.031988 0.000000
# 6 0.000000 0.000000 0.000000 0.000000 0.000000 0.023272
#
#
# Mechanical properties :
#
#
# Convention : Reuss Voigt Hill
#
# Bulk Modulus (GPa) = 51.35303 79.89500 65.62402
# Shear Modulus (GPa) = 25.05469 34.19793 29.62631
#
# Velocity S-wave (km/s) = 3.63502 4.24680 3.95277
# Velocity P-wave (km/s) = 6.68584 8.13525 7.44589
#
# Compressibility (1/GPa) = 0.01947305
#
# Stress axis : x y z
#
# Youngs Moduli (GPa) = 58.32389 60.22947 27.96246
#
# Poissons Ratio (x) = 0.45379 0.08532
# Poissons Ratio (y) = 0.43943 0.40360
# Poissons Ratio (z) = 0.17795 0.86933
#
# Static dielectric constant tensor:
#      x y z
#    x 1.709610 0.000000 0.000000 
#    y 0.000000 1.540190 0.000000 
#    z 0.000000 0.000000 1.667660 
# 
# From -- ./inp_files/8892.got.cif
#   From: 2010.05.17/outbox.cif.g08.bks.cpg/sg24_5_cif.got.tgz:8892.got - 2010.06.04 00:33:39.
