data_PCOD9334521
_publ_section_title
;
Structure prediction by ZEFSAII (Michael W. Deem and Ramdas Pophale) SiO2 
 PCOD9334521
Probable space group: I 21 21 21
;
_chemical_formula_sum "Si O2"
_cell_formula_units_Z 40
_cell_length_a 12.755069
_cell_length_b 8.146570
_cell_length_c 17.744367
_cell_angle_alpha 90.000000
_cell_angle_beta 90.000000
_cell_angle_gamma 90.000000
_cell_volume 1843.818283
_symmetry_space_group_name_H-M "I 21 21 21"
_symmetry_group_IT_number 24
_symmetry_cell_setting 'orthorhombic'
loop_
_space_group_symop_operation_xyz
x,y,z
-x,1/2-y,z
x,-y,1/2-z
1/2-x,y,-z
1/2+x,1/2+y,1/2+z
1/2-x,-y,1/2+z
1/2+x,1/2-y,-z
-x,1/2+y,1/2-z
loop_
_atom_site_type_symbol
_atom_site_label
_atom_site_fract_x
_atom_site_fract_y
_atom_site_fract_z
Si Si1 0.517766 0.569725 0.474881
Si Si2 0.250000 0.984345 0.000000
Si Si3 0.317276 0.413531 0.926988
Si Si4 0.119314 0.307214 0.225912
Si Si5 0.232331 0.249450 0.644001
Si Si6 0.500000 0.250000 0.369391
O O1 0.500000 0.750000 0.439230
O O2 0.636880 0.569029 0.502872
O O3 0.434606 0.552559 0.542796
O O4 0.500023 0.413980 0.421082
O O5 0.242878 0.875853 0.924539
O O6 0.327357 0.293587 0.855977
O O7 0.262979 0.576315 0.893345
O O8 0.250000 0.367409 0.000000
O O9 0.120255 0.500000 0.250000
O O10 0.187295 0.216267 0.288938
O O11 0.000000 0.250000 0.223583
O O12 0.111808 0.251117 0.672082
#
# Coordination Sequence:
#
# PCOD9334521 Si02
#       6
#     8   4   8   8   8   4
#     4  11  23  37  64 102 135 176 231 283 339 407
#     4  10  22  36  64 104 136 182 230 288 334 412
#     4  11  20  40  67  95 134 180 222 280 354 415
#     4  10  24  41  66  97 133 178 222 292 346 409
#     4  10  20  39  68  96 132 178 237 278 343 422
#     4  10  20  42  66  98 134 182 224 284 340 398
#
# _framework density 21.694112000000001
#
# number of rings (size 3 to 8) (size 9 to 14) (size 15 to 20)
#    0.000    1.600    3.000    1.800    7.000    0.000 
#    0.000    0.000    4.400    3.600    0.000    0.000 
#    0.000    0.000    0.000    0.000    0.000    0.800 
#
# Total GULP energy -111756.012756 kJ/mol
# GULP energy per Si atom -5587.800638 kJ/mol
# Density = 2.164474 g / cm^3
# Si number density = 21.694112 Si / 1000 Ang^3
#
#
#
# Elastic Constant Matrix: (Units=GPa)
#
#
# Indices 1 2 3 4 5 6 
#
# 1 195.9252 29.1027 70.2016 0.0000 0.0000 0.0000
# 2 29.1027 75.1749 15.6440 0.0000 0.0000 0.0000
# 3 70.2016 15.6440 135.8048 0.0000 0.0000 0.0000
# 4 0.0000 0.0000 0.0000 10.2225 0.0000 0.0000
# 5 0.0000 0.0000 0.0000 0.0000 23.3713 0.0000
# 6 0.0000 0.0000 0.0000 0.0000 0.0000 27.3141
#
#
#
# Elastic Compliance Matrix: (Units=1/GPa)
#
#
# Indices 1 2 3 4 5 6 
#
# 1 0.006510 -0.001865 -0.003150 0.000000 0.000000 0.000000
# 2 -0.001865 0.014163 -0.000668 0.000000 0.000000 0.000000
# 3 -0.003150 -0.000668 0.009069 0.000000 0.000000 0.000000
# 4 0.000000 0.000000 0.000000 0.097823 0.000000 0.000000
# 5 0.000000 0.000000 0.000000 0.000000 0.042788 0.000000
# 6 0.000000 0.000000 0.000000 0.000000 0.000000 0.036611
#
#
# Mechanical properties :
#
#
# Convention : Reuss Voigt Hill
#
# Bulk Modulus (GPa) = 54.41674 70.75572 62.58623
# Shear Modulus (GPa) = 22.27624 31.64534 26.96079
#
# Velocity S-wave (km/s) = 3.20790 3.82345 3.52912
# Velocity P-wave (km/s) = 6.23369 7.22341 6.74672
#
# Compressibility (1/GPa) = 0.01837670
#
# Stress axis : x y z
#
# Youngs Moduli (GPa) = 153.61643 70.60604 110.26695
#
# Poissons Ratio (x) = 0.13165 0.34737
# Poissons Ratio (y) = 0.28643 0.07362
# Poissons Ratio (z) = 0.48394 0.04714
#
# Static dielectric constant tensor:
#      x y z
#    x 1.781130 0.000000 0.000000 
#    y 0.000000 1.841330 0.000000 
#    z 0.000000 0.000000 1.760930 
# 
# From -- ./inp_files/21369.got.cif
#   From: 2010.05.17/outbox.cif.g08.bks.cpg/sg24_11_cif.got.tgz:21369.got - 2010.06.04 00:33:39.
