data_PCOD9334018
_publ_section_title
;
Structure prediction by ZEFSAII (Michael W. Deem and Ramdas Pophale) SiO2 
 PCOD9334018
Probable space group: I 21 21 21
;
_chemical_formula_sum "Si O2"
_cell_formula_units_Z 64
_cell_length_a 14.584282
_cell_length_b 8.862363
_cell_length_c 22.756801
_cell_angle_alpha 90.000000
_cell_angle_beta 90.000000
_cell_angle_gamma 90.000000
_cell_volume 2941.343864
_symmetry_space_group_name_H-M "I 21 21 21"
_symmetry_group_IT_number 24
_symmetry_cell_setting 'orthorhombic'
loop_
_space_group_symop_operation_xyz
x,y,z
-x,1/2-y,z
x,-y,1/2-z
1/2-x,y,-z
1/2+x,1/2+y,1/2+z
1/2-x,-y,1/2+z
1/2+x,1/2-y,-z
-x,1/2+y,1/2-z
loop_
_atom_site_type_symbol
_atom_site_label
_atom_site_fract_x
_atom_site_fract_y
_atom_site_fract_z
Si Si1 0.846864 0.378259 0.485924
Si Si2 0.651787 0.970431 0.987706
Si Si3 0.405307 0.658186 0.283604
Si Si4 0.546232 0.896265 0.406630
Si Si5 0.583881 0.635521 0.118366
Si Si6 0.000040 0.927240 0.092191
Si Si7 0.257420 0.844610 0.213693
Si Si8 0.577115 0.149002 0.716854
O O1 0.750000 0.452709 0.500000
O O2 0.828306 0.203124 0.468619
O O3 0.897558 0.361941 0.548510
O O4 0.903165 0.468942 0.436711
O O5 0.581651 0.020965 0.937486
O O6 0.750000 0.043675 0.000000
O O7 0.594373 0.993717 0.047410
O O8 0.500000 0.750000 0.275416
O O9 0.414318 0.500000 0.250000
O O10 0.386978 0.640013 0.353076
O O11 0.320729 0.745151 0.255903
O O12 0.500000 0.750000 0.435713
O O13 0.462584 0.974642 0.372247
O O14 0.500000 0.750000 0.133439
O O15 0.677239 0.645444 0.155583
O O16 0.978608 0.913314 0.160226
O O17 0.000000 0.750000 0.071108
O O18 0.162851 0.755996 0.200736
O O19 0.240592 0.000000 0.250000
O O20 0.500000 0.250000 0.749764
O O21 0.609869 0.000000 0.750000
#
# Coordination Sequence:
#
# PCOD9334018 Si02
#       8
#     8   8   8   8   8   8   8   8
#     4  10  20  36  65 100 124 159 215 284 330 382
#     4  10  20  34  60  89 122 162 216 269 330 393
#     4  11  22  38  61  91 136 182 224 274 337 409
#     4  11  22  38  58  86 136 174 210 270 345 414
#     4  12  22  38  66  99 128 171 227 273 333 401
#     4   9  19  39  63  94 127 162 216 282 327 385
#     4  12  26  42  64 100 139 181 231 281 333 405
#     4  11  26  47  72  98 134 180 232 283 338 390
#
# _framework density 21.758761
#
# number of rings (size 3 to 8) (size 9 to 14) (size 15 to 20)
#    0.000    1.250    2.500    4.875    7.000    1.000 
#    0.000    1.250    0.000    1.500    0.000    0.000 
#    0.000    0.000    0.000    0.000    0.000    0.000 
#
# Total GULP energy -178344.944491 kJ/mol
# GULP energy per Si atom -5573.279515 kJ/mol
# Density = 2.170924 g / cm^3
# Si number density = 21.758761 Si / 1000 Ang^3
#
#
#
# Elastic Constant Matrix: (Units=GPa)
#
#
# Indices 1 2 3 4 5 6 
#
# 1 137.0449 31.1650 17.2496 0.0000 0.0000 0.0000
# 2 31.1650 70.4662 16.4413 0.0000 0.0000 0.0000
# 3 17.2496 16.4413 68.6164 0.0000 0.0000 0.0000
# 4 0.0000 0.0000 0.0000 12.6401 0.0000 0.0000
# 5 0.0000 0.0000 0.0000 0.0000 -4.4391 0.0000
# 6 0.0000 0.0000 0.0000 0.0000 0.0000 9.1978
#
#
#
# Elastic Compliance Matrix: (Units=1/GPa)
#
#
# Indices 1 2 3 4 5 6 
#
# 1 0.008215 -0.003338 -0.001265 0.000000 0.000000 0.000000
# 2 -0.003338 0.016388 -0.003088 0.000000 0.000000 0.000000
# 3 -0.001265 -0.003088 0.015632 0.000000 0.000000 0.000000
# 4 0.000000 0.000000 0.000000 0.079114 0.000000 0.000000
# 5 0.000000 0.000000 0.000000 0.000000 -0.225269 0.000000
# 6 0.000000 0.000000 0.000000 0.000000 0.000000 0.108722
#
#
# Mechanical properties :
#
#
# Convention : Reuss Voigt Hill
#
# Bulk Modulus (GPa) = 40.23700 45.09325 42.66512
# Shear Modulus (GPa) = 188.91070 17.56451 103.23760
#
# Velocity S-wave (km/s) = 9.32786 2.84428 6.89561
# Velocity P-wave (km/s) = 11.59933 5.61745 9.11318
#
# Compressibility (1/GPa) = 0.02485275
#
# Stress axis : x y z
#
# Youngs Moduli (GPa) = 121.72464 61.02051 63.97251
#
# Poissons Ratio (x) = 0.20369 0.08095
# Poissons Ratio (y) = 0.40633 0.19752
# Poissons Ratio (z) = 0.15403 0.18841
#
# Static dielectric constant tensor:
#      x y z
#    x 1.910230 0.000000 0.000000 
#    y 0.000000 1.851030 0.000000 
#    z 0.000000 0.000000 1.836740 
# 
# From -- ./inp_files/35845.got.cif
#   From: 2010.05.17/outbox.cif.g08.bks.cpg/sg24_18_cif.got.tgz:35845.got - 2010.06.04 00:33:39.
