data_PCOD9334653
_publ_section_title
;
Structure prediction by ZEFSAII (Michael W. Deem and Ramdas Pophale) SiO2 
 PCOD9334653
Probable space group: I 21 21 21
;
_chemical_formula_sum "Si O2"
_cell_formula_units_Z 40
_cell_length_a 12.711023
_cell_length_b 5.237536
_cell_length_c 31.404651
_cell_angle_alpha 90.000000
_cell_angle_beta 90.000000
_cell_angle_gamma 90.000000
_cell_volume 2090.747071
_symmetry_space_group_name_H-M "I 21 21 21"
_symmetry_group_IT_number 24
_symmetry_cell_setting 'orthorhombic'
loop_
_space_group_symop_operation_xyz
x,y,z
-x,1/2-y,z
x,-y,1/2-z
1/2-x,y,-z
1/2+x,1/2+y,1/2+z
1/2-x,-y,1/2+z
1/2+x,1/2-y,-z
-x,1/2+y,1/2-z
loop_
_atom_site_type_symbol
_atom_site_label
_atom_site_fract_x
_atom_site_fract_y
_atom_site_fract_z
Si Si1 0.072896 0.501527 0.299206
Si Si2 0.181936 0.445657 0.116487
Si Si3 0.112274 0.387254 0.939483
Si Si4 0.395476 0.936979 0.928702
Si Si5 0.500000 0.750000 0.001945
Si Si6 0.750000 0.465588 0.000000
O O1 0.108320 0.500000 0.250000
O O2 0.167299 0.531685 0.332886
O O3 0.000000 0.750000 0.305345
O O4 0.000000 0.250000 0.305955
O O5 0.301102 0.436210 0.097631
O O6 0.113186 0.688198 0.100622
O O7 0.128173 0.188152 0.098164
O O8 0.000000 0.250000 0.927327
O O9 0.168057 0.211081 0.974756
O O10 0.084785 0.644247 0.965086
O O11 0.483437 0.965858 0.965548
O O12 0.302420 0.879911 0.962401
#
# Coordination Sequence:
#
# PCOD9334653 Si02
#       6
#     8   8   8   8   4   4
#     4  10  22  43  68  94 121 149 185 240 315 378
#     4  11  25  39  59  91 115 156 198 251 297 358
#     4  11  23  39  56  78 120 163 214 249 293 338
#     4  11  23  35  57  80 120 154 204 239 284 339
#     4  12  22  36  56  78 116 172 198 248 278 334
#     4  10  20  42  48  78 112 164 206 248 284 336
#
# _framework density 19.131917999999999
#
# number of rings (size 3 to 8) (size 9 to 14) (size 15 to 20)
#    0.000    1.200    2.000    4.800    7.000    0.800 
#    0.000    0.000    0.000    0.000    2.600    0.000 
#    0.000    0.000    0.000    0.000    0.000    0.000 
#
# Total GULP energy -111370.563328 kJ/mol
# GULP energy per Si atom -5568.528166 kJ/mol
# Density = 1.908837 g / cm^3
# Si number density = 19.131918 Si / 1000 Ang^3
#
#
#
# Elastic Constant Matrix: (Units=GPa)
#
#
# Indices 1 2 3 4 5 6 
#
# 1 102.6994 19.4157 68.6331 0.0000 0.0000 0.0000
# 2 19.4157 112.7787 37.8967 0.0000 0.0000 0.0000
# 3 68.6331 37.8967 159.7701 0.0000 0.0000 0.0000
# 4 0.0000 0.0000 0.0000 4.7236 0.0000 0.0000
# 5 0.0000 0.0000 0.0000 0.0000 26.5651 0.0000
# 6 0.0000 0.0000 0.0000 0.0000 0.0000 29.6644
#
#
#
# Elastic Compliance Matrix: (Units=1/GPa)
#
#
# Indices 1 2 3 4 5 6 
#
# 1 0.013676 -0.000413 -0.005777 0.000000 0.000000 0.000000
# 2 -0.000413 0.009647 -0.002111 0.000000 0.000000 0.000000
# 3 -0.005777 -0.002111 0.009241 0.000000 0.000000 0.000000
# 4 0.000000 0.000000 0.000000 0.211703 0.000000 0.000000
# 5 0.000000 0.000000 0.000000 0.000000 0.037643 0.000000
# 6 0.000000 0.000000 0.000000 0.000000 0.000000 0.033710
#
#
# Mechanical properties :
#
#
# Convention : Reuss Voigt Hill
#
# Bulk Modulus (GPa) = 62.64563 69.68213 66.16388
# Shear Modulus (GPa) = 14.81290 28.81079 21.81185
#
# Velocity S-wave (km/s) = 2.78555 3.88481 3.38016
# Velocity P-wave (km/s) = 6.56969 7.52484 7.06343
#
# Compressibility (1/GPa) = 0.01596281
#
# Stress axis : x y z
#
# Youngs Moduli (GPa) = 73.12160 103.65543 108.21084
#
# Poissons Ratio (x) = 0.04283 0.62511
# Poissons Ratio (y) = 0.03022 0.22841
# Poissons Ratio (z) = 0.42241 0.21879
#
# Static dielectric constant tensor:
#      x y z
#    x 1.980230 0.000000 0.000000 
#    y 0.000000 1.735110 0.000000 
#    z 0.000000 0.000000 1.642970 
# 
# From -- ./inp_files/23097.got.cif
#   From: 2010.05.17/outbox.cif.g08.bks.cpg/sg24_12_cif.got.tgz:23097.got - 2010.06.04 00:33:39.
