data_PCOD9334291
_publ_section_title
;
Structure prediction by ZEFSAII (Michael W. Deem and Ramdas Pophale) SiO2 
 PCOD9334291
Probable space group: I 21 21 21
;
_chemical_formula_sum "Si O2"
_cell_formula_units_Z 60
_cell_length_a 27.434894
_cell_length_b 9.135880
_cell_length_c 13.202987
_cell_angle_alpha 90.000000
_cell_angle_beta 90.000000
_cell_angle_gamma 90.000000
_cell_volume 3309.221739
_symmetry_space_group_name_H-M "I 21 21 21"
_symmetry_group_IT_number 24
_symmetry_cell_setting 'orthorhombic'
loop_
_space_group_symop_operation_xyz
x,y,z
-x,1/2-y,z
x,-y,1/2-z
1/2-x,y,-z
1/2+x,1/2+y,1/2+z
1/2-x,-y,1/2+z
1/2+x,1/2-y,-z
-x,1/2+y,1/2-z
loop_
_atom_site_type_symbol
_atom_site_label
_atom_site_fract_x
_atom_site_fract_y
_atom_site_fract_z
Si Si1 0.199946 0.437591 0.544889
Si Si2 0.889849 0.271053 0.496870
Si Si3 0.573531 0.024107 0.638702
Si Si4 0.328281 0.345665 0.879005
Si Si5 0.462321 0.123459 0.334656
Si Si6 0.009386 0.095642 0.005952
Si Si7 0.391293 0.051989 0.867408
Si Si8 0.751533 0.000000 0.750000
O O1 0.250000 0.374780 0.500000
O O2 0.155054 0.333636 0.521646
O O3 0.190688 0.593239 0.487630
O O4 0.212853 0.451224 0.661309
O O5 0.922695 0.183324 0.413362
O O6 0.917473 0.305162 0.602430
O O7 0.874265 0.417812 0.438528
O O8 0.552508 0.000000 0.750000
O O9 0.627119 0.955355 0.643611
O O10 0.539045 0.931038 0.568371
O O11 0.352892 0.186240 0.873960
O O12 0.285106 0.378714 0.798810
O O13 0.500000 0.250000 0.299924
O O14 0.449749 0.000000 0.250000
O O15 0.486995 0.031468 0.424669
O O16 0.056586 0.093800 0.080227
O O17 0.000000 0.250000 0.953336
O O18 0.396688 0.000000 0.750000
#
# Coordination Sequence:
#
# PCOD9334291 Si02
#       8
#     8   8   8   8   8   8   8   4
#     4   9  21  41  68  90 115 155 206 260 305 370
#     4  10  23  41  61  92 128 161 207 261 310 369
#     4  11  19  35  63  88 123 168 206 243 304 366
#     4  10  20  37  63  90 116 158 201 251 301 371
#     4  11  23  44  63  87 124 171 215 258 307 359
#     4  11  22  37  56  92 128 163 213 251 288 363
#     4  11  23  35  57  92 132 165 195 244 317 369
#     4  10  20  42  70  88 112 150 214 250 310 366
#
# _framework density 18.131150000000002
#
# number of rings (size 3 to 8) (size 9 to 14) (size 15 to 20)
#    0.000    1.600    3.333    1.600    3.733    0.000 
#    6.000    2.000    0.000    0.000    0.000    0.000 
#    0.000    0.000    0.000    0.000    0.000    0.000 
#
# Total GULP energy -167057.449789 kJ/mol
# GULP energy per Si atom -5568.581660 kJ/mol
# Density = 1.808988 g / cm^3
# Si number density = 18.131150 Si / 1000 Ang^3
#
#
#
# Elastic Constant Matrix: (Units=GPa)
#
#
# Indices 1 2 3 4 5 6 
#
# 1 51.5012 33.2315 36.5139 0.0000 0.0000 0.0000
# 2 33.2315 113.3029 43.1801 0.0000 0.0000 0.0000
# 3 36.5139 43.1801 120.1167 0.0000 0.0000 0.0000
# 4 0.0000 0.0000 0.0000 16.7342 0.0000 0.0000
# 5 0.0000 0.0000 0.0000 0.0000 -15.6484 0.0000
# 6 0.0000 0.0000 0.0000 0.0000 0.0000 29.6842
#
#
#
# Elastic Compliance Matrix: (Units=1/GPa)
#
#
# Indices 1 2 3 4 5 6 
#
# 1 0.027573 -0.005669 -0.006344 0.000000 0.000000 0.000000
# 2 -0.005669 0.011393 -0.002372 0.000000 0.000000 0.000000
# 3 -0.006344 -0.002372 0.011106 0.000000 0.000000 0.000000
# 4 0.000000 0.000000 0.000000 0.059758 0.000000 0.000000
# 5 0.000000 0.000000 0.000000 0.000000 -0.063904 0.000000
# 6 0.000000 0.000000 0.000000 0.000000 0.000000 0.033688
#
#
# Mechanical properties :
#
#
# Convention : Reuss Voigt Hill
#
# Bulk Modulus (GPa) = 46.94498 56.75240 51.84869
# Shear Modulus (GPa) = 43.29577 17.62035 30.45806
#
# Velocity S-wave (km/s) = 4.89194 3.12080 4.10307
# Velocity P-wave (km/s) = 7.60632 6.65994 7.14881
#
# Compressibility (1/GPa) = 0.02130153
#
# Stress axis : x y z
#
# Youngs Moduli (GPa) = 36.26742 87.77516 90.03841
#
# Poissons Ratio (x) = 0.49764 0.57118
# Poissons Ratio (y) = 0.20562 0.21358
# Poissons Ratio (z) = 0.23007 0.20821
#
# Static dielectric constant tensor:
#      x y z
#    x 1.614830 0.000000 0.000000 
#    y 0.000000 1.693270 0.000000 
#    z 0.000000 0.000000 1.635080 
# 
# From -- ./inp_files/22976.got.cif
#   From: 2010.05.17/outbox.cif.g08.bks.cpg/sg24_12_cif.got.tgz:22976.got - 2010.06.04 00:33:39.
