data_PCOD9334151
_publ_section_title
;
Structure prediction by ZEFSAII (Michael W. Deem and Ramdas Pophale) SiO2 
 PCOD9334151
Probable space group: I 21 21 21
;
_chemical_formula_sum "Si O2"
_cell_formula_units_Z 52
_cell_length_a 27.750562
_cell_length_b 5.078324
_cell_length_c 19.742771
_cell_angle_alpha 90.000000
_cell_angle_beta 90.000000
_cell_angle_gamma 90.000000
_cell_volume 2782.276558
_symmetry_space_group_name_H-M "I 21 21 21"
_symmetry_group_IT_number 24
_symmetry_cell_setting 'orthorhombic'
loop_
_space_group_symop_operation_xyz
x,y,z
-x,1/2-y,z
x,-y,1/2-z
1/2-x,y,-z
1/2+x,1/2+y,1/2+z
1/2-x,-y,1/2+z
1/2+x,1/2-y,-z
-x,1/2+y,1/2-z
loop_
_atom_site_type_symbol
_atom_site_label
_atom_site_fract_x
_atom_site_fract_y
_atom_site_fract_z
Si Si1 0.444315 0.251818 0.200749
Si Si2 0.305308 0.277282 0.978133
Si Si3 0.849851 0.137554 0.883261
Si Si4 0.102115 0.752405 0.201818
Si Si5 0.307454 0.229609 0.608758
Si Si6 0.295932 0.127160 0.325248
Si Si7 0.500000 0.750000 0.799652
O O1 0.500000 0.250000 0.175270
O O2 0.440411 0.500000 0.250000
O O3 0.403137 0.290017 0.144070
O O4 0.435954 0.000000 0.250000
O O5 0.310484 0.469906 0.914777
O O6 0.310061 0.975771 0.953830
O O7 0.250000 0.315336 0.000000
O O8 0.341500 0.384966 0.036132
O O9 0.817074 0.391692 0.869376
O O10 0.828185 0.887536 0.841379
O O11 0.109734 0.500000 0.250000
O O12 0.146737 0.811375 0.155073
O O13 0.050933 0.733192 0.162574
O O14 0.096819 0.000000 0.250000
O O15 0.258074 0.186144 0.650048
O O16 0.297401 0.000000 0.250000
O O17 0.498689 0.500000 0.750000
#
# Coordination Sequence:
#
# PCOD9334151 Si02
#       7
#     8   8   8   8   8   8   4
#     4  10  21  39  62  88 115 145 187 243 302 349
#     4  12  23  41  58  79 112 165 199 226 272 342
#     4  12  23  38  60  82 116 153 194 232 280 352
#     4  10  20  36  58  86 116 146 184 236 295 338
#     4  12  23  38  58  83 116 155 194 237 279 342
#     4  12  23  35  56  87 117 145 182 239 292 341
#     4   8  16  32  56  80 108 146 178 218 278 346
#
# _framework density 18.689731999999999
#
# number of rings (size 3 to 8) (size 9 to 14) (size 15 to 20)
#    0.000    0.923    3.077    5.538    0.000    1.231 
#    0.000    0.000    3.385    0.000    0.000    0.000 
#    0.000    0.000    0.000    0.000    0.000    0.000 
#
# Total GULP energy -145006.076347 kJ/mol
# GULP energy per Si atom -5577.156783 kJ/mol
# Density = 1.864719 g / cm^3
# Si number density = 18.689732 Si / 1000 Ang^3
#
#
#
# Elastic Constant Matrix: (Units=GPa)
#
#
# Indices 1 2 3 4 5 6 
#
# 1 121.8186 3.4175 25.4833 0.0000 0.0000 0.0000
# 2 3.4175 99.0118 -6.6431 0.0000 0.0000 0.0000
# 3 25.4833 -6.6431 32.9843 0.0000 0.0000 0.0000
# 4 0.0000 0.0000 0.0000 28.9143 0.0000 0.0000
# 5 0.0000 0.0000 0.0000 0.0000 -13.3208 0.0000
# 6 0.0000 0.0000 0.0000 0.0000 0.0000 34.1501
#
#
#
# Elastic Compliance Matrix: (Units=1/GPa)
#
#
# Indices 1 2 3 4 5 6 
#
# 1 0.009864 -0.000863 -0.007794 0.000000 0.000000 0.000000
# 2 -0.000863 0.010314 0.002744 0.000000 0.000000 0.000000
# 3 -0.007794 0.002744 0.036892 0.000000 0.000000 0.000000
# 4 0.000000 0.000000 0.000000 0.034585 0.000000 0.000000
# 5 0.000000 0.000000 0.000000 0.000000 -0.075071 0.000000
# 6 0.000000 0.000000 0.000000 0.000000 0.000000 0.029282
#
#
# Mechanical properties :
#
#
# Convention : Reuss Voigt Hill
#
# Bulk Modulus (GPa) = 22.10325 33.14780 27.62553
# Shear Modulus (GPa) = 68.70568 25.38586 47.04577
#
# Velocity S-wave (km/s) = 6.06968 3.68948 5.02261
# Velocity P-wave (km/s) = 7.80855 5.99367 6.96051
#
# Compressibility (1/GPa) = 0.04524221
#
# Stress axis : x y z
#
# Youngs Moduli (GPa) = 101.38217 96.95813 27.10616
#
# Poissons Ratio (x) = 0.08372 0.21128
# Poissons Ratio (y) = 0.08754 -0.07439
# Poissons Ratio (z) = 0.79022 -0.26608
#
# Static dielectric constant tensor:
#      x y z
#    x 1.709690 0.000000 0.000000 
#    y 0.000000 1.873050 0.000000 
#    z 0.000000 0.000000 1.639980 
# 
# From -- ./inp_files/31646.got.cif
#   From: 2010.05.17/outbox.cif.g08.bks.cpg/sg24_16_cif.got.tgz:31646.got - 2010.06.04 00:33:39.
