data_PCOD9334165
_publ_section_title
;
Structure prediction by ZEFSAII (Michael W. Deem and Ramdas Pophale) SiO2 
 PCOD9334165
Probable space group: I 21 21 21
;
_chemical_formula_sum "Si O2"
_cell_formula_units_Z 64
_cell_length_a 14.798294
_cell_length_b 12.949972
_cell_length_c 15.850310
_cell_angle_alpha 90.000000
_cell_angle_beta 90.000000
_cell_angle_gamma 90.000000
_cell_volume 3037.513671
_symmetry_space_group_name_H-M "I 21 21 21"
_symmetry_group_IT_number 24
_symmetry_cell_setting 'orthorhombic'
loop_
_space_group_symop_operation_xyz
x,y,z
-x,1/2-y,z
x,-y,1/2-z
1/2-x,y,-z
1/2+x,1/2+y,1/2+z
1/2-x,-y,1/2+z
1/2+x,1/2-y,-z
-x,1/2+y,1/2-z
loop_
_atom_site_type_symbol
_atom_site_label
_atom_site_fract_x
_atom_site_fract_y
_atom_site_fract_z
Si Si1 0.454082 0.016138 0.005826
Si Si2 0.650366 0.043724 0.462565
Si Si3 0.611998 0.811600 0.639835
Si Si4 0.648370 0.715982 0.465923
Si Si5 0.928943 0.408712 0.681727
Si Si6 0.873572 0.811058 0.828652
Si Si7 0.578441 0.584639 0.676956
Si Si8 0.699276 0.118397 0.166837
O O1 0.559044 0.986517 0.988822
O O2 0.424829 0.942955 0.083378
O O3 0.423759 0.125934 0.044744
O O4 0.408286 0.026713 0.913266
O O5 0.750000 0.026629 0.500000
O O6 0.643482 0.158961 0.425478
O O7 0.645508 0.970871 0.379895
O O8 0.607742 0.787015 0.540232
O O9 0.630375 0.696156 0.679049
O O10 0.523193 0.867458 0.673981
O O11 0.695336 0.887082 0.649168
O O12 0.750000 0.685319 0.500000
O O13 0.663910 0.779494 0.381325
O O14 0.914813 0.500000 0.750000
O O15 0.865089 0.309648 0.689994
O O16 0.028082 0.357975 0.693796
O O17 0.808624 0.870092 0.765462
O O18 0.592389 0.500000 0.750000
#
# Coordination Sequence:
#
# PCOD9334165 Si02
#       8
#     8   8   8   8   8   8   8   8
#     4  10  20  36  59  83 113 152 188 236 293 343
#     4  11  22  36  54  83 117 153 193 234 288 352
#     4   9  20  35  53  83 112 138 192 251 293 340
#     4   9  18  34  57  86 113 140 187 248 299 345
#     4  10  20  38  59  84 114 151 192 228 284 358
#     4  10  22  36  54  83 119 147 185 238 281 344
#     4  10  20  37  57  79 109 150 197 245 293 343
#     4  11  19  33  56  84 113 147 184 238 300 346
#
# _framework density 21.069865
#
# number of rings (size 3 to 8) (size 9 to 14) (size 15 to 20)
#    0.000    2.000    0.000    5.250    0.000    4.500 
#    0.000   12.500    0.000    0.000    0.000    0.000 
#    0.000    0.000    0.000    0.000    0.000    0.000 
#
# Total GULP energy -178228.049333 kJ/mol
# GULP energy per Si atom -5569.626542 kJ/mol
# Density = 2.102191 g / cm^3
# Si number density = 21.069865 Si / 1000 Ang^3
#
#
#
# Elastic Constant Matrix: (Units=GPa)
#
#
# Indices 1 2 3 4 5 6 
#
# 1 27.2194 -0.1404 -6.4100 0.0000 0.0000 0.0000
# 2 -0.1404 75.4310 34.5680 0.0000 0.0000 0.0000
# 3 -6.4100 34.5680 67.2485 0.0000 0.0000 0.0000
# 4 0.0000 0.0000 0.0000 35.4011 0.0000 0.0000
# 5 0.0000 0.0000 0.0000 0.0000 13.7840 0.0000
# 6 0.0000 0.0000 0.0000 0.0000 0.0000 11.8819
#
#
#
# Elastic Compliance Matrix: (Units=1/GPa)
#
#
# Indices 1 2 3 4 5 6 
#
# 1 0.037827 -0.002069 0.004669 0.000000 0.000000 0.000000
# 2 -0.002069 0.017456 -0.009170 0.000000 0.000000 0.000000
# 3 0.004669 -0.009170 0.020029 0.000000 0.000000 0.000000
# 4 0.000000 0.000000 0.000000 0.028248 0.000000 0.000000
# 5 0.000000 0.000000 0.000000 0.000000 0.072548 0.000000
# 6 0.000000 0.000000 0.000000 0.000000 0.000000 0.084162
#
#
# Mechanical properties :
#
#
# Convention : Reuss Voigt Hill
#
# Bulk Modulus (GPa) = 16.08444 25.10379 20.59412
# Shear Modulus (GPa) = 16.99908 21.67216 19.33562
#
# Velocity S-wave (km/s) = 2.84350 3.21064 3.03263
# Velocity P-wave (km/s) = 4.29314 5.06800 4.69658
#
# Compressibility (1/GPa) = 0.06217188
#
# Stress axis : x y z
#
# Youngs Moduli (GPa) = 26.43587 57.28785 49.92747
#
# Poissons Ratio (x) = 0.11855 -0.23313
# Poissons Ratio (y) = 0.05471 0.45784
# Poissons Ratio (z) = -0.12344 0.52533
#
# Static dielectric constant tensor:
#      x y z
#    x 1.786540 0.000000 0.000000 
#    y 0.000000 1.829170 0.000000 
#    z 0.000000 0.000000 1.784580 
# 
# From -- ./inp_files/30889.got.cif
#   From: 2010.05.17/outbox.cif.g08.bks.cpg/sg24_16_cif.got.tgz:30889.got - 2010.06.04 00:33:39.
