data_PCOD9334760
_publ_section_title
;
Structure prediction by ZEFSAII (Michael W. Deem and Ramdas Pophale) SiO2 
 PCOD9334760
Probable space group: I 21 21 21
;
_chemical_formula_sum "Si O2"
_cell_formula_units_Z 56
_cell_length_a 9.784291
_cell_length_b 20.752650
_cell_length_c 14.351493
_cell_angle_alpha 90.000000
_cell_angle_beta 90.000000
_cell_angle_gamma 90.000000
_cell_volume 2914.070175
_symmetry_space_group_name_H-M "I 21 21 21"
_symmetry_group_IT_number 24
_symmetry_cell_setting 'orthorhombic'
loop_
_space_group_symop_operation_xyz
x,y,z
-x,1/2-y,z
x,-y,1/2-z
1/2-x,y,-z
1/2+x,1/2+y,1/2+z
1/2-x,-y,1/2+z
1/2+x,1/2-y,-z
-x,1/2+y,1/2-z
loop_
_atom_site_type_symbol
_atom_site_label
_atom_site_fract_x
_atom_site_fract_y
_atom_site_fract_z
Si Si1 0.748394 0.575553 0.751042
Si Si2 0.757427 0.009059 0.857732
Si Si3 0.616462 0.576741 0.049851
Si Si4 0.550129 0.437282 0.083131
Si Si5 0.355054 0.377546 0.562838
Si Si6 0.119261 0.633145 0.443360
Si Si7 0.008674 0.325840 0.252797
O O1 0.698345 0.500000 0.750000
O O2 0.850235 0.582171 0.840176
O O3 0.838991 0.583386 0.658573
O O4 0.626501 0.627854 0.754489
O O5 0.665846 0.062531 0.907629
O O6 0.912301 0.034994 0.867387
O O7 0.722714 0.000000 0.750000
O O8 0.726896 0.942159 0.907688
O O9 0.603147 0.500292 0.029247
O O10 0.750000 0.603435 0.000000
O O11 0.485263 0.608284 0.002503
O O12 0.503160 0.380548 0.014977
O O13 0.250000 0.337044 0.500000
O O14 0.400950 0.350190 0.661218
O O15 0.250000 0.660310 0.500000
O O16 0.075367 0.667759 0.349540
O O17 0.000000 0.250000 0.269236
#
# Coordination Sequence:
#
# PCOD9334760 Si02
#       7
#     8   8   8   8   8   8   8
#     4  10  24  40  68  99 135 174 219 280 347 406
#     4  11  18  33  65  97 136 167 213 272 332 394
#     4  11  20  35  61 101 140 164 217 269 338 404
#     4  10  21  35  60 107 133 164 211 278 339 395
#     4  12  23  40  68  96 134 182 218 277 343 402
#     4  10  22  39  64  93 130 169 221 273 330 397
#     4  12  28  48  64  93 134 180 234 279 332 399
#
# _framework density 19.217106999999999
#
# number of rings (size 3 to 8) (size 9 to 14) (size 15 to 20)
#    0.000    1.143    5.714    1.714    6.000    0.000 
#    5.143    0.000    0.000    3.429    0.000    0.000 
#    0.000    0.000    0.000    0.000    0.000    0.000 
#
# Total GULP energy -156200.866974 kJ/mol
# GULP energy per Si atom -5578.602392 kJ/mol
# Density = 1.917337 g / cm^3
# Si number density = 19.217107 Si / 1000 Ang^3
#
#
#
# Elastic Constant Matrix: (Units=GPa)
#
#
# Indices 1 2 3 4 5 6 
#
# 1 86.7737 13.8221 45.5442 0.0000 0.0000 0.0000
# 2 13.8221 46.9386 17.9037 0.0000 0.0000 0.0000
# 3 45.5442 17.9037 118.4070 0.0000 0.0000 0.0000
# 4 0.0000 0.0000 0.0000 -16.8386 0.0000 0.0000
# 5 0.0000 0.0000 0.0000 0.0000 43.7292 0.0000
# 6 0.0000 0.0000 0.0000 0.0000 0.0000 -5.7530
#
#
#
# Elastic Compliance Matrix: (Units=1/GPa)
#
#
# Indices 1 2 3 4 5 6 
#
# 1 0.014670 -0.002300 -0.005295 0.000000 0.000000 0.000000
# 2 -0.002300 0.022969 -0.002588 0.000000 0.000000 0.000000
# 3 -0.005295 -0.002588 0.010873 0.000000 0.000000 0.000000
# 4 0.000000 0.000000 0.000000 -0.059388 0.000000 0.000000
# 5 0.000000 0.000000 0.000000 0.000000 0.022868 0.000000
# 6 0.000000 0.000000 0.000000 0.000000 0.000000 -0.173822
#
#
# Mechanical properties :
#
#
# Convention : Reuss Voigt Hill
#
# Bulk Modulus (GPa) = 35.52958 45.18436 40.35697
# Shear Modulus (GPa) = -37.85553 15.88414 -10.98570
#
# Velocity S-wave (km/s) = -4.44316 2.87812 -2.39354
# Velocity P-wave (km/s) = 2.79169 5.88289 3.66161
#
# Compressibility (1/GPa) = 0.02814556
#
# Stress axis : x y z
#
# Youngs Moduli (GPa) = 68.16804 43.53690 91.96777
#
# Poissons Ratio (x) = 0.10015 0.48694
# Poissons Ratio (y) = 0.15680 0.23804
# Poissons Ratio (z) = 0.36093 0.11268
#
# Static dielectric constant tensor:
#      x y z
#    x 1.738840 0.000000 0.000000 
#    y 0.000000 1.643440 0.000000 
#    z 0.000000 0.000000 1.747500 
# 
# From -- ./inp_files/13187.got.cif
#   From: 2010.05.17/outbox.cif.g08.bks.cpg/sg24_7_cif.got.tgz:13187.got - 2010.06.04 00:33:39.
