data_PCOD9334275
_publ_section_title
;
Structure prediction by ZEFSAII (Michael W. Deem and Ramdas Pophale) SiO2 
 PCOD9334275
Probable space group: I 21 21 21
;
_chemical_formula_sum "Si O2"
_cell_formula_units_Z 40
_cell_length_a 9.036838
_cell_length_b 28.703226
_cell_length_c 7.900642
_cell_angle_alpha 90.000000
_cell_angle_beta 90.000000
_cell_angle_gamma 90.000000
_cell_volume 2049.319113
_symmetry_space_group_name_H-M "I 21 21 21"
_symmetry_group_IT_number 24
_symmetry_cell_setting 'orthorhombic'
loop_
_space_group_symop_operation_xyz
x,y,z
-x,1/2-y,z
x,-y,1/2-z
1/2-x,y,-z
1/2+x,1/2+y,1/2+z
1/2-x,-y,1/2+z
1/2+x,1/2-y,-z
-x,1/2+y,1/2-z
loop_
_atom_site_type_symbol
_atom_site_label
_atom_site_fract_x
_atom_site_fract_y
_atom_site_fract_z
Si Si1 0.581656 0.521697 0.441820
Si Si2 0.576321 0.422918 0.537468
Si Si3 0.059087 0.608056 0.381188
Si Si4 0.343282 0.631328 0.169890
Si Si5 0.413209 0.297704 0.070658
O O1 0.581925 0.500000 0.250000
O O2 0.750000 0.532743 0.500000
O O3 0.531332 0.476980 0.550459
O O4 0.482937 0.566089 0.491658
O O5 0.750000 0.421011 0.500000
O O6 0.539032 0.398896 0.713835
O O7 0.480656 0.400140 0.387453
O O8 0.228079 0.610130 0.308310
O O9 0.026129 0.658236 0.463470
O O10 0.398687 0.680119 0.243502
O O11 0.250000 0.637892 0.000000
O O12 0.500000 0.250000 0.062918
O O13 0.250000 0.288718 0.000000
#
# Coordination Sequence:
#
# PCOD9334275 Si02
#       5
#     8   8   8   8   8
#     4  11  21  35  58  88 121 157 203 251 296 353
#     4  10  20  37  61  91 123 158 200 244 291 348
#     4  10  21  39  60  84 120 158 196 245 301 357
#     4   9  20  41  61  84 120 154 193 247 301 358
#     4  10  22  40  61  85 114 151 197 247 299 354
#
# _framework density 19.518678000000001
#
# number of rings (size 3 to 8) (size 9 to 14) (size 15 to 20)
#    0.000    2.000    0.000    4.200    0.000    2.400 
#    0.000   33.000    0.000    1.200    0.000    0.000 
#    0.000    0.000    0.000    0.000    0.000    0.000 
#
# Total GULP energy -111604.695794 kJ/mol
# GULP energy per Si atom -5580.234790 kJ/mol
# Density = 1.947425 g / cm^3
# Si number density = 19.518678 Si / 1000 Ang^3
#
#
#
# Elastic Constant Matrix: (Units=GPa)
#
#
# Indices 1 2 3 4 5 6 
#
# 1 77.3088 100.8213 54.0495 0.0000 0.0001 0.0000
# 2 100.8213 194.1283 69.8185 0.0000 -0.0001 0.0000
# 3 54.0495 69.8185 127.7762 0.0000 0.0003 0.0004
# 4 0.0000 0.0000 0.0000 21.1812 -0.0001 0.0000
# 5 0.0001 -0.0001 0.0003 -0.0001 19.3642 0.0000
# 6 0.0000 0.0000 0.0004 0.0000 0.0000 40.4381
#
#
#
# Elastic Compliance Matrix: (Units=1/GPa)
#
#
# Indices 1 2 3 4 5 6 
#
# 1 0.045736 -0.020903 -0.007925 0.000000 0.000000 0.000000
# 2 -0.020903 0.015965 0.000119 0.000000 0.000000 0.000000
# 3 -0.007925 0.000119 0.011113 0.000000 0.000000 0.000000
# 4 0.000000 0.000000 0.000000 0.047212 0.000000 0.000000
# 5 0.000000 0.000000 0.000000 0.000000 0.051642 0.000000
# 6 0.000000 0.000000 0.000000 0.000000 0.000000 0.024729
#
#
# Mechanical properties :
#
#
# Convention : Reuss Voigt Hill
#
# Bulk Modulus (GPa) = 64.95154 94.28798 79.61976
# Shear Modulus (GPa) = 19.30900 27.83165 23.57032
#
# Velocity S-wave (km/s) = 3.14866 3.78020 3.47879
# Velocity P-wave (km/s) = 6.82404 8.21369 7.55090
#
# Compressibility (1/GPa) = 0.01539609
#
# Stress axis : x y z
#
# Youngs Moduli (GPa) = 21.86457 62.63855 89.98102
#
# Poissons Ratio (x) = 1.30934 0.71307
# Poissons Ratio (y) = 0.45704 -0.01069
# Poissons Ratio (z) = 0.17327 -0.00744
#
# Static dielectric constant tensor:
#      x y z
#    x 1.699650 0.000000 0.000000 
#    y 0.000000 1.650060 0.000000 
#    z 0.000000 0.000000 1.759250 
# 
# From -- ./inp_files/9285.got.cif
#   From: 2010.05.17/outbox.cif.g08.bks.cpg/sg24_5_cif.got.tgz:9285.got - 2010.06.04 00:33:39.
