data_PCOD9334379
_publ_section_title
;
Structure prediction by ZEFSAII (Michael W. Deem and Ramdas Pophale) SiO2 
 PCOD9334379
Probable space group: I 21 21 21
;
_chemical_formula_sum "Si O2"
_cell_formula_units_Z 60
_cell_length_a 10.670270
_cell_length_b 28.874965
_cell_length_c 9.235446
_cell_angle_alpha 90.000000
_cell_angle_beta 90.000000
_cell_angle_gamma 90.000000
_cell_volume 2845.474832
_symmetry_space_group_name_H-M "I 21 21 21"
_symmetry_group_IT_number 24
_symmetry_cell_setting 'orthorhombic'
loop_
_space_group_symop_operation_xyz
x,y,z
-x,1/2-y,z
x,-y,1/2-z
1/2-x,y,-z
1/2+x,1/2+y,1/2+z
1/2-x,-y,1/2+z
1/2+x,1/2-y,-z
-x,1/2+y,1/2-z
loop_
_atom_site_type_symbol
_atom_site_label
_atom_site_fract_x
_atom_site_fract_y
_atom_site_fract_z
Si Si1 0.819997 0.350435 0.641201
Si Si2 0.447567 0.417951 0.431988
Si Si3 0.230436 0.071633 0.159078
Si Si4 0.723779 0.163231 0.339805
Si Si5 0.557923 0.500000 0.250000
Si Si6 0.121444 0.639393 0.412935
Si Si7 0.045585 0.550715 0.261622
Si Si8 0.496589 0.197580 0.146870
O O1 0.750000 0.331499 0.500000
O O2 0.733858 0.387055 0.725668
O O3 0.936311 0.382935 0.592719
O O4 0.875851 0.314432 0.756279
O O5 0.331971 0.389137 0.363539
O O6 0.476258 0.466684 0.352881
O O7 0.441349 0.427523 0.602206
O O8 0.346042 0.035890 0.174362
O O9 0.099325 0.046609 0.188176
O O10 0.250000 0.091636 0.000000
O O11 0.750000 0.181425 0.500000
O O12 0.848001 0.162691 0.241564
O O13 0.615057 0.189912 0.254192
O O14 0.250000 0.644762 0.500000
O O15 0.016013 0.662515 0.512630
O O16 0.099866 0.585841 0.379239
O O17 0.103296 0.500000 0.250000
O O18 0.500000 0.250000 0.094075
#
# Coordination Sequence:
#
# PCOD9334379 Si02
#       8
#     8   8   8   8   4   8   8   8
#     4  10  20  38  63  88 129 170 203 263 332 404
#     4  10  21  37  59  89 124 170 221 265 324 389
#     4  11  21  34  56  88 130 173 210 258 338 395
#     4  10  20  42  69  89 123 178 216 271 339 392
#     4  10  22  34  56  88 134 170 212 276 328 370
#     4  10  23  45  66  88 134 180 215 277 342 386
#     4  12  22  36  61  94 128 169 232 272 316 395
#     4  10  23  43  68  98 130 165 219 277 343 416
#
# _framework density 21.086113000000001
#
# number of rings (size 3 to 8) (size 9 to 14) (size 15 to 20)
#    0.000    1.600    3.333    1.600    0.000    4.800 
#    3.600    6.667    0.000    0.000    0.000    0.000 
#    0.000    0.000    0.000    0.000    0.000    0.000 
#
# Total GULP energy -167468.957786 kJ/mol
# GULP energy per Si atom -5582.298593 kJ/mol
# Density = 2.103812 g / cm^3
# Si number density = 21.086113 Si / 1000 Ang^3
#
#
#
# Elastic Constant Matrix: (Units=GPa)
#
#
# Indices 1 2 3 4 5 6 
#
# 1 36.0829 -2.7504 20.3617 0.0000 0.0015 0.0007
# 2 -2.7504 70.3405 21.0704 0.0004 0.0001 0.0001
# 3 20.3617 21.0704 115.7463 0.0007 0.0023 0.0020
# 4 0.0000 0.0004 0.0007 17.8171 -0.0003 0.0002
# 5 0.0015 0.0001 0.0023 -0.0003 20.6604 0.0005
# 6 0.0007 0.0001 0.0020 0.0002 0.0005 9.2946
#
#
#
# Elastic Compliance Matrix: (Units=1/GPa)
#
#
# Indices 1 2 3 4 5 6 
#
# 1 0.031374 0.003046 -0.006074 0.000000 -0.000002 -0.000001
# 2 0.003046 0.015332 -0.003327 0.000000 0.000000 0.000000
# 3 -0.006074 -0.003327 0.010314 0.000000 -0.000001 -0.000002
# 4 0.000000 0.000000 0.000000 0.056126 0.000001 -0.000001
# 5 -0.000002 0.000000 -0.000001 0.000001 0.048402 -0.000003
# 6 -0.000001 0.000000 -0.000002 -0.000001 -0.000003 0.107589
#
#
# Mechanical properties :
#
#
# Convention : Reuss Voigt Hill
#
# Bulk Modulus (GPa) = 22.56804 33.28147 27.92475
# Shear Modulus (GPa) = 16.85686 21.78697 19.32191
#
# Velocity S-wave (km/s) = 2.83049 3.21789 3.03038
# Velocity P-wave (km/s) = 4.62690 5.44282 5.05136
#
# Compressibility (1/GPa) = 0.04431046
#
# Stress axis : x y z
#
# Youngs Moduli (GPa) = 31.87401 65.22207 96.95875
#
# Poissons Ratio (x) = -0.19867 0.58889
# Poissons Ratio (y) = -0.09709 0.32257
# Poissons Ratio (z) = 0.19359 0.21699
#
# Static dielectric constant tensor:
#      x y z
#    x 1.799590 0.000000 0.000000 
#    y 0.000000 1.746790 0.000000 
#    z 0.000000 0.000000 1.774810 
# 
# From -- ./inp_files/11545.got.cif
#   From: 2010.05.17/outbox.cif.g08.bks.cpg/sg24_6_cif.got.tgz:11545.got - 2010.06.04 00:33:39.
