data_PCOD9334894
_publ_section_title
;
Structure prediction by ZEFSAII (Michael W. Deem and Ramdas Pophale) SiO2 
 PCOD9334894
Probable space group: I 21 21 21
;
_chemical_formula_sum "Si O2"
_cell_formula_units_Z 40
_cell_length_a 5.623728
_cell_length_b 23.595020
_cell_length_c 13.402608
_cell_angle_alpha 90.000000
_cell_angle_beta 90.000000
_cell_angle_gamma 90.000000
_cell_volume 1778.418521
_symmetry_space_group_name_H-M "I 21 21 21"
_symmetry_group_IT_number 24
_symmetry_cell_setting 'orthorhombic'
loop_
_space_group_symop_operation_xyz
x,y,z
-x,1/2-y,z
x,-y,1/2-z
1/2-x,y,-z
1/2+x,1/2+y,1/2+z
1/2-x,-y,1/2+z
1/2+x,1/2-y,-z
-x,1/2+y,1/2-z
loop_
_atom_site_type_symbol
_atom_site_label
_atom_site_fract_x
_atom_site_fract_y
_atom_site_fract_z
Si Si1 0.136600 0.827751 0.712992
Si Si2 0.884993 0.050939 0.329066
Si Si3 0.615575 0.447894 0.327760
Si Si4 0.750000 0.783126 0.000000
Si Si5 0.250000 0.785544 0.500000
Si Si6 0.635734 0.176574 0.715138
O O1 0.114394 0.889597 0.763877
O O2 0.208766 0.823473 0.598002
O O3 0.367564 0.800620 0.768504
O O4 0.868496 0.803258 0.724440
O O5 0.633803 0.049184 0.384620
O O6 0.887442 0.109306 0.265879
O O7 0.135456 0.050226 0.385360
O O8 0.885519 0.000000 0.250000
O O9 0.617126 0.500000 0.250000
O O10 0.500000 0.750000 0.016640
O O11 0.796990 0.817838 0.099698
O O12 0.500000 0.750000 0.512831
#
# Coordination Sequence:
#
# PCOD9334894 Si02
#       6
#     8   8   8   4   4   8
#     4  10  21  38  60  83 115 153 191 239 292 340
#     4   8  14  27  51  78 105 141 178 220 279 336
#     4   8  14  27  51  78 105 141 178 220 279 336
#     4  12  26  40  58  86 116 152 202 244 282 342
#     4  12  26  40  58  86 116 152 202 244 282 342
#     4  10  21  38  60  83 115 153 191 239 292 340
#
# _framework density 22.491895
#
# number of rings (size 3 to 8) (size 9 to 14) (size 15 to 20)
#    0.000    2.400    0.000    2.400    0.000    4.800 
#    0.000    0.000    0.000   38.400    0.000    0.000 
#    0.000    0.000    0.000    0.000    0.000    0.000 
#
# Total GULP energy -111388.391748 kJ/mol
# GULP energy per Si atom -5569.419587 kJ/mol
# Density = 2.244070 g / cm^3
# Si number density = 22.491895 Si / 1000 Ang^3
#
#
#
# Elastic Constant Matrix: (Units=GPa)
#
#
# Indices 1 2 3 4 5 6 
#
# 1 290.0013 32.3387 29.6630 0.0000 0.0000 0.0000
# 2 32.3387 89.9982 11.0790 0.0000 0.0000 0.0000
# 3 29.6630 11.0790 99.6926 0.0001 0.0000 0.0000
# 4 0.0000 0.0000 0.0001 -13.5192 0.0000 0.0000
# 5 0.0000 0.0000 0.0000 0.0000 35.5407 0.0000
# 6 0.0000 0.0000 0.0000 0.0000 0.0000 30.7689
#
#
#
# Elastic Compliance Matrix: (Units=1/GPa)
#
#
# Indices 1 2 3 4 5 6 
#
# 1 0.003681 -0.001204 -0.000961 0.000000 0.000000 0.000000
# 2 -0.001204 0.011659 -0.000937 0.000000 0.000000 0.000000
# 3 -0.000961 -0.000937 0.010421 0.000000 0.000000 0.000000
# 4 0.000000 0.000000 0.000000 -0.073969 0.000000 0.000000
# 5 0.000000 0.000000 0.000000 0.000000 0.028137 0.000000
# 6 0.000000 0.000000 0.000000 0.000000 0.000000 0.032500
#
#
# Mechanical properties :
#
#
# Convention : Reuss Voigt Hill
#
# Bulk Modulus (GPa) = 51.13719 69.53929 60.33824
# Shear Modulus (GPa) = 198.77140 37.66550 118.21845
#
# Velocity S-wave (km/s) = 9.41098 4.09666 7.25772
# Velocity P-wave (km/s) = 11.86903 7.30489 9.85483
#
# Compressibility (1/GPa) = 0.01955524
#
# Stress axis : x y z
#
# Youngs Moduli (GPa) = 271.67341 85.76723 95.95949
#
# Poissons Ratio (x) = 0.10329 0.09225
# Poissons Ratio (y) = 0.32717 0.08995
# Poissons Ratio (z) = 0.26119 0.08040
#
# Static dielectric constant tensor:
#      x y z
#    x 1.995490 0.000000 0.000000 
#    y 0.000000 1.876120 0.000000 
#    z 0.000000 0.000000 1.719880 
# 
# From -- ./inp_files/6914.got.cif
#   From: 2010.05.17/outbox.cif.g08.bks.cpg/sg24_4_cif.got.tgz:6914.got - 2010.06.04 00:33:39.
