data_PCOD9334426
_publ_section_title
;
Structure prediction by ZEFSAII (Michael W. Deem and Ramdas Pophale) SiO2 
 PCOD9334426
Probable space group: I 21 21 21
;
_chemical_formula_sum "Si O2"
_cell_formula_units_Z 60
_cell_length_a 12.482931
_cell_length_b 7.427812
_cell_length_c 27.476730
_cell_angle_alpha 90.000000
_cell_angle_beta 90.000000
_cell_angle_gamma 90.000000
_cell_volume 2547.666164
_symmetry_space_group_name_H-M "I 21 21 21"
_symmetry_group_IT_number 24
_symmetry_cell_setting 'orthorhombic'
loop_
_space_group_symop_operation_xyz
x,y,z
-x,1/2-y,z
x,-y,1/2-z
1/2-x,y,-z
1/2+x,1/2+y,1/2+z
1/2-x,-y,1/2+z
1/2+x,1/2-y,-z
-x,1/2+y,1/2-z
loop_
_atom_site_type_symbol
_atom_site_label
_atom_site_fract_x
_atom_site_fract_y
_atom_site_fract_z
Si Si1 0.032299 0.928927 0.868177
Si Si2 0.119211 0.784173 0.194235
Si Si3 0.500000 0.750000 0.510989
Si Si4 0.161024 0.215679 0.198463
Si Si5 0.347364 0.419381 0.066788
Si Si6 0.333020 0.855177 0.590499
Si Si7 0.243977 0.243507 0.603844
Si Si8 0.111512 0.163860 0.785201
O O1 0.123384 0.839181 0.901425
O O2 0.000000 0.750000 0.838075
O O3 0.091857 0.072364 0.836567
O O4 0.929957 0.024959 0.890618
O O5 0.112643 0.716078 0.250496
O O6 0.212322 0.704400 0.158539
O O7 0.000000 0.750000 0.173244
O O8 0.145887 0.997269 0.198600
O O9 0.428261 0.617562 0.477563
O O10 0.415860 0.837821 0.547211
O O11 0.132262 0.244396 0.141507
O O12 0.283428 0.278811 0.206743
O O13 0.277943 0.241750 0.075595
O O14 0.261606 0.583960 0.068697
O O15 0.315919 0.068791 0.595218
O O16 0.000000 0.250000 0.770495
O O17 0.139233 0.000000 0.750000
#
# Coordination Sequence:
#
# PCOD9334426 Si02
#       8
#     8   8   4   8   8   8   8   8
#     4  10  20  38  66  96 133 181 226 299 372 428
#     4  10  20  39  69 101 146 196 240 297 361 450
#     4  12  28  46  74 104 148 192 250 322 386 444
#     4  10  21  42  67  97 146 188 241 305 367 447
#     4  11  25  46  71 105 139 189 250 306 377 456
#     4  11  24  48  74 102 144 192 243 314 381 448
#     4  10  22  45  74 103 146 190 241 308 373 449
#     4  12  21  35  63  98 143 185 227 288 358 446
#
# _framework density 23.550965999999999
#
# number of rings (size 3 to 8) (size 9 to 14) (size 15 to 20)
#    0.000    1.333    4.000    2.400    1.867    3.200 
#    2.400   12.000    0.000    0.000    0.000    0.000 
#    0.000    0.000    0.000    0.000    0.000    0.000 
#
# Total GULP energy -167135.519935 kJ/mol
# GULP energy per Si atom -5571.183998 kJ/mol
# Density = 2.349736 g / cm^3
# Si number density = 23.550966 Si / 1000 Ang^3
#
#
#
# Elastic Constant Matrix: (Units=GPa)
#
#
# Indices 1 2 3 4 5 6 
#
# 1 117.1650 23.9905 43.7385 0.0000 0.0000 0.0000
# 2 23.9905 82.0844 48.1268 0.0000 0.0000 0.0000
# 3 43.7385 48.1268 100.9310 0.0000 0.0000 0.0000
# 4 0.0000 0.0000 0.0000 9.6126 0.0000 0.0000
# 5 0.0000 0.0000 0.0000 0.0000 38.2049 0.0000
# 6 0.0000 0.0000 0.0000 0.0000 0.0000 15.9938
#
#
#
# Elastic Compliance Matrix: (Units=1/GPa)
#
#
# Indices 1 2 3 4 5 6 
#
# 1 0.010199 -0.000541 -0.004162 0.000000 0.000000 0.000000
# 2 -0.000541 0.016939 -0.007843 0.000000 0.000000 0.000000
# 3 -0.004162 -0.007843 0.015451 0.000000 0.000000 0.000000
# 4 0.000000 0.000000 0.000000 0.104030 0.000000 0.000000
# 5 0.000000 0.000000 0.000000 0.000000 0.026175 0.000000
# 6 0.000000 0.000000 0.000000 0.000000 0.000000 0.062524
#
#
# Mechanical properties :
#
#
# Convention : Reuss Voigt Hill
#
# Bulk Modulus (GPa) = 57.14797 59.09911 58.12354
# Shear Modulus (GPa) = 18.77993 25.05056 21.91525
#
# Velocity S-wave (km/s) = 2.82692 3.26494 3.05379
# Velocity P-wave (km/s) = 5.91385 6.27389 6.09653
#
# Compressibility (1/GPa) = 0.01749843
#
# Stress axis : x y z
#
# Youngs Moduli (GPa) = 98.04467 59.03611 64.72070
#
# Poissons Ratio (x) = 0.03192 0.26938
# Poissons Ratio (y) = 0.05301 0.50758
# Poissons Ratio (z) = 0.40808 0.46300
#
# Static dielectric constant tensor:
#      x y z
#    x 1.852980 0.000000 0.000000 
#    y 0.000000 1.989570 0.000000 
#    z 0.000000 0.000000 1.943030 
# 
# From -- ./inp_files/37214.got.cif
#   From: 2010.05.17/outbox.cif.g08.bks.cpg/sg24_19_cif.got.tgz:37214.got - 2010.06.04 00:33:39.
