data_PCOD9334501
_publ_section_title
;
Structure prediction by ZEFSAII (Michael W. Deem and Ramdas Pophale) SiO2 
 PCOD9334501
Probable space group: I 21 21 21
;
_chemical_formula_sum "Si O2"
_cell_formula_units_Z 40
_cell_length_a 28.495781
_cell_length_b 7.819694
_cell_length_c 8.517178
_cell_angle_alpha 90.000000
_cell_angle_beta 90.000000
_cell_angle_gamma 90.000000
_cell_volume 1897.868190
_symmetry_space_group_name_H-M "I 21 21 21"
_symmetry_group_IT_number 24
_symmetry_cell_setting 'orthorhombic'
loop_
_space_group_symop_operation_xyz
x,y,z
-x,1/2-y,z
x,-y,1/2-z
1/2-x,y,-z
1/2+x,1/2+y,1/2+z
1/2-x,-y,1/2+z
1/2+x,1/2-y,-z
-x,1/2+y,1/2-z
loop_
_atom_site_type_symbol
_atom_site_label
_atom_site_fract_x
_atom_site_fract_y
_atom_site_fract_z
Si Si1 0.961617 0.620586 0.883448
Si Si2 0.871243 0.807235 0.546552
Si Si3 0.197315 0.998789 0.560958
Si Si4 0.458575 0.137014 0.870502
Si Si5 0.371007 0.303800 0.429466
O O1 0.939339 0.500000 0.750000
O O2 0.921912 0.728604 0.970474
O O3 0.000000 0.750000 0.817994
O O4 0.983846 0.483544 0.000241
O O5 0.830650 0.670779 0.507014
O O6 0.918224 0.742205 0.459659
O O7 0.873962 0.806579 0.737733
O O8 0.862570 0.006006 0.508024
O O9 0.250000 0.002304 0.500000
O O10 0.167719 0.167737 0.516911
O O11 0.198245 0.000000 0.750000
O O12 0.500000 0.250000 0.798034
O O13 0.437702 0.000000 0.750000
#
# Coordination Sequence:
#
# PCOD9334501 Si02
#       5
#     8   8   8   8   8
#     4  12  22  36  62  94 128 170 224 272 320 381
#     4  10  21  39  66  93 126 168 220 275 323 380
#     4  10  21  41  66  95 130 165 208 274 336 394
#     4  12  25  42  59  89 138 183 219 266 332 393
#     4  10  20  39  65  97 126 159 222 283 320 377
#
# _framework density 21.076281000000002
#
# number of rings (size 3 to 8) (size 9 to 14) (size 15 to 20)
#    0.000    1.200    4.000    3.000    2.800    1.600 
#    0.000    0.000    0.000    0.000    0.000    0.000 
#    0.000    0.000    0.000    0.000    0.000    0.000 
#
# Total GULP energy -111658.276835 kJ/mol
# GULP energy per Si atom -5582.913842 kJ/mol
# Density = 2.102831 g / cm^3
# Si number density = 21.076281 Si / 1000 Ang^3
#
#
#
# Elastic Constant Matrix: (Units=GPa)
#
#
# Indices 1 2 3 4 5 6 
#
# 1 156.6019 102.3347 9.2594 0.0000 0.0000 0.0000
# 2 102.3347 218.8751 30.8846 0.0000 0.0000 0.0000
# 3 9.2594 30.8846 20.6307 0.0000 0.0000 0.0000
# 4 0.0000 0.0000 0.0000 25.6583 0.0000 0.0000
# 5 0.0000 0.0000 0.0000 0.0000 30.7135 0.0000
# 6 0.0000 0.0000 0.0000 0.0000 0.0000 29.4336
#
#
#
# Elastic Compliance Matrix: (Units=1/GPa)
#
#
# Indices 1 2 3 4 5 6 
#
# 1 0.009337 -0.004785 0.002972 0.000000 0.000000 0.000000
# 2 -0.004785 0.008244 -0.010195 0.000000 0.000000 0.000000
# 3 0.002972 -0.010195 0.062399 0.000000 0.000000 0.000000
# 4 0.000000 0.000000 0.000000 0.038974 0.000000 0.000000
# 5 0.000000 0.000000 0.000000 0.000000 0.032559 0.000000
# 6 0.000000 0.000000 0.000000 0.000000 0.000000 0.033975
#
#
# Mechanical properties :
#
#
# Convention : Reuss Voigt Hill
#
# Bulk Modulus (GPa) = 17.86796 75.67390 46.77093
# Shear Modulus (GPa) = 21.91478 34.06968 27.99223
#
# Velocity S-wave (km/s) = 3.22807 4.02493 3.64832
# Velocity P-wave (km/s) = 4.73181 7.58833 6.32348
#
# Compressibility (1/GPa) = 0.05596609
#
# Stress axis : x y z
#
# Youngs Moduli (GPa) = 107.10621 121.29428 16.02591
#
# Poissons Ratio (x) = 0.58036 -0.04764
# Poissons Ratio (y) = 0.51247 0.16338
# Poissons Ratio (z) = -0.31836 1.23655
#
# Static dielectric constant tensor:
#      x y z
#    x 1.689900 0.000000 0.000000 
#    y 0.000000 1.776670 0.000000 
#    z 0.000000 0.000000 1.843340 
# 
# From -- ./inp_files/9486.got.cif
#   From: 2010.05.17/outbox.cif.g08.bks.cpg/sg24_5_cif.got.tgz:9486.got - 2010.06.04 00:33:39.
