data_PCOD9334729
_publ_section_title
;
Structure prediction by ZEFSAII (Michael W. Deem and Ramdas Pophale) SiO2 
 PCOD9334729
Probable space group: I 21 21 21
;
_chemical_formula_sum "Si O2"
_cell_formula_units_Z 40
_cell_length_a 5.175514
_cell_length_b 16.142053
_cell_length_c 18.087724
_cell_angle_alpha 90.000000
_cell_angle_beta 90.000000
_cell_angle_gamma 90.000000
_cell_volume 1511.110346
_symmetry_space_group_name_H-M "I 21 21 21"
_symmetry_group_IT_number 24
_symmetry_cell_setting 'orthorhombic'
loop_
_space_group_symop_operation_xyz
x,y,z
-x,1/2-y,z
x,-y,1/2-z
1/2-x,y,-z
1/2+x,1/2+y,1/2+z
1/2-x,-y,1/2+z
1/2+x,1/2-y,-z
-x,1/2+y,1/2-z
loop_
_atom_site_type_symbol
_atom_site_label
_atom_site_fract_x
_atom_site_fract_y
_atom_site_fract_z
Si Si1 0.559077 0.939553 0.328652
Si Si2 0.050912 0.989321 0.406297
Si Si3 0.440058 0.661708 0.912033
Si Si4 0.940472 0.660536 0.813114
Si Si5 0.166166 0.681710 0.423487
O O1 0.487102 0.910740 0.246920
O O2 0.606030 0.854193 0.374191
O O3 0.332529 0.985999 0.371711
O O4 0.834752 0.984188 0.341017
O O5 0.997735 0.073680 0.450373
O O6 0.992525 0.902068 0.445206
O O7 0.500000 0.750000 0.950264
O O8 0.650635 0.660338 0.845106
O O9 0.151793 0.658722 0.879362
O O10 0.000000 0.750000 0.777724
O O11 0.250000 0.720951 0.500000
O O12 0.000000 0.750000 0.381248
#
# Coordination Sequence:
#
# PCOD9334729 Si02
#       5
#     8   8   8   8   8
#     4  10  23  36  58  86 120 156 197 249 299 348
#     4  10  23  38  58  87 117 154 203 250 292 364
#     4  10  21  38  57  86 118 163 195 240 301 356
#     4  10  21  33  57  84 121 157 201 239 291 366
#     4  10  26  40  64  87 118 159 201 248 309 364
#
# _framework density 26.470600999999998
#
# number of rings (size 3 to 8) (size 9 to 14) (size 15 to 20)
#    1.200    0.800    0.000    2.400    5.600    5.600 
#    0.000    0.000    0.000    0.000    5.200    0.000 
#    0.000    0.000    0.000    0.000    0.000    0.000 
#
# Total GULP energy -111822.150530 kJ/mol
# GULP energy per Si atom -5591.107527 kJ/mol
# Density = 2.641035 g / cm^3
# Si number density = 26.470601 Si / 1000 Ang^3
#
#
#
# Elastic Constant Matrix: (Units=GPa)
#
#
# Indices 1 2 3 4 5 6 
#
# 1 161.7949 22.9929 39.0195 0.0000 0.0000 0.0000
# 2 22.9929 178.8291 -0.7091 0.0000 0.0000 0.0000
# 3 39.0195 -0.7091 63.0817 0.0000 0.0000 0.0000
# 4 0.0000 0.0000 0.0000 -74.4815 0.0000 0.0000
# 5 0.0000 0.0000 0.0000 0.0000 36.1716 0.0000
# 6 0.0000 0.0000 0.0000 0.0000 0.0000 49.5212
#
#
#
# Elastic Compliance Matrix: (Units=1/GPa)
#
#
# Indices 1 2 3 4 5 6 
#
# 1 0.007430 -0.000974 -0.004607 0.000000 0.000000 0.000000
# 2 -0.000974 0.005720 0.000667 0.000000 0.000000 0.000000
# 3 -0.004607 0.000667 0.018710 0.000000 0.000000 0.000000
# 4 0.000000 0.000000 0.000000 -0.013426 0.000000 0.000000
# 5 0.000000 0.000000 0.000000 0.000000 0.027646 0.000000
# 6 0.000000 0.000000 0.000000 0.000000 0.000000 0.020193
#
#
# Mechanical properties :
#
#
# Convention : Reuss Voigt Hill
#
# Bulk Modulus (GPa) = 45.38954 58.47916 51.93435
# Shear Modulus (GPa) = 59.92027 25.06907 42.49467
#
# Velocity S-wave (km/s) = 4.76295 3.08076 4.01103
# Velocity P-wave (km/s) = 6.88709 5.89872 6.41197
#
# Compressibility (1/GPa) = 0.02203151
#
# Stress axis : x y z
#
# Youngs Moduli (GPa) = 134.58883 174.83275 53.44870
#
# Poissons Ratio (x) = 0.17021 0.24623
# Poissons Ratio (y) = 0.13103 -0.03562
# Poissons Ratio (z) = 0.62003 -0.11653
#
# Static dielectric constant tensor:
#      x y z
#    x 2.077830 0.000000 0.000000 
#    y 0.000000 2.198190 0.000000 
#    z 0.000000 0.000000 1.997150 
# 
# From -- ./inp_files/6886.got.cif
#   From: 2010.05.17/outbox.cif.g08.bks.cpg/sg24_4_cif.got.tgz:6886.got - 2010.06.04 00:33:39.
