data_PCOD9334400
_publ_section_title
;
Structure prediction by ZEFSAII (Michael W. Deem and Ramdas Pophale) SiO2 
 PCOD9334400
Probable space group: I 21 21 21
;
_chemical_formula_sum "Si O2"
_cell_formula_units_Z 32
_cell_length_a 29.451394
_cell_length_b 9.241072
_cell_length_c 5.009127
_cell_angle_alpha 90.000000
_cell_angle_beta 90.000000
_cell_angle_gamma 90.000000
_cell_volume 1363.296289
_symmetry_space_group_name_H-M "I 21 21 21"
_symmetry_group_IT_number 24
_symmetry_cell_setting 'orthorhombic'
loop_
_space_group_symop_operation_xyz
x,y,z
-x,1/2-y,z
x,-y,1/2-z
1/2-x,y,-z
1/2+x,1/2+y,1/2+z
1/2-x,-y,1/2+z
1/2+x,1/2-y,-z
-x,1/2+y,1/2-z
loop_
_atom_site_type_symbol
_atom_site_label
_atom_site_fract_x
_atom_site_fract_y
_atom_site_fract_z
Si Si1 0.848927 0.362313 0.562280
Si Si2 0.301243 0.500000 0.750000
Si Si3 0.475938 0.596446 0.515204
Si Si4 0.750000 0.253726 0.500000
Si Si5 0.624811 0.808686 0.539011
O O1 0.860138 0.500000 0.750000
O O2 0.794123 0.344119 0.579961
O O3 0.861285 0.319608 0.254179
O O4 0.874403 0.242216 0.735014
O O5 0.269497 0.362351 0.707908
O O6 0.337445 0.565699 0.544826
O O7 0.500000 0.750000 0.471507
O O8 0.497953 0.500000 0.750000
O O9 0.424920 0.636206 0.603904
O O10 0.475552 0.500000 0.250000
#
# Coordination Sequence:
#
# PCOD9334400 Si02
#       5
#     8   4   8   4   8
#     4  11  25  42  64  98 141 188 238 288 357 424
#     4  10  20  38  64  96 128 178 240 288 338 410
#     4  12  27  49  78 112 148 189 241 307 376 447
#     4  10  22  36  64  96 134 184 234 304 340 414
#     4  11  24  43  71  96 134 187 233 295 353 429
#
# _framework density 23.472522999999999
#
# number of rings (size 3 to 8) (size 9 to 14) (size 15 to 20)
#    0.000    1.000    1.250    4.500    3.500   10.000 
#    0.000    0.000    0.000    0.000    0.000    0.000 
#    0.000    0.000    0.000    0.000    0.000    0.000 
#
# Total GULP energy -89198.937203 kJ/mol
# GULP energy per Si atom -5574.933575 kJ/mol
# Density = 2.341910 g / cm^3
# Si number density = 23.472523 Si / 1000 Ang^3
#
#
#
# Elastic Constant Matrix: (Units=GPa)
#
#
# Indices 1 2 3 4 5 6 
#
# 1 86.9859 29.5615 15.4593 0.0002 -0.0004 0.0001
# 2 29.5615 89.8162 44.5807 0.0015 -0.0005 0.0010
# 3 15.4593 44.5807 118.5511 -0.0001 -0.0011 0.0003
# 4 0.0002 0.0015 -0.0001 44.0477 -0.0005 0.0013
# 5 -0.0004 -0.0005 -0.0011 -0.0005 16.3154 -0.0001
# 6 0.0001 0.0010 0.0003 0.0013 -0.0001 -6.8932
#
#
#
# Elastic Compliance Matrix: (Units=1/GPa)
#
#
# Indices 1 2 3 4 5 6 
#
# 1 0.012945 -0.004208 -0.000106 0.000000 0.000000 0.000000
# 2 -0.004208 0.015057 -0.005113 -0.000001 0.000000 0.000002
# 3 -0.000106 -0.005113 0.010372 0.000000 0.000001 0.000000
# 4 0.000000 -0.000001 0.000000 0.022703 0.000001 0.000004
# 5 0.000000 0.000000 0.000001 0.000001 0.061292 -0.000001
# 6 0.000000 0.000002 0.000000 0.000004 -0.000001 -0.145071
#
#
# Mechanical properties :
#
#
# Convention : Reuss Voigt Hill
#
# Bulk Modulus (GPa) = 51.23088 52.72845 51.97966
# Shear Modulus (GPa) = 1881.31649 24.41077 952.86363
#
# Velocity S-wave (km/s) = 28.34144 3.22836 20.17002
# Velocity P-wave (km/s) = 33.05838 6.03399 23.76200
#
# Compressibility (1/GPa) = 0.01951948
#
# Stress axis : x y z
#
# Youngs Moduli (GPa) = 77.24982 66.41451 96.41530
#
# Poissons Ratio (x) = 0.27949 0.01018
# Poissons Ratio (y) = 0.32509 0.49300
# Poissons Ratio (z) = 0.00815 0.33960
#
# Static dielectric constant tensor:
#      x y z
#    x 1.861370 0.000000 0.000000 
#    y 0.000000 1.960520 0.000000 
#    z 0.000000 0.000000 1.913360 
# 
# From -- ./inp_files/7483.got.cif
#   From: 2010.05.17/outbox.cif.g08.bks.cpg/sg24_4_cif.got.tgz:7483.got - 2010.06.04 00:33:39.
