data_PCOD9334657
_publ_section_title
;
Structure prediction by ZEFSAII (Michael W. Deem and Ramdas Pophale) SiO2 
 PCOD9334657
Probable space group: I 21 21 21
;
_chemical_formula_sum "Si O2"
_cell_formula_units_Z 56
_cell_length_a 12.436706
_cell_length_b 11.193719
_cell_length_c 20.330628
_cell_angle_alpha 90.000000
_cell_angle_beta 90.000000
_cell_angle_gamma 90.000000
_cell_volume 2830.287558
_symmetry_space_group_name_H-M "I 21 21 21"
_symmetry_group_IT_number 24
_symmetry_cell_setting 'orthorhombic'
loop_
_space_group_symop_operation_xyz
x,y,z
-x,1/2-y,z
x,-y,1/2-z
1/2-x,y,-z
1/2+x,1/2+y,1/2+z
1/2-x,-y,1/2+z
1/2+x,1/2-y,-z
-x,1/2+y,1/2-z
loop_
_atom_site_type_symbol
_atom_site_label
_atom_site_fract_x
_atom_site_fract_y
_atom_site_fract_z
Si Si1 0.394168 0.622994 0.316279
Si Si2 0.330012 0.362662 0.333925
Si Si3 0.613984 0.266392 0.672230
Si Si4 0.374597 0.876831 0.368718
Si Si5 0.633471 0.537427 0.645616
Si Si6 0.000000 0.250000 0.204998
Si Si7 0.875183 0.464990 0.502919
Si Si8 0.500000 0.750000 0.066535
O O1 0.326633 0.506277 0.334893
O O2 0.366435 0.663143 0.241779
O O3 0.372980 0.733458 0.364620
O O4 0.520989 0.589727 0.324564
O O5 0.219683 0.296785 0.352923
O O6 0.416563 0.314910 0.385101
O O7 0.500000 0.250000 0.635294
O O8 0.626633 0.408369 0.680240
O O9 0.591402 0.207628 0.743535
O O10 0.257361 0.921513 0.346355
O O11 0.390332 0.934942 0.440526
O O12 0.551905 0.639617 0.668143
O O13 0.604756 0.513834 0.569534
O O14 0.750000 0.429338 0.500000
O O15 0.943505 0.350984 0.523310
#
# Coordination Sequence:
#
# PCOD9334657 Si02
#       8
#     8   8   8   8   8   4   8   4
#     4  10  22  36  65 100 139 169 210 284 332 398
#     4  11  22  40  63 104 132 171 215 276 335 397
#     4  10  25  42  65  96 134 172 215 277 331 400
#     4  10  20  42  60  96 133 172 221 267 342 386
#     4  11  23  44  67  91 127 183 223 276 325 409
#     4  10  24  41  64  99 118 180 220 268 336 396
#     4  10  23  41  68  92 131 176 224 275 324 403
#     4  12  22  41  70  97 128 172 224 274 342 382
#
# _framework density 19.785975000000001
#
# number of rings (size 3 to 8) (size 9 to 14) (size 15 to 20)
#    0.429    1.143    1.429    3.857    1.000    4.571 
#    2.571    0.000    0.000    0.000    0.000    0.000 
#    0.000    0.000    0.000    0.000    0.000    0.000 
#
# Total GULP energy -156191.350191 kJ/mol
# GULP energy per Si atom -5578.262507 kJ/mol
# Density = 1.974094 g / cm^3
# Si number density = 19.785975 Si / 1000 Ang^3
#
#
#
# Elastic Constant Matrix: (Units=GPa)
#
#
# Indices 1 2 3 4 5 6 
#
# 1 107.5413 61.3825 46.8467 0.0000 0.0000 0.0000
# 2 61.3825 128.1537 34.3386 0.0000 0.0000 0.0000
# 3 46.8467 34.3386 69.0108 0.0000 0.0000 0.0000
# 4 0.0000 0.0000 0.0000 16.9205 0.0000 0.0000
# 5 0.0000 0.0000 0.0000 0.0000 4.6849 0.0000
# 6 0.0000 0.0000 0.0000 0.0000 0.0000 36.7374
#
#
#
# Elastic Compliance Matrix: (Units=1/GPa)
#
#
# Indices 1 2 3 4 5 6 
#
# 1 0.015952 -0.005468 -0.008108 0.000000 0.000000 0.000000
# 2 -0.005468 0.010878 -0.001701 0.000000 0.000000 0.000000
# 3 -0.008108 -0.001701 0.020841 0.000000 0.000000 0.000000
# 4 0.000000 0.000000 0.000000 0.059100 0.000000 0.000000
# 5 0.000000 0.000000 0.000000 0.000000 0.213453 0.000000
# 6 0.000000 0.000000 0.000000 0.000000 0.000000 0.027220
#
#
# Mechanical properties :
#
#
# Convention : Reuss Voigt Hill
#
# Bulk Modulus (GPa) = 58.42119 65.53794 61.97957
# Shear Modulus (GPa) = 13.03094 22.47775 17.75435
#
# Velocity S-wave (km/s) = 2.56909 3.37418 2.99878
# Velocity P-wave (km/s) = 6.19605 6.95525 6.58660
#
# Compressibility (1/GPa) = 0.01711708
#
# Stress axis : x y z
#
# Youngs Moduli (GPa) = 62.68957 91.92948 47.98344
#
# Poissons Ratio (x) = 0.50267 0.38903
# Poissons Ratio (y) = 0.34279 0.08161
# Poissons Ratio (z) = 0.50827 0.15635
#
# Static dielectric constant tensor:
#      x y z
#    x 1.729470 0.000000 0.000000 
#    y 0.000000 1.688480 0.000000 
#    z 0.000000 0.000000 1.713950 
# 
# From -- ./inp_files/33398.got.cif
#   From: 2010.05.17/outbox.cif.g08.bks.cpg/sg24_17_cif.got.tgz:33398.got - 2010.06.04 00:33:39.
