data_PCOD9334301
_publ_section_title
;
Structure prediction by ZEFSAII (Michael W. Deem and Ramdas Pophale) SiO2 
 PCOD9334301
Probable space group: I 21 21 21
;
_chemical_formula_sum "Si O2"
_cell_formula_units_Z 64
_cell_length_a 9.383615
_cell_length_b 11.521114
_cell_length_c 31.564958
_cell_angle_alpha 90.000000
_cell_angle_beta 90.000000
_cell_angle_gamma 90.000000
_cell_volume 3412.478081
_symmetry_space_group_name_H-M "I 21 21 21"
_symmetry_group_IT_number 24
_symmetry_cell_setting 'orthorhombic'
loop_
_space_group_symop_operation_xyz
x,y,z
-x,1/2-y,z
x,-y,1/2-z
1/2-x,y,-z
1/2+x,1/2+y,1/2+z
1/2-x,-y,1/2+z
1/2+x,1/2-y,-z
-x,1/2+y,1/2-z
loop_
_atom_site_type_symbol
_atom_site_label
_atom_site_fract_x
_atom_site_fract_y
_atom_site_fract_z
Si Si1 0.269642 0.480812 0.861215
Si Si2 0.332424 0.408025 0.043817
Si Si3 0.337681 0.872624 0.459444
Si Si4 0.992217 0.874719 0.845896
Si Si5 0.171940 0.753484 0.684942
Si Si6 0.048897 0.878738 0.160673
Si Si7 0.719853 0.627064 0.229805
Si Si8 0.278691 0.032439 0.125968
O O1 0.235853 0.457844 0.911863
O O2 0.234679 0.361514 0.836486
O O3 0.425820 0.527911 0.849021
O O4 0.167887 0.581720 0.841852
O O5 0.333118 0.267114 0.044507
O O6 0.503367 0.426325 0.040364
O O7 0.250000 0.442898 0.000000
O O8 0.250000 0.907958 0.500000
O O9 0.253623 0.913840 0.418762
O O10 0.090950 0.860723 0.804079
O O11 0.000000 0.750000 0.867873
O O12 0.063579 0.981096 0.870512
O O13 0.206715 0.775330 0.734188
O O14 0.232462 0.867053 0.660911
O O15 0.000000 0.750000 0.679742
O O16 0.000000 0.750000 0.150026
O O17 0.126578 0.873128 0.206648
O O18 0.179051 0.923505 0.132767
O O19 0.699742 0.500000 0.250000
#
# Coordination Sequence:
#
# PCOD9334301 Si02
#       8
#     8   8   8   8   8   8   8   8
#     4  12  23  41  70  97 130 180 221 270 338 399
#     4  10  21  37  62 104 139 163 209 270 332 413
#     4  10  20  37  64  97 137 167 195 267 347 401
#     4  11  22  39  65  89 120 177 229 265 323 382
#     4  12  21  40  70 101 125 165 220 285 332 396
#     4  11  27  45  61  87 133 184 224 269 324 392
#     4  11  22  43  62  90 133 166 216 282 330 384
#     4  11  21  42  65  89 133 168 215 269 327 390
#
# _framework density 18.7547
#
# number of rings (size 3 to 8) (size 9 to 14) (size 15 to 20)
#    0.000    1.000    6.250    1.875    1.750    1.500 
#    0.000    1.875    0.000    4.500    0.000    0.000 
#    0.000    0.000    0.000    0.000    0.000    0.000 
#
# Total GULP energy -178294.154087 kJ/mol
# GULP energy per Si atom -5571.692315 kJ/mol
# Density = 1.871201 g / cm^3
# Si number density = 18.754700 Si / 1000 Ang^3
#
#
#
# Elastic Constant Matrix: (Units=GPa)
#
#
# Indices 1 2 3 4 5 6 
#
# 1 62.5279 2.9888 36.2711 0.0000 0.0000 0.0000
# 2 2.9888 52.9027 21.1659 0.0000 0.0000 0.0000
# 3 36.2711 21.1659 135.5195 0.0000 0.0000 0.0000
# 4 0.0000 0.0000 0.0000 18.3511 0.0000 0.0000
# 5 0.0000 0.0000 0.0000 0.0000 21.0636 0.0000
# 6 0.0000 0.0000 0.0000 0.0000 0.0000 34.1619
#
#
#
# Elastic Compliance Matrix: (Units=1/GPa)
#
#
# Indices 1 2 3 4 5 6 
#
# 1 0.018984 0.001024 -0.005241 0.000000 0.000000 0.000000
# 2 0.001024 0.020218 -0.003432 0.000000 0.000000 0.000000
# 3 -0.005241 -0.003432 0.009318 0.000000 0.000000 0.000000
# 4 0.000000 0.000000 0.000000 0.054493 0.000000 0.000000
# 5 0.000000 0.000000 0.000000 0.000000 0.047475 0.000000
# 6 0.000000 0.000000 0.000000 0.000000 0.000000 0.029272
#
#
# Mechanical properties :
#
#
# Convention : Reuss Voigt Hill
#
# Bulk Modulus (GPa) = 30.09991 41.31128 35.70560
# Shear Modulus (GPa) = 24.25641 27.41695 25.83668
#
# Velocity S-wave (km/s) = 3.60022 3.82759 3.71564
# Velocity P-wave (km/s) = 5.77635 6.45050 6.12271
#
# Compressibility (1/GPa) = 0.03322269
#
# Stress axis : x y z
#
# Youngs Moduli (GPa) = 52.67570 49.46129 107.32219
#
# Poissons Ratio (x) = -0.05067 0.56247
# Poissons Ratio (y) = -0.05396 0.36831
# Poissons Ratio (z) = 0.27607 0.16974
#
# Static dielectric constant tensor:
#      x y z
#    x 1.664400 0.000000 0.000000 
#    y 0.000000 1.633430 0.000000 
#    z 0.000000 0.000000 1.670440 
# 
# From -- ./inp_files/38411.got.cif
#   From: 2010.05.17/outbox.cif.g08.bks.cpg/sg24_20_cif.got.tgz:38411.got - 2010.06.04 00:33:39.
