data_PCOD9334513
_publ_section_title
;
Structure prediction by ZEFSAII (Michael W. Deem and Ramdas Pophale) SiO2 
 PCOD9334513
Probable space group: I 21 21 21
;
_chemical_formula_sum "Si O2"
_cell_formula_units_Z 48
_cell_length_a 16.153784
_cell_length_b 15.604425
_cell_length_c 9.102949
_cell_angle_alpha 90.000000
_cell_angle_beta 90.000000
_cell_angle_gamma 90.000000
_cell_volume 2294.585005
_symmetry_space_group_name_H-M "I 21 21 21"
_symmetry_group_IT_number 24
_symmetry_cell_setting 'orthorhombic'
loop_
_space_group_symop_operation_xyz
x,y,z
-x,1/2-y,z
x,-y,1/2-z
1/2-x,y,-z
1/2+x,1/2+y,1/2+z
1/2-x,-y,1/2+z
1/2+x,1/2-y,-z
-x,1/2+y,1/2-z
loop_
_atom_site_type_symbol
_atom_site_label
_atom_site_fract_x
_atom_site_fract_y
_atom_site_fract_z
Si Si1 0.562421 0.684327 0.743137
Si Si2 0.152083 0.079772 0.492168
Si Si3 0.991094 0.555333 0.506597
Si Si4 0.342017 0.722655 0.491536
Si Si5 0.835405 0.019717 0.924022
Si Si6 0.559472 0.320960 0.257830
O O1 0.500000 0.750000 0.822295
O O2 0.622150 0.631146 0.848325
O O3 0.513797 0.619073 0.633124
O O4 0.614341 0.747308 0.639092
O O5 0.250000 0.063959 0.500000
O O6 0.121065 0.135112 0.630021
O O7 0.094663 0.995960 0.498493
O O8 0.988925 0.608352 0.659787
O O9 0.073216 0.495251 0.511747
O O10 0.250000 0.756846 0.500000
O O11 0.337946 0.621534 0.459973
O O12 0.390141 0.767626 0.361506
O O13 0.831921 0.000000 0.750000
O O14 0.750000 0.986416 0.000000
O O15 0.500000 0.250000 0.328832
#
# Coordination Sequence:
#
# PCOD9334513 Si02
#       6
#     8   8   8   8   8   8
#     4  11  22  44  66  95 131 175 226 272 339 411
#     4  12  27  41  64 104 139 173 224 289 348 392
#     4  11  23  44  70  93 134 179 223 274 339 408
#     4  10  20  39  67  90 124 171 224 269 334 409
#     4  11  23  42  64  96 130 174 228 278 340 402
#     4  11  21  41  66  94 128 176 225 270 339 406
#
# _framework density 20.918816
#
# number of rings (size 3 to 8) (size 9 to 14) (size 15 to 20)
#    0.000    1.000    3.333    4.500    0.000    6.667 
#    0.000    0.833    0.000    0.000    0.000    0.000 
#    0.000    0.000    0.000    0.000    0.000    0.000 
#
# Total GULP energy -133983.181711 kJ/mol
# GULP energy per Si atom -5582.632571 kJ/mol
# Density = 2.087120 g / cm^3
# Si number density = 20.918816 Si / 1000 Ang^3
#
#
#
# Elastic Constant Matrix: (Units=GPa)
#
#
# Indices 1 2 3 4 5 6 
#
# 1 183.6520 34.0795 42.4339 0.0000 0.0000 0.0000
# 2 34.0795 64.8050 20.5345 0.0000 0.0000 0.0000
# 3 42.4339 20.5345 94.4657 0.0000 0.0000 0.0000
# 4 0.0000 0.0000 0.0000 54.1035 0.0000 0.0000
# 5 0.0000 0.0000 0.0000 0.0000 46.3027 0.0000
# 6 0.0000 0.0000 0.0000 0.0000 0.0000 34.7613
#
#
#
# Elastic Compliance Matrix: (Units=1/GPa)
#
#
# Indices 1 2 3 4 5 6 
#
# 1 0.006479 -0.002669 -0.002330 0.000000 0.000000 0.000000
# 2 -0.002669 0.017672 -0.002643 0.000000 0.000000 0.000000
# 3 -0.002330 -0.002643 0.012207 0.000000 0.000000 0.000000
# 4 0.000000 0.000000 0.000000 0.018483 0.000000 0.000000
# 5 0.000000 0.000000 0.000000 0.000000 0.021597 0.000000
# 6 0.000000 0.000000 0.000000 0.000000 0.000000 0.028768
#
#
# Mechanical properties :
#
#
# Convention : Reuss Voigt Hill
#
# Bulk Modulus (GPa) = 47.45065 59.66872 53.55969
# Shear Modulus (GPa) = 39.21178 43.42516 41.31847
#
# Velocity S-wave (km/s) = 4.33422 4.56114 4.44912
# Velocity P-wave (km/s) = 6.91229 7.50496 7.21471
#
# Compressibility (1/GPa) = 0.02107452
#
# Stress axis : x y z
#
# Youngs Moduli (GPa) = 154.35241 56.58778 81.92032
#
# Poissons Ratio (x) = 0.15101 0.19088
# Poissons Ratio (y) = 0.41191 0.21648
# Poissons Ratio (z) = 0.35966 0.14954
#
# Static dielectric constant tensor:
#      x y z
#    x 1.790070 0.000000 0.000000 
#    y 0.000000 1.786620 0.000000 
#    z 0.000000 0.000000 1.730280 
# 
# From -- ./inp_files/12786.got.cif
#   From: 2010.05.17/outbox.cif.g08.bks.cpg/sg24_7_cif.got.tgz:12786.got - 2010.06.04 00:33:39.
