data_PCOD9334374
_publ_section_title
;
Structure prediction by ZEFSAII (Michael W. Deem and Ramdas Pophale) SiO2 
 PCOD9334374
Probable space group: I 21 21 21
;
_chemical_formula_sum "Si O2"
_cell_formula_units_Z 52
_cell_length_a 15.791612
_cell_length_b 7.953801
_cell_length_c 19.939701
_cell_angle_alpha 90.000000
_cell_angle_beta 90.000000
_cell_angle_gamma 90.000000
_cell_volume 2504.493031
_symmetry_space_group_name_H-M "I 21 21 21"
_symmetry_group_IT_number 24
_symmetry_cell_setting 'orthorhombic'
loop_
_space_group_symop_operation_xyz
x,y,z
-x,1/2-y,z
x,-y,1/2-z
1/2-x,y,-z
1/2+x,1/2+y,1/2+z
1/2-x,-y,1/2+z
1/2+x,1/2-y,-z
-x,1/2+y,1/2-z
loop_
_atom_site_type_symbol
_atom_site_label
_atom_site_fract_x
_atom_site_fract_y
_atom_site_fract_z
Si Si1 0.245783 0.445818 0.081566
Si Si2 0.500000 0.750000 0.077627
Si Si3 0.101842 0.948370 0.172842
Si Si4 0.822071 0.266401 0.553808
Si Si5 0.033179 0.062350 0.821419
Si Si6 0.786035 0.588986 0.633934
Si Si7 0.589290 0.045956 0.669868
O O1 0.297356 0.613726 0.103109
O O2 0.286400 0.277098 0.108270
O O3 0.155280 0.461665 0.118601
O O4 0.250000 0.432755 0.000000
O O5 0.417211 0.732883 0.032326
O O6 0.510439 0.584817 0.124916
O O7 0.104996 0.746731 0.165386
O O8 0.007353 0.997436 0.148178
O O9 0.098727 0.000000 0.250000
O O10 0.189113 0.033420 0.148531
O O11 0.750000 0.256195 0.500000
O O12 0.815742 0.452565 0.580414
O O13 0.135678 0.076713 0.814876
O O14 0.000000 0.250000 0.838519
O O15 0.998126 0.000000 0.750000
O O16 0.600405 0.000000 0.750000
#
# Coordination Sequence:
#
# PCOD9334374 Si02
#       7
#     8   4   8   8   8   8   8
#     4  11  23  42  64  94 132 176 226 276 320 397
#     4  10  22  42  66  88 130 168 210 272 332 380
#     4  10  20  38  63 100 137 174 218 266 331 413
#     4  10  22  43  63  91 126 168 222 268 324 390
#     4  11  22  39  63  96 127 167 213 270 334 398
#     4  11  22  39  65  91 132 168 222 269 331 388
#     4  10  21  39  66  97 140 179 216 272 335 393
#
# _framework density 20.762684
#
# number of rings (size 3 to 8) (size 9 to 14) (size 15 to 20)
#    0.000    1.538    2.308    2.769    0.000    1.846 
#    5.538    0.000   16.923    0.000    0.000    0.000 
#    0.000    0.000    0.000    0.000    0.000    0.000 
#
# Total GULP energy -144768.611255 kJ/mol
# GULP energy per Si atom -5568.023510 kJ/mol
# Density = 2.071543 g / cm^3
# Si number density = 20.762684 Si / 1000 Ang^3
#
#
#
# Elastic Constant Matrix: (Units=GPa)
#
#
# Indices 1 2 3 4 5 6 
#
# 1 163.3827 15.6566 34.5347 0.0000 0.0000 0.0000
# 2 15.6566 107.1037 7.1644 0.0000 0.0000 0.0000
# 3 34.5347 7.1644 47.3415 0.0000 0.0000 0.0000
# 4 0.0000 0.0000 0.0000 24.8325 0.0000 0.0000
# 5 0.0000 0.0000 0.0000 0.0000 29.1700 0.0000
# 6 0.0000 0.0000 0.0000 0.0000 0.0000 31.5208
#
#
#
# Elastic Compliance Matrix: (Units=1/GPa)
#
#
# Indices 1 2 3 4 5 6 
#
# 1 0.007291 -0.000717 -0.005210 0.000000 0.000000 0.000000
# 2 -0.000717 0.009503 -0.000915 0.000000 0.000000 0.000000
# 3 -0.005210 -0.000915 0.025062 0.000000 0.000000 0.000000
# 4 0.000000 0.000000 0.000000 0.040270 0.000000 0.000000
# 5 0.000000 0.000000 0.000000 0.000000 0.034282 0.000000
# 6 0.000000 0.000000 0.000000 0.000000 0.000000 0.031725
#
#
# Mechanical properties :
#
#
# Convention : Reuss Voigt Hill
#
# Bulk Modulus (GPa) = 35.49685 48.05993 41.77839
# Shear Modulus (GPa) = 29.20453 34.46947 31.83700
#
# Velocity S-wave (km/s) = 3.75452 4.07893 3.92008
# Velocity P-wave (km/s) = 5.99406 6.73655 6.37612
#
# Compressibility (1/GPa) = 0.02817152
#
# Stress axis : x y z
#
# Youngs Moduli (GPa) = 137.16421 105.23222 39.90111
#
# Poissons Ratio (x) = 0.07548 0.20787
# Poissons Ratio (y) = 0.09838 0.03650
# Poissons Ratio (z) = 0.71459 0.09628
#
# Static dielectric constant tensor:
#      x y z
#    x 1.814120 0.000000 0.000000 
#    y 0.000000 1.794530 0.000000 
#    z 0.000000 0.000000 2.124150 
# 
# From -- ./inp_files/33726.got.cif
#   From: 2010.05.17/outbox.cif.g08.bks.cpg/sg24_17_cif.got.tgz:33726.got - 2010.06.04 00:33:39.
