data_PCOD9334384
_publ_section_title
;
Structure prediction by ZEFSAII (Michael W. Deem and Ramdas Pophale) SiO2 
 PCOD9334384
Probable space group: I 21 21 21
;
_chemical_formula_sum "Si O2"
_cell_formula_units_Z 48
_cell_length_a 31.931081
_cell_length_b 7.779455
_cell_length_c 8.528393
_cell_angle_alpha 90.000000
_cell_angle_beta 90.000000
_cell_angle_gamma 90.000000
_cell_volume 2118.507469
_symmetry_space_group_name_H-M "I 21 21 21"
_symmetry_group_IT_number 24
_symmetry_cell_setting 'orthorhombic'
loop_
_space_group_symop_operation_xyz
x,y,z
-x,1/2-y,z
x,-y,1/2-z
1/2-x,y,-z
1/2+x,1/2+y,1/2+z
1/2-x,-y,1/2+z
1/2+x,1/2-y,-z
-x,1/2+y,1/2-z
loop_
_atom_site_type_symbol
_atom_site_label
_atom_site_fract_x
_atom_site_fract_y
_atom_site_fract_z
Si Si1 0.929427 0.500000 0.750000
Si Si2 0.705542 0.714171 0.420751
Si Si3 0.868740 0.819654 0.156138
Si Si4 0.566900 0.984592 0.064504
Si Si5 0.794233 0.297732 0.561446
Si Si6 0.500000 0.250000 0.371066
Si Si7 0.613070 0.311756 0.969264
O O1 0.961236 0.340147 0.719352
O O2 0.900214 0.544579 0.598217
O O3 0.750000 0.771059 0.500000
O O4 0.706030 0.505709 0.432807
O O5 0.701911 0.764745 0.239240
O O6 0.659968 0.759173 0.490379
O O7 0.883251 0.678245 0.281914
O O8 0.863222 0.000000 0.250000
O O9 0.902843 0.853654 0.023065
O O10 0.828080 0.762080 0.062991
O O11 0.520732 0.909671 0.040219
O O12 0.575115 0.000000 0.250000
O O13 0.577696 0.167317 0.993031
O O14 0.750000 0.236494 0.500000
#
# Coordination Sequence:
#
# PCOD9334384 Si02
#       7
#     4   8   8   8   8   4   8
#     4  12  22  42  70 108 138 190 242 294 362 434
#     4  10  21  37  65 104 138 179 232 291 345 417
#     4  10  24  43  64  97 140 186 235 292 354 429
#     4  11  22  44  67  96 133 180 229 290 354 430
#     4  10  20  38  63  97 139 181 231 292 353 413
#     4  12  24  42  72 104 138 178 242 296 354 436
#     4  11  23  41  67 100 140 183 235 287 355 429
#
# _framework density 22.657461999999999
#
# number of rings (size 3 to 8) (size 9 to 14) (size 15 to 20)
#    0.000    1.333    2.500    3.000    2.333    2.000 
#    0.000   13.333    0.000    0.000    0.000    0.000 
#    0.000    0.000    0.000    0.000    0.000    0.000 
#
# Total GULP energy -133913.351536 kJ/mol
# GULP energy per Si atom -5579.722981 kJ/mol
# Density = 2.260589 g / cm^3
# Si number density = 22.657462 Si / 1000 Ang^3
#
#
#
# Elastic Constant Matrix: (Units=GPa)
#
#
# Indices 1 2 3 4 5 6 
#
# 1 138.7139 35.9181 65.7900 0.0000 0.0000 0.0000
# 2 35.9181 85.3523 58.7011 0.0000 0.0000 0.0000
# 3 65.7900 58.7011 138.8132 0.0000 0.0000 0.0000
# 4 0.0000 0.0000 0.0000 34.8763 0.0000 0.0000
# 5 0.0000 0.0000 0.0000 0.0000 33.5597 0.0000
# 6 0.0000 0.0000 0.0000 0.0000 0.0000 -909.3997
#
#
#
# Elastic Compliance Matrix: (Units=1/GPa)
#
#
# Indices 1 2 3 4 5 6 
#
# 1 0.009394 -0.001257 -0.003921 0.000000 0.000000 0.000000
# 2 -0.001257 0.016689 -0.006462 0.000000 0.000000 0.000000
# 3 -0.003921 -0.006462 0.011795 0.000000 0.000000 0.000000
# 4 0.000000 0.000000 0.000000 0.028673 0.000000 0.000000
# 5 0.000000 0.000000 0.000000 0.000000 0.029798 0.000000
# 6 0.000000 0.000000 0.000000 0.000000 0.000000 -0.001100
#
#
# Mechanical properties :
#
#
# Convention : Reuss Voigt Hill
#
# Bulk Modulus (GPa) = 68.49694 75.96642 72.23168
# Shear Modulus (GPa) = 40.52059 -154.69473 -57.08707
#
# Velocity S-wave (km/s) = 4.23353 -8.27186 -5.02498
# Velocity P-wave (km/s) = 7.36167 7.59148 1.31077
#
# Compressibility (1/GPa) = 0.01459919
#
# Stress axis : x y z
#
# Youngs Moduli (GPa) = 106.44985 59.91918 84.78312
#
# Poissons Ratio (x) = 0.07530 0.33242
# Poissons Ratio (y) = 0.13377 0.54786
# Poissons Ratio (z) = 0.41738 0.38719
#
# Static dielectric constant tensor:
#      x y z
#    x 1.876600 0.000000 0.000000 
#    y 0.000000 1.949950 0.000000 
#    z 0.000000 0.000000 3.887510 
# 
# From -- ./inp_files/16860.got.cif
#   From: 2010.05.17/outbox.cif.g08.bks.cpg/sg24_9_cif.got.tgz:16860.got - 2010.06.04 00:33:39.
