data_PCOD9334972
_publ_section_title
;
Structure prediction by ZEFSAII (Michael W. Deem and Ramdas Pophale) SiO2 
 PCOD9334972
Probable space group: I 21 21 21
;
_chemical_formula_sum "Si O2"
_cell_formula_units_Z 52
_cell_length_a 19.883328
_cell_length_b 19.378729
_cell_length_c 6.641251
_cell_angle_alpha 90.000000
_cell_angle_beta 90.000000
_cell_angle_gamma 90.000000
_cell_volume 2558.964497
_symmetry_space_group_name_H-M "I 21 21 21"
_symmetry_group_IT_number 24
_symmetry_cell_setting 'orthorhombic'
loop_
_space_group_symop_operation_xyz
x,y,z
-x,1/2-y,z
x,-y,1/2-z
1/2-x,y,-z
1/2+x,1/2+y,1/2+z
1/2-x,-y,1/2+z
1/2+x,1/2-y,-z
-x,1/2+y,1/2-z
loop_
_atom_site_type_symbol
_atom_site_label
_atom_site_fract_x
_atom_site_fract_y
_atom_site_fract_z
Si Si1 0.500000 0.250000 0.654359
Si Si2 0.108467 0.298825 0.048883
Si Si3 0.310736 0.939802 0.631578
Si Si4 0.428588 0.500000 0.250000
Si Si5 0.174321 0.558985 0.417760
Si Si6 0.750000 0.353189 0.500000
Si Si7 0.507879 0.854650 0.200918
Si Si8 0.355305 0.175856 0.179261
O O1 0.512079 0.184548 0.510963
O O2 0.435258 0.253069 0.797676
O O3 0.158437 0.245198 0.944939
O O4 0.058967 0.324939 0.869380
O O5 0.144214 0.366033 0.141656
O O6 0.250000 0.973361 0.500000
O O7 0.282496 0.894218 0.813531
O O8 0.341183 0.889130 0.466482
O O9 0.350478 0.000000 0.750000
O O10 0.378337 0.528947 0.419748
O O11 0.474768 0.564458 0.182398
O O12 0.177855 0.500000 0.250000
O O13 0.250000 0.568785 0.500000
O O14 0.688104 0.318148 0.382844
O O15 0.433088 0.835395 0.269567
#
# Coordination Sequence:
#
# PCOD9334972 Si02
#       8
#     4   8   8   4   8   4   8   8
#     4  12  20  42  72  88 132 188 218 278 354 398
#     4  11  24  43  67  99 135 171 229 286 337 412
#     4  10  21  39  62  84 125 174 222 273 323 396
#     4  10  24  44  68 104 136 170 236 282 330 422
#     4  11  23  45  71  99 138 178 221 284 354 412
#     4  10  24  38  64  86 130 178 226 282 340 406
#     4  11  23  43  67  97 136 179 221 283 341 409
#     4  11  23  42  61  99 135 174 230 281 339 408
#
# _framework density 20.320719
#
# number of rings (size 3 to 8) (size 9 to 14) (size 15 to 20)
#    0.000    1.231    4.615    0.923    2.154    3.077 
#    0.000    0.769    1.692    0.000    0.000    0.000 
#    0.000    0.000    0.000    0.000    0.000    0.000 
#
# Total GULP energy -144922.924230 kJ/mol
# GULP energy per Si atom -5573.958624 kJ/mol
# Density = 2.027447 g / cm^3
# Si number density = 20.320719 Si / 1000 Ang^3
#
#
#
# Elastic Constant Matrix: (Units=GPa)
#
#
# Indices 1 2 3 4 5 6 
#
# 1 61.3107 37.3342 21.3047 0.0000 0.0000 0.0000
# 2 37.3342 106.4350 26.3094 0.0000 0.0000 0.0000
# 3 21.3047 26.3094 94.5131 0.0000 0.0000 0.0000
# 4 0.0000 0.0000 0.0000 27.6050 0.0000 0.0000
# 5 0.0000 0.0000 0.0000 0.0000 25.5376 0.0000
# 6 0.0000 0.0000 0.0000 0.0000 0.0000 31.3474
#
#
#
# Elastic Compliance Matrix: (Units=1/GPa)
#
#
# Indices 1 2 3 4 5 6 
#
# 1 0.021479 -0.006806 -0.002947 0.000000 0.000000 0.000000
# 2 -0.006806 0.012246 -0.001875 0.000000 0.000000 0.000000
# 3 -0.002947 -0.001875 0.011767 0.000000 0.000000 0.000000
# 4 0.000000 0.000000 0.000000 0.036225 0.000000 0.000000
# 5 0.000000 0.000000 0.000000 0.000000 0.039158 0.000000
# 6 0.000000 0.000000 0.000000 0.000000 0.000000 0.031901
#
#
# Mechanical properties :
#
#
# Convention : Reuss Voigt Hill
#
# Bulk Modulus (GPa) = 44.97146 48.01727 46.49437
# Shear Modulus (GPa) = 27.25649 28.71868 27.98758
#
# Velocity S-wave (km/s) = 3.66637 3.76343 3.71522
# Velocity P-wave (km/s) = 6.33261 6.52423 6.42913
#
# Compressibility (1/GPa) = 0.02223632
#
# Stress axis : x y z
#
# Youngs Moduli (GPa) = 46.55793 81.65909 84.98506
#
# Poissons Ratio (x) = 0.55574 0.25046
# Poissons Ratio (y) = 0.31685 0.15933
# Poissons Ratio (z) = 0.13721 0.15310
#
# Static dielectric constant tensor:
#      x y z
#    x 1.747160 0.000000 0.000000 
#    y 0.000000 1.770550 0.000000 
#    z 0.000000 0.000000 1.722940 
# 
# From -- ./inp_files/5712.got.cif
#   From: 2010.05.17/outbox.cif.g08.bks.cpg/sg24_3_cif.got.tgz:5712.got - 2010.06.04 00:33:39.
