data_PCOD9334192
_publ_section_title
;
Structure prediction by ZEFSAII (Michael W. Deem and Ramdas Pophale) SiO2 
 PCOD9334192
Probable space group: I 21 21 21
;
_chemical_formula_sum "Si O2"
_cell_formula_units_Z 40
_cell_length_a 10.452715
_cell_length_b 25.087435
_cell_length_c 7.602768
_cell_angle_alpha 90.000000
_cell_angle_beta 90.000000
_cell_angle_gamma 90.000000
_cell_volume 1993.687599
_symmetry_space_group_name_H-M "I 21 21 21"
_symmetry_group_IT_number 24
_symmetry_cell_setting 'orthorhombic'
loop_
_space_group_symop_operation_xyz
x,y,z
-x,1/2-y,z
x,-y,1/2-z
1/2-x,y,-z
1/2+x,1/2+y,1/2+z
1/2-x,-y,1/2+z
1/2+x,1/2-y,-z
-x,1/2+y,1/2-z
loop_
_atom_site_type_symbol
_atom_site_label
_atom_site_fract_x
_atom_site_fract_y
_atom_site_fract_z
Si Si1 0.893737 0.110450 0.502044
Si Si2 0.749643 0.631904 0.691359
Si Si3 0.008437 0.310061 0.201112
Si Si4 0.980013 0.811814 0.706265
Si Si5 0.127000 0.961620 0.092984
O O1 0.750000 0.087665 0.500000
O O2 0.926899 0.147104 0.330556
O O3 0.895346 0.152543 0.664109
O O4 0.004846 0.064515 0.508386
O O5 0.750000 0.606403 0.500000
O O6 0.640401 0.675811 0.682936
O O7 0.883743 0.658847 0.727119
O O8 0.700409 0.588815 0.825211
O O9 0.000000 0.250000 0.271005
O O10 0.060894 0.312170 0.000057
O O11 0.000000 0.750000 0.755968
O O12 0.079472 0.000000 0.250000
O O13 0.250000 0.989124 0.000000
#
# Coordination Sequence:
#
# PCOD9334192 Si02
#       5
#     8   8   8   8   8
#     4  11  24  40  61  92 132 165 205 257 321 388
#     4   9  18  35  59  89 121 154 212 266 296 361
#     4   9  20  35  57  89 127 170 211 247 300 376
#     4  10  20  36  61  92 132 175 208 250 311 375
#     4  11  22  42  69  89 116 156 216 271 323 365
#
# _framework density 20.063323
#
# number of rings (size 3 to 8) (size 9 to 14) (size 15 to 20)
#    0.000    2.000    2.000    1.200    2.800    0.800 
#    0.000    1.000    0.000    0.000    0.000    0.000 
#    0.000    0.000    0.000    0.000    0.000    0.000 
#
# Total GULP energy -111379.916968 kJ/mol
# GULP energy per Si atom -5568.995848 kJ/mol
# Density = 2.001766 g / cm^3
# Si number density = 20.063323 Si / 1000 Ang^3
#
#
#
# Elastic Constant Matrix: (Units=GPa)
#
#
# Indices 1 2 3 4 5 6 
#
# 1 101.2292 13.3376 10.7483 0.0002 -0.0016 0.0003
# 2 13.3376 74.5680 1.4447 0.0006 -0.0013 0.0008
# 3 10.7483 1.4447 50.1983 0.0012 -0.0049 0.0003
# 4 0.0002 0.0006 0.0012 27.6643 -0.0002 0.0012
# 5 -0.0016 -0.0013 -0.0049 -0.0002 4.7641 -0.0020
# 6 0.0003 0.0008 0.0003 0.0012 -0.0020 -51.7751
#
#
#
# Elastic Compliance Matrix: (Units=1/GPa)
#
#
# Indices 1 2 3 4 5 6 
#
# 1 0.010347 -0.001809 -0.002163 0.000000 0.000001 0.000000
# 2 -0.001809 0.013734 -0.000008 0.000000 0.000003 0.000000
# 3 -0.002163 -0.000008 0.020384 -0.000001 0.000020 0.000000
# 4 0.000000 0.000000 -0.000001 0.036148 0.000002 0.000001
# 5 0.000001 0.000003 0.000020 0.000002 0.209904 -0.000008
# 6 0.000000 0.000000 0.000000 0.000001 -0.000008 -0.019314
#
#
# Mechanical properties :
#
#
# Convention : Reuss Voigt Hill
#
# Bulk Modulus (GPa) = 27.39339 30.78409 29.08874
# Shear Modulus (GPa) = 17.16261 9.49499 13.32880
#
# Velocity S-wave (km/s) = 2.92793 2.17779 2.58027
# Velocity P-wave (km/s) = 5.01134 4.65838 4.83808
#
# Compressibility (1/GPa) = 0.03650516
#
# Stress axis : x y z
#
# Youngs Moduli (GPa) = 96.65030 72.81070 49.05706
#
# Poissons Ratio (x) = 0.13169 0.10613
# Poissons Ratio (y) = 0.17481 0.00039
# Poissons Ratio (z) = 0.20909 0.00058
#
# Static dielectric constant tensor:
#      x y z
#    x 1.775150 0.000000 0.000000 
#    y 0.000000 1.707670 0.000000 
#    z 0.000000 0.000000 1.912000 
# 
# From -- ./inp_files/9505.got.cif
#   From: 2010.05.17/outbox.cif.g08.bks.cpg/sg24_5_cif.got.tgz:9505.got - 2010.06.04 00:33:39.
