data_PCOD9334115
_publ_section_title
;
Structure prediction by ZEFSAII (Michael W. Deem and Ramdas Pophale) SiO2 
 PCOD9334115
Probable space group: I 21 21 21
;
_chemical_formula_sum "Si O2"
_cell_formula_units_Z 64
_cell_length_a 27.593880
_cell_length_b 7.843194
_cell_length_c 14.624701
_cell_angle_alpha 90.000000
_cell_angle_beta 90.000000
_cell_angle_gamma 90.000000
_cell_volume 3165.138542
_symmetry_space_group_name_H-M "I 21 21 21"
_symmetry_group_IT_number 24
_symmetry_cell_setting 'orthorhombic'
loop_
_space_group_symop_operation_xyz
x,y,z
-x,1/2-y,z
x,-y,1/2-z
1/2-x,y,-z
1/2+x,1/2+y,1/2+z
1/2-x,-y,1/2+z
1/2+x,1/2-y,-z
-x,1/2+y,1/2-z
loop_
_atom_site_type_symbol
_atom_site_label
_atom_site_fract_x
_atom_site_fract_y
_atom_site_fract_z
Si Si1 0.136289 0.801226 0.927949
Si Si2 0.055444 0.201153 0.064253
Si Si3 0.886414 0.198373 0.243885
Si Si4 0.195469 0.519153 0.024025
Si Si5 0.943945 0.300832 0.426494
Si Si6 0.323786 0.707074 0.252683
Si Si7 0.145617 0.804232 0.543482
Si Si8 0.284910 0.690572 0.787444
O O1 0.138850 0.796375 0.818070
O O2 0.152091 0.989662 0.965072
O O3 0.171438 0.642788 0.950183
O O4 0.087031 0.755968 0.982805
O O5 0.080930 0.275813 0.154661
O O6 0.000000 0.250000 0.053634
O O7 0.056775 0.001910 0.080686
O O8 0.088964 0.233210 0.976040
O O9 0.916526 0.239154 0.335305
O O10 0.832202 0.279585 0.242482
O O11 0.875569 0.000000 0.250000
O O12 0.197759 0.645138 0.110582
O O13 0.250000 0.478044 0.000000
O O14 0.170190 0.333781 0.025591
O O15 0.000000 0.250000 0.430239
O O16 0.327580 0.500000 0.250000
O O17 0.335425 0.758268 0.356406
O O18 0.268761 0.766801 0.225300
O O19 0.276911 0.500000 0.750000
#
# Coordination Sequence:
#
# PCOD9334115 Si02
#       8
#     8   8   8   8   8   8   8   8
#     4  11  24  42  65  96 132 170 225 273 325 386
#     4  11  25  42  63  93 125 166 221 275 331 395
#     4  11  21  37  62  90 131 171 209 266 325 394
#     4  12  21  41  66  93 137 174 218 267 321 385
#     4  11  24  41  64  92 126 169 218 273 336 395
#     4  11  21  42  68  94 130 176 218 268 327 382
#     4  11  25  42  66  95 130 174 218 277 321 389
#     4  10  20  35  63  93 125 176 218 254 320 395
#
# _framework density 20.220282999999998
#
# number of rings (size 3 to 8) (size 9 to 14) (size 15 to 20)
#    0.000    1.000    3.750    4.125    1.750    0.500 
#    0.000    4.375    0.000    0.000    0.000    0.000 
#    0.000    0.000    0.000    0.000    0.000    0.000 
#
# Total GULP energy -178330.990287 kJ/mol
# GULP energy per Si atom -5572.843446 kJ/mol
# Density = 2.017426 g / cm^3
# Si number density = 20.220283 Si / 1000 Ang^3
#
#
#
# Elastic Constant Matrix: (Units=GPa)
#
#
# Indices 1 2 3 4 5 6 
#
# 1 120.1738 30.3717 34.2569 0.0000 0.0000 0.0000
# 2 30.3717 71.7984 3.2746 0.0000 0.0000 0.0000
# 3 34.2569 3.2746 80.1556 0.0000 0.0000 0.0000
# 4 0.0000 0.0000 0.0000 35.8127 0.0000 0.0000
# 5 0.0000 0.0000 0.0000 0.0000 31.7325 0.0000
# 6 0.0000 0.0000 0.0000 0.0000 0.0000 23.8800
#
#
#
# Elastic Compliance Matrix: (Units=1/GPa)
#
#
# Indices 1 2 3 4 5 6 
#
# 1 0.010659 -0.004309 -0.004379 0.000000 0.000000 0.000000
# 2 -0.004309 0.015696 0.001200 0.000000 0.000000 0.000000
# 3 -0.004379 0.001200 0.014298 0.000000 0.000000 0.000000
# 4 0.000000 0.000000 0.000000 0.027923 0.000000 0.000000
# 5 0.000000 0.000000 0.000000 0.000000 0.031513 0.000000
# 6 0.000000 0.000000 0.000000 0.000000 0.000000 0.041876
#
#
# Mechanical properties :
#
#
# Convention : Reuss Voigt Hill
#
# Bulk Modulus (GPa) = 38.94531 45.32603 42.13567
# Shear Modulus (GPa) = 30.21140 31.89999 31.05570
#
# Velocity S-wave (km/s) = 3.86957 3.97624 3.92327
# Velocity P-wave (km/s) = 6.26635 6.59890 6.43477
#
# Compressibility (1/GPa) = 0.02567703
#
# Stress axis : x y z
#
# Youngs Moduli (GPa) = 93.82031 63.71082 69.93836
#
# Poissons Ratio (x) = 0.27453 0.30628
# Poissons Ratio (y) = 0.40427 -0.08395
# Poissons Ratio (z) = 0.41086 -0.07648
#
# Static dielectric constant tensor:
#      x y z
#    x 1.546950 0.000000 0.000000 
#    y 0.000000 1.725580 0.000000 
#    z 0.000000 0.000000 1.650600 
# 
# From -- ./inp_files/27871.got.cif
#   From: 2010.05.17/outbox.cif.g08.bks.cpg/sg24_14_cif.got.tgz:27871.got - 2010.06.04 00:33:39.
