data_PCOD9334296
_publ_section_title
;
Structure prediction by ZEFSAII (Michael W. Deem and Ramdas Pophale) SiO2 
 PCOD9334296
Probable space group: I 21 21 21
;
_chemical_formula_sum "Si O2"
_cell_formula_units_Z 44
_cell_length_a 10.531817
_cell_length_b 23.779423
_cell_length_c 8.683176
_cell_angle_alpha 90.000000
_cell_angle_beta 90.000000
_cell_angle_gamma 90.000000
_cell_volume 2174.619212
_symmetry_space_group_name_H-M "I 21 21 21"
_symmetry_group_IT_number 24
_symmetry_cell_setting 'orthorhombic'
loop_
_space_group_symop_operation_xyz
x,y,z
-x,1/2-y,z
x,-y,1/2-z
1/2-x,y,-z
1/2+x,1/2+y,1/2+z
1/2-x,-y,1/2+z
1/2+x,1/2-y,-z
-x,1/2+y,1/2-z
loop_
_atom_site_type_symbol
_atom_site_label
_atom_site_fract_x
_atom_site_fract_y
_atom_site_fract_z
Si Si1 0.942950 0.853489 0.596540
Si Si2 0.071478 0.965997 0.489098
Si Si3 0.250000 0.271816 0.500000
Si Si4 0.334143 0.350716 0.777281
Si Si5 0.739387 0.500000 0.250000
Si Si6 0.842140 0.039861 0.369299
Si Si7 0.000000 0.750000 0.818825
O O1 0.909375 0.829505 0.426361
O O2 0.805533 0.870764 0.665494
O O3 0.990619 0.804899 0.709760
O O4 0.032782 0.907537 0.570683
O O5 0.142614 0.008086 0.608194
O O6 0.163336 0.958271 0.339958
O O7 0.946808 0.998629 0.436919
O O8 0.310386 0.308073 0.639385
O O9 0.372552 0.243047 0.421234
O O10 0.400725 0.406331 0.713095
O O11 0.750000 0.061696 0.500000
O O12 0.767930 0.000000 0.250000
#
# Coordination Sequence:
#
# PCOD9334296 Si02
#       7
#     8   8   4   8   4   8   4
#     4  10  21  41  65  94 127 169 213 271 332 394
#     4  11  22  40  59  86 132 169 218 254 307 381
#     4  10  22  44  66  98 134 164 222 284 336 386
#     4  10  20  37  63  99 134 154 203 280 340 390
#     4  10  24  40  54  80 126 182 212 250 288 384
#     4  12  22  34  62 101 125 162 202 263 330 392
#     4  10  24  44  72  98 126 174 224 286 336 390
#
# _framework density 20.233428
#
# number of rings (size 3 to 8) (size 9 to 14) (size 15 to 20)
#    0.000    1.455    3.636    1.091    3.818    0.727 
#    0.000   14.545    0.000    0.000    0.000    0.000 
#    0.000    0.000    0.000    0.000    0.000    0.000 
#
# Total GULP energy -122488.972626 kJ/mol
# GULP energy per Si atom -5567.680574 kJ/mol
# Density = 2.018738 g / cm^3
# Si number density = 20.233428 Si / 1000 Ang^3
#
#
#
# Elastic Constant Matrix: (Units=GPa)
#
#
# Indices 1 2 3 4 5 6 
#
# 1 86.0368 45.4656 53.7786 0.0000 -0.0001 -0.0001
# 2 45.4656 68.7230 41.9227 0.0000 0.0001 0.0001
# 3 53.7786 41.9227 131.8238 -0.0004 0.0003 0.0001
# 4 0.0000 0.0000 -0.0004 26.4399 0.0001 0.0000
# 5 -0.0001 0.0001 0.0003 0.0001 44.3873 0.0000
# 6 -0.0001 0.0001 0.0001 0.0000 0.0000 23.4017
#
#
#
# Elastic Compliance Matrix: (Units=1/GPa)
#
#
# Indices 1 2 3 4 5 6 
#
# 1 0.020172 -0.010329 -0.004944 0.000000 0.000000 0.000000
# 2 -0.010329 0.023343 -0.003210 0.000000 0.000000 0.000000
# 3 -0.004944 -0.003210 0.010624 0.000000 0.000000 0.000000
# 4 0.000000 0.000000 0.000000 0.037822 0.000000 0.000000
# 5 0.000000 0.000000 0.000000 0.000000 0.022529 0.000000
# 6 0.000000 0.000000 0.000000 0.000000 0.000000 0.042732
#
#
# Mechanical properties :
#
#
# Convention : Reuss Voigt Hill
#
# Bulk Modulus (GPa) = 58.23428 63.21306 60.72367
# Shear Modulus (GPa) = 25.01117 28.54023 26.77570
#
# Velocity S-wave (km/s) = 3.51968 3.75980 3.64172
# Velocity P-wave (km/s) = 6.73507 7.08222 6.91083
#
# Compressibility (1/GPa) = 0.01717202
#
# Stress axis : x y z
#
# Youngs Moduli (GPa) = 49.57415 42.84019 94.12896
#
# Poissons Ratio (x) = 0.44250 0.46541
# Poissons Ratio (y) = 0.51205 0.30212
# Poissons Ratio (z) = 0.24512 0.13750
#
# Static dielectric constant tensor:
#      x y z
#    x 1.739210 0.000000 0.000000 
#    y 0.000000 1.692780 0.000000 
#    z 0.000000 0.000000 1.797030 
# 
# From -- ./inp_files/11221.got.cif
#   From: 2010.05.17/outbox.cif.g08.bks.cpg/sg24_6_cif.got.tgz:11221.got - 2010.06.04 00:33:39.
