data_PCOD9334057
_publ_section_title
;
Structure prediction by ZEFSAII (Michael W. Deem and Ramdas Pophale) SiO2 
 PCOD9334057
Probable space group: I 21 21 21
;
_chemical_formula_sum "Si O2"
_cell_formula_units_Z 36
_cell_length_a 8.172944
_cell_length_b 8.974821
_cell_length_c 18.126872
_cell_angle_alpha 90.000000
_cell_angle_beta 90.000000
_cell_angle_gamma 90.000000
_cell_volume 1329.618921
_symmetry_space_group_name_H-M "I 21 21 21"
_symmetry_group_IT_number 24
_symmetry_cell_setting 'orthorhombic'
loop_
_space_group_symop_operation_xyz
x,y,z
-x,1/2-y,z
x,-y,1/2-z
1/2-x,y,-z
1/2+x,1/2+y,1/2+z
1/2-x,-y,1/2+z
1/2+x,1/2-y,-z
-x,1/2+y,1/2-z
loop_
_atom_site_type_symbol
_atom_site_label
_atom_site_fract_x
_atom_site_fract_y
_atom_site_fract_z
Si Si1 0.840463 0.826343 0.736511
Si Si2 0.665040 0.820829 0.093906
Si Si3 0.632566 0.567850 0.901281
Si Si4 0.500000 0.750000 0.767162
Si Si5 0.023813 0.075273 0.950851
O O1 0.832252 0.771022 0.820968
O O2 0.655736 0.785474 0.715059
O O3 0.000000 0.750000 0.701987
O O4 0.867371 0.000000 0.750000
O O5 0.500000 0.750000 0.064576
O O6 0.821879 0.733394 0.068196
O O7 0.635649 0.994470 0.084001
O O8 0.542340 0.608540 0.823228
O O9 0.811942 0.481615 0.906132
O O10 0.536499 0.480206 0.964397
O O11 0.000000 0.250000 0.951997
#
# Coordination Sequence:
#
# PCOD9334057 Si02
#       5
#     8   8   8   4   8
#     4  10  22  43  69  98 127 167 220 285 341 396
#     4   8  17  37  59  83 117 170 222 250 313 411
#     4   9  20  37  57  87 123 179 223 264 317 411
#     4  10  22  44  72  94 128 174 242 268 316 424
#     4  10  20  35  55  92 135 170 216 279 342 384
#
# _framework density 27.075426
#
# number of rings (size 3 to 8) (size 9 to 14) (size 15 to 20)
#    0.000    2.667    0.000    1.333    7.778    1.778 
#   16.000    2.222    0.000    0.000    0.000    0.000 
#    0.000    0.000    0.000    0.000    0.000    0.000 
#
# Total GULP energy -100415.299477 kJ/mol
# GULP energy per Si atom -5578.627749 kJ/mol
# Density = 2.701380 g / cm^3
# Si number density = 27.075426 Si / 1000 Ang^3
#
#
#
# Elastic Constant Matrix: (Units=GPa)
#
#
# Indices 1 2 3 4 5 6 
#
# 1 177.1677 68.1960 11.1048 0.0000 0.0000 0.0000
# 2 68.1960 183.1449 -4.5641 0.0000 0.0000 0.0000
# 3 11.1048 -4.5641 67.9080 0.0000 0.0000 0.0000
# 4 0.0000 0.0000 0.0000 16.8097 0.0000 0.0000
# 5 0.0000 0.0000 0.0000 0.0000 21.4068 0.0000
# 6 0.0000 0.0000 0.0000 0.0000 0.0000 38.6013
#
#
#
# Elastic Compliance Matrix: (Units=1/GPa)
#
#
# Indices 1 2 3 4 5 6 
#
# 1 0.006695 -0.002525 -0.001265 0.000000 0.000000 0.000000
# 2 -0.002525 0.006421 0.000844 0.000000 0.000000 0.000000
# 3 -0.001265 0.000844 0.014989 0.000000 0.000000 0.000000
# 4 0.000000 0.000000 0.000000 0.059490 0.000000 0.000000
# 5 0.000000 0.000000 0.000000 0.000000 0.046714 0.000000
# 6 0.000000 0.000000 0.000000 0.000000 0.000000 0.025906
#
#
# Mechanical properties :
#
#
# Convention : Reuss Voigt Hill
#
# Bulk Modulus (GPa) = 45.01161 64.18824 54.59993
# Shear Modulus (GPa) = 28.81670 38.92916 33.87293
#
# Velocity S-wave (km/s) = 3.26592 3.79595 3.54087
# Velocity P-wave (km/s) = 5.55718 6.55523 6.07673
#
# Compressibility (1/GPa) = 0.02221649
#
# Stress axis : x y z
#
# Youngs Moduli (GPa) = 149.35584 155.73238 66.71408
#
# Poissons Ratio (x) = 0.39317 0.08436
# Poissons Ratio (y) = 0.37707 -0.05633
# Poissons Ratio (z) = 0.18887 -0.13150
#
# Static dielectric constant tensor:
#      x y z
#    x 2.323890 0.000000 0.000000 
#    y 0.000000 2.169940 0.000000 
#    z 0.000000 0.000000 2.260190 
# 
# From -- ./inp_files/36723.got.cif
#   From: 2010.05.17/outbox.cif.g08.bks.cpg/sg24_19_cif.got.tgz:36723.got - 2010.06.04 00:33:39.
