data_PCOD9334360
_publ_section_title
;
Structure prediction by ZEFSAII (Michael W. Deem and Ramdas Pophale) SiO2 
 PCOD9334360
Probable space group: I 21 21 21
;
_chemical_formula_sum "Si O2"
_cell_formula_units_Z 40
_cell_length_a 13.053019
_cell_length_b 8.713741
_cell_length_c 17.969090
_cell_angle_alpha 90.000000
_cell_angle_beta 90.000000
_cell_angle_gamma 90.000000
_cell_volume 2043.815560
_symmetry_space_group_name_H-M "I 21 21 21"
_symmetry_group_IT_number 24
_symmetry_cell_setting 'orthorhombic'
loop_
_space_group_symop_operation_xyz
x,y,z
-x,1/2-y,z
x,-y,1/2-z
1/2-x,y,-z
1/2+x,1/2+y,1/2+z
1/2-x,-y,1/2+z
1/2+x,1/2-y,-z
-x,1/2+y,1/2-z
loop_
_atom_site_type_symbol
_atom_site_label
_atom_site_fract_x
_atom_site_fract_y
_atom_site_fract_z
Si Si1 0.500000 0.250000 0.434985
Si Si2 0.853224 0.089796 0.328661
Si Si3 0.631111 0.489466 0.985247
Si Si4 0.000000 0.750000 0.579039
Si Si5 0.587404 0.563683 0.832410
Si Si6 0.129837 0.494425 0.659355
O O1 0.571677 0.356484 0.487362
O O2 0.431701 0.356204 0.380414
O O3 0.851942 0.275132 0.326855
O O4 0.749160 0.026127 0.364363
O O5 0.968297 0.070064 0.358442
O O6 0.855975 0.000000 0.250000
O O7 0.631782 0.460487 0.896902
O O8 0.750000 0.507133 0.000000
O O9 0.572567 0.355672 0.028418
O O10 0.074470 0.645582 0.628863
O O11 0.588993 0.500000 0.750000
O O12 0.125574 0.500000 0.750000
#
# Coordination Sequence:
#
# PCOD9334360 Si02
#       6
#     4   8   8   4   8   8
#     4  10  21  38  59  84 118 156 196 248 297 352
#     4   9  19  35  59  88 116 151 195 243 293 341
#     4  11  24  41  60  87 122 158 196 243 302 354
#     4  10  25  40  57  88 120 156 202 250 299 352
#     4  10  21  38  60  88 119 153 198 244 289 354
#     4  10  20  38  61  86 117 158 202 245 294 352
#
# _framework density 19.571238000000001
#
# number of rings (size 3 to 8) (size 9 to 14) (size 15 to 20)
#    0.000    2.000    0.000    3.000    0.000    8.000 
#    0.000    9.000    0.000    0.000    0.000    0.000 
#    0.000    0.000    0.000    0.000    0.000    0.000 
#
# Total GULP energy -111369.697481 kJ/mol
# GULP energy per Si atom -5568.484874 kJ/mol
# Density = 1.952669 g / cm^3
# Si number density = 19.571238 Si / 1000 Ang^3
#
#
#
# Elastic Constant Matrix: (Units=GPa)
#
#
# Indices 1 2 3 4 5 6 
#
# 1 151.7369 58.1988 47.5116 0.0000 0.0000 0.0000
# 2 58.1988 91.3564 33.9092 0.0000 0.0000 0.0000
# 3 47.5116 33.9092 116.1995 0.0000 0.0000 0.0000
# 4 0.0000 0.0000 0.0000 14.0471 0.0000 0.0000
# 5 0.0000 0.0000 0.0000 0.0000 -8.1922 0.0000
# 6 0.0000 0.0000 0.0000 0.0000 0.0000 37.0801
#
#
#
# Elastic Compliance Matrix: (Units=1/GPa)
#
#
# Indices 1 2 3 4 5 6 
#
# 1 0.009244 -0.005031 -0.002311 0.000000 0.000000 0.000000
# 2 -0.005031 0.015014 -0.002324 0.000000 0.000000 0.000000
# 3 -0.002311 -0.002324 0.010229 0.000000 0.000000 0.000000
# 4 0.000000 0.000000 0.000000 0.071189 0.000000 0.000000
# 5 0.000000 0.000000 0.000000 0.000000 -0.122067 0.000000
# 6 0.000000 0.000000 0.000000 0.000000 0.000000 0.026969
#
#
# Mechanical properties :
#
#
# Convention : Reuss Voigt Hill
#
# Bulk Modulus (GPa) = 65.99097 70.94800 68.46949
# Shear Modulus (GPa) = 143.01665 23.23189 83.12427
#
# Velocity S-wave (km/s) = 8.55766 3.44909 6.52418
# Velocity P-wave (km/s) = 11.46457 7.22436 9.58196
#
# Compressibility (1/GPa) = 0.01515359
#
# Stress axis : x y z
#
# Youngs Moduli (GPa) = 108.18223 66.60581 97.75854
#
# Poissons Ratio (x) = 0.33508 0.22597
# Poissons Ratio (y) = 0.54424 0.22722
# Poissons Ratio (z) = 0.25006 0.15481
#
# Static dielectric constant tensor:
#      x y z
#    x 1.694860 0.000000 0.000000 
#    y 0.000000 1.691900 0.000000 
#    z 0.000000 0.000000 1.663250 
# 
# From -- ./inp_files/10748.got.cif
#   From: 2010.05.17/outbox.cif.g08.bks.cpg/sg24_6_cif.got.tgz:10748.got - 2010.06.04 00:33:39.
