data_PCOD9334439
_publ_section_title
;
Structure prediction by ZEFSAII (Michael W. Deem and Ramdas Pophale) SiO2 
 PCOD9334439
Probable space group: I 21 21 21
;
_chemical_formula_sum "Si O2"
_cell_formula_units_Z 40
_cell_length_a 17.541383
_cell_length_b 10.659600
_cell_length_c 9.757047
_cell_angle_alpha 90.000000
_cell_angle_beta 90.000000
_cell_angle_gamma 90.000000
_cell_volume 1824.412908
_symmetry_space_group_name_H-M "I 21 21 21"
_symmetry_group_IT_number 24
_symmetry_cell_setting 'orthorhombic'
loop_
_space_group_symop_operation_xyz
x,y,z
-x,1/2-y,z
x,-y,1/2-z
1/2-x,y,-z
1/2+x,1/2+y,1/2+z
1/2-x,-y,1/2+z
1/2+x,1/2-y,-z
-x,1/2+y,1/2-z
loop_
_atom_site_type_symbol
_atom_site_label
_atom_site_fract_x
_atom_site_fract_y
_atom_site_fract_z
Si Si1 0.250000 0.235359 0.500000
Si Si2 0.000000 0.250000 0.977536
Si Si3 0.836791 0.272904 0.017260
Si Si4 0.023513 0.974438 0.106962
Si Si5 0.141719 0.042403 0.599855
Si Si6 0.863868 0.864840 0.200669
O O1 0.207676 0.144267 0.607194
O O2 0.311628 0.314715 0.580377
O O3 0.088396 0.262136 0.922489
O O4 0.994755 0.385842 0.051325
O O5 0.861515 0.228721 0.169486
O O6 0.750000 0.222567 0.000000
O O7 0.832027 0.420904 0.986619
O O8 0.066358 0.000000 0.250000
O O9 0.948650 0.896446 0.146929
O O10 0.072545 0.906773 0.991831
O O11 0.117672 0.000000 0.750000
O O12 0.833728 0.000000 0.250000
#
# Coordination Sequence:
#
# PCOD9334439 Si02
#       6
#     4   4   8   8   8   8
#     4  12  28  42  72 106 154 192 248 316 376 468
#     4  10  20  38  68 106 136 194 240 302 364 434
#     4  11  22  42  76 101 152 194 252 308 371 455
#     4  10  22  42  74 106 142 190 257 295 372 451
#     4  11  26  46  70 114 145 193 252 314 386 440
#     4  11  25  45  71 110 144 200 252 306 383 455
#
# _framework density 21.924862000000001
#
# number of rings (size 3 to 8) (size 9 to 14) (size 15 to 20)
#    0.000    1.200    5.000    1.200    7.000    0.800 
#    0.000   13.000    0.000    0.000    0.000    0.000 
#    0.000    0.000    0.000    0.000    0.000    0.000 
#
# Total GULP energy -111415.782911 kJ/mol
# GULP energy per Si atom -5570.789146 kJ/mol
# Density = 2.187496 g / cm^3
# Si number density = 21.924862 Si / 1000 Ang^3
#
#
#
# Elastic Constant Matrix: (Units=GPa)
#
#
# Indices 1 2 3 4 5 6 
#
# 1 158.6447 20.4037 43.2098 0.0000 0.0000 0.0000
# 2 20.4037 85.6937 21.6049 0.0000 0.0000 0.0000
# 3 43.2098 21.6049 92.7736 0.0000 0.0000 0.0000
# 4 0.0000 0.0000 0.0000 23.8651 0.0000 0.0000
# 5 0.0000 0.0000 0.0000 0.0000 22.1138 0.0000
# 6 0.0000 0.0000 0.0000 0.0000 0.0000 31.8537
#
#
#
# Elastic Compliance Matrix: (Units=1/GPa)
#
#
# Indices 1 2 3 4 5 6 
#
# 1 0.007289 -0.000934 -0.003177 0.000000 0.000000 0.000000
# 2 -0.000934 0.012517 -0.002480 0.000000 0.000000 0.000000
# 3 -0.003177 -0.002480 0.012836 0.000000 0.000000 0.000000
# 4 0.000000 0.000000 0.000000 0.041902 0.000000 0.000000
# 5 0.000000 0.000000 0.000000 0.000000 0.045221 0.000000
# 6 0.000000 0.000000 0.000000 0.000000 0.000000 0.031394
#
#
# Mechanical properties :
#
#
# Convention : Reuss Voigt Hill
#
# Bulk Modulus (GPa) = 51.38894 56.39429 53.89162
# Shear Modulus (GPa) = 29.26921 32.35944 30.81433
#
# Velocity S-wave (km/s) = 3.65770 3.84594 3.75300
# Velocity P-wave (km/s) = 6.42868 6.74531 6.58889
#
# Compressibility (1/GPa) = 0.01945944
#
# Stress axis : x y z
#
# Youngs Moduli (GPa) = 137.19379 79.89039 77.90457
#
# Poissons Ratio (x) = 0.07465 0.24752
# Poissons Ratio (y) = 0.12820 0.19318
# Poissons Ratio (z) = 0.43590 0.19811
#
# Static dielectric constant tensor:
#      x y z
#    x 1.920810 0.000000 0.000000 
#    y 0.000000 1.811160 0.000000 
#    z 0.000000 0.000000 1.803480 
# 
# From -- ./inp_files/10764.got.cif
#   From: 2010.05.17/outbox.cif.g08.bks.cpg/sg24_6_cif.got.tgz:10764.got - 2010.06.04 00:33:39.
