data_PCOD9334722
_publ_section_title
;
Structure prediction by ZEFSAII (Michael W. Deem and Ramdas Pophale) SiO2 
 PCOD9334722
Probable space group: I 21 21 21
;
_chemical_formula_sum "Si O2"
_cell_formula_units_Z 48
_cell_length_a 11.923050
_cell_length_b 9.188968
_cell_length_c 18.367740
_cell_angle_alpha 90.000000
_cell_angle_beta 90.000000
_cell_angle_gamma 90.000000
_cell_volume 2012.379236
_symmetry_space_group_name_H-M "I 21 21 21"
_symmetry_group_IT_number 24
_symmetry_cell_setting 'orthorhombic'
loop_
_space_group_symop_operation_xyz
x,y,z
-x,1/2-y,z
x,-y,1/2-z
1/2-x,y,-z
1/2+x,1/2+y,1/2+z
1/2-x,-y,1/2+z
1/2+x,1/2-y,-z
-x,1/2+y,1/2-z
loop_
_atom_site_type_symbol
_atom_site_label
_atom_site_fract_x
_atom_site_fract_y
_atom_site_fract_z
Si Si1 0.440685 0.094578 0.993148
Si Si2 0.603701 0.331572 0.770513
Si Si3 0.234962 0.739551 0.829819
Si Si4 0.260133 0.940564 0.382328
Si Si5 0.429789 0.387892 0.203812
Si Si6 0.583288 0.110490 0.425797
O O1 0.500000 0.250000 0.980949
O O2 0.362563 0.102277 0.065973
O O3 0.532036 0.966743 0.004107
O O4 0.351084 0.046709 0.932366
O O5 0.500000 0.250000 0.805885
O O6 0.581114 0.500000 0.750000
O O7 0.639168 0.238594 0.699733
O O8 0.713610 0.330516 0.821859
O O9 0.211833 0.910452 0.841124
O O10 0.159669 0.658144 0.767708
O O11 0.205260 0.676793 0.909320
O O12 0.500000 0.250000 0.185577
O O13 0.504987 0.500000 0.250000
O O14 0.407179 0.527748 0.370567
O O15 0.500000 0.250000 0.407817
#
# Coordination Sequence:
#
# PCOD9334722 Si02
#       6
#     8   8   8   8   8   8
#     4  11  24  43  71  98 136 190 242 299 348 422
#     4  10  23  42  67  95 133 181 223 287 353 421
#     4  10  21  39  67 101 135 177 223 288 365 426
#     4  10  23  44  70  93 139 186 236 284 358 431
#     4  10  21  32  57 102 140 174 211 286 365 426
#     4  11  22  39  65 103 145 178 227 288 363 435
#
# _framework density 23.852364000000001
#
# number of rings (size 3 to 8) (size 9 to 14) (size 15 to 20)
#    0.000    1.667    1.667    3.000    4.667    4.000 
#    0.000    3.333    7.333    0.000    0.000    0.000 
#    0.000    0.000    0.000    0.000    0.000    0.000 
#
# Total GULP energy -133612.837424 kJ/mol
# GULP energy per Si atom -5567.201559 kJ/mol
# Density = 2.379807 g / cm^3
# Si number density = 23.852364 Si / 1000 Ang^3
#
#
#
# Elastic Constant Matrix: (Units=GPa)
#
#
# Indices 1 2 3 4 5 6 
#
# 1 58.5200 28.8083 20.1942 0.0000 0.0000 0.0000
# 2 28.8083 101.0760 23.4942 0.0000 0.0000 0.0000
# 3 20.1942 23.4942 60.4930 0.0000 0.0000 0.0000
# 4 0.0000 0.0000 0.0000 8.9808 0.0000 0.0000
# 5 0.0000 0.0000 0.0000 0.0000 63.4504 0.0000
# 6 0.0000 0.0000 0.0000 0.0000 0.0000 38.8758
#
#
#
# Elastic Compliance Matrix: (Units=1/GPa)
#
#
# Indices 1 2 3 4 5 6 
#
# 1 0.021277 -0.004851 -0.005219 0.000000 0.000000 0.000000
# 2 -0.004851 0.011981 -0.003034 0.000000 0.000000 0.000000
# 3 -0.005219 -0.003034 0.019451 0.000000 0.000000 0.000000
# 4 0.000000 0.000000 0.000000 0.111349 0.000000 0.000000
# 5 0.000000 0.000000 0.000000 0.000000 0.015760 0.000000
# 6 0.000000 0.000000 0.000000 0.000000 0.000000 0.025723
#
#
# Mechanical properties :
#
#
# Convention : Reuss Voigt Hill
#
# Bulk Modulus (GPa) = 37.73279 40.56470 39.14875
# Shear Modulus (GPa) = 20.78277 32.10089 26.44183
#
# Velocity S-wave (km/s) = 2.95500 3.67252 3.33312
# Velocity P-wave (km/s) = 5.24369 5.91833 5.59120
#
# Compressibility (1/GPa) = 0.02650215
#
# Stress axis : x y z
#
# Youngs Moduli (GPa) = 46.99841 83.46250 51.41043
#
# Poissons Ratio (x) = 0.40490 0.26830
# Poissons Ratio (y) = 0.22800 0.15597
# Poissons Ratio (z) = 0.24528 0.25321
#
# Static dielectric constant tensor:
#      x y z
#    x 1.925260 0.000000 0.000000 
#    y 0.000000 1.956130 0.000000 
#    z 0.000000 0.000000 2.002640 
# 
# From -- ./inp_files/35539.got.cif
#   From: 2010.05.17/outbox.cif.g08.bks.cpg/sg24_18_cif.got.tgz:35539.got - 2010.06.04 00:33:39.
