data_PCOD9334370
_publ_section_title
;
Structure prediction by ZEFSAII (Michael W. Deem and Ramdas Pophale) SiO2 
 PCOD9334370
Probable space group: I 21 21 21
;
_chemical_formula_sum "Si O2"
_cell_formula_units_Z 28
_cell_length_a 5.015948
_cell_length_b 11.661259
_cell_length_c 21.319895
_cell_angle_alpha 90.000000
_cell_angle_beta 90.000000
_cell_angle_gamma 90.000000
_cell_volume 1247.049028
_symmetry_space_group_name_H-M "I 21 21 21"
_symmetry_group_IT_number 24
_symmetry_cell_setting 'orthorhombic'
loop_
_space_group_symop_operation_xyz
x,y,z
-x,1/2-y,z
x,-y,1/2-z
1/2-x,y,-z
1/2+x,1/2+y,1/2+z
1/2-x,-y,1/2+z
1/2+x,1/2-y,-z
-x,1/2+y,1/2-z
loop_
_atom_site_type_symbol
_atom_site_label
_atom_site_fract_x
_atom_site_fract_y
_atom_site_fract_z
Si Si1 0.753594 0.165366 0.930215
Si Si2 0.250000 0.167273 0.500000
Si Si3 0.821641 0.634659 0.134049
Si Si4 0.187484 0.522196 0.821422
O O1 0.500000 0.250000 0.920076
O O2 0.000000 0.250000 0.933638
O O3 0.813222 0.079070 0.872930
O O4 0.750000 0.108168 0.000000
O O5 0.500000 0.250000 0.483726
O O6 0.321760 0.096128 0.561347
O O7 0.517398 0.620585 0.155063
O O8 0.000000 0.750000 0.132647
O O9 0.003598 0.557294 0.177772
O O10 0.109708 0.500000 0.750000
#
# Coordination Sequence:
#
# PCOD9334370 Si02
#       4
#     8   4   8   8
#     4  10  23  44  68  94 127 174 232 285 332 391
#     4  10  20  38  62  94 126 164 218 262 328 410
#     4  11  24  42  66  97 137 175 217 272 346 415
#     4  12  26  42  66 101 135 179 229 281 348 418
#
# _framework density 22.453005999999998
#
# number of rings (size 3 to 8) (size 9 to 14) (size 15 to 20)
#    0.000    1.143    0.000    6.857    4.000    3.429 
#    0.000    0.000    0.000    0.000    0.000    0.000 
#    0.000    0.000    0.000    0.000    0.000    0.000 
#
# Total GULP energy -78071.027035 kJ/mol
# GULP energy per Si atom -5576.501931 kJ/mol
# Density = 2.240190 g / cm^3
# Si number density = 22.453006 Si / 1000 Ang^3
#
#
#
# Elastic Constant Matrix: (Units=GPa)
#
#
# Indices 1 2 3 4 5 6 
#
# 1 152.3057 21.6725 28.5554 0.0000 0.0000 0.0000
# 2 21.6725 53.8100 63.3901 0.0000 0.0000 0.0000
# 3 28.5554 63.3901 190.9388 0.0000 0.0000 0.0000
# 4 0.0000 0.0000 0.0000 -19.9349 0.0000 0.0000
# 5 0.0000 0.0000 0.0000 0.0000 34.8224 0.0000
# 6 0.0000 0.0000 0.0000 0.0000 0.0000 37.3114
#
#
#
# Elastic Compliance Matrix: (Units=1/GPa)
#
#
# Indices 1 2 3 4 5 6 
#
# 1 0.006969 -0.002593 -0.000181 0.000000 0.000000 0.000000
# 2 -0.002593 0.031485 -0.010065 0.000000 0.000000 0.000000
# 3 -0.000181 -0.010065 0.008606 0.000000 0.000000 0.000000
# 4 0.000000 0.000000 0.000000 -0.050163 0.000000 0.000000
# 5 0.000000 0.000000 0.000000 0.000000 0.028717 0.000000
# 6 0.000000 0.000000 0.000000 0.000000 0.000000 0.026801
#
#
# Mechanical properties :
#
#
# Convention : Reuss Voigt Hill
#
# Bulk Modulus (GPa) = 46.77059 69.36562 58.06810
# Shear Modulus (GPa) = 58.67086 29.33555 44.00320
#
# Velocity S-wave (km/s) = 5.11735 3.61852 4.43176
# Velocity P-wave (km/s) = 7.46940 6.95838 7.21841
#
# Compressibility (1/GPa) = 0.02138096
#
# Stress axis : x y z
#
# Youngs Moduli (GPa) = 143.49824 31.76082 116.19927
#
# Poissons Ratio (x) = 0.08236 0.02106
# Poissons Ratio (y) = 0.37211 1.16955
# Poissons Ratio (z) = 0.02601 0.31967
#
# Static dielectric constant tensor:
#      x y z
#    x 1.775760 0.000000 0.000000 
#    y 0.000000 1.848040 0.000000 
#    z 0.000000 0.000000 1.876090 
# 
# From -- ./inp_files/21858.got.cif
#   From: 2010.05.17/outbox.cif.g08.bks.cpg/sg24_11_cif.got.tgz:21858.got - 2010.06.04 00:33:39.
