data_PCOD9334128
_publ_section_title
;
Structure prediction by ZEFSAII (Michael W. Deem and Ramdas Pophale) SiO2 
 PCOD9334128
Probable space group: I 21 21 21
;
_chemical_formula_sum "Si O2"
_cell_formula_units_Z 32
_cell_length_a 24.335388
_cell_length_b 14.027077
_cell_length_c 5.198560
_cell_angle_alpha 90.000000
_cell_angle_beta 90.000000
_cell_angle_gamma 90.000000
_cell_volume 1774.551128
_symmetry_space_group_name_H-M "I 21 21 21"
_symmetry_group_IT_number 24
_symmetry_cell_setting 'orthorhombic'
loop_
_space_group_symop_operation_xyz
x,y,z
-x,1/2-y,z
x,-y,1/2-z
1/2-x,y,-z
1/2+x,1/2+y,1/2+z
1/2-x,-y,1/2+z
1/2+x,1/2-y,-z
-x,1/2+y,1/2-z
loop_
_atom_site_type_symbol
_atom_site_label
_atom_site_fract_x
_atom_site_fract_y
_atom_site_fract_z
Si Si1 0.046641 0.500000 0.250000
Si Si2 0.750000 0.066474 0.000000
Si Si3 0.060379 0.903621 0.141511
Si Si4 0.370390 0.398866 0.097685
Si Si5 0.062628 0.216727 0.835708
O O1 0.087019 0.576137 0.372939
O O2 0.002537 0.559850 0.084678
O O3 0.807561 0.121163 0.978113
O O4 0.744416 0.000000 0.750000
O O5 0.062863 0.827309 0.374967
O O6 0.087899 0.000000 0.250000
O O7 0.079497 0.862042 0.873312
O O8 0.369451 0.500000 0.250000
O O9 0.397511 0.305913 0.216406
O O10 0.000000 0.250000 0.787434
#
# Coordination Sequence:
#
# PCOD9334128 Si02
#       5
#     4   4   8   8   8
#     4  10  20  36  54  78 118 154 182 234 282 342
#     4  10  22  38  56  78 114 158 196 228 278 326
#     4  10  23  35  53  80 115 143 187 232 277 343
#     4  11  23  36  57  81 120 153 192 232 280 343
#     4  12  21  34  55  82 109 156 184 225 288 337
#
# _framework density 18.032730000000001
#
# number of rings (size 3 to 8) (size 9 to 14) (size 15 to 20)
#    0.750    0.500    3.750    3.000    3.500    0.000 
#    0.000    0.000    0.000    0.000    0.000    3.500 
#    0.000    0.000    0.000    0.000    0.000    0.000 
#
# Total GULP energy -89071.535535 kJ/mol
# GULP energy per Si atom -5566.970971 kJ/mol
# Density = 1.799169 g / cm^3
# Si number density = 18.032730 Si / 1000 Ang^3
#
#
#
# Elastic Constant Matrix: (Units=GPa)
#
#
# Indices 1 2 3 4 5 6 
#
# 1 104.3442 41.5438 8.0844 0.0000 0.0000 0.0000
# 2 41.5438 74.5708 7.7202 0.0000 0.0000 0.0000
# 3 8.0844 7.7202 53.0971 0.0000 0.0000 0.0000
# 4 0.0000 0.0000 0.0000 40.4543 0.0000 0.0000
# 5 0.0000 0.0000 0.0000 0.0000 8.5090 0.0000
# 6 0.0000 0.0000 0.0000 0.0000 0.0000 19.6712
#
#
#
# Elastic Compliance Matrix: (Units=1/GPa)
#
#
# Indices 1 2 3 4 5 6 
#
# 1 0.012357 -0.006792 -0.000894 0.000000 0.000000 0.000000
# 2 -0.006792 0.017348 -0.001488 0.000000 0.000000 0.000000
# 3 -0.000894 -0.001488 0.019186 0.000000 0.000000 0.000000
# 4 0.000000 0.000000 0.000000 0.024719 0.000000 0.000000
# 5 0.000000 0.000000 0.000000 0.000000 0.117523 0.000000
# 6 0.000000 0.000000 0.000000 0.000000 0.000000 0.050836
#
#
# Mechanical properties :
#
#
# Convention : Reuss Voigt Hill
#
# Bulk Modulus (GPa) = 32.74068 38.52324 35.63196
# Shear Modulus (GPa) = 18.48450 25.37114 21.92782
#
# Velocity S-wave (km/s) = 3.20512 3.75500 3.49090
# Velocity P-wave (km/s) = 5.64736 6.34109 6.00425
#
# Compressibility (1/GPa) = 0.03054305
#
# Stress axis : x y z
#
# Youngs Moduli (GPa) = 80.92621 57.64430 52.12153
#
# Poissons Ratio (x) = 0.39150 0.04659
# Poissons Ratio (y) = 0.54962 0.07757
# Poissons Ratio (z) = 0.07234 0.08579
#
# Static dielectric constant tensor:
#      x y z
#    x 1.606180 0.000000 0.000000 
#    y 0.000000 1.685100 0.000000 
#    z 0.000000 0.000000 1.688590 
# 
# From -- ./inp_files/6873.got.cif
#   From: 2010.05.17/outbox.cif.g08.bks.cpg/sg24_4_cif.got.tgz:6873.got - 2010.06.04 00:33:39.
