data_PCOD9334223
_publ_section_title
;
Structure prediction by ZEFSAII (Michael W. Deem and Ramdas Pophale) SiO2 
 PCOD9334223
Probable space group: I 21 21 21
;
_chemical_formula_sum "Si O2"
_cell_formula_units_Z 40
_cell_length_a 10.910866
_cell_length_b 11.490862
_cell_length_c 15.912652
_cell_angle_alpha 90.000000
_cell_angle_beta 90.000000
_cell_angle_gamma 90.000000
_cell_volume 1995.052810
_symmetry_space_group_name_H-M "I 21 21 21"
_symmetry_group_IT_number 24
_symmetry_cell_setting 'orthorhombic'
loop_
_space_group_symop_operation_xyz
x,y,z
-x,1/2-y,z
x,-y,1/2-z
1/2-x,y,-z
1/2+x,1/2+y,1/2+z
1/2-x,-y,1/2+z
1/2+x,1/2-y,-z
-x,1/2+y,1/2-z
loop_
_atom_site_type_symbol
_atom_site_label
_atom_site_fract_x
_atom_site_fract_y
_atom_site_fract_z
Si Si1 0.135711 0.879918 0.447098
Si Si2 0.122659 0.290683 0.607545
Si Si3 0.159565 0.595235 0.189695
Si Si4 0.250000 0.897465 0.000000
Si Si5 0.887639 0.017166 0.010267
Si Si6 0.500000 0.750000 0.695278
O O1 0.250000 0.829656 0.500000
O O2 0.102600 0.805867 0.365606
O O3 0.184856 0.013259 0.435307
O O4 0.005220 0.898923 0.495091
O O5 0.240975 0.309243 0.664184
O O6 0.153181 0.188295 0.542002
O O7 0.105969 0.411304 0.556412
O O8 0.000000 0.250000 0.653121
O O9 0.221226 0.500000 0.250000
O O10 0.111071 0.537308 0.104133
O O11 0.054223 0.651348 0.245271
O O12 0.750000 0.067072 0.000000
#
# Coordination Sequence:
#
# PCOD9334223 Si02
#       6
#     8   8   8   4   8   4
#     4  10  23  41  61  93 123 161 213 264 309 378
#     4  11  20  38  66  95 120 165 217 262 311 372
#     4  11  24  39  60  93 132 162 209 256 328 378
#     4  10  20  36  66  92 120 150 228 260 300 364
#     4  10  20  38  67  96 120 166 210 266 300 378
#     4  12  26  40  62  90 132 166 202 264 332 378
#
# _framework density 20.049595
#
# number of rings (size 3 to 8) (size 9 to 14) (size 15 to 20)
#    0.600    0.800    7.000    0.000    4.200    0.800 
#    0.000    6.000    0.000    0.000    0.000    0.000 
#    0.000    0.000    0.000    0.000    0.000    0.000 
#
# Total GULP energy -111466.508265 kJ/mol
# GULP energy per Si atom -5573.325413 kJ/mol
# Density = 2.000396 g / cm^3
# Si number density = 20.049595 Si / 1000 Ang^3
#
#
#
# Elastic Constant Matrix: (Units=GPa)
#
#
# Indices 1 2 3 4 5 6 
#
# 1 136.2521 13.8138 36.2383 0.0000 0.0000 0.0000
# 2 13.8138 66.1345 15.6534 0.0000 0.0000 0.0000
# 3 36.2383 15.6534 73.9839 0.0000 0.0000 0.0000
# 4 0.0000 0.0000 0.0000 3.3444 0.0000 0.0000
# 5 0.0000 0.0000 0.0000 0.0000 30.5166 0.0000
# 6 0.0000 0.0000 0.0000 0.0000 0.0000 21.7485
#
#
#
# Elastic Compliance Matrix: (Units=1/GPa)
#
#
# Indices 1 2 3 4 5 6 
#
# 1 0.008482 -0.000830 -0.003979 0.000000 0.000000 0.000000
# 2 -0.000830 0.015999 -0.002979 0.000000 0.000000 0.000000
# 3 -0.003979 -0.002979 0.016096 0.000000 0.000000 0.000000
# 4 0.000000 0.000000 0.000000 0.299010 0.000000 0.000000
# 5 0.000000 0.000000 0.000000 0.000000 0.032769 0.000000
# 6 0.000000 0.000000 0.000000 0.000000 0.000000 0.045980
#
#
# Mechanical properties :
#
#
# Convention : Reuss Voigt Hill
#
# Bulk Modulus (GPa) = 39.99729 45.30907 42.65318
# Shear Modulus (GPa) = 11.30598 25.16622 18.23610
#
# Velocity S-wave (km/s) = 2.37724 3.54672 3.01915
# Velocity P-wave (km/s) = 5.24666 6.27852 5.78564
#
# Compressibility (1/GPa) = 0.02500169
#
# Stress axis : x y z
#
# Youngs Moduli (GPa) = 117.90071 62.50374 62.12888
#
# Poissons Ratio (x) = 0.05187 0.24720
# Poissons Ratio (y) = 0.09784 0.18506
# Poissons Ratio (z) = 0.46911 0.18617
#
# Static dielectric constant tensor:
#      x y z
#    x 1.775670 0.000000 0.000000 
#    y 0.000000 1.775890 0.000000 
#    z 0.000000 0.000000 1.683640 
# 
# From -- ./inp_files/25597.got.cif
#   From: 2010.05.17/outbox.cif.g08.bks.cpg/sg24_13_cif.got.tgz:25597.got - 2010.06.04 00:33:39.
