data_PCOD9334792
_publ_section_title
;
Structure prediction by ZEFSAII (Michael W. Deem and Ramdas Pophale) SiO2 
 PCOD9334792
Probable space group: I 21 21 21
;
_chemical_formula_sum "Si O2"
_cell_formula_units_Z 56
_cell_length_a 13.584986
_cell_length_b 11.691959
_cell_length_c 15.973595
_cell_angle_alpha 90.000000
_cell_angle_beta 90.000000
_cell_angle_gamma 90.000000
_cell_volume 2537.167548
_symmetry_space_group_name_H-M "I 21 21 21"
_symmetry_group_IT_number 24
_symmetry_cell_setting 'orthorhombic'
loop_
_space_group_symop_operation_xyz
x,y,z
-x,1/2-y,z
x,-y,1/2-z
1/2-x,y,-z
1/2+x,1/2+y,1/2+z
1/2-x,-y,1/2+z
1/2+x,1/2-y,-z
-x,1/2+y,1/2-z
loop_
_atom_site_type_symbol
_atom_site_label
_atom_site_fract_x
_atom_site_fract_y
_atom_site_fract_z
Si Si1 0.500000 0.250000 0.561793
Si Si2 0.902114 0.320788 0.919345
Si Si3 0.111437 0.441154 0.132631
Si Si4 0.246518 0.908692 0.822138
Si Si5 0.913003 0.476408 0.450792
Si Si6 0.040193 0.876584 0.768490
Si Si7 0.344275 0.674026 0.799104
Si Si8 0.750000 0.832918 0.500000
O O1 0.539164 0.359670 0.513161
O O2 0.416138 0.285254 0.627173
O O3 0.914711 0.350273 0.822895
O O4 0.000000 0.250000 0.943777
O O5 0.895342 0.427276 0.981340
O O6 0.806102 0.244513 0.932823
O O7 0.177659 0.546836 0.167066
O O8 0.110604 0.348388 0.207234
O O9 0.999534 0.478962 0.112450
O O10 0.165772 0.400973 0.049047
O O11 0.313950 0.943881 0.900684
O O12 0.129181 0.909480 0.830062
O O13 0.269211 0.778204 0.794957
O O14 0.272802 0.000000 0.750000
O O15 0.000000 0.750000 0.793967
O O16 0.983456 0.000000 0.750000
#
# Coordination Sequence:
#
# PCOD9334792 Si02
#       8
#     4   8   8   8   8   8   8   4
#     4   8  18  34  60  88 136 164 212 274 340 426
#     4  11  24  42  66  99 137 183 235 293 357 430
#     4  10  21  36  60  94 132 177 226 275 355 422
#     4  10  22  37  66  96 130 170 224 290 354 423
#     4  10  21  38  63  97 132 177 221 290 355 415
#     4  10  24  49  69  97 132 183 244 297 353 429
#     4   9  19  35  56  93 127 170 216 271 344 418
#     4  12  24  38  64  98 138 180 230 292 358 438
#
# _framework density 22.071857000000001
#
# number of rings (size 3 to 8) (size 9 to 14) (size 15 to 20)
#    0.000    2.000    1.429    0.857   12.000    0.000 
#    9.000    0.000   15.714    0.000    0.000    0.000 
#    0.000    0.000    0.000    0.000    0.000    0.000 
#
# Total GULP energy -156074.277078 kJ/mol
# GULP energy per Si atom -5574.081324 kJ/mol
# Density = 2.202162 g / cm^3
# Si number density = 22.071857 Si / 1000 Ang^3
#
#
#
# Elastic Constant Matrix: (Units=GPa)
#
#
# Indices 1 2 3 4 5 6 
#
# 1 69.8592 40.3946 16.6012 0.0000 0.0000 0.0000
# 2 40.3946 121.7359 24.8013 0.0000 0.0000 0.0000
# 3 16.6012 24.8013 72.5414 0.0000 0.0000 0.0000
# 4 0.0000 0.0000 0.0000 35.2573 0.0000 0.0000
# 5 0.0000 0.0000 0.0000 0.0000 18.5089 0.0000
# 6 0.0000 0.0000 0.0000 0.0000 0.0000 33.1204
#
#
#
# Elastic Compliance Matrix: (Units=1/GPa)
#
#
# Indices 1 2 3 4 5 6 
#
# 1 0.018045 -0.005532 -0.002238 0.000000 0.000000 0.000000
# 2 -0.005532 0.010525 -0.002333 0.000000 0.000000 0.000000
# 3 -0.002238 -0.002333 0.015095 0.000000 0.000000 0.000000
# 4 0.000000 0.000000 0.000000 0.028363 0.000000 0.000000
# 5 0.000000 0.000000 0.000000 0.000000 0.054028 0.000000
# 6 0.000000 0.000000 0.000000 0.000000 0.000000 0.030193
#
#
# Mechanical properties :
#
#
# Convention : Reuss Voigt Hill
#
# Bulk Modulus (GPa) = 42.62582 47.52563 45.07572
# Shear Modulus (GPa) = 27.13345 29.53328 28.33337
#
# Velocity S-wave (km/s) = 3.50997 3.66191 3.58675
# Velocity P-wave (km/s) = 5.98170 6.28159 6.13348
#
# Compressibility (1/GPa) = 0.02345996
#
# Stress axis : x y z
#
# Youngs Moduli (GPa) = 55.41693 95.00958 66.24728
#
# Poissons Ratio (x) = 0.52557 0.14829
# Poissons Ratio (y) = 0.30655 0.15453
# Poissons Ratio (z) = 0.12404 0.22161
#
# Static dielectric constant tensor:
#      x y z
#    x 1.805080 0.000000 0.000000 
#    y 0.000000 1.892340 0.000000 
#    z 0.000000 0.000000 1.807370 
# 
# From -- ./inp_files/26555.got.cif
#   From: 2010.05.17/outbox.cif.g08.bks.cpg/sg24_14_cif.got.tgz:26555.got - 2010.06.04 00:33:39.
