data_PCOD9334800
_publ_section_title
;
Structure prediction by ZEFSAII (Michael W. Deem and Ramdas Pophale) SiO2 
 PCOD9334800
Probable space group: I 21 21 21
;
_chemical_formula_sum "Si O2"
_cell_formula_units_Z 56
_cell_length_a 7.635038
_cell_length_b 14.465544
_cell_length_c 19.737688
_cell_angle_alpha 90.000000
_cell_angle_beta 90.000000
_cell_angle_gamma 90.000000
_cell_volume 2179.928520
_symmetry_space_group_name_H-M "I 21 21 21"
_symmetry_group_IT_number 24
_symmetry_cell_setting 'orthorhombic'
loop_
_space_group_symop_operation_xyz
x,y,z
-x,1/2-y,z
x,-y,1/2-z
1/2-x,y,-z
1/2+x,1/2+y,1/2+z
1/2-x,-y,1/2+z
1/2+x,1/2-y,-z
-x,1/2+y,1/2-z
loop_
_atom_site_type_symbol
_atom_site_label
_atom_site_fract_x
_atom_site_fract_y
_atom_site_fract_z
Si Si1 0.692639 0.645337 0.235464
Si Si2 0.623328 0.441824 0.401044
Si Si3 0.688066 0.163277 0.896245
Si Si4 0.786688 0.363481 0.109068
Si Si5 0.225630 0.468621 0.378644
Si Si6 0.218866 0.356320 0.742161
Si Si7 0.954463 0.150473 0.476523
O O1 0.726749 0.588758 0.166858
O O2 0.785249 0.630480 0.308106
O O3 0.721220 0.752043 0.213344
O O4 0.488147 0.625967 0.255323
O O5 0.686777 0.545964 0.416627
O O6 0.421293 0.428733 0.378501
O O7 0.595919 0.377308 0.466834
O O8 0.781413 0.260239 0.910749
O O9 0.486075 0.149215 0.915739
O O10 0.691617 0.153070 0.814737
O O11 0.772095 0.066262 0.914075
O O12 0.186758 0.433547 0.302719
O O13 0.065025 0.428660 0.421133
O O14 0.750000 0.155062 0.500000
O O15 0.000000 0.250000 0.447738
#
# Coordination Sequence:
#
# PCOD9334800 Si02
#       7
#     8   8   8   8   8   8   8
#     4   9  18  32  57  88 121 157 207 249 305 382
#     4  10  21  36  62  85 121 161 212 256 307 373
#     4  10  21  37  56  85 128 158 201 259 319 376
#     4  10  21  37  56  89 120 162 203 260 312 376
#     4  10  21  38  58  86 123 163 204 258 318 369
#     4   9  18  33  56  87 122 162 199 248 313 380
#     4  10  24  42  62  89 125 165 216 271 316 376
#
# _framework density 25.688915000000001
#
# number of rings (size 3 to 8) (size 9 to 14) (size 15 to 20)
#    0.000    2.286    0.000    1.714    6.000    7.429 
#    5.143    0.000    0.000   10.286    0.000    0.000 
#    0.000    0.000    0.000    0.000    0.000    0.000 
#
# Total GULP energy -155879.239605 kJ/mol
# GULP energy per Si atom -5567.115700 kJ/mol
# Density = 2.563045 g / cm^3
# Si number density = 25.688915 Si / 1000 Ang^3
#
#
#
# Elastic Constant Matrix: (Units=GPa)
#
#
# Indices 1 2 3 4 5 6 
#
# 1 40.1170 15.4809 20.8873 0.0000 0.0000 0.0000
# 2 15.4809 110.2305 19.6438 0.0000 0.0000 0.0000
# 3 20.8873 19.6438 32.1287 0.0000 0.0000 0.0000
# 4 0.0000 0.0000 0.0000 5.2532 0.0000 0.0000
# 5 0.0000 0.0000 0.0000 0.0000 11.2945 0.0000
# 6 0.0000 0.0000 0.0000 0.0000 0.0000 42.3563
#
#
#
# Elastic Compliance Matrix: (Units=1/GPa)
#
#
# Indices 1 2 3 4 5 6 
#
# 1 0.037788 -0.001043 -0.023929 0.000000 0.000000 0.000000
# 2 -0.001043 0.010210 -0.005565 0.000000 0.000000 0.000000
# 3 -0.023929 -0.005565 0.050084 0.000000 0.000000 0.000000
# 4 0.000000 0.000000 0.000000 0.190360 0.000000 0.000000
# 5 0.000000 0.000000 0.000000 0.000000 0.088539 0.000000
# 6 0.000000 0.000000 0.000000 0.000000 0.000000 0.023609
#
#
# Mechanical properties :
#
#
# Convention : Reuss Voigt Hill
#
# Bulk Modulus (GPa) = 27.02038 32.72225 29.87132
# Shear Modulus (GPa) = 10.54853 20.21175 15.38014
#
# Velocity S-wave (km/s) = 2.02859 2.80802 2.44950
# Velocity P-wave (km/s) = 4.00350 4.82481 4.43322
#
# Compressibility (1/GPa) = 0.03700910
#
# Stress axis : x y z
#
# Youngs Moduli (GPa) = 26.46312 97.94331 19.96651
#
# Poissons Ratio (x) = 0.10213 0.47778
# Poissons Ratio (y) = 0.02759 0.11111
# Poissons Ratio (z) = 0.63324 0.54502
#
# Static dielectric constant tensor:
#      x y z
#    x 2.083390 0.000000 0.000000 
#    y 0.000000 2.224090 0.000000 
#    z 0.000000 0.000000 2.203370 
# 
# From -- ./inp_files/32832.got.cif
#   From: 2010.05.17/outbox.cif.g08.bks.cpg/sg24_17_cif.got.tgz:32832.got - 2010.06.04 00:33:39.
