data_PCOD9334309
_publ_section_title
;
Structure prediction by ZEFSAII (Michael W. Deem and Ramdas Pophale) SiO2 
 PCOD9334309
Probable space group: I 21 21 21
;
_chemical_formula_sum "Si O2"
_cell_formula_units_Z 32
_cell_length_a 5.262917
_cell_length_b 9.745661
_cell_length_c 28.717586
_cell_angle_alpha 90.000000
_cell_angle_beta 90.000000
_cell_angle_gamma 90.000000
_cell_volume 1472.942359
_symmetry_space_group_name_H-M "I 21 21 21"
_symmetry_group_IT_number 24
_symmetry_cell_setting 'orthorhombic'
loop_
_space_group_symop_operation_xyz
x,y,z
-x,1/2-y,z
x,-y,1/2-z
1/2-x,y,-z
1/2+x,1/2+y,1/2+z
1/2-x,-y,1/2+z
1/2+x,1/2-y,-z
-x,1/2+y,1/2-z
loop_
_atom_site_type_symbol
_atom_site_label
_atom_site_fract_x
_atom_site_fract_y
_atom_site_fract_z
Si Si1 0.499505 0.408342 0.020838
Si Si2 0.381623 0.456076 0.125854
Si Si3 0.500000 0.750000 0.296627
Si Si4 0.298936 0.000000 0.750000
Si Si5 0.904293 0.595623 0.152128
O O1 0.500000 0.250000 0.003737
O O2 0.483776 0.406378 0.076333
O O3 0.250000 0.476545 0.000000
O O4 0.750000 0.475056 0.000000
O O5 0.345978 0.341238 0.165819
O O6 0.607145 0.560229 0.143034
O O7 0.100474 0.515690 0.119280
O O8 0.641270 0.635993 0.265446
O O9 0.454257 0.044803 0.704885
O O10 0.000000 0.750000 0.149032
#
# Coordination Sequence:
#
# PCOD9334309 Si02
#       5
#     8   8   4   4   8
#     4  10  20  37  65  96 130 161 206 269 339 404
#     4  11  23  43  65  98 130 169 216 272 334 386
#     4  10  24  42  66  96 132 178 216 284 312 400
#     4  10  26  40  68  92 136 176 238 268 334 378
#     4  11  26  41  66  89 131 178 221 272 316 394
#
# _framework density 21.725221000000001
#
# number of rings (size 3 to 8) (size 9 to 14) (size 15 to 20)
#    0.000    1.500    1.250    2.250   10.500    4.000 
#    0.000    0.000    0.000   15.000    0.000    0.000 
#    0.000    0.000    0.000    0.000    0.000    0.000 
#
# Total GULP energy -89198.291547 kJ/mol
# GULP energy per Si atom -5574.893222 kJ/mol
# Density = 2.167577 g / cm^3
# Si number density = 21.725221 Si / 1000 Ang^3
#
#
#
# Elastic Constant Matrix: (Units=GPa)
#
#
# Indices 1 2 3 4 5 6 
#
# 1 103.1690 25.6239 31.8834 0.0000 0.0000 0.0000
# 2 25.6239 91.6029 2.2633 0.0000 0.0000 0.0000
# 3 31.8834 2.2633 78.8510 0.0000 0.0000 0.0000
# 4 0.0000 0.0000 0.0000 -1.2310 0.0000 0.0000
# 5 0.0000 0.0000 0.0000 0.0000 34.2105 0.0000
# 6 0.0000 0.0000 0.0000 0.0000 0.0000 1.0218
#
#
#
# Elastic Compliance Matrix: (Units=1/GPa)
#
#
# Indices 1 2 3 4 5 6 
#
# 1 0.011961 -0.003229 -0.004744 0.000000 0.000000 0.000000
# 2 -0.003229 0.011796 0.000967 0.000000 0.000000 0.000000
# 3 -0.004744 0.000967 0.014572 0.000000 0.000000 0.000000
# 4 0.000000 0.000000 0.000000 -0.812326 0.000000 0.000000
# 5 0.000000 0.000000 0.000000 0.000000 0.029231 0.000000
# 6 0.000000 0.000000 0.000000 0.000000 0.000000 0.978636
#
#
# Mechanical properties :
#
#
# Convention : Reuss Voigt Hill
#
# Bulk Modulus (GPa) = 41.12096 43.68489 42.40293
# Shear Modulus (GPa) = 19.53226 21.05708 20.29467
#
# Velocity S-wave (km/s) = 3.00168 3.11665 3.05971
# Velocity P-wave (km/s) = 5.56618 5.75351 5.66062
#
# Compressibility (1/GPa) = 0.02431850
#
# Stress axis : x y z
#
# Youngs Moduli (GPa) = 83.60736 84.77516 68.62245
#
# Poissons Ratio (x) = 0.27370 0.32552
# Poissons Ratio (y) = 0.26993 -0.06635
# Poissons Ratio (z) = 0.39660 -0.08197
#
# Static dielectric constant tensor:
#      x y z
#    x 1.970030 0.000000 0.000000 
#    y 0.000000 1.826660 0.000000 
#    z 0.000000 0.000000 1.761490 
# 
# From -- ./inp_files/8258.got.cif
#   From: 2010.05.17/outbox.cif.g08.bks.cpg/sg24_5_cif.got.tgz:8258.got - 2010.06.04 00:33:39.
