data_PCOD9334277
_publ_section_title
;
Structure prediction by ZEFSAII (Michael W. Deem and Ramdas Pophale) SiO2 
 PCOD9334277
Probable space group: I 21 21 21
;
_chemical_formula_sum "Si O2"
_cell_formula_units_Z 40
_cell_length_a 9.992823
_cell_length_b 9.044017
_cell_length_c 22.793556
_cell_angle_alpha 90.000000
_cell_angle_beta 90.000000
_cell_angle_gamma 90.000000
_cell_volume 2059.973575
_symmetry_space_group_name_H-M "I 21 21 21"
_symmetry_group_IT_number 24
_symmetry_cell_setting 'orthorhombic'
loop_
_space_group_symop_operation_xyz
x,y,z
-x,1/2-y,z
x,-y,1/2-z
1/2-x,y,-z
1/2+x,1/2+y,1/2+z
1/2-x,-y,1/2+z
1/2+x,1/2-y,-z
-x,1/2+y,1/2-z
loop_
_atom_site_type_symbol
_atom_site_label
_atom_site_fract_x
_atom_site_fract_y
_atom_site_fract_z
Si Si1 0.343998 0.245040 0.325689
Si Si2 0.780242 0.000000 0.250000
Si Si3 0.355459 0.673254 0.050675
Si Si4 0.650616 0.818183 0.444125
Si Si5 0.643745 0.757591 0.660300
Si Si6 0.717336 0.500000 0.750000
O O1 0.500000 0.250000 0.334454
O O2 0.304655 0.379488 0.284354
O O3 0.287377 0.264148 0.390300
O O4 0.302591 0.096227 0.294707
O O5 0.854914 0.905646 0.299727
O O6 0.500000 0.750000 0.040063
O O7 0.369607 0.496114 0.058627
O O8 0.250000 0.701501 0.000000
O O9 0.500000 0.750000 0.448024
O O10 0.750000 0.787516 0.500000
O O11 0.733051 0.765191 0.385733
O O12 0.500000 0.750000 0.628582
O O13 0.649591 0.622271 0.707306
#
# Coordination Sequence:
#
# PCOD9334277 Si02
#       6
#     8   4   8   8   8   4
#     4  10  20  37  61  94 127 164 208 264 312 385
#     4  10  20  38  62  88 131 170 207 264 315 376
#     4  10  23  44  65  95 126 165 211 261 319 380
#     4  11  25  45  69  97 129 168 215 270 323 382
#     4  11  23  42  64  95 131 173 214 265 315 385
#     4  10  24  38  62  94 129 170 219 248 327 372
#
# _framework density 19.417725999999998
#
# number of rings (size 3 to 8) (size 9 to 14) (size 15 to 20)
#    0.000    1.600    2.000    1.800    5.600    4.000 
#    7.200    1.000    0.000    0.000    0.000    0.000 
#    0.000    0.000    0.000    0.000    0.000    0.000 
#
# Total GULP energy -111445.669376 kJ/mol
# GULP energy per Si atom -5572.283469 kJ/mol
# Density = 1.937353 g / cm^3
# Si number density = 19.417726 Si / 1000 Ang^3
#
#
#
# Elastic Constant Matrix: (Units=GPa)
#
#
# Indices 1 2 3 4 5 6 
#
# 1 107.4749 30.9397 53.7855 0.0000 0.0000 0.0000
# 2 30.9397 94.1393 34.4585 0.0000 0.0000 0.0000
# 3 53.7855 34.4585 118.3083 0.0000 0.0000 0.0000
# 4 0.0000 0.0000 0.0000 189.2146 0.0000 0.0000
# 5 0.0000 0.0000 0.0000 0.0000 22.9724 0.0000
# 6 0.0000 0.0000 0.0000 0.0000 0.0000 -11.7288
#
#
#
# Elastic Compliance Matrix: (Units=1/GPa)
#
#
# Indices 1 2 3 4 5 6 
#
# 1 0.012461 -0.002263 -0.005006 0.000000 0.000000 0.000000
# 2 -0.002263 0.012301 -0.002554 0.000000 0.000000 0.000000
# 3 -0.005006 -0.002554 0.011472 0.000000 0.000000 0.000000
# 4 0.000000 0.000000 0.000000 0.005285 0.000000 0.000000
# 5 0.000000 0.000000 0.000000 0.000000 0.043531 0.000000
# 6 0.000000 0.000000 0.000000 0.000000 0.000000 -0.085260
#
#
# Mechanical properties :
#
#
# Convention : Reuss Voigt Hill
#
# Bulk Modulus (GPa) = 60.28291 62.03220 61.15755
# Shear Modulus (GPa) = 200.27643 53.47423 126.87533
#
# Velocity S-wave (km/s) = 10.16685 5.25344 8.09208
# Velocity P-wave (km/s) = 12.99741 8.29540 10.90290
#
# Compressibility (1/GPa) = 0.01658845
#
# Stress axis : x y z
#
# Youngs Moduli (GPa) = 80.24891 81.29289 87.16728
#
# Poissons Ratio (x) = 0.18397 0.43636
# Poissons Ratio (y) = 0.18161 0.22262
# Poissons Ratio (z) = 0.40173 0.20762
#
# Static dielectric constant tensor:
#      x y z
#    x 1.407810 0.000000 0.000000 
#    y 0.000000 1.670770 0.000000 
#    z 0.000000 0.000000 1.691840 
# 
# From -- ./inp_files/9318.got.cif
#   From: 2010.05.17/outbox.cif.g08.bks.cpg/sg24_5_cif.got.tgz:9318.got - 2010.06.04 00:33:39.
