data_PCOD9334408
_publ_section_title
;
Structure prediction by ZEFSAII (Michael W. Deem and Ramdas Pophale) SiO2 
 PCOD9334408
Probable space group: I 21 21 21
;
_chemical_formula_sum "Si O2"
_cell_formula_units_Z 60
_cell_length_a 12.103737
_cell_length_b 9.807748
_cell_length_c 24.176834
_cell_angle_alpha 90.000000
_cell_angle_beta 90.000000
_cell_angle_gamma 90.000000
_cell_volume 2870.041692
_symmetry_space_group_name_H-M "I 21 21 21"
_symmetry_group_IT_number 24
_symmetry_cell_setting 'orthorhombic'
loop_
_space_group_symop_operation_xyz
x,y,z
-x,1/2-y,z
x,-y,1/2-z
1/2-x,y,-z
1/2+x,1/2+y,1/2+z
1/2-x,-y,1/2+z
1/2+x,1/2-y,-z
-x,1/2+y,1/2-z
loop_
_atom_site_type_symbol
_atom_site_label
_atom_site_fract_x
_atom_site_fract_y
_atom_site_fract_z
Si Si1 0.082817 0.852516 0.811531
Si Si2 0.224221 0.000000 0.250000
Si Si3 0.787900 0.751913 0.915616
Si Si4 0.429266 0.114264 0.846223
Si Si5 0.938079 0.106344 0.405623
Si Si6 0.246753 0.941157 0.436491
Si Si7 0.015139 0.902389 0.618724
Si Si8 0.371117 0.510333 0.017803
O O1 0.192178 0.895384 0.779292
O O2 0.127178 0.777829 0.866710
O O3 0.000000 0.750000 0.781852
O O4 0.018477 0.986676 0.832628
O O5 0.148751 0.925476 0.295098
O O6 0.689876 0.853202 0.897511
O O7 0.737085 0.606476 0.932781
O O8 0.850861 0.832281 0.963834
O O9 0.500000 0.250000 0.837824
O O10 0.349075 0.124811 0.899704
O O11 0.510135 0.987282 0.858586
O O12 0.000000 0.250000 0.409790
O O13 0.944632 0.020939 0.462908
O O14 0.250000 0.899263 0.500000
O O15 0.364252 0.910513 0.409025
O O16 0.000000 0.750000 0.639184
O O17 0.927856 0.938043 0.569908
O O18 0.250000 0.455306 0.000000
#
# Coordination Sequence:
#
# PCOD9334408 Si02
#       8
#     8   4   8   8   8   8   8   8
#     4  11  23  46  78  98 132 175 241 305 363 429
#     4  12  26  54  72 106 136 186 256 320 362 438
#     4  10  20  38  65 106 136 183 237 293 339 422
#     4  12  28  48  72 104 146 191 243 302 377 439
#     4  11  21  37  66  99 141 186 235 285 343 431
#     4  11  22  40  68 100 145 187 234 284 360 437
#     4  11  24  39  64  98 141 186 220 285 361 431
#     4  10  22  35  62 107 149 182 239 284 349 436
#
# _framework density 20.905619999999999
#
# number of rings (size 3 to 8) (size 9 to 14) (size 15 to 20)
#    0.000    1.067    5.333    2.000    3.733    6.933 
#    0.000    0.000    0.000    0.000    0.000    0.000 
#    0.000    0.000    0.000    0.000    0.000    0.000 
#
# Total GULP energy -167740.397031 kJ/mol
# GULP energy per Si atom -5591.346568 kJ/mol
# Density = 2.085804 g / cm^3
# Si number density = 20.905620 Si / 1000 Ang^3
#
#
#
# Elastic Constant Matrix: (Units=GPa)
#
#
# Indices 1 2 3 4 5 6 
#
# 1 113.5295 63.2567 50.4862 0.0000 0.0000 0.0000
# 2 63.2567 105.3354 54.0767 0.0000 0.0000 0.0000
# 3 50.4862 54.0767 90.8383 0.0000 0.0000 0.0000
# 4 0.0000 0.0000 0.0000 -6.0430 0.0000 0.0000
# 5 0.0000 0.0000 0.0000 0.0000 32.4817 0.0000
# 6 0.0000 0.0000 0.0000 0.0000 0.0000 42.3481
#
#
#
# Elastic Compliance Matrix: (Units=1/GPa)
#
#
# Indices 1 2 3 4 5 6 
#
# 1 0.014205 -0.006448 -0.004056 0.000000 0.000000 0.000000
# 2 -0.006448 0.016599 -0.006298 0.000000 0.000000 0.000000
# 3 -0.004056 -0.006298 0.017012 0.000000 0.000000 0.000000
# 4 0.000000 0.000000 0.000000 -0.165480 0.000000 0.000000
# 5 0.000000 0.000000 0.000000 0.000000 0.030787 0.000000
# 6 0.000000 0.000000 0.000000 0.000000 0.000000 0.023614
#
#
# Mechanical properties :
#
#
# Convention : Reuss Voigt Hill
#
# Bulk Modulus (GPa) = 70.36430 71.70472 71.03451
# Shear Modulus (GPa) = -200.61813 23.21626 -88.70094
#
# Velocity S-wave (km/s) = -9.80674 3.33607 -6.52084
# Velocity P-wave (km/s) = 9.72102 7.01519 4.75843
#
# Compressibility (1/GPa) = 0.01421175
#
# Stress axis : x y z
#
# Youngs Moduli (GPa) = 70.39885 60.24551 58.78207
#
# Poissons Ratio (x) = 0.38846 0.23843
# Poissons Ratio (y) = 0.45393 0.37019
# Poissons Ratio (z) = 0.28555 0.37941
#
# Static dielectric constant tensor:
#      x y z
#    x 1.765440 0.000000 0.000000 
#    y 0.000000 1.770750 0.000000 
#    z 0.000000 0.000000 1.786250 
# 
# From -- ./inp_files/37238.got.cif
#   From: 2010.05.17/outbox.cif.g08.bks.cpg/sg24_19_cif.got.tgz:37238.got - 2010.06.04 00:33:39.
