data_PCOD9334276
_publ_section_title
;
Structure prediction by ZEFSAII (Michael W. Deem and Ramdas Pophale) SiO2 
 PCOD9334276
Probable space group: I 21 21 21
;
_chemical_formula_sum "Si O2"
_cell_formula_units_Z 56
_cell_length_a 12.289006
_cell_length_b 11.812864
_cell_length_c 15.617095
_cell_angle_alpha 90.000000
_cell_angle_beta 90.000000
_cell_angle_gamma 90.000000
_cell_volume 2267.108016
_symmetry_space_group_name_H-M "I 21 21 21"
_symmetry_group_IT_number 24
_symmetry_cell_setting 'orthorhombic'
loop_
_space_group_symop_operation_xyz
x,y,z
-x,1/2-y,z
x,-y,1/2-z
1/2-x,y,-z
1/2+x,1/2+y,1/2+z
1/2-x,-y,1/2+z
1/2+x,1/2-y,-z
-x,1/2+y,1/2-z
loop_
_atom_site_type_symbol
_atom_site_label
_atom_site_fract_x
_atom_site_fract_y
_atom_site_fract_z
Si Si1 0.228639 0.834962 0.226048
Si Si2 0.848745 0.444576 0.564399
Si Si3 0.035421 0.000000 0.250000
Si Si4 0.278143 0.768420 0.403504
Si Si5 0.500000 0.750000 0.053610
Si Si6 0.370543 0.453882 0.903732
Si Si7 0.949101 0.086555 0.904967
Si Si8 0.684598 0.890447 0.151949
O O1 0.303169 0.893057 0.153489
O O2 0.254855 0.852588 0.326026
O O3 0.255664 0.700961 0.213040
O O4 0.110767 0.894151 0.220007
O O5 0.750000 0.463237 0.500000
O O6 0.926353 0.350949 0.515932
O O7 0.925692 0.549721 0.589904
O O8 0.960274 0.034507 0.169806
O O9 0.250000 0.805732 0.500000
O O10 0.194596 0.662748 0.391888
O O11 0.396073 0.709679 0.394011
O O12 0.590829 0.817538 0.106907
O O13 0.287866 0.558994 0.898207
O O14 0.412897 0.447651 0.999495
O O15 0.885085 0.007009 0.837017
#
# Coordination Sequence:
#
# PCOD9334276 Si02
#       8
#     8   8   4   8   4   8   8   8
#     4  11  24  41  61  93 136 180 224 274 333 402
#     4  10  20  37  61  93 135 176 216 270 340 404
#     4  12  26  42  62  94 142 184 222 278 346 402
#     4   9  20  42  72  98 124 169 229 281 327 391
#     4   8  18  32  52  88 132 172 214 260 314 390
#     4  10  20  37  64 100 132 171 219 273 339 402
#     4   9  19  39  67  97 131 167 221 283 332 397
#     4   9  18  35  61  93 128 167 215 272 330 392
#
# _framework density 24.701073000000001
#
# number of rings (size 3 to 8) (size 9 to 14) (size 15 to 20)
#    0.000    2.286    0.000    3.000    0.000   10.857 
#    0.000   13.571    0.000   12.857    0.000    0.000 
#    0.000    0.000    0.000    0.000    0.000    0.000 
#
# Total GULP energy -156183.284890 kJ/mol
# GULP energy per Si atom -5577.974460 kJ/mol
# Density = 2.464485 g / cm^3
# Si number density = 24.701073 Si / 1000 Ang^3
#
#
#
# Elastic Constant Matrix: (Units=GPa)
#
#
# Indices 1 2 3 4 5 6 
#
# 1 165.6793 39.5831 61.5603 0.0000 0.0000 0.0000
# 2 39.5831 110.4837 43.2270 0.0000 0.0000 0.0000
# 3 61.5603 43.2270 152.6015 0.0000 0.0000 0.0000
# 4 0.0000 0.0000 0.0000 -122.8978 0.0000 0.0000
# 5 0.0000 0.0000 0.0000 0.0000 37.3519 0.0000
# 6 0.0000 0.0000 0.0000 0.0000 0.0000 10.2472
#
#
#
# Elastic Compliance Matrix: (Units=1/GPa)
#
#
# Indices 1 2 3 4 5 6 
#
# 1 0.007361 -0.001659 -0.002499 0.000000 0.000000 0.000000
# 2 -0.001659 0.010553 -0.002320 0.000000 0.000000 0.000000
# 3 -0.002499 -0.002320 0.008218 0.000000 0.000000 0.000000
# 4 0.000000 0.000000 0.000000 -0.008137 0.000000 0.000000
# 5 0.000000 0.000000 0.000000 0.000000 0.026772 0.000000
# 6 0.000000 0.000000 0.000000 0.000000 0.000000 0.097588
#
#
# Mechanical properties :
#
#
# Convention : Reuss Voigt Hill
#
# Bulk Modulus (GPa) = 75.90016 79.72281 77.81148
# Shear Modulus (GPa) = 31.30774 3.89987 17.60380
#
# Velocity S-wave (km/s) = 3.56401 1.25788 2.67249
# Velocity P-wave (km/s) = 6.90872 5.86982 6.41035
#
# Compressibility (1/GPa) = 0.01317520
#
# Stress axis : x y z
#
# Youngs Moduli (GPa) = 135.85358 94.75707 121.67711
#
# Poissons Ratio (x) = 0.15723 0.30412
# Poissons Ratio (y) = 0.22542 0.28229
# Poissons Ratio (z) = 0.33955 0.21984
#
# Static dielectric constant tensor:
#      x y z
#    x 1.986220 0.000000 0.000000 
#    y 0.000000 2.026420 0.000000 
#    z 0.000000 0.000000 1.924380 
# 
# From -- ./inp_files/25856.got.cif
#   From: 2010.05.17/outbox.cif.g08.bks.cpg/sg24_13_cif.got.tgz:25856.got - 2010.06.04 00:33:39.
