data_PCOD9334176
_publ_section_title
;
Structure prediction by ZEFSAII (Michael W. Deem and Ramdas Pophale) SiO2 
 PCOD9334176
Probable space group: I 21 21 21
;
_chemical_formula_sum "Si O2"
_cell_formula_units_Z 52
_cell_length_a 17.362941
_cell_length_b 18.867084
_cell_length_c 8.300515
_cell_angle_alpha 90.000000
_cell_angle_beta 90.000000
_cell_angle_gamma 90.000000
_cell_volume 2719.149658
_symmetry_space_group_name_H-M "I 21 21 21"
_symmetry_group_IT_number 24
_symmetry_cell_setting 'orthorhombic'
loop_
_space_group_symop_operation_xyz
x,y,z
-x,1/2-y,z
x,-y,1/2-z
1/2-x,y,-z
1/2+x,1/2+y,1/2+z
1/2-x,-y,1/2+z
1/2+x,1/2-y,-z
-x,1/2+y,1/2-z
loop_
_atom_site_type_symbol
_atom_site_label
_atom_site_fract_x
_atom_site_fract_y
_atom_site_fract_z
Si Si1 0.881447 0.367885 0.902924
Si Si2 0.571646 0.798983 0.017974
Si Si3 0.501000 0.431118 0.328475
Si Si4 0.713018 0.722245 0.163696
Si Si5 0.877304 0.285651 0.223405
Si Si6 0.613540 0.558097 0.876453
Si Si7 0.750000 0.482319 0.000000
O O1 0.960465 0.394777 0.827463
O O2 0.837866 0.333425 0.754577
O O3 0.895470 0.309591 0.042001
O O4 0.821009 0.428998 0.958676
O O5 0.500000 0.750000 0.077198
O O6 0.550118 0.878205 0.066205
O O7 0.652323 0.780931 0.104810
O O8 0.582037 0.775323 0.830485
O O9 0.462479 0.500000 0.250000
O O10 0.570537 0.449715 0.452719
O O11 0.787362 0.736830 0.272597
O O12 0.750000 0.694201 0.000000
O O13 0.892039 0.360589 0.317697
O O14 0.580173 0.500000 0.750000
O O15 0.703441 0.537429 0.888433
#
# Coordination Sequence:
#
# PCOD9334176 Si02
#       7
#     8   8   8   8   8   8   4
#     4  12  21  35  58  90 124 163 206 246 303 378
#     4  11  22  39  58  83 120 166 213 253 319 368
#     4  12  24  40  58  87 126 169 209 261 312 378
#     4  10  20  36  60  83 120 158 203 258 303 362
#     4  11  22  38  57  87 123 164 212 263 300 373
#     4  12  23  34  53  84 127 171 201 238 301 375
#     4  12  24  28  52  88 124 168 200 234 296 370
#
# _framework density 19.123625000000001
#
# number of rings (size 3 to 8) (size 9 to 14) (size 15 to 20)
#    0.000    0.615    7.692    0.923    7.538    0.000 
#    2.769    0.000    0.000    0.000    0.000   16.154 
#    0.000    0.000    0.000    0.000    0.000    0.000 
#
# Total GULP energy -144825.005212 kJ/mol
# GULP energy per Si atom -5570.192508 kJ/mol
# Density = 1.908010 g / cm^3
# Si number density = 19.123625 Si / 1000 Ang^3
#
#
#
# Elastic Constant Matrix: (Units=GPa)
#
#
# Indices 1 2 3 4 5 6 
#
# 1 47.3141 36.0808 21.6771 0.0000 0.0000 0.0000
# 2 36.0808 99.3764 51.3083 0.0000 0.0000 0.0000
# 3 21.6771 51.3083 85.4345 0.0000 0.0000 0.0000
# 4 0.0000 0.0000 0.0000 30.0820 0.0000 0.0000
# 5 0.0000 0.0000 0.0000 0.0000 16.6663 0.0000
# 6 0.0000 0.0000 0.0000 0.0000 0.0000 36.2589
#
#
#
# Elastic Compliance Matrix: (Units=1/GPa)
#
#
# Indices 1 2 3 4 5 6 
#
# 1 0.029363 -0.009877 -0.001519 0.000000 0.000000 0.000000
# 2 -0.009877 0.017907 -0.008248 0.000000 0.000000 0.000000
# 3 -0.001519 -0.008248 0.017044 0.000000 0.000000 0.000000
# 4 0.000000 0.000000 0.000000 0.033242 0.000000 0.000000
# 5 0.000000 0.000000 0.000000 0.000000 0.060001 0.000000
# 6 0.000000 0.000000 0.000000 0.000000 0.000000 0.027579
#
#
# Mechanical properties :
#
#
# Convention : Reuss Voigt Hill
#
# Bulk Modulus (GPa) = 39.95755 50.02859 44.99307
# Shear Modulus (GPa) = 21.48068 24.80535 23.14301
#
# Velocity S-wave (km/s) = 3.35513 3.60544 3.48254
# Velocity P-wave (km/s) = 5.99574 6.59922 6.30471
#
# Compressibility (1/GPa) = 0.02502656
#
# Stress axis : x y z
#
# Youngs Moduli (GPa) = 34.05655 55.84280 58.67223
#
# Poissons Ratio (x) = 0.55155 0.08910
# Poissons Ratio (y) = 0.33637 0.48395
# Poissons Ratio (z) = 0.05172 0.46061
#
# Static dielectric constant tensor:
#      x y z
#    x 1.707290 0.000000 0.000000 
#    y 0.000000 1.711960 0.000000 
#    z 0.000000 0.000000 1.781070 
# 
# From -- ./inp_files/14417.got.cif
#   From: 2010.05.17/outbox.cif.g08.bks.cpg/sg24_8_cif.got.tgz:14417.got - 2010.06.04 00:33:39.
