data_PCOD9334485
_publ_section_title
;
Structure prediction by ZEFSAII (Michael W. Deem and Ramdas Pophale) SiO2 
 PCOD9334485
Probable space group: I 21 21 21
;
_chemical_formula_sum "Si O2"
_cell_formula_units_Z 48
_cell_length_a 9.812499
_cell_length_b 28.025050
_cell_length_c 9.317258
_cell_angle_alpha 90.000000
_cell_angle_beta 90.000000
_cell_angle_gamma 90.000000
_cell_volume 2562.206586
_symmetry_space_group_name_H-M "I 21 21 21"
_symmetry_group_IT_number 24
_symmetry_cell_setting 'orthorhombic'
loop_
_space_group_symop_operation_xyz
x,y,z
-x,1/2-y,z
x,-y,1/2-z
1/2-x,y,-z
1/2+x,1/2+y,1/2+z
1/2-x,-y,1/2+z
1/2+x,1/2-y,-z
-x,1/2+y,1/2-z
loop_
_atom_site_type_symbol
_atom_site_label
_atom_site_fract_x
_atom_site_fract_y
_atom_site_fract_z
Si Si1 0.659252 0.543471 0.860028
Si Si2 0.041943 0.803705 0.357580
Si Si3 0.774109 0.133968 0.162928
Si Si4 0.837069 0.044798 0.357462
Si Si5 0.234229 0.853371 0.830024
Si Si6 0.005916 0.304922 0.809302
O O1 0.669384 0.500000 0.750000
O O2 0.498463 0.551465 0.891923
O O3 0.721018 0.592513 0.797680
O O4 0.750000 0.532856 0.000000
O O5 0.170218 0.819493 0.265057
O O6 0.058352 0.805204 0.530154
O O7 0.000000 0.750000 0.320705
O O8 0.918544 0.839697 0.327107
O O9 0.777818 0.091034 0.275286
O O10 0.657516 0.173824 0.184621
O O11 0.750000 0.115550 0.000000
O O12 0.750000 0.036318 0.500000
O O13 0.827532 0.000000 0.250000
O O14 0.081674 0.840243 0.787530
O O15 0.250000 0.846311 0.000000
O O16 0.000000 0.250000 0.759275
#
# Coordination Sequence:
#
# PCOD9334485 Si02
#       6
#     8   8   8   8   8   8
#     4  10  24  44  63  92 124 160 203 250 305 368
#     4  10  20  39  63  87 121 162 208 257 301 357
#     4  10  21  38  61  92 122 161 205 254 308 356
#     4  11  24  43  66  92 125 159 202 253 308 368
#     4  11  23  39  59  92 126 161 202 250 309 367
#     4  10  22  39  63  91 122 163 214 254 299 360
#
# _framework density 18.733854000000001
#
# number of rings (size 3 to 8) (size 9 to 14) (size 15 to 20)
#    0.000    1.667    1.667    2.000    4.667    5.333 
#    3.000    1.667    0.000    0.000    0.000    0.000 
#    0.000    0.000    0.000    0.000    0.000    0.000 
#
# Total GULP energy -134023.789641 kJ/mol
# GULP energy per Si atom -5584.324568 kJ/mol
# Density = 1.869121 g / cm^3
# Si number density = 18.733854 Si / 1000 Ang^3
#
#
#
# Elastic Constant Matrix: (Units=GPa)
#
#
# Indices 1 2 3 4 5 6 
#
# 1 71.2178 17.9079 27.7592 0.0007 0.0000 -0.0002
# 2 17.9079 87.6925 33.4849 0.0009 0.0006 -0.0005
# 3 27.7592 33.4849 51.0872 -0.0083 -0.0055 0.0012
# 4 0.0007 0.0009 -0.0083 25.2499 0.0000 0.0000
# 5 0.0000 0.0006 -0.0055 0.0000 31.4995 -0.0005
# 6 -0.0002 -0.0005 0.0012 0.0000 -0.0005 24.8805
#
#
#
# Elastic Compliance Matrix: (Units=1/GPa)
#
#
# Indices 1 2 3 4 5 6 
#
# 1 0.017815 0.000078 -0.009731 -0.000004 -0.000002 0.000001
# 2 0.000078 0.015211 -0.010012 -0.000004 -0.000002 0.000001
# 3 -0.009731 -0.010012 0.031424 0.000011 0.000006 -0.000002
# 4 -0.000004 -0.000004 0.000011 0.039604 0.000000 0.000000
# 5 -0.000002 -0.000002 0.000006 0.000000 0.031747 0.000001
# 6 0.000001 0.000001 -0.000002 0.000000 0.000001 0.040192
#
#
# Mechanical properties :
#
#
# Convention : Reuss Voigt Hill
#
# Bulk Modulus (GPa) = 39.81021 40.92239 40.36630
# Shear Modulus (GPa) = 22.35178 25.04902 23.70040
#
# Velocity S-wave (km/s) = 3.45791 3.66060 3.56070
# Velocity P-wave (km/s) = 6.10241 6.30541 6.20474
#
# Compressibility (1/GPa) = 0.02511919
#
# Stress axis : x y z
#
# Youngs Moduli (GPa) = 56.13310 65.74343 31.82264
#
# Poissons Ratio (x) = -0.00511 0.30966
# Poissons Ratio (y) = -0.00436 0.31861
# Poissons Ratio (z) = 0.54623 0.65822
#
# Static dielectric constant tensor:
#      x y z
#    x 1.630480 0.000000 0.000000 
#    y 0.000000 1.627450 0.000000 
#    z 0.000000 0.000000 1.636310 
# 
# From -- ./inp_files/9725.got.cif
#   From: 2010.05.17/outbox.cif.g08.bks.cpg/sg24_5_cif.got.tgz:9725.got - 2010.06.04 00:33:39.
