data_PCOD9334786
_publ_section_title
;
Structure prediction by ZEFSAII (Michael W. Deem and Ramdas Pophale) SiO2 
 PCOD9334786
Probable space group: I 21 21 21
;
_chemical_formula_sum "Si O2"
_cell_formula_units_Z 56
_cell_length_a 27.643745
_cell_length_b 5.357063
_cell_length_c 17.716138
_cell_angle_alpha 90.000000
_cell_angle_beta 90.000000
_cell_angle_gamma 90.000000
_cell_volume 2623.570183
_symmetry_space_group_name_H-M "I 21 21 21"
_symmetry_group_IT_number 24
_symmetry_cell_setting 'orthorhombic'
loop_
_space_group_symop_operation_xyz
x,y,z
-x,1/2-y,z
x,-y,1/2-z
1/2-x,y,-z
1/2+x,1/2+y,1/2+z
1/2-x,-y,1/2+z
1/2+x,1/2-y,-z
-x,1/2+y,1/2-z
loop_
_atom_site_type_symbol
_atom_site_label
_atom_site_fract_x
_atom_site_fract_y
_atom_site_fract_z
Si Si1 0.025775 0.500377 0.613765
Si Si2 0.620302 0.511736 0.582141
Si Si3 0.719180 0.300055 0.569639
Si Si4 0.636773 0.992416 0.159191
Si Si5 0.646046 0.975959 0.838819
Si Si6 0.514709 0.499375 0.946241
Si Si7 0.305053 0.990653 0.341146
O O1 0.082618 0.501696 0.627807
O O2 0.000000 0.750000 0.644135
O O3 0.015895 0.500266 0.523672
O O4 0.000000 0.250000 0.643851
O O5 0.671358 0.450375 0.542397
O O6 0.624750 0.775374 0.623973
O O7 0.571440 0.506790 0.534525
O O8 0.616931 0.275963 0.639406
O O9 0.750000 0.204744 0.500000
O O10 0.753469 0.476351 0.619216
O O11 0.697842 0.083283 0.622499
O O12 0.663254 0.735035 0.138176
O O13 0.633036 0.000000 0.250000
O O14 0.667844 0.235554 0.137092
O O15 0.650494 0.000000 0.750000
O O16 0.500000 0.250000 0.903409
O O17 0.500000 0.750000 0.904555
O O18 0.299142 0.000000 0.250000
#
# Coordination Sequence:
#
# PCOD9334786 Si02
#       7
#     8   8   8   8   8   8   8
#     4  10  21  36  59  90 119 174 216 263 325 390
#     4  10  23  41  66  98 132 170 224 273 326 398
#     4  10  26  41  66 102 135 172 224 281 329 394
#     4  10  22  40  60  92 130 170 220 270 316 388
#     4  10  23  42  70  94 128 176 221 266 329 402
#     4  10  21  39  64  92 126 165 213 264 337 398
#     4  10  23  41  65  91 133 178 215 267 329 396
#
# _framework density 21.344958999999999
#
# number of rings (size 3 to 8) (size 9 to 14) (size 15 to 20)
#    0.857    1.143    0.000    2.143    4.000    6.286 
#    2.571    0.000    0.000    8.571    0.000    0.000 
#    0.000    0.000    0.000    0.000    0.000    0.000 
#
# Total GULP energy -156287.327385 kJ/mol
# GULP energy per Si atom -5581.690264 kJ/mol
# Density = 2.129638 g / cm^3
# Si number density = 21.344959 Si / 1000 Ang^3
#
#
#
# Elastic Constant Matrix: (Units=GPa)
#
#
# Indices 1 2 3 4 5 6 
#
# 1 141.9425 41.7737 35.8994 0.0000 0.0000 0.0000
# 2 41.7737 176.5832 24.9202 0.0000 0.0000 0.0000
# 3 35.8994 24.9202 45.9371 0.0000 0.0000 0.0000
# 4 0.0000 0.0000 0.0000 6.3000 0.0000 0.0000
# 5 0.0000 0.0000 0.0000 0.0000 35.6635 0.0000
# 6 0.0000 0.0000 0.0000 0.0000 0.0000 20.4028
#
#
#
# Elastic Compliance Matrix: (Units=1/GPa)
#
#
# Indices 1 2 3 4 5 6 
#
# 1 0.009022 -0.001234 -0.006381 0.000000 0.000000 0.000000
# 2 -0.001234 0.006301 -0.002454 0.000000 0.000000 0.000000
# 3 -0.006381 -0.002454 0.028087 0.000000 0.000000 0.000000
# 4 0.000000 0.000000 0.000000 0.158730 0.000000 0.000000
# 5 0.000000 0.000000 0.000000 0.000000 0.028040 0.000000
# 6 0.000000 0.000000 0.000000 0.000000 0.000000 0.049013
#
#
# Mechanical properties :
#
#
# Convention : Reuss Voigt Hill
#
# Bulk Modulus (GPa) = 42.97014 63.29438 53.13226
# Shear Modulus (GPa) = 16.28191 29.93123 23.10657
#
# Velocity S-wave (km/s) = 2.76488 3.74874 3.29375
# Velocity P-wave (km/s) = 5.51069 6.96095 6.27784
#
# Compressibility (1/GPa) = 0.02327197
#
# Stress axis : x y z
#
# Youngs Moduli (GPa) = 110.83814 158.69834 35.60331
#
# Poissons Ratio (x) = 0.19580 0.22720
# Poissons Ratio (y) = 0.13675 0.08738
# Poissons Ratio (z) = 0.70731 0.38947
#
# Static dielectric constant tensor:
#      x y z
#    x 1.760520 0.000000 0.000000 
#    y 0.000000 1.871270 0.000000 
#    z 0.000000 0.000000 1.750770 
# 
# From -- ./inp_files/34256.got.cif
#   From: 2010.05.17/outbox.cif.g08.bks.cpg/sg24_18_cif.got.tgz:34256.got - 2010.06.04 00:33:39.
