data_PCOD9334146
_publ_section_title
;
Structure prediction by ZEFSAII (Michael W. Deem and Ramdas Pophale) SiO2 
 PCOD9334146
Probable space group: I 21 21 21
;
_chemical_formula_sum "Si O2"
_cell_formula_units_Z 32
_cell_length_a 5.155822
_cell_length_b 37.170455
_cell_length_c 7.349974
_cell_angle_alpha 90.000000
_cell_angle_beta 90.000000
_cell_angle_gamma 90.000000
_cell_volume 1408.580252
_symmetry_space_group_name_H-M "I 21 21 21"
_symmetry_group_IT_number 24
_symmetry_cell_setting 'orthorhombic'
loop_
_space_group_symop_operation_xyz
x,y,z
-x,1/2-y,z
x,-y,1/2-z
1/2-x,y,-z
1/2+x,1/2+y,1/2+z
1/2-x,-y,1/2+z
1/2+x,1/2-y,-z
-x,1/2+y,1/2-z
loop_
_atom_site_type_symbol
_atom_site_label
_atom_site_fract_x
_atom_site_fract_y
_atom_site_fract_z
Si Si1 0.255619 0.854612 0.778636
Si Si2 0.248821 0.398022 0.719413
Si Si3 0.247576 0.772363 0.777841
Si Si4 0.009054 0.530263 0.390071
O O1 0.536904 0.868782 0.726304
O O2 0.224307 0.813630 0.717638
O O3 0.030642 0.882592 0.723273
O O4 0.250000 0.854305 0.000000
O O5 0.250000 0.401391 0.500000
O O6 0.351169 0.435313 0.800250
O O7 0.500000 0.750000 0.722521
O O8 0.000000 0.750000 0.719765
O O9 0.250000 0.773444 0.000000
O O10 0.918201 0.500000 0.250000
O O11 0.750000 0.540689 0.500000
O O12 0.250000 0.513031 0.500000
#
# Coordination Sequence:
#
# PCOD9334146 Si02
#       4
#     8   8   8   8
#     4   9  17  29  48  76 111 154 197 239 292 352
#     4  10  20  36  58  83 116 155 197 243 297 357
#     4   9  15  23  38  65 106 151 191 233 286 345
#     4  12  26  44  66  92 122 156 199 249 306 366
#
# _framework density 22.717911999999998
#
# number of rings (size 3 to 8) (size 9 to 14) (size 15 to 20)
#    0.000    2.000    0.000    4.500    0.000    9.000 
#    0.000    0.000    0.000    0.000    0.000    0.000 
#    0.000   56.000    0.000    0.000    0.000    0.000 
#
# Total GULP energy -89458.351900 kJ/mol
# GULP energy per Si atom -5591.146994 kJ/mol
# Density = 2.266620 g / cm^3
# Si number density = 22.717912 Si / 1000 Ang^3
#
#
#
# Elastic Constant Matrix: (Units=GPa)
#
#
# Indices 1 2 3 4 5 6 
#
# 1 171.5769 52.2618 27.5430 0.0000 0.0000 0.0000
# 2 52.2618 158.4446 29.6840 0.0000 0.0000 0.0000
# 3 27.5430 29.6840 75.1312 0.0001 0.0000 0.0000
# 4 0.0000 0.0000 0.0001 -10.1768 0.0000 0.0000
# 5 0.0000 0.0000 0.0000 0.0000 8.2370 0.0000
# 6 0.0000 0.0000 0.0000 0.0000 0.0000 37.6188
#
#
#
# Elastic Compliance Matrix: (Units=1/GPa)
#
#
# Indices 1 2 3 4 5 6 
#
# 1 0.006675 -0.001883 -0.001703 0.000000 0.000000 0.000000
# 2 -0.001883 0.007347 -0.002213 0.000000 0.000000 0.000000
# 3 -0.001703 -0.002213 0.014809 0.000000 0.000000 0.000000
# 4 0.000000 0.000000 0.000000 -0.098262 0.000000 0.000000
# 5 0.000000 0.000000 0.000000 0.000000 0.121403 0.000000
# 6 0.000000 0.000000 0.000000 0.000000 0.000000 0.026582
#
#
# Mechanical properties :
#
#
# Convention : Reuss Voigt Hill
#
# Bulk Modulus (GPa) = 58.02579 69.34781 63.68680
# Shear Modulus (GPa) = 52.14024 26.84672 39.49348
#
# Velocity S-wave (km/s) = 4.79593 3.44138 4.17397
# Velocity P-wave (km/s) = 7.50102 6.81048 7.16408
#
# Compressibility (1/GPa) = 0.01723372
#
# Stress axis : x y z
#
# Youngs Moduli (GPa) = 149.80905 136.11289 67.52822
#
# Poissons Ratio (x) = 0.25625 0.11502
# Poissons Ratio (y) = 0.28204 0.14941
# Poissons Ratio (z) = 0.25517 0.30115
#
# Static dielectric constant tensor:
#      x y z
#    x 1.797820 0.000000 0.000000 
#    y 0.000000 1.800160 0.000000 
#    z 0.000000 0.000000 1.940830 
# 
# From -- ./inp_files/1138.got.cif
#   From: 2010.05.17/outbox.cif.g08.bks.cpg/sg24_1_cif.got.tgz:1138.got - 2010.06.04 00:33:39.
