data_PCOD9334873
_publ_section_title
;
Structure prediction by ZEFSAII (Michael W. Deem and Ramdas Pophale) SiO2 
 PCOD9334873
Probable space group: I 21 21 21
;
_chemical_formula_sum "Si O2"
_cell_formula_units_Z 56
_cell_length_a 26.309094
_cell_length_b 19.400037
_cell_length_c 5.595378
_cell_angle_alpha 90.000000
_cell_angle_beta 90.000000
_cell_angle_gamma 90.000000
_cell_volume 2855.866367
_symmetry_space_group_name_H-M "I 21 21 21"
_symmetry_group_IT_number 24
_symmetry_cell_setting 'orthorhombic'
loop_
_space_group_symop_operation_xyz
x,y,z
-x,1/2-y,z
x,-y,1/2-z
1/2-x,y,-z
1/2+x,1/2+y,1/2+z
1/2-x,-y,1/2+z
1/2+x,1/2-y,-z
-x,1/2+y,1/2-z
loop_
_atom_site_type_symbol
_atom_site_label
_atom_site_fract_x
_atom_site_fract_y
_atom_site_fract_z
Si Si1 0.699841 0.922901 0.254741
Si Si2 0.868889 0.161601 0.088928
Si Si3 0.438862 0.236346 0.157841
Si Si4 0.602834 0.936481 0.929101
Si Si5 0.543261 0.689614 0.852308
Si Si6 0.494881 0.039086 0.489078
Si Si7 0.232548 0.283969 0.252589
O O1 0.665039 0.900327 0.479142
O O2 0.739324 0.859939 0.239165
O O3 0.722811 0.000000 0.250000
O O4 0.656912 0.926140 0.051605
O O5 0.902155 0.199261 0.892900
O O6 0.907952 0.131047 0.275034
O O7 0.827485 0.207561 0.224244
O O8 0.500000 0.250000 0.172783
O O9 0.433533 0.190362 0.915762
O O10 0.422981 0.210549 0.418903
O O11 0.553588 0.947393 0.085887
O O12 0.605473 0.000000 0.750000
O O13 0.500000 0.750000 0.836308
O O14 0.525692 0.614276 0.938835
O O15 0.493357 0.000000 0.750000
O O16 0.472877 0.000000 0.250000
O O17 0.250000 0.250389 0.500000
O O18 0.250000 0.252536 0.000000
#
# Coordination Sequence:
#
# PCOD9334873 Si02
#       7
#     8   8   8   8   8   8   8
#     4  11  22  34  51  70 105 144 198 244 295 341
#     4  11  23  36  52  74 103 142 193 252 299 342
#     4  10  22  35  56  78 100 137 183 243 298 354
#     4  11  21  31  50  72 102 141 187 244 298 338
#     4  10  21  38  57  78 109 144 187 240 293 359
#     4  11  24  38  57  82 114 147 191 244 305 348
#     4  10  22  37  50  70  96 140 185 237 290 337
#
# _framework density 19.60876
#
# number of rings (size 3 to 8) (size 9 to 14) (size 15 to 20)
#    0.000    1.429    2.857    3.000    8.000    2.286 
#    0.000    0.000    0.000    0.000    0.000    0.000 
#    0.000    0.000    0.000    0.000    0.000  197.143 
#
# Total GULP energy -155903.990037 kJ/mol
# GULP energy per Si atom -5567.999644 kJ/mol
# Density = 1.956413 g / cm^3
# Si number density = 19.608760 Si / 1000 Ang^3
#
#
#
# Elastic Constant Matrix: (Units=GPa)
#
#
# Indices 1 2 3 4 5 6 
#
# 1 28.1303 7.6232 4.1072 0.0000 0.0000 0.0000
# 2 7.6232 51.0435 8.4014 0.0000 0.0000 0.0000
# 3 4.1072 8.4014 110.5932 0.0000 0.0000 0.0000
# 4 0.0000 0.0000 0.0000 18.8828 0.0000 0.0000
# 5 0.0000 0.0000 0.0000 0.0000 38.6258 0.0000
# 6 0.0000 0.0000 0.0000 0.0000 0.0000 8.2862
#
#
#
# Elastic Compliance Matrix: (Units=1/GPa)
#
#
# Indices 1 2 3 4 5 6 
#
# 1 0.037151 -0.005389 -0.000970 0.000000 0.000000 0.000000
# 2 -0.005389 0.020621 -0.001366 0.000000 0.000000 0.000000
# 3 -0.000970 -0.001366 0.009182 0.000000 0.000000 0.000000
# 4 0.000000 0.000000 0.000000 0.052958 0.000000 0.000000
# 5 0.000000 0.000000 0.000000 0.000000 0.025889 0.000000
# 6 0.000000 0.000000 0.000000 0.000000 0.000000 0.120683
#
#
# Mechanical properties :
#
#
# Convention : Reuss Voigt Hill
#
# Bulk Modulus (GPa) = 19.41638 25.55895 22.48766
# Shear Modulus (GPa) = 16.71668 24.46796 20.59232
#
# Velocity S-wave (km/s) = 2.92295 3.53626 3.24413
# Velocity P-wave (km/s) = 4.61680 5.45310 5.05229
#
# Compressibility (1/GPa) = 0.05150292
#
# Stress axis : x y z
#
# Youngs Moduli (GPa) = 26.91731 48.49468 108.90897
#
# Poissons Ratio (x) = 0.26132 0.10568
# Poissons Ratio (y) = 0.14505 0.14881
# Poissons Ratio (z) = 0.02612 0.06626
#
# Static dielectric constant tensor:
#      x y z
#    x 1.700190 0.000000 0.000000 
#    y 0.000000 1.718210 0.000000 
#    z 0.000000 0.000000 1.842380 
# 
# From -- ./inp_files/7320.got.cif
#   From: 2010.05.17/outbox.cif.g08.bks.cpg/sg24_4_cif.got.tgz:7320.got - 2010.06.04 00:33:39.
