data_PCOD9334376
_publ_section_title
;
Structure prediction by ZEFSAII (Michael W. Deem and Ramdas Pophale) SiO2 
 PCOD9334376
Probable space group: I 21 21 21
;
_chemical_formula_sum "Si O2"
_cell_formula_units_Z 60
_cell_length_a 7.920197
_cell_length_b 11.707148
_cell_length_c 27.337536
_cell_angle_alpha 90.000000
_cell_angle_beta 90.000000
_cell_angle_gamma 90.000000
_cell_volume 2534.816122
_symmetry_space_group_name_H-M "I 21 21 21"
_symmetry_group_IT_number 24
_symmetry_cell_setting 'orthorhombic'
loop_
_space_group_symop_operation_xyz
x,y,z
-x,1/2-y,z
x,-y,1/2-z
1/2-x,y,-z
1/2+x,1/2+y,1/2+z
1/2-x,-y,1/2+z
1/2+x,1/2-y,-z
-x,1/2+y,1/2-z
loop_
_atom_site_type_symbol
_atom_site_label
_atom_site_fract_x
_atom_site_fract_y
_atom_site_fract_z
Si Si1 0.690421 0.557397 0.913578
Si Si2 0.314972 0.296765 0.422652
Si Si3 0.576035 0.968022 0.430905
Si Si4 0.553918 0.881845 0.324152
Si Si5 0.181880 0.707661 0.181341
Si Si6 0.800330 0.000000 0.250000
Si Si7 0.437325 0.862997 0.521980
Si Si8 0.763460 0.546157 0.199208
O O1 0.690497 0.689714 0.930986
O O2 0.573541 0.474490 0.944482
O O3 0.657553 0.541419 0.855648
O O4 0.884361 0.516995 0.922794
O O5 0.500000 0.250000 0.435360
O O6 0.305244 0.424023 0.442951
O O7 0.301452 0.318771 0.364208
O O8 0.613622 0.907264 0.379639
O O9 0.559980 0.884110 0.476235
O O10 0.500000 0.750000 0.320535
O O11 0.697040 0.917873 0.286664
O O12 0.401449 0.967593 0.309089
O O13 0.136452 0.598486 0.213291
O O14 0.265001 0.818200 0.207253
O O15 0.000000 0.750000 0.163104
O O16 0.500000 0.750000 0.549134
O O17 0.250000 0.847671 0.500000
O O18 0.843209 0.500000 0.250000
#
# Coordination Sequence:
#
# PCOD9334376 Si02
#       8
#     8   8   8   8   8   4   8   8
#     4   8  18  33  61  93 126 164 206 271 342 384
#     4   9  17  37  68  93 118 164 226 281 328 381
#     4   9  17  34  62  94 125 163 214 276 333 385
#     4  11  21  34  60 101 128 161 227 292 323 369
#     4  11  25  40  60  87 137 178 215 264 334 398
#     4  12  24  36  60  94 134 176 224 270 334 392
#     4  10  20  38  63  92 131 172 211 264 338 409
#     4  10  20  38  63  85 123 166 218 271 325 370
#
# _framework density 23.670356999999999
#
# number of rings (size 3 to 8) (size 9 to 14) (size 15 to 20)
#    0.000    2.133    2.000    2.000    0.933    0.000 
#    0.000    3.333   11.733   36.000    0.000    0.000 
#    0.000    0.000    0.000    0.000    0.000    0.000 
#
# Total GULP energy -167396.282014 kJ/mol
# GULP energy per Si atom -5579.876067 kJ/mol
# Density = 2.361648 g / cm^3
# Si number density = 23.670357 Si / 1000 Ang^3
#
#
#
# Elastic Constant Matrix: (Units=GPa)
#
#
# Indices 1 2 3 4 5 6 
#
# 1 21.6014 32.6408 11.2225 0.0000 0.0000 0.0000
# 2 32.6408 154.4207 40.1014 0.0000 0.0000 0.0000
# 3 11.2225 40.1014 89.8200 0.0000 0.0000 0.0000
# 4 0.0000 0.0000 0.0000 35.1271 0.0000 0.0000
# 5 0.0000 0.0000 0.0000 0.0000 17.4233 0.0000
# 6 0.0000 0.0000 0.0000 0.0000 0.0000 35.9603
#
#
#
# Elastic Compliance Matrix: (Units=1/GPa)
#
#
# Indices 1 2 3 4 5 6 
#
# 1 0.068460 -0.013856 -0.002367 0.000000 0.000000 0.000000
# 2 -0.013856 0.010130 -0.002791 0.000000 0.000000 0.000000
# 3 -0.002367 -0.002791 0.012675 0.000000 0.000000 0.000000
# 4 0.000000 0.000000 0.000000 0.028468 0.000000 0.000000
# 5 0.000000 0.000000 0.000000 0.000000 0.057394 0.000000
# 6 0.000000 0.000000 0.000000 0.000000 0.000000 0.027808
#
#
# Mechanical properties :
#
#
# Convention : Reuss Voigt Hill
#
# Bulk Modulus (GPa) = 18.78437 48.19684 33.49060
# Shear Modulus (GPa) = 19.17832 29.82731 24.50282
#
# Velocity S-wave (km/s) = 2.84953 3.55366 3.22089
# Velocity P-wave (km/s) = 4.33353 6.10278 5.29261
#
# Compressibility (1/GPa) = 0.05323576
#
# Stress axis : x y z
#
# Youngs Moduli (GPa) = 14.60697 98.72149 78.89321
#
# Poissons Ratio (x) = 1.36789 0.18678
# Poissons Ratio (y) = 0.20240 0.22021
# Poissons Ratio (z) = 0.03458 0.27555
#
# Static dielectric constant tensor:
#      x y z
#    x 1.982650 0.000000 0.000000 
#    y 0.000000 1.903950 0.000000 
#    z 0.000000 0.000000 1.916120 
# 
# From -- ./inp_files/36918.got.cif
#   From: 2010.05.17/outbox.cif.g08.bks.cpg/sg24_19_cif.got.tgz:36918.got - 2010.06.04 00:33:39.
