data_PCOD9334248
_publ_section_title
;
Structure prediction by ZEFSAII (Michael W. Deem and Ramdas Pophale) SiO2 
 PCOD9334248
Probable space group: I 21 21 21
;
_chemical_formula_sum "Si O2"
_cell_formula_units_Z 44
_cell_length_a 5.034482
_cell_length_b 15.325632
_cell_length_c 29.846618
_cell_angle_alpha 90.000000
_cell_angle_beta 90.000000
_cell_angle_gamma 90.000000
_cell_volume 2302.864117
_symmetry_space_group_name_H-M "I 21 21 21"
_symmetry_group_IT_number 24
_symmetry_cell_setting 'orthorhombic'
loop_
_space_group_symop_operation_xyz
x,y,z
-x,1/2-y,z
x,-y,1/2-z
1/2-x,y,-z
1/2+x,1/2+y,1/2+z
1/2-x,-y,1/2+z
1/2+x,1/2-y,-z
-x,1/2+y,1/2-z
loop_
_atom_site_type_symbol
_atom_site_label
_atom_site_fract_x
_atom_site_fract_y
_atom_site_fract_z
Si Si1 0.425964 0.022799 0.393545
Si Si2 0.921190 0.917139 0.415177
Si Si3 0.248443 0.186380 0.550706
Si Si4 0.123343 0.343632 0.181552
Si Si5 0.383233 0.049128 0.203708
Si Si6 0.750000 0.807577 0.500000
O O1 0.306852 0.111955 0.412848
O O2 0.719997 0.999346 0.410897
O O3 0.430688 0.012414 0.339735
O O4 0.223232 0.948757 0.411235
O O5 0.864526 0.856610 0.372104
O O6 0.859158 0.866334 0.459977
O O7 0.500000 0.250000 0.557681
O O8 0.250000 0.147208 0.500000
O O9 0.000000 0.250000 0.551465
O O10 0.412279 0.369951 0.199400
O O11 0.000000 0.250000 0.192389
O O12 0.914972 0.415099 0.199581
O O13 0.425489 0.000000 0.250000
O O14 0.500000 0.750000 0.484163
#
# Coordination Sequence:
#
# PCOD9334248 Si02
#       6
#     8   8   8   8   8   4
#     4  10  21  38  58  81 110 150 190 228 287 344
#     4  10  22  35  56  82 111 152 186 228 271 332
#     4  10  21  36  56  82 110 145 185 235 284 330
#     4  10  20  37  59  83 112 149 190 227 281 341
#     4  10  21  38  59  84 114 146 188 240 285 339
#     4  12  24  36  52  82 118 148 184 230 278 318
#
# _framework density 19.106639999999999
#
# number of rings (size 3 to 8) (size 9 to 14) (size 15 to 20)
#    0.000    1.818    0.000    3.818    2.545    2.909 
#    0.000    2.727    0.000    0.000    0.000    0.000 
#    0.000    0.000    0.000    0.000    0.000    0.000 
#
# Total GULP energy -122842.845263 kJ/mol
# GULP energy per Si atom -5583.765694 kJ/mol
# Density = 1.906315 g / cm^3
# Si number density = 19.106640 Si / 1000 Ang^3
#
#
#
# Elastic Constant Matrix: (Units=GPa)
#
#
# Indices 1 2 3 4 5 6 
#
# 1 85.8976 -4.2156 12.2887 0.0000 0.0000 0.0000
# 2 -4.2156 58.3192 50.4859 0.0000 0.0000 0.0000
# 3 12.2887 50.4859 113.0148 0.0000 0.0000 0.0000
# 4 0.0000 0.0000 0.0000 8.1437 0.0000 0.0000
# 5 0.0000 0.0000 0.0000 0.0000 14.6857 0.0000
# 6 0.0000 0.0000 0.0000 0.0000 0.0000 5.6955
#
#
#
# Elastic Compliance Matrix: (Units=1/GPa)
#
#
# Indices 1 2 3 4 5 6 
#
# 1 0.012206 0.003312 -0.002807 0.000000 0.000000 0.000000
# 2 0.003312 0.028858 -0.013252 0.000000 0.000000 0.000000
# 3 -0.002807 -0.013252 0.015073 0.000000 0.000000 0.000000
# 4 0.000000 0.000000 0.000000 0.122794 0.000000 0.000000
# 5 0.000000 0.000000 0.000000 0.000000 0.068093 0.000000
# 6 0.000000 0.000000 0.000000 0.000000 0.000000 0.175578
#
#
# Mechanical properties :
#
#
# Convention : Reuss Voigt Hill
#
# Bulk Modulus (GPa) = 32.63208 41.59439 37.11323
# Shear Modulus (GPa) = 10.90964 18.94983 14.92973
#
# Velocity S-wave (km/s) = 2.39213 3.15269 2.79837
# Velocity P-wave (km/s) = 4.97450 5.92195 5.46878
#
# Compressibility (1/GPa) = 0.03064469
#
# Stress axis : x y z
#
# Youngs Moduli (GPa) = 81.92786 34.65234 66.34233
#
# Poissons Ratio (x) = -0.11477 0.18621
# Poissons Ratio (y) = -0.27135 0.87914
# Poissons Ratio (z) = 0.22995 0.45920
#
# Static dielectric constant tensor:
#      x y z
#    x 1.646570 0.000000 0.000000 
#    y 0.000000 1.648140 0.000000 
#    z 0.000000 0.000000 1.651580 
# 
# From -- ./inp_files/7048.got.cif
#   From: 2010.05.17/outbox.cif.g08.bks.cpg/sg24_4_cif.got.tgz:7048.got - 2010.06.04 00:33:39.
