data_PCOD9334516
_publ_section_title
;
Structure prediction by ZEFSAII (Michael W. Deem and Ramdas Pophale) SiO2 
 PCOD9334516
Probable space group: I 21 21 21
;
_chemical_formula_sum "Si O2"
_cell_formula_units_Z 48
_cell_length_a 7.563022
_cell_length_b 15.907581
_cell_length_c 17.711784
_cell_angle_alpha 90.000000
_cell_angle_beta 90.000000
_cell_angle_gamma 90.000000
_cell_volume 2130.893842
_symmetry_space_group_name_H-M "I 21 21 21"
_symmetry_group_IT_number 24
_symmetry_cell_setting 'orthorhombic'
loop_
_space_group_symop_operation_xyz
x,y,z
-x,1/2-y,z
x,-y,1/2-z
1/2-x,y,-z
1/2+x,1/2+y,1/2+z
1/2-x,-y,1/2+z
1/2+x,1/2-y,-z
-x,1/2+y,1/2-z
loop_
_atom_site_type_symbol
_atom_site_label
_atom_site_fract_x
_atom_site_fract_y
_atom_site_fract_z
Si Si1 0.194017 0.255203 0.835767
Si Si2 0.189304 0.240717 0.316297
Si Si3 0.764845 0.406259 0.908864
Si Si4 0.808903 0.101065 0.586572
Si Si5 0.768153 0.586312 0.911143
Si Si6 0.354163 0.445825 0.171151
O O1 0.178086 0.220046 0.750696
O O2 0.303757 0.183360 0.878969
O O3 0.237751 0.353847 0.824137
O O4 0.000000 0.250000 0.873438
O O5 0.241138 0.322380 0.363070
O O6 0.174894 0.163287 0.372087
O O7 0.000000 0.250000 0.277537
O O8 0.686684 0.497116 0.886058
O O9 0.960247 0.422252 0.871103
O O10 0.750000 0.403781 0.000000
O O11 0.750000 0.112458 0.500000
O O12 0.020955 0.097791 0.599755
O O13 0.750345 0.010193 0.617176
O O14 0.750000 0.591752 0.000000
O O15 0.378039 0.500000 0.250000
#
# Coordination Sequence:
#
# PCOD9334516 Si02
#       6
#     8   8   8   8   8   8
#     4  10  21  40  66  91 123 171 218 262 316 389
#     4  12  24  38  57  90 127 165 213 270 332 382
#     4   9  21  38  64  97 127 164 218 267 319 385
#     4  11  22  38  63  92 124 164 211 265 325 393
#     4  10  21  39  60  88 124 163 208 259 319 388
#     4  10  20  39  67  96 126 172 223 264 322 397
#
# _framework density 22.525759999999998
#
# number of rings (size 3 to 8) (size 9 to 14) (size 15 to 20)
#    0.000    1.667    1.667    3.000    7.000    0.667 
#    0.000   10.833    0.000    0.000    0.000    0.000 
#    0.000    0.000    0.000    0.000    0.000    0.000 
#
# Total GULP energy -133633.590615 kJ/mol
# GULP energy per Si atom -5568.066276 kJ/mol
# Density = 2.247449 g / cm^3
# Si number density = 22.525760 Si / 1000 Ang^3
#
#
#
# Elastic Constant Matrix: (Units=GPa)
#
#
# Indices 1 2 3 4 5 6 
#
# 1 65.8244 5.2379 4.5274 0.0000 0.0000 0.0000
# 2 5.2379 206.5420 48.0661 0.0000 0.0000 0.0000
# 3 4.5274 48.0661 81.6301 0.0000 0.0000 0.0000
# 4 0.0000 0.0000 0.0000 46.8368 0.0000 0.0000
# 5 0.0000 0.0000 0.0000 0.0000 14.2136 0.0000
# 6 0.0000 0.0000 0.0000 0.0000 0.0000 -10.8041
#
#
#
# Elastic Compliance Matrix: (Units=1/GPa)
#
#
# Indices 1 2 3 4 5 6 
#
# 1 0.015259 -0.000220 -0.000717 0.000000 0.000000 0.000000
# 2 -0.000220 0.005614 -0.003293 0.000000 0.000000 0.000000
# 3 -0.000717 -0.003293 0.014229 0.000000 0.000000 0.000000
# 4 0.000000 0.000000 0.000000 0.021351 0.000000 0.000000
# 5 0.000000 0.000000 0.000000 0.000000 0.070355 0.000000
# 6 0.000000 0.000000 0.000000 0.000000 0.000000 -0.092557
#
#
# Mechanical properties :
#
#
# Convention : Reuss Voigt Hill
#
# Bulk Modulus (GPa) = 37.53540 52.18437 44.85988
# Shear Modulus (GPa) = 96.91628 29.79360 63.35494
#
# Velocity S-wave (km/s) = 6.56643 3.64076 5.30911
# Velocity P-wave (km/s) = 8.61337 6.39456 7.58553
#
# Compressibility (1/GPa) = 0.02664152
#
# Stress axis : x y z
#
# Youngs Moduli (GPa) = 65.53618 178.13842 70.27761
#
# Poissons Ratio (x) = 0.03922 0.05036
# Poissons Ratio (y) = 0.01443 0.23144
# Poissons Ratio (z) = 0.04697 0.58665
#
# Static dielectric constant tensor:
#      x y z
#    x 1.068330 0.000000 0.000000 
#    y 0.000000 1.899960 0.000000 
#    z 0.000000 0.000000 1.807660 
# 
# From -- ./inp_files/24805.got.cif
#   From: 2010.05.17/outbox.cif.g08.bks.cpg/sg24_13_cif.got.tgz:24805.got - 2010.06.04 00:33:39.
