data_PCOD9334974
_publ_section_title
;
Structure prediction by ZEFSAII (Michael W. Deem and Ramdas Pophale) SiO2 
 PCOD9334974
Probable space group: I 21 21 21
;
_chemical_formula_sum "Si O2"
_cell_formula_units_Z 64
_cell_length_a 11.810086
_cell_length_b 16.960327
_cell_length_c 15.353345
_cell_angle_alpha 90.000000
_cell_angle_beta 90.000000
_cell_angle_gamma 90.000000
_cell_volume 3075.319842
_symmetry_space_group_name_H-M "I 21 21 21"
_symmetry_group_IT_number 24
_symmetry_cell_setting 'orthorhombic'
loop_
_space_group_symop_operation_xyz
x,y,z
-x,1/2-y,z
x,-y,1/2-z
1/2-x,y,-z
1/2+x,1/2+y,1/2+z
1/2-x,-y,1/2+z
1/2+x,1/2-y,-z
-x,1/2+y,1/2-z
loop_
_atom_site_type_symbol
_atom_site_label
_atom_site_fract_x
_atom_site_fract_y
_atom_site_fract_z
Si Si1 0.792694 0.160559 0.371134
Si Si2 0.252683 0.027324 0.352333
Si Si3 0.174767 0.793400 0.423917
Si Si4 0.959369 0.085577 0.258766
Si Si5 0.812277 0.680776 0.228014
Si Si6 0.934832 0.828945 0.959378
Si Si7 0.570499 0.872770 0.569036
Si Si8 0.063995 0.989307 0.996783
O O1 0.865392 0.089067 0.332932
O O2 0.803023 0.230658 0.302914
O O3 0.861165 0.190547 0.455055
O O4 0.662460 0.144297 0.392009
O O5 0.253992 0.122064 0.336307
O O6 0.144365 0.008633 0.415979
O O7 0.358084 0.997813 0.410877
O O8 0.252762 0.000000 0.250000
O O9 0.250000 0.828127 0.500000
O O10 0.222908 0.816467 0.329353
O O11 0.154506 0.700693 0.444592
O O12 0.052092 0.831842 0.426778
O O13 0.902232 0.100118 0.166313
O O14 0.058356 0.148755 0.274778
O O15 0.013099 0.000000 0.250000
O O16 0.000000 0.750000 0.931472
O O17 0.015542 0.901209 0.984495
O O18 0.540095 0.948656 0.509364
#
# Coordination Sequence:
#
# PCOD9334974 Si02
#       8
#     8   8   8   8   8   8   8   8
#     4  11  22  37  63  90 121 173 210 267 326 394
#     4  11  23  39  66 101 125 173 216 269 338 392
#     4  10  22  39  63  92 123 167 216 273 336 388
#     4  11  20  36  61  95 124 153 214 272 323 380
#     4  11  20  37  64  94 125 160 217 276 322 390
#     4  11  23  40  60  91 131 170 217 265 335 405
#     4  10  21  39  62  91 125 163 212 273 327 385
#     4  11  24  42  64  96 138 170 215 278 333 399
#
# _framework density 20.810842999999998
#
# number of rings (size 3 to 8) (size 9 to 14) (size 15 to 20)
#    0.000    1.250    1.250    6.750    3.500    2.000 
#    4.500    1.875    2.750    0.000    0.000    0.000 
#    0.000    0.000    0.000    0.000    0.000    0.000 
#
# Total GULP energy -178448.715859 kJ/mol
# GULP energy per Si atom -5576.522371 kJ/mol
# Density = 2.076348 g / cm^3
# Si number density = 20.810843 Si / 1000 Ang^3
#
#
#
# Elastic Constant Matrix: (Units=GPa)
#
#
# Indices 1 2 3 4 5 6 
#
# 1 56.5625 5.5038 44.0742 0.0000 0.0000 0.0000
# 2 5.5038 78.2320 18.2386 0.0000 0.0000 0.0000
# 3 44.0742 18.2386 117.6106 0.0000 0.0000 0.0000
# 4 0.0000 0.0000 0.0000 25.6635 0.0000 0.0000
# 5 0.0000 0.0000 0.0000 0.0000 29.7010 0.0000
# 6 0.0000 0.0000 0.0000 0.0000 0.0000 16.4700
#
#
#
# Elastic Compliance Matrix: (Units=1/GPa)
#
#
# Indices 1 2 3 4 5 6 
#
# 1 0.024986 0.000441 -0.009432 0.000000 0.000000 0.000000
# 2 0.000441 0.013270 -0.002223 0.000000 0.000000 0.000000
# 3 -0.009432 -0.002223 0.012382 0.000000 0.000000 0.000000
# 4 0.000000 0.000000 0.000000 0.038966 0.000000 0.000000
# 5 0.000000 0.000000 0.000000 0.000000 0.033669 0.000000
# 6 0.000000 0.000000 0.000000 0.000000 0.000000 0.060716
#
#
# Mechanical properties :
#
#
# Convention : Reuss Voigt Hill
#
# Bulk Modulus (GPa) = 35.44845 43.11535 39.28190
# Shear Modulus (GPa) = 23.16746 26.67281 24.92014
#
# Velocity S-wave (km/s) = 3.34014 3.58394 3.46419
# Velocity P-wave (km/s) = 5.65208 6.15539 5.90910
#
# Compressibility (1/GPa) = 0.02820998
#
# Stress axis : x y z
#
# Youngs Moduli (GPa) = 40.02227 75.35935 80.76271
#
# Poissons Ratio (x) = -0.03324 0.76174
# Poissons Ratio (y) = -0.01765 0.17954
# Poissons Ratio (z) = 0.37748 0.16753
#
# Static dielectric constant tensor:
#      x y z
#    x 1.749940 0.000000 0.000000 
#    y 0.000000 1.832120 0.000000 
#    z 0.000000 0.000000 1.772000 
# 
# From -- ./inp_files/26007.got.cif
#   From: 2010.05.17/outbox.cif.g08.bks.cpg/sg24_14_cif.got.tgz:26007.got - 2010.06.04 00:33:39.
