data_PCOD9334867
_publ_section_title
;
Structure prediction by ZEFSAII (Michael W. Deem and Ramdas Pophale) SiO2 
 PCOD9334867
Probable space group: I 21 21 21
;
_chemical_formula_sum "Si O2"
_cell_formula_units_Z 48
_cell_length_a 9.940046
_cell_length_b 7.138045
_cell_length_c 28.995660
_cell_angle_alpha 90.000000
_cell_angle_beta 90.000000
_cell_angle_gamma 90.000000
_cell_volume 2057.314440
_symmetry_space_group_name_H-M "I 21 21 21"
_symmetry_group_IT_number 24
_symmetry_cell_setting 'orthorhombic'
loop_
_space_group_symop_operation_xyz
x,y,z
-x,1/2-y,z
x,-y,1/2-z
1/2-x,y,-z
1/2+x,1/2+y,1/2+z
1/2-x,-y,1/2+z
1/2+x,1/2-y,-z
-x,1/2+y,1/2-z
loop_
_atom_site_type_symbol
_atom_site_label
_atom_site_fract_x
_atom_site_fract_y
_atom_site_fract_z
Si Si1 0.184242 0.445575 0.610695
Si Si2 0.095094 0.570478 0.985319
Si Si3 0.358097 0.706679 0.308212
Si Si4 0.740447 0.559649 0.861720
Si Si5 0.655665 0.709619 0.766204
Si Si6 0.017039 0.524740 0.082031
O O1 0.110483 0.520532 0.564871
O O2 0.128142 0.532694 0.657305
O O3 0.181172 0.217458 0.608897
O O4 0.341125 0.507273 0.607007
O O5 0.000000 0.750000 0.980386
O O6 0.250000 0.620507 0.000000
O O7 0.034413 0.460807 0.029242
O O8 0.500000 0.750000 0.284595
O O9 0.245147 0.676751 0.269857
O O10 0.320027 0.887458 0.339568
O O11 0.687504 0.694951 0.820206
O O12 0.615003 0.470325 0.889625
O O13 0.500000 0.750000 0.759707
O O14 0.683413 0.500000 0.750000
O O15 0.000000 0.750000 0.079324
#
# Coordination Sequence:
#
# PCOD9334867 Si02
#       6
#     8   8   8   8   8   8
#     4  10  21  37  68  88 127 176 207 260 332 384
#     4   9  18  34  61  96 126 167 219 271 326 391
#     4  11  27  43  58  94 139 168 214 271 323 400
#     4  10  22  42  68  97 125 170 224 266 327 393
#     4  10  23  42  67  98 126 163 221 276 326 385
#     4   8  16  35  65  97 124 156 219 277 317 382
#
# _framework density 23.331386999999999
#
# number of rings (size 3 to 8) (size 9 to 14) (size 15 to 20)
#    0.000    2.333    0.000    2.500    9.333    0.000 
#    9.000    0.000   11.000    0.000    0.000    0.000 
#    0.000    0.000    0.000    0.000    0.000    0.000 
#
# Total GULP energy -133979.517003 kJ/mol
# GULP energy per Si atom -5582.479875 kJ/mol
# Density = 2.327828 g / cm^3
# Si number density = 23.331387 Si / 1000 Ang^3
#
#
#
# Elastic Constant Matrix: (Units=GPa)
#
#
# Indices 1 2 3 4 5 6 
#
# 1 102.5452 9.8091 40.1792 0.0000 0.0000 0.0000
# 2 9.8091 72.7830 3.7474 0.0000 0.0000 0.0000
# 3 40.1792 3.7474 111.8283 0.0000 0.0000 0.0000
# 4 0.0000 0.0000 0.0000 -330.7649 0.0000 0.0000
# 5 0.0000 0.0000 0.0000 0.0000 75.3385 0.0000
# 6 0.0000 0.0000 0.0000 0.0000 0.0000 17.9843
#
#
#
# Elastic Compliance Matrix: (Units=1/GPa)
#
#
# Indices 1 2 3 4 5 6 
#
# 1 0.011478 -0.001337 -0.004079 0.000000 0.000000 0.000000
# 2 -0.001337 0.013919 0.000014 0.000000 0.000000 0.000000
# 3 -0.004079 0.000014 0.010407 0.000000 0.000000 0.000000
# 4 0.000000 0.000000 0.000000 -0.003023 0.000000 0.000000
# 5 0.000000 0.000000 0.000000 0.000000 0.013273 0.000000
# 6 0.000000 0.000000 0.000000 0.000000 0.000000 0.055604
#
#
# Mechanical properties :
#
#
# Convention : Reuss Voigt Hill
#
# Bulk Modulus (GPa) = 39.99992 43.84755 41.92374
# Shear Modulus (GPa) = 41.39200 -31.92705 4.73247
#
# Velocity S-wave (km/s) = 4.21657 -3.70322 1.42575
# Velocity P-wave (km/s) = 6.39432 0.74096 4.55172
#
# Compressibility (1/GPa) = 0.02500005
#
# Stress axis : x y z
#
# Youngs Moduli (GPa) = 87.12341 71.84463 96.08517
#
# Poissons Ratio (x) = 0.09605 0.39195
# Poissons Ratio (y) = 0.11647 -0.00134
# Poissons Ratio (z) = 0.35539 -0.00100
#
# Static dielectric constant tensor:
#      x y z
#    x 1.976640 0.000000 0.000000 
#    y 0.000000 1.888020 0.000000 
#    z 0.000000 0.000000 1.945760 
# 
# From -- ./inp_files/38272.got.cif
#   From: 2010.05.17/outbox.cif.g08.bks.cpg/sg24_20_cif.got.tgz:38272.got - 2010.06.04 00:33:39.
