data_PCOD9334490
_publ_section_title
;
Structure prediction by ZEFSAII (Michael W. Deem and Ramdas Pophale) SiO2 
 PCOD9334490
Probable space group: I 21 21 21
;
_chemical_formula_sum "Si O2"
_cell_formula_units_Z 40
_cell_length_a 10.337852
_cell_length_b 15.910621
_cell_length_c 10.769820
_cell_angle_alpha 90.000000
_cell_angle_beta 90.000000
_cell_angle_gamma 90.000000
_cell_volume 1771.437711
_symmetry_space_group_name_H-M "I 21 21 21"
_symmetry_group_IT_number 24
_symmetry_cell_setting 'orthorhombic'
loop_
_space_group_symop_operation_xyz
x,y,z
-x,1/2-y,z
x,-y,1/2-z
1/2-x,y,-z
1/2+x,1/2+y,1/2+z
1/2-x,-y,1/2+z
1/2+x,1/2-y,-z
-x,1/2+y,1/2-z
loop_
_atom_site_type_symbol
_atom_site_label
_atom_site_fract_x
_atom_site_fract_y
_atom_site_fract_z
Si Si1 0.900924 0.893588 0.037982
Si Si2 0.532980 0.350164 0.283945
Si Si3 0.796505 0.126485 0.867420
Si Si4 0.000000 0.250000 0.289228
Si Si5 0.775288 0.677025 0.359087
Si Si6 0.390079 0.500000 0.750000
O O1 0.916850 0.807254 0.116796
O O2 0.956011 0.969146 0.124472
O O3 0.750000 0.904107 0.000000
O O4 0.985034 0.887408 0.913214
O O5 0.500000 0.250000 0.292302
O O6 0.442886 0.385847 0.173432
O O7 0.679816 0.363492 0.241935
O O8 0.769634 0.225392 0.864609
O O9 0.704813 0.077596 0.774849
O O10 0.750000 0.095567 0.000000
O O11 0.081486 0.187702 0.198510
O O12 0.750000 0.645047 0.500000
#
# Coordination Sequence:
#
# PCOD9334490 Si02
#       6
#     8   8   8   4   8   4
#     4  12  23  40  63 100 141 177 231 285 349 417
#     4  10  20  39  63  93 138 176 220 285 346 410
#     4  10  21  35  59  91 133 171 224 278 344 403
#     4  12  24  40  66 100 136 182 236 294 348 414
#     4  10  23  39  64  97 132 176 225 291 356 410
#     4  12  22  38  58 100 138 180 228 280 348 412
#
# _framework density 22.58053
#
# number of rings (size 3 to 8) (size 9 to 14) (size 15 to 20)
#    0.000    1.200    5.000    1.800    7.000    0.000 
#    0.000    0.000    0.000    1.200    5.200    0.000 
#    0.000    0.000    0.000    0.000    0.000    0.000 
#
# Total GULP energy -111596.673804 kJ/mol
# GULP energy per Si atom -5579.833690 kJ/mol
# Density = 2.252914 g / cm^3
# Si number density = 22.580530 Si / 1000 Ang^3
#
#
#
# Elastic Constant Matrix: (Units=GPa)
#
#
# Indices 1 2 3 4 5 6 
#
# 1 92.2076 2.3928 67.3535 0.0001 0.0000 0.0000
# 2 2.3928 39.1425 26.5495 0.0001 0.0000 0.0001
# 3 67.3535 26.5495 166.2637 0.0000 0.0000 0.0001
# 4 0.0001 0.0001 0.0000 34.7859 0.0000 0.0001
# 5 0.0000 0.0000 0.0000 0.0000 37.1370 0.0000
# 6 0.0000 0.0001 0.0001 0.0001 0.0000 3.0229
#
#
#
# Elastic Compliance Matrix: (Units=1/GPa)
#
#
# Indices 1 2 3 4 5 6 
#
# 1 0.015893 0.003808 -0.007046 0.000000 0.000000 0.000000
# 2 0.003808 0.029563 -0.006263 0.000000 0.000000 0.000000
# 3 -0.007046 -0.006263 0.009869 0.000000 0.000000 0.000000
# 4 0.000000 0.000000 0.000000 0.028747 0.000000 -0.000001
# 5 0.000000 0.000000 0.000000 0.000000 0.026927 0.000000
# 6 0.000000 0.000000 0.000000 -0.000001 0.000000 0.330814
#
#
# Mechanical properties :
#
#
# Convention : Reuss Voigt Hill
#
# Bulk Modulus (GPa) = 27.53153 54.46728 40.99941
# Shear Modulus (GPa) = 10.57250 28.41034 19.49142
#
# Velocity S-wave (km/s) = 2.16617 3.55093 2.94121
# Velocity P-wave (km/s) = 4.29831 6.40202 5.45258
#
# Compressibility (1/GPa) = 0.03632199
#
# Stress axis : x y z
#
# Youngs Moduli (GPa) = 62.91913 33.82588 101.32503
#
# Poissons Ratio (x) = -0.12881 0.71399
# Poissons Ratio (y) = -0.23959 0.63463
# Poissons Ratio (z) = 0.44336 0.21186
#
# Static dielectric constant tensor:
#      x y z
#    x 1.855800 0.000000 0.000000 
#    y 0.000000 1.870320 0.000000 
#    z 0.000000 0.000000 1.947210 
# 
# From -- ./inp_files/18269.got.cif
#   From: 2010.05.17/outbox.cif.g08.bks.cpg/sg24_10_cif.got.tgz:18269.got - 2010.06.04 00:33:39.
