data_PCOD9334321
_publ_section_title
;
Structure prediction by ZEFSAII (Michael W. Deem and Ramdas Pophale) SiO2 
 PCOD9334321
Probable space group: I 21 21 21
;
_chemical_formula_sum "Si O2"
_cell_formula_units_Z 36
_cell_length_a 22.303227
_cell_length_b 4.971685
_cell_length_c 14.208757
_cell_angle_alpha 90.000000
_cell_angle_beta 90.000000
_cell_angle_gamma 90.000000
_cell_volume 1575.532608
_symmetry_space_group_name_H-M "I 21 21 21"
_symmetry_group_IT_number 24
_symmetry_cell_setting 'orthorhombic'
loop_
_space_group_symop_operation_xyz
x,y,z
-x,1/2-y,z
x,-y,1/2-z
1/2-x,y,-z
1/2+x,1/2+y,1/2+z
1/2-x,-y,1/2+z
1/2+x,1/2-y,-z
-x,1/2+y,1/2-z
loop_
_atom_site_type_symbol
_atom_site_label
_atom_site_fract_x
_atom_site_fract_y
_atom_site_fract_z
Si Si1 0.889509 0.722672 0.931045
Si Si2 0.226675 0.834610 0.835156
Si Si3 0.836179 0.000000 0.250000
Si Si4 0.539765 0.500000 0.250000
Si Si5 0.750000 0.251175 0.000000
Si Si6 0.624299 0.181288 0.945534
O O1 0.828611 0.829524 0.877789
O O2 0.926306 0.607419 0.843161
O O3 0.880481 0.477279 0.007134
O O4 0.914282 0.970406 0.993326
O O5 0.287955 0.704437 0.797541
O O6 0.199266 0.000000 0.750000
O O7 0.239907 0.053551 0.913243
O O8 0.876193 0.859710 0.332332
O O9 0.500000 0.750000 0.282702
O O10 0.807243 0.089554 0.032731
#
# Coordination Sequence:
#
# PCOD9334321 Si02
#       6
#     8   8   4   4   4   8
#     4  11  25  42  59  93 120 164 195 265 314 359
#     4  11  21  34  53  79 128 167 215 243 282 343
#     4  12  22  35  58  92 124 188 212 247 270 348
#     4  12  26  47  74  96 118 148 200 257 330 396
#     4  10  20  38  48  82 120 180 216 256 272 336
#     4  11  23  37  59  83 131 161 217 244 295 346
#
# _framework density 22.849416000000002
#
# number of rings (size 3 to 8) (size 9 to 14) (size 15 to 20)
#    0.000    0.889    3.333    5.333    3.111    1.778 
#    0.000    0.000    0.000    0.000    0.000   15.556 
#    0.000    0.000    0.000    0.000    0.000    0.000 
#
# Total GULP energy -100308.586158 kJ/mol
# GULP energy per Si atom -5572.699231 kJ/mol
# Density = 2.279741 g / cm^3
# Si number density = 22.849416 Si / 1000 Ang^3
#
#
#
# Elastic Constant Matrix: (Units=GPa)
#
#
# Indices 1 2 3 4 5 6 
#
# 1 18.2072 -5.7183 11.7049 0.0000 0.0000 0.0000
# 2 -5.7183 63.9545 31.1390 0.0000 0.0000 0.0000
# 3 11.7049 31.1390 173.3635 0.0000 0.0000 0.0000
# 4 0.0000 0.0000 0.0000 27.4038 0.0000 0.0000
# 5 0.0000 0.0000 0.0000 0.0000 6.7345 0.0000
# 6 0.0000 0.0000 0.0000 0.0000 0.0000 20.5405
#
#
#
# Elastic Compliance Matrix: (Units=1/GPa)
#
#
# Indices 1 2 3 4 5 6 
#
# 1 0.061091 0.008187 -0.005595 0.000000 0.000000 0.000000
# 2 0.008187 0.018232 -0.003827 0.000000 0.000000 0.000000
# 3 -0.005595 -0.003827 0.006833 0.000000 0.000000 0.000000
# 4 0.000000 0.000000 0.000000 0.036491 0.000000 0.000000
# 5 0.000000 0.000000 0.000000 0.000000 0.148488 0.000000
# 6 0.000000 0.000000 0.000000 0.000000 0.000000 0.048684
#
#
# Mechanical properties :
#
#
# Convention : Reuss Voigt Hill
#
# Bulk Modulus (GPa) = 11.94966 36.64183 24.29575
# Shear Modulus (GPa) = 14.27808 25.49576 19.88692
#
# Velocity S-wave (km/s) = 2.50247 3.34401 2.95336
# Velocity P-wave (km/s) = 3.68658 5.56605 4.72079
#
# Compressibility (1/GPa) = 0.08368437
#
# Stress axis : x y z
#
# Youngs Moduli (GPa) = 16.36895 54.84972 146.33876
#
# Poissons Ratio (x) = -0.44903 0.81878
# Poissons Ratio (y) = -0.13400 0.56010
# Poissons Ratio (z) = 0.09159 0.20993
#
# Static dielectric constant tensor:
#      x y z
#    x 1.943830 0.000000 0.000000 
#    y 0.000000 1.907740 0.000000 
#    z 0.000000 0.000000 1.915740 
# 
# From -- ./inp_files/6206.got.cif
#   From: 2010.05.17/outbox.cif.g08.bks.cpg/sg24_4_cif.got.tgz:6206.got - 2010.06.04 00:33:39.
