data_PCOD9334366
_publ_section_title
;
Structure prediction by ZEFSAII (Michael W. Deem and Ramdas Pophale) SiO2 
 PCOD9334366
Probable space group: I 21 21 21
;
_chemical_formula_sum "Si O2"
_cell_formula_units_Z 64
_cell_length_a 9.096014
_cell_length_b 21.418764
_cell_length_c 15.487356
_cell_angle_alpha 90.000000
_cell_angle_beta 90.000000
_cell_angle_gamma 90.000000
_cell_volume 3017.329975
_symmetry_space_group_name_H-M "I 21 21 21"
_symmetry_group_IT_number 24
_symmetry_cell_setting 'orthorhombic'
loop_
_space_group_symop_operation_xyz
x,y,z
-x,1/2-y,z
x,-y,1/2-z
1/2-x,y,-z
1/2+x,1/2+y,1/2+z
1/2-x,-y,1/2+z
1/2+x,1/2-y,-z
-x,1/2+y,1/2-z
loop_
_atom_site_type_symbol
_atom_site_label
_atom_site_fract_x
_atom_site_fract_y
_atom_site_fract_z
Si Si1 0.155965 0.217428 0.416553
Si Si2 0.175416 0.764180 0.281777
Si Si3 0.896223 0.497996 0.655695
Si Si4 0.156012 0.556809 0.585750
Si Si5 0.364213 0.700565 0.419552
Si Si6 0.344448 0.928983 0.918486
Si Si7 0.950825 0.974686 0.344568
Si Si8 0.299938 0.885558 0.599457
O O1 0.250000 0.237403 0.500000
O O2 0.216592 0.229211 0.319367
O O3 0.130000 0.143540 0.425908
O O4 0.000000 0.250000 0.420405
O O5 0.272859 0.713619 0.332184
O O6 0.206133 0.825585 0.339459
O O7 0.000000 0.750000 0.286096
O O8 0.962559 0.500000 0.750000
O O9 0.779212 0.442189 0.653908
O O10 0.801140 0.559132 0.635275
O O11 0.032142 0.504329 0.591987
O O12 0.250000 0.550523 0.500000
O O13 0.091478 0.627355 0.585389
O O14 0.281122 0.544264 0.656928
O O15 0.500000 0.750000 0.427990
O O16 0.250000 0.708005 0.500000
O O17 0.490966 0.967474 0.901858
O O18 0.250000 0.953436 0.000000
O O19 0.038359 0.915621 0.385152
O O20 0.995042 0.000000 0.250000
O O21 0.250000 0.873261 0.500000
#
# Coordination Sequence:
#
# PCOD9334366 Si02
#       8
#     8   8   8   8   8   8   8   8
#     4  10  23  44  67  92 123 162 212 269 324 382
#     4  11  22  38  62  91 124 165 213 263 316 378
#     4  11  21  36  58  86 120 158 202 248 301 367
#     4  11  23  39  56  85 125 160 201 258 319 373
#     4  11  24  40  60  89 127 172 217 263 319 385
#     4  10  20  38  62  86 113 151 197 245 301 369
#     4  11  21  36  60  90 123 160 202 251 308 367
#     4  11  21  37  63  93 126 166 207 249 303 369
#
# _framework density 21.210806000000002
#
# number of rings (size 3 to 8) (size 9 to 14) (size 15 to 20)
#    0.000    1.250    0.000    8.625    0.000    4.500 
#    0.000    5.000    0.000    0.000    0.000    0.000 
#    0.000    0.000    0.000    0.000    0.000    0.000 
#
# Total GULP energy -178567.831555 kJ/mol
# GULP energy per Si atom -5580.244736 kJ/mol
# Density = 2.116253 g / cm^3
# Si number density = 21.210806 Si / 1000 Ang^3
#
#
#
# Elastic Constant Matrix: (Units=GPa)
#
#
# Indices 1 2 3 4 5 6 
#
# 1 96.1905 30.4677 23.3596 0.0000 0.0000 0.0000
# 2 30.4677 66.2649 28.2360 0.0000 0.0000 0.0000
# 3 23.3596 28.2360 151.4398 0.0000 0.0000 0.0000
# 4 0.0000 0.0000 0.0000 -5.5953 0.0000 0.0000
# 5 0.0000 0.0000 0.0000 0.0000 30.7698 0.0000
# 6 0.0000 0.0000 0.0000 0.0000 0.0000 23.3556
#
#
#
# Elastic Compliance Matrix: (Units=1/GPa)
#
#
# Indices 1 2 3 4 5 6 
#
# 1 0.012284 -0.005258 -0.000914 0.000000 0.000000 0.000000
# 2 -0.005258 0.018644 -0.002665 0.000000 0.000000 0.000000
# 3 -0.000914 -0.002665 0.007241 0.000000 0.000000 0.000000
# 4 0.000000 0.000000 0.000000 -0.178722 0.000000 0.000000
# 5 0.000000 0.000000 0.000000 0.000000 0.032499 0.000000
# 6 0.000000 0.000000 0.000000 0.000000 0.000000 0.042816
#
#
# Mechanical properties :
#
#
# Convention : Reuss Voigt Hill
#
# Bulk Modulus (GPa) = 48.79559 53.11352 50.95455
# Shear Modulus (GPa) = -122.75886 25.16149 -48.79869
#
# Velocity S-wave (km/s) = -7.61586 3.44795 -4.80171
# Velocity P-wave (km/s) = 7.36750 6.39893 2.58203
#
# Compressibility (1/GPa) = 0.02049366
#
# Stress axis : x y z
#
# Youngs Moduli (GPa) = 81.40940 53.63584 138.09789
#
# Poissons Ratio (x) = 0.28203 0.12627
# Poissons Ratio (y) = 0.42807 0.36805
# Poissons Ratio (z) = 0.07444 0.14295
#
# Static dielectric constant tensor:
#      x y z
#    x 1.839990 0.000000 0.000000 
#    y 0.000000 1.755490 0.000000 
#    z 0.000000 0.000000 1.881650 
# 
# From -- ./inp_files/25210.got.cif
#   From: 2010.05.17/outbox.cif.g08.bks.cpg/sg24_13_cif.got.tgz:25210.got - 2010.06.04 00:33:39.
