data_PCOD9334169
_publ_section_title
;
Structure prediction by ZEFSAII (Michael W. Deem and Ramdas Pophale) SiO2 
 PCOD9334169
Probable space group: I 21 21 21
;
_chemical_formula_sum "Si O2"
_cell_formula_units_Z 44
_cell_length_a 8.265537
_cell_length_b 11.034621
_cell_length_c 20.570216
_cell_angle_alpha 90.000000
_cell_angle_beta 90.000000
_cell_angle_gamma 90.000000
_cell_volume 1876.149093
_symmetry_space_group_name_H-M "I 21 21 21"
_symmetry_group_IT_number 24
_symmetry_cell_setting 'orthorhombic'
loop_
_space_group_symop_operation_xyz
x,y,z
-x,1/2-y,z
x,-y,1/2-z
1/2-x,y,-z
1/2+x,1/2+y,1/2+z
1/2-x,-y,1/2+z
1/2+x,1/2-y,-z
-x,1/2+y,1/2-z
loop_
_atom_site_type_symbol
_atom_site_label
_atom_site_fract_x
_atom_site_fract_y
_atom_site_fract_z
Si Si1 0.114071 0.366171 0.679187
Si Si2 0.000000 0.250000 0.923045
Si Si3 0.694075 0.758087 0.934876
Si Si4 0.132799 0.997528 0.910669
Si Si5 0.408375 0.077500 0.814473
Si Si6 0.244387 0.667859 0.316921
O O1 0.256658 0.327151 0.630622
O O2 0.167975 0.380934 0.753220
O O3 0.000000 0.250000 0.682224
O O4 0.007682 0.467008 0.642043
O O5 0.070528 0.118627 0.950828
O O6 0.143591 0.295780 0.876552
O O7 0.500000 0.750000 0.935996
O O8 0.807117 0.634109 0.937858
O O9 0.750000 0.827711 0.000000
O O10 0.292793 0.034096 0.871402
O O11 0.594050 0.084439 0.836453
O O12 0.338666 0.207516 0.794905
O O13 0.397573 0.000000 0.750000
#
# Coordination Sequence:
#
# PCOD9334169 Si02
#       6
#     8   4   8   8   8   8
#     4  10  20  36  59  88 121 161 207 260 329 373
#     4  10  22  38  56  86 128 176 208 246 306 392
#     4  11  24  43  69  96 122 153 209 280 339 381
#     4  10  23  38  59  87 125 167 209 258 311 382
#     4  10  21  33  50  78 121 163 205 244 300 375
#     4  10  21  34  52  83 124 163 207 246 303 373
#
# _framework density 23.452293999999998
#
# number of rings (size 3 to 8) (size 9 to 14) (size 15 to 20)
#    0.000    1.818    0.909    3.818   10.182    0.000 
#    0.000    0.000    0.000    7.636    0.000    0.000 
#    0.000    0.000    0.000    0.000    0.000    0.000 
#
# Total GULP energy -122674.476985 kJ/mol
# GULP energy per Si atom -5576.112590 kJ/mol
# Density = 2.339892 g / cm^3
# Si number density = 23.452294 Si / 1000 Ang^3
#
#
#
# Elastic Constant Matrix: (Units=GPa)
#
#
# Indices 1 2 3 4 5 6 
#
# 1 117.4826 -4.6109 8.3811 0.0000 0.0000 0.0000
# 2 -4.6109 97.8431 -23.9713 0.0000 0.0000 0.0000
# 3 8.3811 -23.9713 23.3049 0.0000 0.0000 0.0000
# 4 0.0000 0.0000 0.0000 -4.0803 0.0000 0.0000
# 5 0.0000 0.0000 0.0000 0.0000 16.4350 0.0000
# 6 0.0000 0.0000 0.0000 0.0000 0.0000 962.5307
#
#
#
# Elastic Compliance Matrix: (Units=1/GPa)
#
#
# Indices 1 2 3 4 5 6 
#
# 1 0.008753 -0.000480 -0.003641 0.000000 0.000000 0.000000
# 2 -0.000480 0.013690 0.014254 0.000000 0.000000 0.000000
# 3 -0.003641 0.014254 0.058881 0.000000 0.000000 0.000000
# 4 0.000000 0.000000 0.000000 -0.245082 0.000000 0.000000
# 5 0.000000 0.000000 0.000000 0.000000 0.060846 0.000000
# 6 0.000000 0.000000 0.000000 0.000000 0.000000 0.001039
#
#
# Mechanical properties :
#
#
# Convention : Reuss Voigt Hill
#
# Bulk Modulus (GPa) = 9.84347 22.02537 15.93442
# Shear Modulus (GPa) = -56.63948 212.23253 77.79652
#
# Velocity S-wave (km/s) = -4.91969 9.52323 5.76578
# Velocity P-wave (km/s) = 5.29762 11.41641 7.15086
#
# Compressibility (1/GPa) = 0.10159023
#
# Stress axis : x y z
#
# Youngs Moduli (GPa) = 114.24883 73.04579 16.98353
#
# Poissons Ratio (x) = 0.03503 0.06184
# Poissons Ratio (y) = 0.05479 -0.24208
# Poissons Ratio (z) = 0.41598 -1.04120
#
# Static dielectric constant tensor:
#      x y z
#    x 1.923580 0.000000 0.000000 
#    y 0.000000 2.265050 0.000000 
#    z 0.000000 0.000000 1.728590 
# 
# From -- ./inp_files/35103.got.cif
#   From: 2010.05.17/outbox.cif.g08.bks.cpg/sg24_18_cif.got.tgz:35103.got - 2010.06.04 00:33:39.
