data_PCOD9334285
_publ_section_title
;
Structure prediction by ZEFSAII (Michael W. Deem and Ramdas Pophale) SiO2 
 PCOD9334285
Probable space group: I 21 21 21
;
_chemical_formula_sum "Si O2"
_cell_formula_units_Z 48
_cell_length_a 19.300018
_cell_length_b 9.305392
_cell_length_c 14.652462
_cell_angle_alpha 90.000000
_cell_angle_beta 90.000000
_cell_angle_gamma 90.000000
_cell_volume 2631.497676
_symmetry_space_group_name_H-M "I 21 21 21"
_symmetry_group_IT_number 24
_symmetry_cell_setting 'orthorhombic'
loop_
_space_group_symop_operation_xyz
x,y,z
-x,1/2-y,z
x,-y,1/2-z
1/2-x,y,-z
1/2+x,1/2+y,1/2+z
1/2-x,-y,1/2+z
1/2+x,1/2-y,-z
-x,1/2+y,1/2-z
loop_
_atom_site_type_symbol
_atom_site_label
_atom_site_fract_x
_atom_site_fract_y
_atom_site_fract_z
Si Si1 0.081614 0.212876 0.500000
Si Si2 0.932381 0.350945 0.701102
Si Si3 0.830851 0.853920 0.691842
Si Si4 0.333798 0.488440 1.000000
Si Si5 0.330851 0.353920 0.808158
Si Si6 0.567619 0.350945 0.701102
O O1 0.093521 0.133007 0.596303
O O2 0.126412 0.359698 0.500000
O O3 0.093521 0.133007 0.403697
O O4 0.000000 0.250000 0.500000
O O5 0.949131 0.500000 0.750000
O O6 0.875453 0.267975 0.760662
O O7 0.000000 0.250000 0.699165
O O8 0.750000 0.813408 0.690779
O O9 0.837767 0.000000 0.750000
O O10 0.852134 0.898059 0.589838
O O11 0.250000 0.513148 0.000000
O O12 0.352134 0.398059 0.910162
O O13 0.337767 0.500000 0.750000
O O14 0.375453 0.232025 0.760662
O O15 0.500000 0.250000 0.699165
O O16 0.550869 0.500000 0.750000
#
# Coordination Sequence:
#
# PCOD9334285 Si02
#       6
#     8   8   8   8   8   8
#     4  10  22  37  59  86 121 159 201 248 302 361
#     4  11  24  40  60  87 124 162 204 251 300 359
#     4  10  20  37  62  89 117 155 201 249 300 358
#     4  10  20  37  65  93 120 157 204 251 300 364
#     4  10  20  37  62  89 117 155 201 249 300 358
#     4  11  24  40  60  87 124 162 204 251 300 359
#
# _framework density 18.240563000000002
#
# number of rings (size 3 to 8) (size 9 to 14) (size 15 to 20)
#    0.000    1.667    3.333    1.000    4.667    2.000 
#    0.000    1.667    0.000    0.000    0.000    0.000 
#    0.000    0.000    0.000    0.000    0.000    0.000 
#
# Total GULP energy -133966.716566 kJ/mol
# GULP energy per Si atom -5581.946524 kJ/mol
# Density = 1.819905 g / cm^3
# Si number density = 18.240563 Si / 1000 Ang^3
#
#
#
# Elastic Constant Matrix: (Units=GPa)
#
#
# Indices 1 2 3 4 5 6 
#
# 1 43.1018 30.3745 36.2864 0.0000 0.0000 0.0000
# 2 30.3745 87.3406 61.9460 0.0000 0.0000 0.0000
# 3 36.2864 61.9460 204.3453 0.0000 0.0000 0.0000
# 4 0.0000 0.0000 0.0000 24.0110 0.0000 0.0000
# 5 0.0000 0.0000 0.0000 0.0000 -8.1504 0.0000
# 6 0.0000 0.0000 0.0000 0.0000 0.0000 37.2658
#
#
#
# Elastic Compliance Matrix: (Units=1/GPa)
#
#
# Indices 1 2 3 4 5 6 
#
# 1 0.032068 -0.009062 -0.002947 0.000000 0.000000 0.000000
# 2 -0.009062 0.017146 -0.003589 0.000000 0.000000 0.000000
# 3 -0.002947 -0.003589 0.006505 0.000000 0.000000 0.000000
# 4 0.000000 0.000000 0.000000 0.041648 0.000000 0.000000
# 5 0.000000 0.000000 0.000000 0.000000 -0.122693 0.000000
# 6 0.000000 0.000000 0.000000 0.000000 0.000000 0.026834
#
#
# Mechanical properties :
#
#
# Convention : Reuss Voigt Hill
#
# Bulk Modulus (GPa) = 40.77734 65.77796 53.27765
# Shear Modulus (GPa) = 122.31400 24.37065 73.34233
#
# Velocity S-wave (km/s) = 8.19766 3.65919 6.34789
# Velocity P-wave (km/s) = 10.58329 7.34796 9.11039
#
# Compressibility (1/GPa) = 0.02452342
#
# Stress axis : x y z
#
# Youngs Moduli (GPa) = 31.18339 58.32231 153.72999
#
# Poissons Ratio (x) = 0.52852 0.45311
# Poissons Ratio (y) = 0.28258 0.55167
# Poissons Ratio (z) = 0.09191 0.20929
#
# Static dielectric constant tensor:
#      x y z
#    x 1.627370 0.000000 0.000000 
#    y 0.000000 1.581130 0.000000 
#    z 0.000000 0.000000 1.664000 
# 
# From -- ./inp_files/27027.got.cif
#   From: 2010.05.17/outbox.cif.g08.bks.cpg/sg24_14_cif.got.tgz:27027.got - 2010.06.04 00:33:39.
