data_PCOD9334771
_publ_section_title
;
Structure prediction by ZEFSAII (Michael W. Deem and Ramdas Pophale) SiO2 
 PCOD9334771
Probable space group: I 21 21 21
;
_chemical_formula_sum "Si O2"
_cell_formula_units_Z 60
_cell_length_a 7.460645
_cell_length_b 13.143591
_cell_length_c 27.319637
_cell_angle_alpha 90.000000
_cell_angle_beta 90.000000
_cell_angle_gamma 90.000000
_cell_volume 2678.954492
_symmetry_space_group_name_H-M "I 21 21 21"
_symmetry_group_IT_number 24
_symmetry_cell_setting 'orthorhombic'
loop_
_space_group_symop_operation_xyz
x,y,z
-x,1/2-y,z
x,-y,1/2-z
1/2-x,y,-z
1/2+x,1/2+y,1/2+z
1/2-x,-y,1/2+z
1/2+x,1/2-y,-z
-x,1/2+y,1/2-z
loop_
_atom_site_type_symbol
_atom_site_label
_atom_site_fract_x
_atom_site_fract_y
_atom_site_fract_z
Si Si1 0.213193 0.975859 0.126934
Si Si2 0.261911 0.292635 0.244617
Si Si3 0.281925 0.145733 0.057064
Si Si4 0.307907 0.500000 0.750000
Si Si5 0.129396 0.907834 0.712864
Si Si6 0.699858 0.967129 0.859548
Si Si7 0.292162 0.369823 0.058269
Si Si8 0.715400 0.253923 0.643603
O O1 0.275204 0.859648 0.119814
O O2 0.191783 0.047510 0.080364
O O3 0.349737 0.037580 0.161069
O O4 0.015307 0.967470 0.150482
O O5 0.117046 0.384477 0.243757
O O6 0.443582 0.354580 0.230389
O O7 0.246521 0.193455 0.211389
O O8 0.270424 0.248154 0.299423
O O9 0.220341 0.257955 0.073462
O O10 0.494237 0.136595 0.063711
O O11 0.250000 0.145067 0.000000
O O12 0.223617 0.515574 0.804819
O O13 0.175432 0.000000 0.750000
O O14 0.732472 0.047567 0.902081
O O15 0.768514 0.856341 0.876709
O O16 0.250000 0.388155 0.000000
O O17 0.500000 0.250000 0.641288
#
# Coordination Sequence:
#
# PCOD9334771 Si02
#       8
#     8   8   8   4   8   8   8   8
#     4  11  23  38  63  90 126 166 222 264 325 385
#     4  10  21  36  53  81 121 162 218 262 311 371
#     4  10  23  42  69  99 129 162 211 270 331 391
#     4  10  22  36  56  84 128 170 216 266 320 374
#     4  11  22  34  56  82 121 167 212 261 313 372
#     4  10  23  40  63  91 129 173 221 267 330 387
#     4  10  22  43  70  97 133 167 209 270 335 387
#     4   9  20  40  61  84 121 175 217 272 324 379
#
# _framework density 22.396795999999998
#
# number of rings (size 3 to 8) (size 9 to 14) (size 15 to 20)
#    0.000    1.867    2.000    0.800    4.667    3.733 
#    0.000    0.667    0.000    0.000    0.000    0.000 
#    0.000    0.000    0.000    0.000    0.000    0.000 
#
# Total GULP energy -167164.844972 kJ/mol
# GULP energy per Si atom -5572.161499 kJ/mol
# Density = 2.234582 g / cm^3
# Si number density = 22.396796 Si / 1000 Ang^3
#
#
#
# Elastic Constant Matrix: (Units=GPa)
#
#
# Indices 1 2 3 4 5 6 
#
# 1 67.5409 19.2207 7.7037 0.0000 0.0000 0.0000
# 2 19.2207 252.9914 83.1388 0.0000 0.0000 0.0000
# 3 7.7037 83.1388 78.2808 0.0000 0.0000 0.0000
# 4 0.0000 0.0000 0.0000 41.3206 0.0000 0.0000
# 5 0.0000 0.0000 0.0000 0.0000 25.3877 0.0000
# 6 0.0000 0.0000 0.0000 0.0000 0.0000 57.2796
#
#
#
# Elastic Compliance Matrix: (Units=1/GPa)
#
#
# Indices 1 2 3 4 5 6 
#
# 1 0.015142 -0.001015 -0.000412 0.000000 0.000000 0.000000
# 2 -0.001015 0.006140 -0.006421 0.000000 0.000000 0.000000
# 3 -0.000412 -0.006421 0.019635 0.000000 0.000000 0.000000
# 4 0.000000 0.000000 0.000000 0.024201 0.000000 0.000000
# 5 0.000000 0.000000 0.000000 0.000000 0.039389 0.000000
# 6 0.000000 0.000000 0.000000 0.000000 0.000000 0.017458
#
#
# Mechanical properties :
#
#
# Convention : Reuss Voigt Hill
#
# Bulk Modulus (GPa) = 39.65132 68.77106 54.21119
# Shear Modulus (GPa) = 34.23071 44.04758 39.13914
#
# Velocity S-wave (km/s) = 3.91369 4.43955 4.18489
# Velocity P-wave (km/s) = 6.17778 7.55327 6.89989
#
# Compressibility (1/GPa) = 0.02521984
#
# Stress axis : x y z
#
# Youngs Moduli (GPa) = 66.04289 162.86846 50.93036
#
# Poissons Ratio (x) = 0.16530 0.02099
# Poissons Ratio (y) = 0.06703 0.32703
# Poissons Ratio (z) = 0.02722 1.04579
#
# Static dielectric constant tensor:
#      x y z
#    x 2.039480 0.000000 0.000000 
#    y 0.000000 1.914980 0.000000 
#    z 0.000000 0.000000 1.770670 
# 
# From -- ./inp_files/38384.got.cif
#   From: 2010.05.17/outbox.cif.g08.bks.cpg/sg24_20_cif.got.tgz:38384.got - 2010.06.04 00:33:39.
