data_PCOD9334688
_publ_section_title
;
Structure prediction by ZEFSAII (Michael W. Deem and Ramdas Pophale) SiO2 
 PCOD9334688
Probable space group: I 21 21 21
;
_chemical_formula_sum "Si O2"
_cell_formula_units_Z 64
_cell_length_a 30.563756
_cell_length_b 11.293637
_cell_length_c 9.339109
_cell_angle_alpha 90.000000
_cell_angle_beta 90.000000
_cell_angle_gamma 90.000000
_cell_volume 3223.635967
_symmetry_space_group_name_H-M "I 21 21 21"
_symmetry_group_IT_number 24
_symmetry_cell_setting 'orthorhombic'
loop_
_space_group_symop_operation_xyz
x,y,z
-x,1/2-y,z
x,-y,1/2-z
1/2-x,y,-z
1/2+x,1/2+y,1/2+z
1/2-x,-y,1/2+z
1/2+x,1/2-y,-z
-x,1/2+y,1/2-z
loop_
_atom_site_type_symbol
_atom_site_label
_atom_site_fract_x
_atom_site_fract_y
_atom_site_fract_z
Si Si1 0.831655 0.794152 0.467476
Si Si2 0.139861 0.318364 0.710649
Si Si3 0.207139 0.045518 0.088375
Si Si4 0.532606 0.574521 0.104525
Si Si5 0.199149 0.438563 0.497881
Si Si6 0.371629 0.942483 0.092287
Si Si7 0.441886 0.659438 0.053986
Si Si8 0.878714 0.866201 0.203136
O O1 0.852960 0.786845 0.624711
O O2 0.799651 0.686672 0.429541
O O3 0.869166 0.794164 0.346270
O O4 0.808069 0.922167 0.467050
O O5 0.178867 0.396677 0.647990
O O6 0.137576 0.195479 0.622588
O O7 0.095134 0.384075 0.664580
O O8 0.210948 0.000000 0.250000
O O9 0.250000 0.009476 0.000000
O O10 0.164306 0.990838 0.014673
O O11 0.528414 0.500000 0.250000
O O12 0.578834 0.532507 0.037493
O O13 0.484495 0.577433 0.034751
O O14 0.543237 0.714493 0.119319
O O15 0.250000 0.408944 0.500000
O O16 0.167690 0.374317 0.381864
O O17 0.367899 0.000000 0.250000
O O18 0.416510 0.675868 0.903828
O O19 0.889584 0.000000 0.250000
#
# Coordination Sequence:
#
# PCOD9334688 Si02
#       8
#     8   8   8   8   8   8   8   8
#     4  11  23  40  60  93 125 169 209 268 317 386
#     4  10  21  37  68  89 122 164 209 265 320 385
#     4  12  28  43  65  91 128 174 225 272 322 394
#     4   9  19  34  66  92 123 159 207 263 313 378
#     4  10  22  39  60  89 122 161 207 262 326 383
#     4  10  20  43  63  94 128 165 212 269 323 379
#     4   9  19  38  61  93 121 163 209 257 321 383
#     4   9  21  39  60  87 127 167 204 258 323 387
#
# _framework density 19.853358
#
# number of rings (size 3 to 8) (size 9 to 14) (size 15 to 20)
#    0.000    2.000    1.250    1.125    5.250    7.500 
#    0.000    0.625    0.000    6.000    0.000    0.000 
#    0.000    0.000    0.000    0.000    0.000    0.000 
#
# Total GULP energy -178368.658435 kJ/mol
# GULP energy per Si atom -5574.020576 kJ/mol
# Density = 1.980817 g / cm^3
# Si number density = 19.853358 Si / 1000 Ang^3
#
#
#
# Elastic Constant Matrix: (Units=GPa)
#
#
# Indices 1 2 3 4 5 6 
#
# 1 177.6254 34.7072 66.7656 0.0000 0.0000 0.0000
# 2 34.7072 61.2304 41.2268 0.0000 0.0000 0.0000
# 3 66.7656 41.2268 130.6016 0.0000 0.0000 0.0000
# 4 0.0000 0.0000 0.0000 18.4082 0.0000 0.0000
# 5 0.0000 0.0000 0.0000 0.0000 12.7046 0.0000
# 6 0.0000 0.0000 0.0000 0.0000 0.0000 18.5789
#
#
#
# Elastic Compliance Matrix: (Units=1/GPa)
#
#
# Indices 1 2 3 4 5 6 
#
# 1 0.007161 -0.002025 -0.003022 0.000000 0.000000 0.000000
# 2 -0.002025 0.021312 -0.005693 0.000000 0.000000 0.000000
# 3 -0.003022 -0.005693 0.010999 0.000000 0.000000 0.000000
# 4 0.000000 0.000000 0.000000 0.054324 0.000000 0.000000
# 5 0.000000 0.000000 0.000000 0.000000 0.078712 0.000000
# 6 0.000000 0.000000 0.000000 0.000000 0.000000 0.053824
#
#
# Mechanical properties :
#
#
# Convention : Reuss Voigt Hill
#
# Bulk Modulus (GPa) = 55.57384 72.76186 64.16785
# Shear Modulus (GPa) = 19.69993 25.05553 22.37773
#
# Velocity S-wave (km/s) = 3.15345 3.55636 3.36095
# Velocity P-wave (km/s) = 6.42744 7.32071 6.88857
#
# Compressibility (1/GPa) = 0.01799408
#
# Stress axis : x y z
#
# Youngs Moduli (GPa) = 139.63999 46.92147 90.92014
#
# Poissons Ratio (x) = 0.09500 0.27475
# Poissons Ratio (y) = 0.28271 0.51757
# Poissons Ratio (z) = 0.42197 0.26710
#
# Static dielectric constant tensor:
#      x y z
#    x 1.747740 0.000000 0.000000 
#    y 0.000000 1.743320 0.000000 
#    z 0.000000 0.000000 1.699570 
# 
# From -- ./inp_files/17016.got.cif
#   From: 2010.05.17/outbox.cif.g08.bks.cpg/sg24_9_cif.got.tgz:17016.got - 2010.06.04 00:33:39.
