data_PCOD9334926
_publ_section_title
;
Structure prediction by ZEFSAII (Michael W. Deem and Ramdas Pophale) SiO2 
 PCOD9334926
Probable space group: I 21 21 21
;
_chemical_formula_sum "Si O2"
_cell_formula_units_Z 32
_cell_length_a 7.287726
_cell_length_b 18.894015
_cell_length_c 12.976192
_cell_angle_alpha 90.000000
_cell_angle_beta 90.000000
_cell_angle_gamma 90.000000
_cell_volume 1786.749028
_symmetry_space_group_name_H-M "I 21 21 21"
_symmetry_group_IT_number 24
_symmetry_cell_setting 'orthorhombic'
loop_
_space_group_symop_operation_xyz
x,y,z
-x,1/2-y,z
x,-y,1/2-z
1/2-x,y,-z
1/2+x,1/2+y,1/2+z
1/2-x,-y,1/2+z
1/2+x,1/2-y,-z
-x,1/2+y,1/2-z
loop_
_atom_site_type_symbol
_atom_site_label
_atom_site_fract_x
_atom_site_fract_y
_atom_site_fract_z
Si Si1 0.282507 0.185702 0.176505
Si Si2 0.142226 0.185628 0.395534
Si Si3 0.195837 0.341574 0.886331
Si Si4 0.984236 0.083394 0.242662
O O1 0.280962 0.200372 0.299976
O O2 0.230066 0.260872 0.127018
O O3 0.478836 0.163366 0.133412
O O4 0.132499 0.123470 0.168408
O O5 0.250000 0.173678 0.500000
O O6 0.000000 0.250000 0.404987
O O7 0.028024 0.118668 0.353097
O O8 0.290615 0.391084 0.801641
O O9 0.250000 0.366219 0.000000
O O10 0.003926 0.000000 0.250000
#
# Coordination Sequence:
#
# PCOD9334926 Si02
#       4
#     8   8   8   8
#     4   9  22  38  61  91 119 157 207 253 300 345
#     4  10  21  38  63  91 117 164 209 250 303 347
#     4  11  22  38  65  94 117 162 209 257 302 357
#     4  10  22  43  58  89 136 158 198 248 305 381
#
# _framework density 17.909621000000001
#
# number of rings (size 3 to 8) (size 9 to 14) (size 15 to 20)
#    1.500    0.500    2.500    0.750   10.500    1.000 
#    4.500    1.250    0.000    0.000    0.000    0.000 
#    0.000    0.000    0.000    0.000    0.000    0.000 
#
# Total GULP energy -89087.924951 kJ/mol
# GULP energy per Si atom -5567.995309 kJ/mol
# Density = 1.786886 g / cm^3
# Si number density = 17.909621 Si / 1000 Ang^3
#
#
#
# Elastic Constant Matrix: (Units=GPa)
#
#
# Indices 1 2 3 4 5 6 
#
# 1 54.2798 16.7407 7.7424 0.0000 0.0000 0.0000
# 2 16.7407 124.6093 -0.4838 0.0000 0.0000 0.0000
# 3 7.7424 -0.4838 96.6705 0.0000 0.0000 0.0000
# 4 0.0000 0.0000 0.0000 -1.6490 0.0000 0.0000
# 5 0.0000 0.0000 0.0000 0.0000 30.8574 0.0000
# 6 0.0000 0.0000 0.0000 0.0000 0.0000 12.2389
#
#
#
# Elastic Compliance Matrix: (Units=1/GPa)
#
#
# Indices 1 2 3 4 5 6 
#
# 1 0.019455 -0.002620 -0.001571 0.000000 0.000000 0.000000
# 2 -0.002620 0.008378 0.000252 0.000000 0.000000 0.000000
# 3 -0.001571 0.000252 0.010472 0.000000 0.000000 0.000000
# 4 0.000000 0.000000 0.000000 -0.606420 0.000000 0.000000
# 5 0.000000 0.000000 0.000000 0.000000 0.032407 0.000000
# 6 0.000000 0.000000 0.000000 0.000000 0.000000 0.081707
#
#
# Mechanical properties :
#
#
# Convention : Reuss Voigt Hill
#
# Bulk Modulus (GPa) = 32.86664 35.95094 34.40879
# Shear Modulus (GPa) = -11.46841 25.06013 6.79586
#
# Velocity S-wave (km/s) = -2.53326 3.74472 1.95007
# Velocity P-wave (km/s) = 3.13603 6.23012 4.93199
#
# Compressibility (1/GPa) = 0.03042599
#
# Stress axis : x y z
#
# Youngs Moduli (GPa) = 51.40021 119.35993 95.49714
#
# Poissons Ratio (x) = 0.31270 0.15005
# Poissons Ratio (y) = 0.13466 -0.02404
# Poissons Ratio (z) = 0.08076 -0.03005
#
# Static dielectric constant tensor:
#      x y z
#    x 1.621680 0.000000 0.000000 
#    y 0.000000 1.598760 0.000000 
#    z 0.000000 0.000000 1.634270 
# 
# From -- ./inp_files/18056.got.cif
#   From: 2010.05.17/outbox.cif.g08.bks.cpg/sg24_10_cif.got.tgz:18056.got - 2010.06.04 00:33:39.
