data_PCOD9334940
_publ_section_title
;
Structure prediction by ZEFSAII (Michael W. Deem and Ramdas Pophale) SiO2 
 PCOD9334940
Probable space group: I 21 21 21
;
_chemical_formula_sum "Si O2"
_cell_formula_units_Z 48
_cell_length_a 14.779629
_cell_length_b 9.187159
_cell_length_c 16.426140
_cell_angle_alpha 90.000000
_cell_angle_beta 90.000000
_cell_angle_gamma 90.000000
_cell_volume 2230.387308
_symmetry_space_group_name_H-M "I 21 21 21"
_symmetry_group_IT_number 24
_symmetry_cell_setting 'orthorhombic'
loop_
_space_group_symop_operation_xyz
x,y,z
-x,1/2-y,z
x,-y,1/2-z
1/2-x,y,-z
1/2+x,1/2+y,1/2+z
1/2-x,-y,1/2+z
1/2+x,1/2-y,-z
-x,1/2+y,1/2-z
loop_
_atom_site_type_symbol
_atom_site_label
_atom_site_fract_x
_atom_site_fract_y
_atom_site_fract_z
Si Si1 0.150421 0.050008 0.522621
Si Si2 0.217133 0.626304 0.298580
Si Si3 0.892397 0.235891 0.050032
Si Si4 0.827259 0.640019 0.792933
Si Si5 0.888465 0.022293 0.904330
Si Si6 0.000000 0.250000 0.804424
Si Si7 0.000000 0.750000 0.962677
O O1 0.250000 0.102736 0.500000
O O2 0.148063 0.082341 0.618304
O O3 0.067569 0.144758 0.488050
O O4 0.139696 0.882648 0.496341
O O5 0.165464 0.500000 0.250000
O O6 0.159786 0.712518 0.365528
O O7 0.259229 0.731155 0.229694
O O8 0.299968 0.548634 0.348727
O O9 0.000000 0.250000 0.061562
O O10 0.872453 0.097696 0.991684
O O11 0.785868 0.500000 0.750000
O O12 0.919711 0.687275 0.749303
O O13 0.963428 0.121612 0.860763
O O14 0.932337 0.862537 0.915063
#
# Coordination Sequence:
#
# PCOD9334940 Si02
#       7
#     8   8   8   8   8   4   4
#     4  12  25  44  69 103 144 190 242 301 362 440
#     4  11  26  45  71 105 143 193 242 299 370 434
#     4  12  24  49  76 102 143 198 255 295 358 443
#     4  11  22  39  65 102 144 180 232 292 372 435
#     4  11  21  41  70 107 146 186 235 299 370 443
#     4  10  21  38  66 102 151 188 220 294 377 452
#     4  12  23  38  64 110 145 174 234 302 365 418
#
# _framework density 21.520927
#
# number of rings (size 3 to 8) (size 9 to 14) (size 15 to 20)
#    0.000    0.667    2.500    7.000    0.000    6.667 
#    0.000    2.500    1.833    0.000    0.000    0.000 
#    0.000    0.000    0.000    0.000    0.000    0.000 
#
# Total GULP energy -134158.049915 kJ/mol
# GULP energy per Si atom -5589.918746 kJ/mol
# Density = 2.147194 g / cm^3
# Si number density = 21.520927 Si / 1000 Ang^3
#
#
#
# Elastic Constant Matrix: (Units=GPa)
#
#
# Indices 1 2 3 4 5 6 
#
# 1 75.8988 27.3293 17.3414 0.0000 0.0000 0.0000
# 2 27.3293 142.8500 42.7840 0.0000 0.0000 0.0000
# 3 17.3414 42.7840 81.7142 0.0000 0.0000 0.0000
# 4 0.0000 0.0000 0.0000 24.0786 0.0000 0.0000
# 5 0.0000 0.0000 0.0000 0.0000 2.5617 0.0000
# 6 0.0000 0.0000 0.0000 0.0000 0.0000 21.0588
#
#
#
# Elastic Compliance Matrix: (Units=1/GPa)
#
#
# Indices 1 2 3 4 5 6 
#
# 1 0.014398 -0.002182 -0.001913 0.000000 0.000000 0.000000
# 2 -0.002182 0.008633 -0.004057 0.000000 0.000000 0.000000
# 3 -0.001913 -0.004057 0.014768 0.000000 0.000000 0.000000
# 4 0.000000 0.000000 0.000000 0.041531 0.000000 0.000000
# 5 0.000000 0.000000 0.000000 0.000000 0.390364 0.000000
# 6 0.000000 0.000000 0.000000 0.000000 0.000000 0.047486
#
#
# Mechanical properties :
#
#
# Convention : Reuss Voigt Hill
#
# Bulk Modulus (GPa) = 46.52215 52.81915 49.67065
# Shear Modulus (GPa) = 9.24816 23.74037 16.49426
#
# Velocity S-wave (km/s) = 2.07524 3.32494 2.77145
# Velocity P-wave (km/s) = 5.23510 6.27190 5.77681
#
# Compressibility (1/GPa) = 0.02149514
#
# Stress axis : x y z
#
# Youngs Moduli (GPa) = 69.45351 115.83737 67.71394
#
# Poissons Ratio (x) = 0.25270 0.12956
# Poissons Ratio (y) = 0.15151 0.27472
# Poissons Ratio (z) = 0.13289 0.46995
#
# Static dielectric constant tensor:
#      x y z
#    x 1.828210 0.000000 0.000000 
#    y 0.000000 1.805360 0.000000 
#    z 0.000000 0.000000 1.845800 
# 
# From -- ./inp_files/30767.got.cif
#   From: 2010.05.17/outbox.cif.g08.bks.cpg/sg24_16_cif.got.tgz:30767.got - 2010.06.04 00:33:39.
