data_PCOD9334104
_publ_section_title
;
Structure prediction by ZEFSAII (Michael W. Deem and Ramdas Pophale) SiO2 
 PCOD9334104
Probable space group: I 21 21 21
;
_chemical_formula_sum "Si O2"
_cell_formula_units_Z 64
_cell_length_a 7.883652
_cell_length_b 18.943999
_cell_length_c 17.262840
_cell_angle_alpha 90.000000
_cell_angle_beta 90.000000
_cell_angle_gamma 90.000000
_cell_volume 2578.168826
_symmetry_space_group_name_H-M "I 21 21 21"
_symmetry_group_IT_number 24
_symmetry_cell_setting 'orthorhombic'
loop_
_space_group_symop_operation_xyz
x,y,z
-x,1/2-y,z
x,-y,1/2-z
1/2-x,y,-z
1/2+x,1/2+y,1/2+z
1/2-x,-y,1/2+z
1/2+x,1/2-y,-z
-x,1/2+y,1/2-z
loop_
_atom_site_type_symbol
_atom_site_label
_atom_site_fract_x
_atom_site_fract_y
_atom_site_fract_z
Si Si1 0.613687 0.481772 0.382404
Si Si2 0.964420 0.676631 0.090031
Si Si3 0.470630 0.331307 0.762634
Si Si4 0.829086 0.625423 0.680166
Si Si5 0.677586 0.899579 0.605095
Si Si6 0.508639 0.333343 0.027210
Si Si7 0.414950 0.175885 0.340078
Si Si8 0.492522 0.025133 0.552740
O O1 0.593059 0.546969 0.324458
O O2 0.537188 0.405737 0.360439
O O3 0.543388 0.503223 0.466915
O O4 0.818970 0.478566 0.396793
O O5 0.063345 0.672280 0.171698
O O6 0.770178 0.677896 0.118700
O O7 0.015884 0.608497 0.042983
O O8 0.000000 0.750000 0.049296
O O9 0.500000 0.250000 0.788099
O O10 0.638748 0.375046 0.785502
O O11 0.327020 0.371660 0.808427
O O12 0.912823 0.673877 0.746019
O O13 0.846506 0.652951 0.591689
O O14 0.842883 0.865121 0.569176
O O15 0.515629 0.867584 0.557546
O O16 0.644669 0.982370 0.592344
O O17 0.500000 0.250000 0.016389
O O18 0.500000 0.250000 0.362436
#
# Coordination Sequence:
#
# PCOD9334104 Si02
#       8
#     8   8   8   8   8   8   8   8
#     4  10  20  38  64  91 119 161 211 258 307 370
#     4   9  21  40  62  92 120 158 208 260 315 366
#     4  10  20  35  61  90 122 160 208 253 301 369
#     4  11  20  37  62  88 123 164 203 250 310 371
#     4  11  22  39  57  87 124 160 209 253 306 364
#     4  11  24  38  56  85 126 162 202 251 308 371
#     4  10  22  39  61  91 124 161 207 255 311 376
#     4  10  20  39  65  88 121 160 210 261 305 371
#
# _framework density 24.823823000000001
#
# number of rings (size 3 to 8) (size 9 to 14) (size 15 to 20)
#    0.000    1.750    2.500    1.875    0.000    4.500 
#    2.250    0.000    2.750    0.000    0.000    0.000 
#    0.000    0.000    0.000    0.000    0.000    0.000 
#
# Total GULP energy -178715.960793 kJ/mol
# GULP energy per Si atom -5584.873775 kJ/mol
# Density = 2.476732 g / cm^3
# Si number density = 24.823823 Si / 1000 Ang^3
#
#
#
# Elastic Constant Matrix: (Units=GPa)
#
#
# Indices 1 2 3 4 5 6 
#
# 1 54.4719 23.1558 2.4098 0.0000 0.0000 0.0000
# 2 23.1558 173.6844 12.6468 0.0000 0.0000 0.0000
# 3 2.4098 12.6468 51.4969 0.0000 0.0000 0.0000
# 4 0.0000 0.0000 0.0000 27.3118 0.0000 0.0000
# 5 0.0000 0.0000 0.0000 0.0000 10.8543 0.0000
# 6 0.0000 0.0000 0.0000 0.0000 0.0000 34.4741
#
#
#
# Elastic Compliance Matrix: (Units=1/GPa)
#
#
# Indices 1 2 3 4 5 6 
#
# 1 0.019465 -0.002575 -0.000279 0.000000 0.000000 0.000000
# 2 -0.002575 0.006203 -0.001403 0.000000 0.000000 0.000000
# 3 -0.000279 -0.001403 0.019776 0.000000 0.000000 0.000000
# 4 0.000000 0.000000 0.000000 0.036614 0.000000 0.000000
# 5 0.000000 0.000000 0.000000 0.000000 0.092130 0.000000
# 6 0.000000 0.000000 0.000000 0.000000 0.000000 0.029007
#
#
# Mechanical properties :
#
#
# Convention : Reuss Voigt Hill
#
# Bulk Modulus (GPa) = 27.07698 39.56423 33.32060
# Shear Modulus (GPa) = 22.31962 30.62409 26.47185
#
# Velocity S-wave (km/s) = 3.00179 3.51616 3.26910
# Velocity P-wave (km/s) = 4.79016 5.69711 5.26321
#
# Compressibility (1/GPa) = 0.03693174
#
# Stress axis : x y z
#
# Youngs Moduli (GPa) = 51.37440 161.21236 50.56585
#
# Poissons Ratio (x) = 0.41509 0.01408
# Poissons Ratio (y) = 0.13228 0.07094
# Poissons Ratio (z) = 0.01431 0.22616
#
# Static dielectric constant tensor:
#      x y z
#    x 2.071630 0.000000 0.000000 
#    y 0.000000 1.991020 0.000000 
#    z 0.000000 0.000000 1.986990 
# 
# From -- ./inp_files/32940.got.cif
#   From: 2010.05.17/outbox.cif.g08.bks.cpg/sg24_17_cif.got.tgz:32940.got - 2010.06.04 00:33:39.
