data_PCOD9334429
_publ_section_title
;
Structure prediction by ZEFSAII (Michael W. Deem and Ramdas Pophale) SiO2 
 PCOD9334429
Probable space group: I 21 21 21
;
_chemical_formula_sum "Si O2"
_cell_formula_units_Z 64
_cell_length_a 18.676237
_cell_length_b 5.699459
_cell_length_c 29.026784
_cell_angle_alpha 90.000000
_cell_angle_beta 90.000000
_cell_angle_gamma 90.000000
_cell_volume 3089.739973
_symmetry_space_group_name_H-M "I 21 21 21"
_symmetry_group_IT_number 24
_symmetry_cell_setting 'orthorhombic'
loop_
_space_group_symop_operation_xyz
x,y,z
-x,1/2-y,z
x,-y,1/2-z
1/2-x,y,-z
1/2+x,1/2+y,1/2+z
1/2-x,-y,1/2+z
1/2+x,1/2-y,-z
-x,1/2+y,1/2-z
loop_
_atom_site_type_symbol
_atom_site_label
_atom_site_fract_x
_atom_site_fract_y
_atom_site_fract_z
Si Si1 0.685474 0.850490 0.103736
Si Si2 0.319362 0.369699 0.926318
Si Si3 0.712402 0.491892 0.852540
Si Si4 0.583067 0.773098 0.346456
Si Si5 0.434524 0.082398 0.430914
Si Si6 0.582250 0.252758 0.615404
Si Si7 0.208504 0.247660 0.776478
Si Si8 0.431956 0.892315 0.530857
O O1 0.724808 0.683773 0.141391
O O2 0.638972 0.720925 0.065609
O O3 0.749703 0.971645 0.075991
O O4 0.626448 0.005492 0.131276
O O5 0.379641 0.505810 0.896022
O O6 0.362914 0.278404 0.970186
O O7 0.291904 0.137197 0.901229
O O8 0.635762 0.617538 0.848985
O O9 0.732208 0.288637 0.816591
O O10 0.500000 0.750000 0.331482
O O11 0.581048 0.596315 0.389728
O O12 0.632379 0.726653 0.302324
O O13 0.500000 0.250000 0.417641
O O14 0.451256 0.973566 0.479999
O O15 0.500000 0.250000 0.630828
O O16 0.581244 0.395747 0.566598
O O17 0.214048 0.500000 0.750000
O O18 0.217738 0.000000 0.750000
O O19 0.500000 0.750000 0.549362
#
# Coordination Sequence:
#
# PCOD9334429 Si02
#       8
#     8   8   8   8   8   8   8   8
#     4  11  21  43  66  93 131 182 241 285 346 422
#     4  10  21  40  69  90 137 179 224 292 342 416
#     4  10  22  41  68 102 136 178 228 283 358 440
#     4  12  25  45  69  96 136 183 232 290 351 433
#     4  12  25  39  67  91 131 195 241 287 352 416
#     4  10  20  38  67 102 134 184 229 291 343 411
#     4  12  27  46  76 108 139 181 232 302 369 437
#     4  11  23  39  60  98 138 176 240 292 347 407
#
# _framework density 20.713716999999999
#
# number of rings (size 3 to 8) (size 9 to 14) (size 15 to 20)
#    0.000    1.000    5.000    1.500    1.750    0.500 
#    0.000   15.000    0.000    0.000    3.250    0.000 
#    0.000    0.000    0.000    0.000    0.000    0.000 
#
# Total GULP energy -178272.023158 kJ/mol
# GULP energy per Si atom -5571.000724 kJ/mol
# Density = 2.066657 g / cm^3
# Si number density = 20.713717 Si / 1000 Ang^3
#
#
#
# Elastic Constant Matrix: (Units=GPa)
#
#
# Indices 1 2 3 4 5 6 
#
# 1 150.6890 45.2700 15.7170 0.0000 0.0000 0.0000
# 2 45.2700 85.4817 19.1519 0.0000 0.0000 0.0000
# 3 15.7170 19.1519 30.3112 0.0000 0.0000 0.0000
# 4 0.0000 0.0000 0.0000 22.6398 0.0000 0.0000
# 5 0.0000 0.0000 0.0000 0.0000 -65.5164 0.0000
# 6 0.0000 0.0000 0.0000 0.0000 0.0000 48.7371
#
#
#
# Elastic Compliance Matrix: (Units=1/GPa)
#
#
# Indices 1 2 3 4 5 6 
#
# 1 0.007967 -0.003837 -0.001707 0.000000 0.000000 0.000000
# 2 -0.003837 0.015475 -0.007788 0.000000 0.000000 0.000000
# 3 -0.001707 -0.007788 0.038797 0.000000 0.000000 0.000000
# 4 0.000000 0.000000 0.000000 0.044170 0.000000 0.000000
# 5 0.000000 0.000000 0.000000 0.000000 -0.015263 0.000000
# 6 0.000000 0.000000 0.000000 0.000000 0.000000 0.020518
#
#
# Mechanical properties :
#
#
# Convention : Reuss Voigt Hill
#
# Bulk Modulus (GPa) = 28.10941 47.41775 37.76358
# Shear Modulus (GPa) = 33.29192 13.59497 23.44344
#
# Velocity S-wave (km/s) = 4.01339 2.56467 3.36785
# Velocity P-wave (km/s) = 5.92252 5.63131 5.77875
#
# Compressibility (1/GPa) = 0.03557528
#
# Stress axis : x y z
#
# Youngs Moduli (GPa) = 125.52034 64.61916 25.77509
#
# Poissons Ratio (x) = 0.24793 0.04399
# Poissons Ratio (y) = 0.48159 0.20075
# Poissons Ratio (z) = 0.21423 0.50329
#
# Static dielectric constant tensor:
#      x y z
#    x 1.838060 0.000000 0.000000 
#    y 0.000000 1.895260 0.000000 
#    z 0.000000 0.000000 1.774650 
# 
# From -- ./inp_files/38838.got.cif
#   From: 2010.05.17/outbox.cif.g08.bks.cpg/sg24_20_cif.got.tgz:38838.got - 2010.06.04 00:33:39.
