data_PCOD9334827
_publ_section_title
;
Structure prediction by ZEFSAII (Michael W. Deem and Ramdas Pophale) SiO2 
 PCOD9334827
Probable space group: I 21 21 21
;
_chemical_formula_sum "Si O2"
_cell_formula_units_Z 32
_cell_length_a 5.315729
_cell_length_b 26.990773
_cell_length_c 10.675638
_cell_angle_alpha 90.000000
_cell_angle_beta 90.000000
_cell_angle_gamma 90.000000
_cell_volume 1531.693939
_symmetry_space_group_name_H-M "I 21 21 21"
_symmetry_group_IT_number 24
_symmetry_cell_setting 'orthorhombic'
loop_
_space_group_symop_operation_xyz
x,y,z
-x,1/2-y,z
x,-y,1/2-z
1/2-x,y,-z
1/2+x,1/2+y,1/2+z
1/2-x,-y,1/2+z
1/2+x,1/2-y,-z
-x,1/2+y,1/2-z
loop_
_atom_site_type_symbol
_atom_site_label
_atom_site_fract_x
_atom_site_fract_y
_atom_site_fract_z
Si Si1 0.247608 0.453546 0.343885
Si Si2 0.752718 0.216349 0.132276
Si Si3 0.926659 0.807439 0.887028
Si Si4 0.250823 0.102141 0.355381
O O1 0.217597 0.500000 0.250000
O O2 0.250000 0.462453 0.500000
O O3 0.508395 0.427209 0.304693
O O4 0.016327 0.416895 0.310763
O O5 0.500000 0.250000 0.131808
O O6 0.735396 0.188371 0.261473
O O7 0.000000 0.250000 0.135151
O O8 0.750000 0.188057 0.000000
O O9 0.000000 0.750000 0.910964
O O10 0.173490 0.839950 0.858997
O O11 0.750000 0.825864 0.000000
O O12 0.250000 0.087781 0.500000
#
# Coordination Sequence:
#
# PCOD9334827 Si02
#       4
#     8   8   8   8
#     4  10  21  40  66  89 117 153 194 246 308 366
#     4   9  19  35  53  74 107 154 202 246 293 336
#     4  11  21  34  59  90 124 164 210 248 285 348
#     4  10  21  37  58  89 124 157 191 242 306 356
#
# _framework density 20.891902000000002
#
# number of rings (size 3 to 8) (size 9 to 14) (size 15 to 20)
#    0.000    2.000    0.000    4.500    0.000    6.000 
#    0.000    1.250    0.000   15.000    0.000    0.000 
#    0.000    0.000    0.000    0.000    0.000    0.000 
#
# Total GULP energy -89125.652288 kJ/mol
# GULP energy per Si atom -5570.353268 kJ/mol
# Density = 2.084435 g / cm^3
# Si number density = 20.891902 Si / 1000 Ang^3
#
#
#
# Elastic Constant Matrix: (Units=GPa)
#
#
# Indices 1 2 3 4 5 6 
#
# 1 162.0619 66.9554 38.4347 0.0000 0.0000 0.0000
# 2 66.9554 123.5612 21.0147 -0.0003 0.0000 0.0000
# 3 38.4347 21.0147 131.1589 -0.0006 0.0000 0.0000
# 4 0.0000 -0.0003 -0.0006 459.3788 0.0000 0.0002
# 5 0.0000 0.0000 0.0000 0.0000 22.2172 0.0000
# 6 0.0000 0.0000 0.0000 0.0002 0.0000 34.5841
#
#
#
# Elastic Compliance Matrix: (Units=1/GPa)
#
#
# Indices 1 2 3 4 5 6 
#
# 1 0.008330 -0.004214 -0.001766 0.000000 0.000000 0.000000
# 2 -0.004214 0.010451 -0.000440 0.000000 0.000000 0.000000
# 3 -0.001766 -0.000440 0.008212 0.000000 0.000000 0.000000
# 4 0.000000 0.000000 0.000000 0.002177 0.000000 0.000000
# 5 0.000000 0.000000 0.000000 0.000000 0.045010 0.000000
# 6 0.000000 0.000000 0.000000 0.000000 0.000000 0.028915
#
#
# Mechanical properties :
#
#
# Convention : Reuss Voigt Hill
#
# Bulk Modulus (GPa) = 70.64634 74.39906 72.52270
# Shear Modulus (GPa) = 41.44127 122.59450 82.01788
#
# Velocity S-wave (km/s) = 4.45860 7.66862 6.27244
# Velocity P-wave (km/s) = 7.77136 10.68172 9.34059
#
# Compressibility (1/GPa) = 0.01415502
#
# Stress axis : x y z
#
# Youngs Moduli (GPa) = 120.04617 95.68267 121.76872
#
# Poissons Ratio (x) = 0.40317 0.21504
# Poissons Ratio (y) = 0.50583 0.05355
# Poissons Ratio (z) = 0.21199 0.04208
#
# Static dielectric constant tensor:
#      x y z
#    x 1.097150 0.000000 0.000000 
#    y 0.000000 1.771090 0.000000 
#    z 0.000000 0.000000 1.798870 
# 
# From -- ./inp_files/5265.got.cif
#   From: 2010.05.17/outbox.cif.g08.bks.cpg/sg24_3_cif.got.tgz:5265.got - 2010.06.04 00:33:39.
