data_PCOD9334254
_publ_section_title
;
Structure prediction by ZEFSAII (Michael W. Deem and Ramdas Pophale) SiO2 
 PCOD9334254
Probable space group: I 21 21 21
;
_chemical_formula_sum "Si O2"
_cell_formula_units_Z 56
_cell_length_a 12.453729
_cell_length_b 11.213345
_cell_length_c 21.446327
_cell_angle_alpha 90.000000
_cell_angle_beta 90.000000
_cell_angle_gamma 90.000000
_cell_volume 2994.935811
_symmetry_space_group_name_H-M "I 21 21 21"
_symmetry_group_IT_number 24
_symmetry_cell_setting 'orthorhombic'
loop_
_space_group_symop_operation_xyz
x,y,z
-x,1/2-y,z
x,-y,1/2-z
1/2-x,y,-z
1/2+x,1/2+y,1/2+z
1/2-x,-y,1/2+z
1/2+x,1/2-y,-z
-x,1/2+y,1/2-z
loop_
_atom_site_type_symbol
_atom_site_label
_atom_site_fract_x
_atom_site_fract_y
_atom_site_fract_z
Si Si1 0.500000 0.250000 0.777023
Si Si2 0.619056 0.755284 0.139101
Si Si3 0.686599 0.014457 0.438495
Si Si4 0.351539 0.713264 0.824128
Si Si5 0.003989 0.609372 0.486387
Si Si6 0.500000 0.750000 0.940980
Si Si7 0.366468 0.917327 0.027408
Si Si8 0.609752 0.952483 0.640538
O O1 0.411056 0.206542 0.726907
O O2 0.564641 0.155563 0.818522
O O3 0.500000 0.750000 0.167593
O O4 0.632491 0.873188 0.095616
O O5 0.725232 0.765696 0.180613
O O6 0.629698 0.638588 0.095771
O O7 0.750000 0.060142 0.500000
O O8 0.599032 0.924972 0.465924
O O9 0.772319 0.951251 0.392371
O O10 0.399444 0.735686 0.893540
O O11 0.383341 0.573487 0.818898
O O12 0.030825 0.548685 0.419463
O O13 0.000000 0.750000 0.476607
O O14 0.897110 0.554639 0.516985
O O15 0.459176 0.850891 0.987877
O O16 0.250000 0.891654 0.000000
#
# Coordination Sequence:
#
# PCOD9334254 Si02
#       8
#     4   8   8   8   8   4   8   8
#     4  11  22  40  60  82 114 160 211 254 294 342
#     4  11  19  32  58  90 120 153 191 248 314 371
#     4   9  19  33  56  85 119 155 193 233 300 372
#     4  10  22  35  57  87 117 149 204 261 305 344
#     4  11  21  36  53  82 124 163 195 233 289 377
#     4  11  18  32  52  84 122 148 179 244 306 354
#     4  12  21  30  53  88 126 156 192 237 311 371
#     4  10  20  37  60  82 111 159 200 246 296 358
#
# _framework density 18.698232000000001
#
# number of rings (size 3 to 8) (size 9 to 14) (size 15 to 20)
#    0.000    1.429    5.714    0.857    2.000    1.714 
#    0.000    0.000    0.000    0.857    0.000    6.000 
#    0.000    0.000    0.000    0.000    0.000    0.000 
#
# Total GULP energy -155938.827579 kJ/mol
# GULP energy per Si atom -5569.243842 kJ/mol
# Density = 1.865567 g / cm^3
# Si number density = 18.698232 Si / 1000 Ang^3
#
#
#
# Elastic Constant Matrix: (Units=GPa)
#
#
# Indices 1 2 3 4 5 6 
#
# 1 120.7955 23.7933 27.6867 0.0000 0.0000 0.0000
# 2 23.7933 49.8564 15.9352 0.0000 0.0000 0.0000
# 3 27.6867 15.9352 58.3233 0.0000 0.0000 0.0000
# 4 0.0000 0.0000 0.0000 14.8919 0.0000 0.0000
# 5 0.0000 0.0000 0.0000 0.0000 23.7643 0.0000
# 6 0.0000 0.0000 0.0000 0.0000 0.0000 28.4167
#
#
#
# Elastic Compliance Matrix: (Units=1/GPa)
#
#
# Indices 1 2 3 4 5 6 
#
# 1 0.009817 -0.003501 -0.003704 0.000000 0.000000 0.000000
# 2 -0.003501 0.023226 -0.004684 0.000000 0.000000 0.000000
# 3 -0.003704 -0.004684 0.020184 0.000000 0.000000 0.000000
# 4 0.000000 0.000000 0.000000 0.067150 0.000000 0.000000
# 5 0.000000 0.000000 0.000000 0.000000 0.042080 0.000000
# 6 0.000000 0.000000 0.000000 0.000000 0.000000 0.035191
#
#
# Mechanical properties :
#
#
# Convention : Reuss Voigt Hill
#
# Bulk Modulus (GPa) = 33.95688 40.42284 37.18986
# Shear Modulus (GPa) = 21.62251 24.18525 22.90388
#
# Velocity S-wave (km/s) = 3.40427 3.60036 3.50369
# Velocity P-wave (km/s) = 5.80103 6.24091 6.02498
#
# Compressibility (1/GPa) = 0.02944911
#
# Stress axis : x y z
#
# Youngs Moduli (GPa) = 101.86431 43.05611 49.54513
#
# Poissons Ratio (x) = 0.15075 0.18350
# Poissons Ratio (y) = 0.35665 0.23205
# Poissons Ratio (z) = 0.37726 0.20166
#
# Static dielectric constant tensor:
#      x y z
#    x 1.686680 0.000000 0.000000 
#    y 0.000000 1.703400 0.000000 
#    z 0.000000 0.000000 1.658860 
# 
# From -- ./inp_files/35628.got.cif
#   From: 2010.05.17/outbox.cif.g08.bks.cpg/sg24_18_cif.got.tgz:35628.got - 2010.06.04 00:33:39.
