data_PCOD9334204
_publ_section_title
;
Structure prediction by ZEFSAII (Michael W. Deem and Ramdas Pophale) SiO2 
 PCOD9334204
Probable space group: I 21 21 21
;
_chemical_formula_sum "Si O2"
_cell_formula_units_Z 32
_cell_length_a 31.285716
_cell_length_b 5.345133
_cell_length_c 7.255196
_cell_angle_alpha 90.000000
_cell_angle_beta 90.000000
_cell_angle_gamma 90.000000
_cell_volume 1213.259677
_symmetry_space_group_name_H-M "I 21 21 21"
_symmetry_group_IT_number 24
_symmetry_cell_setting 'orthorhombic'
loop_
_space_group_symop_operation_xyz
x,y,z
-x,1/2-y,z
x,-y,1/2-z
1/2-x,y,-z
1/2+x,1/2+y,1/2+z
1/2-x,-y,1/2+z
1/2+x,1/2-y,-z
-x,1/2+y,1/2-z
loop_
_atom_site_type_symbol
_atom_site_label
_atom_site_fract_x
_atom_site_fract_y
_atom_site_fract_z
Si Si1 0.587055 0.599150 0.960791
Si Si2 0.459165 0.609924 0.448706
Si Si3 0.235536 0.743120 0.710962
Si Si4 0.171406 0.744697 0.138709
O O1 0.585374 0.500000 0.750000
O O2 0.634871 0.699766 0.010003
O O3 0.573473 0.345878 0.069063
O O4 0.558973 0.854351 0.963361
O O5 0.500000 0.750000 0.537148
O O6 0.472727 0.500000 0.250000
O O7 0.208020 0.500000 0.750000
O O8 0.250000 0.753404 0.500000
O O9 0.276691 0.718832 0.848470
O O10 0.212896 0.000000 0.750000
O O11 0.156591 0.500000 0.250000
O O12 0.169278 0.000000 0.250000
#
# Coordination Sequence:
#
# PCOD9334204 Si02
#       4
#     8   8   8   8
#     4  11  22  40  67  92 121 166 216 265 314 376
#     4  12  25  43  63  90 128 166 207 266 333 387
#     4  10  20  36  63  94 127 167 211 256 313 376
#     4   9  18  35  60  86 120 161 204 253 308 359
#
# _framework density 26.375228
#
# number of rings (size 3 to 8) (size 9 to 14) (size 15 to 20)
#    0.000    1.500    0.000    7.500    0.000    2.000 
#    0.000    2.500    0.000  100.500    0.000    0.000 
#    0.000    0.000    0.000    0.000    0.000    0.000 
#
# Total GULP energy -89115.322602 kJ/mol
# GULP energy per Si atom -5569.707663 kJ/mol
# Density = 2.631520 g / cm^3
# Si number density = 26.375228 Si / 1000 Ang^3
#
#
#
# Elastic Constant Matrix: (Units=GPa)
#
#
# Indices 1 2 3 4 5 6 
#
# 1 129.6783 62.0186 30.0922 0.0000 0.0000 0.0000
# 2 62.0186 301.1155 45.8104 0.0000 0.0000 0.0000
# 3 30.0922 45.8104 57.4475 0.0000 0.0000 0.0000
# 4 0.0000 0.0000 0.0000 55.2963 0.0000 0.0000
# 5 0.0000 0.0000 0.0000 0.0000 28.5466 0.0000
# 6 0.0000 0.0000 0.0000 0.0000 0.0000 73.5791
#
#
#
# Elastic Compliance Matrix: (Units=1/GPa)
#
#
# Indices 1 2 3 4 5 6 
#
# 1 0.009221 -0.001325 -0.003773 0.000000 0.000000 0.000000
# 2 -0.001325 0.003970 -0.002472 0.000000 0.000000 0.000000
# 3 -0.003773 -0.002472 0.021355 0.000000 0.000000 0.000000
# 4 0.000000 0.000000 0.000000 0.018084 0.000000 0.000000
# 5 0.000000 0.000000 0.000000 0.000000 0.035030 0.000000
# 6 0.000000 0.000000 0.000000 0.000000 0.000000 0.013591
#
#
# Mechanical properties :
#
#
# Convention : Reuss Voigt Hill
#
# Bulk Modulus (GPa) = 51.53251 84.89819 68.21535
# Shear Modulus (GPa) = 40.69685 54.83906 47.76796
#
# Velocity S-wave (km/s) = 3.93236 4.56476 4.26031
# Velocity P-wave (km/s) = 6.34023 7.74862 7.07954
#
# Compressibility (1/GPa) = 0.01940523
#
# Stress axis : x y z
#
# Youngs Moduli (GPa) = 108.45134 251.89405 46.82806
#
# Poissons Ratio (x) = 0.33378 0.17670
# Poissons Ratio (y) = 0.14370 0.11574
# Poissons Ratio (z) = 0.40923 0.62259
#
# Static dielectric constant tensor:
#      x y z
#    x 2.242870 0.000000 0.000000 
#    y 0.000000 2.100270 0.000000 
#    z 0.000000 0.000000 1.090310 
# 
# From -- ./inp_files/16559.got.cif
#   From: 2010.05.17/outbox.cif.g08.bks.cpg/sg24_9_cif.got.tgz:16559.got - 2010.06.04 00:33:39.
