data_PCOD9334243
_publ_section_title
;
Structure prediction by ZEFSAII (Michael W. Deem and Ramdas Pophale) SiO2 
 PCOD9334243
Probable space group: I 21 21 21
;
_chemical_formula_sum "Si O2"
_cell_formula_units_Z 48
_cell_length_a 9.570826
_cell_length_b 13.841774
_cell_length_c 16.671373
_cell_angle_alpha 90.000000
_cell_angle_beta 90.000000
_cell_angle_gamma 90.000000
_cell_volume 2208.576990
_symmetry_space_group_name_H-M "I 21 21 21"
_symmetry_group_IT_number 24
_symmetry_cell_setting 'orthorhombic'
loop_
_space_group_symop_operation_xyz
x,y,z
-x,1/2-y,z
x,-y,1/2-z
1/2-x,y,-z
1/2+x,1/2+y,1/2+z
1/2-x,-y,1/2+z
1/2+x,1/2-y,-z
-x,1/2+y,1/2-z
loop_
_atom_site_type_symbol
_atom_site_label
_atom_site_fract_x
_atom_site_fract_y
_atom_site_fract_z
Si Si1 0.657475 0.981798 0.125520
Si Si2 0.030944 0.543647 0.340637
Si Si3 0.030906 0.855229 0.966497
Si Si4 0.191241 0.897168 0.115204
Si Si5 0.128362 0.790746 0.268093
Si Si6 0.609874 0.838201 0.277326
O O1 0.598554 0.926981 0.047416
O O2 0.635116 0.901069 0.196159
O O3 0.818933 0.016528 0.123005
O O4 0.579179 0.079805 0.155494
O O5 0.040896 0.500000 0.250000
O O6 0.905978 0.489753 0.384758
O O7 0.964952 0.650036 0.331399
O O8 0.155030 0.907272 0.918403
O O9 0.000000 0.750000 0.930484
O O10 0.103301 0.833027 0.052062
O O11 0.205209 0.860787 0.205908
O O12 0.241370 0.713487 0.295193
O O13 0.000000 0.750000 0.215136
O O14 0.500000 0.750000 0.271864
#
# Coordination Sequence:
#
# PCOD9334243 Si02
#       6
#     8   8   8   8   8   8
#     4  11  21  39  58  89 131 160 208 259 322 384
#     4  10  20  37  58  89 120 162 204 261 319 377
#     4  11  24  40  59  91 128 170 209 256 319 395
#     4  10  23  38  59  89 123 166 208 248 318 384
#     4  11  19  36  61  90 122 156 207 260 311 376
#     4  11  22  35  59  94 123 165 203 264 322 379
#
# _framework density 21.733450000000001
#
# number of rings (size 3 to 8) (size 9 to 14) (size 15 to 20)
#    0.000    1.333    3.333    4.000    2.333    3.333 
#    0.000    0.000    0.000    1.000    0.000    0.000 
#    0.000    0.000    0.000    0.000    0.000    0.000 
#
# Total GULP energy -133632.417759 kJ/mol
# GULP energy per Si atom -5568.017407 kJ/mol
# Density = 2.168398 g / cm^3
# Si number density = 21.733450 Si / 1000 Ang^3
#
#
#
# Elastic Constant Matrix: (Units=GPa)
#
#
# Indices 1 2 3 4 5 6 
#
# 1 138.1171 64.5204 25.2883 0.0000 0.0000 0.0000
# 2 64.5204 123.7689 12.7092 0.0000 0.0000 0.0000
# 3 25.2883 12.7092 24.6187 0.0000 0.0000 0.0000
# 4 0.0000 0.0000 0.0000 8.6080 0.0000 0.0000
# 5 0.0000 0.0000 0.0000 0.0000 25.9655 0.0000
# 6 0.0000 0.0000 0.0000 0.0000 0.0000 40.9961
#
#
#
# Elastic Compliance Matrix: (Units=1/GPa)
#
#
# Indices 1 2 3 4 5 6 
#
# 1 0.011168 -0.004904 -0.008940 0.000000 0.000000 0.000000
# 2 -0.004904 0.010685 -0.000479 0.000000 0.000000 0.000000
# 3 -0.008940 -0.000479 0.050050 0.000000 0.000000 0.000000
# 4 0.000000 0.000000 0.000000 0.116171 0.000000 0.000000
# 5 0.000000 0.000000 0.000000 0.000000 0.038513 0.000000
# 6 0.000000 0.000000 0.000000 0.000000 0.000000 0.024393
#
#
# Mechanical properties :
#
#
# Convention : Reuss Voigt Hill
#
# Bulk Modulus (GPa) = 23.11748 54.61561 38.86655
# Shear Modulus (GPa) = 17.00429 27.37971 22.19200
#
# Velocity S-wave (km/s) = 2.80018 3.55321 3.19893
# Velocity P-wave (km/s) = 4.59506 6.48213 5.61839
#
# Compressibility (1/GPa) = 0.04325731
#
# Stress axis : x y z
#
# Youngs Moduli (GPa) = 89.54280 93.58856 19.98006
#
# Poissons Ratio (x) = 0.45894 0.17862
# Poissons Ratio (y) = 0.43910 0.00957
# Poissons Ratio (z) = 0.80052 0.04482
#
# Static dielectric constant tensor:
#      x y z
#    x 1.831900 0.000000 0.000000 
#    y 0.000000 2.042350 0.000000 
#    z 0.000000 0.000000 2.004420 
# 
# From -- ./inp_files/29465.got.cif
#   From: 2010.05.17/outbox.cif.g08.bks.cpg/sg24_15_cif.got.tgz:29465.got - 2010.06.04 00:33:39.
