data_PCOD9334753
_publ_section_title
;
Structure prediction by ZEFSAII (Michael W. Deem and Ramdas Pophale) SiO2 
 PCOD9334753
Probable space group: I 21 21 21
;
_chemical_formula_sum "Si O2"
_cell_formula_units_Z 48
_cell_length_a 16.951992
_cell_length_b 5.000476
_cell_length_c 26.697421
_cell_angle_alpha 90.000000
_cell_angle_beta 90.000000
_cell_angle_gamma 90.000000
_cell_volume 2263.087762
_symmetry_space_group_name_H-M "I 21 21 21"
_symmetry_group_IT_number 24
_symmetry_cell_setting 'orthorhombic'
loop_
_space_group_symop_operation_xyz
x,y,z
-x,1/2-y,z
x,-y,1/2-z
1/2-x,y,-z
1/2+x,1/2+y,1/2+z
1/2-x,-y,1/2+z
1/2+x,1/2-y,-z
-x,1/2+y,1/2-z
loop_
_atom_site_type_symbol
_atom_site_label
_atom_site_fract_x
_atom_site_fract_y
_atom_site_fract_z
Si Si1 0.588675 0.259710 0.077045
Si Si2 0.920033 0.402205 0.038803
Si Si3 0.588689 0.148094 0.696246
Si Si4 0.855458 0.924579 0.087892
Si Si5 0.743895 0.262890 0.283154
Si Si6 0.681417 0.755873 0.109656
O O1 0.500000 0.250000 0.097906
O O2 0.647220 0.460546 0.104648
O O3 0.624859 0.964837 0.081569
O O4 0.581648 0.380512 0.021041
O O5 0.908757 0.697506 0.060851
O O6 0.000000 0.250000 0.055767
O O7 0.853101 0.202349 0.058675
O O8 0.500000 0.250000 0.688224
O O9 0.613175 0.007658 0.643973
O O10 0.665485 0.341858 0.701201
O O11 0.584146 0.000000 0.750000
O O12 0.769051 0.796576 0.088804
O O13 0.710297 0.500000 0.250000
O O14 0.692900 0.192876 0.331420
O O15 0.751085 0.000000 0.250000
#
# Coordination Sequence:
#
# PCOD9334753 Si02
#       6
#     8   8   8   8   8   8
#     4  11  24  42  65  89 117 154 197 248 309 370
#     4  11  23  40  60  87 124 164 200 243 299 352
#     4  10  21  35  56  85 120 161 205 244 282 337
#     4  11  24  39  60  89 123 162 205 249 296 347
#     4  10  21  38  60  86 119 157 193 236 293 349
#     4  11  23  40  64  92 119 155 200 247 299 357
#
# _framework density 21.209961
#
# number of rings (size 3 to 8) (size 9 to 14) (size 15 to 20)
#    0.000    1.333    0.000    5.500    0.000   15.333 
#    0.000    0.000    0.000   10.000    0.000    0.000 
#    0.000    0.000    0.000    0.000    0.000    0.000 
#
# Total GULP energy -133962.411357 kJ/mol
# GULP energy per Si atom -5581.767140 kJ/mol
# Density = 2.116169 g / cm^3
# Si number density = 21.209961 Si / 1000 Ang^3
#
#
#
# Elastic Constant Matrix: (Units=GPa)
#
#
# Indices 1 2 3 4 5 6 
#
# 1 72.2822 -4.7333 8.9118 0.0000 0.0000 0.0000
# 2 -4.7333 76.7257 -2.2590 0.0000 0.0000 0.0000
# 3 8.9118 -2.2590 48.5852 0.0000 0.0000 0.0000
# 4 0.0000 0.0000 0.0000 36.7025 0.0000 0.0000
# 5 0.0000 0.0000 0.0000 0.0000 94.5898 0.0000
# 6 0.0000 0.0000 0.0000 0.0000 0.0000 29.3853
#
#
#
# Elastic Compliance Matrix: (Units=1/GPa)
#
#
# Indices 1 2 3 4 5 6 
#
# 1 0.014204 0.000801 -0.002568 0.000000 0.000000 0.000000
# 2 0.000801 0.013096 0.000462 0.000000 0.000000 0.000000
# 3 -0.002568 0.000462 0.021075 0.000000 0.000000 0.000000
# 4 0.000000 0.000000 0.000000 0.027246 0.000000 0.000000
# 5 0.000000 0.000000 0.000000 0.000000 0.010572 0.000000
# 6 0.000000 0.000000 0.000000 0.000000 0.000000 0.034031
#
#
# Mechanical properties :
#
#
# Convention : Reuss Voigt Hill
#
# Bulk Modulus (GPa) = 21.85110 22.38135 22.11622
# Shear Modulus (GPa) = 36.20843 45.18042 40.69442
#
# Velocity S-wave (km/s) = 4.13624 4.62036 4.38499
# Velocity P-wave (km/s) = 5.75638 6.24811 6.00728
#
# Compressibility (1/GPa) = 0.04576429
#
# Stress axis : x y z
#
# Youngs Moduli (GPa) = 70.40407 76.35665 47.44970
#
# Poissons Ratio (x) = -0.06113 0.12186
# Poissons Ratio (y) = -0.05637 -0.02192
# Poissons Ratio (z) = 0.18080 -0.03528
#
# Static dielectric constant tensor:
#      x y z
#    x 1.796440 0.000000 0.000000 
#    y 0.000000 1.474450 0.000000 
#    z 0.000000 0.000000 1.762580 
# 
# From -- ./inp_files/37353.got.cif
#   From: 2010.05.17/outbox.cif.g08.bks.cpg/sg24_19_cif.got.tgz:37353.got - 2010.06.04 00:33:39.
