data_PCOD9334073
_publ_section_title
;
Structure prediction by ZEFSAII (Michael W. Deem and Ramdas Pophale) SiO2 
 PCOD9334073
Probable space group: I 21 21 21
;
_chemical_formula_sum "Si O2"
_cell_formula_units_Z 44
_cell_length_a 8.420732
_cell_length_b 14.295370
_cell_length_c 16.042355
_cell_angle_alpha 90.000000
_cell_angle_beta 90.000000
_cell_angle_gamma 90.000000
_cell_volume 1931.138262
_symmetry_space_group_name_H-M "I 21 21 21"
_symmetry_group_IT_number 24
_symmetry_cell_setting 'orthorhombic'
loop_
_space_group_symop_operation_xyz
x,y,z
-x,1/2-y,z
x,-y,1/2-z
1/2-x,y,-z
1/2+x,1/2+y,1/2+z
1/2-x,-y,1/2+z
1/2+x,1/2-y,-z
-x,1/2+y,1/2-z
loop_
_atom_site_type_symbol
_atom_site_label
_atom_site_fract_x
_atom_site_fract_y
_atom_site_fract_z
Si Si1 0.024875 0.641702 0.226449
Si Si2 0.248284 0.141619 0.150956
Si Si3 0.824699 0.069780 0.670770
Si Si4 0.665581 0.165891 0.900630
Si Si5 0.000000 0.250000 0.735478
Si Si6 0.025312 0.431283 0.952789
O O1 0.133097 0.583161 0.163778
O O2 0.145071 0.646150 0.304074
O O3 0.000000 0.750000 0.199163
O O4 0.869200 0.605391 0.275558
O O5 0.153927 0.221195 0.097687
O O6 0.379810 0.193746 0.206198
O O7 0.351057 0.080110 0.086780
O O8 0.906283 0.170687 0.683852
O O9 0.861716 0.000000 0.750000
O O10 0.898134 0.022587 0.588515
O O11 0.849297 0.148423 0.923018
O O12 0.556706 0.090824 0.950309
#
# Coordination Sequence:
#
# PCOD9334073 Si02
#       6
#     8   8   8   8   4   8
#     4  10  20  36  59  89 128 164 217 271 331 393
#     4  11  19  37  58  95 128 170 216 261 338 404
#     4  12  21  41  60  93 135 176 225 273 342 404
#     4  10  20  35  57  90 124 172 205 261 331 395
#     4  12  20  38  64  92 126 176 224 276 334 394
#     4  11  22  36  58  89 134 173 212 261 336 409
#
# _framework density 22.784490000000002
#
# number of rings (size 3 to 8) (size 9 to 14) (size 15 to 20)
#    0.000    1.091    9.091    0.000    0.000    9.455 
#    3.273    0.000    0.000    0.000    9.455    0.000 
#    0.000    0.000    0.000    0.000    0.000    0.000 
#
# Total GULP energy -122528.738835 kJ/mol
# GULP energy per Si atom -5569.488129 kJ/mol
# Density = 2.273263 g / cm^3
# Si number density = 22.784490 Si / 1000 Ang^3
#
#
#
# Elastic Constant Matrix: (Units=GPa)
#
#
# Indices 1 2 3 4 5 6 
#
# 1 124.8928 39.2581 26.4427 0.0000 0.0000 0.0000
# 2 39.2581 116.5593 46.7151 0.0000 0.0000 0.0000
# 3 26.4427 46.7151 43.7781 0.0000 0.0000 0.0000
# 4 0.0000 0.0000 0.0000 37.5053 0.0000 0.0000
# 5 0.0000 0.0000 0.0000 0.0000 26.6777 0.0000
# 6 0.0000 0.0000 0.0000 0.0000 0.0000 46.5215
#
#
#
# Elastic Compliance Matrix: (Units=1/GPa)
#
#
# Indices 1 2 3 4 5 6 
#
# 1 0.009338 -0.001545 -0.003991 0.000000 0.000000 0.000000
# 2 -0.001545 0.015246 -0.015335 0.000000 0.000000 0.000000
# 3 -0.003991 -0.015335 0.041617 0.000000 0.000000 0.000000
# 4 0.000000 0.000000 0.000000 0.026663 0.000000 0.000000
# 5 0.000000 0.000000 0.000000 0.000000 0.037484 0.000000
# 6 0.000000 0.000000 0.000000 0.000000 0.000000 0.021495
#
#
# Mechanical properties :
#
#
# Convention : Reuss Voigt Hill
#
# Bulk Modulus (GPa) = 40.88748 56.67356 48.78052
# Shear Modulus (GPa) = 24.78440 33.66184 29.22312
#
# Velocity S-wave (km/s) = 3.30172 3.84787 3.58521
# Velocity P-wave (km/s) = 5.70258 6.68350 6.21243
#
# Compressibility (1/GPa) = 0.02445736
#
# Stress axis : x y z
#
# Youngs Moduli (GPa) = 107.09343 65.59086 24.02851
#
# Poissons Ratio (x) = 0.10137 0.09590
# Poissons Ratio (y) = 0.16551 0.36849
# Poissons Ratio (z) = 0.42740 1.00586
#
# Static dielectric constant tensor:
#      x y z
#    x 2.026170 0.000000 0.000000 
#    y 0.000000 1.922900 0.000000 
#    z 0.000000 0.000000 1.889380 
# 
# From -- ./inp_files/29422.got.cif
#   From: 2010.05.17/outbox.cif.g08.bks.cpg/sg24_15_cif.got.tgz:29422.got - 2010.06.04 00:33:39.
