data_PCOD9334394
_publ_section_title
;
Structure prediction by ZEFSAII (Michael W. Deem and Ramdas Pophale) SiO2 
 PCOD9334394
Probable space group: I 21 21 21
;
_chemical_formula_sum "Si O2"
_cell_formula_units_Z 32
_cell_length_a 10.748974
_cell_length_b 9.134613
_cell_length_c 15.250008
_cell_angle_alpha 90.000000
_cell_angle_beta 90.000000
_cell_angle_gamma 90.000000
_cell_volume 1497.363479
_symmetry_space_group_name_H-M "I 21 21 21"
_symmetry_group_IT_number 24
_symmetry_cell_setting 'orthorhombic'
loop_
_space_group_symop_operation_xyz
x,y,z
-x,1/2-y,z
x,-y,1/2-z
1/2-x,y,-z
1/2+x,1/2+y,1/2+z
1/2-x,-y,1/2+z
1/2+x,1/2-y,-z
-x,1/2+y,1/2-z
loop_
_atom_site_type_symbol
_atom_site_label
_atom_site_fract_x
_atom_site_fract_y
_atom_site_fract_z
Si Si1 0.814242 0.556630 0.341914
Si Si2 0.867078 0.177659 0.063646
Si Si3 0.980062 0.425892 0.839280
Si Si4 0.001114 0.423227 0.476632
O O1 0.864926 0.500000 0.250000
O O2 0.840006 0.728920 0.350691
O O3 0.666940 0.540003 0.343357
O O4 0.877302 0.478048 0.425550
O O5 0.000000 0.250000 0.032291
O O6 0.750000 0.203759 0.000000
O O7 0.891075 0.006970 0.077669
O O8 0.029794 0.500000 0.750000
O O9 0.000000 0.250000 0.837821
O O10 0.025893 0.506874 0.927261
O O11 0.000000 0.250000 0.479825
#
# Coordination Sequence:
#
# PCOD9334394 Si02
#       4
#     8   8   8   8
#     4  10  21  38  61  88 122 166 209 257 311 373
#     4  10  20  38  64  91 124 166 210 257 315 373
#     4  11  22  40  64  90 123 161 207 261 319 375
#     4  11  23  38  61  91 127 167 210 257 310 375
#
# _framework density 21.370896999999999
#
# number of rings (size 3 to 8) (size 9 to 14) (size 15 to 20)
#    0.000    1.500    0.000    8.250    0.000    5.000 
#    0.000    5.000    0.000    7.500    0.000    0.000 
#    0.000    0.000    0.000    0.000    0.000    0.000 
#
# Total GULP energy -89177.046381 kJ/mol
# GULP energy per Si atom -5573.565399 kJ/mol
# Density = 2.132226 g / cm^3
# Si number density = 21.370897 Si / 1000 Ang^3
#
#
#
# Elastic Constant Matrix: (Units=GPa)
#
#
# Indices 1 2 3 4 5 6 
#
# 1 62.2887 -14.7418 -5.4545 0.0000 0.0000 0.0000
# 2 -14.7418 171.7756 50.1182 0.0000 0.0000 0.0000
# 3 -5.4545 50.1182 92.7471 0.0000 0.0000 0.0000
# 4 0.0000 0.0000 0.0000 25.9838 0.0000 0.0000
# 5 0.0000 0.0000 0.0000 0.0000 11.5440 0.0000
# 6 0.0000 0.0000 0.0000 0.0000 0.0000 20.3145
#
#
#
# Elastic Compliance Matrix: (Units=1/GPa)
#
#
# Indices 1 2 3 4 5 6 
#
# 1 0.016392 0.001336 0.000242 0.000000 0.000000 0.000000
# 2 0.001336 0.007020 -0.003715 0.000000 0.000000 0.000000
# 3 0.000242 -0.003715 0.012804 0.000000 0.000000 0.000000
# 4 0.000000 0.000000 0.000000 0.038486 0.000000 0.000000
# 5 0.000000 0.000000 0.000000 0.000000 0.086625 0.000000
# 6 0.000000 0.000000 0.000000 0.000000 0.000000 0.049226
#
#
# Mechanical properties :
#
#
# Convention : Reuss Voigt Hill
#
# Bulk Modulus (GPa) = 31.30683 42.96167 37.13425
# Shear Modulus (GPa) = 22.17565 31.36110 26.76837
#
# Velocity S-wave (km/s) = 3.22476 3.83491 3.54299
# Velocity P-wave (km/s) = 5.34290 6.30518 5.84388
#
# Compressibility (1/GPa) = 0.03194191
#
# Stress axis : x y z
#
# Youngs Moduli (GPa) = 61.00656 142.44814 78.10253
#
# Poissons Ratio (x) = -0.19033 -0.01890
# Poissons Ratio (y) = -0.08151 0.29014
# Poissons Ratio (z) = -0.01476 0.52918
#
# Static dielectric constant tensor:
#      x y z
#    x 1.906300 0.000000 0.000000 
#    y 0.000000 1.816820 0.000000 
#    z 0.000000 0.000000 1.855670 
# 
# From -- ./inp_files/10259.got.cif
#   From: 2010.05.17/outbox.cif.g08.bks.cpg/sg24_6_cif.got.tgz:10259.got - 2010.06.04 00:33:39.
