data_PCOD9334063
_publ_section_title
;
Structure prediction by ZEFSAII (Michael W. Deem and Ramdas Pophale) SiO2 
 PCOD9334063
Probable space group: I 21 21 21
;
_chemical_formula_sum "Si O2"
_cell_formula_units_Z 56
_cell_length_a 14.116880
_cell_length_b 9.369535
_cell_length_c 22.325264
_cell_angle_alpha 90.000000
_cell_angle_beta 90.000000
_cell_angle_gamma 90.000000
_cell_volume 2952.931442
_symmetry_space_group_name_H-M "I 21 21 21"
_symmetry_group_IT_number 24
_symmetry_cell_setting 'orthorhombic'
loop_
_space_group_symop_operation_xyz
x,y,z
-x,1/2-y,z
x,-y,1/2-z
1/2-x,y,-z
1/2+x,1/2+y,1/2+z
1/2-x,-y,1/2+z
1/2+x,1/2-y,-z
-x,1/2+y,1/2-z
loop_
_atom_site_type_symbol
_atom_site_label
_atom_site_fract_x
_atom_site_fract_y
_atom_site_fract_z
Si Si1 0.307838 0.608810 0.937345
Si Si2 0.025630 0.409894 0.032096
Si Si3 0.891799 0.223300 0.784677
Si Si4 0.034953 0.542699 0.603825
Si Si5 0.655980 0.822044 0.158005
Si Si6 0.826240 0.557073 0.053187
Si Si7 0.825740 0.482162 0.855504
O O1 0.392039 0.495203 0.933830
O O2 0.239392 0.605373 0.880102
O O3 0.341382 0.773656 0.937668
O O4 0.250000 0.588298 0.000000
O O5 0.000000 0.250000 0.051101
O O6 0.926939 0.493120 0.037047
O O7 0.060055 0.411748 0.962861
O O8 0.911088 0.135092 0.845489
O O9 0.845165 0.146361 0.728366
O O10 0.836310 0.368619 0.801681
O O11 0.000000 0.250000 0.762882
O O12 0.065375 0.383744 0.622574
O O13 0.921754 0.556822 0.608382
O O14 0.662802 0.650641 0.156744
O O15 0.772531 0.477962 0.108083
O O16 0.750000 0.544079 0.000000
#
# Coordination Sequence:
#
# PCOD9334063 Si02
#       7
#     8   8   8   8   8   8   8
#     4  10  22  40  58  87 116 159 208 252 301 369
#     4  12  24  38  57  86 124 165 199 255 309 360
#     4  10  21  36  54  89 130 165 195 241 302 374
#     4  11  21  34  53  84 125 163 198 237 300 368
#     4  11  21  35  59  83 118 160 202 247 297 361
#     4  10  21  36  60  86 119 162 205 246 303 363
#     4  10  20  35  56  87 119 158 204 245 296 359
#
# _framework density 18.964206000000001
#
# number of rings (size 3 to 8) (size 9 to 14) (size 15 to 20)
#    0.000    1.429    2.857    3.857    0.000    5.143 
#    0.000    0.000    0.000    0.000    0.000   24.000 
#    0.000    0.000    0.000    0.000    0.000    0.000 
#
# Total GULP energy -156108.022703 kJ/mol
# GULP energy per Si atom -5575.286525 kJ/mol
# Density = 1.892104 g / cm^3
# Si number density = 18.964206 Si / 1000 Ang^3
#
#
#
# Elastic Constant Matrix: (Units=GPa)
#
#
# Indices 1 2 3 4 5 6 
#
# 1 93.3963 61.9796 55.2113 0.0000 0.0000 0.0000
# 2 61.9796 101.8138 41.6245 0.0000 0.0000 0.0000
# 3 55.2113 41.6245 94.0190 0.0000 0.0000 0.0000
# 4 0.0000 0.0000 0.0000 17.6464 0.0000 0.0000
# 5 0.0000 0.0000 0.0000 0.0000 20.0852 0.0000
# 6 0.0000 0.0000 0.0000 0.0000 0.0000 33.1778
#
#
#
# Elastic Compliance Matrix: (Units=1/GPa)
#
#
# Indices 1 2 3 4 5 6 
#
# 1 0.022687 -0.010213 -0.008801 0.000000 0.000000 0.000000
# 2 -0.010213 0.016590 -0.001347 0.000000 0.000000 0.000000
# 3 -0.008801 -0.001347 0.016401 0.000000 0.000000 0.000000
# 4 0.000000 0.000000 0.000000 0.056669 0.000000 0.000000
# 5 0.000000 0.000000 0.000000 0.000000 0.049788 0.000000
# 6 0.000000 0.000000 0.000000 0.000000 0.000000 0.030141
#
#
# Mechanical properties :
#
#
# Convention : Reuss Voigt Hill
#
# Bulk Modulus (GPa) = 66.86638 67.42888 67.14763
# Shear Modulus (GPa) = 21.00982 22.87612 21.94297
#
# Velocity S-wave (km/s) = 3.33207 3.47692 3.40527
# Velocity P-wave (km/s) = 7.08092 7.19386 7.13762
#
# Compressibility (1/GPa) = 0.01495520
#
# Stress axis : x y z
#
# Youngs Moduli (GPa) = 44.07731 60.27814 60.97121
#
# Poissons Ratio (x) = 0.61561 0.53663
# Poissons Ratio (y) = 0.45015 0.08215
# Poissons Ratio (z) = 0.38794 0.08122
#
# Static dielectric constant tensor:
#      x y z
#    x 1.647440 0.000000 0.000000 
#    y 0.000000 1.732270 0.000000 
#    z 0.000000 0.000000 1.695440 
# 
# From -- ./inp_files/33748.got.cif
#   From: 2010.05.17/outbox.cif.g08.bks.cpg/sg24_17_cif.got.tgz:33748.got - 2010.06.04 00:33:39.
