data_PCOD9334649
_publ_section_title
;
Structure prediction by ZEFSAII (Michael W. Deem and Ramdas Pophale) SiO2 
 PCOD9334649
Probable space group: I 21 21 21
;
_chemical_formula_sum "Si O2"
_cell_formula_units_Z 56
_cell_length_a 6.269470
_cell_length_b 13.951724
_cell_length_c 28.191264
_cell_angle_alpha 90.000000
_cell_angle_beta 90.000000
_cell_angle_gamma 90.000000
_cell_volume 2465.887468
_symmetry_space_group_name_H-M "I 21 21 21"
_symmetry_group_IT_number 24
_symmetry_cell_setting 'orthorhombic'
loop_
_space_group_symop_operation_xyz
x,y,z
-x,1/2-y,z
x,-y,1/2-z
1/2-x,y,-z
1/2+x,1/2+y,1/2+z
1/2-x,-y,1/2+z
1/2+x,1/2-y,-z
-x,1/2+y,1/2-z
loop_
_atom_site_type_symbol
_atom_site_label
_atom_site_fract_x
_atom_site_fract_y
_atom_site_fract_z
Si Si1 0.000000 0.750000 0.517893
Si Si2 0.948237 0.153446 0.647063
Si Si3 0.471133 0.563837 0.424217
Si Si4 0.546828 0.864244 0.313979
Si Si5 0.162579 0.049217 0.403465
Si Si6 0.749127 0.500000 0.250000
Si Si7 0.716461 0.131535 0.553293
Si Si8 0.888917 0.995205 0.181955
O O1 0.250000 0.776727 0.500000
O O2 0.930152 0.842107 0.547357
O O3 0.820605 0.182497 0.598909
O O4 0.799867 0.081802 0.676335
O O5 0.000000 0.250000 0.674533
O O6 0.159478 0.101239 0.628565
O O7 0.471601 0.594719 0.368251
O O8 0.707681 0.525354 0.434075
O O9 0.320657 0.475632 0.440592
O O10 0.500000 0.750000 0.313000
O O11 0.388775 0.922356 0.278860
O O12 0.783224 0.905257 0.301069
O O13 0.032125 0.122119 0.435413
O O14 0.997139 0.995233 0.369381
O O15 0.918650 0.544061 0.213313
O O16 0.750000 0.166527 0.500000
#
# Coordination Sequence:
#
# PCOD9334649 Si02
#       8
#     4   8   8   8   8   4   8   8
#     4  12  30  44  66 118 160 196 256 320 366 460
#     4  10  22  42  66 102 137 188 239 292 365 441
#     4  11  22  42  69 100 141 194 237 293 365 444
#     4  12  25  49  75 104 139 186 241 294 371 447
#     4  10  20  41  70  92 135 186 231 288 358 435
#     4  12  26  48  72 104 142 176 238 314 358 446
#     4  10  22  39  65 100 135 188 240 294 358 427
#     4  11  22  45  71  99 140 181 237 296 363 437
#
# _framework density 22.709879000000001
#
# number of rings (size 3 to 8) (size 9 to 14) (size 15 to 20)
#    0.000    1.143    6.429    0.857    4.000    4.571 
#    2.571   10.714    0.000    0.000    0.000    0.000 
#    0.000    0.000    0.000    0.000    0.000    0.000 
#
# Total GULP energy -156037.676124 kJ/mol
# GULP energy per Si atom -5572.774147 kJ/mol
# Density = 2.265819 g / cm^3
# Si number density = 22.709879 Si / 1000 Ang^3
#
#
#
# Elastic Constant Matrix: (Units=GPa)
#
#
# Indices 1 2 3 4 5 6 
#
# 1 104.9538 16.1492 25.8486 0.0000 0.0000 0.0000
# 2 16.1492 108.5142 -2.7348 0.0000 0.0000 0.0000
# 3 25.8486 -2.7348 71.2585 0.0000 0.0000 0.0000
# 4 0.0000 0.0000 0.0000 21.8341 0.0000 0.0000
# 5 0.0000 0.0000 0.0000 0.0000 28.3996 0.0000
# 6 0.0000 0.0000 0.0000 0.0000 0.0000 17.6364
#
#
#
# Elastic Compliance Matrix: (Units=1/GPa)
#
#
# Indices 1 2 3 4 5 6 
#
# 1 0.010768 -0.001703 -0.003971 0.000000 0.000000 0.000000
# 2 -0.001703 0.009494 0.000982 0.000000 0.000000 0.000000
# 3 -0.003971 0.000982 0.015512 0.000000 0.000000 0.000000
# 4 0.000000 0.000000 0.000000 0.045800 0.000000 0.000000
# 5 0.000000 0.000000 0.000000 0.000000 0.035212 0.000000
# 6 0.000000 0.000000 0.000000 0.000000 0.000000 0.056701
#
#
# Mechanical properties :
#
#
# Convention : Reuss Voigt Hill
#
# Bulk Modulus (GPa) = 37.89430 40.36139 39.12784
# Shear Modulus (GPa) = 26.08699 29.93826 28.01263
#
# Velocity S-wave (km/s) = 3.39293 3.63477 3.51593
# Velocity P-wave (km/s) = 5.66320 5.95202 5.80941
#
# Compressibility (1/GPa) = 0.02638920
#
# Stress axis : x y z
#
# Youngs Moduli (GPa) = 92.86705 105.33504 64.46749
#
# Poissons Ratio (x) = 0.17934 0.25603
# Poissons Ratio (y) = 0.15812 -0.06330
# Poissons Ratio (z) = 0.36881 -0.10343
#
# Static dielectric constant tensor:
#      x y z
#    x 1.925750 0.000000 0.000000 
#    y 0.000000 1.835510 0.000000 
#    z 0.000000 0.000000 1.962490 
# 
# From -- ./inp_files/24100.got.cif
#   From: 2010.05.17/outbox.cif.g08.bks.cpg/sg24_13_cif.got.tgz:24100.got - 2010.06.04 00:33:39.
