data_PCOD9334914
_publ_section_title
;
Structure prediction by ZEFSAII (Michael W. Deem and Ramdas Pophale) SiO2 
 PCOD9334914
Probable space group: I 21 21 21
;
_chemical_formula_sum "Si O2"
_cell_formula_units_Z 64
_cell_length_a 11.976089
_cell_length_b 9.635954
_cell_length_c 27.508588
_cell_angle_alpha 90.000000
_cell_angle_beta 90.000000
_cell_angle_gamma 90.000000
_cell_volume 3174.519739
_symmetry_space_group_name_H-M "I 21 21 21"
_symmetry_group_IT_number 24
_symmetry_cell_setting 'orthorhombic'
loop_
_space_group_symop_operation_xyz
x,y,z
-x,1/2-y,z
x,-y,1/2-z
1/2-x,y,-z
1/2+x,1/2+y,1/2+z
1/2-x,-y,1/2+z
1/2+x,1/2-y,-z
-x,1/2+y,1/2-z
loop_
_atom_site_type_symbol
_atom_site_label
_atom_site_fract_x
_atom_site_fract_y
_atom_site_fract_z
Si Si1 0.281857 0.280837 0.809841
Si Si2 0.955474 0.093475 0.798876
Si Si3 0.710961 0.576599 0.052919
Si Si4 0.588365 0.977167 0.631876
Si Si5 0.631790 0.219850 0.702110
Si Si6 0.824049 0.497410 0.350664
Si Si7 0.751136 0.904597 0.056324
Si Si8 0.486258 0.587570 0.107653
O O1 0.171366 0.371167 0.813540
O O2 0.367181 0.329096 0.851451
O O3 0.328385 0.303544 0.756236
O O4 0.272293 0.116485 0.817178
O O5 0.000000 0.250000 0.790198
O O6 0.962860 0.000000 0.750000
O O7 0.005271 0.010248 0.845342
O O8 0.767282 0.497064 0.097171
O O9 0.753191 0.736414 0.057376
O O10 0.579353 0.569860 0.065284
O O11 0.750000 0.527552 0.000000
O O12 0.643959 0.084236 0.669962
O O13 0.640660 0.028048 0.581496
O O14 0.456526 0.987338 0.639657
O O15 0.500000 0.250000 0.704138
O O16 0.690694 0.349226 0.675795
O O17 0.636516 0.939583 0.085043
O O18 0.750000 0.946274 0.000000
O O19 0.500000 0.750000 0.122630
#
# Coordination Sequence:
#
# PCOD9334914 Si02
#       8
#     8   8   8   8   8   8   8   8
#     4  12  24  39  62  89 133 167 212 258 329 395
#     4  12  26  43  66  95 130 178 225 276 334 402
#     4  10  22  40  65  94 125 163 215 272 331 380
#     4  11  21  39  63  93 130 162 213 262 322 392
#     4  10  21  38  61  91 123 169 209 265 311 379
#     4  11  23  38  62  93 128 167 211 270 315 387
#     4  10  21  38  66  96 125 167 214 272 331 388
#     4  10  22  43  67  94 132 170 221 276 329 402
#
# _framework density 20.160530000000001
#
# number of rings (size 3 to 8) (size 9 to 14) (size 15 to 20)
#    0.000    1.250    2.500    3.750    1.750    4.000 
#    0.000    0.625    0.000    0.000    0.000    0.000 
#    0.000    0.000    0.000    0.000    0.000    0.000 
#
# Total GULP energy -178701.861551 kJ/mol
# GULP energy per Si atom -5584.433173 kJ/mol
# Density = 2.011464 g / cm^3
# Si number density = 20.160530 Si / 1000 Ang^3
#
#
#
# Elastic Constant Matrix: (Units=GPa)
#
#
# Indices 1 2 3 4 5 6 
#
# 1 45.3285 16.5875 11.6614 0.0000 0.0000 0.0000
# 2 16.5875 73.8791 24.2286 0.0000 0.0000 0.0000
# 3 11.6614 24.2286 107.7319 0.0000 0.0000 0.0000
# 4 0.0000 0.0000 0.0000 -76.7564 0.0000 0.0000
# 5 0.0000 0.0000 0.0000 0.0000 27.8978 0.0000
# 6 0.0000 0.0000 0.0000 0.0000 0.0000 27.5238
#
#
#
# Elastic Compliance Matrix: (Units=1/GPa)
#
#
# Indices 1 2 3 4 5 6 
#
# 1 0.024262 -0.004951 -0.001513 0.000000 0.000000 0.000000
# 2 -0.004951 0.015624 -0.002978 0.000000 0.000000 0.000000
# 3 -0.001513 -0.002978 0.010116 0.000000 0.000000 0.000000
# 4 0.000000 0.000000 0.000000 -0.013028 0.000000 0.000000
# 5 0.000000 0.000000 0.000000 0.000000 0.035845 0.000000
# 6 0.000000 0.000000 0.000000 0.000000 0.000000 0.036332
#
#
# Mechanical properties :
#
#
# Convention : Reuss Voigt Hill
#
# Bulk Modulus (GPa) = 32.13558 36.87717 34.50637
# Shear Modulus (GPa) = 36.12522 7.36383 21.74452
#
# Velocity S-wave (km/s) = 4.23765 1.91325 3.28772
# Velocity P-wave (km/s) = 6.31807 4.81790 5.61828
#
# Compressibility (1/GPa) = 0.03111816
#
# Stress axis : x y z
#
# Youngs Moduli (GPa) = 41.21632 64.00462 98.85577
#
# Poissons Ratio (x) = 0.31691 0.14954
# Poissons Ratio (y) = 0.20408 0.29437
# Poissons Ratio (z) = 0.06235 0.19059
#
# Static dielectric constant tensor:
#      x y z
#    x 1.794090 0.000000 0.000000 
#    y 0.000000 1.736960 0.000000 
#    z 0.000000 0.000000 1.685900 
# 
# From -- ./inp_files/38640.got.cif
#   From: 2010.05.17/outbox.cif.g08.bks.cpg/sg24_20_cif.got.tgz:38640.got - 2010.06.04 00:33:39.
