data_PCOD9334459
_publ_section_title
;
Structure prediction by ZEFSAII (Michael W. Deem and Ramdas Pophale) SiO2 
 PCOD9334459
Probable space group: I 21 21 21
;
_chemical_formula_sum "Si O2"
_cell_formula_units_Z 40
_cell_length_a 12.418606
_cell_length_b 16.987966
_cell_length_c 8.814870
_cell_angle_alpha 90.000000
_cell_angle_beta 90.000000
_cell_angle_gamma 90.000000
_cell_volume 1859.645414
_symmetry_space_group_name_H-M "I 21 21 21"
_symmetry_group_IT_number 24
_symmetry_cell_setting 'orthorhombic'
loop_
_space_group_symop_operation_xyz
x,y,z
-x,1/2-y,z
x,-y,1/2-z
1/2-x,y,-z
1/2+x,1/2+y,1/2+z
1/2-x,-y,1/2+z
1/2+x,1/2-y,-z
-x,1/2+y,1/2-z
loop_
_atom_site_type_symbol
_atom_site_label
_atom_site_fract_x
_atom_site_fract_y
_atom_site_fract_z
Si Si1 0.702095 0.311345 0.843532
Si Si2 0.168243 0.630090 0.325923
Si Si3 0.018442 0.844795 0.127356
Si Si4 0.928840 0.671500 0.797641
Si Si5 0.902125 0.074938 0.858105
O O1 0.659264 0.222244 0.875162
O O2 0.607429 0.356856 0.757706
O O3 0.805315 0.308870 0.733297
O O4 0.750000 0.343682 0.000000
O O5 0.293864 0.617532 0.296033
O O6 0.125893 0.575150 0.462879
O O7 0.093718 0.618814 0.180549
O O8 0.000000 0.750000 0.120584
O O9 0.056639 0.869306 0.961305
O O10 0.000000 0.750000 0.800515
O O11 0.986832 0.620889 0.667937
O O12 0.909875 0.000000 0.750000
#
# Coordination Sequence:
#
# PCOD9334459 Si02
#       5
#     8   8   8   8   8
#     4  11  18  34  61  87 117 153 206 258 306 367
#     4  10  20  39  55  85 122 165 206 242 311 374
#     4   9  21  32  55  89 119 152 199 260 312 359
#     4  11  20  36  58  88 121 155 204 262 311 369
#     4  11  23  38  60  89 123 166 208 252 311 381
#
# _framework density 21.509477
#
# number of rings (size 3 to 8) (size 9 to 14) (size 15 to 20)
#    0.000    1.600    4.000    1.800    0.000    5.600 
#    0.000    0.000    0.000    8.400    0.000    0.000 
#    0.000    0.000    0.000    0.000    0.000    0.000 
#
# Total GULP energy -111562.544227 kJ/mol
# GULP energy per Si atom -5578.127211 kJ/mol
# Density = 2.146052 g / cm^3
# Si number density = 21.509477 Si / 1000 Ang^3
#
#
#
# Elastic Constant Matrix: (Units=GPa)
#
#
# Indices 1 2 3 4 5 6 
#
# 1 62.1590 -5.9621 9.7512 0.0000 0.0000 0.0000
# 2 -5.9621 24.1865 -3.9806 0.0000 0.0000 0.0000
# 3 9.7512 -3.9806 77.0689 0.0000 0.0000 0.0000
# 4 0.0000 0.0000 0.0000 7.8006 0.0000 0.0000
# 5 0.0000 0.0000 0.0000 0.0000 30.2185 0.0000
# 6 0.0000 0.0000 0.0000 0.0000 0.0000 8.2800
#
#
#
# Elastic Compliance Matrix: (Units=1/GPa)
#
#
# Indices 1 2 3 4 5 6 
#
# 1 0.016755 0.003814 -0.001923 0.000000 0.000000 0.000000
# 2 0.003814 0.042568 0.001716 0.000000 0.000000 0.000000
# 3 -0.001923 0.001716 0.013307 0.000000 0.000000 0.000000
# 4 0.000000 0.000000 0.000000 0.128196 0.000000 0.000000
# 5 0.000000 0.000000 0.000000 0.000000 0.033092 0.000000
# 6 0.000000 0.000000 0.000000 0.000000 0.000000 0.120772
#
#
# Mechanical properties :
#
#
# Convention : Reuss Voigt Hill
#
# Bulk Modulus (GPa) = 12.52440 18.11461 15.31951
# Shear Modulus (GPa) = 13.36571 20.16689 16.76630
#
# Velocity S-wave (km/s) = 2.49547 3.06532 2.79495
# Velocity P-wave (km/s) = 3.76012 4.57910 4.18967
#
# Compressibility (1/GPa) = 0.07984414
#
# Stress axis : x y z
#
# Youngs Moduli (GPa) = 59.68279 23.49190 75.14648
#
# Poissons Ratio (x) = -0.08959 0.14451
# Poissons Ratio (y) = -0.22762 -0.12896
# Poissons Ratio (z) = 0.11477 -0.04031
#
# Static dielectric constant tensor:
#      x y z
#    x 1.739790 0.000000 0.000000 
#    y 0.000000 1.814690 0.000000 
#    z 0.000000 0.000000 1.821460 
# 
# From -- ./inp_files/10680.got.cif
#   From: 2010.05.17/outbox.cif.g08.bks.cpg/sg24_6_cif.got.tgz:10680.got - 2010.06.04 00:33:39.
