data_PCOD9334054
_publ_section_title
;
Structure prediction by ZEFSAII (Michael W. Deem and Ramdas Pophale) SiO2 
 PCOD9334054
Probable space group: I 21 21 21
;
_chemical_formula_sum "Si O2"
_cell_formula_units_Z 60
_cell_length_a 23.529290
_cell_length_b 24.029175
_cell_length_c 5.395648
_cell_angle_alpha 90.000000
_cell_angle_beta 90.000000
_cell_angle_gamma 90.000000
_cell_volume 3050.642331
_symmetry_space_group_name_H-M "I 21 21 21"
_symmetry_group_IT_number 24
_symmetry_cell_setting 'orthorhombic'
loop_
_space_group_symop_operation_xyz
x,y,z
-x,1/2-y,z
x,-y,1/2-z
1/2-x,y,-z
1/2+x,1/2+y,1/2+z
1/2-x,-y,1/2+z
1/2+x,1/2-y,-z
-x,1/2+y,1/2-z
loop_
_atom_site_type_symbol
_atom_site_label
_atom_site_fract_x
_atom_site_fract_y
_atom_site_fract_z
Si Si1 0.441943 0.500000 0.750000
Si Si2 0.485506 0.060407 0.369075
Si Si3 0.280888 0.567102 0.244831
Si Si4 0.598815 0.090935 0.098428
Si Si5 0.150508 0.295810 0.071184
Si Si6 0.049755 0.209218 0.051846
Si Si7 0.918032 0.339023 0.551542
Si Si8 0.311316 0.245704 0.431922
O O1 0.483255 0.454795 0.625284
O O2 0.403282 0.534823 0.564089
O O3 0.536604 0.091646 0.221116
O O4 0.428227 0.096139 0.385489
O O5 0.475606 0.000000 0.250000
O O6 0.276985 0.500000 0.250000
O O7 0.250000 0.587263 0.500000
O O8 0.346937 0.583106 0.225969
O O9 0.250000 0.587852 0.000000
O O10 0.615823 0.146883 0.955403
O O11 0.187562 0.280428 0.826413
O O12 0.105674 0.246038 0.059610
O O13 0.176947 0.288298 0.341808
O O14 0.057340 0.165930 0.274212
O O15 0.000000 0.250000 0.122885
O O16 0.044605 0.188959 0.770201
O O17 0.858761 0.304294 0.565995
O O18 0.250000 0.221018 0.500000
#
# Coordination Sequence:
#
# PCOD9334054 Si02
#       8
#     4   8   8   8   8   8   8   8
#     4  10  24  38  62  84 122 168 208 252 310 362
#     4  10  23  39  60  91 124 161 207 253 303 368
#     4  10  23  38  55  74 102 146 205 257 295 343
#     4  11  24  39  60  83 121 164 206 255 311 359
#     4  10  23  36  61  88 116 154 201 246 299 358
#     4  10  20  35  55  87 120 151 193 244 296 362
#     4  10  22  37  62  90 118 164 196 243 313 369
#     4  10  22  43  63  91 124 157 203 253 309 373
#
# _framework density 19.667988999999999
#
# number of rings (size 3 to 8) (size 9 to 14) (size 15 to 20)
#    0.000    1.867    0.000    2.800   12.133    2.667 
#    0.000    0.000    0.000    0.000    1.733    0.000 
#    0.000    0.000    0.000    0.000    0.000    0.000 
#
# Total GULP energy -167192.013621 kJ/mol
# GULP energy per Si atom -5573.067121 kJ/mol
# Density = 1.962322 g / cm^3
# Si number density = 19.667989 Si / 1000 Ang^3
#
#
#
# Elastic Constant Matrix: (Units=GPa)
#
#
# Indices 1 2 3 4 5 6 
#
# 1 58.8863 43.4784 37.7719 0.0000 0.0000 0.0000
# 2 43.4784 77.0147 19.0385 0.0000 0.0000 0.0000
# 3 37.7719 19.0385 91.3337 0.0000 0.0000 0.0000
# 4 0.0000 0.0000 0.0000 7.4317 0.0000 0.0000
# 5 0.0000 0.0000 0.0000 0.0000 -23.3636 0.0000
# 6 0.0000 0.0000 0.0000 0.0000 0.0000 23.0124
#
#
#
# Elastic Compliance Matrix: (Units=1/GPa)
#
#
# Indices 1 2 3 4 5 6 
#
# 1 0.038594 -0.018812 -0.012040 0.000000 0.000000 0.000000
# 2 -0.018812 0.022860 0.003015 0.000000 0.000000 0.000000
# 3 -0.012040 0.003015 0.015300 0.000000 0.000000 0.000000
# 4 0.000000 0.000000 0.000000 0.134558 0.000000 0.000000
# 5 0.000000 0.000000 0.000000 0.000000 -0.042802 0.000000
# 6 0.000000 0.000000 0.000000 0.000000 0.000000 0.043455
#
#
# Mechanical properties :
#
#
# Convention : Reuss Voigt Hill
#
# Bulk Modulus (GPa) = 47.43918 47.53472 47.48695
# Shear Modulus (GPa) = 18.20399 9.87917 14.04158
#
# Velocity S-wave (km/s) = 3.04561 2.24363 2.67485
# Velocity P-wave (km/s) = 6.04483 5.56173 5.80831
#
# Compressibility (1/GPa) = 0.02107962
#
# Stress axis : x y z
#
# Youngs Moduli (GPa) = 25.91054 43.74547 65.36142
#
# Poissons Ratio (x) = 0.82294 0.78693
# Poissons Ratio (y) = 0.48743 -0.19705
# Poissons Ratio (z) = 0.31195 -0.13188
#
# Static dielectric constant tensor:
#      x y z
#    x 1.708660 0.000000 0.000000 
#    y 0.000000 1.692040 0.000000 
#    z 0.000000 0.000000 1.776890 
# 
# From -- ./inp_files/6535.got.cif
#   From: 2010.05.17/outbox.cif.g08.bks.cpg/sg24_4_cif.got.tgz:6535.got - 2010.06.04 00:33:39.
