data_PCOD9334284
_publ_section_title
;
Structure prediction by ZEFSAII (Michael W. Deem and Ramdas Pophale) SiO2 
 PCOD9334284
Probable space group: I 21 21 21
;
_chemical_formula_sum "Si O2"
_cell_formula_units_Z 64
_cell_length_a 14.665587
_cell_length_b 22.557051
_cell_length_c 8.917365
_cell_angle_alpha 90.000000
_cell_angle_beta 90.000000
_cell_angle_gamma 90.000000
_cell_volume 2949.974863
_symmetry_space_group_name_H-M "I 21 21 21"
_symmetry_group_IT_number 24
_symmetry_cell_setting 'orthorhombic'
loop_
_space_group_symop_operation_xyz
x,y,z
-x,1/2-y,z
x,-y,1/2-z
1/2-x,y,-z
1/2+x,1/2+y,1/2+z
1/2-x,-y,1/2+z
1/2+x,1/2-y,-z
-x,1/2+y,1/2-z
loop_
_atom_site_type_symbol
_atom_site_label
_atom_site_fract_x
_atom_site_fract_y
_atom_site_fract_z
Si Si1 0.097278 0.841102 0.856006
Si Si2 0.675210 0.048827 0.370894
Si Si3 0.240037 0.731050 0.340224
Si Si4 0.905595 0.827079 0.794729
Si Si5 0.823035 0.457681 0.372212
Si Si6 0.598097 0.762992 0.904632
Si Si7 0.275865 0.135412 0.839432
Si Si8 0.470620 0.027590 0.415517
O O1 0.184839 0.855707 0.758077
O O2 0.060674 0.903902 0.916021
O O3 0.011308 0.822830 0.750302
O O4 0.119974 0.795318 0.991782
O O5 0.750000 0.059410 0.500000
O O6 0.643877 0.109340 0.284965
O O7 0.579009 0.024588 0.438425
O O8 0.707129 0.000000 0.250000
O O9 0.250000 0.699662 0.500000
O O10 0.341245 0.723017 0.275022
O O11 0.173236 0.712611 0.207730
O O12 0.198091 0.796491 0.370630
O O13 0.913613 0.813090 0.970662
O O14 0.775791 0.500000 0.250000
O O15 0.750000 0.442918 0.500000
O O16 0.843246 0.400450 0.268661
O O17 0.906304 0.493374 0.448724
O O18 0.500000 0.750000 0.832183
O O19 0.250000 0.107432 0.000000
O O20 0.452752 0.000000 0.250000
#
# Coordination Sequence:
#
# PCOD9334284 Si02
#       8
#     8   8   8   8   8   8   8   8
#     4  10  20  38  65  87 120 162 208 247 302 361
#     4  10  22  41  66  92 120 156 204 257 311 364
#     4  11  23  38  57  90 125 155 196 252 307 361
#     4  10  21  39  67  89 115 162 206 251 300 368
#     4  12  24  37  59  87 123 166 207 252 300 363
#     4  10  20  37  62  89 116 158 206 247 295 363
#     4  11  24  38  57  89 125 163 203 245 303 362
#     4  10  22  39  61  89 122 160 207 257 303 365
#
# _framework density 21.6951
#
# number of rings (size 3 to 8) (size 9 to 14) (size 15 to 20)
#    0.000    1.500    2.500    2.625    1.750    1.000 
#    4.500    0.000    0.000    0.000    0.000    0.000 
#    0.000    0.000    0.000    0.000    0.000    0.000 
#
# Total GULP energy -178249.593983 kJ/mol
# GULP energy per Si atom -5570.299812 kJ/mol
# Density = 2.164572 g / cm^3
# Si number density = 21.695100 Si / 1000 Ang^3
#
#
#
# Elastic Constant Matrix: (Units=GPa)
#
#
# Indices 1 2 3 4 5 6 
#
# 1 101.4180 -8.7696 40.3100 0.0000 0.0000 0.0000
# 2 -8.7696 70.6198 11.8779 0.0000 0.0000 0.0000
# 3 40.3100 11.8779 86.7997 0.0000 0.0000 -0.0001
# 4 0.0000 0.0000 0.0000 19.4150 0.0000 0.0000
# 5 0.0000 0.0000 0.0000 0.0000 4.3893 0.0000
# 6 0.0000 0.0000 -0.0001 0.0000 0.0000 22.4759
#
#
#
# Elastic Compliance Matrix: (Units=1/GPa)
#
#
# Indices 1 2 3 4 5 6 
#
# 1 0.012541 0.002597 -0.006179 0.000000 0.000000 0.000000
# 2 0.002597 0.015032 -0.003263 0.000000 0.000000 0.000000
# 3 -0.006179 -0.003263 0.014837 0.000000 0.000000 0.000000
# 4 0.000000 0.000000 0.000000 0.051507 0.000000 0.000000
# 5 0.000000 0.000000 0.000000 0.000000 0.227826 0.000000
# 6 0.000000 0.000000 0.000000 0.000000 0.000000 0.044492
#
#
# Mechanical properties :
#
#
# Convention : Reuss Voigt Hill
#
# Bulk Modulus (GPa) = 34.82099 38.40822 36.61461
# Shear Modulus (GPa) = 12.83704 23.61733 18.22718
#
# Velocity S-wave (km/s) = 2.43513 3.30298 2.90168
# Velocity P-wave (km/s) = 4.89811 5.68228 5.30470
#
# Compressibility (1/GPa) = 0.02871831
#
# Stress axis : x y z
#
# Youngs Moduli (GPa) = 79.74004 66.52658 67.39931
#
# Poissons Ratio (x) = -0.17275 0.41648
# Poissons Ratio (y) = -0.20706 0.21991
# Poissons Ratio (z) = 0.49274 0.21707
#
# Static dielectric constant tensor:
#      x y z
#    x 1.903980 0.000000 0.000000 
#    y 0.000000 1.942490 0.000000 
#    z 0.000000 0.000000 1.865320 
# 
# From -- ./inp_files/13373.got.cif
#   From: 2010.05.17/outbox.cif.g08.bks.cpg/sg24_7_cif.got.tgz:13373.got - 2010.06.04 00:33:39.
