data_PCOD9334708
_publ_section_title
;
Structure prediction by ZEFSAII (Michael W. Deem and Ramdas Pophale) SiO2 
 PCOD9334708
Probable space group: I 21 21 21
;
_chemical_formula_sum "Si O2"
_cell_formula_units_Z 28
_cell_length_a 10.825979
_cell_length_b 14.844604
_cell_length_c 7.543678
_cell_angle_alpha 90.000000
_cell_angle_beta 90.000000
_cell_angle_gamma 90.000000
_cell_volume 1212.324660
_symmetry_space_group_name_H-M "I 21 21 21"
_symmetry_group_IT_number 24
_symmetry_cell_setting 'orthorhombic'
loop_
_space_group_symop_operation_xyz
x,y,z
-x,1/2-y,z
x,-y,1/2-z
1/2-x,y,-z
1/2+x,1/2+y,1/2+z
1/2-x,-y,1/2+z
1/2+x,1/2-y,-z
-x,1/2+y,1/2-z
loop_
_atom_site_type_symbol
_atom_site_label
_atom_site_fract_x
_atom_site_fract_y
_atom_site_fract_z
Si Si1 0.533750 0.412985 0.129842
Si Si2 0.250000 0.689771 0.000000
Si Si3 0.000000 0.250000 0.636081
Si Si4 0.250000 0.809153 0.500000
Si Si5 0.151171 0.630365 0.360057
O O1 0.522557 0.500000 0.250000
O O2 0.468014 0.333531 0.237978
O O3 0.671625 0.374686 0.121393
O O4 0.475568 0.412243 0.932280
O O5 0.370553 0.753590 0.032712
O O6 0.300567 0.626329 0.839762
O O7 0.159603 0.738726 0.400203
O O8 0.250000 0.591262 0.500000
#
# Coordination Sequence:
#
# PCOD9334708 Si02
#       5
#     8   4   4   4   8
#     4  12  24  46  75 112 157 200 265 331 399 476
#     4  12  24  39  85 104 150 208 276 303 425 462
#     4  12  24  46  68 114 148 216 254 338 392 490
#     4  10  20  45  75 102 150 210 250 325 393 472
#     4  10  21  44  75 100 148 203 251 321 390 471
#
# _framework density 23.096122999999999
#
# number of rings (size 3 to 8) (size 9 to 14) (size 15 to 20)
#    0.857    0.000    8.571    0.000    4.000    1.143 
#    2.571    1.429    0.000    0.000    0.000    0.000 
#    0.000    0.000    0.000    0.000    0.000    0.000 
#
# Total GULP energy -77942.487555 kJ/mol
# GULP energy per Si atom -5567.320540 kJ/mol
# Density = 2.304355 g / cm^3
# Si number density = 23.096123 Si / 1000 Ang^3
#
#
#
# Elastic Constant Matrix: (Units=GPa)
#
#
# Indices 1 2 3 4 5 6 
#
# 1 112.5960 17.8329 33.8271 0.0000 0.0000 0.0000
# 2 17.8329 104.5349 50.6855 0.0000 0.0000 0.0000
# 3 33.8271 50.6855 150.9131 0.0000 0.0000 0.0000
# 4 0.0000 0.0000 0.0000 18.7641 0.0000 0.0000
# 5 0.0000 0.0000 0.0000 0.0000 33.8076 0.0000
# 6 0.0000 0.0000 0.0000 0.0000 0.0000 18.3446
#
#
#
# Elastic Compliance Matrix: (Units=1/GPa)
#
#
# Indices 1 2 3 4 5 6 
#
# 1 0.009566 -0.000707 -0.001907 0.000000 0.000000 0.000000
# 2 -0.000707 0.011479 -0.003697 0.000000 0.000000 0.000000
# 3 -0.001907 -0.003697 0.008295 0.000000 0.000000 0.000000
# 4 0.000000 0.000000 0.000000 0.053293 0.000000 0.000000
# 5 0.000000 0.000000 0.000000 0.000000 0.029579 0.000000
# 6 0.000000 0.000000 0.000000 0.000000 0.000000 0.054512
#
#
# Mechanical properties :
#
#
# Convention : Reuss Voigt Hill
#
# Bulk Modulus (GPa) = 59.81245 63.63720 61.72482
# Shear Modulus (GPa) = 27.03871 31.89651 29.46761
#
# Velocity S-wave (km/s) = 3.42527 3.72026 3.57581
# Velocity P-wave (km/s) = 6.44955 6.78725 6.62055
#
# Compressibility (1/GPa) = 0.01671893
#
# Stress axis : x y z
#
# Youngs Moduli (GPa) = 104.53511 87.11287 120.54974
#
# Poissons Ratio (x) = 0.06163 0.22985
# Poissons Ratio (y) = 0.07395 0.44566
# Poissons Ratio (z) = 0.19931 0.32204
#
# Static dielectric constant tensor:
#      x y z
#    x 2.020710 0.000000 0.000000 
#    y 0.000000 1.881640 0.000000 
#    z 0.000000 0.000000 2.057800 
# 
# From -- ./inp_files/19105.got.cif
#   From: 2010.05.17/outbox.cif.g08.bks.cpg/sg24_10_cif.got.tgz:19105.got - 2010.06.04 00:33:39.
