data_PCOD9334150
_publ_section_title
;
Structure prediction by ZEFSAII (Michael W. Deem and Ramdas Pophale) SiO2 
 PCOD9334150
Probable space group: I 21 21 21
;
_chemical_formula_sum "Si O2"
_cell_formula_units_Z 48
_cell_length_a 17.644943
_cell_length_b 9.138172
_cell_length_c 15.191096
_cell_angle_alpha 90.000000
_cell_angle_beta 90.000000
_cell_angle_gamma 90.000000
_cell_volume 2449.450662
_symmetry_space_group_name_H-M "I 21 21 21"
_symmetry_group_IT_number 24
_symmetry_cell_setting 'orthorhombic'
loop_
_space_group_symop_operation_xyz
x,y,z
-x,1/2-y,z
x,-y,1/2-z
1/2-x,y,-z
1/2+x,1/2+y,1/2+z
1/2-x,-y,1/2+z
1/2+x,1/2-y,-z
-x,1/2+y,1/2-z
loop_
_atom_site_type_symbol
_atom_site_label
_atom_site_fract_x
_atom_site_fract_y
_atom_site_fract_z
Si Si1 0.378569 0.422237 0.160684
Si Si2 0.916439 0.926160 0.021361
Si Si3 0.377534 0.075739 0.158936
Si Si4 0.285267 0.616407 0.596504
Si Si5 0.695533 0.568029 0.656215
Si Si6 0.085106 0.080056 0.480320
O O1 0.403748 0.500000 0.250000
O O2 0.412076 0.496492 0.073822
O O3 0.394099 0.248721 0.161294
O O4 0.287280 0.439005 0.150222
O O5 0.903972 0.753522 0.009595
O O6 0.001058 0.946891 0.058339
O O7 0.849994 0.998037 0.078800
O O8 0.286562 0.055151 0.149049
O O9 0.400764 0.000000 0.250000
O O10 0.412468 0.998120 0.074609
O O11 0.250000 0.658934 0.500000
O O12 0.318942 0.759539 0.642873
O O13 0.673477 0.500000 0.750000
O O14 0.650566 0.484749 0.580434
#
# Coordination Sequence:
#
# PCOD9334150 Si02
#       6
#     8   8   8   8   8   8
#     4  10  20  36  58  86 114 142 182 231 280 334
#     4  10  23  37  55  81 113 152 188 225 280 332
#     4  10  21  36  60  88 112 145 186 228 279 334
#     4   9  19  37  58  83 111 145 184 227 281 334
#     4  10  21  37  58  84 110 143 190 234 277 331
#     4  11  22  39  56  80 116 151 188 231 275 331
#
# _framework density 19.596231
#
# number of rings (size 3 to 8) (size 9 to 14) (size 15 to 20)
#    0.000    2.000    0.000    4.500    0.000   11.333 
#    0.000    4.167    0.000    0.000    0.000    0.000 
#    0.000    0.000    0.000    0.000    0.000    0.000 
#
# Total GULP energy -134076.990945 kJ/mol
# GULP energy per Si atom -5586.541289 kJ/mol
# Density = 1.955163 g / cm^3
# Si number density = 19.596231 Si / 1000 Ang^3
#
#
#
# Elastic Constant Matrix: (Units=GPa)
#
#
# Indices 1 2 3 4 5 6 
#
# 1 57.2040 66.7592 23.2889 0.0000 0.0000 0.0000
# 2 66.7592 113.2202 31.1162 0.0000 0.0000 0.0000
# 3 23.2889 31.1162 51.9754 0.0000 0.0000 0.0000
# 4 0.0000 0.0000 0.0000 33.2343 0.0000 0.0000
# 5 0.0000 0.0000 0.0000 0.0000 1.6538 0.0000
# 6 0.0000 0.0000 0.0000 0.0000 0.0000 6.5461
#
#
#
# Elastic Compliance Matrix: (Units=1/GPa)
#
#
# Indices 1 2 3 4 5 6 
#
# 1 0.057878 -0.032317 -0.006586 0.000000 0.000000 0.000000
# 2 -0.032317 0.028617 -0.002651 0.000000 0.000000 0.000000
# 3 -0.006586 -0.002651 0.023778 0.000000 0.000000 0.000000
# 4 0.000000 0.000000 0.000000 0.030089 0.000000 0.000000
# 5 0.000000 0.000000 0.000000 0.000000 0.604672 0.000000
# 6 0.000000 0.000000 0.000000 0.000000 0.000000 0.152763
#
#
# Mechanical properties :
#
#
# Convention : Reuss Voigt Hill
#
# Bulk Modulus (GPa) = 36.81460 51.63648 44.22554
# Shear Modulus (GPa) = 5.05070 15.03586 10.04328
#
# Velocity S-wave (km/s) = 1.60716 2.77299 2.26633
# Velocity P-wave (km/s) = 4.71925 6.05476 5.42823
#
# Compressibility (1/GPa) = 0.02716313
#
# Stress axis : x y z
#
# Youngs Moduli (GPa) = 17.27770 34.94484 42.05500
#
# Poissons Ratio (x) = 1.12932 0.27699
# Poissons Ratio (y) = 0.55837 0.11150
# Poissons Ratio (z) = 0.11380 0.09265
#
# Static dielectric constant tensor:
#      x y z
#    x 1.699400 0.000000 0.000000 
#    y 0.000000 1.660180 0.000000 
#    z 0.000000 0.000000 1.668240 
# 
# From -- ./inp_files/12774.got.cif
#   From: 2010.05.17/outbox.cif.g08.bks.cpg/sg24_7_cif.got.tgz:12774.got - 2010.06.04 00:33:39.
