data_PCOD9334162
_publ_section_title
;
Structure prediction by ZEFSAII (Michael W. Deem and Ramdas Pophale) SiO2 
 PCOD9334162
Probable space group: I 21 21 21
;
_chemical_formula_sum "Si O2"
_cell_formula_units_Z 48
_cell_length_a 16.403477
_cell_length_b 8.658189
_cell_length_c 14.403814
_cell_angle_alpha 90.000000
_cell_angle_beta 90.000000
_cell_angle_gamma 90.000000
_cell_volume 2045.693100
_symmetry_space_group_name_H-M "I 21 21 21"
_symmetry_group_IT_number 24
_symmetry_cell_setting 'orthorhombic'
loop_
_space_group_symop_operation_xyz
x,y,z
-x,1/2-y,z
x,-y,1/2-z
1/2-x,y,-z
1/2+x,1/2+y,1/2+z
1/2-x,-y,1/2+z
1/2+x,1/2-y,-z
-x,1/2+y,1/2-z
loop_
_atom_site_type_symbol
_atom_site_label
_atom_site_fract_x
_atom_site_fract_y
_atom_site_fract_z
Si Si1 0.772705 0.346214 0.103287
Si Si2 0.424164 0.052392 0.645422
Si Si3 0.887280 0.457680 0.651743
Si Si4 0.840376 0.902934 0.844453
Si Si5 0.974097 0.931729 0.983760
Si Si6 0.334474 0.343240 0.715041
O O1 0.850082 0.460330 0.096961
O O2 0.695845 0.449556 0.135010
O O3 0.796223 0.238334 0.191674
O O4 0.750000 0.283005 0.000000
O O5 0.504936 0.019518 0.587203
O O6 0.391715 0.227313 0.658478
O O7 0.432567 0.000000 0.750000
O O8 0.923587 0.500000 0.750000
O O9 0.869151 0.275243 0.657660
O O10 0.954784 0.504006 0.578274
O O11 0.742839 0.891957 0.847872
O O12 0.859479 0.000000 0.750000
O O13 0.888675 0.965234 0.934452
O O14 0.000000 0.750000 0.981636
O O15 0.374397 0.500000 0.750000
#
# Coordination Sequence:
#
# PCOD9334162 Si02
#       6
#     8   8   8   8   8   8
#     4  11  19  35  63  99 124 164 217 268 319 379
#     4  10  20  39  67  93 121 171 225 271 312 380
#     4  11  18  34  59  88 125 161 207 255 308 382
#     4  10  20  36  58  94 137 165 203 263 336 385
#     4  10  22  36  58  92 125 168 218 260 316 388
#     4  10  21  39  65  95 131 166 209 273 337 379
#
# _framework density 23.463930000000001
#
# number of rings (size 3 to 8) (size 9 to 14) (size 15 to 20)
#    0.000    1.667    5.000    1.000    0.000    0.000 
#    0.000    8.333    0.000   14.000    0.000    0.000 
#    0.000    0.000    0.000    0.000    0.000    0.000 
#
# Total GULP energy -134036.077574 kJ/mol
# GULP energy per Si atom -5584.836566 kJ/mol
# Density = 2.341052 g / cm^3
# Si number density = 23.463930 Si / 1000 Ang^3
#
#
#
# Elastic Constant Matrix: (Units=GPa)
#
#
# Indices 1 2 3 4 5 6 
#
# 1 92.1974 25.2857 68.7816 0.0000 0.0000 0.0000
# 2 25.2857 57.6227 3.5395 0.0000 0.0000 0.0000
# 3 68.7816 3.5395 136.9891 0.0000 0.0000 0.0000
# 4 0.0000 0.0000 0.0000 18.4502 0.0000 0.0000
# 5 0.0000 0.0000 0.0000 0.0000 28.9860 0.0000
# 6 0.0000 0.0000 0.0000 0.0000 0.0000 4.5044
#
#
#
# Elastic Compliance Matrix: (Units=1/GPa)
#
#
# Indices 1 2 3 4 5 6 
#
# 1 0.020809 -0.008503 -0.010228 0.000000 0.000000 0.000000
# 2 -0.008503 0.020856 0.003730 0.000000 0.000000 0.000000
# 3 -0.010228 0.003730 0.012339 0.000000 0.000000 0.000000
# 4 0.000000 0.000000 0.000000 0.054200 0.000000 0.000000
# 5 0.000000 0.000000 0.000000 0.000000 0.034499 0.000000
# 6 0.000000 0.000000 0.000000 0.000000 0.000000 0.222003
#
#
# Mechanical properties :
#
#
# Convention : Reuss Voigt Hill
#
# Bulk Modulus (GPa) = 41.66230 53.55809 47.61019
# Shear Modulus (GPa) = 12.41590 23.00162 17.70876
#
# Velocity S-wave (km/s) = 2.30282 3.13437 2.75020
# Velocity P-wave (km/s) = 4.98649 5.99786 5.51540
#
# Compressibility (1/GPa) = 0.02400252
#
# Stress axis : x y z
#
# Youngs Moduli (GPa) = 48.05638 47.94701 81.04339
#
# Poissons Ratio (x) = 0.40769 0.82894
# Poissons Ratio (y) = 0.40862 -0.30233
# Poissons Ratio (z) = 0.49154 -0.17886
#
# Static dielectric constant tensor:
#      x y z
#    x 1.870670 0.000000 0.000000 
#    y 0.000000 1.957510 0.000000 
#    z 0.000000 0.000000 1.927630 
# 
# From -- ./inp_files/24925.got.cif
#   From: 2010.05.17/outbox.cif.g08.bks.cpg/sg24_13_cif.got.tgz:24925.got - 2010.06.04 00:33:39.
