data_PCOD9334303
_publ_section_title
;
Structure prediction by ZEFSAII (Michael W. Deem and Ramdas Pophale) SiO2 
 PCOD9334303
Probable space group: I 21 21 21
;
_chemical_formula_sum "Si O2"
_cell_formula_units_Z 48
_cell_length_a 29.022144
_cell_length_b 10.042589
_cell_length_c 8.871954
_cell_angle_alpha 90.000000
_cell_angle_beta 90.000000
_cell_angle_gamma 90.000000
_cell_volume 2585.797214
_symmetry_space_group_name_H-M "I 21 21 21"
_symmetry_group_IT_number 24
_symmetry_cell_setting 'orthorhombic'
loop_
_space_group_symop_operation_xyz
x,y,z
-x,1/2-y,z
x,-y,1/2-z
1/2-x,y,-z
1/2+x,1/2+y,1/2+z
1/2-x,-y,1/2+z
1/2+x,1/2-y,-z
-x,1/2+y,1/2-z
loop_
_atom_site_type_symbol
_atom_site_label
_atom_site_fract_x
_atom_site_fract_y
_atom_site_fract_z
Si Si1 0.797568 0.759323 0.930294
Si Si2 0.843872 0.508433 0.067961
Si Si3 0.865136 0.006428 0.570305
Si Si4 0.198722 0.742803 0.567640
Si Si5 0.056682 0.097768 0.395866
Si Si6 0.954380 0.086634 0.401109
O O1 0.809388 0.619402 0.005711
O O2 0.837655 0.861128 0.972837
O O3 0.796242 0.750094 0.749146
O O4 0.750000 0.809844 0.000000
O O5 0.658478 0.500000 0.750000
O O6 0.827759 0.370992 0.995665
O O7 0.896041 0.552874 0.024292
O O8 0.915560 0.019758 0.502670
O O9 0.868566 0.000000 0.750000
O O10 0.833326 0.882386 0.524441
O O11 0.250000 0.733264 0.500000
O O12 0.057978 0.257767 0.366222
O O13 0.006135 0.080269 0.469250
O O14 0.055748 0.000000 0.250000
O O15 0.955132 0.000000 0.250000
#
# Coordination Sequence:
#
# PCOD9334303 Si02
#       6
#     8   8   8   8   8   8
#     4  11  22  40  61  83 115 154 196 243 295 350
#     4  11  22  38  60  87 118 154 195 241 291 351
#     4  10  23  40  59  86 120 153 193 243 297 350
#     4  11  24  40  59  86 119 154 195 244 292 351
#     4   9  20  37  60  92 122 151 197 245 291 345
#     4  10  20  37  65  89 119 157 198 245 292 344
#
# _framework density 18.562940999999999
#
# number of rings (size 3 to 8) (size 9 to 14) (size 15 to 20)
#    0.000    1.667    1.667    2.500    4.667    1.333 
#    0.000    1.667    0.000    0.000    0.000    0.000 
#    0.000    0.000    0.000    0.000    0.000    0.000 
#
# Total GULP energy -133846.596464 kJ/mol
# GULP energy per Si atom -5576.941519 kJ/mol
# Density = 1.852069 g / cm^3
# Si number density = 18.562941 Si / 1000 Ang^3
#
#
#
# Elastic Constant Matrix: (Units=GPa)
#
#
# Indices 1 2 3 4 5 6 
#
# 1 136.3252 27.4050 25.8206 0.0000 0.0000 0.0000
# 2 27.4050 99.5262 20.0645 0.0000 0.0000 0.0000
# 3 25.8206 20.0645 33.4164 0.0000 0.0000 0.0000
# 4 0.0000 0.0000 0.0000 12.7467 0.0000 0.0000
# 5 0.0000 0.0000 0.0000 0.0000 25.1991 0.0000
# 6 0.0000 0.0000 0.0000 0.0000 0.0000 27.3973
#
#
#
# Elastic Compliance Matrix: (Units=1/GPa)
#
#
# Indices 1 2 3 4 5 6 
#
# 1 0.008714 -0.001186 -0.006022 0.000000 0.000000 0.000000
# 2 -0.001186 0.011593 -0.006045 0.000000 0.000000 0.000000
# 3 -0.006022 -0.006045 0.038208 0.000000 0.000000 0.000000
# 4 0.000000 0.000000 0.000000 0.078452 0.000000 0.000000
# 5 0.000000 0.000000 0.000000 0.000000 0.039684 0.000000
# 6 0.000000 0.000000 0.000000 0.000000 0.000000 0.036500
#
#
# Mechanical properties :
#
#
# Convention : Reuss Voigt Hill
#
# Bulk Modulus (GPa) = 31.23917 46.20533 38.72225
# Shear Modulus (GPa) = 19.97410 26.13380 23.05395
#
# Velocity S-wave (km/s) = 3.28383 3.75620 3.52793
# Velocity P-wave (km/s) = 5.58958 6.61493 6.12375
#
# Compressibility (1/GPa) = 0.03201110
#
# Stress axis : x y z
#
# Youngs Moduli (GPa) = 114.75473 86.26148 26.17272
#
# Poissons Ratio (x) = 0.10227 0.15760
# Poissons Ratio (y) = 0.13605 0.15820
# Poissons Ratio (z) = 0.69100 0.52142
#
# Static dielectric constant tensor:
#      x y z
#    x 1.688190 0.000000 0.000000 
#    y 0.000000 1.654060 0.000000 
#    z 0.000000 0.000000 1.632390 
# 
# From -- ./inp_files/16810.got.cif
#   From: 2010.05.17/outbox.cif.g08.bks.cpg/sg24_9_cif.got.tgz:16810.got - 2010.06.04 00:33:39.
