data_PCOD9334986
_publ_section_title
;
Structure prediction by ZEFSAII (Michael W. Deem and Ramdas Pophale) SiO2 
 PCOD9334986
Probable space group: I 21 21 21
;
_chemical_formula_sum "Si O2"
_cell_formula_units_Z 56
_cell_length_a 8.673215
_cell_length_b 20.741664
_cell_length_c 15.147166
_cell_angle_alpha 90.000000
_cell_angle_beta 90.000000
_cell_angle_gamma 90.000000
_cell_volume 2724.928379
_symmetry_space_group_name_H-M "I 21 21 21"
_symmetry_group_IT_number 24
_symmetry_cell_setting 'orthorhombic'
loop_
_space_group_symop_operation_xyz
x,y,z
-x,1/2-y,z
x,-y,1/2-z
1/2-x,y,-z
1/2+x,1/2+y,1/2+z
1/2-x,-y,1/2+z
1/2+x,1/2-y,-z
-x,1/2+y,1/2-z
loop_
_atom_site_type_symbol
_atom_site_label
_atom_site_fract_x
_atom_site_fract_y
_atom_site_fract_z
Si Si1 0.565828 0.924011 0.480856
Si Si2 0.948339 0.924100 0.725861
Si Si3 0.614205 0.309388 0.733917
Si Si4 0.536342 0.436491 0.538428
Si Si5 0.384677 0.809646 0.569755
Si Si6 0.612048 0.926880 0.786107
Si Si7 0.672290 0.619943 0.123405
O O1 0.750000 0.924656 0.500000
O O2 0.534650 0.909938 0.377613
O O3 0.481846 0.873659 0.545414
O O4 0.493685 0.994321 0.496808
O O5 0.776820 0.902967 0.753149
O O6 0.077735 0.895748 0.789182
O O7 0.950320 0.000000 0.750000
O O8 0.500000 0.250000 0.720034
O O9 0.683984 0.304794 0.831621
O O10 0.516053 0.375495 0.741109
O O11 0.730279 0.317679 0.652147
O O12 0.398873 0.427216 0.607769
O O13 0.560944 0.383855 0.461333
O O14 0.694775 0.431914 0.595665
O O15 0.500000 0.750000 0.560902
O O16 0.250000 0.804904 0.500000
O O17 0.586124 0.000000 0.750000
#
# Coordination Sequence:
#
# PCOD9334986 Si02
#       7
#     8   8   8   8   8   8   8
#     4  12  23  38  61  94 132 173 217 272 338 404
#     4  11  21  36  59  94 131 162 216 269 327 399
#     4  10  22  43  65  88 127 177 224 269 332 406
#     4  10  22  38  60  89 128 163 212 269 337 392
#     4  11  24  40  61  90 130 177 224 273 335 404
#     4  10  21  39  63  94 125 171 213 273 337 397
#     4  10  22  39  59  92 124 164 213 274 321 391
#
# _framework density 20.550999000000001
#
# number of rings (size 3 to 8) (size 9 to 14) (size 15 to 20)
#    0.000    1.429    1.429    4.714    2.000    4.571 
#    0.000    0.714    0.000   20.571    0.000    0.000 
#    0.000    0.000    0.000    0.000    0.000    0.000 
#
# Total GULP energy -156229.288949 kJ/mol
# GULP energy per Si atom -5579.617462 kJ/mol
# Density = 2.050422 g / cm^3
# Si number density = 20.550999 Si / 1000 Ang^3
#
#
#
# Elastic Constant Matrix: (Units=GPa)
#
#
# Indices 1 2 3 4 5 6 
#
# 1 23.4010 7.4596 32.4794 0.0000 0.0000 0.0000
# 2 7.4596 46.2042 38.4742 -0.0001 0.0000 0.0000
# 3 32.4794 38.4742 153.8059 -0.0001 0.0000 0.0000
# 4 0.0000 -0.0001 -0.0001 -7.5335 0.0000 0.0000
# 5 0.0000 0.0000 0.0000 0.0000 33.3832 0.0000
# 6 0.0000 0.0000 0.0000 0.0000 0.0000 12.0735
#
#
#
# Elastic Compliance Matrix: (Units=1/GPa)
#
#
# Indices 1 2 3 4 5 6 
#
# 1 0.060496 0.001100 -0.013050 0.000000 0.000000 0.000000
# 2 0.001100 0.027357 -0.007076 0.000000 0.000000 0.000000
# 3 -0.013050 -0.007076 0.011027 0.000000 0.000000 0.000000
# 4 0.000000 0.000000 0.000000 -0.132740 0.000000 0.000000
# 5 0.000000 0.000000 0.000000 0.000000 0.029955 0.000000
# 6 0.000000 0.000000 0.000000 0.000000 0.000000 0.082826
#
#
# Mechanical properties :
#
#
# Convention : Reuss Voigt Hill
#
# Bulk Modulus (GPa) = 16.43959 42.24860 29.34409
# Shear Modulus (GPa) = 36.43014 17.25117 26.84066
#
# Velocity S-wave (km/s) = 4.21488 2.90044 3.61785
# Velocity P-wave (km/s) = 5.63060 5.64086 5.63573
#
# Compressibility (1/GPa) = 0.06082877
#
# Stress axis : x y z
#
# Youngs Moduli (GPa) = 16.53015 36.55317 90.68259
#
# Poissons Ratio (x) = -0.04021 1.18342
# Poissons Ratio (y) = -0.01818 0.64164
# Poissons Ratio (z) = 0.21572 0.25864
#
# Static dielectric constant tensor:
#      x y z
#    x 1.774370 0.000000 0.000000 
#    y 0.000000 1.708410 0.000000 
#    z 0.000000 0.000000 1.781390 
# 
# From -- ./inp_files/25060.got.cif
#   From: 2010.05.17/outbox.cif.g08.bks.cpg/sg24_13_cif.got.tgz:25060.got - 2010.06.04 00:33:39.
