data_PCOD9334067
_publ_section_title
;
Structure prediction by ZEFSAII (Michael W. Deem and Ramdas Pophale) SiO2 
 PCOD9334067
Probable space group: I 21 21 21
;
_chemical_formula_sum "Si O2"
_cell_formula_units_Z 64
_cell_length_a 23.366114
_cell_length_b 9.348884
_cell_length_c 15.791097
_cell_angle_alpha 90.000000
_cell_angle_beta 90.000000
_cell_angle_gamma 90.000000
_cell_volume 3449.519177
_symmetry_space_group_name_H-M "I 21 21 21"
_symmetry_group_IT_number 24
_symmetry_cell_setting 'orthorhombic'
loop_
_space_group_symop_operation_xyz
x,y,z
-x,1/2-y,z
x,-y,1/2-z
1/2-x,y,-z
1/2+x,1/2+y,1/2+z
1/2-x,-y,1/2+z
1/2+x,1/2-y,-z
-x,1/2+y,1/2-z
loop_
_atom_site_type_symbol
_atom_site_label
_atom_site_fract_x
_atom_site_fract_y
_atom_site_fract_z
Si Si1 0.490489 0.582619 0.333239
Si Si2 0.081873 0.317963 0.464239
Si Si3 0.975530 0.492995 0.479032
Si Si4 0.633671 0.021295 0.388486
Si Si5 0.379852 0.875688 0.635424
Si Si6 0.692433 0.853306 0.534083
Si Si7 0.758946 0.081863 0.333551
Si Si8 0.654326 0.686633 0.823395
O O1 0.500000 0.750000 0.319121
O O2 0.512722 0.500000 0.250000
O O3 0.519955 0.545621 0.423894
O O4 0.423503 0.536577 0.343565
O O5 0.052096 0.164833 0.476886
O O6 0.115210 0.349652 0.550272
O O7 0.119935 0.295647 0.382348
O O8 0.039959 0.453347 0.450938
O O9 0.939203 0.592384 0.415017
O O10 0.655755 0.901617 0.453823
O O11 0.690102 0.070172 0.338328
O O12 0.344605 0.753365 0.589094
O O13 0.378715 0.830155 0.734121
O O14 0.347396 0.029046 0.636024
O O15 0.750000 0.780176 0.500000
O O16 0.715078 0.991937 0.587136
O O17 0.783152 0.241896 0.322526
O O18 0.779130 0.000000 0.250000
#
# Coordination Sequence:
#
# PCOD9334067 Si02
#       8
#     8   8   8   8   8   8   8   8
#     4  11  24  40  65  91 121 159 201 256 313 370
#     4   9  18  36  62  88 116 155 201 251 299 367
#     4   9  20  38  63  82 124 158 196 246 311 366
#     4  10  21  36  62  87 119 153 210 247 308 371
#     4  10  20  38  60  82 124 161 192 250 309 362
#     4  10  20  35  57  83 113 153 198 243 297 358
#     4  11  20  36  58  85 116 156 201 259 295 363
#     4  10  20  35  62  87 119 156 202 249 303 362
#
# _framework density 18.55331
#
# number of rings (size 3 to 8) (size 9 to 14) (size 15 to 20)
#    0.000    2.000    2.500    1.125    3.500    0.000 
#    4.500    0.000   63.250    0.000    0.000    0.000 
#    0.000    0.000    0.000    0.000    0.000    0.000 
#
# Total GULP energy -178196.321205 kJ/mol
# GULP energy per Si atom -5568.635038 kJ/mol
# Density = 1.851108 g / cm^3
# Si number density = 18.553310 Si / 1000 Ang^3
#
#
#
# Elastic Constant Matrix: (Units=GPa)
#
#
# Indices 1 2 3 4 5 6 
#
# 1 64.2563 29.1591 32.9208 0.0000 0.0000 0.0000
# 2 29.1591 46.8584 24.9039 0.0000 0.0000 0.0000
# 3 32.9208 24.9039 76.0681 0.0000 0.0000 0.0000
# 4 0.0000 0.0000 0.0000 -27.8759 0.0000 0.0000
# 5 0.0000 0.0000 0.0000 0.0000 24.5201 0.0000
# 6 0.0000 0.0000 0.0000 0.0000 0.0000 16.6255
#
#
#
# Elastic Compliance Matrix: (Units=1/GPa)
#
#
# Indices 1 2 3 4 5 6 
#
# 1 0.024225 -0.011505 -0.006718 0.000000 0.000000 0.000000
# 2 -0.011505 0.031300 -0.005268 0.000000 0.000000 0.000000
# 3 -0.006718 -0.005268 0.017778 0.000000 0.000000 0.000000
# 4 0.000000 0.000000 0.000000 -0.035873 0.000000 0.000000
# 5 0.000000 0.000000 0.000000 0.000000 0.040783 0.000000
# 6 0.000000 0.000000 0.000000 0.000000 0.000000 0.060149
#
#
# Mechanical properties :
#
#
# Convention : Reuss Voigt Hill
#
# Bulk Modulus (GPa) = 37.99090 40.12782 39.05936
# Shear Modulus (GPa) = 25.75772 9.33386 17.54579
#
# Velocity S-wave (km/s) = 3.73004 2.24539 3.07855
# Velocity P-wave (km/s) = 6.25076 5.32895 5.80817
#
# Compressibility (1/GPa) = 0.02632209
#
# Stress axis : x y z
#
# Youngs Moduli (GPa) = 41.27954 31.94898 56.24875
#
# Poissons Ratio (x) = 0.36756 0.37786
# Poissons Ratio (y) = 0.47490 0.29634
# Poissons Ratio (z) = 0.27730 0.16832
#
# Static dielectric constant tensor:
#      x y z
#    x 1.699630 0.000000 0.000000 
#    y 0.000000 1.645600 0.000000 
#    z 0.000000 0.000000 1.662390 
# 
# From -- ./inp_files/27900.got.cif
#   From: 2010.05.17/outbox.cif.g08.bks.cpg/sg24_14_cif.got.tgz:27900.got - 2010.06.04 00:33:39.
