data_PCOD9334196
_publ_section_title
;
Structure prediction by ZEFSAII (Michael W. Deem and Ramdas Pophale) SiO2 
 PCOD9334196
Probable space group: I 21 21 21
;
_chemical_formula_sum "Si O2"
_cell_formula_units_Z 40
_cell_length_a 10.929322
_cell_length_b 5.362628
_cell_length_c 30.106767
_cell_angle_alpha 90.000000
_cell_angle_beta 90.000000
_cell_angle_gamma 90.000000
_cell_volume 1764.554247
_symmetry_space_group_name_H-M "I 21 21 21"
_symmetry_group_IT_number 24
_symmetry_cell_setting 'orthorhombic'
loop_
_space_group_symop_operation_xyz
x,y,z
-x,1/2-y,z
x,-y,1/2-z
1/2-x,y,-z
1/2+x,1/2+y,1/2+z
1/2-x,-y,1/2+z
1/2+x,1/2-y,-z
-x,1/2+y,1/2-z
loop_
_atom_site_type_symbol
_atom_site_label
_atom_site_fract_x
_atom_site_fract_y
_atom_site_fract_z
Si Si1 0.572202 0.993924 0.571977
Si Si2 0.268558 0.491890 0.849227
Si Si3 0.716005 0.000000 0.250000
Si Si4 0.750000 0.882121 0.000000
Si Si5 0.000000 0.750000 0.948942
Si Si6 0.114604 0.998931 0.631843
Si Si7 0.500000 0.750000 0.208768
O O1 0.500000 0.750000 0.558441
O O2 0.607254 0.984623 0.623379
O O3 0.500000 0.250000 0.564745
O O4 0.695162 0.984170 0.542916
O O5 0.284997 0.468473 0.796220
O O6 0.202545 0.755253 0.862218
O O7 0.191720 0.251328 0.865167
O O8 0.618959 0.783160 0.238362
O O9 0.623548 0.767776 0.021135
O O10 0.037911 0.965666 0.913441
O O11 0.024706 0.026896 0.674168
#
# Coordination Sequence:
#
# PCOD9334196 Si02
#       7
#     8   8   4   4   4   8   4
#     4  12  28  50  74 105 144 189 245 306 368 441
#     4  11  23  43  70 100 143 187 240 293 367 427
#     4  10  20  36  62 102 138 186 236 294 354 438
#     4  12  26  50  80 112 146 196 248 318 372 454
#     4  11  24  44  76 110 154 190 254 298 383 442
#     4  10  22  40  67 101 143 186 228 302 362 437
#     4   9  18  32  58  98 140 178 230 292 361 416
#
# _framework density 22.668613000000001
#
# number of rings (size 3 to 8) (size 9 to 14) (size 15 to 20)
#    0.000    1.200    3.000    2.400    0.000   11.200 
#    0.000    1.000    0.000    0.000    0.000    0.000 
#    0.000    0.000    0.000    0.000    0.000    0.000 
#
# Total GULP energy -111553.284661 kJ/mol
# GULP energy per Si atom -5577.664233 kJ/mol
# Density = 2.261702 g / cm^3
# Si number density = 22.668613 Si / 1000 Ang^3
#
#
#
# Elastic Constant Matrix: (Units=GPa)
#
#
# Indices 1 2 3 4 5 6 
#
# 1 97.1521 43.4497 52.0813 0.0000 0.0000 0.0000
# 2 43.4497 149.9371 20.4708 0.0000 0.0000 0.0000
# 3 52.0813 20.4708 175.8421 0.0000 0.0000 0.0000
# 4 0.0000 0.0000 0.0000 20.4297 0.0000 0.0000
# 5 0.0000 0.0000 0.0000 0.0000 17.3142 0.0000
# 6 0.0000 0.0000 0.0000 0.0000 0.0000 28.0253
#
#
#
# Elastic Compliance Matrix: (Units=1/GPa)
#
#
# Indices 1 2 3 4 5 6 
#
# 1 0.013840 -0.003507 -0.003691 0.000000 0.000000 0.000000
# 2 -0.003507 0.007666 0.000146 0.000000 0.000000 0.000000
# 3 -0.003691 0.000146 0.006763 0.000000 0.000000 0.000000
# 4 0.000000 0.000000 0.000000 0.048948 0.000000 0.000000
# 5 0.000000 0.000000 0.000000 0.000000 0.057756 0.000000
# 6 0.000000 0.000000 0.000000 0.000000 0.000000 0.035682
#
#
# Mechanical properties :
#
#
# Convention : Reuss Voigt Hill
#
# Bulk Modulus (GPa) = 70.59174 72.77054 71.68114
# Shear Modulus (GPa) = 26.38797 33.61581 30.00189
#
# Velocity S-wave (km/s) = 3.41556 3.85505 3.64194
# Velocity P-wave (km/s) = 6.83835 7.21019 7.02673
#
# Compressibility (1/GPa) = 0.01416596
#
# Stress axis : x y z
#
# Youngs Moduli (GPa) = 72.25368 130.45107 147.86137
#
# Poissons Ratio (x) = 0.45746 0.54575
# Poissons Ratio (y) = 0.25338 -0.02162
# Poissons Ratio (z) = 0.26669 -0.01908
#
# Static dielectric constant tensor:
#      x y z
#    x 1.864360 0.000000 0.000000 
#    y 0.000000 2.275040 0.000000 
#    z 0.000000 0.000000 1.898600 
# 
# From -- ./inp_files/38530.got.cif
#   From: 2010.05.17/outbox.cif.g08.bks.cpg/sg24_20_cif.got.tgz:38530.got - 2010.06.04 00:33:39.
