data_PCOD9334239
_publ_section_title
;
Structure prediction by ZEFSAII (Michael W. Deem and Ramdas Pophale) SiO2 
 PCOD9334239
Probable space group: I 21 21 21
;
_chemical_formula_sum "Si O2"
_cell_formula_units_Z 40
_cell_length_a 20.791296
_cell_length_b 4.854193
_cell_length_c 16.037046
_cell_angle_alpha 90.000000
_cell_angle_beta 90.000000
_cell_angle_gamma 90.000000
_cell_volume 1618.538282
_symmetry_space_group_name_H-M "I 21 21 21"
_symmetry_group_IT_number 24
_symmetry_cell_setting 'orthorhombic'
loop_
_space_group_symop_operation_xyz
x,y,z
-x,1/2-y,z
x,-y,1/2-z
1/2-x,y,-z
1/2+x,1/2+y,1/2+z
1/2-x,-y,1/2+z
1/2+x,1/2-y,-z
-x,1/2+y,1/2-z
loop_
_atom_site_type_symbol
_atom_site_label
_atom_site_fract_x
_atom_site_fract_y
_atom_site_fract_z
Si Si1 0.587557 0.944277 0.340933
Si Si2 0.652384 0.231362 0.593444
Si Si3 0.433026 0.184923 0.880565
Si Si4 0.923201 0.415453 0.550278
Si Si5 0.275154 0.271379 0.306900
O O1 0.554645 0.127346 0.411273
O O2 0.658527 0.079009 0.332828
O O3 0.557942 0.000000 0.250000
O O4 0.586014 0.635426 0.375453
O O5 0.612148 0.441107 0.652218
O O6 0.643015 0.337885 0.498777
O O7 0.725837 0.261305 0.618544
O O8 0.614465 0.941888 0.601887
O O9 0.500000 0.250000 0.835622
O O10 0.455871 0.045925 0.968993
O O11 0.240322 0.500000 0.250000
O O12 0.286766 0.000000 0.250000
#
# Coordination Sequence:
#
# PCOD9334239 Si02
#       5
#     8   8   8   8   8
#     4  11  21  37  55  83 120 158 184 222 285 347
#     4  10  21  38  59  90 109 152 195 243 281 338
#     4  10  20  38  62  86 110 146 192 247 304 335
#     4  10  20  37  57  88 108 150 193 240 277 331
#     4  11  23  39  58  83 123 163 187 223 289 353
#
# _framework density 24.713654999999999
#
# number of rings (size 3 to 8) (size 9 to 14) (size 15 to 20)
#    1.200    0.400    2.000    4.800    0.000    0.800 
#    3.600    0.000    0.000   14.400    0.000    0.000 
#    0.000    0.000    0.000    0.000    0.000    0.000 
#
# Total GULP energy -111506.567556 kJ/mol
# GULP energy per Si atom -5575.328378 kJ/mol
# Density = 2.465741 g / cm^3
# Si number density = 24.713655 Si / 1000 Ang^3
#
#
#
# Elastic Constant Matrix: (Units=GPa)
#
#
# Indices 1 2 3 4 5 6 
#
# 1 62.2278 -16.9292 -28.2695 0.0000 0.0000 0.0000
# 2 -16.9292 132.6396 -9.4192 0.0000 0.0000 0.0000
# 3 -28.2695 -9.4192 45.8151 0.0000 0.0000 0.0000
# 4 0.0000 0.0000 0.0000 16.0457 0.0000 0.0000
# 5 0.0000 0.0000 0.0000 0.0000 8.0801 0.0000
# 6 0.0000 0.0000 0.0000 0.0000 0.0000 29.2065
#
#
#
# Elastic Compliance Matrix: (Units=1/GPa)
#
#
# Indices 1 2 3 4 5 6 
#
# 1 0.024493 0.004262 0.015989 0.000000 0.000000 0.000000
# 2 0.004262 0.008392 0.004355 0.000000 0.000000 0.000000
# 3 0.015989 0.004355 0.032588 0.000000 0.000000 0.000000
# 4 0.000000 0.000000 0.000000 0.062322 0.000000 0.000000
# 5 0.000000 0.000000 0.000000 0.000000 0.123760 0.000000
# 6 0.000000 0.000000 0.000000 0.000000 0.000000 0.034239
#
#
# Mechanical properties :
#
#
# Convention : Reuss Voigt Hill
#
# Bulk Modulus (GPa) = 8.71951 14.60519 11.66235
# Shear Modulus (GPa) = 18.19425 30.35314 24.27370
#
# Velocity S-wave (km/s) = 2.71625 3.50836 3.13740
# Velocity P-wave (km/s) = 3.65694 4.72589 4.22536
#
# Compressibility (1/GPa) = 0.11468540
#
# Stress axis : x y z
#
# Youngs Moduli (GPa) = 40.82774 119.15538 30.68597
#
# Poissons Ratio (x) = -0.50779 -0.49065
# Poissons Ratio (y) = -0.17399 -0.13364
# Poissons Ratio (z) = -0.65281 -0.51892
#
# Static dielectric constant tensor:
#      x y z
#    x 2.230490 0.000000 0.000000 
#    y 0.000000 1.982370 0.000000 
#    z 0.000000 0.000000 2.050240 
# 
# From -- ./inp_files/27712.got.cif
#   From: 2010.05.17/outbox.cif.g08.bks.cpg/sg24_14_cif.got.tgz:27712.got - 2010.06.04 00:33:39.
