data_PCOD9334130
_publ_section_title
;
Structure prediction by ZEFSAII (Michael W. Deem and Ramdas Pophale) SiO2 
 PCOD9334130
Probable space group: I 21 21 21
;
_chemical_formula_sum "Si O2"
_cell_formula_units_Z 44
_cell_length_a 13.400851
_cell_length_b 22.236878
_cell_length_c 7.721187
_cell_angle_alpha 90.000000
_cell_angle_beta 90.000000
_cell_angle_gamma 90.000000
_cell_volume 2300.860363
_symmetry_space_group_name_H-M "I 21 21 21"
_symmetry_group_IT_number 24
_symmetry_cell_setting 'orthorhombic'
loop_
_space_group_symop_operation_xyz
x,y,z
-x,1/2-y,z
x,-y,1/2-z
1/2-x,y,-z
1/2+x,1/2+y,1/2+z
1/2-x,-y,1/2+z
1/2+x,1/2-y,-z
-x,1/2+y,1/2-z
loop_
_atom_site_type_symbol
_atom_site_label
_atom_site_fract_x
_atom_site_fract_y
_atom_site_fract_z
Si Si1 0.750000 0.244742 0.500000
Si Si2 0.848058 0.068063 0.795363
Si Si3 0.621965 0.929362 0.706487
Si Si4 0.544781 0.190285 0.631574
Si Si5 0.167426 0.225774 0.852025
Si Si6 0.013421 0.670224 0.756643
O O1 0.656285 0.205397 0.564554
O O2 0.776894 0.282024 0.670100
O O3 0.736186 0.082038 0.731269
O O4 0.932064 0.108323 0.712842
O O5 0.864988 0.000000 0.750000
O O6 0.863917 0.075947 0.000214
O O7 0.553201 0.874186 0.773188
O O8 0.596514 0.000000 0.750000
O O9 0.500000 0.250000 0.727792
O O10 0.482537 0.187923 0.452141
O O11 0.098379 0.285511 0.824050
O O12 0.083128 0.174347 0.864838
O O13 0.250000 0.231404 0.000000
#
# Coordination Sequence:
#
# PCOD9334130 Si02
#       6
#     4   8   8   8   8   8
#     4  10  20  36  54  82 118 162 196 242 304 354
#     4  10  21  36  56  84 120 156 194 248 297 370
#     4  10  21  35  57  86 118 162 200 234 307 375
#     4  11  20  36  57  83 124 158 198 252 304 359
#     4  10  21  36  56  82 121 157 198 247 299 357
#     4  10  20  38  53  87 119 154 200 247 302 364
#
# _framework density 19.123282
#
# number of rings (size 3 to 8) (size 9 to 14) (size 15 to 20)
#    0.000    1.818    3.636    3.273    5.091    4.364 
#    0.000    0.000    0.000    0.000    2.364    1.273 
#    0.000    0.000    0.000    0.000    0.000    0.000 
#
# Total GULP energy -122534.627187 kJ/mol
# GULP energy per Si atom -5569.755781 kJ/mol
# Density = 1.907976 g / cm^3
# Si number density = 19.123282 Si / 1000 Ang^3
#
#
#
# Elastic Constant Matrix: (Units=GPa)
#
#
# Indices 1 2 3 4 5 6 
#
# 1 73.3989 34.1646 35.3281 0.0000 0.0000 0.0000
# 2 34.1646 101.0120 40.1760 0.0000 -0.0001 0.0000
# 3 35.3281 40.1760 70.2821 0.0007 0.0004 -0.0001
# 4 0.0000 0.0000 0.0007 26.4846 0.0002 0.0000
# 5 0.0000 -0.0001 0.0004 0.0002 15.6257 0.0000
# 6 0.0000 0.0000 -0.0001 0.0000 0.0000 35.6772
#
#
#
# Elastic Compliance Matrix: (Units=1/GPa)
#
#
# Indices 1 2 3 4 5 6 
#
# 1 0.018818 -0.003368 -0.007534 0.000000 0.000000 0.000000
# 2 -0.003368 0.013416 -0.005976 0.000000 0.000000 0.000000
# 3 -0.007534 -0.005976 0.021431 -0.000001 -0.000001 0.000000
# 4 0.000000 0.000000 -0.000001 0.037758 0.000000 0.000000
# 5 0.000000 0.000000 -0.000001 0.000000 0.063997 0.000000
# 6 0.000000 0.000000 0.000000 0.000000 0.000000 0.028029
#
#
# Mechanical properties :
#
#
# Convention : Reuss Voigt Hill
#
# Bulk Modulus (GPa) = 50.22730 51.55895 50.89313
# Shear Modulus (GPa) = 22.33722 24.55912 23.44817
#
# Velocity S-wave (km/s) = 3.42140 3.58753 3.50545
# Velocity P-wave (km/s) = 6.47534 6.64683 6.56165
#
# Compressibility (1/GPa) = 0.01990949
#
# Stress axis : x y z
#
# Youngs Moduli (GPa) = 53.14035 74.53848 46.66064
#
# Poissons Ratio (x) = 0.25107 0.35153
# Poissons Ratio (y) = 0.17899 0.27884
# Poissons Ratio (z) = 0.40034 0.44544
#
# Static dielectric constant tensor:
#      x y z
#    x 1.932580 0.000000 0.000000 
#    y 0.000000 1.718930 0.000000 
#    z 0.000000 0.000000 1.765360 
# 
# From -- ./inp_files/11200.got.cif
#   From: 2010.05.17/outbox.cif.g08.bks.cpg/sg24_6_cif.got.tgz:11200.got - 2010.06.04 00:33:39.
