data_PCOD9334324
_publ_section_title
;
Structure prediction by ZEFSAII (Michael W. Deem and Ramdas Pophale) SiO2 
 PCOD9334324
Probable space group: I 21 21 21
;
_chemical_formula_sum "Si O2"
_cell_formula_units_Z 52
_cell_length_a 26.391128
_cell_length_b 19.342241
_cell_length_c 5.098470
_cell_angle_alpha 90.000000
_cell_angle_beta 90.000000
_cell_angle_gamma 90.000000
_cell_volume 2602.583137
_symmetry_space_group_name_H-M "I 21 21 21"
_symmetry_group_IT_number 24
_symmetry_cell_setting 'orthorhombic'
loop_
_space_group_symop_operation_xyz
x,y,z
-x,1/2-y,z
x,-y,1/2-z
1/2-x,y,-z
1/2+x,1/2+y,1/2+z
1/2-x,-y,1/2+z
1/2+x,1/2-y,-z
-x,1/2+y,1/2-z
loop_
_atom_site_type_symbol
_atom_site_label
_atom_site_fract_x
_atom_site_fract_y
_atom_site_fract_z
Si Si1 0.001606 0.392618 0.182731
Si Si2 0.435577 0.772937 0.887131
Si Si3 0.087024 0.000000 0.250000
Si Si4 0.105962 0.289024 0.876332
Si Si5 0.431180 0.578626 0.187415
Si Si6 0.694926 0.323621 0.093653
Si Si7 0.152743 0.112715 0.415667
O O1 0.981967 0.318243 0.281245
O O2 0.951808 0.441056 0.155752
O O3 0.041110 0.418749 0.405177
O O4 0.027114 0.397457 0.900942
O O5 0.415292 0.718686 0.670742
O O6 0.391329 0.829837 0.922327
O O7 0.436444 0.741516 0.176824
O O8 0.124549 0.960185 0.053060
O O9 0.112612 0.365542 0.754856
O O10 0.156004 0.240958 0.878327
O O11 0.416537 0.500000 0.250000
O O12 0.824543 0.376719 0.127870
O O13 0.692387 0.365338 0.364479
O O14 0.750000 0.299846 0.000000
#
# Coordination Sequence:
#
# PCOD9334324 Si02
#       7
#     8   8   4   8   8   8   8
#     4  11  22  35  55  75 111 156 194 225 259 330
#     4   9  19  35  53  80 105 141 188 231 276 316
#     4  10  20  38  54  78 116 160 192 216 274 326
#     4  10  21  36  55  79 109 139 179 240 290 331
#     4  12  23  36  50  79 112 149 191 224 278 334
#     4  10  20  39  59  82 105 137 185 238 297 345
#     4   9  20  33  57  82 109 141 183 233 274 337
#
# _framework density 19.980149999999998
#
# number of rings (size 3 to 8) (size 9 to 14) (size 15 to 20)
#    0.000    1.846    1.538    2.308    0.000    9.231 
#    0.000    1.538    0.000    0.000    0.000    8.615 
#    0.000    0.000    0.000    0.000    0.000    0.000 
#
# Total GULP energy -145015.371539 kJ/mol
# GULP energy per Si atom -5577.514290 kJ/mol
# Density = 1.993467 g / cm^3
# Si number density = 19.980150 Si / 1000 Ang^3
#
#
#
# Elastic Constant Matrix: (Units=GPa)
#
#
# Indices 1 2 3 4 5 6 
#
# 1 81.1746 30.5400 24.6941 0.0000 0.0000 0.0000
# 2 30.5400 107.3713 28.9714 0.0000 0.0000 0.0000
# 3 24.6941 28.9714 98.9814 0.0000 0.0000 0.0000
# 4 0.0000 0.0000 0.0000 17.2543 0.0000 0.0000
# 5 0.0000 0.0000 0.0000 0.0000 23.7368 0.0000
# 6 0.0000 0.0000 0.0000 0.0000 0.0000 20.1412
#
#
#
# Elastic Compliance Matrix: (Units=1/GPa)
#
#
# Indices 1 2 3 4 5 6 
#
# 1 0.014385 -0.003391 -0.002596 0.000000 0.000000 0.000000
# 2 -0.003391 0.010911 -0.002348 0.000000 0.000000 0.000000
# 3 -0.002596 -0.002348 0.011438 0.000000 0.000000 0.000000
# 4 0.000000 0.000000 0.000000 0.057957 0.000000 0.000000
# 5 0.000000 0.000000 0.000000 0.000000 0.042129 0.000000
# 6 0.000000 0.000000 0.000000 0.000000 0.000000 0.049649
#
#
# Mechanical properties :
#
#
# Convention : Reuss Voigt Hill
#
# Bulk Modulus (GPa) = 49.84027 50.65981 50.25004
# Shear Modulus (GPa) = 23.82920 25.78124 24.80522
#
# Velocity S-wave (km/s) = 3.45721 3.59603 3.52731
# Velocity P-wave (km/s) = 6.39808 6.53085 6.46481
#
# Compressibility (1/GPa) = 0.02006410
#
# Stress axis : x y z
#
# Youngs Moduli (GPa) = 69.51840 91.64674 87.42944
#
# Poissons Ratio (x) = 0.31077 0.22699
# Poissons Ratio (y) = 0.23573 0.20526
# Poissons Ratio (z) = 0.18048 0.21516
#
# Static dielectric constant tensor:
#      x y z
#    x 1.736410 0.000000 0.000000 
#    y 0.000000 1.800530 0.000000 
#    z 0.000000 0.000000 1.707340 
# 
# From -- ./inp_files/7240.got.cif
#   From: 2010.05.17/outbox.cif.g08.bks.cpg/sg24_4_cif.got.tgz:7240.got - 2010.06.04 00:33:39.
