data_PCOD9334493
_publ_section_title
;
Structure prediction by ZEFSAII (Michael W. Deem and Ramdas Pophale) SiO2 
 PCOD9334493
Probable space group: I 21 21 21
;
_chemical_formula_sum "Si O2"
_cell_formula_units_Z 44
_cell_length_a 14.647705
_cell_length_b 5.117287
_cell_length_c 24.660945
_cell_angle_alpha 90.000000
_cell_angle_beta 90.000000
_cell_angle_gamma 90.000000
_cell_volume 1848.498380
_symmetry_space_group_name_H-M "I 21 21 21"
_symmetry_group_IT_number 24
_symmetry_cell_setting 'orthorhombic'
loop_
_space_group_symop_operation_xyz
x,y,z
-x,1/2-y,z
x,-y,1/2-z
1/2-x,y,-z
1/2+x,1/2+y,1/2+z
1/2-x,-y,1/2+z
1/2+x,1/2-y,-z
-x,1/2+y,1/2-z
loop_
_atom_site_type_symbol
_atom_site_label
_atom_site_fract_x
_atom_site_fract_y
_atom_site_fract_z
Si Si1 0.105131 0.500000 0.250000
Si Si2 0.940073 0.992288 0.669246
Si Si3 0.000000 0.750000 0.344857
Si Si4 0.939497 0.991938 0.541410
Si Si5 0.806887 0.685856 0.386017
Si Si6 0.746614 0.801913 0.820697
Si Si7 0.750000 0.848745 0.500000
O O1 0.042837 0.549660 0.301606
O O2 0.177041 0.283426 0.270362
O O3 0.920921 0.937340 0.605297
O O4 0.844464 0.081304 0.694176
O O5 0.000000 0.250000 0.670999
O O6 0.000000 0.750000 0.691026
O O7 0.084518 0.862393 0.378846
O O8 0.000000 0.250000 0.536646
O O9 0.841939 0.009416 0.512497
O O10 0.000000 0.750000 0.520478
O O11 0.751769 0.474029 0.350925
O O12 0.772758 0.679510 0.447146
O O13 0.791395 0.976666 0.362140
#
# Coordination Sequence:
#
# PCOD9334493 Si02
#       7
#     4   8   4   8   8   8   4
#     4  10  22  42  80  98 148 180 244 298 396 422
#     4  10  20  39  64  89 132 176 225 286 345 435
#     4  10  22  46  68 110 134 200 236 318 358 476
#     4  10  24  41  65  94 133 191 246 292 371 439
#     4  11  26  41  68  97 149 179 248 294 378 434
#     4  11  23  44  66 106 130 189 233 301 359 460
#     4  12  26  46  68 106 148 200 242 336 374 448
#
# _framework density 23.803104999999999
#
# number of rings (size 3 to 8) (size 9 to 14) (size 15 to 20)
#    0.000    1.455    1.818    2.182    6.364    7.273 
#    0.000    0.909    0.000    0.000    0.000    0.000 
#    0.000    0.000    0.000    0.000    0.000    0.000 
#
# Total GULP energy -123033.646857 kJ/mol
# GULP energy per Si atom -5592.438493 kJ/mol
# Density = 2.374893 g / cm^3
# Si number density = 23.803105 Si / 1000 Ang^3
#
#
#
# Elastic Constant Matrix: (Units=GPa)
#
#
# Indices 1 2 3 4 5 6 
#
# 1 179.0104 19.2757 33.4084 0.0000 0.0000 0.0000
# 2 19.2757 91.3068 20.6165 0.0000 0.0000 0.0000
# 3 33.4084 20.6165 96.6967 0.0000 0.0000 0.0000
# 4 0.0000 0.0000 0.0000 19.8715 0.0000 0.0000
# 5 0.0000 0.0000 0.0000 0.0000 18.9801 0.0000
# 6 0.0000 0.0000 0.0000 0.0000 0.0000 24.9325
#
#
#
# Elastic Compliance Matrix: (Units=1/GPa)
#
#
# Indices 1 2 3 4 5 6 
#
# 1 0.006033 -0.000844 -0.001904 0.000000 0.000000 0.000000
# 2 -0.000844 0.011624 -0.002187 0.000000 0.000000 0.000000
# 3 -0.001904 -0.002187 0.011466 0.000000 0.000000 0.000000
# 4 0.000000 0.000000 0.000000 0.050323 0.000000 0.000000
# 5 0.000000 0.000000 0.000000 0.000000 0.052687 0.000000
# 6 0.000000 0.000000 0.000000 0.000000 0.000000 0.040108
#
#
# Mechanical properties :
#
#
# Convention : Reuss Voigt Hill
#
# Bulk Modulus (GPa) = 51.94067 57.06835 54.50451
# Shear Modulus (GPa) = 26.52130 32.33771 29.42951
#
# Velocity S-wave (km/s) = 3.34158 3.68985 3.52002
# Velocity P-wave (km/s) = 6.06272 6.49466 6.28240
#
# Compressibility (1/GPa) = 0.01925274
#
# Stress axis : x y z
#
# Youngs Moduli (GPa) = 165.76853 86.02927 87.21567
#
# Poissons Ratio (x) = 0.07257 0.16609
# Poissons Ratio (y) = 0.13983 0.19073
# Poissons Ratio (z) = 0.31568 0.18814
#
# Static dielectric constant tensor:
#      x y z
#    x 2.126150 0.000000 0.000000 
#    y 0.000000 1.857980 0.000000 
#    z 0.000000 0.000000 1.949510 
# 
# From -- ./inp_files/37333.got.cif
#   From: 2010.05.17/outbox.cif.g08.bks.cpg/sg24_19_cif.got.tgz:37333.got - 2010.06.04 00:33:39.
