data_PCOD9334568
_publ_section_title
;
Structure prediction by ZEFSAII (Michael W. Deem and Ramdas Pophale) SiO2 
 PCOD9334568
Probable space group: I 21 21 21
;
_chemical_formula_sum "Si O2"
_cell_formula_units_Z 56
_cell_length_a 17.016000
_cell_length_b 10.435804
_cell_length_c 15.148134
_cell_angle_alpha 90.000000
_cell_angle_beta 90.000000
_cell_angle_gamma 90.000000
_cell_volume 2689.939603
_symmetry_space_group_name_H-M "I 21 21 21"
_symmetry_group_IT_number 24
_symmetry_cell_setting 'orthorhombic'
loop_
_space_group_symop_operation_xyz
x,y,z
-x,1/2-y,z
x,-y,1/2-z
1/2-x,y,-z
1/2+x,1/2+y,1/2+z
1/2-x,-y,1/2+z
1/2+x,1/2-y,-z
-x,1/2+y,1/2-z
loop_
_atom_site_type_symbol
_atom_site_label
_atom_site_fract_x
_atom_site_fract_y
_atom_site_fract_z
Si Si1 0.118266 0.913382 0.123823
Si Si2 0.083420 0.049579 0.958353
Si Si3 0.589708 0.949482 0.390897
Si Si4 0.908307 0.206090 0.718255
Si Si5 0.162668 0.703968 0.464108
Si Si6 0.912614 0.700813 0.303347
Si Si7 0.290688 0.929136 0.161554
O O1 0.094834 0.808886 0.197021
O O2 0.211402 0.895442 0.110534
O O3 0.101212 0.054658 0.164922
O O4 0.078805 0.931824 0.028355
O O5 0.003064 0.060259 0.906813
O O6 0.155917 0.022764 0.894966
O O7 0.104120 0.183072 0.004702
O O8 0.610357 0.843693 0.316936
O O9 0.633026 0.920549 0.482950
O O10 0.604080 0.086779 0.347436
O O11 0.848406 0.315820 0.690001
O O12 0.000000 0.250000 0.714489
O O13 0.250000 0.730657 0.500000
O O14 0.149584 0.711688 0.358291
O O15 0.000000 0.750000 0.324628
O O16 0.263075 0.000000 0.250000
#
# Coordination Sequence:
#
# PCOD9334568 Si02
#       7
#     8   8   8   8   8   8   8
#     4  10  22  39  63 101 127 162 225 276 331 388
#     4  11  21  38  65  96 128 168 219 276 330 404
#     4  11  23  41  62  94 133 174 222 269 336 414
#     4  11  23  39  62  97 134 175 213 270 345 410
#     4  11  22  36  65  96 127 168 223 273 331 393
#     4  10  20  40  65  92 129 164 216 282 325 393
#     4  12  21  37  68  97 133 168 218 278 336 400
#
# _framework density 20.818311999999999
#
# number of rings (size 3 to 8) (size 9 to 14) (size 15 to 20)
#    0.000    1.143    2.857    6.857    2.000    0.000 
#    2.571    1.429    6.286    0.000    0.000    0.000 
#    0.000    0.000    0.000    0.000    0.000    0.000 
#
# Total GULP energy -156293.774681 kJ/mol
# GULP energy per Si atom -5581.920524 kJ/mol
# Density = 2.077093 g / cm^3
# Si number density = 20.818312 Si / 1000 Ang^3
#
#
#
# Elastic Constant Matrix: (Units=GPa)
#
#
# Indices 1 2 3 4 5 6 
#
# 1 89.2554 14.4233 -2.2814 0.0000 0.0000 0.0000
# 2 14.4233 54.7369 14.0667 0.0000 0.0000 0.0000
# 3 -2.2814 14.0667 79.9386 0.0000 0.0000 0.0000
# 4 0.0000 0.0000 0.0000 27.8157 0.0000 0.0000
# 5 0.0000 0.0000 0.0000 0.0000 60.6235 0.0000
# 6 0.0000 0.0000 0.0000 0.0000 0.0000 -178.3946
#
#
#
# Elastic Compliance Matrix: (Units=1/GPa)
#
#
# Indices 1 2 3 4 5 6 
#
# 1 0.011767 -0.003338 0.000923 0.000000 0.000000 0.000000
# 2 -0.003338 0.020081 -0.003629 0.000000 0.000000 0.000000
# 3 0.000923 -0.003629 0.013175 0.000000 0.000000 0.000000
# 4 0.000000 0.000000 0.000000 0.035951 0.000000 0.000000
# 5 0.000000 0.000000 0.000000 0.000000 0.016495 0.000000
# 6 0.000000 0.000000 0.000000 0.000000 0.000000 -0.005606
#
#
# Mechanical properties :
#
#
# Convention : Reuss Voigt Hill
#
# Bulk Modulus (GPa) = 30.36242 30.70534 30.53388
# Shear Modulus (GPa) = 43.50517 -4.80959 19.34779
#
# Velocity S-wave (km/s) = 4.57634 -1.52161 3.05185
# Velocity P-wave (km/s) = 6.52227 3.41967 5.20741
#
# Compressibility (1/GPa) = 0.03293545
#
# Stress axis : x y z
#
# Youngs Moduli (GPa) = 84.98508 49.79757 75.90407
#
# Poissons Ratio (x) = 0.16621 -0.07007
# Poissons Ratio (y) = 0.28366 0.27545
# Poissons Ratio (z) = -0.07846 0.18071
#
# Static dielectric constant tensor:
#      x y z
#    x 1.713450 0.000000 0.000000 
#    y 0.000000 1.732210 0.000000 
#    z 0.000000 0.000000 1.851290 
# 
# From -- ./inp_files/26519.got.cif
#   From: 2010.05.17/outbox.cif.g08.bks.cpg/sg24_14_cif.got.tgz:26519.got - 2010.06.04 00:33:39.
