data_PCOD9334886
_publ_section_title
;
Structure prediction by ZEFSAII (Michael W. Deem and Ramdas Pophale) SiO2 
 PCOD9334886
Probable space group: I 21 21 21
;
_chemical_formula_sum "Si O2"
_cell_formula_units_Z 32
_cell_length_a 9.551514
_cell_length_b 9.772734
_cell_length_c 14.170357
_cell_angle_alpha 90.000000
_cell_angle_beta 90.000000
_cell_angle_gamma 90.000000
_cell_volume 1322.723552
_symmetry_space_group_name_H-M "I 21 21 21"
_symmetry_group_IT_number 24
_symmetry_cell_setting 'orthorhombic'
loop_
_space_group_symop_operation_xyz
x,y,z
-x,1/2-y,z
x,-y,1/2-z
1/2-x,y,-z
1/2+x,1/2+y,1/2+z
1/2-x,-y,1/2+z
1/2+x,1/2-y,-z
-x,1/2+y,1/2-z
loop_
_atom_site_type_symbol
_atom_site_label
_atom_site_fract_x
_atom_site_fract_y
_atom_site_fract_z
Si Si1 0.202882 0.031524 0.403324
Si Si2 0.337373 0.732075 0.414156
Si Si3 0.339209 0.268576 0.303202
Si Si4 0.926219 0.101983 0.337465
O O1 0.250000 0.101751 0.500000
O O2 0.266619 0.121015 0.318959
O O3 0.035296 0.033564 0.407994
O O4 0.265531 0.880984 0.402187
O O5 0.500000 0.750000 0.440330
O O6 0.250000 0.664790 0.500000
O O7 0.335017 0.679780 0.305742
O O8 0.500000 0.250000 0.331629
O O9 0.234464 0.366983 0.360557
O O10 0.000000 0.250000 0.315630
O O11 0.931237 0.000000 0.250000
#
# Coordination Sequence:
#
# PCOD9334886 Si02
#       4
#     8   8   8   8
#     4  10  21  38  59  87 124 166 214 263 315 385
#     4  10  22  39  61  90 127 169 216 271 325 380
#     4  10  22  38  59  87 123 162 210 268 323 381
#     4  10  21  39  65  92 123 167 214 260 319 382
#
# _framework density 24.192509999999999
#
# number of rings (size 3 to 8) (size 9 to 14) (size 15 to 20)
#    0.000    2.000    0.000    3.750    0.000   14.000 
#    0.000    0.000    0.000    6.000    0.000    0.000 
#    0.000    0.000    0.000    0.000    0.000    0.000 
#
# Total GULP energy -89241.844724 kJ/mol
# GULP energy per Si atom -5577.615295 kJ/mol
# Density = 2.413745 g / cm^3
# Si number density = 24.192510 Si / 1000 Ang^3
#
#
#
# Elastic Constant Matrix: (Units=GPa)
#
#
# Indices 1 2 3 4 5 6 
#
# 1 257.3939 25.3210 48.1878 0.0000 0.0000 0.0000
# 2 25.3210 65.1533 -18.4418 0.0000 0.0000 0.0000
# 3 48.1878 -18.4418 64.7970 0.0000 0.0000 0.0000
# 4 0.0000 0.0000 0.0000 7.9741 0.0000 0.0000
# 5 0.0000 0.0000 0.0000 0.0000 44.6780 0.0000
# 6 0.0000 0.0000 0.0000 0.0000 0.0000 -0.4475
#
#
#
# Elastic Compliance Matrix: (Units=1/GPa)
#
#
# Indices 1 2 3 4 5 6 
#
# 1 0.005099 -0.003323 -0.004738 0.000000 0.000000 0.000000
# 2 -0.003323 0.018858 0.007838 0.000000 0.000000 0.000000
# 3 -0.004738 0.007838 0.021187 0.000000 0.000000 0.000000
# 4 0.000000 0.000000 0.000000 0.125406 0.000000 0.000000
# 5 0.000000 0.000000 0.000000 0.000000 0.022382 0.000000
# 6 0.000000 0.000000 0.000000 0.000000 0.000000 -2.234517
#
#
# Mechanical properties :
#
#
# Convention : Reuss Voigt Hill
#
# Bulk Modulus (GPa) = 22.37135 55.27537 38.82336
# Shear Modulus (GPa) = -2.46762 32.59274 15.06256
#
# Velocity S-wave (km/s) = -1.01104 3.67444 2.49793
# Velocity P-wave (km/s) = 2.81147 6.39529 4.93984
#
# Compressibility (1/GPa) = 0.04470003
#
# Stress axis : x y z
#
# Youngs Moduli (GPa) = 196.12107 53.02706 47.19918
#
# Poissons Ratio (x) = 0.17619 0.22361
# Poissons Ratio (y) = 0.65163 -0.36995
# Poissons Ratio (z) = 0.92913 -0.41563
#
# Static dielectric constant tensor:
#      x y z
#    x 1.941020 0.000000 0.000000 
#    y 0.000000 1.937130 0.000000 
#    z 0.000000 0.000000 2.079510 
# 
# From -- ./inp_files/10206.got.cif
#   From: 2010.05.17/outbox.cif.g08.bks.cpg/sg24_6_cif.got.tgz:10206.got - 2010.06.04 00:33:39.
