data_PCOD9334336
_publ_section_title
;
Structure prediction by ZEFSAII (Michael W. Deem and Ramdas Pophale) SiO2 
 PCOD9334336
Probable space group: I 21 21 21
;
_chemical_formula_sum "Si O2"
_cell_formula_units_Z 56
_cell_length_a 21.537212
_cell_length_b 6.708757
_cell_length_c 19.924840
_cell_angle_alpha 90.000000
_cell_angle_beta 90.000000
_cell_angle_gamma 90.000000
_cell_volume 2878.898723
_symmetry_space_group_name_H-M "I 21 21 21"
_symmetry_group_IT_number 24
_symmetry_cell_setting 'orthorhombic'
loop_
_space_group_symop_operation_xyz
x,y,z
-x,1/2-y,z
x,-y,1/2-z
1/2-x,y,-z
1/2+x,1/2+y,1/2+z
1/2-x,-y,1/2+z
1/2+x,1/2-y,-z
-x,1/2+y,1/2-z
loop_
_atom_site_type_symbol
_atom_site_label
_atom_site_fract_x
_atom_site_fract_y
_atom_site_fract_z
Si Si1 0.652868 0.737308 0.405178
Si Si2 0.000000 0.250000 0.592995
Si Si3 0.841922 0.713942 0.136513
Si Si4 0.173858 0.500000 0.250000
Si Si5 0.260637 0.878228 0.688403
Si Si6 0.280463 0.375336 0.435479
Si Si7 0.553426 0.893626 0.313183
Si Si8 0.383707 0.906196 0.005882
O O1 0.712977 0.634256 0.372610
O O2 0.596548 0.741085 0.353520
O O3 0.629625 0.636667 0.474108
O O4 0.672312 0.967099 0.406450
O O5 0.026308 0.433849 0.637850
O O6 0.056012 0.168696 0.546032
O O7 0.862848 0.871989 0.193312
O O8 0.821317 0.505371 0.169025
O O9 0.775927 0.804074 0.110247
O O10 0.883562 0.661817 0.071802
O O11 0.217158 0.663169 0.286684
O O12 0.230687 0.000000 0.750000
O O13 0.250000 0.481427 0.500000
O O14 0.322330 0.198938 0.463968
O O15 0.500000 0.750000 0.284822
O O16 0.585633 0.000000 0.250000
#
# Coordination Sequence:
#
# PCOD9334336 Si02
#       8
#     8   4   8   4   8   8   8   8
#     4  12  23  35  58  87 119 162 200 253 298 359
#     4  12  24  46  58  84 122 154 214 264 296 354
#     4  10  21  38  59  92 119 161 194 247 306 372
#     4  10  20  38  58  88 130 158 192 236 304 384
#     4  10  22  34  55  86 126 153 195 241 297 367
#     4  10  21  34  55  87 122 156 193 237 304 363
#     4  12  26  41  60  81 115 168 220 257 299 337
#     4  11  24  38  61  86 121 154 205 255 303 356
#
# _framework density 19.451882999999999
#
# number of rings (size 3 to 8) (size 9 to 14) (size 15 to 20)
#    0.000    1.143    6.429    0.000    3.000    1.714 
#    0.000    0.000    0.000    0.000    5.571    0.000 
#    0.000    0.000    0.000    0.000    0.000    0.000 
#
# Total GULP energy -156038.387456 kJ/mol
# GULP energy per Si atom -5572.799552 kJ/mol
# Density = 1.940761 g / cm^3
# Si number density = 19.451883 Si / 1000 Ang^3
#
#
#
# Elastic Constant Matrix: (Units=GPa)
#
#
# Indices 1 2 3 4 5 6 
#
# 1 31.8363 2.5226 17.8780 0.0000 0.0000 0.0000
# 2 2.5226 83.5819 36.0944 0.0000 0.0000 0.0000
# 3 17.8780 36.0944 103.3743 0.0000 0.0000 0.0000
# 4 0.0000 0.0000 0.0000 34.5004 0.0000 0.0000
# 5 0.0000 0.0000 0.0000 0.0000 17.9663 0.0000
# 6 0.0000 0.0000 0.0000 0.0000 0.0000 17.2340
#
#
#
# Elastic Compliance Matrix: (Units=1/GPa)
#
#
# Indices 1 2 3 4 5 6 
#
# 1 0.035027 0.001836 -0.006699 0.000000 0.000000 0.000000
# 2 0.001836 0.014185 -0.005270 0.000000 0.000000 0.000000
# 3 -0.006699 -0.005270 0.012672 0.000000 0.000000 0.000000
# 4 0.000000 0.000000 0.000000 0.028985 0.000000 0.000000
# 5 0.000000 0.000000 0.000000 0.000000 0.055660 0.000000
# 6 0.000000 0.000000 0.000000 0.000000 0.000000 0.058025
#
#
# Mechanical properties :
#
#
# Convention : Reuss Voigt Hill
#
# Bulk Modulus (GPa) = 24.02837 36.86472 30.44655
# Shear Modulus (GPa) = 20.94740 24.75997 22.85368
#
# Velocity S-wave (km/s) = 3.28515 3.57162 3.43137
# Velocity P-wave (km/s) = 5.17389 6.00013 5.60226
#
# Compressibility (1/GPa) = 0.04161746
#
# Stress axis : x y z
#
# Youngs Moduli (GPa) = 28.54943 70.49775 78.91250
#
# Poissons Ratio (x) = -0.12941 0.52861
# Poissons Ratio (y) = -0.05241 0.41589
# Poissons Ratio (z) = 0.19124 0.37154
#
# Static dielectric constant tensor:
#      x y z
#    x 1.652610 0.000000 0.000000 
#    y 0.000000 1.752560 0.000000 
#    z 0.000000 0.000000 1.747720 
# 
# From -- ./inp_files/36140.got.cif
#   From: 2010.05.17/outbox.cif.g08.bks.cpg/sg24_19_cif.got.tgz:36140.got - 2010.06.04 00:33:39.
