data_PCOD9334238
_publ_section_title
;
Structure prediction by ZEFSAII (Michael W. Deem and Ramdas Pophale) SiO2 
 PCOD9334238
Probable space group: I 21 21 21
;
_chemical_formula_sum "Si O2"
_cell_formula_units_Z 56
_cell_length_a 22.033198
_cell_length_b 14.176787
_cell_length_c 9.561575
_cell_angle_alpha 90.000000
_cell_angle_beta 90.000000
_cell_angle_gamma 90.000000
_cell_volume 2986.653136
_symmetry_space_group_name_H-M "I 21 21 21"
_symmetry_group_IT_number 24
_symmetry_cell_setting 'orthorhombic'
loop_
_space_group_symop_operation_xyz
x,y,z
-x,1/2-y,z
x,-y,1/2-z
1/2-x,y,-z
1/2+x,1/2+y,1/2+z
1/2-x,-y,1/2+z
1/2+x,1/2-y,-z
-x,1/2+y,1/2-z
loop_
_atom_site_type_symbol
_atom_site_label
_atom_site_fract_x
_atom_site_fract_y
_atom_site_fract_z
Si Si1 0.226206 0.097324 0.292851
Si Si2 0.878965 0.413765 0.502197
Si Si3 0.374087 0.874089 0.549570
Si Si4 0.831086 0.904675 0.163416
Si Si5 0.429140 0.764730 0.784138
Si Si6 0.658322 0.295449 0.247455
Si Si7 0.686751 0.095324 0.331491
O O1 0.189139 0.087330 0.435918
O O2 0.178107 0.111036 0.167051
O O3 0.272880 0.181102 0.292027
O O4 0.259558 0.000000 0.250000
O O5 0.898158 0.522334 0.491962
O O6 0.912725 0.345895 0.395157
O O7 0.879958 0.364749 0.652425
O O8 0.420795 0.807711 0.629624
O O9 0.349500 0.823910 0.412210
O O10 0.880019 0.821084 0.196157
O O11 0.759237 0.886157 0.195362
O O12 0.847113 0.000000 0.250000
O O13 0.828123 0.917677 0.995477
O O14 0.500000 0.750000 0.806251
O O15 0.649670 0.185843 0.277892
O O16 0.671636 0.000000 0.250000
#
# Coordination Sequence:
#
# PCOD9334238 Si02
#       7
#     8   8   8   8   8   8   8
#     4   9  18  31  51  85 123 160 190 219 274 354
#     4  10  20  37  57  85 121 153 195 240 289 354
#     4  10  22  35  55  88 123 151 191 242 290 353
#     4  10  22  40  62  89 119 160 211 247 303 366
#     4  11  23  42  64  85 112 158 209 255 298 357
#     4  12  20  32  59  85 124 157 189 229 301 359
#     4  10  22  38  59  90 127 158 191 256 309 365
#
# _framework density 18.750084999999999
#
# number of rings (size 3 to 8) (size 9 to 14) (size 15 to 20)
#    0.000    1.714    1.429    5.143    4.000    3.429 
#    2.571    0.714    0.000    0.000    0.000    0.000 
#    0.000    0.000    0.000    0.000    0.000    0.000 
#
# Total GULP energy -156095.761810 kJ/mol
# GULP energy per Si atom -5574.848636 kJ/mol
# Density = 1.870741 g / cm^3
# Si number density = 18.750085 Si / 1000 Ang^3
#
#
#
# Elastic Constant Matrix: (Units=GPa)
#
#
# Indices 1 2 3 4 5 6 
#
# 1 54.7055 31.8477 4.9687 0.0000 0.0000 0.0000
# 2 31.8477 144.9951 40.6498 0.0000 0.0000 0.0000
# 3 4.9687 40.6498 66.1010 0.0000 0.0000 0.0000
# 4 0.0000 0.0000 0.0000 30.6406 0.0000 0.0000
# 5 0.0000 0.0000 0.0000 0.0000 9.1526 0.0000
# 6 0.0000 0.0000 0.0000 0.0000 0.0000 6.3826
#
#
#
# Elastic Compliance Matrix: (Units=1/GPa)
#
#
# Indices 1 2 3 4 5 6 
#
# 1 0.021087 -0.005060 0.001526 0.000000 0.000000 0.000000
# 2 -0.005060 0.009548 -0.005491 0.000000 0.000000 0.000000
# 3 0.001526 -0.005491 0.018390 0.000000 0.000000 0.000000
# 4 0.000000 0.000000 0.000000 0.032636 0.000000 0.000000
# 5 0.000000 0.000000 0.000000 0.000000 0.109258 0.000000
# 6 0.000000 0.000000 0.000000 0.000000 0.000000 0.156675
#
#
# Mechanical properties :
#
#
# Convention : Reuss Voigt Hill
#
# Bulk Modulus (GPa) = 32.28297 46.74822 39.51560
# Shear Modulus (GPa) = 13.29900 21.79087 17.54493
#
# Velocity S-wave (km/s) = 2.66611 3.41277 3.06228
# Velocity P-wave (km/s) = 5.17034 6.36519 5.79863
#
# Compressibility (1/GPa) = 0.03097608
#
# Stress axis : x y z
#
# Youngs Moduli (GPa) = 47.42366 104.73920 54.37608
#
# Poissons Ratio (x) = 0.52993 -0.08300
# Poissons Ratio (y) = 0.23994 0.29858
# Poissons Ratio (z) = -0.07239 0.57513
#
# Static dielectric constant tensor:
#      x y z
#    x 1.662950 0.000000 0.000000 
#    y 0.000000 1.687790 0.000000 
#    z 0.000000 0.000000 1.645160 
# 
# From -- ./inp_files/15265.got.cif
#   From: 2010.05.17/outbox.cif.g08.bks.cpg/sg24_8_cif.got.tgz:15265.got - 2010.06.04 00:33:39.
