data_PCOD9334178
_publ_section_title
;
Structure prediction by ZEFSAII (Michael W. Deem and Ramdas Pophale) SiO2 
 PCOD9334178
Probable space group: I 21 21 21
;
_chemical_formula_sum "Si O2"
_cell_formula_units_Z 60
_cell_length_a 16.335855
_cell_length_b 18.686996
_cell_length_c 8.904147
_cell_angle_alpha 90.000000
_cell_angle_beta 90.000000
_cell_angle_gamma 90.000000
_cell_volume 2718.151654
_symmetry_space_group_name_H-M "I 21 21 21"
_symmetry_group_IT_number 24
_symmetry_cell_setting 'orthorhombic'
loop_
_space_group_symop_operation_xyz
x,y,z
-x,1/2-y,z
x,-y,1/2-z
1/2-x,y,-z
1/2+x,1/2+y,1/2+z
1/2-x,-y,1/2+z
1/2+x,1/2-y,-z
-x,1/2+y,1/2-z
loop_
_atom_site_type_symbol
_atom_site_label
_atom_site_fract_x
_atom_site_fract_y
_atom_site_fract_z
Si Si1 0.998326 0.940415 0.082594
Si Si2 0.250000 0.565225 0.000000
Si Si3 0.718688 0.284654 0.830228
Si Si4 0.670898 0.390134 0.595873
Si Si5 0.859305 0.144332 0.256699
Si Si6 0.527225 0.863889 0.219983
Si Si7 0.618901 0.276454 0.346896
Si Si8 0.381205 0.552704 0.482520
O O1 0.946678 0.881029 0.175316
O O2 0.093960 0.941485 0.114796
O O3 0.951245 0.014970 0.084223
O O4 0.991763 0.921383 0.906062
O O5 0.206033 0.614846 0.122216
O O6 0.180216 0.511297 0.936484
O O7 0.695910 0.360630 0.758131
O O8 0.649153 0.226886 0.789056
O O9 0.796477 0.261268 0.732440
O O10 0.750000 0.286226 0.000000
O O11 0.750000 0.415545 0.500000
O O12 0.636599 0.322290 0.496470
O O13 0.837926 0.103538 0.102439
O O14 0.576209 0.799926 0.137348
O O15 0.440887 0.825278 0.257275
O O16 0.577785 0.900191 0.352743
#
# Coordination Sequence:
#
# PCOD9334178 Si02
#       8
#     8   4   8   8   8   8   8   8
#     4  10  21  39  62  89 120 166 213 254 314 383
#     4  10  24  38  56  84 122 174 226 248 310 390
#     4  11  23  37  58  90 122 160 200 266 329 371
#     4   9  20  40  66  91 120 157 214 266 307 386
#     4  11  25  39  56  87 126 167 215 258 322 390
#     4  10  20  36  60  87 118 164 205 260 311 369
#     4   9  20  36  58  88 120 158 209 251 312 374
#     4  11  24  39  58  90 128 167 211 267 317 385
#
# _framework density 22.073823999999998
#
# number of rings (size 3 to 8) (size 9 to 14) (size 15 to 20)
#    0.000    1.867    0.000    3.600    9.333    4.800 
#    0.000    0.000    0.000   10.400    0.000    0.000 
#    0.000    0.000    0.000    0.000    0.000    0.000 
#
# Total GULP energy -167502.298951 kJ/mol
# GULP energy per Si atom -5583.409965 kJ/mol
# Density = 2.202358 g / cm^3
# Si number density = 22.073824 Si / 1000 Ang^3
#
#
#
# Elastic Constant Matrix: (Units=GPa)
#
#
# Indices 1 2 3 4 5 6 
#
# 1 106.3533 17.7639 12.0862 0.0000 0.0000 0.0000
# 2 17.7639 29.1176 19.2891 0.0000 0.0000 0.0000
# 3 12.0862 19.2891 96.9867 0.0000 0.0000 0.0000
# 4 0.0000 0.0000 0.0000 17.0205 0.0000 0.0000
# 5 0.0000 0.0000 0.0000 0.0000 23.9846 0.0000
# 6 0.0000 0.0000 0.0000 0.0000 0.0000 26.2759
#
#
#
# Elastic Compliance Matrix: (Units=1/GPa)
#
#
# Indices 1 2 3 4 5 6 
#
# 1 0.010470 -0.006361 -0.000040 0.000000 0.000000 0.000000
# 2 -0.006361 0.043420 -0.007843 0.000000 0.000000 0.000000
# 3 -0.000040 -0.007843 0.011875 0.000000 0.000000 0.000000
# 4 0.000000 0.000000 0.000000 0.058753 0.000000 0.000000
# 5 0.000000 0.000000 0.000000 0.000000 0.041693 0.000000
# 6 0.000000 0.000000 0.000000 0.000000 0.000000 0.038058
#
#
# Mechanical properties :
#
#
# Convention : Reuss Voigt Hill
#
# Bulk Modulus (GPa) = 26.82556 36.74847 31.78701
# Shear Modulus (GPa) = 20.39308 25.67744 23.03526
#
# Velocity S-wave (km/s) = 3.04280 3.41435 3.23392
# Velocity P-wave (km/s) = 4.95216 5.67696 5.32690
#
# Compressibility (1/GPa) = 0.03727789
#
# Stress axis : x y z
#
# Youngs Moduli (GPa) = 95.51483 23.03105 84.20748
#
# Poissons Ratio (x) = 0.14650 0.00333
# Poissons Ratio (y) = 0.60757 0.66042
# Poissons Ratio (z) = 0.00378 0.18063
#
# Static dielectric constant tensor:
#      x y z
#    x 1.868360 0.000000 0.000000 
#    y 0.000000 1.877110 0.000000 
#    z 0.000000 0.000000 1.813430 
# 
# From -- ./inp_files/14471.got.cif
#   From: 2010.05.17/outbox.cif.g08.bks.cpg/sg24_8_cif.got.tgz:14471.got - 2010.06.04 00:33:39.
