data_PCOD9334908
_publ_section_title
;
Structure prediction by ZEFSAII (Michael W. Deem and Ramdas Pophale) SiO2 
 PCOD9334908
Probable space group: I 21 21 21
;
_chemical_formula_sum "Si O2"
_cell_formula_units_Z 60
_cell_length_a 20.918458
_cell_length_b 8.848632
_cell_length_c 13.923120
_cell_angle_alpha 90.000000
_cell_angle_beta 90.000000
_cell_angle_gamma 90.000000
_cell_volume 2577.165848
_symmetry_space_group_name_H-M "I 21 21 21"
_symmetry_group_IT_number 24
_symmetry_cell_setting 'orthorhombic'
loop_
_space_group_symop_operation_xyz
x,y,z
-x,1/2-y,z
x,-y,1/2-z
1/2-x,y,-z
1/2+x,1/2+y,1/2+z
1/2-x,-y,1/2+z
1/2+x,1/2-y,-z
-x,1/2+y,1/2-z
loop_
_atom_site_type_symbol
_atom_site_label
_atom_site_fract_x
_atom_site_fract_y
_atom_site_fract_z
Si Si1 0.841291 0.210337 0.009497
Si Si2 0.579146 0.500000 0.250000
Si Si3 0.542815 0.603776 0.451264
Si Si4 0.411783 0.855086 0.935160
Si Si5 0.333389 0.166042 0.379886
Si Si6 0.730220 0.982458 0.137783
Si Si7 0.712949 0.472417 0.863604
Si Si8 0.614749 0.035136 0.639972
O O1 0.801509 0.307003 0.090681
O O2 0.891856 0.103336 0.066196
O O3 0.884173 0.334902 0.956518
O O4 0.802358 0.106834 0.932779
O O5 0.537296 0.537374 0.343575
O O6 0.628951 0.368576 0.281813
O O7 0.500000 0.750000 0.459846
O O8 0.536339 0.484387 0.539536
O O9 0.419057 0.692997 0.886227
O O10 0.350897 0.932735 0.885144
O O11 0.388237 0.822700 0.042056
O O12 0.297695 0.321951 0.388531
O O13 0.279248 0.040983 0.402404
O O14 0.806936 0.959734 0.132539
O O15 0.714421 0.000000 0.250000
O O16 0.721510 0.500000 0.750000
O O17 0.598707 0.000000 0.750000
#
# Coordination Sequence:
#
# PCOD9334908 Si02
#       8
#     8   4   8   8   8   8   8   8
#     4  11  24  40  64  95 134 182 241 292 349 415
#     4  10  22  40  66  94 132 172 234 282 352 418
#     4  10  24  48  68  91 126 177 244 310 352 409
#     4  10  21  38  61  88 129 182 223 281 347 411
#     4  11  20  36  57  90 140 184 224 269 339 429
#     4  11  23  35  57  94 146 186 224 270 345 429
#     4  11  22  36  59  94 134 183 229 279 338 425
#     4  11  22  37  60  96 144 180 219 275 344 436
#
# _framework density 23.281388
#
# number of rings (size 3 to 8) (size 9 to 14) (size 15 to 20)
#    0.000    1.333    3.333    2.400    1.867    6.400 
#    3.600    0.667    0.000    4.800    0.000    0.000 
#    0.000    1.067    0.000    0.000    0.000    0.000 
#
# Total GULP energy -167395.897454 kJ/mol
# GULP energy per Si atom -5579.863248 kJ/mol
# Density = 2.322840 g / cm^3
# Si number density = 23.281388 Si / 1000 Ang^3
#
#
#
# Elastic Constant Matrix: (Units=GPa)
#
#
# Indices 1 2 3 4 5 6 
#
# 1 56.5238 46.6520 16.4047 0.0000 0.0000 0.0000
# 2 46.6520 164.6565 55.2677 0.0000 0.0000 0.0000
# 3 16.4047 55.2677 131.4838 0.0000 0.0000 0.0000
# 4 0.0000 0.0000 0.0000 40.1724 0.0000 0.0000
# 5 0.0000 0.0000 0.0000 0.0000 2.3136 0.0000
# 6 0.0000 0.0000 0.0000 0.0000 0.0000 3.6916
#
#
#
# Elastic Compliance Matrix: (Units=1/GPa)
#
#
# Indices 1 2 3 4 5 6 
#
# 1 0.023094 -0.006492 -0.000152 0.000000 0.000000 0.000000
# 2 -0.006492 0.008896 -0.002929 0.000000 0.000000 0.000000
# 3 -0.000152 -0.002929 0.008856 0.000000 0.000000 0.000000
# 4 0.000000 0.000000 0.000000 0.024893 0.000000 0.000000
# 5 0.000000 0.000000 0.000000 0.000000 0.432235 0.000000
# 6 0.000000 0.000000 0.000000 0.000000 0.000000 0.270886
#
#
# Mechanical properties :
#
#
# Convention : Reuss Voigt Hill
#
# Bulk Modulus (GPa) = 46.08689 65.47922 55.78305
# Shear Modulus (GPa) = 6.28741 24.85815 15.57278
#
# Velocity S-wave (km/s) = 1.64514 3.27115 2.58910
# Velocity P-wave (km/s) = 4.84223 6.51563 5.74024
#
# Compressibility (1/GPa) = 0.02169814
#
# Stress axis : x y z
#
# Youngs Moduli (GPa) = 43.30098 112.41164 112.92004
#
# Poissons Ratio (x) = 0.72978 0.01722
# Poissons Ratio (y) = 0.28111 0.33078
# Poissons Ratio (z) = 0.00660 0.32929
#
# Static dielectric constant tensor:
#      x y z
#    x 1.915990 0.000000 0.000000 
#    y 0.000000 2.006660 0.000000 
#    z 0.000000 0.000000 2.537230 
# 
# From -- ./inp_files/27848.got.cif
#   From: 2010.05.17/outbox.cif.g08.bks.cpg/sg24_14_cif.got.tgz:27848.got - 2010.06.04 00:33:39.
