data_PCOD9334395
_publ_section_title
;
Structure prediction by ZEFSAII (Michael W. Deem and Ramdas Pophale) SiO2 
 PCOD9334395
Probable space group: I 21 21 21
;
_chemical_formula_sum "Si O2"
_cell_formula_units_Z 48
_cell_length_a 11.353736
_cell_length_b 15.060157
_cell_length_c 13.228259
_cell_angle_alpha 90.000000
_cell_angle_beta 90.000000
_cell_angle_gamma 90.000000
_cell_volume 2261.887396
_symmetry_space_group_name_H-M "I 21 21 21"
_symmetry_group_IT_number 24
_symmetry_cell_setting 'orthorhombic'
loop_
_space_group_symop_operation_xyz
x,y,z
-x,1/2-y,z
x,-y,1/2-z
1/2-x,y,-z
1/2+x,1/2+y,1/2+z
1/2-x,-y,1/2+z
1/2+x,1/2-y,-z
-x,1/2+y,1/2-z
loop_
_atom_site_type_symbol
_atom_site_label
_atom_site_fract_x
_atom_site_fract_y
_atom_site_fract_z
Si Si1 0.786597 0.093573 0.727036
Si Si2 0.025353 0.649525 0.611867
Si Si3 0.685433 0.398832 0.264880
Si Si4 0.135348 0.239319 0.322705
Si Si5 0.064963 0.163833 0.532187
Si Si6 0.387504 0.521616 0.030222
O O1 0.857085 0.138414 0.819084
O O2 0.703739 0.168054 0.682230
O O3 0.881456 0.058331 0.645756
O O4 0.721778 0.000000 0.750000
O O5 0.050291 0.574002 0.528235
O O6 0.000000 0.750000 0.577970
O O7 0.916675 0.622585 0.684028
O O8 0.721767 0.500000 0.250000
O O9 0.793062 0.330830 0.255874
O O10 0.635022 0.383329 0.378323
O O11 0.135087 0.203755 0.437825
O O12 0.000000 0.250000 0.292053
O O13 0.000000 0.250000 0.579512
O O14 0.970942 0.095859 0.482735
O O15 0.250000 0.517818 0.000000
#
# Coordination Sequence:
#
# PCOD9334395 Si02
#       6
#     8   8   8   8   8   8
#     4  10  20  38  64  91 126 163 208 262 327 399
#     4  11  20  39  69  92 118 171 223 271 316 394
#     4  12  21  39  63  93 127 174 224 271 324 407
#     4  11  24  37  57  94 133 173 207 271 341 391
#     4  11  21  36  61  96 137 161 204 269 347 392
#     4  11  21  36  62  98 130 160 209 271 334 395
#
# _framework density 21.221215000000001
#
# number of rings (size 3 to 8) (size 9 to 14) (size 15 to 20)
#    0.000    1.000    5.000    4.500    0.000    2.000 
#    0.000    0.000    3.667    4.000    0.000    0.000 
#    0.000    0.000    0.000    0.000    0.000    0.000 
#
# Total GULP energy -134018.902970 kJ/mol
# GULP energy per Si atom -5584.120957 kJ/mol
# Density = 2.117291 g / cm^3
# Si number density = 21.221215 Si / 1000 Ang^3
#
#
#
# Elastic Constant Matrix: (Units=GPa)
#
#
# Indices 1 2 3 4 5 6 
#
# 1 119.7233 75.9582 15.2172 0.0000 0.0000 0.0000
# 2 75.9582 220.3627 25.8111 -0.0001 0.0000 0.0000
# 3 15.2172 25.8111 19.8415 -0.0001 0.0000 0.0000
# 4 0.0000 -0.0001 -0.0001 28.9336 0.0000 0.0000
# 5 0.0000 0.0000 0.0000 0.0000 22.3222 0.0000
# 6 0.0000 0.0000 0.0000 0.0000 0.0000 46.3787
#
#
#
# Elastic Compliance Matrix: (Units=1/GPa)
#
#
# Indices 1 2 3 4 5 6 
#
# 1 0.010969 -0.003298 -0.004122 0.000000 0.000000 0.000000
# 2 -0.003298 0.006345 -0.005725 0.000000 0.000000 0.000000
# 3 -0.004122 -0.005725 0.061008 0.000000 0.000000 0.000000
# 4 0.000000 0.000000 0.000000 0.034562 0.000000 0.000000
# 5 0.000000 0.000000 0.000000 0.000000 0.044798 0.000000
# 6 0.000000 0.000000 0.000000 0.000000 0.000000 0.021562
#
#
# Mechanical properties :
#
#
# Convention : Reuss Voigt Hill
#
# Bulk Modulus (GPa) = 19.21893 65.98895 42.60394
# Shear Modulus (GPa) = 22.43370 35.72298 29.07834
#
# Velocity S-wave (km/s) = 3.25489 4.10733 3.70570
# Velocity P-wave (km/s) = 4.81683 7.32508 6.19914
#
# Compressibility (1/GPa) = 0.05203204
#
# Stress axis : x y z
#
# Youngs Moduli (GPa) = 91.16565 157.59422 16.39126
#
# Poissons Ratio (x) = 0.51977 0.06757
# Poissons Ratio (y) = 0.30068 0.09384
# Poissons Ratio (z) = 0.37579 0.90223
#
# Static dielectric constant tensor:
#      x y z
#    x 1.810990 0.000000 0.000000 
#    y 0.000000 1.809690 0.000000 
#    z 0.000000 0.000000 1.814030 
# 
# From -- ./inp_files/20739.got.cif
#   From: 2010.05.17/outbox.cif.g08.bks.cpg/sg24_11_cif.got.tgz:20739.got - 2010.06.04 00:33:39.
