data_PCOD9334689
_publ_section_title
;
Structure prediction by ZEFSAII (Michael W. Deem and Ramdas Pophale) SiO2 
 PCOD9334689
Probable space group: I 21 21 21
;
_chemical_formula_sum "Si O2"
_cell_formula_units_Z 32
_cell_length_a 7.872144
_cell_length_b 29.284669
_cell_length_c 6.513673
_cell_angle_alpha 90.000000
_cell_angle_beta 90.000000
_cell_angle_gamma 90.000000
_cell_volume 1501.617433
_symmetry_space_group_name_H-M "I 21 21 21"
_symmetry_group_IT_number 24
_symmetry_cell_setting 'orthorhombic'
loop_
_space_group_symop_operation_xyz
x,y,z
-x,1/2-y,z
x,-y,1/2-z
1/2-x,y,-z
1/2+x,1/2+y,1/2+z
1/2-x,-y,1/2+z
1/2+x,1/2-y,-z
-x,1/2+y,1/2-z
loop_
_atom_site_type_symbol
_atom_site_label
_atom_site_fract_x
_atom_site_fract_y
_atom_site_fract_z
Si Si1 0.494128 0.872949 0.212774
Si Si2 0.250000 0.943157 0.000000
Si Si3 0.067369 0.798691 0.093027
Si Si4 0.750000 0.314461 0.000000
Si Si5 0.250000 0.428175 0.000000
Si Si6 0.019453 0.500000 0.250000
O O1 0.388567 0.842611 0.372202
O O2 0.647798 0.896827 0.336042
O O3 0.357017 0.911098 0.150405
O O4 0.535570 0.841310 0.010001
O O5 0.394004 0.973806 0.900662
O O6 0.122572 0.792400 0.331112
O O7 0.000000 0.750000 0.017535
O O8 0.250000 0.807876 0.000000
O O9 0.370729 0.462276 0.870586
#
# Coordination Sequence:
#
# PCOD9334689 Si02
#       6
#     8   4   8   4   4   4
#     4  11  23  43  70 101 140 191 229 299 357 437
#     4  12  22  47  72  92 140 190 238 274 369 432
#     4  10  23  43  69 100 142 183 242 291 356 426
#     4  10  20  43  67 100 128 200 232 284 354 440
#     4  12  26  42  69 110 148 172 250 306 369 408
#     4  12  26  44  70 104 136 188 236 304 348 436
#
# _framework density 21.310355999999999
#
# number of rings (size 3 to 8) (size 9 to 14) (size 15 to 20)
#    0.000    1.000    3.750    4.500    0.000    6.000 
#    0.000    1.250    0.000    0.000    0.000    0.000 
#    0.000    0.000    0.000    0.000    0.000    0.000 
#
# Total GULP energy -89111.549536 kJ/mol
# GULP energy per Si atom -5569.471846 kJ/mol
# Density = 2.126185 g / cm^3
# Si number density = 21.310356 Si / 1000 Ang^3
#
#
#
# Elastic Constant Matrix: (Units=GPa)
#
#
# Indices 1 2 3 4 5 6 
#
# 1 116.7669 59.5425 47.5061 -0.0003 -0.0001 0.0011
# 2 59.5425 101.9535 36.6322 -0.0009 -0.0008 0.0021
# 3 47.5061 36.6322 89.1296 -0.0020 -0.0015 0.0047
# 4 -0.0003 -0.0009 -0.0020 28.0634 -0.0012 0.0016
# 5 -0.0001 -0.0008 -0.0015 -0.0012 45.2334 0.0001
# 6 0.0011 0.0021 0.0047 0.0016 0.0001 58.2908
#
#
#
# Elastic Compliance Matrix: (Units=1/GPa)
#
#
# Indices 1 2 3 4 5 6 
#
# 1 0.013695 -0.006307 -0.004707 0.000000 0.000000 0.000000
# 2 -0.006307 0.014412 -0.002562 0.000000 0.000000 0.000000
# 3 -0.004707 -0.002562 0.014782 0.000001 0.000000 -0.000001
# 4 0.000000 0.000000 0.000001 0.035634 0.000001 -0.000001
# 5 0.000000 0.000000 0.000000 0.000001 0.022108 0.000000
# 6 0.000000 0.000000 -0.000001 -0.000001 0.000000 0.017155
#
#
# Mechanical properties :
#
#
# Convention : Reuss Voigt Hill
#
# Bulk Modulus (GPa) = 63.54556 66.13461 64.84008
# Shear Modulus (GPa) = 33.29259 37.26215 35.27737
#
# Velocity S-wave (km/s) = 3.95685 4.18610 4.07309
# Velocity P-wave (km/s) = 7.12456 7.38011 7.25346
#
# Compressibility (1/GPa) = 0.01573674
#
# Stress axis : x y z
#
# Youngs Moduli (GPa) = 73.01760 69.38576 67.65158
#
# Poissons Ratio (x) = 0.43761 0.31847
# Poissons Ratio (y) = 0.46051 0.17331
# Poissons Ratio (z) = 0.34373 0.17775
#
# Static dielectric constant tensor:
#      x y z
#    x 1.744290 -0.000010 -0.000010 
#    y -0.000010 1.501690 0.000040 
#    z -0.000010 0.000040 1.698570 
# 
# From -- ./inp_files/1233.got.cif
#   From: 2010.05.17/outbox.cif.g08.bks.cpg/sg24_1_cif.got.tgz:1233.got - 2010.06.04 00:33:39.
