data_PCOD9334772
_publ_section_title
;
Structure prediction by ZEFSAII (Michael W. Deem and Ramdas Pophale) SiO2 
 PCOD9334772
Probable space group: I 21 21 21
;
_chemical_formula_sum "Si O2"
_cell_formula_units_Z 48
_cell_length_a 31.813070
_cell_length_b 9.417379
_cell_length_c 7.688091
_cell_angle_alpha 90.000000
_cell_angle_beta 90.000000
_cell_angle_gamma 90.000000
_cell_volume 2303.319292
_symmetry_space_group_name_H-M "I 21 21 21"
_symmetry_group_IT_number 24
_symmetry_cell_setting 'orthorhombic'
loop_
_space_group_symop_operation_xyz
x,y,z
-x,1/2-y,z
x,-y,1/2-z
1/2-x,y,-z
1/2+x,1/2+y,1/2+z
1/2-x,-y,1/2+z
1/2+x,1/2-y,-z
-x,1/2+y,1/2-z
loop_
_atom_site_type_symbol
_atom_site_label
_atom_site_fract_x
_atom_site_fract_y
_atom_site_fract_z
Si Si1 0.297095 0.162310 0.958970
Si Si2 0.876699 0.161115 0.459582
Si Si3 0.959895 0.661664 0.959123
Si Si4 0.376699 0.661115 0.540418
Si Si5 0.959895 0.338335 0.959123
Si Si6 0.797095 0.662309 0.041030
O O1 0.334392 0.262053 0.024549
O O2 0.300670 0.156504 0.750000
O O3 0.301367 0.000000 0.024976
O O4 0.250000 0.212490 0.000000
O O5 0.917187 0.255221 0.501677
O O6 0.873787 0.154251 0.250000
O O7 0.834392 0.237948 0.524549
O O8 0.880990 0.000000 0.525034
O O9 0.959056 0.500000 0.025695
O O10 0.963738 0.654142 0.750000
O O11 0.000000 0.750000 0.025380
O O12 0.417187 0.755221 0.498323
O O13 0.000000 0.250000 0.025380
O O14 0.750000 0.712489 0.000000
#
# Coordination Sequence:
#
# PCOD9334772 Si02
#       6
#     8   8   8   8   8   8
#     4   9  18  33  52  74 102 136 174 216 260 307
#     4  10  21  36  54  78 108 141 177 216 259 309
#     4  10  21  37  57  80 106 137 174 216 262 312
#     4  10  21  36  54  78 108 141 177 216 259 309
#     4  10  21  37  57  80 106 137 174 216 262 312
#     4   9  18  33  52  74 102 136 174 216 260 307
#
# _framework density 20.839492
#
# number of rings (size 3 to 8) (size 9 to 14) (size 15 to 20)
#    0.000    2.333    0.000    2.000    0.000    6.667 
#    0.000    3.333    0.000    0.000    0.000    0.000 
#    0.000    0.000    0.000    0.000    0.000    0.000 
#
# Total GULP energy -134063.819620 kJ/mol
# GULP energy per Si atom -5585.992484 kJ/mol
# Density = 2.079206 g / cm^3
# Si number density = 20.839492 Si / 1000 Ang^3
#
#
#
# Elastic Constant Matrix: (Units=GPa)
#
#
# Indices 1 2 3 4 5 6 
#
# 1 224.6915 149.7621 -1.8026 0.0000 0.0000 0.0000
# 2 149.7621 206.4769 8.4149 0.0000 0.0000 0.0000
# 3 -1.8026 8.4149 34.8291 0.0000 0.0000 0.0000
# 4 0.0000 0.0000 0.0000 18.1867 0.0000 0.0000
# 5 0.0000 0.0000 0.0000 0.0000 29.4077 0.0000
# 6 0.0000 0.0000 0.0000 0.0000 0.0000 43.3236
#
#
#
# Elastic Compliance Matrix: (Units=1/GPa)
#
#
# Indices 1 2 3 4 5 6 
#
# 1 0.008752 -0.006430 0.002007 0.000000 0.000000 0.000000
# 2 -0.006430 0.009615 -0.002656 0.000000 0.000000 0.000000
# 3 0.002007 -0.002656 0.029457 0.000000 0.000000 0.000000
# 4 0.000000 0.000000 0.000000 0.054985 0.000000 0.000000
# 5 0.000000 0.000000 0.000000 0.000000 0.034005 0.000000
# 6 0.000000 0.000000 0.000000 0.000000 0.000000 0.023082
#
#
# Mechanical properties :
#
#
# Convention : Reuss Voigt Hill
#
# Bulk Modulus (GPa) = 29.70361 86.52736 58.11549
# Shear Modulus (GPa) = 26.98650 38.82516 32.90583
#
# Velocity S-wave (km/s) = 3.60247 4.32100 3.97799
# Velocity P-wave (km/s) = 5.62034 8.15510 7.00335
#
# Compressibility (1/GPa) = 0.03366594
#
# Stress axis : x y z
#
# Youngs Moduli (GPa) = 114.25336 104.00080 33.94762
#
# Poissons Ratio (x) = 0.66874 -0.06812
# Poissons Ratio (y) = 0.73466 0.09016
# Poissons Ratio (z) = -0.22926 0.27622
#
# Static dielectric constant tensor:
#      x y z
#    x 1.699260 0.000000 0.000000 
#    y 0.000000 1.740810 0.000000 
#    z 0.000000 0.000000 1.782620 
# 
# From -- ./inp_files/9750.got.cif
#   From: 2010.05.17/outbox.cif.g08.bks.cpg/sg24_5_cif.got.tgz:9750.got - 2010.06.04 00:33:39.
