data_PCOD9334110
_publ_section_title
;
Structure prediction by ZEFSAII (Michael W. Deem and Ramdas Pophale) SiO2 
 PCOD9334110
Probable space group: I 21 21 21
;
_chemical_formula_sum "Si O2"
_cell_formula_units_Z 48
_cell_length_a 15.205318
_cell_length_b 12.912118
_cell_length_c 13.253648
_cell_angle_alpha 90.000000
_cell_angle_beta 90.000000
_cell_angle_gamma 90.000000
_cell_volume 2602.126621
_symmetry_space_group_name_H-M "I 21 21 21"
_symmetry_group_IT_number 24
_symmetry_cell_setting 'orthorhombic'
loop_
_space_group_symop_operation_xyz
x,y,z
-x,1/2-y,z
x,-y,1/2-z
1/2-x,y,-z
1/2+x,1/2+y,1/2+z
1/2-x,-y,1/2+z
1/2+x,1/2-y,-z
-x,1/2+y,1/2-z
loop_
_atom_site_type_symbol
_atom_site_label
_atom_site_fract_x
_atom_site_fract_y
_atom_site_fract_z
Si Si1 0.083246 0.817108 0.362579
Si Si2 0.766073 0.235727 0.888591
Si Si3 0.889303 0.421832 0.927719
Si Si4 0.905323 0.799704 0.774689
Si Si5 0.823590 0.500000 0.250000
Si Si6 0.487977 0.500000 0.250000
Si Si7 0.800700 0.630477 0.904640
O O1 0.168771 0.744887 0.346052
O O2 0.072301 0.855672 0.479325
O O3 0.000000 0.750000 0.331584
O O4 0.111738 0.920902 0.306286
O O5 0.803695 0.353485 0.899354
O O6 0.840661 0.185339 0.820634
O O7 0.750000 0.191887 0.000000
O O8 0.859158 0.537958 0.952781
O O9 0.951252 0.440894 0.831427
O O10 0.930149 0.915250 0.808921
O O11 0.856317 0.718767 0.847981
O O12 0.000000 0.750000 0.750073
O O13 0.761424 0.569429 0.175856
O O14 0.750000 0.676953 0.000000
#
# Coordination Sequence:
#
# PCOD9334110 Si02
#       7
#     8   8   8   8   4   4   8
#     4  11  24  38  64  98 126 167 218 266 324 377
#     4  10  20  35  61  95 124 161 207 265 320 372
#     4  11  19  37  63  99 128 152 212 276 323 377
#     4  12  23  39  63  97 134 167 217 268 326 393
#     4  12  21  44  67  92 128 166 219 274 311 396
#     4  12  25  36  63 104 134 166 209 272 339 378
#     4  12  21  40  68  96 126 167 219 271 324 380
#
# _framework density 18.446449999999999
#
# number of rings (size 3 to 8) (size 9 to 14) (size 15 to 20)
#    0.000    0.667    8.333    1.000    4.667    0.000 
#    0.000    4.167    0.000    0.000    0.000    0.000 
#    0.000    0.000    0.000    0.000    0.000    0.000 
#
# Total GULP energy -133713.465818 kJ/mol
# GULP energy per Si atom -5571.394409 kJ/mol
# Density = 1.840447 g / cm^3
# Si number density = 18.446450 Si / 1000 Ang^3
#
#
#
# Elastic Constant Matrix: (Units=GPa)
#
#
# Indices 1 2 3 4 5 6 
#
# 1 127.9982 46.0604 47.8973 0.0000 0.0000 0.0000
# 2 46.0604 62.4323 10.6315 0.0000 0.0000 0.0000
# 3 47.8973 10.6315 75.9493 0.0000 0.0000 0.0000
# 4 0.0000 0.0000 0.0000 24.6383 0.0000 0.0000
# 5 0.0000 0.0000 0.0000 0.0000 24.6876 0.0000
# 6 0.0000 0.0000 0.0000 0.0000 0.0000 37.8593
#
#
#
# Elastic Compliance Matrix: (Units=1/GPa)
#
#
# Indices 1 2 3 4 5 6 
#
# 1 0.013817 -0.008922 -0.007464 0.000000 0.000000 0.000000
# 2 -0.008922 0.022170 0.002523 0.000000 0.000000 0.000000
# 3 -0.007464 0.002523 0.017521 0.000000 0.000000 0.000000
# 4 0.000000 0.000000 0.000000 0.040587 0.000000 0.000000
# 5 0.000000 0.000000 0.000000 0.000000 0.040506 0.000000
# 6 0.000000 0.000000 0.000000 0.000000 0.000000 0.026414
#
#
# Mechanical properties :
#
#
# Convention : Reuss Voigt Hill
#
# Bulk Modulus (GPa) = 38.78824 52.83980 45.81402
# Shear Modulus (GPa) = 25.33765 28.22307 26.78036
#
# Velocity S-wave (km/s) = 3.71020 3.91576 3.81437
# Velocity P-wave (km/s) = 6.27911 7.01081 6.65503
#
# Compressibility (1/GPa) = 0.02578101
#
# Stress axis : x y z
#
# Youngs Moduli (GPa) = 72.37722 45.10564 57.07485
#
# Poissons Ratio (x) = 0.40244 0.42603
# Poissons Ratio (y) = 0.64577 -0.14402
# Poissons Ratio (z) = 0.54025 -0.11382
#
# Static dielectric constant tensor:
#      x y z
#    x 1.673690 0.000000 0.000000 
#    y 0.000000 1.659460 0.000000 
#    z 0.000000 0.000000 1.704790 
# 
# From -- ./inp_files/25770.got.cif
#   From: 2010.05.17/outbox.cif.g08.bks.cpg/sg24_13_cif.got.tgz:25770.got - 2010.06.04 00:33:39.
