data_PCOD9334168
_publ_section_title
;
Structure prediction by ZEFSAII (Michael W. Deem and Ramdas Pophale) SiO2 
 PCOD9334168
Probable space group: I 21 21 21
;
_chemical_formula_sum "Si O2"
_cell_formula_units_Z 56
_cell_length_a 5.047547
_cell_length_b 31.363656
_cell_length_c 16.856605
_cell_angle_alpha 90.000000
_cell_angle_beta 90.000000
_cell_angle_gamma 90.000000
_cell_volume 2668.561177
_symmetry_space_group_name_H-M "I 21 21 21"
_symmetry_group_IT_number 24
_symmetry_cell_setting 'orthorhombic'
loop_
_space_group_symop_operation_xyz
x,y,z
-x,1/2-y,z
x,-y,1/2-z
1/2-x,y,-z
1/2+x,1/2+y,1/2+z
1/2-x,-y,1/2+z
1/2+x,1/2-y,-z
-x,1/2+y,1/2-z
loop_
_atom_site_type_symbol
_atom_site_label
_atom_site_fract_x
_atom_site_fract_y
_atom_site_fract_z
Si Si1 0.929262 0.135648 0.786995
Si Si2 0.239574 0.278182 0.758684
Si Si3 0.517042 0.086186 0.051990
Si Si4 0.227233 0.972383 0.829727
Si Si5 0.876206 0.797933 0.085596
Si Si6 0.573065 0.375890 0.683175
Si Si7 0.729362 0.993705 0.915836
O O1 0.778383 0.179128 0.809009
O O2 0.708487 0.116563 0.727296
O O3 0.005068 0.108512 0.863276
O O4 0.203555 0.143861 0.741039
O O5 0.500000 0.250000 0.762528
O O6 0.201499 0.291720 0.665680
O O7 0.000000 0.250000 0.784760
O O8 0.632675 0.039407 0.071993
O O9 0.250000 0.084768 0.000000
O O10 0.750000 0.107425 0.000000
O O11 0.321570 0.923430 0.833088
O O12 0.260229 0.000000 0.750000
O O13 0.425483 0.995900 0.890873
O O14 0.918946 0.972459 0.851749
O O15 0.000000 0.750000 0.076719
O O16 0.039958 0.840368 0.113341
O O17 0.750000 0.806983 0.000000
O O18 0.750000 0.970259 0.000000
#
# Coordination Sequence:
#
# PCOD9334168 Si02
#       7
#     8   8   8   8   8   8   8
#     4  11  21  40  62  89 125 155 201 262 310 373
#     4  10  20  36  59  87 116 156 200 242 306 373
#     4  11  22  38  63  93 121 158 206 255 314 381
#     4  12  23  40  64  91 125 166 211 260 318 386
#     4  10  21  38  60  87 122 160 210 265 317 370
#     4  11  24  39  62  93 123 166 214 262 324 388
#     4  11  23  41  60  86 123 163 203 252 314 377
#
# _framework density 20.98509
#
# number of rings (size 3 to 8) (size 9 to 14) (size 15 to 20)
#    0.000    1.143    0.000    9.000    0.000    1.714 
#    0.000    4.286    0.000    1.714    0.000    0.000 
#    0.000    0.000    0.000    0.000    0.000    0.000 
#
# Total GULP energy -156101.758541 kJ/mol
# GULP energy per Si atom -5575.062805 kJ/mol
# Density = 2.093733 g / cm^3
# Si number density = 20.985090 Si / 1000 Ang^3
#
#
#
# Elastic Constant Matrix: (Units=GPa)
#
#
# Indices 1 2 3 4 5 6 
#
# 1 77.7728 22.7328 15.7531 0.0000 0.0000 0.0000
# 2 22.7328 132.3442 42.8421 0.0000 0.0000 0.0000
# 3 15.7531 42.8421 59.3991 0.0000 0.0000 0.0000
# 4 0.0000 0.0000 0.0000 14.8008 0.0000 0.0000
# 5 0.0000 0.0000 0.0000 0.0000 43.6651 0.0000
# 6 0.0000 0.0000 0.0000 0.0000 0.0000 -438.2939
#
#
#
# Elastic Compliance Matrix: (Units=1/GPa)
#
#
# Indices 1 2 3 4 5 6 
#
# 1 0.013827 -0.001550 -0.002549 0.000000 0.000000 0.000000
# 2 -0.001550 0.010031 -0.006824 0.000000 0.000000 0.000000
# 3 -0.002549 -0.006824 0.022433 0.000000 0.000000 0.000000
# 4 0.000000 0.000000 0.000000 0.067564 0.000000 0.000000
# 5 0.000000 0.000000 0.000000 0.000000 0.022902 0.000000
# 6 0.000000 0.000000 0.000000 0.000000 0.000000 -0.002282
#
#
# Mechanical properties :
#
#
# Convention : Reuss Voigt Hill
#
# Bulk Modulus (GPa) = 40.90740 48.01912 44.46326
# Shear Modulus (GPa) = 30.40048 -63.41972 -16.50962
#
# Velocity S-wave (km/s) = 3.81027 -5.50336 -2.80792
# Velocity P-wave (km/s) = 6.23646 4.17737 3.27437
#
# Compressibility (1/GPa) = 0.02444545
#
# Stress axis : x y z
#
# Youngs Moduli (GPa) = 72.32042 99.68706 44.57648
#
# Poissons Ratio (x) = 0.15450 0.11364
# Poissons Ratio (y) = 0.11209 0.30420
# Poissons Ratio (z) = 0.18436 0.68028
#
# Static dielectric constant tensor:
#      x y z
#    x 1.772290 0.000000 0.000000 
#    y 0.000000 1.805090 0.000000 
#    z 0.000000 0.000000 1.778330 
# 
# From -- ./inp_files/24085.got.cif
#   From: 2010.05.17/outbox.cif.g08.bks.cpg/sg24_13_cif.got.tgz:24085.got - 2010.06.04 00:33:39.
