data_PCOD9334148
_publ_section_title
;
Structure prediction by ZEFSAII (Michael W. Deem and Ramdas Pophale) SiO2 
 PCOD9334148
Probable space group: I 21 21 21
;
_chemical_formula_sum "Si O2"
_cell_formula_units_Z 24
_cell_length_a 7.121723
_cell_length_b 17.078353
_cell_length_c 8.345781
_cell_angle_alpha 90.000000
_cell_angle_beta 90.000000
_cell_angle_gamma 90.000000
_cell_volume 1015.074804
_symmetry_space_group_name_H-M "I 21 21 21"
_symmetry_group_IT_number 24
_symmetry_cell_setting 'orthorhombic'
loop_
_space_group_symop_operation_xyz
x,y,z
-x,1/2-y,z
x,-y,1/2-z
1/2-x,y,-z
1/2+x,1/2+y,1/2+z
1/2-x,-y,1/2+z
1/2+x,1/2-y,-z
-x,1/2+y,1/2-z
loop_
_atom_site_type_symbol
_atom_site_label
_atom_site_fract_x
_atom_site_fract_y
_atom_site_fract_z
Si Si1 0.779098 0.582785 0.810887
Si Si2 0.785990 0.082986 0.809514
Si Si3 0.722304 0.748749 0.309180
O O1 0.699542 0.500000 0.750000
O O2 0.701115 0.666342 0.752217
O O3 0.994192 0.582878 0.743314
O O4 0.750000 0.581708 0.000000
O O5 0.709429 0.166585 0.746490
O O6 0.709995 0.000000 0.750000
O O7 0.750000 0.083864 0.000000
O O8 0.500000 0.750000 0.275500
O O9 0.750000 0.748030 0.500000
#
# Coordination Sequence:
#
# PCOD9334148 Si02
#       3
#     8   8   8
#     4  10  20  36  58  85 116 151 194 241 288 343
#     4   9  19  37  59  84 117 154 192 237 290 346
#     4   9  18  35  56  81 114 151 190 236 290 343
#
# _framework density 23.643578999999999
#
# number of rings (size 3 to 8) (size 9 to 14) (size 15 to 20)
#    0.000    2.667    0.000    1.000    0.000    1.333 
#    0.000   31.667    0.000    0.000    0.000    0.000 
#    0.000    0.000    0.000    0.000    0.000    0.000 
#
# Total GULP energy -66890.003717 kJ/mol
# GULP energy per Si atom -5574.166976 kJ/mol
# Density = 2.358977 g / cm^3
# Si number density = 23.643579 Si / 1000 Ang^3
#
#
#
# Elastic Constant Matrix: (Units=GPa)
#
#
# Indices 1 2 3 4 5 6 
#
# 1 159.4472 19.5377 14.3989 0.0000 0.0000 0.0000
# 2 19.5377 373.7863 70.1212 0.0001 0.0000 0.0000
# 3 14.3989 70.1212 94.8247 0.0002 0.0000 -0.0001
# 4 0.0000 0.0001 0.0002 50.8568 0.0000 0.0000
# 5 0.0000 0.0000 0.0000 0.0000 25.0642 0.0000
# 6 0.0000 0.0000 -0.0001 0.0000 0.0000 -69.5177
#
#
#
# Elastic Compliance Matrix: (Units=1/GPa)
#
#
# Indices 1 2 3 4 5 6 
#
# 1 0.006369 -0.000176 -0.000837 0.000000 0.000000 0.000000
# 2 -0.000176 0.003111 -0.002274 0.000000 0.000000 0.000000
# 3 -0.000837 -0.002274 0.012354 0.000000 0.000000 0.000000
# 4 0.000000 0.000000 0.000000 0.019663 0.000000 0.000000
# 5 0.000000 0.000000 0.000000 0.000000 0.039898 0.000000
# 6 0.000000 0.000000 0.000000 0.000000 0.000000 -0.014385
#
#
# Mechanical properties :
#
#
# Convention : Reuss Voigt Hill
#
# Bulk Modulus (GPa) = 65.52788 92.90820 79.21804
# Shear Modulus (GPa) = 63.55615 36.21401 49.88508
#
# Velocity S-wave (km/s) = 5.19031 3.91789 4.59832
# Velocity P-wave (km/s) = 7.98086 7.73609 7.85943
#
# Compressibility (1/GPa) = 0.01526068
#
# Stress axis : x y z
#
# Youngs Moduli (GPa) = 157.01531 321.43038 80.94299
#
# Poissons Ratio (x) = 0.05653 0.06775
# Poissons Ratio (y) = 0.02761 0.18406
# Poissons Ratio (z) = 0.13143 0.73090
#
# Static dielectric constant tensor:
#      x y z
#    x 1.845250 0.000000 0.000000 
#    y 0.000000 1.979040 0.000000 
#    z 0.000000 0.000000 1.820320 
# 
# From -- ./inp_files/1689.got.cif
#   From: 2010.05.17/outbox.cif.g08.bks.cpg/sg24_1_cif.got.tgz:1689.got - 2010.06.04 00:33:39.
