data_PCOD9334741
_publ_section_title
;
Structure prediction by ZEFSAII (Michael W. Deem and Ramdas Pophale) SiO2 
 PCOD9334741
Probable space group: I 21 21 21
;
_chemical_formula_sum "Si O2"
_cell_formula_units_Z 40
_cell_length_a 8.136711
_cell_length_b 7.820480
_cell_length_c 28.193792
_cell_angle_alpha 90.000000
_cell_angle_beta 90.000000
_cell_angle_gamma 90.000000
_cell_volume 1794.055162
_symmetry_space_group_name_H-M "I 21 21 21"
_symmetry_group_IT_number 24
_symmetry_cell_setting 'orthorhombic'
loop_
_space_group_symop_operation_xyz
x,y,z
-x,1/2-y,z
x,-y,1/2-z
1/2-x,y,-z
1/2+x,1/2+y,1/2+z
1/2-x,-y,1/2+z
1/2+x,1/2-y,-z
-x,1/2+y,1/2-z
loop_
_atom_site_type_symbol
_atom_site_label
_atom_site_fract_x
_atom_site_fract_y
_atom_site_fract_z
Si Si1 0.541101 0.556214 0.300192
Si Si2 0.875593 0.560492 0.095509
Si Si3 0.693624 0.937887 0.946530
Si Si4 0.066432 0.059544 0.198222
Si Si5 0.007077 0.945642 0.899915
O O1 0.500000 0.750000 0.311225
O O2 0.468369 0.500000 0.250000
O O3 0.737165 0.551410 0.296872
O O4 0.480666 0.443157 0.343498
O O5 0.836719 0.756035 0.080169
O O6 0.952934 0.542420 0.148518
O O7 0.691035 0.481943 0.093233
O O8 0.012442 0.483113 0.060234
O O9 0.847326 0.032709 0.922306
O O10 0.750000 0.907668 0.000000
O O11 0.000000 0.250000 0.190208
O O12 0.998464 0.000000 0.250000
O O13 0.000000 0.750000 0.918505
#
# Coordination Sequence:
#
# PCOD9334741 Si02
#       5
#     8   8   8   8   8
#     4  10  21  37  57  87 119 157 203 248 307 373
#     4   9  21  36  56  90 127 149 206 257 307 366
#     4  10  21  34  62  91 118 158 209 256 312 357
#     4  10  23  40  61  89 128 167 205 255 315 376
#     4   9  19  36  56  84 121 155 193 253 306 358
#
# _framework density 22.295860000000001
#
# number of rings (size 3 to 8) (size 9 to 14) (size 15 to 20)
#    0.000    2.400    0.000    0.600   14.000    2.400 
#    0.000    0.000    0.000    2.400    0.000    0.000 
#    0.000    0.000    0.000    0.000    0.000    0.000 
#
# Total GULP energy -111341.496028 kJ/mol
# GULP energy per Si atom -5567.074801 kJ/mol
# Density = 2.224511 g / cm^3
# Si number density = 22.295860 Si / 1000 Ang^3
#
#
#
# Elastic Constant Matrix: (Units=GPa)
#
#
# Indices 1 2 3 4 5 6 
#
# 1 118.2412 -1.3793 72.9624 0.0000 0.0000 0.0000
# 2 -1.3793 46.2132 34.0391 -0.0001 0.0000 0.0000
# 3 72.9624 34.0391 155.6397 0.0000 0.0000 0.0000
# 4 0.0000 -0.0001 0.0000 18.4499 0.0000 0.0000
# 5 0.0000 0.0000 0.0000 0.0000 33.2517 0.0000
# 6 0.0000 0.0000 0.0000 0.0000 0.0000 9.1065
#
#
#
# Elastic Compliance Matrix: (Units=1/GPa)
#
#
# Indices 1 2 3 4 5 6 
#
# 1 0.013109 0.005862 -0.007427 0.000000 0.000000 0.000000
# 2 0.005862 0.028415 -0.008963 0.000000 0.000000 0.000000
# 3 -0.007427 -0.008963 0.011867 0.000000 0.000000 0.000000
# 4 0.000000 0.000000 0.000000 0.054201 0.000000 0.000000
# 5 0.000000 0.000000 0.000000 0.000000 0.030074 0.000000
# 6 0.000000 0.000000 0.000000 0.000000 0.000000 0.109811
#
#
# Mechanical properties :
#
#
# Convention : Reuss Voigt Hill
#
# Bulk Modulus (GPa) = 30.92589 59.03760 44.98174
# Shear Modulus (GPa) = 17.90118 26.45976 22.18047
#
# Velocity S-wave (km/s) = 2.83661 3.44867 3.15751
# Velocity P-wave (km/s) = 4.96279 6.51110 5.78894
#
# Compressibility (1/GPa) = 0.03233537
#
# Stress axis : x y z
#
# Youngs Moduli (GPa) = 76.28458 35.19225 84.26646
#
# Poissons Ratio (x) = -0.20630 0.62587
# Poissons Ratio (y) = -0.44718 0.75525
# Poissons Ratio (z) = 0.56659 0.31541
#
# Static dielectric constant tensor:
#      x y z
#    x 1.930000 0.000000 0.000000 
#    y 0.000000 1.876390 0.000000 
#    z 0.000000 0.000000 1.857540 
# 
# From -- ./inp_files/35016.got.cif
#   From: 2010.05.17/outbox.cif.g08.bks.cpg/sg24_18_cif.got.tgz:35016.got - 2010.06.04 00:33:39.
