data_PCOD9334826
_publ_section_title
;
Structure prediction by ZEFSAII (Michael W. Deem and Ramdas Pophale) SiO2 
 PCOD9334826
Probable space group: I 21 21 21
;
_chemical_formula_sum "Si O2"
_cell_formula_units_Z 56
_cell_length_a 15.652805
_cell_length_b 8.032814
_cell_length_c 21.348715
_cell_angle_alpha 90.000000
_cell_angle_beta 90.000000
_cell_angle_gamma 90.000000
_cell_volume 2684.303548
_symmetry_space_group_name_H-M "I 21 21 21"
_symmetry_group_IT_number 24
_symmetry_cell_setting 'orthorhombic'
loop_
_space_group_symop_operation_xyz
x,y,z
-x,1/2-y,z
x,-y,1/2-z
1/2-x,y,-z
1/2+x,1/2+y,1/2+z
1/2-x,-y,1/2+z
1/2+x,1/2-y,-z
-x,1/2+y,1/2-z
loop_
_atom_site_type_symbol
_atom_site_label
_atom_site_fract_x
_atom_site_fract_y
_atom_site_fract_z
Si Si1 0.582052 0.647567 0.424736
Si Si2 0.769272 0.090720 0.185887
Si Si3 0.812244 0.976047 0.557833
Si Si4 0.881181 0.404594 0.316995
Si Si5 0.434003 0.527600 0.855315
Si Si6 0.532798 0.929938 0.991902
Si Si7 0.799986 0.463190 0.821064
O O1 0.500000 0.750000 0.398616
O O2 0.651105 0.786357 0.444980
O O3 0.543053 0.545261 0.482647
O O4 0.625892 0.532664 0.372644
O O5 0.732565 0.998852 0.124459
O O6 0.731566 0.273198 0.183127
O O7 0.746342 0.000000 0.250000
O O8 0.871904 0.098748 0.179832
O O9 0.750000 0.006391 0.500000
O O10 0.897238 0.083553 0.546597
O O11 0.877770 0.500000 0.250000
O O12 0.903611 0.208302 0.327558
O O13 0.784444 0.432613 0.340636
O O14 0.964709 0.489069 0.347241
O O15 0.421638 0.504300 0.929494
O O16 0.500000 0.750000 0.973575
O O17 0.828046 0.500000 0.750000
#
# Coordination Sequence:
#
# PCOD9334826 Si02
#       7
#     8   8   8   8   8   8   8
#     4   9  22  43  65  88 125 163 215 264 316 388
#     4  11  22  38  65  93 125 166 213 266 318 381
#     4  10  21  42  64  90 124 171 215 256 319 387
#     4  10  21  37  58  87 130 165 209 259 307 381
#     4  11  22  39  58  87 130 173 211 253 321 376
#     4  11  22  41  61  92 127 163 210 271 315 377
#     4  10  22  41  63  94 126 162 213 266 320 384
#
# _framework density 20.862020000000001
#
# number of rings (size 3 to 8) (size 9 to 14) (size 15 to 20)
#    0.000    1.714    2.857    2.143    0.000    7.429 
#    2.571    7.143    0.000    0.000    0.000    0.000 
#    0.000    0.000    0.000    0.000    0.000    0.000 
#
# Total GULP energy -156157.991428 kJ/mol
# GULP energy per Si atom -5577.071122 kJ/mol
# Density = 2.081454 g / cm^3
# Si number density = 20.862020 Si / 1000 Ang^3
#
#
#
# Elastic Constant Matrix: (Units=GPa)
#
#
# Indices 1 2 3 4 5 6 
#
# 1 62.1212 7.0655 32.6899 0.0000 0.0000 0.0000
# 2 7.0655 30.8611 23.1247 0.0000 0.0000 0.0000
# 3 32.6899 23.1247 114.1138 0.0000 0.0000 0.0000
# 4 0.0000 0.0000 0.0000 21.5488 0.0000 0.0000
# 5 0.0000 0.0000 0.0000 0.0000 40.4648 0.0000
# 6 0.0000 0.0000 0.0000 0.0000 0.0000 22.0129
#
#
#
# Elastic Compliance Matrix: (Units=1/GPa)
#
#
# Indices 1 2 3 4 5 6 
#
# 1 0.018958 -0.000319 -0.005366 0.000000 0.000000 0.000000
# 2 -0.000319 0.038210 -0.007652 0.000000 0.000000 0.000000
# 3 -0.005366 -0.007652 0.011851 0.000000 0.000000 0.000000
# 4 0.000000 0.000000 0.000000 0.046406 0.000000 0.000000
# 5 0.000000 0.000000 0.000000 0.000000 0.024713 0.000000
# 6 0.000000 0.000000 0.000000 0.000000 0.000000 0.045428
#
#
# Mechanical properties :
#
#
# Convention : Reuss Voigt Hill
#
# Bulk Modulus (GPa) = 23.61588 36.98403 30.29996
# Shear Modulus (GPa) = 22.08928 26.41971 24.25450
#
# Velocity S-wave (km/s) = 3.25749 3.56252 3.41341
# Velocity P-wave (km/s) = 5.04906 5.88969 5.48550
#
# Compressibility (1/GPa) = 0.04234438
#
# Stress axis : x y z
#
# Youngs Moduli (GPa) = 52.74919 26.17131 84.38155
#
# Poissons Ratio (x) = 0.00836 0.45279
# Poissons Ratio (y) = 0.01685 0.64565
# Poissons Ratio (z) = 0.28305 0.20025
#
# Static dielectric constant tensor:
#      x y z
#    x 1.790710 0.000000 0.000000 
#    y 0.000000 1.780900 0.000000 
#    z 0.000000 0.000000 1.768810 
# 
# From -- ./inp_files/25077.got.cif
#   From: 2010.05.17/outbox.cif.g08.bks.cpg/sg24_13_cif.got.tgz:25077.got - 2010.06.04 00:33:39.
