data_PCOD9334378
_publ_section_title
;
Structure prediction by ZEFSAII (Michael W. Deem and Ramdas Pophale) SiO2 
 PCOD9334378
Probable space group: I 21 21 21
;
_chemical_formula_sum "Si O2"
_cell_formula_units_Z 48
_cell_length_a 33.355863
_cell_length_b 8.103661
_cell_length_c 9.190420
_cell_angle_alpha 90.000000
_cell_angle_beta 90.000000
_cell_angle_gamma 90.000000
_cell_volume 2484.212858
_symmetry_space_group_name_H-M "I 21 21 21"
_symmetry_group_IT_number 24
_symmetry_cell_setting 'orthorhombic'
loop_
_space_group_symop_operation_xyz
x,y,z
-x,1/2-y,z
x,-y,1/2-z
1/2-x,y,-z
1/2+x,1/2+y,1/2+z
1/2-x,-y,1/2+z
1/2+x,1/2-y,-z
-x,1/2+y,1/2-z
loop_
_atom_site_type_symbol
_atom_site_label
_atom_site_fract_x
_atom_site_fract_y
_atom_site_fract_z
Si Si1 0.953438 0.709781 0.995427
Si Si2 0.291737 0.336533 0.580854
Si Si3 0.420854 0.000000 0.750000
Si Si4 0.120768 0.560813 0.079563
Si Si5 0.872841 0.307213 0.009398
Si Si6 0.085621 0.000000 0.750000
Si Si7 0.287243 0.739069 0.595650
O O1 0.940269 0.628661 0.843407
O O2 0.000000 0.750000 0.987598
O O3 0.947722 0.582759 0.127642
O O4 0.920487 0.848046 0.039706
O O5 0.250000 0.291543 0.500000
O O6 0.339812 0.325981 0.541892
O O7 0.289743 0.537886 0.586492
O O8 0.286944 0.240410 0.732144
O O9 0.393882 0.127571 0.842617
O O10 0.123890 0.500000 0.250000
O O11 0.120851 0.388568 0.993276
O O12 0.825816 0.325868 0.030763
O O13 0.888732 0.404917 0.871152
O O14 0.250000 0.791759 0.500000
#
# Coordination Sequence:
#
# PCOD9334378 Si02
#       7
#     8   8   4   8   8   4   8
#     4  11  25  41  65  93 125 163 210 262 323 381
#     4   9  16  29  53  88 124 149 193 258 317 351
#     4  10  20  38  63  88 118 160 201 256 314 378
#     4  11  19  38  65  95 121 160 214 265 307 372
#     4  10  20  39  62  84 124 163 207 256 310 379
#     4  10  26  44  57  88 126 170 201 254 334 378
#     4   9  16  29  50  80 117 158 196 247 297 364
#
# _framework density 19.322016000000001
#
# number of rings (size 3 to 8) (size 9 to 14) (size 15 to 20)
#    0.000    2.000    5.000    0.000    1.167    3.333 
#    0.000    7.500    0.000    4.000    0.000    0.000 
#    0.000    0.000    0.000    0.000    0.000    0.000 
#
# Total GULP energy -133637.575151 kJ/mol
# GULP energy per Si atom -5568.232298 kJ/mol
# Density = 1.927804 g / cm^3
# Si number density = 19.322016 Si / 1000 Ang^3
#
#
#
# Elastic Constant Matrix: (Units=GPa)
#
#
# Indices 1 2 3 4 5 6 
#
# 1 213.1720 48.8929 77.6344 0.0000 0.0000 0.0000
# 2 48.8929 35.9582 26.0207 0.0000 0.0000 0.0000
# 3 77.6344 26.0207 88.3236 0.0000 0.0000 0.0000
# 4 0.0000 0.0000 0.0000 14.9962 0.0000 0.0000
# 5 0.0000 0.0000 0.0000 0.0000 13.1987 0.0000
# 6 0.0000 0.0000 0.0000 0.0000 0.0000 12.5347
#
#
#
# Elastic Compliance Matrix: (Units=1/GPa)
#
#
# Indices 1 2 3 4 5 6 
#
# 1 0.008264 -0.007601 -0.005025 0.000000 0.000000 0.000000
# 2 -0.007601 0.042336 -0.005791 0.000000 0.000000 0.000000
# 3 -0.005025 -0.005791 0.017445 0.000000 0.000000 0.000000
# 4 0.000000 0.000000 0.000000 0.066684 0.000000 0.000000
# 5 0.000000 0.000000 0.000000 0.000000 0.075765 0.000000
# 6 0.000000 0.000000 0.000000 0.000000 0.000000 0.079779
#
#
# Mechanical properties :
#
#
# Convention : Reuss Voigt Hill
#
# Bulk Modulus (GPa) = 32.04013 71.39443 51.71728
# Shear Modulus (GPa) = 14.81432 20.47297 17.64365
#
# Velocity S-wave (km/s) = 2.77195 3.25863 3.02509
# Velocity P-wave (km/s) = 5.18297 7.15459 6.24705
#
# Compressibility (1/GPa) = 0.03121086
#
# Stress axis : x y z
#
# Youngs Moduli (GPa) = 121.00070 23.62052 57.32317
#
# Poissons Ratio (x) = 0.17954 0.28804
# Poissons Ratio (y) = 0.91973 0.33198
# Poissons Ratio (z) = 0.60802 0.13679
#
# Static dielectric constant tensor:
#      x y z
#    x 1.699620 0.000000 0.000000 
#    y 0.000000 1.726310 0.000000 
#    z 0.000000 0.000000 1.676520 
# 
# From -- ./inp_files/16858.got.cif
#   From: 2010.05.17/outbox.cif.g08.bks.cpg/sg24_9_cif.got.tgz:16858.got - 2010.06.04 00:33:39.
