data_PCOD9334205
_publ_section_title
;
Structure prediction by ZEFSAII (Michael W. Deem and Ramdas Pophale) SiO2 
 PCOD9334205
Probable space group: I 21 21 21
;
_chemical_formula_sum "Si O2"
_cell_formula_units_Z 32
_cell_length_a 13.132004
_cell_length_b 8.575135
_cell_length_c 11.390843
_cell_angle_alpha 90.000000
_cell_angle_beta 90.000000
_cell_angle_gamma 90.000000
_cell_volume 1282.708103
_symmetry_space_group_name_H-M "I 21 21 21"
_symmetry_group_IT_number 24
_symmetry_cell_setting 'orthorhombic'
loop_
_space_group_symop_operation_xyz
x,y,z
-x,1/2-y,z
x,-y,1/2-z
1/2-x,y,-z
1/2+x,1/2+y,1/2+z
1/2-x,-y,1/2+z
1/2+x,1/2-y,-z
-x,1/2+y,1/2-z
loop_
_atom_site_type_symbol
_atom_site_label
_atom_site_fract_x
_atom_site_fract_y
_atom_site_fract_z
Si Si1 0.250000 0.504568 0.500000
Si Si2 0.171882 0.118049 0.598362
Si Si3 0.523409 0.914846 0.942698
Si Si4 0.684012 0.267473 0.150254
Si Si5 0.500000 0.250000 0.964058
O O1 0.139210 0.423522 0.488903
O O2 0.251840 0.621978 0.612889
O O3 0.250000 0.171590 0.500000
O O4 0.164295 0.228146 0.711566
O O5 0.058615 0.093965 0.548973
O O6 0.217359 0.946079 0.629437
O O7 0.500000 0.750000 0.878523
O O8 0.500502 0.087901 0.892557
O O9 0.592772 0.247929 0.057147
#
# Coordination Sequence:
#
# PCOD9334205 Si02
#       5
#     4   8   8   8   4
#     4  10  20  42  66 106 144 182 234 304 386 436
#     4  10  20  36  64 103 142 184 243 297 359 441
#     4  10  22  38  65 101 137 180 230 294 361 432
#     4   9  18  36  65 101 136 187 233 299 369 429
#     4   8  18  38  60  96 132 172 230 292 354 406
#
# _framework density 24.947220999999999
#
# number of rings (size 3 to 8) (size 9 to 14) (size 15 to 20)
#    0.000    2.500    1.250    0.000    3.500    0.000 
#    4.500    0.000    0.000    6.000    0.000    0.000 
#    0.000    0.000    0.000    0.000    0.000    0.000 
#
# Total GULP energy -89153.201057 kJ/mol
# GULP energy per Si atom -5572.075066 kJ/mol
# Density = 2.489044 g / cm^3
# Si number density = 24.947221 Si / 1000 Ang^3
#
#
#
# Elastic Constant Matrix: (Units=GPa)
#
#
# Indices 1 2 3 4 5 6 
#
# 1 157.5302 58.4448 32.2080 0.0000 0.0000 0.0000
# 2 58.4448 205.6367 32.2750 0.0000 0.0000 0.0000
# 3 32.2080 32.2750 43.2452 0.0000 0.0000 0.0000
# 4 0.0000 0.0000 0.0000 -38.6765 0.0000 0.0000
# 5 0.0000 0.0000 0.0000 0.0000 3.4403 0.0000
# 6 0.0000 0.0000 0.0000 0.0000 0.0000 7.7242
#
#
#
# Elastic Compliance Matrix: (Units=1/GPa)
#
#
# Indices 1 2 3 4 5 6 
#
# 1 0.007873 -0.001492 -0.004750 0.000000 0.000000 0.000000
# 2 -0.001492 0.005791 -0.003211 0.000000 0.000000 0.000000
# 3 -0.004750 -0.003211 0.029058 0.000000 0.000000 0.000000
# 4 0.000000 0.000000 0.000000 -0.025856 0.000000 0.000000
# 5 0.000000 0.000000 0.000000 0.000000 0.290672 0.000000
# 6 0.000000 0.000000 0.000000 0.000000 0.000000 0.129464
#
#
# Mechanical properties :
#
#
# Convention : Reuss Voigt Hill
#
# Bulk Modulus (GPa) = 41.98820 72.47418 57.23119
# Shear Modulus (GPa) = 10.77946 13.39657 12.08801
#
# Velocity S-wave (km/s) = 2.08093 2.31983 2.20362
# Velocity P-wave (km/s) = 4.75826 6.02408 5.42820
#
# Compressibility (1/GPa) = 0.02381621
#
# Stress axis : x y z
#
# Youngs Moduli (GPa) = 127.02172 172.68413 34.41429
#
# Poissons Ratio (x) = 0.25765 0.16346
# Poissons Ratio (y) = 0.18952 0.11049
# Poissons Ratio (z) = 0.60333 0.55443
#
# Static dielectric constant tensor:
#      x y z
#    x 1.984450 0.000000 0.000000 
#    y 0.000000 2.255500 0.000000 
#    z 0.000000 0.000000 1.940060 
# 
# From -- ./inp_files/20373.got.cif
#   From: 2010.05.17/outbox.cif.g08.bks.cpg/sg24_11_cif.got.tgz:20373.got - 2010.06.04 00:33:39.
