data_PCOD9334547
_publ_section_title
;
Structure prediction by ZEFSAII (Michael W. Deem and Ramdas Pophale) SiO2 
 PCOD9334547
Probable space group: I 21 21 21
;
_chemical_formula_sum "Si O2"
_cell_formula_units_Z 48
_cell_length_a 5.780801
_cell_length_b 25.126884
_cell_length_c 15.124989
_cell_angle_alpha 90.000000
_cell_angle_beta 90.000000
_cell_angle_gamma 90.000000
_cell_volume 2196.957834
_symmetry_space_group_name_H-M "I 21 21 21"
_symmetry_group_IT_number 24
_symmetry_cell_setting 'orthorhombic'
loop_
_space_group_symop_operation_xyz
x,y,z
-x,1/2-y,z
x,-y,1/2-z
1/2-x,y,-z
1/2+x,1/2+y,1/2+z
1/2-x,-y,1/2+z
1/2+x,1/2-y,-z
-x,1/2+y,1/2-z
loop_
_atom_site_type_symbol
_atom_site_label
_atom_site_fract_x
_atom_site_fract_y
_atom_site_fract_z
Si Si1 0.671250 0.457264 0.695819
Si Si2 0.250000 0.604189 0.000000
Si Si3 0.345237 0.827135 0.587827
Si Si4 0.250000 0.603286 0.500000
Si Si5 0.837895 0.857013 0.188642
Si Si6 0.513225 0.089097 0.167613
Si Si7 0.500000 0.250000 0.765020
Si Si8 0.750000 0.544129 0.000000
O O1 0.517142 0.500000 0.750000
O O2 0.550959 0.399381 0.689117
O O3 0.731976 0.479729 0.598902
O O4 0.884959 0.447493 0.761755
O O5 0.262489 0.636455 0.091102
O O6 0.497004 0.573206 0.001806
O O7 0.250000 0.799502 0.500000
O O8 0.574362 0.857598 0.552939
O O9 0.353609 0.785288 0.666446
O O10 0.176924 0.873261 0.621789
O O11 0.144139 0.568218 0.579757
O O12 0.680555 0.876363 0.269826
O O13 0.888965 0.795584 0.205859
#
# Coordination Sequence:
#
# PCOD9334547 Si02
#       8
#     8   4   8   4   8   8   4   4
#     4  11  24  46  69 100 140 180 240 295 366 427
#     4  10  22  46  76  96 144 180 246 296 368 430
#     4  10  23  36  59  91 135 183 223 271 346 417
#     4  10  20  40  61  93 142 177 229 276 354 416
#     4  11  24  44  69 100 137 187 231 302 349 430
#     4  11  20  43  64  98 133 184 228 295 338 427
#     4  12  22  40  62  98 136 182 230 282 352 412
#     4  10  22  46  75 103 134 193 231 302 370 440
#
# _framework density 21.848393999999999
#
# number of rings (size 3 to 8) (size 9 to 14) (size 15 to 20)
#    0.000    1.333    5.000    0.000    1.167    1.333 
#    7.500    5.000    0.000    0.000    0.000    0.000 
#    0.000    0.000    0.000    0.000    0.000    0.000 
#
# Total GULP energy -133686.085959 kJ/mol
# GULP energy per Si atom -5570.253582 kJ/mol
# Density = 2.179867 g / cm^3
# Si number density = 21.848394 Si / 1000 Ang^3
#
#
#
# Elastic Constant Matrix: (Units=GPa)
#
#
# Indices 1 2 3 4 5 6 
#
# 1 69.4197 16.6649 44.8452 0.0000 0.0000 0.0000
# 2 16.6649 57.1416 34.5944 0.0000 0.0000 0.0000
# 3 44.8452 34.5944 220.1420 0.0000 0.0000 0.0000
# 4 0.0000 0.0000 0.0000 15.7858 0.0000 0.0000
# 5 0.0000 0.0000 0.0000 0.0000 39.8710 0.0000
# 6 0.0000 0.0000 0.0000 0.0000 0.0000 -5.3834
#
#
#
# Elastic Compliance Matrix: (Units=1/GPa)
#
#
# Indices 1 2 3 4 5 6 
#
# 1 0.017095 -0.003180 -0.002983 0.000000 0.000000 0.000000
# 2 -0.003180 0.019932 -0.002484 0.000000 0.000000 0.000000
# 3 -0.002983 -0.002484 0.005541 0.000000 0.000000 0.000000
# 4 0.000000 0.000000 0.000000 0.063348 0.000000 0.000000
# 5 0.000000 0.000000 0.000000 0.000000 0.025081 0.000000
# 6 0.000000 0.000000 0.000000 0.000000 0.000000 -0.185755
#
#
# Mechanical properties :
#
#
# Convention : Reuss Voigt Hill
#
# Bulk Modulus (GPa) = 39.56701 59.87914 49.72307
# Shear Modulus (GPa) = -172.17628 26.76128 -72.70750
#
# Velocity S-wave (km/s) = -8.88685 3.50360 -5.77498
# Velocity P-wave (km/s) = 9.33554 6.62066 4.65399
#
# Compressibility (1/GPa) = 0.02527358
#
# Stress axis : x y z
#
# Youngs Moduli (GPa) = 58.49532 50.17079 180.48693
#
# Poissons Ratio (x) = 0.15954 0.53836
# Poissons Ratio (y) = 0.18601 0.44841
# Poissons Ratio (z) = 0.17448 0.12465
#
# Static dielectric constant tensor:
#      x y z
#    x 1.925930 0.000000 0.000000 
#    y 0.000000 1.848660 0.000000 
#    z 0.000000 0.000000 1.856590 
# 
# From -- ./inp_files/23976.got.cif
#   From: 2010.05.17/outbox.cif.g08.bks.cpg/sg24_12_cif.got.tgz:23976.got - 2010.06.04 00:33:39.
