data_PCOD9334410
_publ_section_title
;
Structure prediction by ZEFSAII (Michael W. Deem and Ramdas Pophale) SiO2 
 PCOD9334410
Probable space group: I 21 21 21
;
_chemical_formula_sum "Si O2"
_cell_formula_units_Z 40
_cell_length_a 13.799687
_cell_length_b 14.063068
_cell_length_c 8.963647
_cell_angle_alpha 90.000000
_cell_angle_beta 90.000000
_cell_angle_gamma 90.000000
_cell_volume 1739.538551
_symmetry_space_group_name_H-M "I 21 21 21"
_symmetry_group_IT_number 24
_symmetry_cell_setting 'orthorhombic'
loop_
_space_group_symop_operation_xyz
x,y,z
-x,1/2-y,z
x,-y,1/2-z
1/2-x,y,-z
1/2+x,1/2+y,1/2+z
1/2-x,-y,1/2+z
1/2+x,1/2-y,-z
-x,1/2+y,1/2-z
loop_
_atom_site_type_symbol
_atom_site_label
_atom_site_fract_x
_atom_site_fract_y
_atom_site_fract_z
Si Si1 0.241261 0.715620 0.670429
Si Si2 0.988927 0.514630 0.080876
Si Si3 0.096538 0.624621 0.866679
Si Si4 0.354123 0.200006 0.575793
Si Si5 0.058316 0.159919 0.891636
O O1 0.250000 0.685370 0.500000
O O2 0.193475 0.633338 0.770328
O O3 0.332332 0.757422 0.759732
O O4 0.161153 0.800548 0.662254
O O5 0.019012 0.500000 0.250000
O O6 0.919614 0.606868 0.077584
O O7 0.935390 0.424532 0.008902
O O8 0.079041 0.535869 0.972555
O O9 0.006748 0.630176 0.751225
O O10 0.101972 0.715968 0.975139
O O11 0.250000 0.177947 0.500000
O O12 0.000000 0.250000 0.957590
#
# Coordination Sequence:
#
# PCOD9334410 Si02
#       5
#     8   8   8   8   8
#     4  10  20  38  65  93 124 160 200 252 311 362
#     4  12  24  36  61  95 125 162 207 251 297 365
#     4  10  22  41  62  88 125 165 200 245 307 369
#     4  10  21  39  63  93 127 159 198 252 313 363
#     4  10  22  42  65  89 122 166 206 250 305 361
#
# _framework density 22.994605
#
# number of rings (size 3 to 8) (size 9 to 14) (size 15 to 20)
#    0.000    1.600    0.000    7.200    0.000    7.200 
#    0.000    0.000    0.000   68.400    0.000    0.000 
#    0.000    0.000    0.000    0.000    0.000    0.000 
#
# Total GULP energy -111888.669903 kJ/mol
# GULP energy per Si atom -5594.433495 kJ/mol
# Density = 2.294227 g / cm^3
# Si number density = 22.994605 Si / 1000 Ang^3
#
#
#
# Elastic Constant Matrix: (Units=GPa)
#
#
# Indices 1 2 3 4 5 6 
#
# 1 45.9793 16.6792 37.5203 0.0000 0.0000 0.0000
# 2 16.6792 54.3288 36.9288 0.0000 0.0000 0.0000
# 3 37.5203 36.9288 145.6834 0.0000 0.0000 0.0000
# 4 0.0000 0.0000 0.0000 10.0610 0.0000 0.0000
# 5 0.0000 0.0000 0.0000 0.0000 26.0801 0.0000
# 6 0.0000 0.0000 0.0000 0.0000 0.0000 16.7985
#
#
#
# Elastic Compliance Matrix: (Units=1/GPa)
#
#
# Indices 1 2 3 4 5 6 
#
# 1 0.028431 -0.004532 -0.006173 0.000000 0.000000 0.000000
# 2 -0.004532 0.022961 -0.004653 0.000000 0.000000 0.000000
# 3 -0.006173 -0.004653 0.009634 0.000000 0.000000 0.000000
# 4 0.000000 0.000000 0.000000 0.099394 0.000000 0.000000
# 5 0.000000 0.000000 0.000000 0.000000 0.038343 0.000000
# 6 0.000000 0.000000 0.000000 0.000000 0.000000 0.059529
#
#
# Mechanical properties :
#
#
# Convention : Reuss Voigt Hill
#
# Bulk Modulus (GPa) = 32.99478 47.58314 40.28896
# Shear Modulus (GPa) = 16.71620 20.91212 18.81416
#
# Velocity S-wave (km/s) = 2.69915 3.01896 2.86352
# Velocity P-wave (km/s) = 4.90856 5.73500 5.33780
#
# Compressibility (1/GPa) = 0.03030783
#
# Stress axis : x y z
#
# Youngs Moduli (GPa) = 35.17334 43.55293 103.80332
#
# Poissons Ratio (x) = 0.19739 0.64082
# Poissons Ratio (y) = 0.15941 0.48299
# Poissons Ratio (z) = 0.21714 0.20265
#
# Static dielectric constant tensor:
#      x y z
#    x 1.898090 0.000000 0.000000 
#    y 0.000000 1.845950 0.000000 
#    z 0.000000 0.000000 1.898050 
# 
# From -- ./inp_files/12292.got.cif
#   From: 2010.05.17/outbox.cif.g08.bks.cpg/sg24_7_cif.got.tgz:12292.got - 2010.06.04 00:33:39.
