data_PCOD9334591
_publ_section_title
;
Structure prediction by ZEFSAII (Michael W. Deem and Ramdas Pophale) SiO2 
 PCOD9334591
Probable space group: I 21 21 21
;
_chemical_formula_sum "Si O2"
_cell_formula_units_Z 28
_cell_length_a 9.041444
_cell_length_b 9.675567
_cell_length_c 13.422938
_cell_angle_alpha 90.000000
_cell_angle_beta 90.000000
_cell_angle_gamma 90.000000
_cell_volume 1174.253344
_symmetry_space_group_name_H-M "I 21 21 21"
_symmetry_group_IT_number 24
_symmetry_cell_setting 'orthorhombic'
loop_
_space_group_symop_operation_xyz
x,y,z
-x,1/2-y,z
x,-y,1/2-z
1/2-x,y,-z
1/2+x,1/2+y,1/2+z
1/2-x,-y,1/2+z
1/2+x,1/2-y,-z
-x,1/2+y,1/2-z
loop_
_atom_site_type_symbol
_atom_site_label
_atom_site_fract_x
_atom_site_fract_y
_atom_site_fract_z
Si Si1 0.930411 0.105751 0.077463
Si Si2 0.146388 0.000000 0.250000
Si Si3 0.626518 0.138767 0.428919
Si Si4 0.672874 0.779779 0.283042
O O1 0.000000 0.250000 0.044142
O O2 0.780360 0.156367 0.133088
O O3 0.037562 0.029395 0.156955
O O4 0.916313 0.999863 0.986790
O O5 0.250575 0.864808 0.247805
O O6 0.500000 0.250000 0.424454
O O7 0.750000 0.202218 0.500000
O O8 0.677094 0.124865 0.315601
O O9 0.500000 0.750000 0.308435
#
# Coordination Sequence:
#
# PCOD9334591 Si02
#       4
#     8   4   8   8
#     4  10  22  44  71  96 133 184 232 275 338 420
#     4  10  20  40  68 100 134 184 232 274 338 420
#     4  11  23  41  67 100 134 175 225 280 338 403
#     4  10  23  41  68 103 139 176 226 290 345 395
#
# _framework density 23.844940999999999
#
# number of rings (size 3 to 8) (size 9 to 14) (size 15 to 20)
#    0.000    1.714    0.000    3.429    0.000    8.000 
#    0.000   14.286    0.000   10.286    0.000    0.000 
#    0.000    0.000    0.000    0.000    0.000    0.000 
#
# Total GULP energy -78342.806487 kJ/mol
# GULP energy per Si atom -5595.914749 kJ/mol
# Density = 2.379067 g / cm^3
# Si number density = 23.844941 Si / 1000 Ang^3
#
#
#
# Elastic Constant Matrix: (Units=GPa)
#
#
# Indices 1 2 3 4 5 6 
#
# 1 146.8264 61.7899 55.1317 0.0000 0.0000 0.0009
# 2 61.7899 181.7193 87.8098 0.0000 0.0000 0.0030
# 3 55.1317 87.8098 157.3472 0.0000 0.0000 -0.0002
# 4 0.0000 0.0000 0.0000 95.9810 0.0000 0.0014
# 5 0.0000 0.0000 0.0000 0.0000 -6.1403 0.0026
# 6 0.0009 0.0030 -0.0002 0.0014 0.0026**********
#
#
#
# Elastic Compliance Matrix: (Units=1/GPa)
#
#
# Indices 1 2 3 4 5 6 
#
# 1 0.008315 -0.001944 -0.001829 0.000000 0.000000 0.000000
# 2 -0.001944 0.007989 -0.003777 0.000000 0.000000 0.000000
# 3 -0.001829 -0.003777 0.009104 0.000000 0.000000 0.000000
# 4 0.000000 0.000000 0.000000 0.010419 0.000000 0.000000
# 5 0.000000 0.000000 0.000000 0.000000 -0.162858 0.000000
# 6 0.000000 0.000000 0.000000 0.000000 0.000000 0.000006
#
#
# Mechanical properties :
#
#
# Convention : Reuss Voigt Hill
#
# Bulk Modulus (GPa) = 97.00432 99.48397 98.24414
# Shear Modulus (GPa) = -46.08786 34145.08224 17049.49719
#
# Velocity S-wave (km/s) = -4.40115 119.79449 84.65031
# Velocity P-wave (km/s) = 3.86559 138.47782 97.95675
#
# Compressibility (1/GPa) = 0.01030882
#
# Stress axis : x y z
#
# Youngs Moduli (GPa) = 120.25753 125.16797 109.83908
#
# Poissons Ratio (x) = 0.24330 0.20088
# Poissons Ratio (y) = 0.23375 0.41491
# Poissons Ratio (z) = 0.21993 0.47282
#
# Static dielectric constant tensor:
#      x y z
#    x 1.921110 0.000000 0.000000 
#    y 0.000000 2.003470 0.000000 
#    z 0.000000 0.000000 -0.310690 
# 
# From -- ./inp_files/8879.got.cif
#   From: 2010.05.17/outbox.cif.g08.bks.cpg/sg24_5_cif.got.tgz:8879.got - 2010.06.04 00:33:39.
