data_PCOD9334819
_publ_section_title
;
Structure prediction by ZEFSAII (Michael W. Deem and Ramdas Pophale) SiO2 
 PCOD9334819
Probable space group: I 21 21 21
;
_chemical_formula_sum "Si O2"
_cell_formula_units_Z 56
_cell_length_a 17.135446
_cell_length_b 9.870376
_cell_length_c 16.112006
_cell_angle_alpha 90.000000
_cell_angle_beta 90.000000
_cell_angle_gamma 90.000000
_cell_volume 2725.076663
_symmetry_space_group_name_H-M "I 21 21 21"
_symmetry_group_IT_number 24
_symmetry_cell_setting 'orthorhombic'
loop_
_space_group_symop_operation_xyz
x,y,z
-x,1/2-y,z
x,-y,1/2-z
1/2-x,y,-z
1/2+x,1/2+y,1/2+z
1/2-x,-y,1/2+z
1/2+x,1/2-y,-z
-x,1/2+y,1/2-z
loop_
_atom_site_type_symbol
_atom_site_label
_atom_site_fract_x
_atom_site_fract_y
_atom_site_fract_z
Si Si1 0.642570 0.242451 0.387909
Si Si2 0.318225 0.559373 0.395830
Si Si3 0.550460 0.138293 0.234562
Si Si4 0.349302 0.619925 0.686144
Si Si5 0.294872 0.137326 0.698955
Si Si6 0.841968 0.544815 0.025073
Si Si7 0.910190 0.242935 0.024632
O O1 0.578132 0.204948 0.320179
O O2 0.713592 0.305143 0.335550
O O3 0.621619 0.350575 0.458577
O O4 0.670021 0.096591 0.423188
O O5 0.375277 0.592831 0.318670
O O6 0.231133 0.579939 0.361781
O O7 0.350676 0.659333 0.466000
O O8 0.500000 0.250000 0.189006
O O9 0.503700 0.000000 0.250000
O O10 0.371524 0.500000 0.750000
O O11 0.331537 0.750737 0.741894
O O12 0.407400 0.666638 0.613618
O O13 0.345153 0.106073 0.617160
O O14 0.282373 0.000000 0.750000
O O15 0.878528 0.396277 0.026719
O O16 0.750000 0.533612 0.000000
O O17 0.000000 0.250000 0.997199
#
# Coordination Sequence:
#
# PCOD9334819 Si02
#       7
#     8   8   8   8   8   8   8
#     4  10  22  38  64  98 133 167 220 275 340 398
#     4  11  22  42  69  97 132 168 226 284 333 401
#     4  10  21  37  57  91 132 175 215 267 334 411
#     4  12  23  44  74 100 128 171 233 287 335 392
#     4  11  21  39  67  98 129 162 217 283 332 389
#     4  10  23  41  66  97 131 169 220 275 335 398
#     4  12  28  46  63  97 139 184 224 272 346 410
#
# _framework density 20.549882
#
# number of rings (size 3 to 8) (size 9 to 14) (size 15 to 20)
#    0.000    1.143    4.286    2.143    4.000    5.143 
#    2.571    0.000    0.000    0.000    0.000    0.000 
#    0.000    0.000    0.000    0.000    0.000    0.000 
#
# Total GULP energy -156416.371396 kJ/mol
# GULP energy per Si atom -5586.298978 kJ/mol
# Density = 2.050311 g / cm^3
# Si number density = 20.549882 Si / 1000 Ang^3
#
#
#
# Elastic Constant Matrix: (Units=GPa)
#
#
# Indices 1 2 3 4 5 6 
#
# 1 27.9226 21.8902 18.1688 0.0000 0.0000 0.0000
# 2 21.8902 164.8259 64.1060 0.0000 0.0000 0.0000
# 3 18.1688 64.1060 124.6984 0.0000 0.0000 0.0000
# 4 0.0000 0.0000 0.0000 43.5735 0.0000 0.0000
# 5 0.0000 0.0000 0.0000 0.0000-4899.0766 0.0000
# 6 0.0000 0.0000 0.0000 0.0000 0.0000 21.1859
#
#
#
# Elastic Compliance Matrix: (Units=1/GPa)
#
#
# Indices 1 2 3 4 5 6 
#
# 1 0.041526 -0.003952 -0.004019 0.000000 0.000000 0.000000
# 2 -0.003952 0.007959 -0.003516 0.000000 0.000000 0.000000
# 3 -0.004019 -0.003516 0.010412 0.000000 0.000000 0.000000
# 4 0.000000 0.000000 0.000000 0.022950 0.000000 0.000000
# 5 0.000000 0.000000 0.000000 0.000000 -0.000204 0.000000
# 6 0.000000 0.000000 0.000000 0.000000 0.000000 0.047201
#
#
# Mechanical properties :
#
#
# Convention : Reuss Voigt Hill
#
# Bulk Modulus (GPa) = 27.08218 58.41963 42.75091
# Shear Modulus (GPa) = 30.27976 -952.64463 -461.18244
#
# Velocity S-wave (km/s) = 3.84275 -21.55419 -14.99694
# Velocity P-wave (km/s) = 5.73553 24.30955 16.70416
#
# Compressibility (1/GPa) = 0.03692464
#
# Stress axis : x y z
#
# Youngs Moduli (GPa) = 24.08103 125.63849 96.03912
#
# Poissons Ratio (x) = 0.49652 0.38596
# Poissons Ratio (y) = 0.09517 0.33767
# Poissons Ratio (z) = 0.09678 0.44174
#
# Static dielectric constant tensor:
#      x y z
#    x 1.744800 0.000000 0.000000 
#    y 0.000000 1.820500 0.000000 
#    z 0.000000 0.000000 1.764070 
# 
# From -- ./inp_files/27520.got.cif
#   From: 2010.05.17/outbox.cif.g08.bks.cpg/sg24_14_cif.got.tgz:27520.got - 2010.06.04 00:33:39.
