data_PCOD9334651
_publ_section_title
;
Structure prediction by ZEFSAII (Michael W. Deem and Ramdas Pophale) SiO2 
 PCOD9334651
Probable space group: I 21 21 21
;
_chemical_formula_sum "Si O2"
_cell_formula_units_Z 40
_cell_length_a 16.413526
_cell_length_b 16.866681
_cell_length_c 6.138257
_cell_angle_alpha 90.000000
_cell_angle_beta 90.000000
_cell_angle_gamma 90.000000
_cell_volume 1699.325547
_symmetry_space_group_name_H-M "I 21 21 21"
_symmetry_group_IT_number 24
_symmetry_cell_setting 'orthorhombic'
loop_
_space_group_symop_operation_xyz
x,y,z
-x,1/2-y,z
x,-y,1/2-z
1/2-x,y,-z
1/2+x,1/2+y,1/2+z
1/2-x,-y,1/2+z
1/2+x,1/2-y,-z
-x,1/2+y,1/2-z
loop_
_atom_site_type_symbol
_atom_site_label
_atom_site_fract_x
_atom_site_fract_y
_atom_site_fract_z
Si Si1 0.340213 0.355867 0.599857
Si Si2 0.250000 0.129587 0.500000
Si Si3 0.427338 0.500000 0.750000
Si Si4 0.382563 0.782512 0.179918
Si Si5 0.750000 0.213425 0.000000
Si Si6 0.688233 0.500000 0.750000
Si Si7 0.447857 0.932735 0.428049
O O1 0.250000 0.351051 0.500000
O O2 0.373684 0.444307 0.597041
O O3 0.400090 0.299483 0.452134
O O4 0.316741 0.332099 0.849213
O O5 0.335715 0.172075 0.513412
O O6 0.248478 0.071333 0.299657
O O7 0.481611 0.561186 0.609707
O O8 0.307268 0.763119 0.340144
O O9 0.436989 0.846217 0.312358
O O10 0.629723 0.532908 0.560745
O O11 0.466368 0.000000 0.250000
#
# Coordination Sequence:
#
# PCOD9334651 Si02
#       7
#     8   4   4   8   4   4   8
#     4  10  24  45  73 107 135 175 248 315 361 423
#     4  12  18  35  63 100 138 172 236 288 345 410
#     4  11  28  48  70 104 139 192 246 292 375 450
#     4  11  21  40  67 104 141 180 232 294 357 424
#     4  10  20  41  71 104 136 174 226 310 361 404
#     4  11  22  34  60 102 139 194 226 284 341 430
#     4  11  24  43  66  93 147 190 230 279 355 450
#
# _framework density 23.538748999999999
#
# number of rings (size 3 to 8) (size 9 to 14) (size 15 to 20)
#    0.000    1.200    5.000    2.400    1.400    3.200 
#    0.000    6.000    0.000    0.000    0.000    0.000 
#    0.000    0.000    0.000    0.000    0.000    0.000 
#
# Total GULP energy -111380.268258 kJ/mol
# GULP energy per Si atom -5569.013413 kJ/mol
# Density = 2.348517 g / cm^3
# Si number density = 23.538749 Si / 1000 Ang^3
#
#
#
# Elastic Constant Matrix: (Units=GPa)
#
#
# Indices 1 2 3 4 5 6 
#
# 1 47.1880 25.8320 16.5243 0.0000 0.0000 0.0000
# 2 25.8320 121.8335 23.6174 0.0000 0.0000 0.0000
# 3 16.5243 23.6174 67.8199 0.0000 0.0000 0.0000
# 4 0.0000 0.0000 0.0000 28.0073 0.0000 0.0000
# 5 0.0000 0.0000 0.0000 0.0000 10.5445 0.0000
# 6 0.0000 0.0000 0.0000 0.0000 0.0000 29.3441
#
#
#
# Elastic Compliance Matrix: (Units=1/GPa)
#
#
# Indices 1 2 3 4 5 6 
#
# 1 0.025244 -0.004461 -0.004597 0.000000 0.000000 0.000000
# 2 -0.004461 0.009591 -0.002253 0.000000 0.000000 0.000000
# 3 -0.004597 -0.002253 0.016650 0.000000 0.000000 0.000000
# 4 0.000000 0.000000 0.000000 0.035705 0.000000 0.000000
# 5 0.000000 0.000000 0.000000 0.000000 0.094836 0.000000
# 6 0.000000 0.000000 0.000000 0.000000 0.000000 0.034078
#
#
# Mechanical properties :
#
#
# Convention : Reuss Voigt Hill
#
# Bulk Modulus (GPa) = 34.64807 40.97655 37.81231
# Shear Modulus (GPa) = 20.13318 24.97036 22.55177
#
# Velocity S-wave (km/s) = 2.92776 3.26056 3.09863
# Velocity P-wave (km/s) = 5.11670 5.62324 5.37594
#
# Compressibility (1/GPa) = 0.02886164
#
# Stress axis : x y z
#
# Youngs Moduli (GPa) = 39.61363 104.26959 60.06179
#
# Poissons Ratio (x) = 0.46517 0.27611
# Poissons Ratio (y) = 0.17673 0.13531
# Poissons Ratio (z) = 0.18211 0.23490
#
# Static dielectric constant tensor:
#      x y z
#    x 2.087340 0.000000 0.000000 
#    y 0.000000 1.959530 0.000000 
#    z 0.000000 0.000000 1.838470 
# 
# From -- ./inp_files/4581.got.cif
#   From: 2010.05.17/outbox.cif.g08.bks.cpg/sg24_3_cif.got.tgz:4581.got - 2010.06.04 00:33:39.
