data_PCOD9334969
_publ_section_title
;
Structure prediction by ZEFSAII (Michael W. Deem and Ramdas Pophale) SiO2 
 PCOD9334969
Probable space group: I 21 21 21
;
_chemical_formula_sum "Si O2"
_cell_formula_units_Z 60
_cell_length_a 11.737678
_cell_length_b 15.835044
_cell_length_c 15.054900
_cell_angle_alpha 90.000000
_cell_angle_beta 90.000000
_cell_angle_gamma 90.000000
_cell_volume 2798.203793
_symmetry_space_group_name_H-M "I 21 21 21"
_symmetry_group_IT_number 24
_symmetry_cell_setting 'orthorhombic'
loop_
_space_group_symop_operation_xyz
x,y,z
-x,1/2-y,z
x,-y,1/2-z
1/2-x,y,-z
1/2+x,1/2+y,1/2+z
1/2-x,-y,1/2+z
1/2+x,1/2-y,-z
-x,1/2+y,1/2-z
loop_
_atom_site_type_symbol
_atom_site_label
_atom_site_fract_x
_atom_site_fract_y
_atom_site_fract_z
Si Si1 0.216275 0.878244 0.781448
Si Si2 0.865629 0.647760 0.392890
Si Si3 0.868002 0.834968 0.369576
Si Si4 0.975079 0.844427 0.828606
Si Si5 0.073019 0.393645 0.477301
Si Si6 0.250000 0.462226 0.000000
Si Si7 0.273851 0.690016 0.825169
Si Si8 0.337744 0.033358 0.570657
O O1 0.274481 0.864034 0.686479
O O2 0.240330 0.788824 0.833086
O O3 0.280419 0.950358 0.835190
O O4 0.080888 0.895146 0.787829
O O5 0.852780 0.745282 0.420825
O O6 0.851818 0.565255 0.452875
O O7 0.999024 0.641410 0.368146
O O8 0.788508 0.903487 0.417789
O O9 0.840461 0.820222 0.266525
O O10 0.843035 0.862180 0.809310
O O11 0.000000 0.750000 0.795280
O O12 0.973597 0.846603 0.935715
O O13 0.143569 0.474643 0.512631
O O14 0.155121 0.342247 0.410231
O O15 0.960824 0.424507 0.427246
O O16 0.250000 0.071829 0.500000
#
# Coordination Sequence:
#
# PCOD9334969 Si02
#       8
#     8   8   8   8   8   4   8   8
#     4  10  22  40  63  93 130 167 209 254 315 384
#     4  10  22  44  65  89 121 166 214 265 314 376
#     4  10  23  44  68  90 119 163 220 267 315 377
#     4  10  21  39  61  92 134 166 203 254 316 384
#     4  12  23  40  62  95 130 166 208 263 321 381
#     4  12  24  44  64  94 124 160 214 276 318 364
#     4  10  22  40  66  94 126 171 209 256 318 384
#     4  12  24  38  61  93 127 164 211 261 320 379
#
# _framework density 21.442326999999999
#
# number of rings (size 3 to 8) (size 9 to 14) (size 15 to 20)
#    0.000    1.333    4.000    1.200    2.800    1.600 
#    2.400    0.000    5.867    0.000    0.000    0.000 
#    0.000    0.000    0.000    0.000    0.000    0.000 
#
# Total GULP energy -167250.201761 kJ/mol
# GULP energy per Si atom -5575.006725 kJ/mol
# Density = 2.139352 g / cm^3
# Si number density = 21.442327 Si / 1000 Ang^3
#
#
#
# Elastic Constant Matrix: (Units=GPa)
#
#
# Indices 1 2 3 4 5 6 
#
# 1 141.0100 16.3709 11.9040 0.0000 0.0000 0.0000
# 2 16.3709 66.1089 -5.4047 0.0000 0.0000 0.0000
# 3 11.9040 -5.4047 30.2025 0.0000 0.0000 0.0000
# 4 0.0000 0.0000 0.0000 17.0898 0.0000 0.0000
# 5 0.0000 0.0000 0.0000 0.0000 27.2400 0.0000
# 6 0.0000 0.0000 0.0000 0.0000 0.0000 13.5215
#
#
#
# Elastic Compliance Matrix: (Units=1/GPa)
#
#
# Indices 1 2 3 4 5 6 
#
# 1 0.007630 -0.002167 -0.003395 0.000000 0.000000 0.000000
# 2 -0.002167 0.015967 0.003711 0.000000 0.000000 0.000000
# 3 -0.003395 0.003711 0.035112 0.000000 0.000000 0.000000
# 4 0.000000 0.000000 0.000000 0.058514 0.000000 0.000000
# 5 0.000000 0.000000 0.000000 0.000000 0.036711 0.000000
# 6 0.000000 0.000000 0.000000 0.000000 0.000000 0.073956
#
#
# Mechanical properties :
#
#
# Convention : Reuss Voigt Hill
#
# Bulk Modulus (GPa) = 18.17946 31.45129 24.81538
# Shear Modulus (GPa) = 20.00584 25.86702 22.93643
#
# Velocity S-wave (km/s) = 3.05783 3.47703 3.27414
# Velocity P-wave (km/s) = 4.57863 5.55152 5.08838
#
# Compressibility (1/GPa) = 0.05500712
#
# Stress axis : x y z
#
# Youngs Moduli (GPa) = 131.06360 62.63074 28.48026
#
# Poissons Ratio (x) = 0.13572 0.09669
# Poissons Ratio (y) = 0.28401 -0.10570
# Poissons Ratio (z) = 0.44496 -0.23244
#
# Static dielectric constant tensor:
#      x y z
#    x 1.839600 0.000000 0.000000 
#    y 0.000000 1.842250 0.000000 
#    z 0.000000 0.000000 1.776890 
# 
# From -- ./inp_files/30333.got.cif
#   From: 2010.05.17/outbox.cif.g08.bks.cpg/sg24_16_cif.got.tgz:30333.got - 2010.06.04 00:33:39.
