data_PCOD9334222
_publ_section_title
;
Structure prediction by ZEFSAII (Michael W. Deem and Ramdas Pophale) SiO2 
 PCOD9334222
Probable space group: I 21 21 21
;
_chemical_formula_sum "Si O2"
_cell_formula_units_Z 44
_cell_length_a 12.484553
_cell_length_b 16.084416
_cell_length_c 9.266803
_cell_angle_alpha 90.000000
_cell_angle_beta 90.000000
_cell_angle_gamma 90.000000
_cell_volume 1860.836538
_symmetry_space_group_name_H-M "I 21 21 21"
_symmetry_group_IT_number 24
_symmetry_cell_setting 'orthorhombic'
loop_
_space_group_symop_operation_xyz
x,y,z
-x,1/2-y,z
x,-y,1/2-z
1/2-x,y,-z
1/2+x,1/2+y,1/2+z
1/2-x,-y,1/2+z
1/2+x,1/2-y,-z
-x,1/2+y,1/2-z
loop_
_atom_site_type_symbol
_atom_site_label
_atom_site_fract_x
_atom_site_fract_y
_atom_site_fract_z
Si Si1 0.750000 0.325503 0.000000
Si Si2 0.727720 0.075517 0.669213
Si Si3 0.500000 0.250000 0.288822
Si Si4 0.232635 0.248060 0.699683
Si Si5 0.583517 0.532268 0.586059
Si Si6 0.750000 0.599200 0.000000
Si Si7 0.546243 0.922815 0.337432
O O1 0.782789 0.266202 0.868901
O O2 0.657584 0.386340 0.938848
O O3 0.750000 0.056686 0.500000
O O4 0.692711 0.172096 0.672512
O O5 0.834769 0.082753 0.770911
O O6 0.668705 0.000000 0.750000
O O7 0.386683 0.259843 0.369053
O O8 0.492637 0.164692 0.199319
O O9 0.267857 0.161229 0.632678
O O10 0.577381 0.500000 0.750000
O O11 0.647276 0.460288 0.498541
O O12 0.473653 0.553863 0.502958
O O13 0.496539 0.000000 0.250000
#
# Coordination Sequence:
#
# PCOD9334222 Si02
#       7
#     4   8   4   8   8   4   8
#     4  11  22  36  59 100 138 186 227 276 358 431
#     4  10  23  43  68  95 124 176 240 296 347 412
#     4  10  20  36  66  90 132 180 224 280 346 428
#     4  11  21  39  64  96 134 178 235 287 351 426
#     4  11  22  36  61 100 145 180 223 286 361 441
#     4  11  22  36  63 100 140 184 229 294 354 443
#     4  10  21  40  65  93 133 180 228 286 365 419
#
# _framework density 23.645278000000001
#
# number of rings (size 3 to 8) (size 9 to 14) (size 15 to 20)
#    0.000    1.455    4.545    1.091    1.273    0.000 
#    0.000    3.636    0.000    5.455    0.000    0.000 
#    0.000    0.000    0.000    0.000    0.000    0.000 
#
# Total GULP energy -122618.785118 kJ/mol
# GULP energy per Si atom -5573.581142 kJ/mol
# Density = 2.359146 g / cm^3
# Si number density = 23.645278 Si / 1000 Ang^3
#
#
#
# Elastic Constant Matrix: (Units=GPa)
#
#
# Indices 1 2 3 4 5 6 
#
# 1 51.7803 7.9890 24.6976 0.0000 0.0000 0.0000
# 2 7.9890 166.1361 36.8811 0.0000 0.0000 0.0000
# 3 24.6976 36.8811 153.8242 0.0000 0.0000 0.0000
# 4 0.0000 0.0000 0.0000 41.1851 0.0000 0.0000
# 5 0.0000 0.0000 0.0000 0.0000 21.3333 0.0000
# 6 0.0000 0.0000 0.0000 0.0000 0.0000 3.6857
#
#
#
# Elastic Compliance Matrix: (Units=1/GPa)
#
#
# Indices 1 2 3 4 5 6 
#
# 1 0.020926 -0.000275 -0.003294 0.000000 0.000000 0.000000
# 2 -0.000275 0.006361 -0.001481 0.000000 0.000000 0.000000
# 3 -0.003294 -0.001481 0.007385 0.000000 0.000000 0.000000
# 4 0.000000 0.000000 0.000000 0.024281 0.000000 0.000000
# 5 0.000000 0.000000 0.000000 0.000000 0.046875 0.000000
# 6 0.000000 0.000000 0.000000 0.000000 0.000000 0.271316
#
#
# Mechanical properties :
#
#
# Convention : Reuss Voigt Hill
#
# Bulk Modulus (GPa) = 40.69655 56.76399 48.73027
# Shear Modulus (GPa) = 12.64433 33.38569 23.01501
#
# Velocity S-wave (km/s) = 2.31498 3.76165 3.12323
# Velocity P-wave (km/s) = 4.93904 6.55174 5.80170
#
# Compressibility (1/GPa) = 0.02457211
#
# Stress axis : x y z
#
# Youngs Moduli (GPa) = 47.78772 157.20404 135.41210
#
# Poissons Ratio (x) = 0.04324 0.44603
# Poissons Ratio (y) = 0.01314 0.20055
# Poissons Ratio (z) = 0.15741 0.23282
#
# Static dielectric constant tensor:
#      x y z
#    x 1.965780 0.000000 0.000000 
#    y 0.000000 2.025720 0.000000 
#    z 0.000000 0.000000 1.907150 
# 
# From -- ./inp_files/12733.got.cif
#   From: 2010.05.17/outbox.cif.g08.bks.cpg/sg24_7_cif.got.tgz:12733.got - 2010.06.04 00:33:39.
