data_PCOD9334282
_publ_section_title
;
Structure prediction by ZEFSAII (Michael W. Deem and Ramdas Pophale) SiO2 
 PCOD9334282
Probable space group: I 21 21 21
;
_chemical_formula_sum "Si O2"
_cell_formula_units_Z 64
_cell_length_a 24.114230
_cell_length_b 14.941914
_cell_length_c 8.352954
_cell_angle_alpha 90.000000
_cell_angle_beta 90.000000
_cell_angle_gamma 90.000000
_cell_volume 3009.675833
_symmetry_space_group_name_H-M "I 21 21 21"
_symmetry_group_IT_number 24
_symmetry_cell_setting 'orthorhombic'
loop_
_space_group_symop_operation_xyz
x,y,z
-x,1/2-y,z
x,-y,1/2-z
1/2-x,y,-z
1/2+x,1/2+y,1/2+z
1/2-x,-y,1/2+z
1/2+x,1/2-y,-z
-x,1/2+y,1/2-z
loop_
_atom_site_type_symbol
_atom_site_label
_atom_site_fract_x
_atom_site_fract_y
_atom_site_fract_z
Si Si1 0.187673 0.805081 0.058533
Si Si2 0.061832 0.234740 0.900748
Si Si3 0.976297 0.450277 0.902507
Si Si4 0.636836 0.496113 0.557245
Si Si5 0.832958 0.691223 0.433095
Si Si6 0.410904 0.519304 0.563090
Si Si7 0.626066 0.152291 0.365241
Si Si8 0.692877 0.125983 0.074612
O O1 0.185871 0.799639 0.251328
O O2 0.166681 0.904328 0.010452
O O3 0.250000 0.791535 0.000000
O O4 0.148637 0.729880 0.980303
O O5 0.085453 0.302638 0.768332
O O6 0.000000 0.250000 0.957684
O O7 0.054065 0.136301 0.827734
O O8 0.102530 0.219069 0.048974
O O9 0.999732 0.500000 0.750000
O O10 0.029641 0.438552 0.015698
O O11 0.925739 0.499735 0.991031
O O12 0.634081 0.500000 0.750000
O O13 0.669256 0.587975 0.510531
O O14 0.806452 0.766280 0.546369
O O15 0.410001 0.500000 0.750000
O O16 0.401709 0.427598 0.463476
O O17 0.359175 0.582770 0.518164
O O18 0.677800 0.113768 0.260755
O O19 0.750000 0.090629 0.000000
#
# Coordination Sequence:
#
# PCOD9334282 Si02
#       8
#     8   8   8   8   8   8   8   8
#     4  11  22  39  61  89 127 170 215 267 320 390
#     4  10  20  37  62  88 121 162 206 263 324 385
#     4  11  20  37  63  90 123 157 200 259 319 383
#     4   9  20  38  60  90 127 166 209 262 325 393
#     4   9  20  39  60  88 125 165 212 262 328 394
#     4  12  26  42  64  93 128 173 217 263 320 385
#     4  11  24  41  62  93 128 165 217 267 321 387
#     4  11  23  41  63  89 122 164 214 271 324 379
#
# _framework density 21.264747
#
# number of rings (size 3 to 8) (size 9 to 14) (size 15 to 20)
#    0.000    1.500    0.000    6.000    0.000    2.000 
#    0.000   10.000    0.000    1.500    0.000    0.000 
#    0.000    0.000    0.000    0.000    0.000    0.000 
#
# Total GULP energy -178579.517531 kJ/mol
# GULP energy per Si atom -5580.609923 kJ/mol
# Density = 2.121635 g / cm^3
# Si number density = 21.264747 Si / 1000 Ang^3
#
#
#
# Elastic Constant Matrix: (Units=GPa)
#
#
# Indices 1 2 3 4 5 6 
#
# 1 93.0848 28.8972 17.8790 0.0000 0.0000 0.0000
# 2 28.8972 118.0717 36.7811 0.0000 0.0000 0.0000
# 3 17.8790 36.7811 82.9235 0.0000 0.0000 0.0000
# 4 0.0000 0.0000 0.0000 35.1162 0.0000 0.0000
# 5 0.0000 0.0000 0.0000 0.0000 23.2668 0.0000
# 6 0.0000 0.0000 0.0000 0.0000 0.0000 18.7444
#
#
#
# Elastic Compliance Matrix: (Units=1/GPa)
#
#
# Indices 1 2 3 4 5 6 
#
# 1 0.011777 -0.002427 -0.001463 0.000000 0.000000 0.000000
# 2 -0.002427 0.010327 -0.004058 0.000000 0.000000 0.000000
# 3 -0.001463 -0.004058 0.014174 0.000000 0.000000 0.000000
# 4 0.000000 0.000000 0.000000 0.028477 0.000000 0.000000
# 5 0.000000 0.000000 0.000000 0.000000 0.042980 0.000000
# 6 0.000000 0.000000 0.000000 0.000000 0.000000 0.053349
#
#
# Mechanical properties :
#
#
# Convention : Reuss Voigt Hill
#
# Bulk Modulus (GPa) = 49.05618 51.24385 50.15001
# Shear Modulus (GPa) = 27.20734 29.46033 28.33384
#
# Velocity S-wave (km/s) = 3.58083 3.72614 3.65421
# Velocity P-wave (km/s) = 6.34159 6.53166 6.43733
#
# Compressibility (1/GPa) = 0.02038479
#
# Stress axis : x y z
#
# Youngs Moduli (GPa) = 84.90970 96.83062 70.54946
#
# Poissons Ratio (x) = 0.23498 0.10321
# Poissons Ratio (y) = 0.20605 0.28626
# Poissons Ratio (z) = 0.12422 0.39289
#
# Static dielectric constant tensor:
#      x y z
#    x 1.796430 0.000000 0.000000 
#    y 0.000000 1.886600 0.000000 
#    z 0.000000 0.000000 1.724320 
# 
# From -- ./inp_files/16049.got.cif
#   From: 2010.05.17/outbox.cif.g08.bks.cpg/sg24_9_cif.got.tgz:16049.got - 2010.06.04 00:33:39.
