data_PCOD9334274
_publ_section_title
;
Structure prediction by ZEFSAII (Michael W. Deem and Ramdas Pophale) SiO2 
 PCOD9334274
Probable space group: I 21 21 21
;
_chemical_formula_sum "Si O2"
_cell_formula_units_Z 56
_cell_length_a 14.501677
_cell_length_b 12.295358
_cell_length_c 15.587300
_cell_angle_alpha 90.000000
_cell_angle_beta 90.000000
_cell_angle_gamma 90.000000
_cell_volume 2779.267189
_symmetry_space_group_name_H-M "I 21 21 21"
_symmetry_group_IT_number 24
_symmetry_cell_setting 'orthorhombic'
loop_
_space_group_symop_operation_xyz
x,y,z
-x,1/2-y,z
x,-y,1/2-z
1/2-x,y,-z
1/2+x,1/2+y,1/2+z
1/2-x,-y,1/2+z
1/2+x,1/2-y,-z
-x,1/2+y,1/2-z
loop_
_atom_site_type_symbol
_atom_site_label
_atom_site_fract_x
_atom_site_fract_y
_atom_site_fract_z
Si Si1 0.889893 0.153206 0.671406
Si Si2 0.389894 0.346796 0.671407
Si Si3 0.416300 0.124235 0.598823
Si Si4 0.250000 0.727231 0.313396
Si Si5 0.750001 0.011227 0.098468
Si Si6 0.750000 0.538438 0.397409
Si Si7 0.916302 0.375767 0.598822
O O1 0.840380 0.198112 0.756562
O O2 0.875584 0.253972 0.605847
O O3 0.997927 0.126204 0.664348
O O4 0.836533 0.045596 0.643669
O O5 0.375585 0.246031 0.605848
O O6 0.497930 0.373796 0.664351
O O7 0.340379 0.301891 0.756563
O O8 0.336537 0.454407 0.643668
O O9 0.447548 0.106552 0.500001
O O10 0.339538 0.035625 0.620531
O O11 0.250001 0.639649 0.389147
O O12 0.249999 0.850329 0.344887
O O13 0.750000 0.981416 0.000000
O O14 0.750000 0.560948 0.500000
O O15 0.660458 0.464379 0.379470
#
# Coordination Sequence:
#
# PCOD9334274 Si02
#       7
#     8   8   8   8   8   8   8
#     4  10  20  37  61  91 123 152 207 267 310 361
#     4  10  20  37  61  91 123 152 207 267 310 361
#     4  10  20  38  65  94 120 158 208 259 313 366
#     4  11  24  41  55  93 128 167 206 244 322 377
#     4  11  21  39  63  82 118 165 210 256 298 366
#     4  10  22  42  65  90 129 168 209 253 308 387
#     4  10  20  38  65  94 120 158 208 259 313 366
#
# _framework density 20.149197000000001
#
# number of rings (size 3 to 8) (size 9 to 14) (size 15 to 20)
#    0.000    1.714    0.000    7.286    0.000    3.429 
#   20.571    0.000    0.000    5.143    0.000    0.000 
#    0.000    0.000    0.000    0.000    0.000    0.000 
#
# Total GULP energy -156295.105621 kJ/mol
# GULP energy per Si atom -5581.968058 kJ/mol
# Density = 2.010334 g / cm^3
# Si number density = 20.149197 Si / 1000 Ang^3
#
#
#
# Elastic Constant Matrix: (Units=GPa)
#
#
# Indices 1 2 3 4 5 6 
#
# 1 125.9120 63.2462 46.4442 0.0000 0.0000 0.0000
# 2 63.2462 145.7228 37.4445 0.0000 0.0000 0.0000
# 3 46.4442 37.4445 62.4911 0.0000 0.0000 0.0000
# 4 0.0000 0.0000 0.0000 34.7403 0.0000 0.0000
# 5 0.0000 0.0000 0.0000 0.0000 7.2010 0.0000
# 6 0.0000 0.0000 0.0000 0.0000 0.0000 1.2577
#
#
#
# Elastic Compliance Matrix: (Units=1/GPa)
#
#
# Indices 1 2 3 4 5 6 
#
# 1 0.012312 -0.003537 -0.007031 0.000000 0.000000 0.000000
# 2 -0.003537 0.009127 -0.002840 0.000000 0.000000 0.000000
# 3 -0.007031 -0.002840 0.022930 0.000000 0.000000 0.000000
# 4 0.000000 0.000000 0.000000 0.028785 0.000000 0.000000
# 5 0.000000 0.000000 0.000000 0.000000 0.138869 0.000000
# 6 0.000000 0.000000 0.000000 0.000000 0.000000 0.795087
#
#
# Mechanical properties :
#
#
# Convention : Reuss Voigt Hill
#
# Bulk Modulus (GPa) = 56.97256 69.82175 63.39715
# Shear Modulus (GPa) = 4.80872 21.10587 12.95729
#
# Velocity S-wave (km/s) = 1.54652 3.23999 2.53863
# Velocity P-wave (km/s) = 5.61478 6.98028 6.33443
#
# Compressibility (1/GPa) = 0.01755231
#
# Stress axis : x y z
#
# Youngs Moduli (GPa) = 81.21957 109.56138 43.61116
#
# Poissons Ratio (x) = 0.38752 0.30664
# Poissons Ratio (y) = 0.28727 0.12387
# Poissons Ratio (z) = 0.57108 0.31119
#
# Static dielectric constant tensor:
#      x y z
#    x 1.757480 0.000000 0.000000 
#    y 0.000000 1.685750 0.000000 
#    z 0.000000 0.000000 1.727260 
# 
# From -- ./inp_files/26495.got.cif
#   From: 2010.05.17/outbox.cif.g08.bks.cpg/sg24_14_cif.got.tgz:26495.got - 2010.06.04 00:33:39.
