data_PCOD9334412
_publ_section_title
;
Structure prediction by ZEFSAII (Michael W. Deem and Ramdas Pophale) SiO2 
 PCOD9334412
Probable space group: I 21 21 21
;
_chemical_formula_sum "Si O2"
_cell_formula_units_Z 56
_cell_length_a 20.489016
_cell_length_b 9.356750
_cell_length_c 15.284254
_cell_angle_alpha 90.000000
_cell_angle_beta 90.000000
_cell_angle_gamma 90.000000
_cell_volume 2930.153512
_symmetry_space_group_name_H-M "I 21 21 21"
_symmetry_group_IT_number 24
_symmetry_cell_setting 'orthorhombic'
loop_
_space_group_symop_operation_xyz
x,y,z
-x,1/2-y,z
x,-y,1/2-z
1/2-x,y,-z
1/2+x,1/2+y,1/2+z
1/2-x,-y,1/2+z
1/2+x,1/2-y,-z
-x,1/2+y,1/2-z
loop_
_atom_site_type_symbol
_atom_site_label
_atom_site_fract_x
_atom_site_fract_y
_atom_site_fract_z
Si Si1 0.141613 0.729744 0.028884
Si Si2 0.267828 0.359732 0.191514
Si Si3 0.694342 0.370930 0.703228
Si Si4 0.300349 0.007269 0.425819
Si Si5 0.394574 0.773353 0.356477
Si Si6 0.515309 0.033353 0.156661
Si Si7 0.750000 0.011758 0.000000
Si Si8 0.000000 0.750000 0.955062
O O1 0.157695 0.791994 0.124569
O O2 0.186498 0.590345 0.013313
O O3 0.064830 0.720665 0.011519
O O4 0.167096 0.847999 0.960289
O O5 0.261234 0.500000 0.250000
O O6 0.216506 0.244593 0.225907
O O7 0.339278 0.291055 0.205818
O O8 0.260024 0.399177 0.089271
O O9 0.656683 0.500000 0.750000
O O10 0.757626 0.447361 0.658133
O O11 0.250000 0.959385 0.500000
O O12 0.352903 0.883006 0.414465
O O13 0.451672 0.872922 0.319249
O O14 0.434233 0.637216 0.394541
O O15 0.547329 0.000000 0.250000
O O16 0.495424 0.891621 0.105359
#
# Coordination Sequence:
#
# PCOD9334412 Si02
#       8
#     8   8   8   8   8   8   4   4
#     4  11  22  43  67  96 131 177 224 267 341 403
#     4  12  24  39  64  98 134 167 211 276 340 392
#     4  11  22  40  68  96 127 172 219 278 333 398
#     4  10  20  38  65  93 126 168 217 266 330 402
#     4  11  23  38  60  93 132 168 221 268 334 392
#     4  11  25  40  59  91 134 181 217 265 327 417
#     4  12  24  40  68 102 136 168 220 286 340 408
#     4  12  24  44  68  90 132 186 226 272 338 414
#
# _framework density 19.111626000000001
#
# number of rings (size 3 to 8) (size 9 to 14) (size 15 to 20)
#    0.000    0.857    6.429    2.143    3.000    2.286 
#    0.000    0.000    3.143    0.000    0.000    0.000 
#    0.000    0.000    0.000    0.000    0.000    0.000 
#
# Total GULP energy -156243.139135 kJ/mol
# GULP energy per Si atom -5580.112112 kJ/mol
# Density = 1.906813 g / cm^3
# Si number density = 19.111626 Si / 1000 Ang^3
#
#
#
# Elastic Constant Matrix: (Units=GPa)
#
#
# Indices 1 2 3 4 5 6 
#
# 1 94.9448 30.6933 32.0823 0.0000 0.0000 0.0000
# 2 30.6933 114.9043 48.6076 0.0000 0.0000 0.0000
# 3 32.0823 48.6076 112.3512 0.0000 0.0000 0.0000
# 4 0.0000 0.0000 0.0000 20.4611 0.0000 0.0000
# 5 0.0000 0.0000 0.0000 0.0000 12.8662 0.0000
# 6 0.0000 0.0000 0.0000 0.0000 0.0000 88.1572
#
#
#
# Elastic Compliance Matrix: (Units=1/GPa)
#
#
# Indices 1 2 3 4 5 6 
#
# 1 0.012081 -0.002164 -0.002514 0.000000 0.000000 0.000000
# 2 -0.002164 0.011040 -0.004158 0.000000 0.000000 0.000000
# 3 -0.002514 -0.004158 0.011418 0.000000 0.000000 0.000000
# 4 0.000000 0.000000 0.000000 0.048873 0.000000 0.000000
# 5 0.000000 0.000000 0.000000 0.000000 0.077723 0.000000
# 6 0.000000 0.000000 0.000000 0.000000 0.000000 0.011343
#
#
# Mechanical properties :
#
#
# Convention : Reuss Voigt Hill
#
# Bulk Modulus (GPa) = 59.28751 60.55185 59.91968
# Shear Modulus (GPa) = 25.53982 38.35138 31.94560
#
# Velocity S-wave (km/s) = 3.65958 4.48449 4.09287
# Velocity P-wave (km/s) = 6.99612 7.65285 7.33184
#
# Compressibility (1/GPa) = 0.01686696
#
# Stress axis : x y z
#
# Youngs Moduli (GPa) = 82.77231 90.57941 87.58422
#
# Poissons Ratio (x) = 0.19600 0.22016
# Poissons Ratio (y) = 0.17910 0.36422
# Poissons Ratio (z) = 0.20807 0.37667
#
# Static dielectric constant tensor:
#      x y z
#    x 1.680090 0.000000 0.000000 
#    y 0.000000 1.702200 0.000000 
#    z 0.000000 0.000000 1.640560 
# 
# From -- ./inp_files/27604.got.cif
#   From: 2010.05.17/outbox.cif.g08.bks.cpg/sg24_14_cif.got.tgz:27604.got - 2010.06.04 00:33:39.
