data_PCOD9334375
_publ_section_title
;
Structure prediction by ZEFSAII (Michael W. Deem and Ramdas Pophale) SiO2 
 PCOD9334375
Probable space group: I 21 21 21
;
_chemical_formula_sum "Si O2"
_cell_formula_units_Z 40
_cell_length_a 11.748442
_cell_length_b 8.305921
_cell_length_c 21.236039
_cell_angle_alpha 90.000000
_cell_angle_beta 90.000000
_cell_angle_gamma 90.000000
_cell_volume 2072.247324
_symmetry_space_group_name_H-M "I 21 21 21"
_symmetry_group_IT_number 24
_symmetry_cell_setting 'orthorhombic'
loop_
_space_group_symop_operation_xyz
x,y,z
-x,1/2-y,z
x,-y,1/2-z
1/2-x,y,-z
1/2+x,1/2+y,1/2+z
1/2-x,-y,1/2+z
1/2+x,1/2-y,-z
-x,1/2+y,1/2-z
loop_
_atom_site_type_symbol
_atom_site_label
_atom_site_fract_x
_atom_site_fract_y
_atom_site_fract_z
Si Si1 0.000000 0.750000 0.120008
Si Si2 0.000000 0.750000 0.523921
Si Si3 0.347395 0.510392 0.551766
Si Si4 0.203437 0.213358 0.880348
Si Si5 0.624914 0.190633 0.258404
Si Si6 0.301930 0.084521 0.682240
O O1 0.092895 0.645507 0.081647
O O2 0.072665 0.864715 0.164339
O O3 0.895324 0.699071 0.568181
O O4 0.050893 0.608183 0.481773
O O5 0.250000 0.469914 0.500000
O O6 0.286240 0.639170 0.599142
O O7 0.149632 0.245631 0.811915
O O8 0.263812 0.042355 0.870721
O O9 0.500000 0.250000 0.278036
O O10 0.716370 0.265211 0.306909
O O11 0.629230 0.000000 0.250000
O O12 0.301111 0.000000 0.750000
#
# Coordination Sequence:
#
# PCOD9334375 Si02
#       6
#     4   4   8   8   8   8
#     4  12  24  42  59  86 129 158 200 254 310 360
#     4  10  20  38  63  84 117 158 202 258 302 360
#     4  10  23  39  60  88 117 160 208 254 304 366
#     4  10  20  39  62  89 117 157 207 246 310 355
#     4  11  21  37  61  92 125 156 198 249 304 368
#     4  10  24  39  60  91 121 160 204 243 305 374
#
# _framework density 19.302714999999999
#
# number of rings (size 3 to 8) (size 9 to 14) (size 15 to 20)
#    0.000    1.600    1.000    4.200    0.000    5.600 
#    0.000    0.000    0.000    0.000    0.000    0.000 
#    0.000    0.000    0.000    0.000    0.000    0.000 
#
# Total GULP energy -111608.485095 kJ/mol
# GULP energy per Si atom -5580.424255 kJ/mol
# Density = 1.925878 g / cm^3
# Si number density = 19.302715 Si / 1000 Ang^3
#
#
#
# Elastic Constant Matrix: (Units=GPa)
#
#
# Indices 1 2 3 4 5 6 
#
# 1 94.7189 40.8078 17.6018 0.0000 0.0000 0.0000
# 2 40.8078 88.0843 5.7812 0.0000 0.0000 0.0000
# 3 17.6018 5.7812 39.6353 0.0000 0.0000 0.0000
# 4 0.0000 0.0000 0.0000 21.2822 0.0000 0.0000
# 5 0.0000 0.0000 0.0000 0.0000 -38.9137 0.0000
# 6 0.0000 0.0000 0.0000 0.0000 0.0000 37.9075
#
#
#
# Elastic Compliance Matrix: (Units=1/GPa)
#
#
# Indices 1 2 3 4 5 6 
#
# 1 0.014257 -0.006249 -0.005420 0.000000 0.000000 0.000000
# 2 -0.006249 0.014202 0.000704 0.000000 0.000000 0.000000
# 3 -0.005420 0.000704 0.027534 0.000000 0.000000 0.000000
# 4 0.000000 0.000000 0.000000 0.046988 0.000000 0.000000
# 5 0.000000 0.000000 0.000000 0.000000 -0.025698 0.000000
# 6 0.000000 0.000000 0.000000 0.000000 0.000000 0.026380
#
#
# Mechanical properties :
#
#
# Convention : Reuss Voigt Hill
#
# Bulk Modulus (GPa) = 29.35797 38.98001 34.16899
# Shear Modulus (GPa) = 36.51012 14.60504 25.55758
#
# Velocity S-wave (km/s) = 4.35380 2.75368 3.64268
# Velocity P-wave (km/s) = 6.36524 5.50892 5.95250
#
# Compressibility (1/GPa) = 0.03406230
#
# Stress axis : x y z
#
# Youngs Moduli (GPa) = 70.14003 70.41374 36.31820
#
# Poissons Ratio (x) = 0.44004 0.19685
# Poissons Ratio (y) = 0.43833 -0.02556
# Poissons Ratio (z) = 0.38016 -0.04956
#
# Static dielectric constant tensor:
#      x y z
#    x 1.655160 0.000000 0.000000 
#    y 0.000000 1.967830 0.000000 
#    z 0.000000 0.000000 1.655840 
# 
# From -- ./inp_files/9347.got.cif
#   From: 2010.05.17/outbox.cif.g08.bks.cpg/sg24_5_cif.got.tgz:9347.got - 2010.06.04 00:33:39.
