data_PCOD9334041
_publ_section_title
;
Structure prediction by ZEFSAII (Michael W. Deem and Ramdas Pophale) SiO2 
 PCOD9334041
Probable space group: I 21 21 21
;
_chemical_formula_sum "Si O2"
_cell_formula_units_Z 40
_cell_length_a 5.087446
_cell_length_b 17.853892
_cell_length_c 21.316047
_cell_angle_alpha 90.000000
_cell_angle_beta 90.000000
_cell_angle_gamma 90.000000
_cell_volume 1936.151714
_symmetry_space_group_name_H-M "I 21 21 21"
_symmetry_group_IT_number 24
_symmetry_cell_setting 'orthorhombic'
loop_
_space_group_symop_operation_xyz
x,y,z
-x,1/2-y,z
x,-y,1/2-z
1/2-x,y,-z
1/2+x,1/2+y,1/2+z
1/2-x,-y,1/2+z
1/2+x,1/2-y,-z
-x,1/2+y,1/2-z
loop_
_atom_site_type_symbol
_atom_site_label
_atom_site_fract_x
_atom_site_fract_y
_atom_site_fract_z
Si Si1 0.600602 0.076059 0.792283
Si Si2 0.908001 0.325723 0.775955
Si Si3 0.752375 0.293777 0.638355
Si Si4 0.678031 0.032312 0.933081
Si Si5 0.822062 0.434682 0.564633
O O1 0.321342 0.118787 0.799798
O O2 0.707099 0.065863 0.863718
O O3 0.829397 0.126658 0.761250
O O4 0.571945 0.000000 0.750000
O O5 0.777612 0.293110 0.713034
O O6 0.000000 0.250000 0.812704
O O7 0.500000 0.250000 0.616980
O O8 0.756001 0.380107 0.620502
O O9 0.000000 0.250000 0.611209
O O10 0.378086 0.004310 0.935259
O O11 0.750000 0.071936 0.000000
O O12 0.880807 0.962485 0.933766
O O13 0.750000 0.393393 0.500000
#
# Coordination Sequence:
#
# PCOD9334041 Si02
#       5
#     8   8   8   8   8
#     4  12  22  37  64  91 116 151 202 244 279 348
#     4  11  23  39  57  85 121 155 188 239 304 347
#     4  11  21  34  52  76 111 152 191 228 275 341
#     4  10  21  37  57  83 113 145 183 241 300 337
#     4  10  20  35  53  77 113 149 186 232 284 337
#
# _framework density 20.659537
#
# number of rings (size 3 to 8) (size 9 to 14) (size 15 to 20)
#    0.000    1.200    0.000    8.400    0.000    0.800 
#    0.000    0.000    0.000    2.400    0.000    1.400 
#    0.000    0.000    0.000    0.000    0.000    0.000 
#
# Total GULP energy -111442.064741 kJ/mol
# GULP energy per Si atom -5572.103237 kJ/mol
# Density = 2.061251 g / cm^3
# Si number density = 20.659537 Si / 1000 Ang^3
#
#
#
# Elastic Constant Matrix: (Units=GPa)
#
#
# Indices 1 2 3 4 5 6 
#
# 1 133.7145 42.4063 8.8727 0.0000 0.0000 0.0000
# 2 42.4063 80.1380 19.6508 0.0000 0.0000 0.0000
# 3 8.8727 19.6508 62.0463 0.0000 0.0000 0.0000
# 4 0.0000 0.0000 0.0000 176.5021 0.0000 0.0000
# 5 0.0000 0.0000 0.0000 0.0000 44.2814 0.0000
# 6 0.0000 0.0000 0.0000 0.0000 0.0000 32.8817
#
#
#
# Elastic Compliance Matrix: (Units=1/GPa)
#
#
# Indices 1 2 3 4 5 6 
#
# 1 0.008990 -0.004816 0.000240 0.000000 0.000000 0.000000
# 2 -0.004816 0.016109 -0.004413 0.000000 0.000000 0.000000
# 3 0.000240 -0.004413 0.017480 0.000000 0.000000 0.000000
# 4 0.000000 0.000000 0.000000 0.005666 0.000000 0.000000
# 5 0.000000 0.000000 0.000000 0.000000 0.022583 0.000000
# 6 0.000000 0.000000 0.000000 0.000000 0.000000 0.030412
#
#
# Mechanical properties :
#
#
# Convention : Reuss Voigt Hill
#
# Bulk Modulus (GPa) = 40.64957 46.41759 43.53358
# Shear Modulus (GPa) = 39.24046 64.39764 51.81905
#
# Velocity S-wave (km/s) = 4.36292 5.58915 5.01367
# Velocity P-wave (km/s) = 6.71556 8.01050 7.39144
#
# Compressibility (1/GPa) = 0.02460050
#
# Stress axis : x y z
#
# Youngs Moduli (GPa) = 111.23383 62.07660 57.20682
#
# Poissons Ratio (x) = 0.29896 -0.01371
# Poissons Ratio (y) = 0.53570 0.25247
# Poissons Ratio (z) = -0.02666 0.27396
#
# Static dielectric constant tensor:
#      x y z
#    x 1.544220 0.000000 0.000000 
#    y 0.000000 1.761870 0.000000 
#    z 0.000000 0.000000 1.858820 
# 
# From -- ./inp_files/27715.got.cif
#   From: 2010.05.17/outbox.cif.g08.bks.cpg/sg24_14_cif.got.tgz:27715.got - 2010.06.04 00:33:39.
