data_PCOD9334934
_publ_section_title
;
Structure prediction by ZEFSAII (Michael W. Deem and Ramdas Pophale) SiO2 
 PCOD9334934
Probable space group: I 21 21 21
;
_chemical_formula_sum "Si O2"
_cell_formula_units_Z 28
_cell_length_a 7.923609
_cell_length_b 27.458546
_cell_length_c 5.383982
_cell_angle_alpha 90.000000
_cell_angle_beta 90.000000
_cell_angle_gamma 90.000000
_cell_volume 1171.397175
_symmetry_space_group_name_H-M "I 21 21 21"
_symmetry_group_IT_number 24
_symmetry_cell_setting 'orthorhombic'
loop_
_space_group_symop_operation_xyz
x,y,z
-x,1/2-y,z
x,-y,1/2-z
1/2-x,y,-z
1/2+x,1/2+y,1/2+z
1/2-x,-y,1/2+z
1/2+x,1/2-y,-z
-x,1/2+y,1/2-z
loop_
_atom_site_type_symbol
_atom_site_label
_atom_site_fract_x
_atom_site_fract_y
_atom_site_fract_z
Si Si1 0.596737 0.556336 0.324545
Si Si2 0.045672 0.806148 0.486273
Si Si3 0.750000 0.968203 0.500000
Si Si4 0.054225 0.146773 0.512139
O O1 0.626583 0.500000 0.250000
O O2 0.750000 0.573247 0.500000
O O3 0.424712 0.559717 0.478673
O O4 0.565335 0.589853 0.084561
O O5 0.250000 0.810326 0.500000
O O6 0.977566 0.826539 0.747907
O O7 0.000000 0.750000 0.453041
O O8 0.981514 0.836972 0.250104
O O9 0.757710 0.000000 0.250000
O O10 0.250000 0.162771 0.500000
#
# Coordination Sequence:
#
# PCOD9334934 Si02
#       4
#     8   8   4   8
#     4  11  22  40  70  98 136 183 223 265 330 400
#     4  10  21  40  66  89 129 164 213 271 333 386
#     4  10  24  42  62  94 136 176 224 278 316 374
#     4  10  21  38  64  95 125 170 213 269 322 389
#
# _framework density 23.903081
#
# number of rings (size 3 to 8) (size 9 to 14) (size 15 to 20)
#    0.000    1.714    0.000    5.143    0.000    6.857 
#    2.571    0.000   12.571    0.000    0.000    0.000 
#    0.000    0.000    0.000    0.000    0.000    0.000 
#
# Total GULP energy -78304.860202 kJ/mol
# GULP energy per Si atom -5593.204300 kJ/mol
# Density = 2.384868 g / cm^3
# Si number density = 23.903081 Si / 1000 Ang^3
#
#
#
# Elastic Constant Matrix: (Units=GPa)
#
#
# Indices 1 2 3 4 5 6 
#
# 1 106.2273 -3.6629 33.2480 0.0004 0.0003 -0.0013
# 2 -3.6629 177.4586 102.6006 0.0002 -0.0003 -0.0002
# 3 33.2480 102.6006 217.9321 0.0076 0.0016 -0.0010
# 4 0.0004 0.0002 0.0076 39.9745 0.0009 -0.0001
# 5 0.0003 -0.0003 0.0016 0.0009 18.5354 0.0009
# 6 -0.0013 -0.0002 -0.0010 -0.0001 0.0009 0.8142
#
#
#
# Elastic Compliance Matrix: (Units=1/GPa)
#
#
# Indices 1 2 3 4 5 6 
#
# 1 0.010176 0.001522 -0.002269 0.000000 0.000000 0.000013
# 2 0.001522 0.007970 -0.003985 0.000001 0.000000 -0.000001
# 3 -0.002269 -0.003985 0.006811 -0.000001 -0.000001 0.000004
# 4 0.000000 0.000001 -0.000001 0.025016 -0.000001 0.000004
# 5 0.000000 0.000000 -0.000001 -0.000001 0.053951 -0.000063
# 6 0.000013 -0.000001 0.000004 0.000004 -0.000063 1.228234
#
#
# Mechanical properties :
#
#
# Convention : Reuss Voigt Hill
#
# Bulk Modulus (GPa) = 64.54082 85.10993 74.82537
# Shear Modulus (GPa) = 3.71254 36.49363 20.10309
#
# Velocity S-wave (km/s) = 1.24761 3.91158 2.90319
# Velocity P-wave (km/s) = 5.39769 7.48894 6.52760
#
# Compressibility (1/GPa) = 0.01549407
#
# Stress axis : x y z
#
# Youngs Moduli (GPa) = 98.26621 125.46665 146.82927
#
# Poissons Ratio (x) = -0.19095 0.33316
# Poissons Ratio (y) = -0.14956 0.58504
# Poissons Ratio (z) = 0.22297 0.49992
#
# Static dielectric constant tensor:
#      x y z
#    x 1.899220 0.000000 0.000000 
#    y 0.000000 1.906700 0.000000 
#    z 0.000000 0.000000 1.935420 
# 
# From -- ./inp_files/995.got.cif
#   From: 2010.05.17/outbox.cif.g08.bks.cpg/sg24_1_cif.got.tgz:995.got - 2010.06.04 00:33:39.
