data_PCOD9334933
_publ_section_title
;
Structure prediction by ZEFSAII (Michael W. Deem and Ramdas Pophale) SiO2 
 PCOD9334933
Probable space group: I 21 21 21
;
_chemical_formula_sum "Si O2"
_cell_formula_units_Z 64
_cell_length_a 32.427369
_cell_length_b 10.299817
_cell_length_c 9.155115
_cell_angle_alpha 90.000000
_cell_angle_beta 90.000000
_cell_angle_gamma 90.000000
_cell_volume 3057.771483
_symmetry_space_group_name_H-M "I 21 21 21"
_symmetry_group_IT_number 24
_symmetry_cell_setting 'orthorhombic'
loop_
_space_group_symop_operation_xyz
x,y,z
-x,1/2-y,z
x,-y,1/2-z
1/2-x,y,-z
1/2+x,1/2+y,1/2+z
1/2-x,-y,1/2+z
1/2+x,1/2-y,-z
-x,1/2+y,1/2-z
loop_
_atom_site_type_symbol
_atom_site_label
_atom_site_fract_x
_atom_site_fract_y
_atom_site_fract_z
Si Si1 0.857849 0.514144 0.417940
Si Si2 0.045901 0.260755 0.391337
Si Si3 0.533969 0.023882 0.075685
Si Si4 0.242891 0.347181 0.781288
Si Si5 0.403808 0.372856 0.855154
Si Si6 0.181275 0.715438 0.488380
Si Si7 0.441598 0.002304 0.423565
Si Si8 0.220235 0.895342 0.119224
O O1 0.870476 0.500000 0.250000
O O2 0.828640 0.636114 0.452049
O O3 0.898639 0.542686 0.509376
O O4 0.826968 0.608960 0.060294
O O5 0.043527 0.389102 0.491488
O O6 0.079421 0.268061 0.262368
O O7 0.053489 0.143370 0.501852
O O8 0.000000 0.250000 0.324121
O O9 0.539661 0.000000 0.250000
O O10 0.486224 0.062391 0.048480
O O11 0.564405 0.119578 0.990501
O O12 0.238896 0.500000 0.750000
O O13 0.280616 0.335390 0.894302
O O14 0.259238 0.242123 0.663031
O O15 0.198976 0.301544 0.848546
O O16 0.403729 0.500000 0.750000
O O17 0.359593 0.355430 0.929948
O O18 0.437156 0.000000 0.250000
O O19 0.220011 0.000000 0.250000
O O20 0.250000 0.954755 0.000000
#
# Coordination Sequence:
#
# PCOD9334933 Si02
#       8
#     8   8   8   8   8   8   8   8
#     4  11  22  39  65  95 125 174 215 278 336 401
#     4   9  19  37  61  91 129 173 229 281 327 406
#     4   9  20  39  61  90 132 177 221 275 345 402
#     4  11  25  44  68  95 131 172 216 277 343 409
#     4  10  21  38  64  92 126 174 218 275 332 395
#     4  11  23  42  65  93 134 164 221 277 333 404
#     4  10  22  39  60  92 133 174 222 278 336 404
#     4  11  23  43  69  96 128 172 217 270 340 404
#
# _framework density 20.930275000000002
#
# number of rings (size 3 to 8) (size 9 to 14) (size 15 to 20)
#    0.000    1.750    2.500    1.875    1.750    6.500 
#    0.000    4.375    0.000    0.000    0.000    0.000 
#    0.000    0.000    0.000    0.000    0.000    0.000 
#
# Total GULP energy -178267.554580 kJ/mol
# GULP energy per Si atom -5570.861081 kJ/mol
# Density = 2.088264 g / cm^3
# Si number density = 20.930275 Si / 1000 Ang^3
#
#
#
# Elastic Constant Matrix: (Units=GPa)
#
#
# Indices 1 2 3 4 5 6 
#
# 1 170.7241 37.0348 94.8030 0.0000 0.0000 0.0000
# 2 37.0348 77.1150 28.9706 0.0000 0.0000 0.0000
# 3 94.8030 28.9706 91.3635 0.0000 0.0000 0.0000
# 4 0.0000 0.0000 0.0000 10.3353 0.0000 0.0000
# 5 0.0000 0.0000 0.0000 0.0000 27.5681 0.0000
# 6 0.0000 0.0000 0.0000 0.0000 0.0000 13.3271
#
#
#
# Elastic Compliance Matrix: (Units=1/GPa)
#
#
# Indices 1 2 3 4 5 6 
#
# 1 0.013959 -0.001433 -0.014031 0.000000 0.000000 0.000000
# 2 -0.001433 0.014868 -0.003228 0.000000 0.000000 0.000000
# 3 -0.014031 -0.003228 0.026527 0.000000 0.000000 0.000000
# 4 0.000000 0.000000 0.000000 0.096756 0.000000 0.000000
# 5 0.000000 0.000000 0.000000 0.000000 0.036274 0.000000
# 6 0.000000 0.000000 0.000000 0.000000 0.000000 0.075035
#
#
# Mechanical properties :
#
#
# Convention : Reuss Voigt Hill
#
# Bulk Modulus (GPa) = 55.63946 73.42439 64.53192
# Shear Modulus (GPa) = 16.29761 22.13904 19.21833
#
# Velocity S-wave (km/s) = 2.79348 3.25584 3.03348
# Velocity P-wave (km/s) = 6.08651 7.02073 6.57025
#
# Compressibility (1/GPa) = 0.01797285
#
# Stress axis : x y z
#
# Youngs Moduli (GPa) = 71.63618 67.25655 37.69675
#
# Poissons Ratio (x) = 0.09638 0.52891
# Poissons Ratio (y) = 0.10266 0.12167
# Poissons Ratio (z) = 1.00509 0.21708
#
# Static dielectric constant tensor:
#      x y z
#    x 1.789040 0.000000 0.000000 
#    y 0.000000 1.822840 0.000000 
#    z 0.000000 0.000000 1.784170 
# 
# From -- ./inp_files/17003.got.cif
#   From: 2010.05.17/outbox.cif.g08.bks.cpg/sg24_9_cif.got.tgz:17003.got - 2010.06.04 00:33:39.
