data_PCOD9334486
_publ_section_title
;
Structure prediction by ZEFSAII (Michael W. Deem and Ramdas Pophale) SiO2 
 PCOD9334486
Probable space group: I 21 21 21
;
_chemical_formula_sum "Si O2"
_cell_formula_units_Z 48
_cell_length_a 12.995161
_cell_length_b 18.706776
_cell_length_c 9.202669
_cell_angle_alpha 90.000000
_cell_angle_beta 90.000000
_cell_angle_gamma 90.000000
_cell_volume 2237.146434
_symmetry_space_group_name_H-M "I 21 21 21"
_symmetry_group_IT_number 24
_symmetry_cell_setting 'orthorhombic'
loop_
_space_group_symop_operation_xyz
x,y,z
-x,1/2-y,z
x,-y,1/2-z
1/2-x,y,-z
1/2+x,1/2+y,1/2+z
1/2-x,-y,1/2+z
1/2+x,1/2-y,-z
-x,1/2+y,1/2-z
loop_
_atom_site_type_symbol
_atom_site_label
_atom_site_fract_x
_atom_site_fract_y
_atom_site_fract_z
Si Si1 0.655104 0.416536 0.584993
Si Si2 0.074608 0.565346 0.160184
Si Si3 0.628279 0.077061 0.328241
Si Si4 0.746151 0.674408 0.661585
Si Si5 0.799699 0.163731 0.160119
Si Si6 0.940953 0.322054 0.658828
O O1 0.750000 0.454618 0.500000
O O2 0.544769 0.450741 0.620692
O O3 0.698815 0.383592 0.731872
O O4 0.622978 0.351575 0.477691
O O5 0.120237 0.500000 0.250000
O O6 0.095208 0.630104 0.273063
O O7 0.128005 0.572315 0.003473
O O8 0.716079 0.129677 0.269543
O O9 0.520401 0.116531 0.294929
O O10 0.633376 0.000000 0.250000
O O11 0.750000 0.646465 0.500000
O O12 0.690220 0.750975 0.665834
O O13 0.861086 0.692209 0.714187
O O14 0.750000 0.146399 0.000000
O O15 0.000000 0.250000 0.619562
#
# Coordination Sequence:
#
# PCOD9334486 Si02
#       6
#     8   8   8   8   8   8
#     4   9  22  41  64  88 119 156 215 261 316 376
#     4  11  24  41  62  90 123 168 214 255 321 383
#     4  11  23  39  62  90 126 169 208 260 314 374
#     4  10  22  38  59  93 125 160 205 267 323 363
#     4  11  23  38  59  91 133 169 206 256 317 386
#     4  10  20  39  63  88 119 163 212 254 303 381
#
# _framework density 21.455905000000001
#
# number of rings (size 3 to 8) (size 9 to 14) (size 15 to 20)
#    0.000    1.667    1.667    2.000    4.667    4.000 
#    0.000    8.333    0.000    0.000    0.000    0.000 
#    0.000    0.000    0.000    0.000    0.000    0.000 
#
# Total GULP energy -133894.795449 kJ/mol
# GULP energy per Si atom -5578.949810 kJ/mol
# Density = 2.140707 g / cm^3
# Si number density = 21.455905 Si / 1000 Ang^3
#
#
#
# Elastic Constant Matrix: (Units=GPa)
#
#
# Indices 1 2 3 4 5 6 
#
# 1 70.0755 -9.9520 9.9794 0.0000 0.0000 0.0000
# 2 -9.9520 30.1102 12.4906 0.0000 0.0000 0.0000
# 3 9.9794 12.4906 120.3805 -0.0001 0.0000 0.0000
# 4 0.0000 0.0000 -0.0001 17.7687 0.0000 0.0000
# 5 0.0000 0.0000 0.0000 0.0000 18.9067 0.0000
# 6 0.0000 0.0000 0.0000 0.0000 0.0000 -18.0582
#
#
#
# Elastic Compliance Matrix: (Units=1/GPa)
#
#
# Indices 1 2 3 4 5 6 
#
# 1 0.015371 0.005861 -0.001882 0.000000 0.000000 0.000000
# 2 0.005861 0.036940 -0.004319 0.000000 0.000000 0.000000
# 3 -0.001882 -0.004319 0.008911 0.000000 0.000000 0.000000
# 4 0.000000 0.000000 0.000000 0.056279 0.000000 0.000000
# 5 0.000000 0.000000 0.000000 0.000000 0.052891 0.000000
# 6 0.000000 0.000000 0.000000 0.000000 0.000000 -0.055376
#
#
# Mechanical properties :
#
#
# Convention : Reuss Voigt Hill
#
# Bulk Modulus (GPa) = 16.51741 27.28915 21.90328
# Shear Modulus (GPa) = 36.79812 17.59330 27.19571
#
# Velocity S-wave (km/s) = 4.14582 2.86663 3.56408
# Velocity P-wave (km/s) = 5.53463 4.86858 5.21225
#
# Compressibility (1/GPa) = 0.06054219
#
# Stress axis : x y z
#
# Youngs Moduli (GPa) = 65.05846 27.07078 112.21884
#
# Poissons Ratio (x) = -0.15867 0.21124
# Poissons Ratio (y) = -0.38132 0.48465
# Poissons Ratio (z) = 0.12246 0.11691
#
# Static dielectric constant tensor:
#      x y z
#    x 1.857310 0.000000 0.000000 
#    y 0.000000 1.749010 0.000000 
#    z 0.000000 0.000000 1.798070 
# 
# From -- ./inp_files/11251.got.cif
#   From: 2010.05.17/outbox.cif.g08.bks.cpg/sg24_6_cif.got.tgz:11251.got - 2010.06.04 00:33:39.
