data_PCOD9334100
_publ_section_title
;
Structure prediction by ZEFSAII (Michael W. Deem and Ramdas Pophale) SiO2 
 PCOD9334100
Probable space group: I 21 21 21
;
_chemical_formula_sum "Si O2"
_cell_formula_units_Z 40
_cell_length_a 8.816561
_cell_length_b 11.195083
_cell_length_c 17.756623
_cell_angle_alpha 90.000000
_cell_angle_beta 90.000000
_cell_angle_gamma 90.000000
_cell_volume 1752.616550
_symmetry_space_group_name_H-M "I 21 21 21"
_symmetry_group_IT_number 24
_symmetry_cell_setting 'orthorhombic'
loop_
_space_group_symop_operation_xyz
x,y,z
-x,1/2-y,z
x,-y,1/2-z
1/2-x,y,-z
1/2+x,1/2+y,1/2+z
1/2-x,-y,1/2+z
1/2+x,1/2-y,-z
-x,1/2+y,1/2-z
loop_
_atom_site_type_symbol
_atom_site_label
_atom_site_fract_x
_atom_site_fract_y
_atom_site_fract_z
Si Si1 0.627768 0.532733 0.165710
Si Si2 0.172726 0.451897 0.888182
Si Si3 0.836882 0.304479 0.429330
Si Si4 0.726863 0.693704 0.589395
Si Si5 0.974409 0.027747 0.050573
O O1 0.675400 0.500000 0.250000
O O2 0.444906 0.530015 0.159482
O O3 0.716283 0.648252 0.132801
O O4 0.671902 0.414778 0.118737
O O5 0.219804 0.314898 0.869171
O O6 0.334575 0.515553 0.898372
O O7 0.097072 0.440422 0.970758
O O8 0.750000 0.241774 0.500000
O O9 0.000000 0.250000 0.403981
O O10 0.902468 0.427399 0.464392
O O11 0.750000 0.711160 0.500000
O O12 0.558815 0.635994 0.592122
#
# Coordination Sequence:
#
# PCOD9334100 Si02
#       5
#     8   8   8   8   8
#     4  11  24  44  62  93 145 181 217 274 336 416
#     4  11  20  33  65 101 133 164 210 272 346 393
#     4  11  24  44  70  95 125 178 237 287 330 388
#     4  11  19  35  64  98 129 163 216 274 335 389
#     4  10  20  35  61 103 133 153 214 289 330 385
#
# _framework density 22.823021000000001
#
# number of rings (size 3 to 8) (size 9 to 14) (size 15 to 20)
#    0.000    1.200    6.000    2.400    2.800    0.000 
#    0.000   14.000    0.000    0.000    0.000    0.000 
#    0.000    0.000    0.000    0.000    0.000    0.000 
#
# Total GULP energy -111421.231551 kJ/mol
# GULP energy per Si atom -5571.061578 kJ/mol
# Density = 2.277107 g / cm^3
# Si number density = 22.823021 Si / 1000 Ang^3
#
#
#
# Elastic Constant Matrix: (Units=GPa)
#
#
# Indices 1 2 3 4 5 6 
#
# 1 158.7187 27.8657 25.8773 0.0000 0.0000 0.0000
# 2 27.8657 60.3410 3.3345 0.0000 0.0000 0.0000
# 3 25.8773 3.3345 62.9933 0.0000 0.0000 0.0000
# 4 0.0000 0.0000 0.0000 2.1878 0.0000 0.0000
# 5 0.0000 0.0000 0.0000 0.0000 14.8547 0.0000
# 6 0.0000 0.0000 0.0000 0.0000 0.0000 34.9076
#
#
#
# Elastic Compliance Matrix: (Units=1/GPa)
#
#
# Indices 1 2 3 4 5 6 
#
# 1 0.007330 -0.003228 -0.002840 0.000000 0.000000 0.000000
# 2 -0.003228 0.018043 0.000371 0.000000 0.000000 0.000000
# 3 -0.002840 0.000371 0.017022 0.000000 0.000000 0.000000
# 4 0.000000 0.000000 0.000000 0.457072 0.000000 0.000000
# 5 0.000000 0.000000 0.000000 0.000000 0.067319 0.000000
# 6 0.000000 0.000000 0.000000 0.000000 0.000000 0.028647
#
#
# Mechanical properties :
#
#
# Convention : Reuss Voigt Hill
#
# Bulk Modulus (GPa) = 32.25818 44.02313 38.14066
# Shear Modulus (GPa) = 8.10161 25.38840 16.74500
#
# Velocity S-wave (km/s) = 1.88612 3.33889 2.71161
# Velocity P-wave (km/s) = 4.34833 5.84765 5.15282
#
# Compressibility (1/GPa) = 0.03099989
#
# Stress axis : x y z
#
# Youngs Moduli (GPa) = 136.41987 55.42388 58.74798
#
# Poissons Ratio (x) = 0.17892 0.16687
# Poissons Ratio (y) = 0.44039 -0.02180
# Poissons Ratio (z) = 0.38748 -0.02056
#
# Static dielectric constant tensor:
#      x y z
#    x 1.999300 0.000000 0.000000 
#    y 0.000000 1.940640 0.000000 
#    z 0.000000 0.000000 1.824950 
# 
# From -- ./inp_files/29261.got.cif
#   From: 2010.05.17/outbox.cif.g08.bks.cpg/sg24_15_cif.got.tgz:29261.got - 2010.06.04 00:33:39.
