data_PCOD9334913
_publ_section_title
;
Structure prediction by ZEFSAII (Michael W. Deem and Ramdas Pophale) SiO2 
 PCOD9334913
Probable space group: I 21 21 21
;
_chemical_formula_sum "Si O2"
_cell_formula_units_Z 32
_cell_length_a 7.950937
_cell_length_b 5.102347
_cell_length_c 36.516677
_cell_angle_alpha 90.000000
_cell_angle_beta 90.000000
_cell_angle_gamma 90.000000
_cell_volume 1481.424603
_symmetry_space_group_name_H-M "I 21 21 21"
_symmetry_group_IT_number 24
_symmetry_cell_setting 'orthorhombic'
loop_
_space_group_symop_operation_xyz
x,y,z
-x,1/2-y,z
x,-y,1/2-z
1/2-x,y,-z
1/2+x,1/2+y,1/2+z
1/2-x,-y,1/2+z
1/2+x,1/2-y,-z
-x,1/2+y,1/2-z
loop_
_atom_site_type_symbol
_atom_site_label
_atom_site_fract_x
_atom_site_fract_y
_atom_site_fract_z
Si Si1 0.811677 0.668533 0.101453
Si Si2 0.109854 0.992078 0.970406
Si Si3 0.203035 0.251839 0.225801
Si Si4 0.191999 0.681980 0.642778
O O1 0.698566 0.620482 0.065869
O O2 0.809024 0.396771 0.123369
O O3 0.000000 0.750000 0.091134
O O4 0.737060 0.895686 0.127542
O O5 0.000000 0.750000 0.985438
O O6 0.250000 0.067086 0.000000
O O7 0.000000 0.250000 0.962255
O O8 0.248786 0.500000 0.250000
O O9 0.283191 0.281769 0.186048
O O10 0.000000 0.250000 0.220696
O O11 0.249206 0.000000 0.250000
O O12 0.000000 0.750000 0.633279
#
# Coordination Sequence:
#
# PCOD9334913 Si02
#       4
#     8   8   8   8
#     4  12  25  44  69  97 132 176 223 271 330 396
#     4  12  26  46  71 101 137 175 221 274 335 398
#     4  10  21  38  61  90 127 171 218 268 326 393
#     4  12  25  42  66  98 134 172 219 277 335 393
#
# _framework density 21.600826999999999
#
# number of rings (size 3 to 8) (size 9 to 14) (size 15 to 20)
#    0.000    0.500    0.000    9.750    0.000    5.000 
#    0.000    0.000    0.000    0.000    0.000    0.000 
#    0.000    0.000    0.000    0.000    0.000    0.000 
#
# Total GULP energy -89638.912925 kJ/mol
# GULP energy per Si atom -5602.432058 kJ/mol
# Density = 2.155166 g / cm^3
# Si number density = 21.600827 Si / 1000 Ang^3
#
#
#
# Elastic Constant Matrix: (Units=GPa)
#
#
# Indices 1 2 3 4 5 6 
#
# 1 103.4931 36.9106 36.2333 0.0000 0.0000 0.0000
# 2 36.9106 137.5814 39.0101 0.0000 0.0000 0.0000
# 3 36.2333 39.0101 123.5553 0.0000 0.0000 0.0000
# 4 0.0000 0.0000 0.0000 30.0141 0.0000 0.0000
# 5 0.0000 0.0000 0.0000 0.0000 -72.7104 0.0000
# 6 0.0000 0.0000 0.0000 0.0000 0.0000 41.4976
#
#
#
# Elastic Compliance Matrix: (Units=1/GPa)
#
#
# Indices 1 2 3 4 5 6 
#
# 1 0.011404 -0.002319 -0.002612 0.000000 0.000000 0.000000
# 2 -0.002319 0.008455 -0.001989 0.000000 0.000000 0.000000
# 3 -0.002612 -0.001989 0.009488 0.000000 0.000000 0.000000
# 4 0.000000 0.000000 0.000000 0.033318 0.000000 0.000000
# 5 0.000000 0.000000 0.000000 0.000000 -0.013753 0.000000
# 6 0.000000 0.000000 0.000000 0.000000 0.000000 0.024098
#
#
# Mechanical properties :
#
#
# Convention : Reuss Voigt Hill
#
# Bulk Modulus (GPa) = 64.49298 65.43755 64.96527
# Shear Modulus (GPa) = 54.33729 16.59197 35.46463
#
# Velocity S-wave (km/s) = 5.02094 2.77450 4.05633
# Velocity P-wave (km/s) = 7.97086 6.37366 7.21658
#
# Compressibility (1/GPa) = 0.01550556
#
# Stress axis : x y z
#
# Youngs Moduli (GPa) = 87.68842 118.27896 105.39984
#
# Poissons Ratio (x) = 0.27427 0.27532
# Poissons Ratio (y) = 0.20333 0.20968
# Poissons Ratio (z) = 0.22906 0.23530
#
# Static dielectric constant tensor:
#      x y z
#    x 1.807470 0.000000 0.000000 
#    y 0.000000 1.766750 0.000000 
#    z 0.000000 0.000000 1.641260 
# 
# From -- ./inp_files/16564.got.cif
#   From: 2010.05.17/outbox.cif.g08.bks.cpg/sg24_9_cif.got.tgz:16564.got - 2010.06.04 00:33:39.
