data_PCOD9334468
_publ_section_title
;
Structure prediction by ZEFSAII (Michael W. Deem and Ramdas Pophale) SiO2 
 PCOD9334468
Probable space group: I 21 21 21
;
_chemical_formula_sum "Si O2"
_cell_formula_units_Z 56
_cell_length_a 7.827868
_cell_length_b 16.869368
_cell_length_c 21.164687
_cell_angle_alpha 90.000000
_cell_angle_beta 90.000000
_cell_angle_gamma 90.000000
_cell_volume 2794.822019
_symmetry_space_group_name_H-M "I 21 21 21"
_symmetry_group_IT_number 24
_symmetry_cell_setting 'orthorhombic'
loop_
_space_group_symop_operation_xyz
x,y,z
-x,1/2-y,z
x,-y,1/2-z
1/2-x,y,-z
1/2+x,1/2+y,1/2+z
1/2-x,-y,1/2+z
1/2+x,1/2-y,-z
-x,1/2+y,1/2-z
loop_
_atom_site_type_symbol
_atom_site_label
_atom_site_fract_x
_atom_site_fract_y
_atom_site_fract_z
Si Si1 0.370865 0.569694 0.597528
Si Si2 0.511755 0.588373 0.731996
Si Si3 0.509354 0.838865 0.392553
Si Si4 0.799689 0.908232 0.927800
Si Si5 0.924183 0.474435 0.973083
Si Si6 0.379153 0.152526 0.250440
Si Si7 0.216745 0.323903 0.694002
O O1 0.483311 0.597210 0.656724
O O2 0.316872 0.477262 0.603663
O O3 0.462258 0.564680 0.529411
O O4 0.199129 0.623274 0.599932
O O5 0.458672 0.500000 0.750000
O O6 0.709137 0.600715 0.749671
O O7 0.385588 0.646284 0.770382
O O8 0.500000 0.750000 0.418753
O O9 0.388196 0.901274 0.427241
O O10 0.446598 0.835178 0.320580
O O11 0.781410 0.834583 0.881239
O O12 0.750000 0.889880 0.000000
O O13 0.976640 0.955890 0.937004
O O14 0.750000 0.507299 0.000000
O O15 0.321768 0.235590 0.281996
O O16 0.549714 0.124139 0.286197
#
# Coordination Sequence:
#
# PCOD9334468 Si02
#       7
#     8   8   8   8   8   8   8
#     4  10  20  39  60  90 125 167 210 265 328 376
#     4  12  23  37  66  97 124 167 219 269 326 386
#     4  11  20  38  59  85 127 177 209 254 321 391
#     4   9  20  40  68  86 122 170 213 265 334 380
#     4  10  22  37  59  94 131 162 215 279 313 387
#     4  11  24  39  64  93 131 170 217 262 323 384
#     4  11  22  44  63  88 131 175 206 275 327 378
#
# _framework density 20.037054000000001
#
# number of rings (size 3 to 8) (size 9 to 14) (size 15 to 20)
#    0.000    1.429    4.286    2.571    0.000    5.143 
#    0.000    2.857    6.286    0.000    0.000    0.000 
#    0.000    0.000    0.000    0.000    0.000    0.000 
#
# Total GULP energy -156129.723370 kJ/mol
# GULP energy per Si atom -5576.061549 kJ/mol
# Density = 1.999145 g / cm^3
# Si number density = 20.037054 Si / 1000 Ang^3
#
#
#
# Elastic Constant Matrix: (Units=GPa)
#
#
# Indices 1 2 3 4 5 6 
#
# 1 66.2541 -8.7325 11.8305 0.0000 0.0000 0.0000
# 2 -8.7325 40.9014 25.6253 0.0000 0.0000 0.0000
# 3 11.8305 25.6253 102.4111 0.0000 0.0000 0.0000
# 4 0.0000 0.0000 0.0000 28.4367 0.0000 0.0000
# 5 0.0000 0.0000 0.0000 0.0000 15.3354 0.0000
# 6 0.0000 0.0000 0.0000 0.0000 0.0000 14.4826
#
#
#
# Elastic Compliance Matrix: (Units=1/GPa)
#
#
# Indices 1 2 3 4 5 6 
#
# 1 0.016414 0.005565 -0.003289 0.000000 0.000000 0.000000
# 2 0.005565 0.030881 -0.008370 0.000000 0.000000 0.000000
# 3 -0.003289 -0.008370 0.012239 0.000000 0.000000 0.000000
# 4 0.000000 0.000000 0.000000 0.035166 0.000000 0.000000
# 5 0.000000 0.000000 0.000000 0.000000 0.065209 0.000000
# 6 0.000000 0.000000 0.000000 0.000000 0.000000 0.069048
#
#
# Mechanical properties :
#
#
# Convention : Reuss Voigt Hill
#
# Bulk Modulus (GPa) = 21.12090 29.66813 25.39451
# Shear Modulus (GPa) = 19.46086 23.70716 21.58401
#
# Velocity S-wave (km/s) = 3.11986 3.44345 3.28564
# Velocity P-wave (km/s) = 4.85199 5.53612 5.20530
#
# Compressibility (1/GPa) = 0.04734648
#
# Stress axis : x y z
#
# Youngs Moduli (GPa) = 60.92332 32.38240 81.70750
#
# Poissons Ratio (x) = -0.18020 0.26870
# Poissons Ratio (y) = -0.33902 0.68388
# Poissons Ratio (z) = 0.20035 0.27104
#
# Static dielectric constant tensor:
#      x y z
#    x 1.751840 0.000000 0.000000 
#    y 0.000000 1.708260 0.000000 
#    z 0.000000 0.000000 1.750580 
# 
# From -- ./inp_files/32826.got.cif
#   From: 2010.05.17/outbox.cif.g08.bks.cpg/sg24_17_cif.got.tgz:32826.got - 2010.06.04 00:33:39.
