data_PCOD9334069
_publ_section_title
;
Structure prediction by ZEFSAII (Michael W. Deem and Ramdas Pophale) SiO2 
 PCOD9334069
Probable space group: I 21 21 21
;
_chemical_formula_sum "Si O2"
_cell_formula_units_Z 56
_cell_length_a 20.941365
_cell_length_b 8.836370
_cell_length_c 14.823529
_cell_angle_alpha 90.000000
_cell_angle_beta 90.000000
_cell_angle_gamma 90.000000
_cell_volume 2743.029551
_symmetry_space_group_name_H-M "I 21 21 21"
_symmetry_group_IT_number 24
_symmetry_cell_setting 'orthorhombic'
loop_
_space_group_symop_operation_xyz
x,y,z
-x,1/2-y,z
x,-y,1/2-z
1/2-x,y,-z
1/2+x,1/2+y,1/2+z
1/2-x,-y,1/2+z
1/2+x,1/2-y,-z
-x,1/2+y,1/2-z
loop_
_atom_site_type_symbol
_atom_site_label
_atom_site_fract_x
_atom_site_fract_y
_atom_site_fract_z
Si Si1 0.869792 0.926996 0.845051
Si Si2 0.784239 0.927256 0.154287
Si Si3 0.715761 0.572744 0.845713
Si Si4 0.113385 0.570022 0.466012
Si Si5 0.113385 0.929978 0.466012
Si Si6 0.869793 0.573004 0.845051
Si Si7 1.000000 0.930785 0.150630
O O1 0.792389 0.938141 0.850616
O O2 0.886729 0.750000 0.848404
O O3 0.889362 0.000000 0.750000
O O4 0.895491 0.014097 0.931909
O O5 0.801600 0.750000 0.151427
O O6 0.804179 0.000000 0.250000
O O7 0.818875 0.014134 0.073650
O O8 0.695822 0.500000 0.750000
O O9 0.681125 0.485865 0.926350
O O10 0.792389 0.561859 0.850616
O O11 0.108534 0.750000 0.460558
O O12 0.061298 0.491063 0.402944
O O13 0.104509 0.985904 0.568090
O O14 0.061298 0.008938 0.402944
O O15 0.889363 0.500000 0.750000
O O16 0.000000 0.750000 0.154683
O O17 1.000000 0.000000 0.250000
#
# Coordination Sequence:
#
# PCOD9334069 Si02
#       7
#     8   8   8   8   8   8   8
#     4  10  21  38  60  88 121 157 197 242 292 346
#     4  10  20  35  57  87 122 158 197 241 292 349
#     4  10  20  35  57  87 122 158 197 241 292 349
#     4  12  24  39  60  87 119 156 198 242 293 349
#     4  12  24  39  60  87 119 156 198 242 293 349
#     4  10  21  38  60  88 121 157 197 242 292 346
#     4  12  26  46  67  88 117 152 194 242 292 346
#
# _framework density 20.415385000000001
#
# number of rings (size 3 to 8) (size 9 to 14) (size 15 to 20)
#    0.000    1.143    0.000    7.286    0.000    6.857 
#    0.000    0.714    0.000    0.000    0.000    0.000 
#    0.000    0.000    0.000    0.000    0.000    0.000 
#
# Total GULP energy -156728.767354 kJ/mol
# GULP energy per Si atom -5597.455977 kJ/mol
# Density = 2.036892 g / cm^3
# Si number density = 20.415385 Si / 1000 Ang^3
#
#
#
# Elastic Constant Matrix: (Units=GPa)
#
#
# Indices 1 2 3 4 5 6 
#
# 1 20.4643 37.0065 25.7115 0.0000 0.0000 0.0000
# 2 37.0065 217.7989 95.1223 0.0000 0.0000 0.0000
# 3 25.7115 95.1223 188.8190 0.0000 0.0000 0.0000
# 4 0.0000 0.0000 0.0000 42.8770 0.0000 0.0000
# 5 0.0000 0.0000 0.0000 0.0000 21.1738 0.0000
# 6 0.0000 0.0000 0.0000 0.0000 0.0000 21.8111
#
#
#
# Elastic Compliance Matrix: (Units=1/GPa)
#
#
# Indices 1 2 3 4 5 6 
#
# 1 0.073761 -0.010444 -0.004783 0.000000 0.000000 0.000000
# 2 -0.010444 0.007365 -0.002288 0.000000 0.000000 0.000000
# 3 -0.004783 -0.002288 0.007100 0.000000 0.000000 0.000000
# 4 0.000000 0.000000 0.000000 0.023323 0.000000 0.000000
# 5 0.000000 0.000000 0.000000 0.000000 0.047228 0.000000
# 6 0.000000 0.000000 0.000000 0.000000 0.000000 0.045848
#
#
# Mechanical properties :
#
#
# Convention : Reuss Voigt Hill
#
# Bulk Modulus (GPa) = 18.79821 82.52921 50.66371
# Shear Modulus (GPa) = 19.42597 35.12185 27.27391
#
# Velocity S-wave (km/s) = 3.08804 4.15222 3.65903
# Velocity P-wave (km/s) = 4.68429 7.96873 6.53618
#
# Compressibility (1/GPa) = 0.05319655
#
# Stress axis : x y z
#
# Youngs Moduli (GPa) = 13.55730 135.77059 140.84266
#
# Poissons Ratio (x) = 1.41800 0.67359
# Poissons Ratio (y) = 0.14159 0.32229
# Poissons Ratio (z) = 0.06484 0.31069
#
# Static dielectric constant tensor:
#      x y z
#    x 1.769370 0.000000 0.000000 
#    y 0.000000 1.674670 0.000000 
#    z 0.000000 0.000000 1.700560 
# 
# From -- ./inp_files/27539.got.cif
#   From: 2010.05.17/outbox.cif.g08.bks.cpg/sg24_14_cif.got.tgz:27539.got - 2010.06.04 00:33:39.
