data_PCOD9334970
_publ_section_title
;
Structure prediction by ZEFSAII (Michael W. Deem and Ramdas Pophale) SiO2 
 PCOD9334970
Probable space group: I 21 21 21
;
_chemical_formula_sum "Si O2"
_cell_formula_units_Z 64
_cell_length_a 8.730457
_cell_length_b 17.450163
_cell_length_c 19.451306
_cell_angle_alpha 90.000000
_cell_angle_beta 90.000000
_cell_angle_gamma 90.000000
_cell_volume 2963.365577
_symmetry_space_group_name_H-M "I 21 21 21"
_symmetry_group_IT_number 24
_symmetry_cell_setting 'orthorhombic'
loop_
_space_group_symop_operation_xyz
x,y,z
-x,1/2-y,z
x,-y,1/2-z
1/2-x,y,-z
1/2+x,1/2+y,1/2+z
1/2-x,-y,1/2+z
1/2+x,1/2-y,-z
-x,1/2+y,1/2-z
loop_
_atom_site_type_symbol
_atom_site_label
_atom_site_fract_x
_atom_site_fract_y
_atom_site_fract_z
Si Si1 0.810403 0.396519 0.880127
Si Si2 0.394760 0.913615 0.754431
Si Si3 0.822492 0.931117 0.805322
Si Si4 0.396649 0.675161 0.317340
Si Si5 0.347923 0.063328 0.377270
Si Si6 0.827130 0.726836 0.929948
Si Si7 0.385084 0.685704 0.839306
Si Si8 0.817063 0.241346 0.069702
O O1 0.693594 0.395247 0.815671
O O2 0.806996 0.481591 0.909736
O O3 0.760427 0.325180 0.925370
O O4 0.982985 0.381795 0.853474
O O5 0.264226 0.923401 0.812281
O O6 0.506574 0.843825 0.776039
O O7 0.465407 0.000000 0.750000
O O8 0.839515 0.859857 0.753052
O O9 0.683730 0.901071 0.854410
O O10 0.978948 0.939676 0.847756
O O11 0.802839 0.000000 0.750000
O O12 0.500000 0.750000 0.305649
O O13 0.254061 0.695667 0.365985
O O14 0.319688 0.135547 0.424761
O O15 0.763044 0.764333 0.860058
O O16 0.000000 0.750000 0.934388
O O17 0.750000 0.755490 0.000000
O O18 0.500000 0.750000 0.873671
O O19 0.000000 0.250000 0.069693
O O20 0.750000 0.204983 0.000000
#
# Coordination Sequence:
#
# PCOD9334970 Si02
#       8
#     8   8   8   8   8   8   8   8
#     4  10  21  40  68  98 138 175 220 271 338 409
#     4  10  21  39  62 100 139 169 209 270 337 408
#     4  12  23  40  66 101 142 175 219 273 345 412
#     4  10  22  36  64  98 136 170 223 270 328 400
#     4  11  21  43  68  99 132 181 221 276 338 406
#     4  12  27  47  70  95 130 181 238 288 330 395
#     4  12  26  39  65  98 137 173 224 272 340 394
#     4  11  25  45  68  96 134 180 233 287 337 399
#
# _framework density 21.597064
#
# number of rings (size 3 to 8) (size 9 to 14) (size 15 to 20)
#    0.000    1.000    5.000    2.250    7.000    0.500 
#    0.000    0.000    0.000    3.000    0.000    0.000 
#    0.000    0.000    0.000    0.000    0.000    0.000 
#
# Total GULP energy -178139.727168 kJ/mol
# GULP energy per Si atom -5566.866474 kJ/mol
# Density = 2.154791 g / cm^3
# Si number density = 21.597064 Si / 1000 Ang^3
#
#
#
# Elastic Constant Matrix: (Units=GPa)
#
#
# Indices 1 2 3 4 5 6 
#
# 1 124.3067 9.0117 26.5779 0.0000 0.0000 0.0000
# 2 9.0117 101.3150 22.2177 0.0000 0.0000 0.0000
# 3 26.5779 22.2177 48.9244 0.0000 0.0000 0.0000
# 4 0.0000 0.0000 0.0000 20.8011 0.0000 0.0000
# 5 0.0000 0.0000 0.0000 0.0000 40.5547 0.0000
# 6 0.0000 0.0000 0.0000 0.0000 0.0000 24.4762
#
#
#
# Elastic Compliance Matrix: (Units=1/GPa)
#
#
# Indices 1 2 3 4 5 6 
#
# 1 0.009110 0.000305 -0.005088 0.000000 0.000000 0.000000
# 2 0.000305 0.010972 -0.005149 0.000000 0.000000 0.000000
# 3 -0.005088 -0.005149 0.025542 0.000000 0.000000 0.000000
# 4 0.000000 0.000000 0.000000 0.048074 0.000000 0.000000
# 5 0.000000 0.000000 0.000000 0.000000 0.024658 0.000000
# 6 0.000000 0.000000 0.000000 0.000000 0.000000 0.040856
#
#
# Mechanical properties :
#
#
# Convention : Reuss Voigt Hill
#
# Bulk Modulus (GPa) = 38.81671 43.35121 41.08396
# Shear Modulus (GPa) = 26.64365 31.61564 29.12965
#
# Velocity S-wave (km/s) = 3.51617 3.83023 3.67656
# Velocity P-wave (km/s) = 5.87340 6.29898 6.08991
#
# Compressibility (1/GPa) = 0.02576210
#
# Stress axis : x y z
#
# Youngs Moduli (GPa) = 109.76585 91.14035 39.15164
#
# Poissons Ratio (x) = -0.02783 0.19920
# Poissons Ratio (y) = -0.03352 0.20158
# Poissons Ratio (z) = 0.55847 0.46924
#
# Static dielectric constant tensor:
#      x y z
#    x 1.799790 0.000000 0.000000 
#    y 0.000000 1.840270 0.000000 
#    z 0.000000 0.000000 1.888140 
# 
# From -- ./inp_files/32963.got.cif
#   From: 2010.05.17/outbox.cif.g08.bks.cpg/sg24_17_cif.got.tgz:32963.got - 2010.06.04 00:33:39.
