data_PCOD9334455
_publ_section_title
;
Structure prediction by ZEFSAII (Michael W. Deem and Ramdas Pophale) SiO2 
 PCOD9334455
Probable space group: I 21 21 21
;
_chemical_formula_sum "Si O2"
_cell_formula_units_Z 36
_cell_length_a 25.462094
_cell_length_b 8.564460
_cell_length_c 7.779523
_cell_angle_alpha 90.000000
_cell_angle_beta 90.000000
_cell_angle_gamma 90.000000
_cell_volume 1696.473467
_symmetry_space_group_name_H-M "I 21 21 21"
_symmetry_group_IT_number 24
_symmetry_cell_setting 'orthorhombic'
loop_
_space_group_symop_operation_xyz
x,y,z
-x,1/2-y,z
x,-y,1/2-z
1/2-x,y,-z
1/2+x,1/2+y,1/2+z
1/2-x,-y,1/2+z
1/2+x,1/2-y,-z
-x,1/2+y,1/2-z
loop_
_atom_site_type_symbol
_atom_site_label
_atom_site_fract_x
_atom_site_fract_y
_atom_site_fract_z
Si Si1 0.472718 0.417434 0.582915
Si Si2 0.329341 0.918418 0.981083
Si Si3 0.928341 0.587110 0.564812
Si Si4 0.252560 0.000000 0.250000
Si Si5 0.885744 0.162210 0.702103
O O1 0.500000 0.250000 0.625966
O O2 0.448050 0.500000 0.750000
O O3 0.516752 0.540548 0.518112
O O4 0.432853 0.376320 0.430428
O O5 0.346422 0.775580 0.100848
O O6 0.382889 0.011029 0.948221
O O7 0.293442 0.032847 0.097847
O O8 0.289944 0.877291 0.826275
O O9 0.927522 0.500000 0.750000
O O10 0.911457 0.757997 0.628258
O O11 0.859618 0.000000 0.750000
#
# Coordination Sequence:
#
# PCOD9334455 Si02
#       5
#     8   8   8   4   8
#     4  12  26  40  62  97 137 178 225 276 329 394
#     4  10  20  40  68  98 117 166 221 275 329 392
#     4  10  20  41  65  87 127 179 221 262 321 398
#     4  10  20  38  74  92 122 156 228 278 330 396
#     4  11  24  42  66  94 139 176 225 268 335 401
#
# _framework density 21.220489000000001
#
# number of rings (size 3 to 8) (size 9 to 14) (size 15 to 20)
#    0.000    1.333    7.778    0.667    4.667    0.000 
#    0.000    0.000    9.778    0.000    0.000    0.000 
#    0.000    0.000    0.000    0.000    0.000    0.000 
#
# Total GULP energy -100240.073152 kJ/mol
# GULP energy per Si atom -5568.892953 kJ/mol
# Density = 2.117219 g / cm^3
# Si number density = 21.220489 Si / 1000 Ang^3
#
#
#
# Elastic Constant Matrix: (Units=GPa)
#
#
# Indices 1 2 3 4 5 6 
#
# 1 108.7854 15.4751 34.0234 0.0000 0.0000 0.0000
# 2 15.4751 107.3571 31.4662 0.0000 0.0000 0.0000
# 3 34.0234 31.4662 65.0707 0.0000 0.0000 0.0000
# 4 0.0000 0.0000 0.0000 22.4912 0.0000 0.0000
# 5 0.0000 0.0000 0.0000 0.0000 39.8586 0.0000
# 6 0.0000 0.0000 0.0000 0.0000 0.0000 3.8702
#
#
#
# Elastic Compliance Matrix: (Units=1/GPa)
#
#
# Indices 1 2 3 4 5 6 
#
# 1 0.010991 0.000117 -0.005803 0.000000 0.000000 0.000000
# 2 0.000117 0.010854 -0.005310 0.000000 0.000000 0.000000
# 3 -0.005803 -0.005310 0.020970 0.000000 0.000000 0.000000
# 4 0.000000 0.000000 0.000000 0.044462 0.000000 0.000000
# 5 0.000000 0.000000 0.000000 0.000000 0.025089 0.000000
# 6 0.000000 0.000000 0.000000 0.000000 0.000000 0.258384
#
#
# Mechanical properties :
#
#
# Convention : Reuss Voigt Hill
#
# Bulk Modulus (GPa) = 48.02547 49.23806 48.63177
# Shear Modulus (GPa) = 12.50994 26.59391 19.55193
#
# Velocity S-wave (km/s) = 2.43064 3.54392 3.03870
# Velocity P-wave (km/s) = 5.52794 6.32450 5.93959
#
# Compressibility (1/GPa) = 0.02082228
#
# Stress axis : x y z
#
# Youngs Moduli (GPa) = 90.98535 92.13050 47.68771
#
# Poissons Ratio (x) = -0.01074 0.27674
# Poissons Ratio (y) = -0.01061 0.25321
# Poissons Ratio (z) = 0.52800 0.48919
#
# Static dielectric constant tensor:
#      x y z
#    x 1.765640 0.000000 0.000000 
#    y 0.000000 1.833610 0.000000 
#    z 0.000000 0.000000 1.887560 
# 
# From -- ./inp_files/16220.got.cif
#   From: 2010.05.17/outbox.cif.g08.bks.cpg/sg24_9_cif.got.tgz:16220.got - 2010.06.04 00:33:39.
