data_PCOD9334757
_publ_section_title
;
Structure prediction by ZEFSAII (Michael W. Deem and Ramdas Pophale) SiO2 
 PCOD9334757
Probable space group: I 21 21 21
;
_chemical_formula_sum "Si O2"
_cell_formula_units_Z 52
_cell_length_a 7.709835
_cell_length_b 22.366362
_cell_length_c 15.182832
_cell_angle_alpha 90.000000
_cell_angle_beta 90.000000
_cell_angle_gamma 90.000000
_cell_volume 2618.142134
_symmetry_space_group_name_H-M "I 21 21 21"
_symmetry_group_IT_number 24
_symmetry_cell_setting 'orthorhombic'
loop_
_space_group_symop_operation_xyz
x,y,z
-x,1/2-y,z
x,-y,1/2-z
1/2-x,y,-z
1/2+x,1/2+y,1/2+z
1/2-x,-y,1/2+z
1/2+x,1/2-y,-z
-x,1/2+y,1/2-z
loop_
_atom_site_type_symbol
_atom_site_label
_atom_site_fract_x
_atom_site_fract_y
_atom_site_fract_z
Si Si1 0.934440 0.531520 0.660771
Si Si2 0.061410 0.443018 0.539106
Si Si3 0.934792 0.528896 0.140261
Si Si4 0.000000 0.750000 0.712019
Si Si5 0.030520 0.623512 0.780757
Si Si6 0.332971 0.293224 0.904069
Si Si7 0.598797 0.911961 0.703458
O O1 0.003738 0.500000 0.750000
O O2 0.745055 0.505644 0.645903
O O3 0.046872 0.510499 0.578661
O O4 0.929349 0.598512 0.694136
O O5 0.250000 0.429019 0.500000
O O6 0.944405 0.440464 0.453360
O O7 0.001400 0.403184 0.621953
O O8 0.079734 0.476224 0.153675
O O9 0.959292 0.576559 0.218490
O O10 0.991975 0.692755 0.775164
O O11 0.173759 0.735904 0.653520
O O12 0.225492 0.602412 0.756800
O O13 0.500000 0.250000 0.909196
O O14 0.404082 0.355488 0.861598
O O15 0.250000 0.304306 0.000000
#
# Coordination Sequence:
#
# PCOD9334757 Si02
#       7
#     8   8   8   4   8   8   8
#     4  10  21  35  59  88 127 160 197 252 317 374
#     4  11  21  35  61  91 125 162 203 254 314 378
#     4  11  21  38  59  96 130 158 202 256 319 390
#     4  10  24  44  70  92 124 176 222 262 320 372
#     4  10  22  41  64  88 125 169 214 258 312 379
#     4  11  24  44  67  95 127 168 221 270 316 376
#     4  10  22  39  63  90 128 166 203 255 321 379
#
# _framework density 19.861412999999999
#
# number of rings (size 3 to 8) (size 9 to 14) (size 15 to 20)
#    0.000    1.538    3.846    1.385    6.462    3.077 
#    0.000    0.000    1.692    3.692    0.000    0.000 
#    0.000    0.000    0.000    0.000    0.000    0.000 
#
# Total GULP energy -144768.311944 kJ/mol
# GULP energy per Si atom -5568.011998 kJ/mol
# Density = 1.981621 g / cm^3
# Si number density = 19.861413 Si / 1000 Ang^3
#
#
#
# Elastic Constant Matrix: (Units=GPa)
#
#
# Indices 1 2 3 4 5 6 
#
# 1 63.8538 23.1007 22.9854 0.0000 0.0000 0.0000
# 2 23.1007 116.6096 45.8358 0.0000 0.0000 0.0000
# 3 22.9854 45.8358 138.9736 0.0000 0.0000 0.0000
# 4 0.0000 0.0000 0.0000 23.6755 0.0000 0.0000
# 5 0.0000 0.0000 0.0000 0.0000 26.0397 0.0000
# 6 0.0000 0.0000 0.0000 0.0000 0.0000 13.1756
#
#
#
# Elastic Compliance Matrix: (Units=1/GPa)
#
#
# Indices 1 2 3 4 5 6 
#
# 1 0.017337 -0.002651 -0.001993 0.000000 0.000000 0.000000
# 2 -0.002651 0.010258 -0.002945 0.000000 0.000000 0.000000
# 3 -0.001993 -0.002945 0.008497 0.000000 0.000000 0.000000
# 4 0.000000 0.000000 0.000000 0.042238 0.000000 0.000000
# 5 0.000000 0.000000 0.000000 0.000000 0.038403 0.000000
# 6 0.000000 0.000000 0.000000 0.000000 0.000000 0.075898
#
#
# Mechanical properties :
#
#
# Convention : Reuss Voigt Hill
#
# Bulk Modulus (GPa) = 47.81495 55.92010 51.86752
# Shear Modulus (GPa) = 23.27960 27.74583 25.51272
#
# Velocity S-wave (km/s) = 3.42731 3.74166 3.58793
# Velocity P-wave (km/s) = 6.30781 6.84712 6.58299
#
# Compressibility (1/GPa) = 0.02091396
#
# Stress axis : x y z
#
# Youngs Moduli (GPa) = 57.67890 97.48128 117.69505
#
# Poissons Ratio (x) = 0.25844 0.23458
# Poissons Ratio (y) = 0.15292 0.34660
# Poissons Ratio (z) = 0.11496 0.28707
#
# Static dielectric constant tensor:
#      x y z
#    x 1.773520 0.000000 0.000000 
#    y 0.000000 1.785170 0.000000 
#    z 0.000000 0.000000 1.717090 
# 
# From -- ./inp_files/25016.got.cif
#   From: 2010.05.17/outbox.cif.g08.bks.cpg/sg24_13_cif.got.tgz:25016.got - 2010.06.04 00:33:39.
