data_PCOD9334711
_publ_section_title
;
Structure prediction by ZEFSAII (Michael W. Deem and Ramdas Pophale) SiO2 
 PCOD9334711
Probable space group: I 21 21 21
;
_chemical_formula_sum "Si O2"
_cell_formula_units_Z 32
_cell_length_a 14.120216
_cell_length_b 9.121524
_cell_length_c 10.679985
_cell_angle_alpha 90.000000
_cell_angle_beta 90.000000
_cell_angle_gamma 90.000000
_cell_volume 1375.559524
_symmetry_space_group_name_H-M "I 21 21 21"
_symmetry_group_IT_number 24
_symmetry_cell_setting 'orthorhombic'
loop_
_space_group_symop_operation_xyz
x,y,z
-x,1/2-y,z
x,-y,1/2-z
1/2-x,y,-z
1/2+x,1/2+y,1/2+z
1/2-x,-y,1/2+z
1/2+x,1/2-y,-z
-x,1/2+y,1/2-z
loop_
_atom_site_type_symbol
_atom_site_label
_atom_site_fract_x
_atom_site_fract_y
_atom_site_fract_z
Si Si1 0.000000 0.750000 0.742332
Si Si2 0.750000 0.370348 0.500000
Si Si3 0.548709 0.898231 0.649021
Si Si4 0.371592 0.392748 0.443430
Si Si5 0.723797 0.000000 0.750000
Si Si6 0.347063 0.000000 0.250000
O O1 0.060908 0.647015 0.830685
O O2 0.916060 0.634354 0.698148
O O3 0.661537 0.256126 0.511937
O O4 0.718173 0.452969 0.371076
O O5 0.500000 0.750000 0.614729
O O6 0.650338 0.871043 0.715962
O O7 0.494833 0.000000 0.750000
O O8 0.574429 0.996626 0.531818
O O9 0.283782 0.465898 0.371411
#
# Coordination Sequence:
#
# PCOD9334711 Si02
#       6
#     4   4   8   8   4   4
#     4  10  24  44  80 108 152 200 260 322 386 462
#     4  10  20  46  82 114 158 204 266 322 390 472
#     4  10  23  43  73 109 146 194 249 320 392 462
#     4  11  21  46  77 104 148 204 257 316 388 464
#     4  10  21  42  80  97 140 208 250 307 384 473
#     4  10  23  46  84 115 152 216 264 331 392 471
#
# _framework density 23.263261
#
# number of rings (size 3 to 8) (size 9 to 14) (size 15 to 20)
#    0.750    1.000    2.500    0.750    1.750    0.000 
#   13.500   15.000    2.750    1.500    0.000    0.000 
#    0.000    0.000    0.000    0.000    0.000    0.000 
#
# Total GULP energy -89068.224616 kJ/mol
# GULP energy per Si atom -5566.764038 kJ/mol
# Density = 2.321031 g / cm^3
# Si number density = 23.263261 Si / 1000 Ang^3
#
#
#
# Elastic Constant Matrix: (Units=GPa)
#
#
# Indices 1 2 3 4 5 6 
#
# 1 82.1472 63.2366 38.3740 0.0000 0.0000 0.0000
# 2 63.2366 150.7223 89.1291 0.0000 0.0000 0.0000
# 3 38.3740 89.1291 115.8615 0.0000 0.0000 0.0000
# 4 0.0000 0.0000 0.0000 46.0192 0.0000 0.0000
# 5 0.0000 0.0000 0.0000 0.0000 26.7510 0.0000
# 6 0.0000 0.0000 0.0000 0.0000 0.0000 45.3178
#
#
#
# Elastic Compliance Matrix: (Units=1/GPa)
#
#
# Indices 1 2 3 4 5 6 
#
# 1 0.017985 -0.007381 -0.000279 0.000000 0.000000 0.000000
# 2 -0.007381 0.015201 -0.009249 0.000000 0.000000 0.000000
# 3 -0.000279 -0.009249 0.015838 0.000000 0.000000 0.000000
# 4 0.000000 0.000000 0.000000 0.021730 0.000000 0.000000
# 5 0.000000 0.000000 0.000000 0.000000 0.037382 0.000000
# 6 0.000000 0.000000 0.000000 0.000000 0.000000 0.022066
#
#
# Mechanical properties :
#
#
# Convention : Reuss Voigt Hill
#
# Bulk Modulus (GPa) = 65.75956 81.13448 73.44702
# Shear Modulus (GPa) = 29.57018 34.15034 31.86026
#
# Velocity S-wave (km/s) = 3.56913 3.83560 3.70476
# Velocity P-wave (km/s) = 6.73156 7.38702 7.06689
#
# Compressibility (1/GPa) = 0.01520691
#
# Stress axis : x y z
#
# Youngs Moduli (GPa) = 55.60066 65.78610 63.13814
#
# Poissons Ratio (x) = 0.48557 0.01761
# Poissons Ratio (y) = 0.41039 0.58396
# Poissons Ratio (z) = 0.01551 0.60845
#
# Static dielectric constant tensor:
#      x y z
#    x 2.185560 0.000000 0.000000 
#    y 0.000000 1.916350 0.000000 
#    z 0.000000 0.000000 1.937770 
# 
# From -- ./inp_files/10451.got.cif
#   From: 2010.05.17/outbox.cif.g08.bks.cpg/sg24_6_cif.got.tgz:10451.got - 2010.06.04 00:33:39.
