data_PCOD9334977
_publ_section_title
;
Structure prediction by ZEFSAII (Michael W. Deem and Ramdas Pophale) SiO2 
 PCOD9334977
Probable space group: I 21 21 21
;
_chemical_formula_sum "Si O2"
_cell_formula_units_Z 32
_cell_length_a 8.235588
_cell_length_b 7.929263
_cell_length_c 23.240282
_cell_angle_alpha 90.000000
_cell_angle_beta 90.000000
_cell_angle_gamma 90.000000
_cell_volume 1517.640223
_symmetry_space_group_name_H-M "I 21 21 21"
_symmetry_group_IT_number 24
_symmetry_cell_setting 'orthorhombic'
loop_
_space_group_symop_operation_xyz
x,y,z
-x,1/2-y,z
x,-y,1/2-z
1/2-x,y,-z
1/2+x,1/2+y,1/2+z
1/2-x,-y,1/2+z
1/2+x,1/2-y,-z
-x,1/2+y,1/2-z
loop_
_atom_site_type_symbol
_atom_site_label
_atom_site_fract_x
_atom_site_fract_y
_atom_site_fract_z
Si Si1 0.357170 0.576577 0.078392
Si Si2 0.944319 0.554945 0.685619
Si Si3 0.150515 0.126081 0.370882
Si Si4 0.960737 0.935706 0.466441
O O1 0.453168 0.532465 0.135379
O O2 0.264694 0.748185 0.092676
O O3 0.215694 0.442883 0.063346
O O4 0.461251 0.562683 0.020319
O O5 0.988370 0.500000 0.750000
O O6 0.761036 0.482442 0.673387
O O7 0.000000 0.750000 0.680902
O O8 0.000000 0.250000 0.349809
O O9 0.079383 0.995426 0.416623
O O10 0.000000 0.750000 0.487610
#
# Coordination Sequence:
#
# PCOD9334977 Si02
#       4
#     8   8   8   8
#     4  10  22  39  62  94 127 168 214 261 319 387
#     4  12  25  44  68  94 124 167 219 270 319 383
#     4  10  23  42  64  94 130 169 211 263 326 388
#     4  10  21  39  62  94 130 165 207 265 328 386
#
# _framework density 21.085366
#
# number of rings (size 3 to 8) (size 9 to 14) (size 15 to 20)
#    0.000    1.500    0.000    4.500    0.000   15.000 
#    0.000   11.250    0.000    0.000    0.000    0.000 
#    0.000    0.000    0.000    0.000    0.000    0.000 
#
# Total GULP energy -89243.283951 kJ/mol
# GULP energy per Si atom -5577.705247 kJ/mol
# Density = 2.103737 g / cm^3
# Si number density = 21.085366 Si / 1000 Ang^3
#
#
#
# Elastic Constant Matrix: (Units=GPa)
#
#
# Indices 1 2 3 4 5 6 
#
# 1 86.6102 54.0651 56.8639 0.0000 0.0000 0.0000
# 2 54.0651 102.0537 -1.1190 0.0000 0.0000 0.0000
# 3 56.8639 -1.1190 114.5483 0.0000 0.0000 0.0000
# 4 0.0000 0.0000 0.0000 23.8152 0.0000 0.0000
# 5 0.0000 0.0000 0.0000 0.0000 -40.7815 0.0000
# 6 0.0000 0.0000 0.0000 0.0000 0.0000 34.6832
#
#
#
# Elastic Compliance Matrix: (Units=1/GPa)
#
#
# Indices 1 2 3 4 5 6 
#
# 1 0.034311 -0.018366 -0.017212 0.000000 0.000000 0.000000
# 2 -0.018366 0.019631 0.009309 0.000000 0.000000 0.000000
# 3 -0.017212 0.009309 0.017365 0.000000 0.000000 0.000000
# 4 0.000000 0.000000 0.000000 0.041990 0.000000 0.000000
# 5 0.000000 0.000000 0.000000 0.000000 -0.024521 0.000000
# 6 0.000000 0.000000 0.000000 0.000000 0.000000 0.028832
#
#
# Mechanical properties :
#
#
# Convention : Reuss Voigt Hill
#
# Bulk Modulus (GPa) = 53.27955 58.09245 55.68600
# Shear Modulus (GPa) = 28.34422 16.43686 22.39054
#
# Velocity S-wave (km/s) = 3.67039 2.79505 3.26222
# Velocity P-wave (km/s) = 6.57919 6.16663 6.37625
#
# Compressibility (1/GPa) = 0.01876893
#
# Stress axis : x y z
#
# Youngs Moduli (GPa) = 29.14503 50.94113 57.58611
#
# Poissons Ratio (x) = 0.93557 0.99118
# Poissons Ratio (y) = 0.53527 -0.53606
# Poissons Ratio (z) = 0.50165 -0.47421
#
# Static dielectric constant tensor:
#      x y z
#    x 1.860670 0.000000 0.000000 
#    y 0.000000 1.800520 0.000000 
#    z 0.000000 0.000000 1.696840 
# 
# From -- ./inp_files/8918.got.cif
#   From: 2010.05.17/outbox.cif.g08.bks.cpg/sg24_5_cif.got.tgz:8918.got - 2010.06.04 00:33:39.
