data_PCOD9334033
_publ_section_title
;
Structure prediction by ZEFSAII (Michael W. Deem and Ramdas Pophale) SiO2 
 PCOD9334033
Probable space group: I 21 21 21
;
_chemical_formula_sum "Si O2"
_cell_formula_units_Z 48
_cell_length_a 14.735223
_cell_length_b 7.502047
_cell_length_c 19.701203
_cell_angle_alpha 90.000000
_cell_angle_beta 90.000000
_cell_angle_gamma 90.000000
_cell_volume 2177.856394
_symmetry_space_group_name_H-M "I 21 21 21"
_symmetry_group_IT_number 24
_symmetry_cell_setting 'orthorhombic'
loop_
_space_group_symop_operation_xyz
x,y,z
-x,1/2-y,z
x,-y,1/2-z
1/2-x,y,-z
1/2+x,1/2+y,1/2+z
1/2-x,-y,1/2+z
1/2+x,1/2-y,-z
-x,1/2+y,1/2-z
loop_
_atom_site_type_symbol
_atom_site_label
_atom_site_fract_x
_atom_site_fract_y
_atom_site_fract_z
Si Si1 0.500000 0.250000 0.207676
Si Si2 0.743119 0.121432 0.877381
Si Si3 0.000000 0.250000 0.247513
Si Si4 0.000000 0.250000 0.476234
Si Si5 0.183354 0.723136 0.942555
Si Si6 0.647476 0.000000 0.250000
Si Si7 0.335766 0.022545 0.168605
Si Si8 0.045818 0.486697 0.355728
O O1 0.576954 0.161819 0.253372
O O2 0.440318 0.102510 0.166881
O O3 0.787679 0.036623 0.811089
O O4 0.776442 0.324705 0.870054
O O5 0.785381 0.981885 0.930981
O O6 0.635378 0.094673 0.874933
O O7 0.072344 0.327759 0.301843
O O8 0.978738 0.403112 0.192772
O O9 0.085870 0.269969 0.523316
O O10 0.999820 0.413949 0.423040
O O11 0.180358 0.843573 0.874715
O O12 0.250000 0.801448 0.000000
O O13 0.313812 0.000000 0.250000
#
# Coordination Sequence:
#
# PCOD9334033 Si02
#       8
#     4   8   4   4   8   4   8   8
#     4  10  20  37  59 103 143 172 238 290 364 427
#     4  11  24  44  70  99 144 189 231 303 360 434
#     4   9  20  36  73  99 135 180 232 294 349 430
#     4  11  26  47  72  98 146 196 242 302 363 443
#     4  12  27  49  73 105 147 195 246 300 368 440
#     4  10  20  34  64  94 134 174 220 298 352 412
#     4  11  26  45  72 111 141 189 244 305 361 440
#     4  10  21  46  65 107 141 185 242 296 371 433
#
# _framework density 22.040019999999998
#
# number of rings (size 3 to 8) (size 9 to 14) (size 15 to 20)
#    0.000    1.333    2.500    3.000    4.667    2.667 
#    9.000    0.000    0.000    0.000    0.000    0.000 
#    0.000    0.000    0.000    0.000    0.000    0.000 
#
# Total GULP energy -133610.838392 kJ/mol
# GULP energy per Si atom -5567.118266 kJ/mol
# Density = 2.198986 g / cm^3
# Si number density = 22.040020 Si / 1000 Ang^3
#
#
#
# Elastic Constant Matrix: (Units=GPa)
#
#
# Indices 1 2 3 4 5 6 
#
# 1 33.1771 13.6637 6.6423 0.0000 0.0000 0.0000
# 2 13.6637 106.8338 44.1988 0.0000 0.0000 0.0000
# 3 6.6423 44.1988 114.4432 0.0000 0.0000 0.0000
# 4 0.0000 0.0000 0.0000 40.6809 0.0000 0.0000
# 5 0.0000 0.0000 0.0000 0.0000 38.2785 0.0000
# 6 0.0000 0.0000 0.0000 0.0000 0.0000 21.4843
#
#
#
# Elastic Compliance Matrix: (Units=1/GPa)
#
#
# Indices 1 2 3 4 5 6 
#
# 1 0.031827 -0.003935 -0.000327 0.000000 0.000000 0.000000
# 2 -0.003935 0.011627 -0.004262 0.000000 0.000000 0.000000
# 3 -0.000327 -0.004262 0.010403 0.000000 0.000000 0.000000
# 4 0.000000 0.000000 0.000000 0.024582 0.000000 0.000000
# 5 0.000000 0.000000 0.000000 0.000000 0.026124 0.000000
# 6 0.000000 0.000000 0.000000 0.000000 0.000000 0.046546
#
#
# Mechanical properties :
#
#
# Convention : Reuss Voigt Hill
#
# Bulk Modulus (GPa) = 27.16795 42.60707 34.88751
# Shear Modulus (GPa) = 27.71197 32.75202 30.23200
#
# Velocity S-wave (km/s) = 3.54976 3.85908 3.70765
# Velocity P-wave (km/s) = 5.39948 6.26341 5.84743
#
# Compressibility (1/GPa) = 0.03680808
#
# Stress axis : x y z
#
# Youngs Moduli (GPa) = 31.41942 86.00757 96.12624
#
# Poissons Ratio (x) = 0.33845 0.03148
# Poissons Ratio (y) = 0.12364 0.40969
# Poissons Ratio (z) = 0.01029 0.36656
#
# Static dielectric constant tensor:
#      x y z
#    x 1.763440 0.000000 0.000000 
#    y 0.000000 2.048410 0.000000 
#    z 0.000000 0.000000 1.749890 
# 
# From -- ./inp_files/30773.got.cif
#   From: 2010.05.17/outbox.cif.g08.bks.cpg/sg24_16_cif.got.tgz:30773.got - 2010.06.04 00:33:39.
