data_PCOD9334058
_publ_section_title
;
Structure prediction by ZEFSAII (Michael W. Deem and Ramdas Pophale) SiO2 
 PCOD9334058
Probable space group: I 21 21 21
;
_chemical_formula_sum "Si O2"
_cell_formula_units_Z 36
_cell_length_a 38.492252
_cell_length_b 5.566085
_cell_length_c 7.325707
_cell_angle_alpha 90.000000
_cell_angle_beta 90.000000
_cell_angle_gamma 90.000000
_cell_volume 1569.541123
_symmetry_space_group_name_H-M "I 21 21 21"
_symmetry_group_IT_number 24
_symmetry_cell_setting 'orthorhombic'
loop_
_space_group_symop_operation_xyz
x,y,z
-x,1/2-y,z
x,-y,1/2-z
1/2-x,y,-z
1/2+x,1/2+y,1/2+z
1/2-x,-y,1/2+z
1/2+x,1/2-y,-z
-x,1/2+y,1/2-z
loop_
_atom_site_type_symbol
_atom_site_label
_atom_site_fract_x
_atom_site_fract_y
_atom_site_fract_z
Si Si1 0.820283 0.637677 0.054960
Si Si2 0.076654 0.729854 0.530435
Si Si3 0.396216 0.226381 0.448380
Si Si4 0.000000 0.250000 0.864662
Si Si5 0.750000 0.623695 0.500000
Si Si6 0.219515 0.500000 0.250000
O O1 0.827327 0.500000 0.250000
O O2 0.786374 0.510425 0.974166
O O3 0.805837 0.902761 0.095742
O O4 0.855405 0.666595 0.944479
O O5 0.095343 0.486125 0.463681
O O6 0.087861 0.749997 0.745184
O O7 0.035238 0.706569 0.523887
O O8 0.087306 0.991452 0.457911
O O9 0.994936 0.500000 0.750000
O O10 0.742834 0.788697 0.674850
#
# Coordination Sequence:
#
# PCOD9334058 Si02
#       6
#     8   8   8   4   4   4
#     4  10  23  41  60  83 117 158 208 252 304 365
#     4  10  20  35  55  93 125 153 197 238 316 361
#     4  10  20  36  53  86 122 152 195 245 295 364
#     4  12  16  32  56  84 132 158 188 244 298 386
#     4  10  22  44  62  88 114 156 210 256 324 374
#     4  10  22  44  62  86 114 158 208 256 316 372
#
# _framework density 22.936641000000002
#
# number of rings (size 3 to 8) (size 9 to 14) (size 15 to 20)
#    0.000    1.778    4.444    0.667    6.222    0.000 
#   20.000    0.000    0.000    0.000    0.000    4.667 
#    0.000    0.000    0.000    0.000    0.000    0.000 
#
# Total GULP energy -100449.589654 kJ/mol
# GULP energy per Si atom -5580.532759 kJ/mol
# Density = 2.288444 g / cm^3
# Si number density = 22.936641 Si / 1000 Ang^3
#
#
#
# Elastic Constant Matrix: (Units=GPa)
#
#
# Indices 1 2 3 4 5 6 
#
# 1 212.3395 51.0240 21.0614 0.0000 0.0000 0.0000
# 2 51.0240 179.8583 1.1741 0.0000 0.0000 0.0000
# 3 21.0614 1.1741 52.1273 0.0000 0.0000 0.0000
# 4 0.0000 0.0000 0.0000 0.9227 0.0000 0.0000
# 5 0.0000 0.0000 0.0000 0.0000 48.2017 0.0000
# 6 0.0000 0.0000 0.0000 0.0000 0.0000 9.8816
#
#
#
# Elastic Compliance Matrix: (Units=1/GPa)
#
#
# Indices 1 2 3 4 5 6 
#
# 1 0.005274 -0.001482 -0.002097 0.000000 0.000000 0.000000
# 2 -0.001482 0.005977 0.000464 0.000000 0.000000 0.000000
# 3 -0.002097 0.000464 0.020021 0.000000 0.000000 0.000000
# 4 0.000000 0.000000 0.000000 1.083717 0.000000 0.000000
# 5 0.000000 0.000000 0.000000 0.000000 0.020746 0.000000
# 6 0.000000 0.000000 0.000000 0.000000 0.000000 0.101198
#
#
# Mechanical properties :
#
#
# Convention : Reuss Voigt Hill
#
# Bulk Modulus (GPa) = 39.93455 65.64934 52.79195
# Shear Modulus (GPa) = 3.99517 36.53892 20.26704
#
# Velocity S-wave (km/s) = 1.32122 3.99562 2.97578
# Velocity P-wave (km/s) = 4.44703 7.06900 5.90537
#
# Compressibility (1/GPa) = 0.02504097
#
# Stress axis : x y z
#
# Youngs Moduli (GPa) = 189.62071 167.29562 49.94811
#
# Poissons Ratio (x) = 0.24800 0.10476
# Poissons Ratio (y) = 0.28109 -0.02319
# Poissons Ratio (z) = 0.39771 -0.07768
#
# Static dielectric constant tensor:
#      x y z
#    x 1.819600 0.000000 0.000000 
#    y 0.000000 1.859700 0.000000 
#    z 0.000000 0.000000 1.909400 
# 
# From -- ./inp_files/23063.got.cif
#   From: 2010.05.17/outbox.cif.g08.bks.cpg/sg24_12_cif.got.tgz:23063.got - 2010.06.04 00:33:39.
