data_PCOD9334049
_publ_section_title
;
Structure prediction by ZEFSAII (Michael W. Deem and Ramdas Pophale) SiO2 
 PCOD9334049
Probable space group: I 21 21 21
;
_chemical_formula_sum "Si O2"
_cell_formula_units_Z 32
_cell_length_a 7.155647
_cell_length_b 8.494195
_cell_length_c 22.622415
_cell_angle_alpha 90.000000
_cell_angle_beta 90.000000
_cell_angle_gamma 90.000000
_cell_volume 1375.023434
_symmetry_space_group_name_H-M "I 21 21 21"
_symmetry_group_IT_number 24
_symmetry_cell_setting 'orthorhombic'
loop_
_space_group_symop_operation_xyz
x,y,z
-x,1/2-y,z
x,-y,1/2-z
1/2-x,y,-z
1/2+x,1/2+y,1/2+z
1/2-x,-y,1/2+z
1/2+x,1/2-y,-z
-x,1/2+y,1/2-z
loop_
_atom_site_type_symbol
_atom_site_label
_atom_site_fract_x
_atom_site_fract_y
_atom_site_fract_z
Si Si1 0.526138 0.562902 0.311845
Si Si2 0.968641 0.564967 0.312116
Si Si3 0.966892 0.438775 0.939349
Si Si4 0.534796 0.563960 0.936497
O O1 0.500000 0.750000 0.311258
O O2 0.449527 0.500000 0.250000
O O3 0.747467 0.528747 0.311880
O O4 0.455943 0.503413 0.375738
O O5 0.043166 0.500000 0.250000
O O6 0.042329 0.499040 0.374167
O O7 0.000000 0.750000 0.312715
O O8 0.749717 0.497553 0.937840
O O9 0.000000 0.250000 0.940228
O O10 0.044072 0.501765 0.001220
O O11 0.500000 0.750000 0.936532
#
# Coordination Sequence:
#
# PCOD9334049 Si02
#       4
#     8   8   8   8
#     4   9  19  35  54  76 105 142 186 229 279 339
#     4  10  20  35  55  81 114 151 191 241 294 349
#     4   9  19  38  58  80 114 157 195 236 294 359
#     4  10  20  36  58  87 116 148 195 250 297 349
#
# _framework density 23.27233
#
# number of rings (size 3 to 8) (size 9 to 14) (size 15 to 20)
#    0.000    2.500    0.000    1.500    0.000    2.000 
#    0.000   20.000    0.000    0.000    0.000    0.000 
#    0.000    0.000    0.000    0.000    0.000    0.000 
#
# Total GULP energy -89218.227171 kJ/mol
# GULP energy per Si atom -5576.139198 kJ/mol
# Density = 2.321936 g / cm^3
# Si number density = 23.272330 Si / 1000 Ang^3
#
#
#
# Elastic Constant Matrix: (Units=GPa)
#
#
# Indices 1 2 3 4 5 6 
#
# 1 146.2814 10.6960 23.9977 0.0000 0.0000 0.0000
# 2 10.6960 138.9948 105.0017 0.0000 0.0000 0.0000
# 3 23.9977 105.0017 368.5974 0.0000 0.0000 0.0000
# 4 0.0000 0.0000 0.0000 58.3580 0.0000 0.0000
# 5 0.0000 0.0000 0.0000 0.0000 -7.0169 0.0000
# 6 0.0000 0.0000 0.0000 0.0000 0.0000 -46.4578
#
#
#
# Elastic Compliance Matrix: (Units=1/GPa)
#
#
# Indices 1 2 3 4 5 6 
#
# 1 0.006916 -0.000245 -0.000381 0.000000 0.000000 0.000000
# 2 -0.000245 0.009176 -0.002598 0.000000 0.000000 0.000000
# 3 -0.000381 -0.002598 0.003478 0.000000 0.000000 0.000000
# 4 0.000000 0.000000 0.000000 0.017136 0.000000 0.000000
# 5 0.000000 0.000000 0.000000 0.000000 -0.142513 0.000000
# 6 0.000000 0.000000 0.000000 0.000000 0.000000 -0.021525
#
#
# Mechanical properties :
#
#
# Convention : Reuss Voigt Hill
#
# Bulk Modulus (GPa) = 76.19834 103.69606 89.94720
# Shear Modulus (GPa) = -42.91464 35.25519 -3.82972
#
# Velocity S-wave (km/s) = -4.29886 3.89639 -1.28421
# Velocity P-wave (km/s) = 2.85881 8.05586 6.04441
#
# Compressibility (1/GPa) = 0.01312365
#
# Stress axis : x y z
#
# Youngs Moduli (GPa) = 144.58241 108.98018 287.53348
#
# Poissons Ratio (x) = 0.02667 0.10943
# Poissons Ratio (y) = 0.03538 0.74702
# Poissons Ratio (z) = 0.05503 0.28313
#
# Static dielectric constant tensor:
#      x y z
#    x 1.675890 0.000000 0.000000 
#    y 0.000000 1.766020 0.000000 
#    z 0.000000 0.000000 2.017370 
# 
# From -- ./inp_files/1951.got.cif
#   From: 2010.05.17/outbox.cif.g08.bks.cpg/sg24_1_cif.got.tgz:1951.got - 2010.06.04 00:33:39.
