data_PCOD9334010
_publ_section_title
;
Structure prediction by ZEFSAII (Michael W. Deem and Ramdas Pophale) SiO2 
 PCOD9334010
Probable space group: I 21 21 21
;
_chemical_formula_sum "Si O2"
_cell_formula_units_Z 52
_cell_length_a 8.575523
_cell_length_b 11.479194
_cell_length_c 27.728286
_cell_angle_alpha 90.000000
_cell_angle_beta 90.000000
_cell_angle_gamma 90.000000
_cell_volume 2729.575030
_symmetry_space_group_name_H-M "I 21 21 21"
_symmetry_group_IT_number 24
_symmetry_cell_setting 'orthorhombic'
loop_
_space_group_symop_operation_xyz
x,y,z
-x,1/2-y,z
x,-y,1/2-z
1/2-x,y,-z
1/2+x,1/2+y,1/2+z
1/2-x,-y,1/2+z
1/2+x,1/2-y,-z
-x,1/2+y,1/2-z
loop_
_atom_site_type_symbol
_atom_site_label
_atom_site_fract_x
_atom_site_fract_y
_atom_site_fract_z
Si Si1 0.015329 0.111676 0.878517
Si Si2 0.183982 0.754526 0.220293
Si Si3 0.181857 0.534972 0.948395
Si Si4 0.226875 0.413441 0.794655
Si Si5 0.500000 0.750000 0.083657
Si Si6 0.596554 0.934771 0.858175
Si Si7 0.764393 0.584018 0.855915
O O1 0.000000 0.250000 0.881167
O O2 0.906843 0.073965 0.833716
O O3 0.177328 0.046215 0.867408
O O4 0.941874 0.056558 0.926858
O O5 0.267387 0.709794 0.268111
O O6 0.183606 0.664409 0.174265
O O7 0.257156 0.872507 0.199612
O O8 0.000000 0.750000 0.231927
O O9 0.098964 0.660669 0.948228
O O10 0.315286 0.544614 0.907802
O O11 0.250000 0.504025 0.000000
O O12 0.206838 0.500000 0.750000
O O13 0.382972 0.452468 0.823440
O O14 0.615382 0.669590 0.116106
O O15 0.418267 0.903361 0.868773
#
# Coordination Sequence:
#
# PCOD9334010 Si02
#       7
#     8   8   8   8   4   8   8
#     4  10  23  41  55  81 120 155 199 247 284 342
#     4   9  17  32  58  82 113 150 193 238 290 349
#     4  10  21  39  62  87 116 151 189 237 299 350
#     4   9  19  34  54  80 116 154 193 239 287 343
#     4  10  20  34  58  92 118 142 188 248 294 352
#     4   9  18  36  56  84 120 152 187 237 296 354
#     4  10  20  35  61  83 116 161 191 236 302 348
#
# _framework density 19.050584000000001
#
# number of rings (size 3 to 8) (size 9 to 14) (size 15 to 20)
#    0.000    2.462    1.538    0.000    2.154    3.692 
#    0.000   10.000    0.000    0.000    0.000    0.000 
#    0.000    0.000    0.000    0.000    0.000    0.000 
#
# Total GULP energy -144808.058054 kJ/mol
# GULP energy per Si atom -5569.540694 kJ/mol
# Density = 1.900722 g / cm^3
# Si number density = 19.050584 Si / 1000 Ang^3
#
#
#
# Elastic Constant Matrix: (Units=GPa)
#
#
# Indices 1 2 3 4 5 6 
#
# 1 50.1297 21.8790 22.4909 0.0000 0.0000 0.0000
# 2 21.8790 82.1420 22.2421 0.0000 0.0000 0.0000
# 3 22.4909 22.2421 96.2626 0.0000 0.0000 0.0000
# 4 0.0000 0.0000 0.0000 18.6801 0.0000 0.0000
# 5 0.0000 0.0000 0.0000 0.0000 6.6461 0.0000
# 6 0.0000 0.0000 0.0000 0.0000 0.0000 16.5608
#
#
#
# Elastic Compliance Matrix: (Units=1/GPa)
#
#
# Indices 1 2 3 4 5 6 
#
# 1 0.024236 -0.005251 -0.004449 0.000000 0.000000 0.000000
# 2 -0.005251 0.014124 -0.002037 0.000000 0.000000 0.000000
# 3 -0.004449 -0.002037 0.011898 0.000000 0.000000 0.000000
# 4 0.000000 0.000000 0.000000 0.053533 0.000000 0.000000
# 5 0.000000 0.000000 0.000000 0.000000 0.150465 0.000000
# 6 0.000000 0.000000 0.000000 0.000000 0.000000 0.060384
#
#
# Mechanical properties :
#
#
# Convention : Reuss Voigt Hill
#
# Bulk Modulus (GPa) = 37.33405 40.19534 38.76469
# Shear Modulus (GPa) = 14.40749 19.17221 16.78985
#
# Velocity S-wave (km/s) = 2.75303 3.17580 2.97194
# Velocity P-wave (km/s) = 5.45394 5.88155 5.67178
#
# Compressibility (1/GPa) = 0.02678520
#
# Stress axis : x y z
#
# Youngs Moduli (GPa) = 41.26076 70.80114 84.04503
#
# Poissons Ratio (x) = 0.37175 0.37395
# Poissons Ratio (y) = 0.21665 0.17117
# Poissons Ratio (z) = 0.18358 0.14420
#
# Static dielectric constant tensor:
#      x y z
#    x 1.679530 0.000000 0.000000 
#    y 0.000000 1.769590 0.000000 
#    z 0.000000 0.000000 1.625240 
# 
# From -- ./inp_files/38363.got.cif
#   From: 2010.05.17/outbox.cif.g08.bks.cpg/sg24_20_cif.got.tgz:38363.got - 2010.06.04 00:33:39.
