data_PCOD9334163
_publ_section_title
;
Structure prediction by ZEFSAII (Michael W. Deem and Ramdas Pophale) SiO2 
 PCOD9334163
Probable space group: I 21 21 21
;
_chemical_formula_sum "Si O2"
_cell_formula_units_Z 32
_cell_length_a 14.864452
_cell_length_b 4.928457
_cell_length_c 16.894550
_cell_angle_alpha 90.000000
_cell_angle_beta 90.000000
_cell_angle_gamma 90.000000
_cell_volume 1237.674671
_symmetry_space_group_name_H-M "I 21 21 21"
_symmetry_group_IT_number 24
_symmetry_cell_setting 'orthorhombic'
loop_
_space_group_symop_operation_xyz
x,y,z
-x,1/2-y,z
x,-y,1/2-z
1/2-x,y,-z
1/2+x,1/2+y,1/2+z
1/2-x,-y,1/2+z
1/2+x,1/2-y,-z
-x,1/2+y,1/2-z
loop_
_atom_site_type_symbol
_atom_site_label
_atom_site_fract_x
_atom_site_fract_y
_atom_site_fract_z
Si Si1 0.655143 0.616330 0.868833
Si Si2 0.357691 0.613866 0.020062
Si Si3 0.727486 0.000000 0.250000
Si Si4 0.660761 0.623572 0.385986
Si Si5 0.500000 0.750000 0.700990
O O1 0.733390 0.424300 0.903867
O O2 0.581845 0.408024 0.837926
O O3 0.711830 0.193743 0.692582
O O4 0.606976 0.793520 0.935739
O O5 0.384406 0.325107 0.052171
O O6 0.376900 0.828438 0.090858
O O7 0.250000 0.606832 0.000000
O O8 0.668239 0.788836 0.303065
O O9 0.458643 0.500000 0.750000
#
# Coordination Sequence:
#
# PCOD9334163 Si02
#       5
#     8   8   4   8   4
#     4  11  26  39  62  86 127 173 224 258 314 373
#     4  10  20  36  59  80 114 159 208 259 325 369
#     4  12  22  36  62  92 120 164 216 268 314 384
#     4  11  21  36  58  86 115 159 205 265 323 370
#     4  12  30  44  58  86 130 182 230 258 296 368
#
# _framework density 25.854939000000002
#
# number of rings (size 3 to 8) (size 9 to 14) (size 15 to 20)
#    0.000    1.000    5.000    4.500    7.000    0.000 
#    0.000    0.000    0.000    0.000    0.000    0.000 
#    0.000    4.000    0.000    0.250    0.000    0.250 
#
# Total GULP energy -89354.362023 kJ/mol
# GULP energy per Si atom -5584.647626 kJ/mol
# Density = 2.579609 g / cm^3
# Si number density = 25.854939 Si / 1000 Ang^3
#
#
#
# Elastic Constant Matrix: (Units=GPa)
#
#
# Indices 1 2 3 4 5 6 
#
# 1 22.0987 14.3451 11.3905 0.0000 0.0000 0.0000
# 2 14.3451 168.7383 43.8919 0.0000 0.0000 0.0000
# 3 11.3905 43.8919 117.1988 0.0000 0.0000 0.0000
# 4 0.0000 0.0000 0.0000 65.5800 0.0000 0.0000
# 5 0.0000 0.0000 0.0000 0.0000 -72.8239 0.0000
# 6 0.0000 0.0000 0.0000 0.0000 0.0000 16.6223
#
#
#
# Elastic Compliance Matrix: (Units=1/GPa)
#
#
# Indices 1 2 3 4 5 6 
#
# 1 0.049201 -0.003256 -0.003562 0.000000 0.000000 0.000000
# 2 -0.003256 0.006781 -0.002223 0.000000 0.000000 0.000000
# 3 -0.003562 -0.002223 0.009711 0.000000 0.000000 0.000000
# 4 0.000000 0.000000 0.000000 0.015249 0.000000 0.000000
# 5 0.000000 0.000000 0.000000 0.000000 -0.013732 0.000000
# 6 0.000000 0.000000 0.000000 0.000000 0.000000 0.060160
#
#
# Mechanical properties :
#
#
# Convention : Reuss Voigt Hill
#
# Bulk Modulus (GPa) = 21.00374 49.69898 35.35136
# Shear Modulus (GPa) = 30.99333 17.76956 24.38144
#
# Velocity S-wave (km/s) = 3.46604 2.62445 3.07418
# Velocity P-wave (km/s) = 4.91520 5.33363 5.12868
#
# Compressibility (1/GPa) = 0.04761057
#
# Stress axis : x y z
#
# Youngs Moduli (GPa) = 20.32465 147.46073 102.97217
#
# Poissons Ratio (x) = 0.48016 0.36683
# Poissons Ratio (y) = 0.06618 0.22893
# Poissons Ratio (z) = 0.07240 0.32784
#
# Static dielectric constant tensor:
#      x y z
#    x 2.018340 0.000000 0.000000 
#    y 0.000000 2.155420 0.000000 
#    z 0.000000 0.000000 2.274470 
# 
# From -- ./inp_files/28592.got.cif
#   From: 2010.05.17/outbox.cif.g08.bks.cpg/sg24_15_cif.got.tgz:28592.got - 2010.06.04 00:33:39.
