data_PCOD9334149
_publ_section_title
;
Structure prediction by ZEFSAII (Michael W. Deem and Ramdas Pophale) SiO2 
 PCOD9334149
Probable space group: I 21 21 21
;
_chemical_formula_sum "Si O2"
_cell_formula_units_Z 64
_cell_length_a 15.987907
_cell_length_b 8.746030
_cell_length_c 24.182242
_cell_angle_alpha 90.000000
_cell_angle_beta 90.000000
_cell_angle_gamma 90.000000
_cell_volume 3381.420171
_symmetry_space_group_name_H-M "I 21 21 21"
_symmetry_group_IT_number 24
_symmetry_cell_setting 'orthorhombic'
loop_
_space_group_symop_operation_xyz
x,y,z
-x,1/2-y,z
x,-y,1/2-z
1/2-x,y,-z
1/2+x,1/2+y,1/2+z
1/2-x,-y,1/2+z
1/2+x,1/2-y,-z
-x,1/2+y,1/2-z
loop_
_atom_site_type_symbol
_atom_site_label
_atom_site_fract_x
_atom_site_fract_y
_atom_site_fract_z
Si Si1 0.348251 0.748595 0.479309
Si Si2 0.993595 0.575258 0.122830
Si Si3 0.923095 0.865763 0.705905
Si Si4 0.000557 0.982383 0.500974
Si Si5 0.488560 0.077724 0.375698
Si Si6 0.831714 0.375023 0.855687
Si Si7 0.661251 0.569148 0.688743
Si Si8 0.077106 0.630430 0.296532
O O1 0.250000 0.741547 0.500000
O O2 0.410319 0.604803 0.492057
O O3 0.338865 0.789400 0.414423
O O4 0.414070 0.878544 0.501440
O O5 0.997688 0.568438 0.057009
O O6 0.912240 0.501531 0.151498
O O7 0.000000 0.750000 0.141723
O O8 0.064397 0.463790 0.147228
O O9 0.849197 0.749637 0.691911
O O10 0.000000 0.750000 0.719473
O O11 0.910592 0.000000 0.750000
O O12 0.945509 0.958694 0.649950
O O13 0.009168 0.073090 0.558085
O O14 0.500000 0.250000 0.355992
O O15 0.402445 0.004221 0.355328
O O16 0.745399 0.456730 0.844323
O O17 0.659284 0.500000 0.750000
O O18 0.651454 0.751308 0.696492
O O19 0.081180 0.500000 0.250000
O O20 0.000000 0.750000 0.285976
#
# Coordination Sequence:
#
# PCOD9334149 Si02
#       8
#     8   8   8   8   8   8   8   8
#     4  10  20  36  63  88 125 157 205 259 310 368
#     4  11  22  38  61  89 122 158 209 251 303 377
#     4  10  20  36  58  86 113 150 200 244 298 364
#     4  10  21  36  62  93 119 161 208 250 312 373
#     4  10  20  39  61  86 119 156 196 249 302 367
#     4  10  22  39  58  86 120 157 199 252 310 364
#     4  11  24  39  60  88 124 161 206 258 314 367
#     4  10  20  36  59  83 116 159 204 247 300 357
#
# _framework density 18.926957000000002
#
# number of rings (size 3 to 8) (size 9 to 14) (size 15 to 20)
#    0.000    1.750    1.250    4.125    7.000    3.500 
#    0.000    2.500    0.000    1.500    0.000    0.000 
#    0.000    0.000    0.000    0.000    0.000    0.000 
#
# Total GULP energy -178181.723313 kJ/mol
# GULP energy per Si atom -5568.178854 kJ/mol
# Density = 1.888388 g / cm^3
# Si number density = 18.926957 Si / 1000 Ang^3
#
#
#
# Elastic Constant Matrix: (Units=GPa)
#
#
# Indices 1 2 3 4 5 6 
#
# 1 93.9334 33.4005 19.2717 0.0000 0.0000 0.0000
# 2 33.4005 122.4645 42.9534 0.0000 0.0000 0.0000
# 3 19.2717 42.9534 92.6120 0.0000 0.0000 0.0000
# 4 0.0000 0.0000 0.0000 12.9027 0.0000 0.0000
# 5 0.0000 0.0000 0.0000 0.0000 -1.1629 0.0000
# 6 0.0000 0.0000 0.0000 0.0000 0.0000 4.3854
#
#
#
# Elastic Compliance Matrix: (Units=1/GPa)
#
#
# Indices 1 2 3 4 5 6 
#
# 1 0.011892 -0.002837 -0.001159 0.000000 0.000000 0.000000
# 2 -0.002837 0.010429 -0.004247 0.000000 0.000000 0.000000
# 3 -0.001159 -0.004247 0.013008 0.000000 0.000000 0.000000
# 4 0.000000 0.000000 0.000000 0.077503 0.000000 0.000000
# 5 0.000000 0.000000 0.000000 0.000000 -0.859916 0.000000
# 6 0.000000 0.000000 0.000000 0.000000 0.000000 0.228028
#
#
# Mechanical properties :
#
#
# Convention : Reuss Voigt Hill
#
# Bulk Modulus (GPa) = 53.06514 55.58459 54.32487
# Shear Modulus (GPa) = -10.07480 17.45066 3.68793
#
# Velocity S-wave (km/s) = -2.30966 3.03974 1.39740
# Velocity P-wave (km/s) = 4.58093 6.46156 5.60074
#
# Compressibility (1/GPa) = 0.01884476
#
# Stress axis : x y z
#
# Youngs Moduli (GPa) = 84.08750 95.88812 76.87327
#
# Poissons Ratio (x) = 0.27204 0.08909
# Poissons Ratio (y) = 0.23856 0.32644
# Poissons Ratio (z) = 0.09745 0.40719
#
# Static dielectric constant tensor:
#      x y z
#    x 1.562160 0.000000 0.000000 
#    y 0.000000 1.665480 0.000000 
#    z 0.000000 0.000000 1.663100 
# 
# From -- ./inp_files/35867.got.cif
#   From: 2010.05.17/outbox.cif.g08.bks.cpg/sg24_18_cif.got.tgz:35867.got - 2010.06.04 00:33:39.
