data_PCOD9334428
_publ_section_title
;
Structure prediction by ZEFSAII (Michael W. Deem and Ramdas Pophale) SiO2 
 PCOD9334428
Probable space group: I 21 21 21
;
_chemical_formula_sum "Si O2"
_cell_formula_units_Z 64
_cell_length_a 13.626288
_cell_length_b 8.773235
_cell_length_c 22.781643
_cell_angle_alpha 90.000000
_cell_angle_beta 90.000000
_cell_angle_gamma 90.000000
_cell_volume 2723.468574
_symmetry_space_group_name_H-M "I 21 21 21"
_symmetry_group_IT_number 24
_symmetry_cell_setting 'orthorhombic'
loop_
_space_group_symop_operation_xyz
x,y,z
-x,1/2-y,z
x,-y,1/2-z
1/2-x,y,-z
1/2+x,1/2+y,1/2+z
1/2-x,-y,1/2+z
1/2+x,1/2-y,-z
-x,1/2+y,1/2-z
loop_
_atom_site_type_symbol
_atom_site_label
_atom_site_fract_x
_atom_site_fract_y
_atom_site_fract_z
Si Si1 0.616280 0.790279 0.337269
Si Si2 0.414415 0.141805 0.279854
Si Si3 0.228065 0.519787 0.182313
Si Si4 0.758336 0.655892 0.871063
Si Si5 0.563863 0.373037 0.584506
Si Si6 0.104447 0.696122 0.964072
Si Si7 0.108624 0.673659 0.534646
Si Si8 0.415802 0.638778 0.591070
O O1 0.500000 0.750000 0.338545
O O2 0.645631 0.715805 0.274604
O O3 0.660838 0.959306 0.328721
O O4 0.650004 0.754885 0.404498
O O5 0.500000 0.250000 0.301725
O O6 0.342253 0.086366 0.330425
O O7 0.466850 0.000000 0.250000
O O8 0.202276 0.500000 0.250000
O O9 0.222759 0.693597 0.163002
O O10 0.157335 0.422503 0.139976
O O11 0.660724 0.562715 0.885003
O O12 0.810469 0.720962 0.928653
O O13 0.500000 0.250000 0.621068
O O14 0.601376 0.273582 0.528822
O O15 0.486744 0.502122 0.568039
O O16 0.113681 0.512302 0.959160
O O17 0.000000 0.750000 0.938464
O O18 0.141725 0.698606 0.467021
O O19 0.000000 0.750000 0.532385
O O20 0.500000 0.750000 0.614887
#
# Coordination Sequence:
#
# PCOD9334428 Si02
#       8
#     8   8   8   8   8   8   8   8
#     4  10  23  39  69  98 144 177 225 285 348 416
#     4  11  27  45  67  98 142 190 233 290 354 425
#     4  12  24  45  72 105 134 189 244 292 348 439
#     4  12  24  40  73 100 137 184 242 285 362 426
#     4  11  22  44  68 100 140 175 233 309 343 415
#     4  11  21  38  67 103 139 181 228 283 361 432
#     4  10  20  38  67 101 138 179 223 285 352 424
#     4  11  25  48  73 100 140 186 238 299 365 428
#
# _framework density 23.499444
#
# number of rings (size 3 to 8) (size 9 to 14) (size 15 to 20)
#    0.000    1.000    6.250    0.750    3.500    4.500 
#    2.250    0.000    2.750    0.000    0.000    0.000 
#    0.000    0.000    0.000    0.000    0.000    0.000 
#
# Total GULP energy -178373.414773 kJ/mol
# GULP energy per Si atom -5574.169212 kJ/mol
# Density = 2.344596 g / cm^3
# Si number density = 23.499444 Si / 1000 Ang^3
#
#
#
# Elastic Constant Matrix: (Units=GPa)
#
#
# Indices 1 2 3 4 5 6 
#
# 1 108.8826 8.7918 49.2995 0.0000 0.0000 0.0000
# 2 8.7918 32.1000 -6.1709 0.0000 0.0000 0.0000
# 3 49.2995 -6.1709 136.6017 0.0000 0.0000 0.0000
# 4 0.0000 0.0000 0.0000 25.0309 0.0000 0.0000
# 5 0.0000 0.0000 0.0000 0.0000 30.9678 0.0000
# 6 0.0000 0.0000 0.0000 0.0000 0.0000 33.2554
#
#
#
# Elastic Compliance Matrix: (Units=1/GPa)
#
#
# Indices 1 2 3 4 5 6 
#
# 1 0.011458 -0.003968 -0.004314 0.000000 0.000000 0.000000
# 2 -0.003968 0.032799 0.002914 0.000000 0.000000 0.000000
# 3 -0.004314 0.002914 0.009009 0.000000 0.000000 0.000000
# 4 0.000000 0.000000 0.000000 0.039951 0.000000 0.000000
# 5 0.000000 0.000000 0.000000 0.000000 0.032292 0.000000
# 6 0.000000 0.000000 0.000000 0.000000 0.000000 0.030070
#
#
# Mechanical properties :
#
#
# Convention : Reuss Voigt Hill
#
# Bulk Modulus (GPa) = 23.51291 42.38057 32.94674
# Shear Modulus (GPa) = 27.70192 32.89506 30.29849
#
# Velocity S-wave (km/s) = 3.43714 3.74548 3.59462
# Velocity P-wave (km/s) = 5.07734 6.06454 5.59276
#
# Compressibility (1/GPa) = 0.04252983
#
# Stress axis : x y z
#
# Youngs Moduli (GPa) = 87.27487 30.48831 110.99697
#
# Poissons Ratio (x) = 0.12097 0.47889
# Poissons Ratio (y) = 0.34627 -0.32340
# Poissons Ratio (z) = 0.37654 -0.08883
#
# Static dielectric constant tensor:
#      x y z
#    x 2.013790 0.000000 0.000000 
#    y 0.000000 1.960860 0.000000 
#    z 0.000000 0.000000 1.920680 
# 
# From -- ./inp_files/35847.got.cif
#   From: 2010.05.17/outbox.cif.g08.bks.cpg/sg24_18_cif.got.tgz:35847.got - 2010.06.04 00:33:39.
