data_PCOD9334373
_publ_section_title
;
Structure prediction by ZEFSAII (Michael W. Deem and Ramdas Pophale) SiO2 
 PCOD9334373
Probable space group: I 21 21 21
;
_chemical_formula_sum "Si O2"
_cell_formula_units_Z 48
_cell_length_a 32.444620
_cell_length_b 8.811381
_cell_length_c 8.366425
_cell_angle_alpha 90.000000
_cell_angle_beta 90.000000
_cell_angle_gamma 90.000000
_cell_volume 2391.809544
_symmetry_space_group_name_H-M "I 21 21 21"
_symmetry_group_IT_number 24
_symmetry_cell_setting 'orthorhombic'
loop_
_space_group_symop_operation_xyz
x,y,z
-x,1/2-y,z
x,-y,1/2-z
1/2-x,y,-z
1/2+x,1/2+y,1/2+z
1/2-x,-y,1/2+z
1/2+x,1/2-y,-z
-x,1/2+y,1/2-z
loop_
_atom_site_type_symbol
_atom_site_label
_atom_site_fract_x
_atom_site_fract_y
_atom_site_fract_z
Si Si1 0.075608 0.000000 0.250000
Si Si2 0.545688 0.239524 0.984908
Si Si3 0.630207 0.260253 0.593843
Si Si4 0.699338 0.831496 0.333219
Si Si5 0.209932 0.677391 0.283554
Si Si6 0.076347 0.500000 0.250000
Si Si7 0.884031 0.320013 0.762996
O O1 0.050966 0.875732 0.353887
O O2 0.106634 0.914559 0.132658
O O3 0.500000 0.250000 0.056268
O O4 0.550544 0.082172 0.888219
O O5 0.581700 0.254749 0.116216
O O6 0.676260 0.258341 0.669157
O O7 0.619634 0.238641 0.408727
O O8 0.606287 0.128745 0.684973
O O9 0.742510 0.775829 0.256904
O O10 0.703652 0.827951 0.525265
O O11 0.662023 0.715316 0.317912
O O12 0.691562 0.000000 0.250000
O O13 0.207033 0.500000 0.250000
O O14 0.891410 0.500000 0.750000
#
# Coordination Sequence:
#
# PCOD9334373 Si02
#       7
#     4   8   8   8   8   4   8
#     4  10  21  42  68  94 134 174 210 276 337 408
#     4  11  24  46  70 100 130 172 226 283 345 409
#     4  11  22  40  67  95 134 175 218 265 334 394
#     4  10  22  39  66  94 134 170 231 285 328 387
#     4  10  20  38  63 100 128 176 227 278 327 393
#     4  10  23  42  72 100 122 172 222 276 335 404
#     4  12  26  44  61  97 137 181 215 276 342 406
#
# _framework density 20.068487999999999
#
# number of rings (size 3 to 8) (size 9 to 14) (size 15 to 20)
#    0.000    1.333    2.500    3.500    2.333    2.000 
#    4.500    0.833    0.000    0.000    0.000    0.000 
#    0.000    0.000    0.000    0.000    0.000    0.000 
#
# Total GULP energy -133680.185253 kJ/mol
# GULP energy per Si atom -5570.007719 kJ/mol
# Density = 2.002281 g / cm^3
# Si number density = 20.068488 Si / 1000 Ang^3
#
#
#
# Elastic Constant Matrix: (Units=GPa)
#
#
# Indices 1 2 3 4 5 6 
#
# 1 106.2299 11.5951 17.2090 0.0000 0.0000 0.0000
# 2 11.5951 26.7700 -13.9060 0.0000 0.0000 0.0000
# 3 17.2090 -13.9060 67.2607 0.0000 0.0000 0.0000
# 4 0.0000 0.0000 0.0000 28.5518 0.0000 0.0000
# 5 0.0000 0.0000 0.0000 0.0000 -303.9245 0.0000
# 6 0.0000 0.0000 0.0000 0.0000 0.0000 6.6096
#
#
#
# Elastic Compliance Matrix: (Units=1/GPa)
#
#
# Indices 1 2 3 4 5 6 
#
# 1 0.010844 -0.006877 -0.004196 0.000000 0.000000 0.000000
# 2 -0.006877 0.046211 0.011313 0.000000 0.000000 0.000000
# 3 -0.004196 0.011313 0.018280 0.000000 0.000000 0.000000
# 4 0.000000 0.000000 0.000000 0.035024 0.000000 0.000000
# 5 0.000000 0.000000 0.000000 0.000000 -0.003290 0.000000
# 6 0.000000 0.000000 0.000000 0.000000 0.000000 0.151294
#
#
# Mechanical properties :
#
#
# Convention : Reuss Voigt Hill
#
# Bulk Modulus (GPa) = 13.18985 25.56187 19.37586
# Shear Modulus (GPa) = 17.65826 -41.39513 -11.86843
#
# Velocity S-wave (km/s) = 2.96953 -4.54661 -2.43450
# Velocity P-wave (km/s) = 4.28301 3.84673 1.33170
#
# Compressibility (1/GPa) = 0.07581587
#
# Stress axis : x y z
#
# Youngs Moduli (GPa) = 92.21753 21.63998 54.70405
#
# Poissons Ratio (x) = 0.14881 0.22955
# Poissons Ratio (y) = 0.63415 -0.61889
# Poissons Ratio (z) = 0.38697 -0.24482
#
# Static dielectric constant tensor:
#      x y z
#    x 1.748380 0.000000 0.000000 
#    y 0.000000 1.674350 0.000000 
#    z 0.000000 0.000000 1.714130 
# 
# From -- ./inp_files/16881.got.cif
#   From: 2010.05.17/outbox.cif.g08.bks.cpg/sg24_9_cif.got.tgz:16881.got - 2010.06.04 00:33:39.
