data_PCOD9334996
_publ_section_title
;
Structure prediction by ZEFSAII (Michael W. Deem and Ramdas Pophale) SiO2 
 PCOD9334996
Probable space group: I 21 21 21
;
_chemical_formula_sum "Si O2"
_cell_formula_units_Z 40
_cell_length_a 5.298232
_cell_length_b 16.351206
_cell_length_c 19.561894
_cell_angle_alpha 90.000000
_cell_angle_beta 90.000000
_cell_angle_gamma 90.000000
_cell_volume 1694.695447
_symmetry_space_group_name_H-M "I 21 21 21"
_symmetry_group_IT_number 24
_symmetry_cell_setting 'orthorhombic'
loop_
_space_group_symop_operation_xyz
x,y,z
-x,1/2-y,z
x,-y,1/2-z
1/2-x,y,-z
1/2+x,1/2+y,1/2+z
1/2-x,-y,1/2+z
1/2+x,1/2-y,-z
-x,1/2+y,1/2-z
loop_
_atom_site_type_symbol
_atom_site_label
_atom_site_fract_x
_atom_site_fract_y
_atom_site_fract_z
Si Si1 0.429957 0.467006 0.173603
Si Si2 0.080970 0.944405 0.170237
Si Si3 0.751308 0.304447 0.426255
Si Si4 0.940952 0.842404 0.305561
Si Si5 0.504771 0.346433 0.965894
O O1 0.453598 0.500000 0.250000
O O2 0.701330 0.491893 0.147316
O O3 0.349775 0.372391 0.181753
O O4 0.188742 0.518768 0.145694
O O5 0.190129 0.864808 0.134240
O O6 0.036711 0.909361 0.248793
O O7 0.500000 0.250000 0.416185
O O8 0.750000 0.348417 0.500000
O O9 0.000000 0.250000 0.430958
O O10 0.000000 0.750000 0.281506
O O11 0.030546 0.846582 0.384062
O O12 0.500000 0.250000 0.985276
O O13 0.750000 0.384627 0.000000
O O14 0.250000 0.382011 0.000000
#
# Coordination Sequence:
#
# PCOD9334996 Si02
#       5
#     8   8   8   8   8
#     4  10  22  40  59  86 128 163 195 259 327 371
#     4  11  22  40  62  88 125 164 205 252 318 387
#     4  10  21  39  64  95 130 167 212 269 323 376
#     4  10  22  41  68  96 122 167 226 269 314 386
#     4   9  19  36  57  85 122 157 197 259 319 362
#
# _framework density 23.603062000000001
#
# number of rings (size 3 to 8) (size 9 to 14) (size 15 to 20)
#    0.000    2.000    0.000    3.600    0.000    6.400 
#    0.000   17.000    0.000    0.000    0.000    0.000 
#    0.000    0.000    0.000    0.000    0.000    0.000 
#
# Total GULP energy -111356.418674 kJ/mol
# GULP energy per Si atom -5567.820934 kJ/mol
# Density = 2.354934 g / cm^3
# Si number density = 23.603062 Si / 1000 Ang^3
#
#
#
# Elastic Constant Matrix: (Units=GPa)
#
#
# Indices 1 2 3 4 5 6 
#
# 1 176.4583 32.5208 38.7711 0.0000 0.0000 0.0000
# 2 32.5208 74.9849 12.7224 0.0000 0.0000 0.0000
# 3 38.7711 12.7224 52.4073 0.0000 0.0000 0.0000
# 4 0.0000 0.0000 0.0000 18.4659 0.0000 0.0000
# 5 0.0000 0.0000 0.0000 0.0000 17.8745 0.0000
# 6 0.0000 0.0000 0.0000 0.0000 0.0000 11.3009
#
#
#
# Elastic Compliance Matrix: (Units=1/GPa)
#
#
# Indices 1 2 3 4 5 6 
#
# 1 0.007125 -0.002290 -0.004715 0.000000 0.000000 0.000000
# 2 -0.002290 0.014645 -0.001861 0.000000 0.000000 0.000000
# 3 -0.004715 -0.001861 0.023021 0.000000 0.000000 0.000000
# 4 0.000000 0.000000 0.000000 0.054154 0.000000 0.000000
# 5 0.000000 0.000000 0.000000 0.000000 0.055946 0.000000
# 6 0.000000 0.000000 0.000000 0.000000 0.000000 0.088488
#
#
# Mechanical properties :
#
#
# Convention : Reuss Voigt Hill
#
# Bulk Modulus (GPa) = 36.95645 52.43101 44.69373
# Shear Modulus (GPa) = 18.50946 24.18399 21.34673
#
# Velocity S-wave (km/s) = 2.80339 3.20443 3.01060
# Velocity P-wave (km/s) = 5.11568 5.99608 5.57329
#
# Compressibility (1/GPa) = 0.02705888
#
# Stress axis : x y z
#
# Youngs Moduli (GPa) = 140.34764 68.28269 43.43774
#
# Poissons Ratio (x) = 0.15638 0.20482
# Poissons Ratio (y) = 0.32142 0.08084
# Poissons Ratio (z) = 0.66178 0.12707
#
# Static dielectric constant tensor:
#      x y z
#    x 1.477480 0.000000 0.000000 
#    y 0.000000 1.932390 0.000000 
#    z 0.000000 0.000000 1.956360 
# 
# From -- ./inp_files/32058.got.cif
#   From: 2010.05.17/outbox.cif.g08.bks.cpg/sg24_17_cif.got.tgz:32058.got - 2010.06.04 00:33:39.
