data_PCOD9334993
_publ_section_title
;
Structure prediction by ZEFSAII (Michael W. Deem and Ramdas Pophale) SiO2 
 PCOD9334993
Probable space group: I 21 21 21
;
_chemical_formula_sum "Si O2"
_cell_formula_units_Z 32
_cell_length_a 7.515282
_cell_length_b 7.878483
_cell_length_c 23.125600
_cell_angle_alpha 90.000000
_cell_angle_beta 90.000000
_cell_angle_gamma 90.000000
_cell_volume 1369.244147
_symmetry_space_group_name_H-M "I 21 21 21"
_symmetry_group_IT_number 24
_symmetry_cell_setting 'orthorhombic'
loop_
_space_group_symop_operation_xyz
x,y,z
-x,1/2-y,z
x,-y,1/2-z
1/2-x,y,-z
1/2+x,1/2+y,1/2+z
1/2-x,-y,1/2+z
1/2+x,1/2-y,-z
-x,1/2+y,1/2-z
loop_
_atom_site_type_symbol
_atom_site_label
_atom_site_fract_x
_atom_site_fract_y
_atom_site_fract_z
Si Si1 0.189921 0.404341 0.608259
Si Si2 0.714889 0.267202 0.148540
Si Si3 0.811139 0.189389 0.273823
Si Si4 0.287190 0.060823 0.435404
O O1 0.276611 0.588214 0.620163
O O2 0.177818 0.323414 0.672748
O O3 0.281969 0.253295 0.572762
O O4 0.999203 0.432490 0.578261
O O5 0.500000 0.250000 0.147470
O O6 0.763439 0.291308 0.215803
O O7 0.780234 0.425261 0.111243
O O8 0.000000 0.250000 0.296927
O O9 0.828228 0.000000 0.250000
O O10 0.250000 0.002116 0.500000
#
# Coordination Sequence:
#
# PCOD9334993 Si02
#       4
#     8   8   8   8
#     4   9  21  41  60  90 128 165 213 269 317 376
#     4   9  20  39  65  93 126 167 210 267 329 385
#     4  10  22  39  61  97 132 163 212 273 331 380
#     4  10  21  39  64  92 122 172 220 254 321 389
#
# _framework density 23.370557999999999
#
# number of rings (size 3 to 8) (size 9 to 14) (size 15 to 20)
#    0.000    2.500    0.000    0.000    7.000    1.000 
#    4.500    3.750    0.000    0.000    0.000    0.000 
#    0.000    0.000    0.000    0.000    0.000    0.000 
#
# Total GULP energy -89297.994267 kJ/mol
# GULP energy per Si atom -5581.124642 kJ/mol
# Density = 2.331737 g / cm^3
# Si number density = 23.370558 Si / 1000 Ang^3
#
#
#
# Elastic Constant Matrix: (Units=GPa)
#
#
# Indices 1 2 3 4 5 6 
#
# 1 89.6951 11.3464 33.3022 0.0000 0.0000 0.0000
# 2 11.3464 82.8260 41.7527 0.0000 0.0000 0.0000
# 3 33.3022 41.7527 143.9039 0.0000 0.0000 0.0000
# 4 0.0000 0.0000 0.0000 23.1569 0.0000 0.0000
# 5 0.0000 0.0000 0.0000 0.0000 53.2954 0.0000
# 6 0.0000 0.0000 0.0000 0.0000 0.0000 3.6625
#
#
#
# Elastic Compliance Matrix: (Units=1/GPa)
#
#
# Indices 1 2 3 4 5 6 
#
# 1 0.012203 -0.000291 -0.002740 0.000000 0.000000 0.000000
# 2 -0.000291 0.014149 -0.004038 0.000000 0.000000 0.000000
# 3 -0.002740 -0.004038 0.008755 0.000000 0.000000 0.000000
# 4 0.000000 0.000000 0.000000 0.043184 0.000000 0.000000
# 5 0.000000 0.000000 0.000000 0.000000 0.018763 0.000000
# 6 0.000000 0.000000 0.000000 0.000000 0.000000 0.273036
#
#
# Mechanical properties :
#
#
# Convention : Reuss Voigt Hill
#
# Bulk Modulus (GPa) = 47.68730 54.35862 51.02296
# Shear Modulus (GPa) = 12.78066 31.35788 22.06927
#
# Velocity S-wave (km/s) = 2.34106 3.66699 3.07631
# Velocity P-wave (km/s) = 5.26845 6.42176 5.87348
#
# Compressibility (1/GPa) = 0.02096994
#
# Stress axis : x y z
#
# Youngs Moduli (GPa) = 81.94814 70.67717 114.22476
#
# Poissons Ratio (x) = 0.02054 0.31294
# Poissons Ratio (y) = 0.02381 0.46123
# Poissons Ratio (z) = 0.22451 0.28539
#
# Static dielectric constant tensor:
#      x y z
#    x 1.959090 0.000000 0.000000 
#    y 0.000000 1.932260 0.000000 
#    z 0.000000 0.000000 1.865430 
# 
# From -- ./inp_files/8917.got.cif
#   From: 2010.05.17/outbox.cif.g08.bks.cpg/sg24_5_cif.got.tgz:8917.got - 2010.06.04 00:33:39.
