data_PCOD9334075
_publ_section_title
;
Structure prediction by ZEFSAII (Michael W. Deem and Ramdas Pophale) SiO2 
 PCOD9334075
Probable space group: I 21 21 21
;
_chemical_formula_sum "Si O2"
_cell_formula_units_Z 60
_cell_length_a 10.921613
_cell_length_b 8.654901
_cell_length_c 34.984093
_cell_angle_alpha 90.000000
_cell_angle_beta 90.000000
_cell_angle_gamma 90.000000
_cell_volume 3306.888158
_symmetry_space_group_name_H-M "I 21 21 21"
_symmetry_group_IT_number 24
_symmetry_cell_setting 'orthorhombic'
loop_
_space_group_symop_operation_xyz
x,y,z
-x,1/2-y,z
x,-y,1/2-z
1/2-x,y,-z
1/2+x,1/2+y,1/2+z
1/2-x,-y,1/2+z
1/2+x,1/2-y,-z
-x,1/2+y,1/2-z
loop_
_atom_site_type_symbol
_atom_site_label
_atom_site_fract_x
_atom_site_fract_y
_atom_site_fract_z
Si Si1 0.269755 0.553366 0.129311
Si Si2 0.620478 0.144823 0.448237
Si Si3 0.882176 0.349310 0.347987
Si Si4 0.997695 0.063695 0.010198
Si Si5 0.532021 0.071764 0.902699
Si Si6 0.250000 0.876425 0.000000
Si Si7 0.175445 0.079620 0.709693
Si Si8 0.398055 0.558580 0.207356
O O1 0.357585 0.571450 0.093113
O O2 0.206354 0.721261 0.133738
O O3 0.161464 0.441838 0.117686
O O4 0.325673 0.505451 0.169826
O O5 0.500000 0.250000 0.446131
O O6 0.725118 0.260611 0.464290
O O7 0.592687 0.013411 0.479558
O O8 0.794020 0.433007 0.317385
O O9 0.000000 0.250000 0.332403
O O10 0.937176 0.466325 0.379108
O O11 0.000000 0.250000 0.006363
O O12 0.958398 0.020871 0.053279
O O13 0.131150 0.984819 0.004717
O O14 0.500000 0.250000 0.903026
O O15 0.139614 0.261033 0.711052
O O16 0.040314 0.017150 0.698486
O O17 0.204072 0.000000 0.750000
O O18 0.370963 0.500000 0.250000
#
# Coordination Sequence:
#
# PCOD9334075 Si02
#       8
#     8   8   8   8   8   4   8   8
#     4  10  20  35  58  82 110 141 186 234 277 326
#     4  10  21  34  58  84 110 142 194 238 277 330
#     4   9  19  35  54  81 109 143 187 225 272 324
#     4  10  22  38  56  80 117 154 190 231 295 343
#     4  10  21  36  54  79 110 153 186 223 278 334
#     4  10  20  36  54  86 110 152 196 238 278 336
#     4   9  18  34  57  80 108 143 176 221 280 329
#     4   9  19  35  57  82 109 139 177 222 283 338
#
# _framework density 18.143944999999999
#
# number of rings (size 3 to 8) (size 9 to 14) (size 15 to 20)
#    0.000    2.400    0.000    1.600    3.733    7.467 
#    0.000    6.667    5.867    0.000    0.000    0.000 
#    0.000    0.000    0.000    0.000    0.000    0.000 
#
# Total GULP energy -167059.976745 kJ/mol
# GULP energy per Si atom -5568.665892 kJ/mol
# Density = 1.810265 g / cm^3
# Si number density = 18.143945 Si / 1000 Ang^3
#
#
#
# Elastic Constant Matrix: (Units=GPa)
#
#
# Indices 1 2 3 4 5 6 
#
# 1 74.3254 30.7159 76.2511 0.0000 0.0000 0.0000
# 2 30.7159 40.8287 38.2699 0.0000 0.0000 0.0000
# 3 76.2511 38.2699 151.5699 0.0000 0.0000 0.0000
# 4 0.0000 0.0000 0.0000 17.0410 0.0000 0.0000
# 5 0.0000 0.0000 0.0000 0.0000 30.8222 0.0000
# 6 0.0000 0.0000 0.0000 0.0000 0.0000 18.6722
#
#
#
# Elastic Compliance Matrix: (Units=1/GPa)
#
#
# Indices 1 2 3 4 5 6 
#
# 1 0.031497 -0.011585 -0.012920 0.000000 0.000000 0.000000
# 2 -0.011585 0.036347 -0.003349 0.000000 0.000000 0.000000
# 3 -0.012920 -0.003349 0.013943 0.000000 0.000000 0.000000
# 4 0.000000 0.000000 0.000000 0.058682 0.000000 0.000000
# 5 0.000000 0.000000 0.000000 0.000000 0.032444 0.000000
# 6 0.000000 0.000000 0.000000 0.000000 0.000000 0.053555
#
#
# Mechanical properties :
#
#
# Convention : Reuss Voigt Hill
#
# Bulk Modulus (GPa) = 38.34573 61.91088 50.12831
# Shear Modulus (GPa) = 17.18974 21.40623 19.29799
#
# Velocity S-wave (km/s) = 3.08134 3.43855 3.26483
# Velocity P-wave (km/s) = 5.81718 7.06831 6.47304
#
# Compressibility (1/GPa) = 0.02607852
#
# Stress axis : x y z
#
# Youngs Moduli (GPa) = 31.74901 27.51227 71.71986
#
# Poissons Ratio (x) = 0.31873 0.92664
# Poissons Ratio (y) = 0.36781 0.24020
# Poissons Ratio (z) = 0.41021 0.09214
#
# Static dielectric constant tensor:
#      x y z
#    x 1.651570 0.000000 0.000000 
#    y 0.000000 1.652860 0.000000 
#    z 0.000000 0.000000 1.627090 
# 
# From -- ./inp_files/38599.got.cif
#   From: 2010.05.17/outbox.cif.g08.bks.cpg/sg24_20_cif.got.tgz:38599.got - 2010.06.04 00:33:39.
