data_PCOD9334795
_publ_section_title
;
Structure prediction by ZEFSAII (Michael W. Deem and Ramdas Pophale) SiO2 
 PCOD9334795
Probable space group: I 21 21 21
;
_chemical_formula_sum "Si O2"
_cell_formula_units_Z 48
_cell_length_a 24.678758
_cell_length_b 11.333171
_cell_length_c 7.694347
_cell_angle_alpha 90.000000
_cell_angle_beta 90.000000
_cell_angle_gamma 90.000000
_cell_volume 2152.021021
_symmetry_space_group_name_H-M "I 21 21 21"
_symmetry_group_IT_number 24
_symmetry_cell_setting 'orthorhombic'
loop_
_space_group_symop_operation_xyz
x,y,z
-x,1/2-y,z
x,-y,1/2-z
1/2-x,y,-z
1/2+x,1/2+y,1/2+z
1/2-x,-y,1/2+z
1/2+x,1/2-y,-z
-x,1/2+y,1/2-z
loop_
_atom_site_type_symbol
_atom_site_label
_atom_site_fract_x
_atom_site_fract_y
_atom_site_fract_z
Si Si1 0.515604 0.581707 0.995594
Si Si2 0.958493 0.660001 0.622024
Si Si3 0.385313 0.206790 0.654807
Si Si4 0.610852 0.045229 0.560097
Si Si5 0.250000 0.823111 0.500000
Si Si6 0.687874 0.500000 0.750000
Si Si7 0.360238 0.702464 0.452982
O O1 0.514797 0.625052 0.194842
O O2 0.545881 0.455858 0.006204
O O3 0.553187 0.669916 0.888140
O O4 0.454376 0.557922 0.939377
O O5 0.901934 0.722296 0.661090
O O6 0.000000 0.750000 0.534027
O O7 0.368603 0.320727 0.539470
O O8 0.349477 0.088838 0.636882
O O9 0.378070 0.253197 0.852488
O O10 0.628727 0.000000 0.750000
O O11 0.628493 0.936888 0.438322
O O12 0.224177 0.910486 0.359394
O O13 0.298612 0.741574 0.429510
#
# Coordination Sequence:
#
# PCOD9334795 Si02
#       7
#     8   8   8   8   4   4   8
#     4  11  22  35  57  86 124 165 198 244 307 374
#     4  11  22  36  56  85 127 159 196 244 311 372
#     4  10  21  38  59  89 119 157 208 257 297 358
#     4  10  21  36  61  88 125 162 205 252 308 371
#     4  10  22  42  68  88 116 160 212 260 310 362
#     4  10  22  40  64  90 120 154 210 262 304 360
#     4  10  22  40  63  89 122 161 208 254 307 366
#
# _framework density 22.304614000000001
#
# number of rings (size 3 to 8) (size 9 to 14) (size 15 to 20)
#    0.000    1.667    1.667    3.500    3.500    2.667 
#    0.000    0.833    0.000   14.000    0.000    0.000 
#    0.000    0.000    0.000    0.000    0.000    0.000 
#
# Total GULP energy -134077.390233 kJ/mol
# GULP energy per Si atom -5586.557926 kJ/mol
# Density = 2.225385 g / cm^3
# Si number density = 22.304614 Si / 1000 Ang^3
#
#
#
# Elastic Constant Matrix: (Units=GPa)
#
#
# Indices 1 2 3 4 5 6 
#
# 1 117.9696 67.6614 -10.6059 0.0000 0.0000 0.0000
# 2 67.6614 203.8725 8.7172 0.0000 0.0000 0.0000
# 3 -10.6059 8.7172 16.5717 0.0000 0.0000 0.0000
# 4 0.0000 0.0000 0.0000 8.0984 0.0000 0.0000
# 5 0.0000 0.0000 0.0000 0.0000 19.8989 0.0000
# 6 0.0000 0.0000 0.0000 0.0000 0.0000 23.0515
#
#
#
# Elastic Compliance Matrix: (Units=1/GPa)
#
#
# Indices 1 2 3 4 5 6 
#
# 1 0.011867 -0.004361 0.009889 0.000000 0.000000 0.000000
# 2 -0.004361 0.006621 -0.006274 0.000000 0.000000 0.000000
# 3 0.009889 -0.006274 0.069973 0.000000 0.000000 0.000000
# 4 0.000000 0.000000 0.000000 0.123481 0.000000 0.000000
# 5 0.000000 0.000000 0.000000 0.000000 0.050254 0.000000
# 6 0.000000 0.000000 0.000000 0.000000 0.000000 0.043381
#
#
# Mechanical properties :
#
#
# Convention : Reuss Voigt Hill
#
# Bulk Modulus (GPa) = 11.49832 52.21768 31.85800
# Shear Modulus (GPa) = 14.87830 28.38582 21.63206
#
# Velocity S-wave (km/s) = 2.58553 3.57128 3.11762
# Velocity P-wave (km/s) = 3.75228 6.36140 5.22241
#
# Compressibility (1/GPa) = 0.08696924
#
# Stress axis : x y z
#
# Youngs Moduli (GPa) = 84.26508 151.04028 14.29116
#
# Poissons Ratio (x) = 0.65874 -0.14133
# Poissons Ratio (y) = 0.36751 0.08966
# Poissons Ratio (z) = -0.83332 0.94763
#
# Static dielectric constant tensor:
#      x y z
#    x 1.788130 0.000000 0.000000 
#    y 0.000000 1.902260 0.000000 
#    z 0.000000 0.000000 1.906020 
# 
# From -- ./inp_files/15858.got.cif
#   From: 2010.05.17/outbox.cif.g08.bks.cpg/sg24_8_cif.got.tgz:15858.got - 2010.06.04 00:33:39.
