data_PCOD9334287
_publ_section_title
;
Structure prediction by ZEFSAII (Michael W. Deem and Ramdas Pophale) SiO2 
 PCOD9334287
Probable space group: I 21 21 21
;
_chemical_formula_sum "Si O2"
_cell_formula_units_Z 48
_cell_length_a 33.079174
_cell_length_b 7.381206
_cell_length_c 8.133239
_cell_angle_alpha 90.000000
_cell_angle_beta 90.000000
_cell_angle_gamma 90.000000
_cell_volume 1985.845774
_symmetry_space_group_name_H-M "I 21 21 21"
_symmetry_group_IT_number 24
_symmetry_cell_setting 'orthorhombic'
loop_
_space_group_symop_operation_xyz
x,y,z
-x,1/2-y,z
x,-y,1/2-z
1/2-x,y,-z
1/2+x,1/2+y,1/2+z
1/2-x,-y,1/2+z
1/2+x,1/2-y,-z
-x,1/2+y,1/2-z
loop_
_atom_site_type_symbol
_atom_site_label
_atom_site_fract_x
_atom_site_fract_y
_atom_site_fract_z
Si Si1 0.026170 0.494218 0.445736
Si Si2 0.140364 0.255321 0.456917
Si Si3 0.605521 0.097551 0.071726
Si Si4 0.309033 0.000000 0.750000
Si Si5 0.679954 0.287793 0.211954
Si Si6 0.441334 0.917399 0.937070
Si Si7 0.250000 0.813101 0.500000
O O1 0.021839 0.500000 0.250000
O O2 0.060047 0.632289 0.511829
O O3 0.043002 0.289925 0.463056
O O4 0.980678 0.517295 0.512736
O O5 0.121269 0.452410 0.438475
O O6 0.163598 0.166916 0.307184
O O7 0.170347 0.288160 0.608888
O O8 0.104369 0.112041 0.502231
O O9 0.640175 0.244887 0.102754
O O10 0.601052 0.000000 0.250000
O O11 0.280662 0.936461 0.602955
O O12 0.685494 0.500000 0.250000
O O13 0.720050 0.212807 0.125099
O O14 0.436526 0.000000 0.750000
#
# Coordination Sequence:
#
# PCOD9334287 Si02
#       7
#     8   8   8   4   8   8   4
#     4   9  18  32  56  85 127 167 215 271 313 376
#     4  10  20  37  62  91 125 172 217 266 332 403
#     4   9  21  39  59  87 129 172 211 268 336 388
#     4  12  20  38  64  90 126 168 216 272 336 396
#     4  11  22  41  63  88 121 164 216 274 335 403
#     4   9  17  32  55  89 124 169 216 260 319 385
#     4  12  24  40  62  94 120 160 218 274 336 412
#
# _framework density 24.171061999999999
#
# number of rings (size 3 to 8) (size 9 to 14) (size 15 to 20)
#    0.000    2.000    3.333    0.000    0.000    4.000 
#    0.000    6.667    0.000   16.000    0.000    0.000 
#    0.000    0.000    0.000    0.000    0.000    0.000 
#
# Total GULP energy -133765.968296 kJ/mol
# GULP energy per Si atom -5573.582012 kJ/mol
# Density = 2.411605 g / cm^3
# Si number density = 24.171062 Si / 1000 Ang^3
#
#
#
# Elastic Constant Matrix: (Units=GPa)
#
#
# Indices 1 2 3 4 5 6 
#
# 1 162.2456 51.9488 50.3833 0.0000 0.0000 0.0000
# 2 51.9488 72.0708 19.3352 0.0000 0.0000 0.0000
# 3 50.3833 19.3352 79.8182 0.0000 0.0000 0.0000
# 4 0.0000 0.0000 0.0000 31.1015 0.0000 0.0000
# 5 0.0000 0.0000 0.0000 0.0000 175.1987 0.0000
# 6 0.0000 0.0000 0.0000 0.0000 0.0000 27.6580
#
#
#
# Elastic Compliance Matrix: (Units=1/GPa)
#
#
# Indices 1 2 3 4 5 6 
#
# 1 0.009346 -0.005512 -0.004564 0.000000 0.000000 0.000000
# 2 -0.005512 0.018091 -0.000903 0.000000 0.000000 0.000000
# 3 -0.004564 -0.000903 0.015628 0.000000 0.000000 0.000000
# 4 0.000000 0.000000 0.000000 0.032153 0.000000 0.000000
# 5 0.000000 0.000000 0.000000 0.000000 0.005708 0.000000
# 6 0.000000 0.000000 0.000000 0.000000 0.000000 0.036156
#
#
# Mechanical properties :
#
#
# Convention : Reuss Voigt Hill
#
# Bulk Modulus (GPa) = 47.37889 61.94103 54.65996
# Shear Modulus (GPa) = 34.22922 59.62278 46.92600
#
# Velocity S-wave (km/s) = 3.76722 4.97198 4.41093
# Velocity P-wave (km/s) = 6.21021 7.65784 6.97170
#
# Compressibility (1/GPa) = 0.02110644
#
# Stress axis : x y z
#
# Youngs Moduli (GPa) = 107.00193 55.27758 63.98727
#
# Poissons Ratio (x) = 0.30469 0.29204
# Poissons Ratio (y) = 0.58979 0.05778
# Poissons Ratio (z) = 0.48835 0.04992
#
# Static dielectric constant tensor:
#      x y z
#    x 2.002220 0.000000 0.000000 
#    y 0.000000 1.906630 0.000000 
#    z 0.000000 0.000000 1.957090 
# 
# From -- ./inp_files/16880.got.cif
#   From: 2010.05.17/outbox.cif.g08.bks.cpg/sg24_9_cif.got.tgz:16880.got - 2010.06.04 00:33:39.
