data_PCOD9334645
_publ_section_title
;
Structure prediction by ZEFSAII (Michael W. Deem and Ramdas Pophale) SiO2 
 PCOD9334645
Probable space group: I 21 21 21
;
_chemical_formula_sum "Si O2"
_cell_formula_units_Z 56
_cell_length_a 9.068211
_cell_length_b 18.428028
_cell_length_c 17.290057
_cell_angle_alpha 90.000000
_cell_angle_beta 90.000000
_cell_angle_gamma 90.000000
_cell_volume 2889.328392
_symmetry_space_group_name_H-M "I 21 21 21"
_symmetry_group_IT_number 24
_symmetry_cell_setting 'orthorhombic'
loop_
_space_group_symop_operation_xyz
x,y,z
-x,1/2-y,z
x,-y,1/2-z
1/2-x,y,-z
1/2+x,1/2+y,1/2+z
1/2-x,-y,1/2+z
1/2+x,1/2-y,-z
-x,1/2+y,1/2-z
loop_
_atom_site_type_symbol
_atom_site_label
_atom_site_fract_x
_atom_site_fract_y
_atom_site_fract_z
Si Si1 0.477839 0.467344 0.057035
Si Si2 0.859261 0.648865 0.864346
Si Si3 0.250000 0.948095 0.000000
Si Si4 0.769022 0.223540 0.839302
Si Si5 0.676965 0.115975 0.418897
Si Si6 0.933767 0.632345 0.691703
Si Si7 0.750000 0.851045 0.500000
Si Si8 0.653598 0.217958 0.678925
O O1 0.363717 0.530997 0.079727
O O2 0.552488 0.434878 0.134117
O O3 0.389411 0.402673 0.016626
O O4 0.603409 0.503118 0.004032
O O5 0.761539 0.601590 0.923282
O O6 0.891235 0.614413 0.779809
O O7 0.779055 0.724171 0.845835
O O8 0.019368 0.654134 0.904226
O O9 0.820160 0.307091 0.839524
O O10 0.725728 0.196734 0.923739
O O11 0.652009 0.213322 0.771469
O O12 0.909311 0.174741 0.811445
O O13 0.750000 0.136342 0.500000
O O14 0.793849 0.141890 0.355584
O O15 0.500000 0.250000 0.649750
#
# Coordination Sequence:
#
# PCOD9334645 Si02
#       8
#     8   8   4   8   8   8   4   8
#     4  10  22  41  63  94 128 162 214 257 316 392
#     4  10  22  42  64  86 129 163 219 260 317 377
#     4  10  24  37  57  94 124 166 206 266 312 378
#     4   9  19  40  63  97 119 155 215 260 322 378
#     4  11  23  38  63  89 124 167 213 256 308 382
#     4   9  18  40  69  88 116 169 214 253 309 396
#     4  10  20  41  69  90 124 166 204 272 320 380
#     4  11  24  39  62  94 129 162 210 270 319 372
#
# _framework density 19.381667
#
# number of rings (size 3 to 8) (size 9 to 14) (size 15 to 20)
#    0.000    2.000    2.143    0.429    5.000    2.857 
#   10.286    0.000    0.000    0.000    0.000    0.000 
#    0.000    0.000    0.000    0.000    0.000    0.000 
#
# Total GULP energy -156241.409603 kJ/mol
# GULP energy per Si atom -5580.050343 kJ/mol
# Density = 1.933755 g / cm^3
# Si number density = 19.381667 Si / 1000 Ang^3
#
#
#
# Elastic Constant Matrix: (Units=GPa)
#
#
# Indices 1 2 3 4 5 6 
#
# 1 61.7063 41.3456 57.5681 0.0000 0.0000 0.0000
# 2 41.3456 59.4112 64.2387 0.0000 0.0000 0.0000
# 3 57.5681 64.2387 162.9108 0.0000 0.0000 0.0000
# 4 0.0000 0.0000 0.0000 15.3085 0.0000 0.0000
# 5 0.0000 0.0000 0.0000 0.0000 33.3195 0.0000
# 6 0.0000 0.0000 0.0000 0.0000 0.0000 16.2056
#
#
#
# Elastic Compliance Matrix: (Units=1/GPa)
#
#
# Indices 1 2 3 4 5 6 
#
# 1 0.032090 -0.017556 -0.004417 0.000000 0.000000 0.000000
# 2 -0.017556 0.038947 -0.009154 0.000000 0.000000 0.000000
# 3 -0.004417 -0.009154 0.011309 0.000000 0.000000 0.000000
# 4 0.000000 0.000000 0.000000 0.065323 0.000000 0.000000
# 5 0.000000 0.000000 0.000000 0.000000 0.030012 0.000000
# 6 0.000000 0.000000 0.000000 0.000000 0.000000 0.061707
#
#
# Mechanical properties :
#
#
# Convention : Reuss Voigt Hill
#
# Bulk Modulus (GPa) = 49.77127 67.81476 58.79301
# Shear Modulus (GPa) = 16.21590 21.02510 18.62050
#
# Velocity S-wave (km/s) = 2.89565 3.29719 3.10292
# Velocity P-wave (km/s) = 6.07577 7.03991 6.57554
#
# Compressibility (1/GPa) = 0.02009191
#
# Stress axis : x y z
#
# Youngs Moduli (GPa) = 31.16247 25.67589 88.42833
#
# Poissons Ratio (x) = 0.45077 0.39058
# Poissons Ratio (y) = 0.54710 0.80944
# Poissons Ratio (z) = 0.13764 0.23503
#
# Static dielectric constant tensor:
#      x y z
#    x 1.682480 0.000000 0.000000 
#    y 0.000000 1.685350 0.000000 
#    z 0.000000 0.000000 1.674890 
# 
# From -- ./inp_files/32927.got.cif
#   From: 2010.05.17/outbox.cif.g08.bks.cpg/sg24_17_cif.got.tgz:32927.got - 2010.06.04 00:33:39.
