data_PCOD9334636
_publ_section_title
;
Structure prediction by ZEFSAII (Michael W. Deem and Ramdas Pophale) SiO2 
 PCOD9334636
Probable space group: I 21 21 21
;
_chemical_formula_sum "Si O2"
_cell_formula_units_Z 52
_cell_length_a 7.683479
_cell_length_b 27.211271
_cell_length_c 11.257122
_cell_angle_alpha 90.000000
_cell_angle_beta 90.000000
_cell_angle_gamma 90.000000
_cell_volume 2353.607878
_symmetry_space_group_name_H-M "I 21 21 21"
_symmetry_group_IT_number 24
_symmetry_cell_setting 'orthorhombic'
loop_
_space_group_symop_operation_xyz
x,y,z
-x,1/2-y,z
x,-y,1/2-z
1/2-x,y,-z
1/2+x,1/2+y,1/2+z
1/2-x,-y,1/2+z
1/2+x,1/2-y,-z
-x,1/2+y,1/2-z
loop_
_atom_site_type_symbol
_atom_site_label
_atom_site_fract_x
_atom_site_fract_y
_atom_site_fract_z
Si Si1 0.557998 0.890787 0.484398
Si Si2 0.750000 0.312308 0.000000
Si Si3 0.937863 0.558358 0.749811
Si Si4 0.962253 0.398743 0.501522
Si Si5 0.462482 0.905461 0.737134
Si Si6 0.606505 0.296016 0.763724
Si Si7 0.895896 0.296029 0.588327
O O1 0.750000 0.869366 0.500000
O O2 0.409658 0.849185 0.471824
O O3 0.542749 0.922336 0.364237
O O4 0.525639 0.922203 0.606266
O O5 0.682872 0.280802 0.890564
O O6 0.926851 0.500000 0.750000
O O7 0.016286 0.575129 0.876837
O O8 0.741212 0.579621 0.738007
O O9 0.750000 0.402380 0.500000
O O10 0.025041 0.417347 0.372249
O O11 0.994581 0.340355 0.523486
O O12 0.498717 0.846597 0.727690
O O13 0.500000 0.250000 0.713058
O O14 0.775827 0.314890 0.693401
O O15 0.750000 0.275591 0.500000
O O16 0.000000 0.250000 0.632886
#
# Coordination Sequence:
#
# PCOD9334636 Si02
#       7
#     8   4   8   8   8   8   8
#     4  11  22  43  72  96 135 184 226 284 358 420
#     4  10  22  48  66  88 136 184 230 286 338 424
#     4  11  21  41  71 102 132 177 233 288 354 423
#     4   9  18  37  61  89 131 171 221 284 334 405
#     4  10  20  41  65  94 134 180 227 281 344 422
#     4  11  21  40  62  89 133 172 224 279 338 402
#     4  11  20  35  58  87 125 169 215 268 336 402
#
# _framework density 22.093738999999999
#
# number of rings (size 3 to 8) (size 9 to 14) (size 15 to 20)
#    0.000    1.538    7.692    0.462    0.000    4.308 
#   16.615    3.077    0.000    0.000    0.000    0.000 
#    0.000    0.000    0.000    0.000    0.000    0.000 
#
# Total GULP energy -144799.828011 kJ/mol
# GULP energy per Si atom -5569.224154 kJ/mol
# Density = 2.204345 g / cm^3
# Si number density = 22.093739 Si / 1000 Ang^3
#
#
#
# Elastic Constant Matrix: (Units=GPa)
#
#
# Indices 1 2 3 4 5 6 
#
# 1 66.5793 20.1496 9.9182 0.0000 0.0000 0.0000
# 2 20.1496 69.9476 11.4864 0.0001 0.0000 0.0000
# 3 9.9182 11.4864 179.6178 -0.0011 0.0003 0.0001
# 4 0.0000 0.0001 -0.0011 31.6541 0.0003 0.0000
# 5 0.0000 0.0000 0.0003 0.0003 9.2814 0.0000
# 6 0.0000 0.0000 0.0001 0.0000 0.0000 8.5205
#
#
#
# Elastic Compliance Matrix: (Units=1/GPa)
#
#
# Indices 1 2 3 4 5 6 
#
# 1 0.016521 -0.004658 -0.000614 0.000000 0.000000 0.000000
# 2 -0.004658 0.015762 -0.000751 0.000000 0.000000 0.000000
# 3 -0.000614 -0.000751 0.005649 0.000000 0.000000 0.000000
# 4 0.000000 0.000000 0.000000 0.031591 -0.000001 0.000000
# 5 0.000000 0.000000 0.000000 -0.000001 0.107742 0.000000
# 6 0.000000 0.000000 0.000000 0.000000 0.000000 0.117364
#
#
# Mechanical properties :
#
#
# Convention : Reuss Voigt Hill
#
# Bulk Modulus (GPa) = 38.63214 44.36144 41.49679
# Shear Modulus (GPa) = 15.85768 28.19724 22.02746
#
# Velocity S-wave (km/s) = 2.68198 3.57635 3.16096
# Velocity P-wave (km/s) = 5.20713 6.09721 5.66967
#
# Compressibility (1/GPa) = 0.02588518
#
# Stress axis : x y z
#
# Youngs Moduli (GPa) = 60.52913 63.44543 177.01277
#
# Poissons Ratio (x) = 0.29554 0.10875
# Poissons Ratio (y) = 0.28196 0.13289
# Poissons Ratio (z) = 0.03719 0.04763
#
# Static dielectric constant tensor:
#      x y z
#    x 1.824920 0.000000 0.000000 
#    y 0.000000 1.750160 0.000000 
#    z 0.000000 0.000000 2.012030 
# 
# From -- ./inp_files/18772.got.cif
#   From: 2010.05.17/outbox.cif.g08.bks.cpg/sg24_10_cif.got.tgz:18772.got - 2010.06.04 00:33:39.
