data_PCOD9334314
_publ_section_title
;
Structure prediction by ZEFSAII (Michael W. Deem and Ramdas Pophale) SiO2 
 PCOD9334314
Probable space group: I 21 21 21
;
_chemical_formula_sum "Si O2"
_cell_formula_units_Z 48
_cell_length_a 9.370030
_cell_length_b 25.163697
_cell_length_c 9.169535
_cell_angle_alpha 90.000000
_cell_angle_beta 90.000000
_cell_angle_gamma 90.000000
_cell_volume 2162.035104
_symmetry_space_group_name_H-M "I 21 21 21"
_symmetry_group_IT_number 24
_symmetry_cell_setting 'orthorhombic'
loop_
_space_group_symop_operation_xyz
x,y,z
-x,1/2-y,z
x,-y,1/2-z
1/2-x,y,-z
1/2+x,1/2+y,1/2+z
1/2-x,-y,1/2+z
1/2+x,1/2-y,-z
-x,1/2+y,1/2-z
loop_
_atom_site_type_symbol
_atom_site_label
_atom_site_fract_x
_atom_site_fract_y
_atom_site_fract_z
Si Si1 0.899385 0.506589 0.076242
Si Si2 0.382122 0.544202 0.381739
Si Si3 0.898590 0.300890 0.427334
Si Si4 0.162666 0.234917 0.139831
Si Si5 0.255992 0.650483 0.326576
Si Si6 0.594748 0.892207 0.928150
O O1 0.879411 0.500000 0.250000
O O2 0.017269 0.552534 0.060881
O O3 0.750000 0.520191 0.000000
O O4 0.975233 0.461042 0.978890
O O5 0.373178 0.500000 0.250000
O O6 0.250000 0.538720 0.500000
O O7 0.372618 0.603250 0.309990
O O8 0.750000 0.290266 0.500000
O O9 0.855666 0.310172 0.259551
O O10 0.000000 0.250000 0.428375
O O11 0.989041 0.348438 0.492865
O O12 0.243801 0.286605 0.212778
O O13 0.000000 0.250000 0.097262
O O14 0.250000 0.218615 0.000000
O O15 0.250000 0.655098 0.500000
O O16 0.125296 0.624386 0.239134
O O17 0.750000 0.890627 0.000000
#
# Coordination Sequence:
#
# PCOD9334314 Si02
#       6
#     8   8   8   8   8   8
#     4  12  26  45  69  98 143 181 224 289 351 420
#     4  11  21  39  66 101 132 175 230 276 337 413
#     4  11  23  43  65  97 136 174 225 281 343 406
#     4  10  21  41  65  94 132 174 224 278 336 398
#     4  10  20  37  66  93 128 169 222 272 328 398
#     4  12  24  43  71 101 132 178 228 285 343 415
#
# _framework density 22.201305999999999
#
# number of rings (size 3 to 8) (size 9 to 14) (size 15 to 20)
#    0.000    1.000    3.333    6.500    0.000    0.667 
#    3.000    0.833    3.667    0.000    0.000    0.000 
#    0.000    0.000    0.000    0.000    0.000    0.000 
#
# Total GULP energy -133795.616376 kJ/mol
# GULP energy per Si atom -5574.817349 kJ/mol
# Density = 2.215077 g / cm^3
# Si number density = 22.201306 Si / 1000 Ang^3
#
#
#
# Elastic Constant Matrix: (Units=GPa)
#
#
# Indices 1 2 3 4 5 6 
#
# 1 118.5708 15.3642 72.3656 0.2054 0.0011 0.0002
# 2 15.3642 77.2803 16.3830 0.1248 0.0007 0.0000
# 3 72.3656 16.3830 112.3055 -1.7783 -0.0076 -0.0013
# 4 0.2054 0.1248 -1.7783 4676.5218 -0.3785 -0.1013
# 5 0.0011 0.0007 -0.0076 -0.3785 41.1840 -0.0003
# 6 0.0002 0.0000 -0.0013 -0.1013 -0.0003 30.8181
#
#
#
# Elastic Compliance Matrix: (Units=1/GPa)
#
#
# Indices 1 2 3 4 5 6 
#
# 1 0.013960 -0.000896 -0.008865 -0.000004 -0.000002 0.000000
# 2 -0.000896 0.013410 -0.001379 -0.000001 0.000000 0.000000
# 3 -0.008865 -0.001379 0.014818 0.000006 0.000003 0.000001
# 4 -0.000004 -0.000001 0.000006 0.000214 0.000002 0.000001
# 5 -0.000002 0.000000 0.000003 0.000002 0.024281 0.000000
# 6 0.000000 0.000000 0.000001 0.000001 0.000000 0.032449
#
#
# Mechanical properties :
#
#
# Convention : Reuss Voigt Hill
#
# Bulk Modulus (GPa) = 50.22937 57.37580 53.80258
# Shear Modulus (GPa) = 39.04792 963.30770 501.17781
#
# Velocity S-wave (km/s) = 4.19837 20.85279 15.04103
# Velocity P-wave (km/s) = 6.79525 24.61066 18.05353
#
# Compressibility (1/GPa) = 0.01990867
#
# Stress axis : x y z
#
# Youngs Moduli (GPa) = 71.63197 74.56911 67.48690
#
# Poissons Ratio (x) = 0.06683 0.59826
# Poissons Ratio (y) = 0.06419 0.09305
# Poissons Ratio (z) = 0.63500 0.10282
#
# Static dielectric constant tensor:
#      x y z
#    x -7.669900 -0.000900 -0.000120 
#    y -0.000900 1.922900 0.000000 
#    z -0.000120 0.000000 1.870130 
# 
# From -- ./inp_files/9716.got.cif
#   From: 2010.05.17/outbox.cif.g08.bks.cpg/sg24_5_cif.got.tgz:9716.got - 2010.06.04 00:33:39.
