data_PCOD9334272
_publ_section_title
;
Structure prediction by ZEFSAII (Michael W. Deem and Ramdas Pophale) SiO2 
 PCOD9334272
Probable space group: I 21 21 21
;
_chemical_formula_sum "Si O2"
_cell_formula_units_Z 48
_cell_length_a 9.909748
_cell_length_b 29.313489
_cell_length_c 8.549823
_cell_angle_alpha 90.000000
_cell_angle_beta 90.000000
_cell_angle_gamma 90.000000
_cell_volume 2483.632004
_symmetry_space_group_name_H-M "I 21 21 21"
_symmetry_group_IT_number 24
_symmetry_cell_setting 'orthorhombic'
loop_
_space_group_symop_operation_xyz
x,y,z
-x,1/2-y,z
x,-y,1/2-z
1/2-x,y,-z
1/2+x,1/2+y,1/2+z
1/2-x,-y,1/2+z
1/2+x,1/2-y,-z
-x,1/2+y,1/2-z
loop_
_atom_site_type_symbol
_atom_site_label
_atom_site_fract_x
_atom_site_fract_y
_atom_site_fract_z
Si Si1 0.878703 0.560251 0.584264
Si Si2 0.330838 0.456768 0.158855
Si Si3 0.290370 0.135019 0.321105
Si Si4 0.246910 0.636803 0.186977
Si Si5 0.530431 0.645907 0.628265
Si Si6 0.477061 0.696761 0.312552
O O1 0.750000 0.537592 0.500000
O O2 0.827496 0.587052 0.738007
O O3 0.013210 0.532694 0.619318
O O4 0.931524 0.600130 0.467667
O O5 0.272290 0.500000 0.250000
O O6 0.317677 0.410330 0.257557
O O7 0.250000 0.449051 0.000000
O O8 0.250000 0.129357 0.500000
O O9 0.416467 0.168093 0.291205
O O10 0.163122 0.156132 0.228476
O O11 0.097414 0.637930 0.260457
O O12 0.331491 0.678325 0.260633
O O13 0.250000 0.639292 0.000000
O O14 0.500200 0.682509 0.493288
O O15 0.500000 0.750000 0.290895
#
# Coordination Sequence:
#
# PCOD9334272 Si02
#       6
#     8   8   8   8   8   8
#     4   9  19  39  64  87 121 167 202 247 309 375
#     4  12  23  43  66  96 132 167 215 263 314 380
#     4  10  20  37  61  91 120 157 204 259 313 370
#     4  12  23  40  65  94 126 168 211 265 326 376
#     4  10  20  37  64  86 121 166 206 253 313 385
#     4  11  23  40  61  88 124 168 215 259 315 386
#
# _framework density 19.326535
#
# number of rings (size 3 to 8) (size 9 to 14) (size 15 to 20)
#    0.000    1.333    5.000    3.500    0.000    3.333 
#    0.000    3.333    0.000    0.000    0.000    0.000 
#    0.000    0.000    0.000    0.000    0.000    0.000 
#
# Total GULP energy -134039.656999 kJ/mol
# GULP energy per Si atom -5584.985708 kJ/mol
# Density = 1.928255 g / cm^3
# Si number density = 19.326535 Si / 1000 Ang^3
#
#
#
# Elastic Constant Matrix: (Units=GPa)
#
#
# Indices 1 2 3 4 5 6 
#
# 1 93.3622 -14.9279 23.9294 0.0012 -0.0042 0.0013
# 2 -14.9279 38.8266 2.2279 0.0004 0.0015 0.0010
# 3 23.9294 2.2279 128.5511 0.0007 0.0143 0.0033
# 4 0.0012 0.0004 0.0007 8.6484 0.0002 -0.0004
# 5 -0.0042 0.0015 0.0143 0.0002 26.7457 0.0011
# 6 0.0013 0.0010 0.0033 -0.0004 0.0011 1.4392
#
#
#
# Elastic Compliance Matrix: (Units=1/GPa)
#
#
# Indices 1 2 3 4 5 6 
#
# 1 0.012072 0.004775 -0.002330 -0.000002 0.000003 -0.000009
# 2 0.004775 0.027670 -0.001368 -0.000002 0.000000 -0.000021
# 3 -0.002330 -0.001368 0.008236 0.000000 -0.000005 -0.000016
# 4 -0.000002 -0.000002 0.000000 0.115628 -0.000001 0.000031
# 5 0.000003 0.000000 -0.000005 -0.000001 0.037389 -0.000030
# 6 -0.000009 -0.000021 -0.000016 0.000031 -0.000030 0.694844
#
#
# Mechanical properties :
#
#
# Convention : Reuss Voigt Hill
#
# Bulk Modulus (GPa) = 19.94760 31.46652 25.70706
# Shear Modulus (GPa) = 5.49211 24.00070 14.74641
#
# Velocity S-wave (km/s) = 1.68758 3.52782 2.76527
# Velocity P-wave (km/s) = 3.76045 5.73680 4.85035
#
# Compressibility (1/GPa) = 0.05013135
#
# Stress axis : x y z
#
# Youngs Moduli (GPa) = 82.83909 36.14032 121.41208
#
# Poissons Ratio (x) = -0.17257 0.28287
# Poissons Ratio (y) = -0.39555 0.16614
# Poissons Ratio (z) = 0.19300 0.04945
#
# Static dielectric constant tensor:
#      x y z
#    x 1.693290 0.000000 0.000000 
#    y 0.000000 1.639470 0.000000 
#    z 0.000000 0.000000 1.670780 
# 
# From -- ./inp_files/9724.got.cif
#   From: 2010.05.17/outbox.cif.g08.bks.cpg/sg24_5_cif.got.tgz:9724.got - 2010.06.04 00:33:39.
