data_PCOD9334675
_publ_section_title
;
Structure prediction by ZEFSAII (Michael W. Deem and Ramdas Pophale) SiO2 
 PCOD9334675
Probable space group: I 21 21 21
;
_chemical_formula_sum "Si O2"
_cell_formula_units_Z 56
_cell_length_a 21.489331
_cell_length_b 9.213928
_cell_length_c 13.606939
_cell_angle_alpha 90.000000
_cell_angle_beta 90.000000
_cell_angle_gamma 90.000000
_cell_volume 2694.189551
_symmetry_space_group_name_H-M "I 21 21 21"
_symmetry_group_IT_number 24
_symmetry_cell_setting 'orthorhombic'
loop_
_space_group_symop_operation_xyz
x,y,z
-x,1/2-y,z
x,-y,1/2-z
1/2-x,y,-z
1/2+x,1/2+y,1/2+z
1/2-x,-y,1/2+z
1/2+x,1/2-y,-z
-x,1/2+y,1/2-z
loop_
_atom_site_type_symbol
_atom_site_label
_atom_site_fract_x
_atom_site_fract_y
_atom_site_fract_z
Si Si1 0.750000 0.624371 0.500000
Si Si2 0.119295 0.489322 0.950038
Si Si3 0.738534 0.114110 0.142446
Si Si4 0.354133 0.500000 0.750000
Si Si5 0.131174 0.071640 0.521652
Si Si6 0.360011 0.710226 0.198596
Si Si7 0.930843 0.693532 0.613765
Si Si8 0.928207 0.201799 0.381823
O O1 0.747025 0.730587 0.407452
O O2 0.810465 0.526218 0.495997
O O3 0.193957 0.480281 0.929808
O O4 0.101293 0.577433 0.850326
O O5 0.101094 0.321355 0.950055
O O6 0.086373 0.575247 0.037491
O O7 0.700241 0.149651 0.243239
O O8 0.805461 0.046223 0.164995
O O9 0.396815 0.633695 0.784889
O O10 0.151522 0.184371 0.606766
O O11 0.107050 0.160942 0.428613
O O12 0.079012 0.962539 0.565085
O O13 0.397614 0.797406 0.280921
O O14 0.000000 0.750000 0.624800
O O15 0.000000 0.250000 0.371368
#
# Coordination Sequence:
#
# PCOD9334675 Si02
#       8
#     4   8   8   4   8   8   8   8
#     4  12  24  38  66 100 138 168 222 278 356 414
#     4  10  20  42  69  93 136 175 226 288 338 425
#     4  11  21  41  66 106 131 177 229 284 354 418
#     4  12  26  46  76  98 132 190 238 300 346 420
#     4  11  25  41  65 100 136 182 216 292 353 404
#     4  10  21  38  62  96 141 168 222 281 342 419
#     4  11  21  36  62  98 134 183 218 265 339 418
#     4  11  27  50  69  99 133 184 239 287 347 422
#
# _framework density 20.785471000000001
#
# number of rings (size 3 to 8) (size 9 to 14) (size 15 to 20)
#    0.000    1.143    4.286    3.429    2.000    4.571 
#    2.571    0.714    0.000    0.000    0.000    0.000 
#    0.000    0.000    0.000    0.000    0.000    0.000 
#
# Total GULP energy -156279.442925 kJ/mol
# GULP energy per Si atom -5581.408676 kJ/mol
# Density = 2.073816 g / cm^3
# Si number density = 20.785471 Si / 1000 Ang^3
#
#
#
# Elastic Constant Matrix: (Units=GPa)
#
#
# Indices 1 2 3 4 5 6 
#
# 1 138.4099 39.9390 36.9902 0.0000 0.0000 0.0000
# 2 39.9390 113.3396 24.9837 0.0000 0.0000 0.0000
# 3 36.9902 24.9837 50.3899 0.0000 0.0000 0.0000
# 4 0.0000 0.0000 0.0000 45.2135 0.0000 0.0000
# 5 0.0000 0.0000 0.0000 0.0000 13.0221 0.0000
# 6 0.0000 0.0000 0.0000 0.0000 0.0000 34.6239
#
#
#
# Elastic Compliance Matrix: (Units=1/GPa)
#
#
# Indices 1 2 3 4 5 6 
#
# 1 0.009378 -0.002006 -0.005889 0.000000 0.000000 0.000000
# 2 -0.002006 0.010335 -0.003651 0.000000 0.000000 0.000000
# 3 -0.005889 -0.003651 0.025979 0.000000 0.000000 0.000000
# 4 0.000000 0.000000 0.000000 0.022117 0.000000 0.000000
# 5 0.000000 0.000000 0.000000 0.000000 0.076792 0.000000
# 6 0.000000 0.000000 0.000000 0.000000 0.000000 0.028882
#
#
# Mechanical properties :
#
#
# Convention : Reuss Voigt Hill
#
# Bulk Modulus (GPa) = 44.25245 56.21836 50.23540
# Shear Modulus (GPa) = 24.49668 31.92034 28.20851
#
# Velocity S-wave (km/s) = 3.43672 3.92306 3.68792
# Velocity P-wave (km/s) = 6.08970 6.90117 6.50809
#
# Compressibility (1/GPa) = 0.02259762
#
# Stress axis : x y z
#
# Youngs Moduli (GPa) = 106.63495 96.75930 38.49294
#
# Poissons Ratio (x) = 0.19414 0.22670
# Poissons Ratio (y) = 0.21395 0.14055
# Poissons Ratio (z) = 0.62800 0.35330
#
# Static dielectric constant tensor:
#      x y z
#    x 1.774050 0.000000 0.000000 
#    y 0.000000 1.756890 0.000000 
#    z 0.000000 0.000000 1.798840 
# 
# From -- ./inp_files/27580.got.cif
#   From: 2010.05.17/outbox.cif.g08.bks.cpg/sg24_14_cif.got.tgz:27580.got - 2010.06.04 00:33:39.
