data_PCOD9334188
_publ_section_title
;
Structure prediction by ZEFSAII (Michael W. Deem and Ramdas Pophale) SiO2 
 PCOD9334188
Probable space group: I 21 21 21
;
_chemical_formula_sum "Si O2"
_cell_formula_units_Z 48
_cell_length_a 11.838987
_cell_length_b 8.598212
_cell_length_c 22.844108
_cell_angle_alpha 90.000000
_cell_angle_beta 90.000000
_cell_angle_gamma 90.000000
_cell_volume 2325.395873
_symmetry_space_group_name_H-M "I 21 21 21"
_symmetry_group_IT_number 24
_symmetry_cell_setting 'orthorhombic'
loop_
_space_group_symop_operation_xyz
x,y,z
-x,1/2-y,z
x,-y,1/2-z
1/2-x,y,-z
1/2+x,1/2+y,1/2+z
1/2-x,-y,1/2+z
1/2+x,1/2-y,-z
-x,1/2+y,1/2-z
loop_
_atom_site_type_symbol
_atom_site_label
_atom_site_fract_x
_atom_site_fract_y
_atom_site_fract_z
Si Si1 0.077485 0.500000 0.250000
Si Si2 0.544542 0.584340 0.128981
Si Si3 0.750000 0.655657 0.500000
Si Si4 0.191493 0.957999 0.105889
Si Si5 0.379583 0.000000 0.250000
Si Si6 0.731445 0.261620 0.806868
Si Si7 0.500000 0.750000 0.843542
Si Si8 0.609925 0.850420 0.407876
O O1 0.147060 0.636371 0.281639
O O2 0.019242 0.398646 0.301082
O O3 0.500000 0.750000 0.145480
O O4 0.673991 0.583396 0.107167
O O5 0.549898 0.494902 0.190898
O O6 0.449297 0.516381 0.085697
O O7 0.678098 0.546194 0.543825
O O8 0.672335 0.769005 0.461455
O O9 0.107693 0.813578 0.118618
O O10 0.180727 0.093993 0.155512
O O11 0.300234 0.152576 0.245136
O O12 0.809542 0.168032 0.852322
O O13 0.500000 0.750000 0.395515
#
# Coordination Sequence:
#
# PCOD9334188 Si02
#       8
#     4   8   4   8   4   8   4   8
#     4  12  24  42  68  96 146 176 224 270 340 422
#     4  11  24  39  66 101 143 171 220 283 338 410
#     4  10  22  48  74  90 132 174 234 292 342 390
#     4  10  23  49  66  96 138 176 235 288 330 406
#     4  10  20  36  60  96 144 182 204 266 342 394
#     4  10  22  38  65  97 135 178 227 270 330 413
#     4  12  26  44  68 104 138 186 222 276 344 414
#     4  11  21  44  67  99 127 177 229 281 338 413
#
# _framework density 20.641646999999999
#
# number of rings (size 3 to 8) (size 9 to 14) (size 15 to 20)
#    0.000    1.333    5.000    3.000    7.000    0.667 
#    7.500    0.833    0.000    0.000    0.000    0.000 
#    0.000    0.000    0.000    0.000    0.000    0.000 
#
# Total GULP energy -133739.993192 kJ/mol
# GULP energy per Si atom -5572.499716 kJ/mol
# Density = 2.059467 g / cm^3
# Si number density = 20.641647 Si / 1000 Ang^3
#
#
#
# Elastic Constant Matrix: (Units=GPa)
#
#
# Indices 1 2 3 4 5 6 
#
# 1 104.0372 49.5823 47.9018 0.0000 0.0000 0.0000
# 2 49.5823 80.7534 15.3391 0.0000 0.0000 0.0000
# 3 47.9018 15.3391 85.6664 0.0000 0.0000 0.0000
# 4 0.0000 0.0000 0.0000 17.5875 0.0000 0.0000
# 5 0.0000 0.0000 0.0000 0.0000 30.2306 0.0000
# 6 0.0000 0.0000 0.0000 0.0000 0.0000 -16.0757
#
#
#
# Elastic Compliance Matrix: (Units=1/GPa)
#
#
# Indices 1 2 3 4 5 6 
#
# 1 0.017954 -0.009438 -0.008350 0.000000 0.000000 0.000000
# 2 -0.009438 0.017781 0.002094 0.000000 0.000000 0.000000
# 3 -0.008350 0.002094 0.015967 0.000000 0.000000 0.000000
# 4 0.000000 0.000000 0.000000 0.056858 0.000000 0.000000
# 5 0.000000 0.000000 0.000000 0.000000 0.033079 0.000000
# 6 0.000000 0.000000 0.000000 0.000000 0.000000 -0.062206
#
#
# Mechanical properties :
#
#
# Convention : Reuss Voigt Hill
#
# Bulk Modulus (GPa) = 49.22625 55.12260 52.17442
# Shear Modulus (GPa) = 42.51967 16.85740 29.68853
#
# Velocity S-wave (km/s) = 4.54353 2.86084 3.79658
# Velocity P-wave (km/s) = 7.17110 6.13800 6.67457
#
# Compressibility (1/GPa) = 0.02031436
#
# Stress axis : x y z
#
# Youngs Moduli (GPa) = 55.69721 56.24137 62.62883
#
# Poissons Ratio (x) = 0.53080 0.52292
# Poissons Ratio (y) = 0.52566 -0.13112
# Poissons Ratio (z) = 0.46504 -0.11775
#
# Static dielectric constant tensor:
#      x y z
#    x 1.742160 0.000000 0.000000 
#    y 0.000000 1.556750 0.000000 
#    z 0.000000 0.000000 1.763760 
# 
# From -- ./inp_files/35577.got.cif
#   From: 2010.05.17/outbox.cif.g08.bks.cpg/sg24_18_cif.got.tgz:35577.got - 2010.06.04 00:33:39.
