data_PCOD9334112
_publ_section_title
;
Structure prediction by ZEFSAII (Michael W. Deem and Ramdas Pophale) SiO2 
 PCOD9334112
Probable space group: I 21 21 21
;
_chemical_formula_sum "Si O2"
_cell_formula_units_Z 56
_cell_length_a 11.715803
_cell_length_b 20.473618
_cell_length_c 11.635443
_cell_angle_alpha 90.000000
_cell_angle_beta 90.000000
_cell_angle_gamma 90.000000
_cell_volume 2790.934083
_symmetry_space_group_name_H-M "I 21 21 21"
_symmetry_group_IT_number 24
_symmetry_cell_setting 'orthorhombic'
loop_
_space_group_symop_operation_xyz
x,y,z
-x,1/2-y,z
x,-y,1/2-z
1/2-x,y,-z
1/2+x,1/2+y,1/2+z
1/2-x,-y,1/2+z
1/2+x,1/2-y,-z
-x,1/2+y,1/2-z
loop_
_atom_site_type_symbol
_atom_site_label
_atom_site_fract_x
_atom_site_fract_y
_atom_site_fract_z
Si Si1 0.871568 0.500000 0.750000
Si Si2 0.250000 0.437701 0.000000
Si Si3 0.493774 0.067527 0.673625
Si Si4 0.930379 0.330710 0.042024
Si Si5 0.998130 0.974078 0.529540
Si Si6 0.346643 0.341304 0.813067
Si Si7 0.245267 0.118745 0.363350
Si Si8 0.295768 0.787095 0.325443
O O1 0.796479 0.549940 0.822506
O O2 0.950917 0.531770 0.655102
O O3 0.137961 0.475817 0.966381
O O4 0.285277 0.392794 0.894628
O O5 0.598047 0.115313 0.710169
O O6 0.383844 0.113744 0.683228
O O7 0.498323 0.000000 0.750000
O O8 0.476437 0.037723 0.546159
O O9 0.898791 0.298233 0.917299
O O10 0.952953 0.408636 0.029780
O O11 0.814512 0.318669 0.111454
O O12 0.047302 0.312228 0.110436
O O13 0.252388 0.284959 0.794659
O O14 0.250000 0.127904 0.500000
O O15 0.312896 0.173657 0.292236
#
# Coordination Sequence:
#
# PCOD9334112 Si02
#       8
#     4   4   8   8   8   8   8   8
#     4  12  24  38  64  98 136 162 210 282 338 394
#     4  10  22  40  66  94 124 166 222 260 334 394
#     4  12  21  38  65  94 132 163 216 265 332 403
#     4  10  20  35  62  95 128 158 208 275 331 379
#     4  11  23  39  62  97 130 169 210 274 335 392
#     4  11  23  39  65  98 127 177 218 276 326 404
#     4  12  24  37  66  97 130 174 214 267 339 409
#     4  11  22  38  62  94 130 168 215 265 329 395
#
# _framework density 20.064966999999999
#
# number of rings (size 3 to 8) (size 9 to 14) (size 15 to 20)
#    0.000    0.857    7.857    1.286    0.000    2.286 
#    0.000    0.000    4.714    0.000    0.000    0.000 
#    0.000    0.000    0.000    0.000    0.000    0.000 
#
# Total GULP energy -155988.795000 kJ/mol
# GULP energy per Si atom -5571.028393 kJ/mol
# Density = 2.001930 g / cm^3
# Si number density = 20.064967 Si / 1000 Ang^3
#
#
#
# Elastic Constant Matrix: (Units=GPa)
#
#
# Indices 1 2 3 4 5 6 
#
# 1 41.4504 4.5377 -4.1813 -0.0001 0.0000 0.0001
# 2 4.5377 54.1922 25.7199 -0.0003 0.0000 0.0001
# 3 -4.1813 25.7199 96.1375 -0.0001 0.0000 -0.0003
# 4 -0.0001 -0.0003 -0.0001 50.1335 0.0000 0.0005
# 5 0.0000 0.0000 0.0000 0.0000 19.9225 0.0001
# 6 0.0001 0.0001 -0.0003 0.0005 0.0001 13.2349
#
#
#
# Elastic Compliance Matrix: (Units=1/GPa)
#
#
# Indices 1 2 3 4 5 6 
#
# 1 0.024635 -0.002945 0.001859 0.000000 0.000000 0.000000
# 2 -0.002945 0.021489 -0.005877 0.000000 0.000000 0.000000
# 3 0.001859 -0.005877 0.012055 0.000000 0.000000 0.000000
# 4 0.000000 0.000000 0.000000 0.019947 0.000000 -0.000001
# 5 0.000000 0.000000 0.000000 0.000000 0.050195 0.000000
# 6 0.000000 0.000000 0.000000 -0.000001 0.000000 0.075558
#
#
# Mechanical properties :
#
#
# Convention : Reuss Voigt Hill
#
# Bulk Modulus (GPa) = 22.59728 27.10363 24.85045
# Shear Modulus (GPa) = 21.50033 27.70509 24.60271
#
# Velocity S-wave (km/s) = 3.27698 3.71990 3.50544
# Velocity P-wave (km/s) = 5.06011 5.65575 5.36620
#
# Compressibility (1/GPa) = 0.04425311
#
# Stress axis : x y z
#
# Youngs Moduli (GPa) = 40.59230 46.53606 82.95351
#
# Poissons Ratio (x) = 0.13706 -0.15424
# Poissons Ratio (y) = 0.11955 0.48752
# Poissons Ratio (z) = -0.07548 0.27349
#
# Static dielectric constant tensor:
#      x y z
#    x 1.575210 0.000000 0.000000 
#    y 0.000000 1.834010 0.000000 
#    z 0.000000 0.000000 1.753610 
# 
# From -- ./inp_files/19951.got.cif
#   From: 2010.05.17/outbox.cif.g08.bks.cpg/sg24_10_cif.got.tgz:19951.got - 2010.06.04 00:33:39.
