data_PCOD9334736
_publ_section_title
;
Structure prediction by ZEFSAII (Michael W. Deem and Ramdas Pophale) SiO2 
 PCOD9334736
Probable space group: I 21 21 21
;
_chemical_formula_sum "Si O2"
_cell_formula_units_Z 60
_cell_length_a 17.578629
_cell_length_b 12.035589
_cell_length_c 14.942358
_cell_angle_alpha 90.000000
_cell_angle_beta 90.000000
_cell_angle_gamma 90.000000
_cell_volume 3161.342038
_symmetry_space_group_name_H-M "I 21 21 21"
_symmetry_group_IT_number 24
_symmetry_cell_setting 'orthorhombic'
loop_
_space_group_symop_operation_xyz
x,y,z
-x,1/2-y,z
x,-y,1/2-z
1/2-x,y,-z
1/2+x,1/2+y,1/2+z
1/2-x,-y,1/2+z
1/2+x,1/2-y,-z
-x,1/2+y,1/2-z
loop_
_atom_site_type_symbol
_atom_site_label
_atom_site_fract_x
_atom_site_fract_y
_atom_site_fract_z
Si Si1 0.923897 0.596587 0.451504
Si Si2 0.276073 0.265917 0.597280
Si Si3 0.642919 0.873075 0.747254
Si Si4 0.625579 0.359597 0.342262
Si Si5 0.500000 0.750000 0.691167
Si Si6 0.566814 0.665814 0.966644
Si Si7 0.223235 0.763317 0.404986
Si Si8 0.619492 0.374955 0.145546
O O1 0.976327 0.653117 0.377422
O O2 0.942008 0.465847 0.450055
O O3 0.838669 0.638405 0.423750
O O4 0.929342 0.640634 0.554578
O O5 0.250000 0.308704 0.500000
O O6 0.301879 0.355987 0.668755
O O7 0.208434 0.194413 0.641281
O O8 0.351806 0.195291 0.576716
O O9 0.569976 0.792839 0.749127
O O10 0.686441 0.828765 0.658936
O O11 0.618247 0.000000 0.750000
O O12 0.576419 0.320323 0.426210
O O13 0.591611 0.338033 0.243680
O O14 0.632943 0.492582 0.351254
O O15 0.500000 0.750000 0.938700
O O16 0.250000 0.715468 0.500000
O O17 0.298936 0.816524 0.364415
#
# Coordination Sequence:
#
# PCOD9334736 Si02
#       8
#     8   8   8   8   4   8   8   8
#     4   9  19  35  54  82 112 148 190 232 278 342
#     4  10  21  37  56  83 116 146 181 233 292 343
#     4  11  24  38  57  83 113 149 194 236 283 349
#     4   9  17  32  55  87 110 141 186 237 285 345
#     4  10  24  40  54  80 116 152 194 230 276 340
#     4  10  21  34  56  82 116 152 189 234 293 340
#     4   9  17  34  59  84 110 143 184 238 291 343
#     4   9  15  30  59  82 110 138 180 236 288 326
#
# _framework density 18.979282000000001
#
# number of rings (size 3 to 8) (size 9 to 14) (size 15 to 20)
#    0.000    2.400    1.333    0.800    2.800    3.733 
#    1.200    0.000    0.000    0.000    3.467    0.000 
#    0.000    0.000    0.000    0.000    0.000    0.000 
#
# Total GULP energy -167107.083306 kJ/mol
# GULP energy per Si atom -5570.236110 kJ/mol
# Density = 1.893608 g / cm^3
# Si number density = 18.979282 Si / 1000 Ang^3
#
#
#
# Elastic Constant Matrix: (Units=GPa)
#
#
# Indices 1 2 3 4 5 6 
#
# 1 51.8688 27.9511 25.0919 0.0000 0.0000 0.0000
# 2 27.9511 64.6470 33.2714 0.0000 0.0000 0.0000
# 3 25.0919 33.2714 114.2860 0.0000 0.0000 0.0000
# 4 0.0000 0.0000 0.0000 15.5534 0.0000 0.0000
# 5 0.0000 0.0000 0.0000 0.0000 18.9779 0.0000
# 6 0.0000 0.0000 0.0000 0.0000 0.0000 14.7397
#
#
#
# Elastic Compliance Matrix: (Units=1/GPa)
#
#
# Indices 1 2 3 4 5 6 
#
# 1 0.025904 -0.009731 -0.002854 0.000000 0.000000 0.000000
# 2 -0.009731 0.021850 -0.004225 0.000000 0.000000 0.000000
# 3 -0.002854 -0.004225 0.010607 0.000000 0.000000 0.000000
# 4 0.000000 0.000000 0.000000 0.064295 0.000000 0.000000
# 5 0.000000 0.000000 0.000000 0.000000 0.052693 0.000000
# 6 0.000000 0.000000 0.000000 0.000000 0.000000 0.067844
#
#
# Mechanical properties :
#
#
# Convention : Reuss Voigt Hill
#
# Bulk Modulus (GPa) = 40.41904 44.82561 42.62232
# Shear Modulus (GPa) = 17.54020 19.48669 18.51344
#
# Velocity S-wave (km/s) = 3.04332 3.20775 3.12662
# Velocity P-wave (km/s) = 5.80446 6.11465 5.96157
#
# Compressibility (1/GPa) = 0.02474082
#
# Stress axis : x y z
#
# Youngs Moduli (GPa) = 38.60399 45.76613 94.28118
#
# Poissons Ratio (x) = 0.44535 0.26912
# Poissons Ratio (y) = 0.37565 0.39831
# Poissons Ratio (z) = 0.11019 0.19335
#
# Static dielectric constant tensor:
#      x y z
#    x 1.639750 0.000000 0.000000 
#    y 0.000000 1.624920 0.000000 
#    z 0.000000 0.000000 1.717840 
# 
# From -- ./inp_files/27196.got.cif
#   From: 2010.05.17/outbox.cif.g08.bks.cpg/sg24_14_cif.got.tgz:27196.got - 2010.06.04 00:33:39.
