data_PCOD9334681
_publ_section_title
;
Structure prediction by ZEFSAII (Michael W. Deem and Ramdas Pophale) SiO2 
 PCOD9334681
Probable space group: I 21 21 21
;
_chemical_formula_sum "Si O2"
_cell_formula_units_Z 28
_cell_length_a 8.538141
_cell_length_b 5.474601
_cell_length_c 26.021897
_cell_angle_alpha 90.000000
_cell_angle_beta 90.000000
_cell_angle_gamma 90.000000
_cell_volume 1216.339326
_symmetry_space_group_name_H-M "I 21 21 21"
_symmetry_group_IT_number 24
_symmetry_cell_setting 'orthorhombic'
loop_
_space_group_symop_operation_xyz
x,y,z
-x,1/2-y,z
x,-y,1/2-z
1/2-x,y,-z
1/2+x,1/2+y,1/2+z
1/2-x,-y,1/2+z
1/2+x,1/2-y,-z
-x,1/2+y,1/2-z
loop_
_atom_site_type_symbol
_atom_site_label
_atom_site_fract_x
_atom_site_fract_y
_atom_site_fract_z
Si Si1 0.500000 0.250000 0.531665
Si Si2 0.665698 0.889060 0.599163
Si Si3 0.401712 0.000000 0.250000
Si Si4 0.824799 0.156357 0.302440
Si Si5 0.250000 0.103222 0.000000
O O1 0.371960 0.362920 0.568946
O O2 0.589676 0.451386 0.500025
O O3 0.500000 0.750000 0.609238
O O4 0.750893 0.740964 0.554473
O O5 0.734440 0.975456 0.652992
O O6 0.500000 0.250000 0.236987
O O7 0.286856 0.110159 0.293779
O O8 0.000000 0.250000 0.314706
O O9 0.833591 0.000000 0.250000
#
# Coordination Sequence:
#
# PCOD9334681 Si02
#       5
#     4   8   4   8   4
#     4  10  20  42  70  98 144 190 250 312 380 454
#     4  10  22  40  73 110 143 188 257 329 377 453
#     4  12  28  50  78 110 170 208 248 328 406 468
#     4  12  24  44  84 116 146 203 270 322 384 477
#     4  10  22  40  74 102 150 198 246 328 388 452
#
# _framework density 23.019891999999999
#
# number of rings (size 3 to 8) (size 9 to 14) (size 15 to 20)
#    0.000    1.143    4.286    1.714    0.000    0.000 
#    0.000    0.000   59.714    0.000    0.000    0.000 
#    0.000    0.000    0.000    0.000    0.000    0.000 
#
# Total GULP energy -78154.976572 kJ/mol
# GULP energy per Si atom -5582.498327 kJ/mol
# Density = 2.296750 g / cm^3
# Si number density = 23.019892 Si / 1000 Ang^3
#
#
#
# Elastic Constant Matrix: (Units=GPa)
#
#
# Indices 1 2 3 4 5 6 
#
# 1 72.2368 39.3357 44.0637 0.0000 0.0000 0.0000
# 2 39.3357 134.6871 80.3547 0.0000 0.0000 0.0000
# 3 44.0637 80.3547 177.6279 0.0000 0.0000 0.0000
# 4 0.0000 0.0000 0.0000 -339.6746 0.0000 0.0000
# 5 0.0000 0.0000 0.0000 0.0000 16.9082 0.0000
# 6 0.0000 0.0000 0.0000 0.0000 0.0000 24.3328
#
#
#
# Elastic Compliance Matrix: (Units=1/GPa)
#
#
# Indices 1 2 3 4 5 6 
#
# 1 0.017398 -0.003433 -0.002763 0.000000 0.000000 0.000000
# 2 -0.003433 0.010846 -0.004055 0.000000 0.000000 0.000000
# 3 -0.002763 -0.004055 0.008150 0.000000 0.000000 0.000000
# 4 0.000000 0.000000 0.000000 -0.002944 0.000000 0.000000
# 5 0.000000 0.000000 0.000000 0.000000 0.059143 0.000000
# 6 0.000000 0.000000 0.000000 0.000000 0.000000 0.041097
#
#
# Mechanical properties :
#
#
# Convention : Reuss Voigt Hill
#
# Bulk Modulus (GPa) = 62.92333 79.11777 71.02055
# Shear Modulus (GPa) = 31.35015 -44.96688 -6.80836
#
# Velocity S-wave (km/s) = 3.69436 -4.42451 -1.72163
# Velocity P-wave (km/s) = 6.75214 2.88828 5.19295
#
# Compressibility (1/GPa) = 0.01589236
#
# Stress axis : x y z
#
# Youngs Moduli (GPa) = 57.47787 92.19602 122.70538
#
# Poissons Ratio (x) = 0.31648 0.33903
# Poissons Ratio (y) = 0.19731 0.49759
# Poissons Ratio (z) = 0.15881 0.37387
#
# Static dielectric constant tensor:
#      x y z
#    x 2.001320 0.000000 0.000000 
#    y 0.000000 1.956010 0.000000 
#    z 0.000000 0.000000 1.911570 
# 
# From -- ./inp_files/6805.got.cif
#   From: 2010.05.17/outbox.cif.g08.bks.cpg/sg24_4_cif.got.tgz:6805.got - 2010.06.04 00:33:39.
