data_PCOD9334745
_publ_section_title
;
Structure prediction by ZEFSAII (Michael W. Deem and Ramdas Pophale) SiO2 
 PCOD9334745
Probable space group: I 21 21 21
;
_chemical_formula_sum "Si O2"
_cell_formula_units_Z 44
_cell_length_a 20.065167
_cell_length_b 23.209585
_cell_length_c 5.625937
_cell_angle_alpha 90.000000
_cell_angle_beta 90.000000
_cell_angle_gamma 90.000000
_cell_volume 2620.022484
_symmetry_space_group_name_H-M "I 21 21 21"
_symmetry_group_IT_number 24
_symmetry_cell_setting 'orthorhombic'
loop_
_space_group_symop_operation_xyz
x,y,z
-x,1/2-y,z
x,-y,1/2-z
1/2-x,y,-z
1/2+x,1/2+y,1/2+z
1/2-x,-y,1/2+z
1/2+x,1/2-y,-z
-x,1/2+y,1/2-z
loop_
_atom_site_type_symbol
_atom_site_label
_atom_site_fract_x
_atom_site_fract_y
_atom_site_fract_z
Si Si1 0.123162 0.064041 0.242218
Si Si2 0.250000 0.895164 0.500000
Si Si3 0.899807 0.791870 0.486983
Si Si4 0.955651 0.663428 0.509843
Si Si5 0.155006 0.149467 0.620614
Si Si6 0.672034 0.222140 0.501474
O O1 0.187559 0.066175 0.072949
O O2 0.071011 0.112551 0.157911
O O3 0.154083 0.089938 0.480969
O O4 0.095716 0.000000 0.250000
O O5 0.216192 0.853987 0.695695
O O6 0.927384 0.726736 0.447691
O O7 0.860004 0.792262 0.740109
O O8 0.965182 0.831438 0.516629
O O9 0.860950 0.804568 0.240396
O O10 0.917194 0.652158 0.755706
O O11 0.163931 0.208330 0.477235
O O12 0.750000 0.207998 0.500000
#
# Coordination Sequence:
#
# PCOD9334745 Si02
#       6
#     8   4   8   8   8   8
#     4  11  22  34  52  72 105 145 189 232 263 307
#     4  10  22  32  48  74 102 150 188 232 262 300
#     4  10  21  35  56  78 107 146 177 223 269 328
#     4   9  21  35  51  75 101 142 190 216 271 312
#     4  10  21  35  52  72 107 145 187 229 262 318
#     4  11  21  33  56  82 111 139 178 218 273 330
#
# _framework density 16.793749999999999
#
# number of rings (size 3 to 8) (size 9 to 14) (size 15 to 20)
#    0.000    1.818    1.818    2.182   10.182    3.636 
#    0.000    0.000    0.000    0.000    0.000    0.000 
#    0.000    2.909    0.000    0.000    0.000    0.000 
#
# Total GULP energy -122502.043324 kJ/mol
# GULP energy per Si atom -5568.274697 kJ/mol
# Density = 1.675553 g / cm^3
# Si number density = 16.793750 Si / 1000 Ang^3
#
#
#
# Elastic Constant Matrix: (Units=GPa)
#
#
# Indices 1 2 3 4 5 6 
#
# 1 130.2758 35.3022 64.2670 0.0000 0.0000 0.0000
# 2 35.3022 56.4009 19.9494 0.0000 0.0000 0.0000
# 3 64.2670 19.9494 92.3520 0.0000 0.0000 0.0000
# 4 0.0000 0.0000 0.0000 8.9832 0.0000 0.0000
# 5 0.0000 0.0000 0.0000 0.0000 13.8144 0.0000
# 6 0.0000 0.0000 0.0000 0.0000 0.0000 16.9960
#
#
#
# Elastic Compliance Matrix: (Units=1/GPa)
#
#
# Indices 1 2 3 4 5 6 
#
# 1 0.013030 -0.005358 -0.007910 0.000000 0.000000 0.000000
# 2 -0.005358 0.021400 -0.000894 0.000000 0.000000 0.000000
# 3 -0.007910 -0.000894 0.016526 0.000000 0.000000 0.000000
# 4 0.000000 0.000000 0.000000 0.111319 0.000000 0.000000
# 5 0.000000 0.000000 0.000000 0.000000 0.072388 0.000000
# 6 0.000000 0.000000 0.000000 0.000000 0.000000 0.058837
#
#
# Mechanical properties :
#
#
# Convention : Reuss Voigt Hill
#
# Bulk Modulus (GPa) = 44.18609 57.56289 50.87449
# Shear Modulus (GPa) = 15.18054 18.59273 16.88663
#
# Velocity S-wave (km/s) = 3.00982 3.33095 3.17445
# Velocity P-wave (km/s) = 6.20055 7.01031 6.61783
#
# Compressibility (1/GPa) = 0.02263156
#
# Stress axis : x y z
#
# Youngs Moduli (GPa) = 76.74543 46.72879 60.51105
#
# Poissons Ratio (x) = 0.25037 0.47865
# Poissons Ratio (y) = 0.41119 0.05411
# Poissons Ratio (z) = 0.60707 0.04179
#
# Static dielectric constant tensor:
#      x y z
#    x 1.569540 0.000000 0.000000 
#    y 0.000000 1.549300 0.000000 
#    z 0.000000 0.000000 1.695430 
# 
# From -- ./inp_files/4772.got.cif
#   From: 2010.05.17/outbox.cif.g08.bks.cpg/sg24_3_cif.got.tgz:4772.got - 2010.06.04 00:33:39.
