data_PCOD9334742
_publ_section_title
;
Structure prediction by ZEFSAII (Michael W. Deem and Ramdas Pophale) SiO2 
 PCOD9334742
Probable space group: I 21 21 21
;
_chemical_formula_sum "Si O2"
_cell_formula_units_Z 32
_cell_length_a 9.917080
_cell_length_b 5.399921
_cell_length_c 24.169758
_cell_angle_alpha 90.000000
_cell_angle_beta 90.000000
_cell_angle_gamma 90.000000
_cell_volume 1294.325552
_symmetry_space_group_name_H-M "I 21 21 21"
_symmetry_group_IT_number 24
_symmetry_cell_setting 'orthorhombic'
loop_
_space_group_symop_operation_xyz
x,y,z
-x,1/2-y,z
x,-y,1/2-z
1/2-x,y,-z
1/2+x,1/2+y,1/2+z
1/2-x,-y,1/2+z
1/2+x,1/2-y,-z
-x,1/2+y,1/2-z
loop_
_atom_site_type_symbol
_atom_site_label
_atom_site_fract_x
_atom_site_fract_y
_atom_site_fract_z
Si Si1 0.500000 0.250000 0.802926
Si Si2 0.000000 0.750000 0.779657
Si Si3 0.859407 0.165343 0.952305
Si Si4 0.252983 0.500000 0.750000
Si Si5 0.000000 0.250000 0.372903
Si Si6 0.772187 0.665668 0.934182
O O1 0.359462 0.293083 0.770385
O O2 0.508543 0.499596 0.838178
O O3 0.944627 0.500000 0.750000
O O4 0.147081 0.619640 0.795004
O O5 0.817086 0.394753 0.913410
O O6 0.000000 0.250000 0.978052
O O7 0.871804 0.896075 0.925773
O O8 0.750000 0.131698 0.000000
O O9 0.132160 0.253542 0.409935
O O10 0.750000 0.625787 0.000000
#
# Coordination Sequence:
#
# PCOD9334742 Si02
#       6
#     4   4   8   4   4   8
#     4  12  27  42  80 112 153 174 265 294 363 428
#     4   8  20  38  74 105 145 176 243 259 362 454
#     4  10  21  34  63  91 115 161 232 292 344 429
#     4  10  24  44  78 114 140 204 224 292 370 466
#     4  12  27  44  66 109 148 188 238 335 345 406
#     4  10  23  39  67  86 132 179 240 279 374 420
#
# _framework density 24.723298
#
# number of rings (size 3 to 8) (size 9 to 14) (size 15 to 20)
#    0.750    1.000    0.000    3.000   19.250    0.000 
#    0.000    0.000   27.500    0.000    0.000    0.000 
#    0.000    0.000    0.000    0.000    0.000    0.000 
#
# Total GULP energy -89071.081416 kJ/mol
# GULP energy per Si atom -5566.942589 kJ/mol
# Density = 2.466703 g / cm^3
# Si number density = 24.723298 Si / 1000 Ang^3
#
#
#
# Elastic Constant Matrix: (Units=GPa)
#
#
# Indices 1 2 3 4 5 6 
#
# 1 198.4819 38.7682 34.8076 0.0000 0.0000 0.0000
# 2 38.7682 231.9562 25.6163 0.0000 0.0000 0.0000
# 3 34.8076 25.6163 54.7903 0.0000 0.0000 0.0000
# 4 0.0000 0.0000 0.0000 15.5757 0.0000 0.0000
# 5 0.0000 0.0000 0.0000 0.0000 -4.1174 0.0000
# 6 0.0000 0.0000 0.0000 0.0000 0.0000 63.1506
#
#
#
# Elastic Compliance Matrix: (Units=1/GPa)
#
#
# Indices 1 2 3 4 5 6 
#
# 1 0.005745 -0.000587 -0.003375 0.000000 0.000000 0.000000
# 2 -0.000587 0.004606 -0.001780 0.000000 0.000000 0.000000
# 3 -0.003375 -0.001780 0.021228 0.000000 0.000000 0.000000
# 4 0.000000 0.000000 0.000000 0.064202 0.000000 0.000000
# 5 0.000000 0.000000 0.000000 0.000000 -0.242870 0.000000
# 6 0.000000 0.000000 0.000000 0.000000 0.000000 0.015835
#
#
# Mechanical properties :
#
#
# Convention : Reuss Voigt Hill
#
# Bulk Modulus (GPa) = 49.76789 75.95695 62.86242
# Shear Modulus (GPa) = -44.22004 40.65753 -1.78126
#
# Velocity S-wave (km/s) = -4.23377 4.05965 -0.84973
# Velocity P-wave (km/s) = 1.93031 7.26387 4.95165
#
# Compressibility (1/GPa) = 0.02009328
#
# Stress axis : x y z
#
# Youngs Moduli (GPa) = 174.06880 217.11071 47.10803
#
# Poissons Ratio (x) = 0.12754 0.15899
# Poissons Ratio (y) = 0.10226 0.08386
# Poissons Ratio (z) = 0.58748 0.38651
#
# Static dielectric constant tensor:
#      x y z
#    x 1.975470 0.000000 0.000000 
#    y 0.000000 2.092900 0.000000 
#    z 0.000000 0.000000 2.135990 
# 
# From -- ./inp_files/38156.got.cif
#   From: 2010.05.17/outbox.cif.g08.bks.cpg/sg24_20_cif.got.tgz:38156.got - 2010.06.04 00:33:39.
