data_PCOD9334246
_publ_section_title
;
Structure prediction by ZEFSAII (Michael W. Deem and Ramdas Pophale) SiO2 
 PCOD9334246
Probable space group: I 21 21 21
;
_chemical_formula_sum "Si O2"
_cell_formula_units_Z 48
_cell_length_a 21.514376
_cell_length_b 7.385985
_cell_length_c 14.408041
_cell_angle_alpha 90.000000
_cell_angle_beta 90.000000
_cell_angle_gamma 90.000000
_cell_volume 2289.507715
_symmetry_space_group_name_H-M "I 21 21 21"
_symmetry_group_IT_number 24
_symmetry_cell_setting 'orthorhombic'
loop_
_space_group_symop_operation_xyz
x,y,z
-x,1/2-y,z
x,-y,1/2-z
1/2-x,y,-z
1/2+x,1/2+y,1/2+z
1/2-x,-y,1/2+z
1/2+x,1/2-y,-z
-x,1/2+y,1/2-z
loop_
_atom_site_type_symbol
_atom_site_label
_atom_site_fract_x
_atom_site_fract_y
_atom_site_fract_z
Si Si1 0.769696 0.716011 0.265611
Si Si2 0.532700 0.499399 0.350709
Si Si3 0.863092 0.795146 0.643708
Si Si4 0.810538 0.762875 0.063425
Si Si5 0.411807 0.371281 0.424314
Si Si6 0.316984 0.830207 0.546017
O O1 0.773414 0.500000 0.250000
O O2 0.699335 0.746793 0.300998
O O3 0.790796 0.804328 0.169104
O O4 0.814694 0.756817 0.352592
O O5 0.499955 0.500000 0.250000
O O6 0.578790 0.666870 0.334003
O O7 0.477052 0.482526 0.425715
O O8 0.573363 0.323950 0.379428
O O9 0.859781 0.750199 0.532830
O O10 0.871197 0.009412 0.645310
O O11 0.823365 0.546500 0.055825
O O12 0.750000 0.803865 0.000000
O O13 0.871879 0.849279 0.017777
O O14 0.250000 0.800349 0.500000
#
# Coordination Sequence:
#
# PCOD9334246 Si02
#       6
#     8   8   8   8   8   8
#     4   9  19  35  66  93 128 176 210 256 335 397
#     4  11  26  43  62  90 128 172 216 274 327 390
#     4  11  21  39  66  93 128 167 214 273 326 399
#     4  10  20  37  58  92 130 170 207 263 330 395
#     4  11  26  40  62  94 129 168 217 270 332 391
#     4   8  16  34  59  90 126 166 208 260 325 387
#
# _framework density 20.965204
#
# number of rings (size 3 to 8) (size 9 to 14) (size 15 to 20)
#    0.000    2.000    1.667    2.000    7.000    2.000 
#    0.000    2.500    0.000    0.000   17.333    0.000 
#    0.000    0.000    0.000    0.000    0.000    0.000 
#
# Total GULP energy -133813.084666 kJ/mol
# GULP energy per Si atom -5575.545194 kJ/mol
# Density = 2.091749 g / cm^3
# Si number density = 20.965204 Si / 1000 Ang^3
#
#
#
# Elastic Constant Matrix: (Units=GPa)
#
#
# Indices 1 2 3 4 5 6 
#
# 1 99.3053 16.9946 72.4312 0.0000 0.0000 0.0000
# 2 16.9946 34.5692 16.5023 0.0000 0.0000 0.0000
# 3 72.4312 16.5023 170.2621 0.0000 0.0000 0.0000
# 4 0.0000 0.0000 0.0000 12.0538 0.0000 0.0000
# 5 0.0000 0.0000 0.0000 0.0000 41.8806 0.0000
# 6 0.0000 0.0000 0.0000 0.0000 0.0000 -30.8979
#
#
#
# Elastic Compliance Matrix: (Units=1/GPa)
#
#
# Indices 1 2 3 4 5 6 
#
# 1 0.015273 -0.004621 -0.006049 0.000000 0.000000 0.000000
# 2 -0.004621 0.031729 -0.001110 0.000000 0.000000 0.000000
# 3 -0.006049 -0.001110 0.008554 0.000000 0.000000 0.000000
# 4 0.000000 0.000000 0.000000 0.082961 0.000000 0.000000
# 5 0.000000 0.000000 0.000000 0.000000 0.023877 0.000000
# 6 0.000000 0.000000 0.000000 0.000000 0.000000 -0.032365
#
#
# Mechanical properties :
#
#
# Convention : Reuss Voigt Hill
#
# Bulk Modulus (GPa) = 31.25311 57.33254 44.29283
# Shear Modulus (GPa) = 30.44048 17.82121 24.13084
#
# Velocity S-wave (km/s) = 3.81458 2.91870 3.39631
# Velocity P-wave (km/s) = 5.86011 6.22610 6.04588
#
# Compressibility (1/GPa) = 0.03199681
#
# Stress axis : x y z
#
# Youngs Moduli (GPa) = 65.47481 31.51720 116.89959
#
# Poissons Ratio (x) = 0.14563 0.70718
# Poissons Ratio (y) = 0.30253 0.12971
# Poissons Ratio (z) = 0.39609 0.03497
#
# Static dielectric constant tensor:
#      x y z
#    x 1.778180 0.000000 0.000000 
#    y 0.000000 1.864700 0.000000 
#    z 0.000000 0.000000 1.804260 
# 
# From -- ./inp_files/27417.got.cif
#   From: 2010.05.17/outbox.cif.g08.bks.cpg/sg24_14_cif.got.tgz:27417.got - 2010.06.04 00:33:39.
