data_PCOD9334599
_publ_section_title
;
Structure prediction by ZEFSAII (Michael W. Deem and Ramdas Pophale) SiO2 
 PCOD9334599
Probable space group: I 21 21 21
;
_chemical_formula_sum "Si O2"
_cell_formula_units_Z 48
_cell_length_a 9.011299
_cell_length_b 14.921193
_cell_length_c 15.293689
_cell_angle_alpha 90.000000
_cell_angle_beta 90.000000
_cell_angle_gamma 90.000000
_cell_volume 2056.379200
_symmetry_space_group_name_H-M "I 21 21 21"
_symmetry_group_IT_number 24
_symmetry_cell_setting 'orthorhombic'
loop_
_space_group_symop_operation_xyz
x,y,z
-x,1/2-y,z
x,-y,1/2-z
1/2-x,y,-z
1/2+x,1/2+y,1/2+z
1/2-x,-y,1/2+z
1/2+x,1/2-y,-z
-x,1/2+y,1/2-z
loop_
_atom_site_type_symbol
_atom_site_label
_atom_site_fract_x
_atom_site_fract_y
_atom_site_fract_z
Si Si1 0.842707 0.701963 0.621615
Si Si2 0.500000 0.750000 0.036684
Si Si3 0.510615 0.598532 0.772455
Si Si4 0.681776 0.335210 0.325836
Si Si5 0.396533 0.575965 0.946258
Si Si6 0.882822 0.500385 0.939540
Si Si7 0.000000 0.250000 0.131173
O O1 0.850936 0.698262 0.727960
O O2 0.849139 0.597960 0.594572
O O3 0.672779 0.735366 0.594822
O O4 0.000000 0.750000 0.592430
O O5 0.637679 0.737803 0.102556
O O6 0.481754 0.663669 0.978875
O O7 0.568966 0.500000 0.750000
O O8 0.644856 0.645554 0.822537
O O9 0.382353 0.579742 0.842614
O O10 0.476184 0.661466 0.691395
O O11 0.601512 0.426873 0.360971
O O12 0.250000 0.576173 0.000000
O O13 0.486907 0.494294 0.988839
O O14 0.750000 0.535156 0.000000
#
# Coordination Sequence:
#
# PCOD9334599 Si02
#       7
#     8   4   8   8   8   8   4
#     4  11  24  45  68  99 134 178 234 282 343 409
#     4  10  23  36  64  99 142 168 214 284 359 410
#     4  11  23  42  69 100 137 181 228 279 346 419
#     4  10  20  40  68  97 131 173 220 279 342 417
#     4  11  26  39  65 103 138 177 223 286 352 414
#     4  11  23  44  66  94 132 185 224 275 345 409
#     4  10  25  40  74 101 132 182 230 286 345 412
#
# _framework density 23.341999999999999
#
# number of rings (size 3 to 8) (size 9 to 14) (size 15 to 20)
#    0.000    1.333    2.500    3.000    7.000    1.333 
#    1.500    0.000    0.000    0.000    0.000    0.000 
#    0.000    0.000    0.000    0.000    0.000    0.000 
#
# Total GULP energy -133846.321032 kJ/mol
# GULP energy per Si atom -5576.930043 kJ/mol
# Density = 2.328887 g / cm^3
# Si number density = 23.342000 Si / 1000 Ang^3
#
#
#
# Elastic Constant Matrix: (Units=GPa)
#
#
# Indices 1 2 3 4 5 6 
#
# 1 112.4621 28.0493 28.1241 0.0000 0.0000 0.0000
# 2 28.0493 57.4987 -0.9618 0.0000 0.0000 0.0000
# 3 28.1241 -0.9618 39.1077 0.0000 0.0000 0.0000
# 4 0.0000 0.0000 0.0000 15.1539 0.0000 0.0000
# 5 0.0000 0.0000 0.0000 0.0000 20.1322 0.0000
# 6 0.0000 0.0000 0.0000 0.0000 0.0000 17.2049
#
#
#
# Elastic Compliance Matrix: (Units=1/GPa)
#
#
# Indices 1 2 3 4 5 6 
#
# 1 0.012843 -0.006422 -0.009394 0.000000 0.000000 0.000000
# 2 -0.006422 0.020610 0.005125 0.000000 0.000000 0.000000
# 3 -0.009394 0.005125 0.032452 0.000000 0.000000 0.000000
# 4 0.000000 0.000000 0.000000 0.065990 0.000000 0.000000
# 5 0.000000 0.000000 0.000000 0.000000 0.049672 0.000000
# 6 0.000000 0.000000 0.000000 0.000000 0.000000 0.058123
#
#
# Mechanical properties :
#
#
# Convention : Reuss Voigt Hill
#
# Bulk Modulus (GPa) = 22.45983 35.49906 28.97945
# Shear Modulus (GPa) = 18.12171 20.75531 19.43851
#
# Velocity S-wave (km/s) = 2.78934 2.98515 2.88891
# Velocity P-wave (km/s) = 4.47402 5.20795 4.85487
#
# Compressibility (1/GPa) = 0.04452393
#
# Stress axis : x y z
#
# Youngs Moduli (GPa) = 77.86461 48.51933 30.81479
#
# Poissons Ratio (x) = 0.31160 0.28947
# Poissons Ratio (y) = 0.50006 -0.15794
# Poissons Ratio (z) = 0.73144 -0.24868
#
# Static dielectric constant tensor:
#      x y z
#    x 1.938790 0.000000 0.000000 
#    y 0.000000 2.072000 0.000000 
#    z 0.000000 0.000000 2.082750 
# 
# From -- ./inp_files/29506.got.cif
#   From: 2010.05.17/outbox.cif.g08.bks.cpg/sg24_15_cif.got.tgz:29506.got - 2010.06.04 00:33:39.
