data_PCOD9334380
_publ_section_title
;
Structure prediction by ZEFSAII (Michael W. Deem and Ramdas Pophale) SiO2 
 PCOD9334380
Probable space group: I 21 21 21
;
_chemical_formula_sum "Si O2"
_cell_formula_units_Z 64
_cell_length_a 23.681829
_cell_length_b 8.696897
_cell_length_c 15.163808
_cell_angle_alpha 90.000000
_cell_angle_beta 90.000000
_cell_angle_gamma 90.000000
_cell_volume 3123.114052
_symmetry_space_group_name_H-M "I 21 21 21"
_symmetry_group_IT_number 24
_symmetry_cell_setting 'orthorhombic'
loop_
_space_group_symop_operation_xyz
x,y,z
-x,1/2-y,z
x,-y,1/2-z
1/2-x,y,-z
1/2+x,1/2+y,1/2+z
1/2-x,-y,1/2+z
1/2+x,1/2-y,-z
-x,1/2+y,1/2-z
loop_
_atom_site_type_symbol
_atom_site_label
_atom_site_fract_x
_atom_site_fract_y
_atom_site_fract_z
Si Si1 0.410590 0.652195 0.488432
Si Si2 0.251987 0.503789 0.601956
Si Si3 0.610309 0.448231 0.649190
Si Si4 0.550351 0.641016 0.182648
Si Si5 0.683675 0.282680 0.877708
Si Si6 0.140979 0.636851 0.200098
Si Si7 0.030410 0.956777 0.508500
Si Si8 0.868392 0.081567 0.660084
O O1 0.361448 0.702774 0.555563
O O2 0.436585 0.809578 0.449539
O O3 0.467796 0.579624 0.526695
O O4 0.388592 0.527786 0.419466
O O5 0.250000 0.460242 0.500000
O O6 0.257720 0.691515 0.605962
O O7 0.308768 0.440369 0.645977
O O8 0.199194 0.430016 0.651613
O O9 0.596480 0.500000 0.750000
O O10 0.669262 0.535398 0.621392
O O11 0.610357 0.264172 0.643515
O O12 0.566075 0.503218 0.577323
O O13 0.500000 0.750000 0.218367
O O14 0.560707 0.500000 0.250000
O O15 0.604334 0.749793 0.163027
O O16 0.529310 0.576722 0.088109
O O17 0.668044 0.236824 0.778356
O O18 0.108162 0.500000 0.250000
O O19 0.886655 0.000000 0.750000
#
# Coordination Sequence:
#
# PCOD9334380 Si02
#       8
#     8   8   8   8   8   8   8   8
#     4  10  20  38  63  90 125 169 210 257 329 382
#     4  11  22  38  62  88 122 157 213 262 322 390
#     4   9  19  38  65  93 129 167 211 257 321 388
#     4  12  26  42  65  92 125 170 218 270 334 394
#     4   9  18  38  61  90 120 167 204 254 316 391
#     4   9  19  36  61  87 123 167 202 251 316 380
#     4  10  22  38  64  92 131 164 215 271 318 384
#     4  12  24  41  63  90 123 161 213 269 319 388
#
# _framework density 20.492366000000001
#
# number of rings (size 3 to 8) (size 9 to 14) (size 15 to 20)
#    0.000    1.750    2.500    2.250    3.500    0.000 
#    0.000    6.875    5.500    0.000    0.000    0.000 
#    0.000    0.000    0.000    0.000    0.000    0.000 
#
# Total GULP energy -178261.975202 kJ/mol
# GULP energy per Si atom -5570.686725 kJ/mol
# Density = 2.044572 g / cm^3
# Si number density = 20.492366 Si / 1000 Ang^3
#
#
#
# Elastic Constant Matrix: (Units=GPa)
#
#
# Indices 1 2 3 4 5 6 
#
# 1 46.5867 31.4218 4.3613 0.0000 0.0000 0.0000
# 2 31.4218 121.9513 25.7942 0.0000 0.0000 0.0000
# 3 4.3613 25.7942 73.3467 0.0000 0.0000 0.0000
# 4 0.0000 0.0000 0.0000 36.9110 0.0000 0.0000
# 5 0.0000 0.0000 0.0000 0.0000 20.0472 0.0000
# 6 0.0000 0.0000 0.0000 0.0000 0.0000 18.8215
#
#
#
# Elastic Compliance Matrix: (Units=1/GPa)
#
#
# Indices 1 2 3 4 5 6 
#
# 1 0.026032 -0.006893 0.000876 0.000000 0.000000 0.000000
# 2 -0.006893 0.010684 -0.003347 0.000000 0.000000 0.000000
# 3 0.000876 -0.003347 0.014759 0.000000 0.000000 0.000000
# 4 0.000000 0.000000 0.000000 0.027092 0.000000 0.000000
# 5 0.000000 0.000000 0.000000 0.000000 0.049882 0.000000
# 6 0.000000 0.000000 0.000000 0.000000 0.000000 0.053131
#
#
# Mechanical properties :
#
#
# Convention : Reuss Voigt Hill
#
# Bulk Modulus (GPa) = 30.53703 40.55994 35.54848
# Shear Modulus (GPa) = 23.67147 27.17642 25.42394
#
# Velocity S-wave (km/s) = 3.40242 3.64562 3.52611
# Velocity P-wave (km/s) = 5.51083 6.12832 5.82776
#
# Compressibility (1/GPa) = 0.03274712
#
# Stress axis : x y z
#
# Youngs Moduli (GPa) = 38.41368 93.59781 67.75530
#
# Poissons Ratio (x) = 0.64515 -0.05936
# Poissons Ratio (y) = 0.26478 0.22681
# Poissons Ratio (z) = -0.03365 0.31331
#
# Static dielectric constant tensor:
#      x y z
#    x 1.764140 0.000000 0.000000 
#    y 0.000000 1.838210 0.000000 
#    z 0.000000 0.000000 1.800760 
# 
# From -- ./inp_files/27904.got.cif
#   From: 2010.05.17/outbox.cif.g08.bks.cpg/sg24_14_cif.got.tgz:27904.got - 2010.06.04 00:33:39.
