data_PCOD9334748
_publ_section_title
;
Structure prediction by ZEFSAII (Michael W. Deem and Ramdas Pophale) SiO2 
 PCOD9334748
Probable space group: I 21 21 21
;
_chemical_formula_sum "Si O2"
_cell_formula_units_Z 40
_cell_length_a 8.729121
_cell_length_b 25.238870
_cell_length_c 8.563272
_cell_angle_alpha 90.000000
_cell_angle_beta 90.000000
_cell_angle_gamma 90.000000
_cell_volume 1886.601430
_symmetry_space_group_name_H-M "I 21 21 21"
_symmetry_group_IT_number 24
_symmetry_cell_setting 'orthorhombic'
loop_
_space_group_symop_operation_xyz
x,y,z
-x,1/2-y,z
x,-y,1/2-z
1/2-x,y,-z
1/2+x,1/2+y,1/2+z
1/2-x,-y,1/2+z
1/2+x,1/2-y,-z
-x,1/2+y,1/2-z
loop_
_atom_site_type_symbol
_atom_site_label
_atom_site_fract_x
_atom_site_fract_y
_atom_site_fract_z
Si Si1 0.623525 0.965706 0.889322
Si Si2 0.923976 0.553751 0.559477
Si Si3 0.955614 0.372295 0.205724
Si Si4 0.146906 0.890498 0.855768
Si Si5 0.929145 0.192462 0.466646
O O1 0.517059 0.923324 0.803855
O O2 0.697394 0.000000 0.750000
O O3 0.750000 0.940021 0.000000
O O4 0.527668 0.007033 0.992672
O O5 0.750000 0.544014 0.500000
O O6 0.924001 0.565145 0.743459
O O7 0.975097 0.608245 0.470846
O O8 0.044053 0.324395 0.285826
O O9 0.776724 0.363831 0.245745
O O10 0.025294 0.849580 0.927513
O O11 0.250000 0.911240 0.000000
O O12 0.750000 0.191727 0.500000
O O13 0.000000 0.250000 0.494645
#
# Coordination Sequence:
#
# PCOD9334748 Si02
#       5
#     8   8   8   8   8
#     4  10  21  35  53  82 118 156 197 242 293 349
#     4   9  19  36  58  83 116 154 192 238 287 345
#     4   9  19  37  56  81 114 149 193 238 289 346
#     4   9  19  36  58  83 110 147 190 234 284 338
#     4  11  22  38  59  83 111 146 190 240 292 348
#
# _framework density 21.202145999999999
#
# number of rings (size 3 to 8) (size 9 to 14) (size 15 to 20)
#    0.000    2.400    0.000    2.400    0.000    8.800 
#    0.000    8.000    0.000    2.400    0.000    0.000 
#    0.000    0.000    0.000    0.000    0.000    0.000 
#
# Total GULP energy -111643.601192 kJ/mol
# GULP energy per Si atom -5582.180060 kJ/mol
# Density = 2.115389 g / cm^3
# Si number density = 21.202146 Si / 1000 Ang^3
#
#
#
# Elastic Constant Matrix: (Units=GPa)
#
#
# Indices 1 2 3 4 5 6 
#
# 1 103.9759 37.0408 37.0941 0.0002 0.0006 0.0002
# 2 37.0408 78.9821 46.2780 0.0004 -0.0002 0.0001
# 3 37.0941 46.2780 123.2193 -0.0058 -0.0017 -0.0012
# 4 0.0002 0.0004 -0.0058 24.7832 -0.0008 -0.0001
# 5 0.0006 -0.0002 -0.0017 -0.0008 31.0554 -0.0003
# 6 0.0002 0.0001 -0.0012 -0.0001 -0.0003 28.1945
#
#
#
# Elastic Compliance Matrix: (Units=1/GPa)
#
#
# Indices 1 2 3 4 5 6 
#
# 1 0.011885 -0.004459 -0.001903 0.000000 0.000000 0.000000
# 2 -0.004459 0.017906 -0.005383 -0.000001 0.000000 0.000000
# 3 -0.001903 -0.005383 0.010710 0.000003 0.000001 0.000000
# 4 0.000000 -0.000001 0.000003 0.040350 0.000001 0.000000
# 5 0.000000 0.000000 0.000001 0.000001 0.032200 0.000000
# 6 0.000000 0.000000 0.000000 0.000000 0.000000 0.035468
#
#
# Mechanical properties :
#
#
# Convention : Reuss Voigt Hill
#
# Bulk Modulus (GPa) = 58.78282 60.77814 59.78048
# Shear Modulus (GPa) = 28.14055 29.19093 28.66574
#
# Velocity S-wave (km/s) = 3.64710 3.71454 3.68097
# Velocity P-wave (km/s) = 6.74687 6.86479 6.80608
#
# Compressibility (1/GPa) = 0.01701177
#
# Stress axis : x y z
#
# Youngs Moduli (GPa) = 84.13985 55.84714 93.36847
#
# Poissons Ratio (x) = 0.24900 0.17771
# Poissons Ratio (y) = 0.37514 0.50259
# Poissons Ratio (z) = 0.16015 0.30062
#
# Static dielectric constant tensor:
#      x y z
#    x 1.786900 0.000000 0.000000 
#    y 0.000000 1.775340 0.000000 
#    z 0.000000 0.000000 1.821470 
# 
# From -- ./inp_files/9497.got.cif
#   From: 2010.05.17/outbox.cif.g08.bks.cpg/sg24_5_cif.got.tgz:9497.got - 2010.06.04 00:33:39.
