data_PCOD9334218
_publ_section_title
;
Structure prediction by ZEFSAII (Michael W. Deem and Ramdas Pophale) SiO2 
 PCOD9334218
Probable space group: I 21 21 21
;
_chemical_formula_sum "Si O2"
_cell_formula_units_Z 48
_cell_length_a 28.943450
_cell_length_b 8.733852
_cell_length_c 10.052319
_cell_angle_alpha 90.000000
_cell_angle_beta 90.000000
_cell_angle_gamma 90.000000
_cell_volume 2541.103692
_symmetry_space_group_name_H-M "I 21 21 21"
_symmetry_group_IT_number 24
_symmetry_cell_setting 'orthorhombic'
loop_
_space_group_symop_operation_xyz
x,y,z
-x,1/2-y,z
x,-y,1/2-z
1/2-x,y,-z
1/2+x,1/2+y,1/2+z
1/2-x,-y,1/2+z
1/2+x,1/2-y,-z
-x,1/2+y,1/2-z
loop_
_atom_site_type_symbol
_atom_site_label
_atom_site_fract_x
_atom_site_fract_y
_atom_site_fract_z
Si Si1 0.551904 0.684008 0.027116
Si Si2 0.548720 0.683566 0.485531
Si Si3 0.596567 0.313607 0.750431
Si Si4 0.194067 0.850725 0.345984
Si Si5 0.702012 0.346480 0.161268
Si Si6 0.612200 0.180480 0.235245
O O1 0.500000 0.750000 0.035176
O O2 0.549153 0.499585 0.027891
O O3 0.583947 0.739070 0.146943
O O4 0.577675 0.735198 0.891919
O O5 0.500000 0.750000 0.441318
O O6 0.559948 0.728566 0.636693
O O7 0.588204 0.757978 0.397423
O O8 0.598218 0.500000 0.750000
O O9 0.648186 0.263960 0.794612
O O10 0.189868 0.882656 0.505351
O O11 0.245578 0.782879 0.332938
O O12 0.195771 0.000000 0.250000
O O13 0.699721 0.500000 0.250000
O O14 0.665047 0.231989 0.223596
O O15 0.607798 0.000000 0.250000
#
# Coordination Sequence:
#
# PCOD9334218 Si02
#       6
#     8   8   8   8   8   8
#     4  11  23  40  61  88 119 153 198 248 299 357
#     4  11  21  38  63  87 117 152 197 243 301 356
#     4   9  19  35  60  90 118 152 192 243 294 355
#     4   9  18  35  63  95 123 148 200 246 296 353
#     4  10  20  36  65  93 120 157 199 249 298 348
#     4  12  25  40  58  84 121 160 201 244 296 353
#
# _framework density 18.889429
#
# number of rings (size 3 to 8) (size 9 to 14) (size 15 to 20)
#    0.000    1.667    1.667    3.500    4.667    0.000 
#    0.000    2.500    7.333    0.000    0.000    0.000 
#    0.000    0.000    0.000    0.000    0.000    0.000 
#
# Total GULP energy -133870.223341 kJ/mol
# GULP energy per Si atom -5577.925973 kJ/mol
# Density = 1.884644 g / cm^3
# Si number density = 18.889429 Si / 1000 Ang^3
#
#
#
# Elastic Constant Matrix: (Units=GPa)
#
#
# Indices 1 2 3 4 5 6 
#
# 1 132.4681 29.5292 30.0675 0.0000 0.0000 0.0000
# 2 29.5292 61.3951 17.2356 0.0000 0.0000 0.0000
# 3 30.0675 17.2356 102.9251 0.0000 0.0000 0.0000
# 4 0.0000 0.0000 0.0000 -8.4742 0.0000 0.0000
# 5 0.0000 0.0000 0.0000 0.0000 37.0986 0.0000
# 6 0.0000 0.0000 0.0000 0.0000 0.0000 14.7054
#
#
#
# Elastic Compliance Matrix: (Units=1/GPa)
#
#
# Indices 1 2 3 4 5 6 
#
# 1 0.008816 -0.003691 -0.001957 0.000000 0.000000 0.000000
# 2 -0.003691 0.018637 -0.002043 0.000000 0.000000 0.000000
# 3 -0.001957 -0.002043 0.010630 0.000000 0.000000 0.000000
# 4 0.000000 0.000000 0.000000 -0.118006 0.000000 0.000000
# 5 0.000000 0.000000 0.000000 0.000000 0.026955 0.000000
# 6 0.000000 0.000000 0.000000 0.000000 0.000000 0.068002
#
#
# Mechanical properties :
#
#
# Convention : Reuss Voigt Hill
#
# Bulk Modulus (GPa) = 44.05159 50.05031 47.05095
# Shear Modulus (GPa) = 131.64083 23.32970 77.48527
#
# Velocity S-wave (km/s) = 8.35712 3.51816 6.41167
# Velocity P-wave (km/s) = 10.79321 6.56181 8.93170
#
# Compressibility (1/GPa) = 0.02270066
#
# Stress axis : x y z
#
# Youngs Moduli (GPa) = 113.43023 53.65809 94.07635
#
# Poissons Ratio (x) = 0.19804 0.18414
# Poissons Ratio (y) = 0.41864 0.19217
# Poissons Ratio (z) = 0.22202 0.10961
#
# Static dielectric constant tensor:
#      x y z
#    x 1.686470 0.000000 0.000000 
#    y 0.000000 1.637440 0.000000 
#    z 0.000000 0.000000 1.671380 
# 
# From -- ./inp_files/16816.got.cif
#   From: 2010.05.17/outbox.cif.g08.bks.cpg/sg24_9_cif.got.tgz:16816.got - 2010.06.04 00:33:39.
