data_PCOD9334960
_publ_section_title
;
Structure prediction by ZEFSAII (Michael W. Deem and Ramdas Pophale) SiO2 
 PCOD9334960
Probable space group: I 21 21 21
;
_chemical_formula_sum "Si O2"
_cell_formula_units_Z 40
_cell_length_a 5.495940
_cell_length_b 24.638406
_cell_length_c 13.304094
_cell_angle_alpha 90.000000
_cell_angle_beta 90.000000
_cell_angle_gamma 90.000000
_cell_volume 1801.523348
_symmetry_space_group_name_H-M "I 21 21 21"
_symmetry_group_IT_number 24
_symmetry_cell_setting 'orthorhombic'
loop_
_space_group_symop_operation_xyz
x,y,z
-x,1/2-y,z
x,-y,1/2-z
1/2-x,y,-z
1/2+x,1/2+y,1/2+z
1/2-x,-y,1/2+z
1/2+x,1/2-y,-z
-x,1/2+y,1/2-z
loop_
_atom_site_type_symbol
_atom_site_label
_atom_site_fract_x
_atom_site_fract_y
_atom_site_fract_z
Si Si1 0.250000 0.284891 0.000000
Si Si2 0.750000 0.966372 0.500000
Si Si3 0.250000 0.651696 0.000000
Si Si4 0.774302 0.877788 0.663677
Si Si5 0.534022 0.690669 0.817172
Si Si6 0.098410 0.890826 0.840574
Si Si7 0.750000 0.467229 0.500000
O O1 0.500000 0.250000 0.980679
O O2 0.179151 0.325809 0.908361
O O3 0.692261 0.926533 0.593309
O O4 0.498352 0.998906 0.483683
O O5 0.392108 0.613302 0.075879
O O6 0.087160 0.687543 0.073522
O O7 0.582879 0.854260 0.744014
O O8 0.995370 0.901614 0.730712
O O9 0.500000 0.750000 0.774034
O O10 0.806368 0.670875 0.832128
O O11 0.282722 0.930651 0.898125
#
# Coordination Sequence:
#
# PCOD9334960 Si02
#       7
#     4   4   4   8   8   8   4
#     4  11  26  47  77 106 150 200 246 297 368 432
#     4  11  29  52  76 108 144 194 252 306 380 416
#     4  10  21  39  61 102 148 191 233 295 360 434
#     4  10  27  46  71 107 148 187 249 310 355 449
#     4  11  24  39  71 104 149 191 239 293 375 444
#     4  11  24  45  70 105 149 187 248 302 366 442
#     4  12  26  50  78 104 146 197 243 314 374 432
#
# _framework density 22.203429
#
# number of rings (size 3 to 8) (size 9 to 14) (size 15 to 20)
#    0.000    1.200    2.000    1.200   14.000    4.000 
#    0.000    0.000    0.000    0.000    0.000    0.000 
#    0.000    0.000    0.000    0.000    0.000    0.000 
#
# Total GULP energy -111528.606978 kJ/mol
# GULP energy per Si atom -5576.430349 kJ/mol
# Density = 2.215289 g / cm^3
# Si number density = 22.203429 Si / 1000 Ang^3
#
#
#
# Elastic Constant Matrix: (Units=GPa)
#
#
# Indices 1 2 3 4 5 6 
#
# 1 61.7925 32.8897 19.5429 0.0000 0.0000 0.0000
# 2 32.8897 113.5446 37.1645 0.0000 0.0000 0.0000
# 3 19.5429 37.1645 129.2737 0.0000 0.0000 0.0001
# 4 0.0000 0.0000 0.0000 1.3613 0.0000 0.0000
# 5 0.0000 0.0000 0.0000 0.0000 33.3016 0.0000
# 6 0.0000 0.0000 0.0001 0.0000 0.0000 0.9710
#
#
#
# Elastic Compliance Matrix: (Units=1/GPa)
#
#
# Indices 1 2 3 4 5 6 
#
# 1 0.019377 -0.005137 -0.001452 0.000000 0.000000 0.000000
# 2 -0.005137 0.011084 -0.002410 0.000000 0.000000 0.000000
# 3 -0.001452 -0.002410 0.008648 0.000000 0.000000 0.000000
# 4 0.000000 0.000000 0.000000 0.734598 0.000000 -0.000014
# 5 0.000000 0.000000 0.000000 0.000000 0.030029 0.000000
# 6 0.000000 0.000000 0.000000 -0.000014 0.000000 1.029858
#
#
# Mechanical properties :
#
#
# Convention : Reuss Voigt Hill
#
# Bulk Modulus (GPa) = 47.37187 53.75614 50.56401
# Shear Modulus (GPa) = 2.69015 21.46102 12.07559
#
# Velocity S-wave (km/s) = 1.10192 3.11233 2.33461
# Velocity P-wave (km/s) = 4.79590 6.09744 5.48541
#
# Compressibility (1/GPa) = 0.02110957
#
# Stress axis : x y z
#
# Youngs Moduli (GPa) = 51.60764 90.22005 115.63514
#
# Poissons Ratio (x) = 0.46350 0.16795
# Poissons Ratio (y) = 0.26513 0.27866
# Poissons Ratio (z) = 0.07495 0.21742
#
# Static dielectric constant tensor:
#      x y z
#    x 1.916940 0.000000 0.000000 
#    y 0.000000 1.835450 0.000000 
#    z 0.000000 0.000000 1.954340 
# 
# From -- ./inp_files/2570.got.cif
#   From: 2010.05.17/outbox.cif.g08.bks.cpg/sg24_2_cif.got.tgz:2570.got - 2010.06.04 00:33:39.
