data_PCOD9334060
_publ_section_title
;
Structure prediction by ZEFSAII (Michael W. Deem and Ramdas Pophale) SiO2 
 PCOD9334060
Probable space group: I 21 21 21
;
_chemical_formula_sum "Si O2"
_cell_formula_units_Z 36
_cell_length_a 29.354217
_cell_length_b 11.796545
_cell_length_c 4.877185
_cell_angle_alpha 90.000000
_cell_angle_beta 90.000000
_cell_angle_gamma 90.000000
_cell_volume 1688.863534
_symmetry_space_group_name_H-M "I 21 21 21"
_symmetry_group_IT_number 24
_symmetry_cell_setting 'orthorhombic'
loop_
_space_group_symop_operation_xyz
x,y,z
-x,1/2-y,z
x,-y,1/2-z
1/2-x,y,-z
1/2+x,1/2+y,1/2+z
1/2-x,-y,1/2+z
1/2+x,1/2-y,-z
-x,1/2+y,1/2-z
loop_
_atom_site_type_symbol
_atom_site_label
_atom_site_fract_x
_atom_site_fract_y
_atom_site_fract_z
Si Si1 0.947070 0.741219 0.367899
Si Si2 0.580174 0.383541 0.372876
Si Si3 0.673888 0.274378 0.302221
Si Si4 0.643984 0.867874 0.699086
Si Si5 0.250000 0.078981 0.000000
O O1 0.942184 0.716063 0.689994
O O2 0.910190 0.836778 0.281380
O O3 0.000000 0.750000 0.300749
O O4 0.929244 0.635075 0.190254
O O5 0.563046 0.500000 0.250000
O O6 0.633545 0.366430 0.320359
O O7 0.673262 0.211983 0.595323
O O8 0.715710 0.340222 0.168048
O O9 0.658793 0.173872 0.098938
O O10 0.651224 0.000000 0.750000
O O11 0.230165 0.000000 0.250000
#
# Coordination Sequence:
#
# PCOD9334060 Si02
#       5
#     8   8   8   8   4
#     4  10  21  36  54  84 116 148 199 245 278 339
#     4  10  20  35  56  80 113 149 181 233 297 346
#     4  10  22  39  59  89 118 147 199 243 288 363
#     4  10  21  39  61  83 119 165 199 240 295 344
#     4  12  24  40  66  94 122 154 190 248 312 362
#
# _framework density 21.316108
#
# number of rings (size 3 to 8) (size 9 to 14) (size 15 to 20)
#    0.000    1.778    0.000    4.000    0.000    5.333 
#    0.000    2.222    0.000    0.000    0.000    0.000 
#    0.000    0.000    0.000    0.000    0.000    0.000 
#
# Total GULP energy -100380.014936 kJ/mol
# GULP energy per Si atom -5576.667496 kJ/mol
# Density = 2.126759 g / cm^3
# Si number density = 21.316108 Si / 1000 Ang^3
#
#
#
# Elastic Constant Matrix: (Units=GPa)
#
#
# Indices 1 2 3 4 5 6 
#
# 1 96.4079 4.4080 -5.8534 -0.0019 -0.0012 -0.0001
# 2 4.4080 75.4870 -10.1938 -0.0018 -0.0015 -0.0002
# 3 -5.8534 -10.1938 81.0388 -0.0066 -0.0050 -0.0005
# 4 -0.0019 -0.0018 -0.0066 18.2552 -0.0011 -0.0002
# 5 -0.0012 -0.0015 -0.0050 -0.0011 21.0726 -0.0002
# 6 -0.0001 -0.0002 -0.0005 -0.0002 -0.0002 2.0653
#
#
#
# Elastic Compliance Matrix: (Units=1/GPa)
#
#
# Indices 1 2 3 4 5 6 
#
# 1 0.010438 -0.000516 0.000689 0.000001 0.000001 0.000001
# 2 -0.000516 0.013502 0.001661 0.000002 0.000001 0.000002
# 3 0.000689 0.001661 0.012598 0.000005 0.000003 0.000003
# 4 0.000001 0.000002 0.000005 0.054779 0.000003 0.000005
# 5 0.000001 0.000001 0.000003 0.000003 0.047455 0.000005
# 6 0.000001 0.000002 0.000003 0.000005 0.000005 0.484182
#
#
# Mechanical properties :
#
#
# Convention : Reuss Voigt Hill
#
# Bulk Modulus (GPa) = 24.87227 25.51726 25.19476
# Shear Modulus (GPa) = 7.90277 25.91681 16.90979
#
# Velocity S-wave (km/s) = 1.92755 3.49066 2.81959
# Velocity P-wave (km/s) = 4.08015 5.31443 4.73765
#
# Compressibility (1/GPa) = 0.04020541
#
# Stress axis : x y z
#
# Youngs Moduli (GPa) = 95.80342 74.06432 79.37469
#
# Poissons Ratio (x) = 0.03825 -0.05469
# Poissons Ratio (y) = 0.04948 -0.13185
# Poissons Ratio (z) = -0.06601 -0.12303
#
# Static dielectric constant tensor:
#      x y z
#    x 1.789310 0.000000 0.000000 
#    y 0.000000 1.761680 0.000000 
#    z 0.000000 0.000000 1.741280 
# 
# From -- ./inp_files/2618.got.cif
#   From: 2010.05.17/outbox.cif.g08.bks.cpg/sg24_2_cif.got.tgz:2618.got - 2010.06.04 00:33:39.
