data_PCOD9334322
_publ_section_title
;
Structure prediction by ZEFSAII (Michael W. Deem and Ramdas Pophale) SiO2 
 PCOD9334322
Probable space group: I 21 21 21
;
_chemical_formula_sum "Si O2"
_cell_formula_units_Z 52
_cell_length_a 25.965862
_cell_length_b 11.686314
_cell_length_c 8.547513
_cell_angle_alpha 90.000000
_cell_angle_beta 90.000000
_cell_angle_gamma 90.000000
_cell_volume 2593.701934
_symmetry_space_group_name_H-M "I 21 21 21"
_symmetry_group_IT_number 24
_symmetry_cell_setting 'orthorhombic'
loop_
_space_group_symop_operation_xyz
x,y,z
-x,1/2-y,z
x,-y,1/2-z
1/2-x,y,-z
1/2+x,1/2+y,1/2+z
1/2-x,-y,1/2+z
1/2+x,1/2-y,-z
-x,1/2+y,1/2-z
loop_
_atom_site_type_symbol
_atom_site_label
_atom_site_fract_x
_atom_site_fract_y
_atom_site_fract_z
Si Si1 0.655393 0.387946 0.189513
Si Si2 0.689832 0.175330 0.012643
Si Si3 0.860451 0.000000 0.750000
Si Si4 0.000000 0.250000 0.757727
Si Si5 0.513082 0.000000 0.750000
Si Si6 0.103666 0.283889 0.575455
Si Si7 0.094774 0.296209 0.212798
Si Si8 0.051523 0.091559 0.994532
O O1 0.683880 0.500000 0.250000
O O2 0.684137 0.306506 0.068461
O O3 0.640913 0.302515 0.331099
O O4 0.603037 0.433220 0.104074
O O5 0.670409 0.089198 0.145446
O O6 0.750000 0.150456 0.000000
O O7 0.647743 0.164201 0.872765
O O8 0.888610 0.083694 0.627021
O O9 0.048611 0.257097 0.647933
O O10 0.009892 0.143331 0.873733
O O11 0.550783 0.106763 0.777525
O O12 0.475602 0.995079 0.901163
O O13 0.107139 0.266015 0.391510
O O14 0.070139 0.192384 0.112943
#
# Coordination Sequence:
#
# PCOD9334322 Si02
#       8
#     8   8   4   4   4   8   8   8
#     4   9  21  43  63  88 128 167 216 265 323 399
#     4  10  23  46  70  92 126 167 212 280 342 389
#     4  10  22  41  62  92 126 164 209 270 334 392
#     4  10  20  38  50  80 130 178 216 248 308 390
#     4  12  22  31  62  86 134 170 205 264 318 386
#     4  10  23  36  59  88 128 170 213 264 316 386
#     4  11  23  39  57  93 126 161 222 271 312 386
#     4  10  22  36  55  86 129 170 214 256 314 385
#
# _framework density 20.048566000000001
#
# number of rings (size 3 to 8) (size 9 to 14) (size 15 to 20)
#    0.000    1.846    1.538    1.846    6.462    3.077 
#    1.385    3.846    0.000    0.000    0.000    0.000 
#    0.000    0.000    0.000    0.000    0.000    0.000 
#
# Total GULP energy -145069.692499 kJ/mol
# GULP energy per Si atom -5579.603558 kJ/mol
# Density = 2.000293 g / cm^3
# Si number density = 20.048566 Si / 1000 Ang^3
#
#
#
# Elastic Constant Matrix: (Units=GPa)
#
#
# Indices 1 2 3 4 5 6 
#
# 1 47.1731 6.0055 41.6075 0.0000 0.0000 0.0000
# 2 6.0055 80.1680 23.6710 0.0000 0.0000 0.0000
# 3 41.6075 23.6710 135.9983 0.0000 0.0000 0.0000
# 4 0.0000 0.0000 0.0000 31.4673 0.0000 0.0000
# 5 0.0000 0.0000 0.0000 0.0000 20.4349 0.0000
# 6 0.0000 0.0000 0.0000 0.0000 0.0000 4.8776
#
#
#
# Elastic Compliance Matrix: (Units=1/GPa)
#
#
# Indices 1 2 3 4 5 6 
#
# 1 0.029050 0.000472 -0.008970 0.000000 0.000000 0.000000
# 2 0.000472 0.013157 -0.002435 0.000000 0.000000 0.000000
# 3 -0.008970 -0.002435 0.010521 0.000000 0.000000 0.000000
# 4 0.000000 0.000000 0.000000 0.031779 0.000000 0.000000
# 5 0.000000 0.000000 0.000000 0.000000 0.048936 0.000000
# 6 0.000000 0.000000 0.000000 0.000000 0.000000 0.205020
#
#
# Mechanical properties :
#
#
# Convention : Reuss Voigt Hill
#
# Bulk Modulus (GPa) = 32.40013 45.10083 38.75048
# Shear Modulus (GPa) = 13.49107 24.15963 18.82535
#
# Velocity S-wave (km/s) = 2.59688 3.47516 3.06761
# Velocity P-wave (km/s) = 5.01873 6.21666 5.64954
#
# Compressibility (1/GPa) = 0.03086408
#
# Stress axis : x y z
#
# Youngs Moduli (GPa) = 34.42357 76.00357 95.04794
#
# Poissons Ratio (x) = -0.03590 0.85256
# Poissons Ratio (y) = -0.01626 0.23140
# Poissons Ratio (z) = 0.30877 0.18504
#
# Static dielectric constant tensor:
#      x y z
#    x 1.695030 0.000000 0.000000 
#    y 0.000000 1.753480 0.000000 
#    z 0.000000 0.000000 1.723280 
# 
# From -- ./inp_files/16426.got.cif
#   From: 2010.05.17/outbox.cif.g08.bks.cpg/sg24_9_cif.got.tgz:16426.got - 2010.06.04 00:33:39.
