data_PCOD9334879
_publ_section_title
;
Structure prediction by ZEFSAII (Michael W. Deem and Ramdas Pophale) SiO2 
 PCOD9334879
Probable space group: I 21 21 21
;
_chemical_formula_sum "Si O2"
_cell_formula_units_Z 56
_cell_length_a 25.154908
_cell_length_b 20.441736
_cell_length_c 5.411435
_cell_angle_alpha 90.000000
_cell_angle_beta 90.000000
_cell_angle_gamma 90.000000
_cell_volume 2782.613929
_symmetry_space_group_name_H-M "I 21 21 21"
_symmetry_group_IT_number 24
_symmetry_cell_setting 'orthorhombic'
loop_
_space_group_symop_operation_xyz
x,y,z
-x,1/2-y,z
x,-y,1/2-z
1/2-x,y,-z
1/2+x,1/2+y,1/2+z
1/2-x,-y,1/2+z
1/2+x,1/2-y,-z
-x,1/2+y,1/2-z
loop_
_atom_site_type_symbol
_atom_site_label
_atom_site_fract_x
_atom_site_fract_y
_atom_site_fract_z
Si Si1 0.404278 0.433163 0.405206
Si Si2 0.088137 0.166710 0.580776
Si Si3 0.477862 0.958566 0.997791
Si Si4 0.807768 0.256257 0.556109
Si Si5 0.301687 0.390761 0.657859
Si Si6 0.854384 0.830008 0.547950
Si Si7 0.940867 0.733553 0.406306
O O1 0.403610 0.500000 0.250000
O O2 0.462545 0.427683 0.525901
O O3 0.353233 0.432016 0.582110
O O4 0.391259 0.370340 0.237539
O O5 0.068761 0.093386 0.540704
O O6 0.147568 0.189838 0.510536
O O7 0.079255 0.188122 0.865595
O O8 0.055292 0.204093 0.367425
O O9 0.468861 0.000000 0.750000
O O10 0.480115 0.000000 0.250000
O O11 0.750000 0.283346 0.500000
O O12 0.809534 0.187006 0.407154
O O13 0.819865 0.227388 0.827489
O O14 0.250000 0.411107 0.500000
O O15 0.311213 0.382768 0.949818
O O16 0.899690 0.793916 0.388382
O O17 0.000000 0.750000 0.486631
#
# Coordination Sequence:
#
# PCOD9334879 Si02
#       7
#     8   8   8   8   8   8   8
#     4  10  24  39  57  85 112 167 211 257 305 366
#     4  11  22  40  61  94 122 162 207 248 314 386
#     4  11  25  43  66  90 125 167 207 261 310 371
#     4   9  20  38  60  92 122 161 196 250 314 379
#     4  10  21  38  58  86 117 157 205 260 310 359
#     4  10  21  38  60  87 125 159 206 262 316 368
#     4  11  22  35  60  94 126 157 198 260 320 376
#
# _framework density 20.124963000000001
#
# number of rings (size 3 to 8) (size 9 to 14) (size 15 to 20)
#    0.000    1.714    1.429    2.143    6.000    5.143 
#    2.571    0.000    0.000    0.857    0.000    0.000 
#    0.000    0.000    0.000    0.000    0.000    0.000 
#
# Total GULP energy -155888.200355 kJ/mol
# GULP energy per Si atom -5567.435727 kJ/mol
# Density = 2.007916 g / cm^3
# Si number density = 20.124963 Si / 1000 Ang^3
#
#
#
# Elastic Constant Matrix: (Units=GPa)
#
#
# Indices 1 2 3 4 5 6 
#
# 1 125.5437 44.3036 1.0453 0.0000 0.0000 0.0000
# 2 44.3036 51.7388 12.7479 0.0000 0.0000 0.0000
# 3 1.0453 12.7479 51.1150 0.0000 0.0000 0.0000
# 4 0.0000 0.0000 0.0000 26.0970 0.0000 0.0000
# 5 0.0000 0.0000 0.0000 0.0000 21.5203 0.0000
# 6 0.0000 0.0000 0.0000 0.0000 0.0000 48.2517
#
#
#
# Elastic Compliance Matrix: (Units=1/GPa)
#
#
# Indices 1 2 3 4 5 6 
#
# 1 0.011686 -0.010599 0.002404 0.000000 0.000000 0.000000
# 2 -0.010599 0.030206 -0.007317 0.000000 0.000000 0.000000
# 3 0.002404 -0.007317 0.021339 0.000000 0.000000 0.000000
# 4 0.000000 0.000000 0.000000 0.038319 0.000000 0.000000
# 5 0.000000 0.000000 0.000000 0.000000 0.046468 0.000000
# 6 0.000000 0.000000 0.000000 0.000000 0.000000 0.020725
#
#
# Mechanical properties :
#
#
# Convention : Reuss Voigt Hill
#
# Bulk Modulus (GPa) = 31.04710 38.28791 34.66750
# Shear Modulus (GPa) = 23.75296 30.52718 27.14007
#
# Velocity S-wave (km/s) = 3.43924 3.89894 3.67628
# Velocity P-wave (km/s) = 5.58854 6.27179 5.94000
#
# Compressibility (1/GPa) = 0.03220913
#
# Stress axis : x y z
#
# Youngs Moduli (GPa) = 85.57586 33.10587 46.86190
#
# Poissons Ratio (x) = 0.35088 -0.11267
# Poissons Ratio (y) = 0.90699 0.34287
# Poissons Ratio (z) = -0.20575 0.24222
#
# Static dielectric constant tensor:
#      x y z
#    x 1.759880 0.000000 0.000000 
#    y 0.000000 1.715460 0.000000 
#    z 0.000000 0.000000 1.919730 
# 
# From -- ./inp_files/6499.got.cif
#   From: 2010.05.17/outbox.cif.g08.bks.cpg/sg24_4_cif.got.tgz:6499.got - 2010.06.04 00:33:39.
