data_PCOD9334840
_publ_section_title
;
Structure prediction by ZEFSAII (Michael W. Deem and Ramdas Pophale) SiO2 
 PCOD9334840
Probable space group: I 21 21 21
;
_chemical_formula_sum "Si O2"
_cell_formula_units_Z 36
_cell_length_a 5.409360
_cell_length_b 17.365731
_cell_length_c 16.945204
_cell_angle_alpha 90.000000
_cell_angle_beta 90.000000
_cell_angle_gamma 90.000000
_cell_volume 1591.789942
_symmetry_space_group_name_H-M "I 21 21 21"
_symmetry_group_IT_number 24
_symmetry_cell_setting 'orthorhombic'
loop_
_space_group_symop_operation_xyz
x,y,z
-x,1/2-y,z
x,-y,1/2-z
1/2-x,y,-z
1/2+x,1/2+y,1/2+z
1/2-x,-y,1/2+z
1/2+x,1/2-y,-z
-x,1/2+y,1/2-z
loop_
_atom_site_type_symbol
_atom_site_label
_atom_site_fract_x
_atom_site_fract_y
_atom_site_fract_z
Si Si1 0.654121 0.406510 0.633297
Si Si2 0.997553 0.155841 0.042540
Si Si3 0.459497 0.659724 0.725648
Si Si4 0.500000 0.250000 0.545845
Si Si5 0.654799 0.056246 0.324317
O O1 0.666012 0.387966 0.727263
O O2 0.595474 0.325274 0.592504
O O3 0.409320 0.458019 0.627481
O O4 0.922175 0.440143 0.617943
O O5 0.969329 0.138040 0.134825
O O6 0.000000 0.250000 0.037571
O O7 0.750000 0.128529 0.000000
O O8 0.250000 0.129529 0.000000
O O9 0.500000 0.750000 0.731203
O O10 0.221751 0.636636 0.778693
O O11 0.250000 0.274723 0.500000
O O12 0.629727 0.000000 0.250000
#
# Coordination Sequence:
#
# PCOD9334840 Si02
#       5
#     8   8   8   4   8
#     4  10  21  38  60  89 118 158 208 260 320 381
#     4   9  18  30  46  77 114 144 172 220 288 349
#     4   9  20  34  60  86 117 148 201 257 305 357
#     4  12  24  40  64  98 134 164 210 284 354 392
#     4  10  21  37  61  89 120 160 211 259 314 382
#
# _framework density 22.616047999999999
#
# number of rings (size 3 to 8) (size 9 to 14) (size 15 to 20)
#    1.333    0.889    1.111    2.000    3.111    2.667 
#    0.000    0.000    0.000    5.333    0.000    0.000 
#    0.000    0.000    0.000    0.000    0.000    0.000 
#
# Total GULP energy -100227.859048 kJ/mol
# GULP energy per Si atom -5568.214392 kJ/mol
# Density = 2.256457 g / cm^3
# Si number density = 22.616048 Si / 1000 Ang^3
#
#
#
# Elastic Constant Matrix: (Units=GPa)
#
#
# Indices 1 2 3 4 5 6 
#
# 1 198.0001 21.8951 22.6291 0.0000 0.0000 0.0000
# 2 21.8951 66.7054 -18.0170 0.0000 0.0000 0.0000
# 3 22.6291 -18.0170 43.2658 0.0000 0.0000 0.0000
# 4 0.0000 0.0000 0.0000 2.5366 0.0000 0.0000
# 5 0.0000 0.0000 0.0000 0.0000 21.9026 0.0000
# 6 0.0000 0.0000 0.0000 0.0000 0.0000 10.7801
#
#
#
# Elastic Compliance Matrix: (Units=1/GPa)
#
#
# Indices 1 2 3 4 5 6 
#
# 1 0.005896 -0.003119 -0.004383 0.000000 0.000000 0.000000
# 2 -0.003119 0.018541 0.009352 0.000000 0.000000 0.000000
# 3 -0.004383 0.009352 0.029300 0.000000 0.000000 0.000000
# 4 0.000000 0.000000 0.000000 0.394227 0.000000 0.000000
# 5 0.000000 0.000000 0.000000 0.000000 0.045657 0.000000
# 6 0.000000 0.000000 0.000000 0.000000 0.000000 0.092763
#
#
# Mechanical properties :
#
#
# Convention : Reuss Voigt Hill
#
# Bulk Modulus (GPa) = 17.41002 40.10955 28.75979
# Shear Modulus (GPa) = 8.30800 25.80814 17.05807
#
# Velocity S-wave (km/s) = 1.91872 3.38175 2.74933
# Velocity P-wave (km/s) = 3.55295 5.74646 4.77730
#
# Compressibility (1/GPa) = 0.05743817
#
# Stress axis : x y z
#
# Youngs Moduli (GPa) = 169.59688 53.93396 34.12987
#
# Poissons Ratio (x) = 0.16823 0.14959
# Poissons Ratio (y) = 0.52900 -0.31920
# Poissons Ratio (z) = 0.74332 -0.50441
#
# Static dielectric constant tensor:
#      x y z
#    x 2.099810 0.000000 0.000000 
#    y 0.000000 1.855760 0.000000 
#    z 0.000000 0.000000 1.838300 
# 
# From -- ./inp_files/23611.got.cif
#   From: 2010.05.17/outbox.cif.g08.bks.cpg/sg24_12_cif.got.tgz:23611.got - 2010.06.04 00:33:39.
