data_PCOD9334782
_publ_section_title
;
Structure prediction by ZEFSAII (Michael W. Deem and Ramdas Pophale) SiO2 
 PCOD9334782
Probable space group: I 21 21 21
;
_chemical_formula_sum "Si O2"
_cell_formula_units_Z 60
_cell_length_a 16.418502
_cell_length_b 9.924690
_cell_length_c 18.802413
_cell_angle_alpha 90.000000
_cell_angle_beta 90.000000
_cell_angle_gamma 90.000000
_cell_volume 3063.825796
_symmetry_space_group_name_H-M "I 21 21 21"
_symmetry_group_IT_number 24
_symmetry_cell_setting 'orthorhombic'
loop_
_space_group_symop_operation_xyz
x,y,z
-x,1/2-y,z
x,-y,1/2-z
1/2-x,y,-z
1/2+x,1/2+y,1/2+z
1/2-x,-y,1/2+z
1/2+x,1/2-y,-z
-x,1/2+y,1/2-z
loop_
_atom_site_type_symbol
_atom_site_label
_atom_site_fract_x
_atom_site_fract_y
_atom_site_fract_z
Si Si1 0.370665 0.645280 0.046872
Si Si2 0.758272 0.468082 0.099209
Si Si3 0.533975 0.110567 0.018081
Si Si4 0.848612 0.815700 0.388251
Si Si5 0.705202 0.899966 0.889840
Si Si6 0.882853 0.436040 0.501139
Si Si7 0.799540 0.500000 0.250000
Si Si8 0.905131 0.233396 0.267730
O O1 0.421616 0.509037 0.062641
O O2 0.295325 0.660402 0.101373
O O3 0.407852 0.794464 0.036134
O O4 0.336572 0.620705 0.966787
O O5 0.801344 0.322725 0.096912
O O6 0.676913 0.484111 0.054521
O O7 0.744405 0.492824 0.181130
O O8 0.824263 0.574655 0.067657
O O9 0.500000 0.250000 0.052298
O O10 0.459252 0.027701 0.984100
O O11 0.592326 0.158117 0.954483
O O12 0.897608 0.820056 0.313548
O O13 0.786065 0.939111 0.382966
O O14 0.646976 0.848641 0.826470
O O15 0.859348 0.374922 0.260321
O O16 0.000000 0.250000 0.287807
#
# Coordination Sequence:
#
# PCOD9334782 Si02
#       8
#     8   8   8   8   8   8   4   8
#     4  10  22  37  57  83 116 152 207 254 296 359
#     4  10  21  36  58  84 118 158 205 249 304 364
#     4  11  22  37  58  87 121 157 197 254 309 358
#     4  10  22  36  55  86 123 160 196 245 297 374
#     4  10  21  37  56  79 117 158 204 241 303 346
#     4  11  21  36  61  85 119 155 206 252 310 361
#     4  10  22  36  54  78 118 158 202 238 302 358
#     4  11  23  35  55  83 121 164 197 239 290 370
#
# _framework density 19.583358
#
# number of rings (size 3 to 8) (size 9 to 14) (size 15 to 20)
#    0.000    1.600    1.333    4.400    5.600    4.267 
#    0.000    0.000    0.000    0.000    3.467    0.000 
#    0.000    0.000    0.000    0.000    0.000    0.000 
#
# Total GULP energy -167245.214639 kJ/mol
# GULP energy per Si atom -5574.840488 kJ/mol
# Density = 1.953879 g / cm^3
# Si number density = 19.583358 Si / 1000 Ang^3
#
#
#
# Elastic Constant Matrix: (Units=GPa)
#
#
# Indices 1 2 3 4 5 6 
#
# 1 36.2891 19.1248 21.7572 0.0000 0.0000 0.0000
# 2 19.1248 114.3366 10.7792 0.0000 0.0000 0.0000
# 3 21.7572 10.7792 70.4723 0.0000 0.0000 0.0000
# 4 0.0000 0.0000 0.0000 20.1078 0.0000 0.0000
# 5 0.0000 0.0000 0.0000 0.0000 11.5511 0.0000
# 6 0.0000 0.0000 0.0000 0.0000 0.0000 28.9220
#
#
#
# Elastic Compliance Matrix: (Units=1/GPa)
#
#
# Indices 1 2 3 4 5 6 
#
# 1 0.036553 -0.005124 -0.010501 0.000000 0.000000 0.000000
# 2 -0.005124 0.009592 0.000115 0.000000 0.000000 0.000000
# 3 -0.010501 0.000115 0.017415 0.000000 0.000000 0.000000
# 4 0.000000 0.000000 0.000000 0.049732 0.000000 0.000000
# 5 0.000000 0.000000 0.000000 0.000000 0.086572 0.000000
# 6 0.000000 0.000000 0.000000 0.000000 0.000000 0.034576
#
#
# Mechanical properties :
#
#
# Convention : Reuss Voigt Hill
#
# Bulk Modulus (GPa) = 30.73283 36.04672 33.38977
# Shear Modulus (GPa) = 18.09581 23.41198 20.75390
#
# Velocity S-wave (km/s) = 3.04310 3.46136 3.25895
# Velocity P-wave (km/s) = 5.29856 5.86698 5.59000
#
# Compressibility (1/GPa) = 0.03253849
#
# Stress axis : x y z
#
# Youngs Moduli (GPa) = 27.35745 104.24937 57.42316
#
# Poissons Ratio (x) = 0.53419 0.60303
# Poissons Ratio (y) = 0.14018 -0.00659
# Poissons Ratio (z) = 0.28729 -0.01197
#
# Static dielectric constant tensor:
#      x y z
#    x 1.688550 0.000000 0.000000 
#    y 0.000000 1.764040 0.000000 
#    z 0.000000 0.000000 1.684430 
# 
# From -- ./inp_files/31202.got.cif
#   From: 2010.05.17/outbox.cif.g08.bks.cpg/sg24_16_cif.got.tgz:31202.got - 2010.06.04 00:33:39.
