data_PCOD9334113
_publ_section_title
;
Structure prediction by ZEFSAII (Michael W. Deem and Ramdas Pophale) SiO2 
 PCOD9334113
Probable space group: I 21 21 21
;
_chemical_formula_sum "Si O2"
_cell_formula_units_Z 48
_cell_length_a 18.551130
_cell_length_b 13.379875
_cell_length_c 9.854496
_cell_angle_alpha 90.000000
_cell_angle_beta 90.000000
_cell_angle_gamma 90.000000
_cell_volume 2446.002195
_symmetry_space_group_name_H-M "I 21 21 21"
_symmetry_group_IT_number 24
_symmetry_cell_setting 'orthorhombic'
loop_
_space_group_symop_operation_xyz
x,y,z
-x,1/2-y,z
x,-y,1/2-z
1/2-x,y,-z
1/2+x,1/2+y,1/2+z
1/2-x,-y,1/2+z
1/2+x,1/2-y,-z
-x,1/2+y,1/2-z
loop_
_atom_site_type_symbol
_atom_site_label
_atom_site_fract_x
_atom_site_fract_y
_atom_site_fract_z
Si Si1 0.830155 0.901587 0.530772
Si Si2 0.919222 0.212472 0.182781
Si Si3 0.183020 0.307322 0.697025
Si Si4 0.843506 0.413838 0.148967
Si Si5 0.159894 0.624997 0.085688
Si Si6 0.670720 0.407308 0.160387
O O1 0.750000 0.857618 0.500000
O O2 0.890066 0.838683 0.453062
O O3 0.839406 0.889192 0.691158
O O4 0.830019 0.011875 0.466564
O O5 0.869692 0.309212 0.207893
O O6 0.902863 0.137093 0.305488
O O7 0.000000 0.250000 0.173588
O O8 0.145235 0.313435 0.551255
O O9 0.266212 0.335141 0.656794
O O10 0.167193 0.200616 0.766608
O O11 0.870813 0.500000 0.250000
O O12 0.757048 0.421280 0.146771
O O13 0.863994 0.413519 0.989460
O O14 0.643397 0.500000 0.250000
#
# Coordination Sequence:
#
# PCOD9334113 Si02
#       6
#     8   8   8   8   8   8
#     4  12  21  40  68 103 137 167 232 285 346 400
#     4  12  26  43  62  93 137 180 215 270 345 423
#     4  11  21  37  65 104 134 158 216 294 347 383
#     4  10  21  37  59  87 121 162 209 260 313 378
#     4  11  24  35  67 104 134 170 216 286 347 409
#     4  10  20  35  62  96 123 157 211 273 318 378
#
# _framework density 19.623858999999999
#
# number of rings (size 3 to 8) (size 9 to 14) (size 15 to 20)
#    0.000    1.000    6.667    1.000    2.333    2.667 
#    0.000    0.833    0.000    0.000    0.000    0.000 
#    0.000    0.000    0.000    0.000    0.000    0.000 
#
# Total GULP energy -133882.785019 kJ/mol
# GULP energy per Si atom -5578.449376 kJ/mol
# Density = 1.957919 g / cm^3
# Si number density = 19.623859 Si / 1000 Ang^3
#
#
#
# Elastic Constant Matrix: (Units=GPa)
#
#
# Indices 1 2 3 4 5 6 
#
# 1 46.5889 13.6440 40.9759 0.0000 0.0000 0.0000
# 2 13.6440 122.9836 58.5656 0.0000 0.0000 0.0000
# 3 40.9759 58.5656 160.9048 0.0000 0.0000 0.0000
# 4 0.0000 0.0000 0.0000 29.8064 0.0000 0.0000
# 5 0.0000 0.0000 0.0000 0.0000 13.3492 0.0000
# 6 0.0000 0.0000 0.0000 0.0000 0.0000 14.3211
#
#
#
# Elastic Compliance Matrix: (Units=1/GPa)
#
#
# Indices 1 2 3 4 5 6 
#
# 1 0.027672 0.000346 -0.007173 0.000000 0.000000 0.000000
# 2 0.000346 0.009840 -0.003670 0.000000 0.000000 0.000000
# 3 -0.007173 -0.003670 0.009377 0.000000 0.000000 0.000000
# 4 0.000000 0.000000 0.000000 0.033550 0.000000 0.000000
# 5 0.000000 0.000000 0.000000 0.000000 0.074911 0.000000
# 6 0.000000 0.000000 0.000000 0.000000 0.000000 0.069827
#
#
# Mechanical properties :
#
#
# Convention : Reuss Voigt Hill
#
# Bulk Modulus (GPa) = 38.61631 61.87206 50.24418
# Shear Modulus (GPa) = 19.62305 25.98144 22.80224
#
# Velocity S-wave (km/s) = 3.16564 3.64259 3.41246
# Velocity P-wave (km/s) = 5.75176 7.02059 6.41761
#
# Compressibility (1/GPa) = 0.02589579
#
# Stress axis : x y z
#
# Youngs Moduli (GPa) = 36.13815 101.62242 106.64244
#
# Poissons Ratio (x) = -0.03514 0.76491
# Poissons Ratio (y) = -0.01249 0.39135
# Poissons Ratio (z) = 0.25921 0.37292
#
# Static dielectric constant tensor:
#      x y z
#    x 1.687080 0.000000 0.000000 
#    y 0.000000 1.728560 0.000000 
#    z 0.000000 0.000000 1.729590 
# 
# From -- ./inp_files/14141.got.cif
#   From: 2010.05.17/outbox.cif.g08.bks.cpg/sg24_8_cif.got.tgz:14141.got - 2010.06.04 00:33:39.
