data_PCOD9334047
_publ_section_title
;
Structure prediction by ZEFSAII (Michael W. Deem and Ramdas Pophale) SiO2 
 PCOD9334047
Probable space group: I 21 21 21
;
_chemical_formula_sum "Si O2"
_cell_formula_units_Z 64
_cell_length_a 17.457792
_cell_length_b 18.969309
_cell_length_c 10.372989
_cell_angle_alpha 90.000000
_cell_angle_beta 90.000000
_cell_angle_gamma 90.000000
_cell_volume 3435.142386
_symmetry_space_group_name_H-M "I 21 21 21"
_symmetry_group_IT_number 24
_symmetry_cell_setting 'orthorhombic'
loop_
_space_group_symop_operation_xyz
x,y,z
-x,1/2-y,z
x,-y,1/2-z
1/2-x,y,-z
1/2+x,1/2+y,1/2+z
1/2-x,-y,1/2+z
1/2+x,1/2-y,-z
-x,1/2+y,1/2-z
loop_
_atom_site_type_symbol
_atom_site_label
_atom_site_fract_x
_atom_site_fract_y
_atom_site_fract_z
Si Si1 0.297370 0.262810 0.711612
Si Si2 0.770627 0.079238 0.732952
Si Si3 0.403485 0.414218 0.046380
Si Si4 0.079996 0.716314 0.013611
Si Si5 0.532601 0.577160 0.247337
Si Si6 0.341873 0.726693 0.522766
Si Si7 0.901284 0.066359 0.529572
Si Si8 0.372141 0.217537 0.257944
O O1 0.275652 0.346980 0.728915
O O2 0.347674 0.251112 0.585747
O O3 0.343918 0.237658 0.838032
O O4 0.217400 0.221927 0.709313
O O5 0.834187 0.084273 0.847629
O O6 0.820667 0.077331 0.602135
O O7 0.735525 0.000000 0.750000
O O8 0.482904 0.408375 0.123930
O O9 0.401648 0.488440 0.973601
O O10 0.384874 0.347111 0.962966
O O11 0.082264 0.634649 0.052736
O O12 0.089889 0.727312 0.858889
O O13 0.000000 0.750000 0.050629
O O14 0.571467 0.500000 0.250000
O O15 0.467701 0.568215 0.137877
O O16 0.587949 0.642471 0.221857
O O17 0.250000 0.717112 0.500000
O O18 0.376110 0.760998 0.392943
#
# Coordination Sequence:
#
# PCOD9334047 Si02
#       8
#     8   8   8   8   8   8   8   8
#     4  11  23  37  51  85 123 146 186 228 283 335
#     4   9  16  29  52  80 117 153 180 217 271 332
#     4   9  16  31  52  82 117 144 180 234 271 325
#     4  12  23  37  55  81 115 156 191 229 273 330
#     4   9  18  33  58  88 105 131 191 251 281 313
#     4  10  20  35  54  81 116 149 182 224 279 336
#     4   9  17  30  51  83 115 143 187 232 267 320
#     4  11  20  36  62  83 107 144 192 236 275 327
#
# _framework density 18.630960000000002
#
# number of rings (size 3 to 8) (size 9 to 14) (size 15 to 20)
#    0.000    2.000    5.000    2.625    0.000    1.000 
#    2.250    0.000    0.000    4.500    0.000    0.000 
#    0.000    0.000    0.000    0.000    0.000    0.000 
#
# Total GULP energy -178337.690301 kJ/mol
# GULP energy per Si atom -5573.052822 kJ/mol
# Density = 1.858855 g / cm^3
# Si number density = 18.630960 Si / 1000 Ang^3
#
#
#
# Elastic Constant Matrix: (Units=GPa)
#
#
# Indices 1 2 3 4 5 6 
#
# 1 58.0707 35.5604 22.6205 0.0000 0.0000 0.0000
# 2 35.5604 80.7764 12.9672 0.0000 0.0000 0.0000
# 3 22.6205 12.9672 38.2621 0.0000 0.0000 0.0000
# 4 0.0000 0.0000 0.0000 5.6991 0.0000 0.0000
# 5 0.0000 0.0000 0.0000 0.0000 18.2955 0.0000
# 6 0.0000 0.0000 0.0000 0.0000 0.0000 19.9334
#
#
#
# Elastic Compliance Matrix: (Units=1/GPa)
#
#
# Indices 1 2 3 4 5 6 
#
# 1 0.028977 -0.010582 -0.013545 0.000000 0.000000 0.000000
# 2 -0.010582 0.016957 0.000509 0.000000 0.000000 0.000000
# 3 -0.013545 0.000509 0.033970 0.000000 0.000000 0.000000
# 4 0.000000 0.000000 0.000000 0.175468 0.000000 0.000000
# 5 0.000000 0.000000 0.000000 0.000000 0.054658 0.000000
# 6 0.000000 0.000000 0.000000 0.000000 0.000000 0.050167
#
#
# Mechanical properties :
#
#
# Convention : Reuss Voigt Hill
#
# Bulk Modulus (GPa) = 30.60995 35.48952 33.04974
# Shear Modulus (GPa) = 11.95255 15.84967 13.90111
#
# Velocity S-wave (km/s) = 2.53562 2.91987 2.73450
# Velocity P-wave (km/s) = 5.00377 5.51884 5.26760
#
# Compressibility (1/GPa) = 0.03266911
#
# Stress axis : x y z
#
# Youngs Moduli (GPa) = 34.51067 58.97392 29.43737
#
# Poissons Ratio (x) = 0.62407 0.39872
# Poissons Ratio (y) = 0.36519 -0.01500
# Poissons Ratio (z) = 0.46743 -0.03004
#
# Static dielectric constant tensor:
#      x y z
#    x 1.632200 0.000000 0.000000 
#    y 0.000000 1.701620 0.000000 
#    z 0.000000 0.000000 1.696270 
# 
# From -- ./inp_files/21777.got.cif
#   From: 2010.05.17/outbox.cif.g08.bks.cpg/sg24_11_cif.got.tgz:21777.got - 2010.06.04 00:33:39.
