data_PCOD9334838
_publ_section_title
;
Structure prediction by ZEFSAII (Michael W. Deem and Ramdas Pophale) SiO2 
 PCOD9334838
Probable space group: I 21 21 21
;
_chemical_formula_sum "Si O2"
_cell_formula_units_Z 64
_cell_length_a 14.733253
_cell_length_b 19.034265
_cell_length_c 12.239784
_cell_angle_alpha 90.000000
_cell_angle_beta 90.000000
_cell_angle_gamma 90.000000
_cell_volume 3432.483923
_symmetry_space_group_name_H-M "I 21 21 21"
_symmetry_group_IT_number 24
_symmetry_cell_setting 'orthorhombic'
loop_
_space_group_symop_operation_xyz
x,y,z
-x,1/2-y,z
x,-y,1/2-z
1/2-x,y,-z
1/2+x,1/2+y,1/2+z
1/2-x,-y,1/2+z
1/2+x,1/2-y,-z
-x,1/2+y,1/2-z
loop_
_atom_site_type_symbol
_atom_site_label
_atom_site_fract_x
_atom_site_fract_y
_atom_site_fract_z
Si Si1 0.285006 0.608838 0.211798
Si Si2 0.741355 0.263580 0.629331
Si Si3 0.517855 0.928991 0.316411
Si Si4 0.027031 0.412791 0.068550
Si Si5 0.580678 0.306369 0.791563
Si Si6 0.644486 0.776331 0.501895
Si Si7 0.796447 0.031586 0.111389
Si Si8 0.413154 0.792126 0.270697
O O1 0.257213 0.679329 0.150077
O O2 0.384060 0.600872 0.269515
O O3 0.259548 0.537920 0.145503
O O4 0.217377 0.598265 0.311491
O O5 0.750000 0.276882 0.500000
O O6 0.652472 0.295744 0.691487
O O7 0.828353 0.293012 0.691863
O O8 0.502972 0.940258 0.446460
O O9 0.445730 0.870252 0.288838
O O10 0.505313 0.000000 0.250000
O O11 0.083175 0.343089 0.031269
O O12 0.095715 0.473746 0.108789
O O13 0.961749 0.381298 0.164433
O O14 0.500000 0.250000 0.769477
O O15 0.629290 0.279278 0.901654
O O16 0.750000 0.792038 0.500000
O O17 0.612920 0.744702 0.385772
O O18 0.750000 0.050724 0.000000
O O19 0.500000 0.750000 0.224806
#
# Coordination Sequence:
#
# PCOD9334838 Si02
#       8
#     8   8   8   8   8   8   8   8
#     4  11  21  37  58  92 133 175 213 254 327 407
#     4  12  26  42  64  89 130 177 224 275 331 399
#     4  12  22  37  61  96 135 166 206 265 336 403
#     4  11  20  33  60  95 134 167 210 272 334 385
#     4  10  21  37  60  95 128 163 214 276 331 383
#     4  11  18  31  63  98 129 161 213 279 337 371
#     4  11  20  32  57  93 135 175 209 254 325 394
#     4  12  22  39  64  97 127 170 221 273 330 392
#
# _framework density 18.645388000000001
#
# number of rings (size 3 to 8) (size 9 to 14) (size 15 to 20)
#    0.000    0.750    7.500    2.625    0.000    0.500 
#    0.000    0.000    2.750    2.250    0.000    0.000 
#    0.000    0.000    0.000    0.000    0.000    0.000 
#
# Total GULP energy -178141.262890 kJ/mol
# GULP energy per Si atom -5566.914465 kJ/mol
# Density = 1.860295 g / cm^3
# Si number density = 18.645388 Si / 1000 Ang^3
#
#
#
# Elastic Constant Matrix: (Units=GPa)
#
#
# Indices 1 2 3 4 5 6 
#
# 1 101.0133 26.0481 54.7951 0.0000 0.0000 0.0000
# 2 26.0481 57.6594 19.9865 0.0000 0.0000 0.0000
# 3 54.7951 19.9865 122.9664 0.0000 0.0000 0.0000
# 4 0.0000 0.0000 0.0000 11.2705 0.0000 0.0000
# 5 0.0000 0.0000 0.0000 0.0000 17.0126 0.0000
# 6 0.0000 0.0000 0.0000 0.0000 0.0000 30.6924
#
#
#
# Elastic Compliance Matrix: (Units=1/GPa)
#
#
# Indices 1 2 3 4 5 6 
#
# 1 0.014046 -0.004425 -0.005540 0.000000 0.000000 0.000000
# 2 -0.004425 0.019773 -0.001242 0.000000 0.000000 0.000000
# 3 -0.005540 -0.001242 0.010803 0.000000 0.000000 0.000000
# 4 0.000000 0.000000 0.000000 0.088727 0.000000 0.000000
# 5 0.000000 0.000000 0.000000 0.000000 0.058780 0.000000
# 6 0.000000 0.000000 0.000000 0.000000 0.000000 0.032581
#
#
# Mechanical properties :
#
#
# Convention : Reuss Voigt Hill
#
# Bulk Modulus (GPa) = 45.02913 53.69984 49.36449
# Shear Modulus (GPa) = 19.64436 23.84905 21.74671
#
# Velocity S-wave (km/s) = 3.24941 3.58031 3.41886
# Velocity P-wave (km/s) = 6.18716 6.77898 6.48982
#
# Compressibility (1/GPa) = 0.02220785
#
# Stress axis : x y z
#
# Youngs Moduli (GPa) = 71.19562 50.57458 92.56926
#
# Poissons Ratio (x) = 0.22380 0.51281
# Poissons Ratio (y) = 0.31505 0.11497
# Poissons Ratio (z) = 0.39440 0.06281
#
# Static dielectric constant tensor:
#      x y z
#    x 1.705130 0.000000 0.000000 
#    y 0.000000 1.670690 0.000000 
#    z 0.000000 0.000000 1.656530 
# 
# From -- ./inp_files/21059.got.cif
#   From: 2010.05.17/outbox.cif.g08.bks.cpg/sg24_11_cif.got.tgz:21059.got - 2010.06.04 00:33:39.
