data_PCOD9334707
_publ_section_title
;
Structure prediction by ZEFSAII (Michael W. Deem and Ramdas Pophale) SiO2 
 PCOD9334707
Probable space group: I 21 21 21
;
_chemical_formula_sum "Si O2"
_cell_formula_units_Z 40
_cell_length_a 9.614315
_cell_length_b 24.111057
_cell_length_c 7.569597
_cell_angle_alpha 90.000000
_cell_angle_beta 90.000000
_cell_angle_gamma 90.000000
_cell_volume 1754.718098
_symmetry_space_group_name_H-M "I 21 21 21"
_symmetry_group_IT_number 24
_symmetry_cell_setting 'orthorhombic'
loop_
_space_group_symop_operation_xyz
x,y,z
-x,1/2-y,z
x,-y,1/2-z
1/2-x,y,-z
1/2+x,1/2+y,1/2+z
1/2-x,-y,1/2+z
1/2+x,1/2-y,-z
-x,1/2+y,1/2-z
loop_
_atom_site_type_symbol
_atom_site_label
_atom_site_fract_x
_atom_site_fract_y
_atom_site_fract_z
Si Si1 0.001889 0.420786 0.841312
Si Si2 0.761126 0.150576 0.284911
Si Si3 0.904067 0.526907 0.007268
Si Si4 0.573203 0.616701 0.692068
Si Si5 0.162342 0.767679 0.176619
O O1 0.015141 0.479582 0.949369
O O2 0.924314 0.431095 0.656858
O O3 0.140947 0.387248 0.797088
O O4 0.912074 0.388462 0.983226
O O5 0.750000 0.148750 0.500000
O O6 0.909924 0.127844 0.228372
O O7 0.764028 0.215314 0.227972
O O8 0.750000 0.501433 0.000000
O O9 0.905892 0.561809 0.187648
O O10 0.656107 0.670976 0.747629
O O11 0.000000 0.750000 0.147117
O O12 0.250000 0.772570 0.000000
#
# Coordination Sequence:
#
# PCOD9334707 Si02
#       5
#     8   8   8   8   8
#     4  11  25  43  73 104 140 192 242 305 367 433
#     4  10  20  45  73 102 147 188 239 303 374 442
#     4  11  26  46  68 102 148 192 241 297 371 448
#     4  11  22  43  74 104 143 189 240 305 365 446
#     4   9  20  40  76 102 145 199 245 302 375 440
#
# _framework density 22.795684999999999
#
# number of rings (size 3 to 8) (size 9 to 14) (size 15 to 20)
#    0.000    1.600    2.000    1.800    5.600    0.000 
#   14.400    0.000   66.000    0.000    0.000    0.000 
#    0.000    0.000    0.000    0.000    0.000    0.000 
#
# Total GULP energy -111618.216339 kJ/mol
# GULP energy per Si atom -5580.910817 kJ/mol
# Density = 2.274380 g / cm^3
# Si number density = 22.795685 Si / 1000 Ang^3
#
#
#
# Elastic Constant Matrix: (Units=GPa)
#
#
# Indices 1 2 3 4 5 6 
#
# 1 85.6611 72.2529 26.8508 0.0005 0.0000 0.0004
# 2 72.2529 159.8245 43.3348 0.0000 0.0004 0.0000
# 3 26.8508 43.3348 99.1657 -0.0050 -0.0029 -0.0011
# 4 0.0005 0.0000 -0.0050 13.8207 0.0005 0.0001
# 5 0.0000 0.0004 -0.0029 0.0005 17.7339 0.0005
# 6 0.0004 0.0000 -0.0011 0.0001 0.0005 45.5664
#
#
#
# Elastic Compliance Matrix: (Units=1/GPa)
#
#
# Indices 1 2 3 4 5 6 
#
# 1 0.019086 -0.008199 -0.001585 -0.000001 0.000000 0.000000
# 2 -0.008199 0.010620 -0.002421 -0.000001 -0.000001 0.000000
# 3 -0.001585 -0.002421 0.011571 0.000004 0.000002 0.000000
# 4 -0.000001 -0.000001 0.000004 0.072355 -0.000002 0.000000
# 5 0.000000 -0.000001 0.000002 -0.000002 0.056389 -0.000001
# 6 0.000000 0.000000 0.000000 0.000000 -0.000001 0.021946
#
#
# Mechanical properties :
#
#
# Convention : Reuss Voigt Hill
#
# Bulk Modulus (GPa) = 59.28439 69.94758 64.61598
# Shear Modulus (GPa) = 22.52261 28.90504 25.71383
#
# Velocity S-wave (km/s) = 3.14669 3.56477 3.36223
# Velocity P-wave (km/s) = 6.26622 6.90613 6.59394
#
# Compressibility (1/GPa) = 0.01686785
#
# Stress axis : x y z
#
# Youngs Moduli (GPa) = 52.39420 94.16530 86.42128
#
# Poissons Ratio (x) = 0.77202 0.13699
# Poissons Ratio (y) = 0.42956 0.20921
# Poissons Ratio (z) = 0.08305 0.22796
#
# Static dielectric constant tensor:
#      x y z
#    x 1.792700 0.000000 0.000000 
#    y 0.000000 1.951660 0.000000 
#    z 0.000000 0.000000 1.892250 
# 
# From -- ./inp_files/9297.got.cif
#   From: 2010.05.17/outbox.cif.g08.bks.cpg/sg24_5_cif.got.tgz:9297.got - 2010.06.04 00:33:39.
