data_PCOD9334179
_publ_section_title
;
Structure prediction by ZEFSAII (Michael W. Deem and Ramdas Pophale) SiO2 
 PCOD9334179
Probable space group: I 21 21 21
;
_chemical_formula_sum "Si O2"
_cell_formula_units_Z 64
_cell_length_a 18.835457
_cell_length_b 12.174655
_cell_length_c 14.887827
_cell_angle_alpha 90.000000
_cell_angle_beta 90.000000
_cell_angle_gamma 90.000000
_cell_volume 3414.004888
_symmetry_space_group_name_H-M "I 21 21 21"
_symmetry_group_IT_number 24
_symmetry_cell_setting 'orthorhombic'
loop_
_space_group_symop_operation_xyz
x,y,z
-x,1/2-y,z
x,-y,1/2-z
1/2-x,y,-z
1/2+x,1/2+y,1/2+z
1/2-x,-y,1/2+z
1/2+x,1/2-y,-z
-x,1/2+y,1/2-z
loop_
_atom_site_type_symbol
_atom_site_label
_atom_site_fract_x
_atom_site_fract_y
_atom_site_fract_z
Si Si1 0.651947 0.250944 0.352024
Si Si2 0.082543 0.229364 0.040157
Si Si3 0.297925 0.622489 0.858794
Si Si4 0.796420 0.496949 0.627256
Si Si5 0.798810 0.865674 0.355664
Si Si6 0.582759 0.738606 0.959349
Si Si7 0.152690 0.235304 0.847515
Si Si8 0.854929 0.501308 0.073740
O O1 0.722887 0.182657 0.377524
O O2 0.675210 0.377804 0.348744
O O3 0.596776 0.243771 0.433831
O O4 0.628608 0.219461 0.250382
O O5 0.101611 0.241099 0.933814
O O6 0.000000 0.250000 0.053677
O O7 0.136109 0.310074 0.092416
O O8 0.098613 0.107517 0.078076
O O9 0.291409 0.493637 0.880813
O O10 0.310215 0.636616 0.751887
O O11 0.363134 0.678543 0.910332
O O12 0.829951 0.606711 0.666666
O O13 0.818565 0.507093 0.523582
O O14 0.711855 0.499585 0.640218
O O15 0.726154 0.797782 0.372621
O O16 0.500000 0.750000 0.939200
O O17 0.605317 0.616651 0.927730
#
# Coordination Sequence:
#
# PCOD9334179 Si02
#       8
#     8   8   8   8   8   8   8   8
#     4  10  20  36  60  88 114 147 191 234 278 331
#     4  11  23  37  58  84 119 155 183 228 284 340
#     4  10  22  40  61  84 110 145 194 241 280 331
#     4   9  15  32  60  82 111 141 181 244 280 309
#     4  10  22  40  61  84 110 145 194 241 280 331
#     4  11  23  37  58  84 119 155 183 228 284 340
#     4  10  20  36  60  88 114 147 191 234 278 331
#     4   9  18  34  54  86 110 138 195 231 268 338
#
# _framework density 18.746312
#
# number of rings (size 3 to 8) (size 9 to 14) (size 15 to 20)
#    0.000    2.000    2.500    1.125    1.750    3.000 
#    0.000    0.625    0.000    0.000    0.000    0.000 
#    0.000    0.000    0.000    0.000    0.000    0.000 
#
# Total GULP energy -178399.054992 kJ/mol
# GULP energy per Si atom -5574.970469 kJ/mol
# Density = 1.870364 g / cm^3
# Si number density = 18.746312 Si / 1000 Ang^3
#
#
#
# Elastic Constant Matrix: (Units=GPa)
#
#
# Indices 1 2 3 4 5 6 
#
# 1 50.4424 21.0809 -5.8680 0.0000 0.0000 0.0000
# 2 21.0809 103.6904 0.3600 0.0000 0.0000 0.0000
# 3 -5.8680 0.3600 28.5613 0.0000 0.0000 0.0000
# 4 0.0000 0.0000 0.0000-2018.3221 0.0000 0.0000
# 5 0.0000 0.0000 0.0000 0.0000 13.0128 0.0000
# 6 0.0000 0.0000 0.0000 0.0000 0.0000 6.0273
#
#
#
# Elastic Compliance Matrix: (Units=1/GPa)
#
#
# Indices 1 2 3 4 5 6 
#
# 1 0.022262 -0.004542 0.004631 0.000000 0.000000 0.000000
# 2 -0.004542 0.010571 -0.001066 0.000000 0.000000 0.000000
# 3 0.004631 -0.001066 0.035977 0.000000 0.000000 0.000000
# 4 0.000000 0.000000 0.000000 -0.000495 0.000000 0.000000
# 5 0.000000 0.000000 0.000000 0.000000 0.076847 0.000000
# 6 0.000000 0.000000 0.000000 0.000000 0.000000 0.165911
#
#
# Mechanical properties :
#
#
# Convention : Reuss Voigt Hill
#
# Bulk Modulus (GPa) = 14.95771 23.75997 19.35884
# Shear Modulus (GPa) = 14.91144 -388.71497 -186.90177
#
# Velocity S-wave (km/s) = 2.82340 -14.41546 -9.99585
# Velocity P-wave (km/s) = 4.31569 16.25952 11.08483
#
# Compressibility (1/GPa) = 0.06685514
#
# Stress axis : x y z
#
# Youngs Moduli (GPa) = 44.92060 94.59658 27.79534
#
# Poissons Ratio (x) = 0.42965 -0.12872
# Poissons Ratio (y) = 0.20403 0.02964
# Poissons Ratio (z) = -0.20803 0.10088
#
# Static dielectric constant tensor:
#      x y z
#    x 1.848050 0.000000 0.000000 
#    y 0.000000 1.639410 0.000000 
#    z 0.000000 0.000000 1.717790 
# 
# From -- ./inp_files/27215.got.cif
#   From: 2010.05.17/outbox.cif.g08.bks.cpg/sg24_14_cif.got.tgz:27215.got - 2010.06.04 00:33:39.
