data_PCOD9334351
_publ_section_title
;
Structure prediction by ZEFSAII (Michael W. Deem and Ramdas Pophale) SiO2 
 PCOD9334351
Probable space group: I 21 21 21
;
_chemical_formula_sum "Si O2"
_cell_formula_units_Z 56
_cell_length_a 15.537716
_cell_length_b 8.020171
_cell_length_c 21.858021
_cell_angle_alpha 90.000000
_cell_angle_beta 90.000000
_cell_angle_gamma 90.000000
_cell_volume 2723.840331
_symmetry_space_group_name_H-M "I 21 21 21"
_symmetry_group_IT_number 24
_symmetry_cell_setting 'orthorhombic'
loop_
_space_group_symop_operation_xyz
x,y,z
-x,1/2-y,z
x,-y,1/2-z
1/2-x,y,-z
1/2+x,1/2+y,1/2+z
1/2-x,-y,1/2+z
1/2+x,1/2-y,-z
-x,1/2+y,1/2-z
loop_
_atom_site_type_symbol
_atom_site_label
_atom_site_fract_x
_atom_site_fract_y
_atom_site_fract_z
Si Si1 0.527046 0.436434 0.491031
Si Si2 0.429607 0.876754 0.203311
Si Si3 0.820291 0.593312 0.904652
Si Si4 0.692349 0.158540 0.209845
Si Si5 0.250000 0.642148 0.500000
Si Si6 0.683206 0.663137 0.618037
Si Si7 0.372919 0.529964 0.093329
Si Si8 0.500000 0.250000 0.919557
O O1 0.500000 0.250000 0.513931
O O2 0.626576 0.444614 0.467297
O O3 0.469586 0.457318 0.430237
O O4 0.500985 0.585773 0.536366
O O5 0.500000 0.750000 0.178211
O O6 0.378081 0.974726 0.151387
O O7 0.361998 0.774995 0.244852
O O8 0.476325 0.000000 0.250000
O O9 0.725532 0.519192 0.894385
O O10 0.829749 0.790745 0.895033
O O11 0.768668 0.257934 0.176225
O O12 0.722011 0.000000 0.250000
O O13 0.638065 0.085017 0.152389
O O14 0.289686 0.746174 0.555086
O O15 0.322254 0.537616 0.465677
O O16 0.582904 0.705785 0.621381
#
# Coordination Sequence:
#
# PCOD9334351 Si02
#       8
#     8   8   8   8   4   8   8   4
#     4  10  23  39  63 100 141 174 222 276 345 413
#     4  12  24  38  61  97 138 178 215 260 328 411
#     4  11  23  39  61  97 135 168 218 274 334 409
#     4  11  23  40  65  91 136 178 219 271 332 406
#     4  10  20  38  60  92 122 170 214 270 338 396
#     4  11  24  42  65  95 126 178 231 278 346 396
#     4  10  21  38  62  95 132 175 217 269 335 404
#     4  12  24  46  72  90 138 178 236 298 344 402
#
# _framework density 20.559208000000002
#
# number of rings (size 3 to 8) (size 9 to 14) (size 15 to 20)
#    0.000    1.143    4.286    2.571    4.000    2.857 
#    0.000    0.000    3.143    0.000    0.000    0.000 
#    0.000    0.000    0.000    0.000    0.000    0.000 
#
# Total GULP energy -156234.928975 kJ/mol
# GULP energy per Si atom -5579.818892 kJ/mol
# Density = 2.051241 g / cm^3
# Si number density = 20.559208 Si / 1000 Ang^3
#
#
#
# Elastic Constant Matrix: (Units=GPa)
#
#
# Indices 1 2 3 4 5 6 
#
# 1 113.8330 29.2150 23.7918 0.0000 0.0000 0.0000
# 2 29.2150 72.8201 18.6187 0.0000 0.0000 0.0000
# 3 23.7918 18.6187 82.0693 0.0000 0.0000 0.0000
# 4 0.0000 0.0000 0.0000 -4.4425 0.0000 0.0000
# 5 0.0000 0.0000 0.0000 0.0000 32.2022 0.0000
# 6 0.0000 0.0000 0.0000 0.0000 0.0000 29.1874
#
#
#
# Elastic Compliance Matrix: (Units=1/GPa)
#
#
# Indices 1 2 3 4 5 6 
#
# 1 0.010135 -0.003519 -0.002140 0.000000 0.000000 0.000000
# 2 -0.003519 0.015800 -0.002564 0.000000 0.000000 0.000000
# 3 -0.002140 -0.002564 0.013387 0.000000 0.000000 0.000000
# 4 0.000000 0.000000 0.000000 -0.225097 0.000000 0.000000
# 5 0.000000 0.000000 0.000000 0.000000 0.031054 0.000000
# 6 0.000000 0.000000 0.000000 0.000000 0.000000 0.034261
#
#
# Mechanical properties :
#
#
# Convention : Reuss Voigt Hill
#
# Bulk Modulus (GPa) = 43.71454 45.77482 44.74468
# Shear Modulus (GPa) = -51.87371 24.52921 -13.67225
#
# Velocity S-wave (km/s) = -5.02853 3.45788 -2.58159
# Velocity P-wave (km/s) = 3.52221 6.18512 3.59512
#
# Compressibility (1/GPa) = 0.02287568
#
# Stress axis : x y z
#
# Youngs Moduli (GPa) = 98.66605 63.29141 74.69984
#
# Poissons Ratio (x) = 0.22273 0.15984
# Poissons Ratio (y) = 0.34721 0.19155
# Poissons Ratio (z) = 0.21113 0.16230
#
# Static dielectric constant tensor:
#      x y z
#    x 2.909340 0.000000 0.000000 
#    y 0.000000 1.797720 0.000000 
#    z 0.000000 0.000000 1.823120 
# 
# From -- ./inp_files/33795.got.cif
#   From: 2010.05.17/outbox.cif.g08.bks.cpg/sg24_17_cif.got.tgz:33795.got - 2010.06.04 00:33:39.
