data_PCOD9334622
_publ_section_title
;
Structure prediction by ZEFSAII (Michael W. Deem and Ramdas Pophale) SiO2 
 PCOD9334622
Probable space group: I 21 21 21
;
_chemical_formula_sum "Si O2"
_cell_formula_units_Z 40
_cell_length_a 14.156642
_cell_length_b 15.315068
_cell_length_c 9.172795
_cell_angle_alpha 90.000000
_cell_angle_beta 90.000000
_cell_angle_gamma 90.000000
_cell_volume 1988.753087
_symmetry_space_group_name_H-M "I 21 21 21"
_symmetry_group_IT_number 24
_symmetry_cell_setting 'orthorhombic'
loop_
_space_group_symop_operation_xyz
x,y,z
-x,1/2-y,z
x,-y,1/2-z
1/2-x,y,-z
1/2+x,1/2+y,1/2+z
1/2-x,-y,1/2+z
1/2+x,1/2-y,-z
-x,1/2+y,1/2-z
loop_
_atom_site_type_symbol
_atom_site_label
_atom_site_fract_x
_atom_site_fract_y
_atom_site_fract_z
Si Si1 0.581347 0.896475 0.523992
Si Si2 0.881521 0.855495 0.801341
Si Si3 0.750000 0.971773 0.000000
Si Si4 0.000000 0.250000 0.238602
Si Si5 0.438850 0.971013 0.101804
Si Si6 0.140109 0.198193 0.493383
O O1 0.618972 0.852786 0.373291
O O2 0.548375 0.825247 0.640556
O O3 0.664856 0.966324 0.559114
O O4 0.486427 0.950932 0.486322
O O5 0.971249 0.914256 0.844181
O O6 0.794699 0.909322 0.874778
O O7 0.894193 0.762034 0.876616
O O8 0.083764 0.221125 0.347424
O O9 0.388715 0.000000 0.250000
O O10 0.376284 0.903850 0.015540
O O11 0.250000 0.216137 0.500000
#
# Coordination Sequence:
#
# PCOD9334622 Si02
#       6
#     8   8   4   4   8   8
#     4  10  25  41  69 102 148 177 228 292 363 415
#     4  10  20  41  72  99 137 179 225 290 353 412
#     4  10  20  40  72 112 132 178 240 290 350 422
#     4  12  28  46  66 106 144 186 224 312 362 418
#     4   9  20  43  68  92 125 190 229 278 342 414
#     4  12  25  44  70  98 138 188 239 282 355 432
#
# _framework density 20.113105000000001
#
# number of rings (size 3 to 8) (size 9 to 14) (size 15 to 20)
#    0.000    1.600    3.000    1.800    8.400    2.400 
#    3.600    0.000    0.000    0.000    0.000    0.000 
#    0.000    0.000    0.000    0.000    0.000    0.000 
#
# Total GULP energy -111584.012660 kJ/mol
# GULP energy per Si atom -5579.200633 kJ/mol
# Density = 2.006733 g / cm^3
# Si number density = 20.113105 Si / 1000 Ang^3
#
#
#
# Elastic Constant Matrix: (Units=GPa)
#
#
# Indices 1 2 3 4 5 6 
#
# 1 92.3986 36.3044 55.0891 0.0000 0.0000 0.0000
# 2 36.3044 111.3291 66.6160 0.0000 0.0000 0.0000
# 3 55.0891 66.6160 118.8578 0.0000 0.0000 0.0000
# 4 0.0000 0.0000 0.0000 109.5792 0.0000 0.0000
# 5 0.0000 0.0000 0.0000 0.0000 26.0108 0.0000
# 6 0.0000 0.0000 0.0000 0.0000 0.0000 14.8388
#
#
#
# Elastic Compliance Matrix: (Units=1/GPa)
#
#
# Indices 1 2 3 4 5 6 
#
# 1 0.015045 -0.001104 -0.006355 0.000000 0.000000 0.000000
# 2 -0.001104 0.013596 -0.007108 0.000000 0.000000 0.000000
# 3 -0.006355 -0.007108 0.015343 0.000000 0.000000 0.000000
# 4 0.000000 0.000000 0.000000 0.009126 0.000000 0.000000
# 5 0.000000 0.000000 0.000000 0.000000 0.038446 0.000000
# 6 0.000000 0.000000 0.000000 0.000000 0.000000 0.067391
#
#
# Mechanical properties :
#
#
# Convention : Reuss Voigt Hill
#
# Bulk Modulus (GPa) = 67.34002 70.95607 69.14804
# Shear Modulus (GPa) = 25.90281 41.05749 33.48015
#
# Velocity S-wave (km/s) = 3.59257 4.52301 4.08437
# Velocity P-wave (km/s) = 7.12475 7.91403 7.52974
#
# Compressibility (1/GPa) = 0.01485001
#
# Stress axis : x y z
#
# Youngs Moduli (GPa) = 66.46715 73.55223 65.17764
#
# Poissons Ratio (x) = 0.08119 0.41417
# Poissons Ratio (y) = 0.07337 0.46331
# Poissons Ratio (z) = 0.42237 0.52284
#
# Static dielectric constant tensor:
#      x y z
#    x 1.623180 0.000000 0.000000 
#    y 0.000000 1.738180 0.000000 
#    z 0.000000 0.000000 1.881700 
# 
# From -- ./inp_files/12371.got.cif
#   From: 2010.05.17/outbox.cif.g08.bks.cpg/sg24_7_cif.got.tgz:12371.got - 2010.06.04 00:33:39.
