data_PCOD9334842
_publ_section_title
;
Structure prediction by ZEFSAII (Michael W. Deem and Ramdas Pophale) SiO2 
 PCOD9334842
Probable space group: I 21 21 21
;
_chemical_formula_sum "Si O2"
_cell_formula_units_Z 48
_cell_length_a 19.788695
_cell_length_b 10.296724
_cell_length_c 12.895655
_cell_angle_alpha 90.000000
_cell_angle_beta 90.000000
_cell_angle_gamma 90.000000
_cell_volume 2627.602295
_symmetry_space_group_name_H-M "I 21 21 21"
_symmetry_group_IT_number 24
_symmetry_cell_setting 'orthorhombic'
loop_
_space_group_symop_operation_xyz
x,y,z
-x,1/2-y,z
x,-y,1/2-z
1/2-x,y,-z
1/2+x,1/2+y,1/2+z
1/2-x,-y,1/2+z
1/2+x,1/2-y,-z
-x,1/2+y,1/2-z
loop_
_atom_site_type_symbol
_atom_site_label
_atom_site_fract_x
_atom_site_fract_y
_atom_site_fract_z
Si Si1 0.522295 0.500000 0.869093
Si Si2 0.315866 1.000000 0.867025
Si Si3 0.750000 0.274015 0.000000
Si Si4 0.500000 0.250000 0.008155
Si Si5 0.250000 0.774015 0.000000
Si Si6 0.500000 0.250000 0.491845
Si Si7 0.128641 0.345818 0.872438
Si Si8 0.871359 0.154182 0.627562
O O1 0.497266 0.500000 0.750000
O O2 0.603470 0.500000 0.865986
O O3 0.500818 0.625746 0.933405
O O4 0.500818 0.374254 0.933405
O O5 0.289734 0.000000 0.750000
O O6 0.290212 0.871531 0.924495
O O7 0.290212 0.128469 0.924495
O O8 0.696358 0.190992 0.065291
O O9 0.433611 0.264724 0.079490
O O10 0.303642 0.690991 0.065291
O O11 0.566389 0.235276 0.420510
O O12 0.136171 0.318061 0.750000
O O13 0.114770 0.500000 0.883627
#
# Coordination Sequence:
#
# PCOD9334842 Si02
#       8
#     8   8   4   4   4   4   8   8
#     4  11  23  41  65  92 125 163 204 252 309 368
#     4  10  21  37  61  90 119 154 200 252 307 367
#     4  11  21  40  62  88 121 161 202 254 304 368
#     4  12  22  44  64  94 126 164 206 254 310 366
#     4  11  21  40  62  88 121 161 202 254 304 368
#     4  12  22  44  64  94 126 164 206 254 310 366
#     4  11  24  41  63  90 123 163 206 255 309 368
#     4  11  24  41  63  90 123 163 206 255 309 368
#
# _framework density 18.267605
#
# number of rings (size 3 to 8) (size 9 to 14) (size 15 to 20)
#    0.000    1.000    5.000    2.500    0.000    0.000 
#    0.000    1.667    0.000    0.000    0.000    0.000 
#    0.000    0.000    0.000    0.000    0.000    0.000 
#
# Total GULP energy -134076.506360 kJ/mol
# GULP energy per Si atom -5586.521098 kJ/mol
# Density = 1.822603 g / cm^3
# Si number density = 18.267605 Si / 1000 Ang^3
#
#
#
# Elastic Constant Matrix: (Units=GPa)
#
#
# Indices 1 2 3 4 5 6 
#
# 1 85.8410 11.1229 50.8045 0.0000 0.0000 0.0000
# 2 11.1229 94.1669 57.0952 0.0000 0.0000 0.0000
# 3 50.8045 57.0952 164.6996 0.0000 0.0000 0.0000
# 4 0.0000 0.0000 0.0000 51.2348 0.0000 0.0000
# 5 0.0000 0.0000 0.0000 0.0000 26.3819 0.0000
# 6 0.0000 0.0000 0.0000 0.0000 0.0000 -9.5302
#
#
#
# Elastic Compliance Matrix: (Units=1/GPa)
#
#
# Indices 1 2 3 4 5 6 
#
# 1 0.014367 0.001254 -0.004866 0.000000 0.000000 0.000000
# 2 0.001254 0.013555 -0.005086 0.000000 0.000000 0.000000
# 3 -0.004866 -0.005086 0.009336 0.000000 0.000000 0.000000
# 4 0.000000 0.000000 0.000000 0.019518 0.000000 0.000000
# 5 0.000000 0.000000 0.000000 0.000000 0.037905 0.000000
# 6 0.000000 0.000000 0.000000 0.000000 0.000000 -0.104929
#
#
# Mechanical properties :
#
#
# Convention : Reuss Voigt Hill
#
# Bulk Modulus (GPa) = 50.35022 64.75030 57.55026
# Shear Modulus (GPa) = 363.13893 28.66295 195.90094
#
# Velocity S-wave (km/s) = 14.11453 3.96543 10.36689
# Velocity P-wave (km/s) = 17.12452 7.51589 13.22380
#
# Compressibility (1/GPa) = 0.01986089
#
# Stress axis : x y z
#
# Youngs Moduli (GPa) = 69.60320 73.77398 107.11467
#
# Poissons Ratio (x) = -0.09248 0.52126
# Poissons Ratio (y) = -0.08725 0.54475
# Poissons Ratio (z) = 0.33871 0.37519
#
# Static dielectric constant tensor:
#      x y z
#    x 1.601240 0.000000 0.000000 
#    y 0.000000 1.606270 0.000000 
#    z 0.000000 0.000000 1.617910 
# 
# From -- ./inp_files/27087.got.cif
#   From: 2010.05.17/outbox.cif.g08.bks.cpg/sg24_14_cif.got.tgz:27087.got - 2010.06.04 00:33:39.
