data_PCOD9334953
_publ_section_title
;
Structure prediction by ZEFSAII (Michael W. Deem and Ramdas Pophale) SiO2 
 PCOD9334953
Probable space group: I 21 21 21
;
_chemical_formula_sum "Si O2"
_cell_formula_units_Z 44
_cell_length_a 22.769787
_cell_length_b 4.984695
_cell_length_c 18.080221
_cell_angle_alpha 90.000000
_cell_angle_beta 90.000000
_cell_angle_gamma 90.000000
_cell_volume 2052.113100
_symmetry_space_group_name_H-M "I 21 21 21"
_symmetry_group_IT_number 24
_symmetry_cell_setting 'orthorhombic'
loop_
_space_group_symop_operation_xyz
x,y,z
-x,1/2-y,z
x,-y,1/2-z
1/2-x,y,-z
1/2+x,1/2+y,1/2+z
1/2-x,-y,1/2+z
1/2+x,1/2-y,-z
-x,1/2+y,1/2-z
loop_
_atom_site_type_symbol
_atom_site_label
_atom_site_fract_x
_atom_site_fract_y
_atom_site_fract_z
Si Si1 0.334283 0.975697 0.334911
Si Si2 0.756526 0.026710 0.664238
Si Si3 0.154242 0.297984 0.063809
Si Si4 0.061235 0.376071 0.176812
Si Si5 0.500000 0.250000 0.557692
Si Si6 0.385188 0.825379 0.021115
O O1 0.277325 0.168406 0.344812
O O2 0.379427 0.097246 0.393507
O O3 0.353919 0.000000 0.250000
O O4 0.312264 0.672223 0.345827
O O5 0.708635 0.930682 0.605692
O O6 0.737015 0.000000 0.750000
O O7 0.109166 0.214956 0.130499
O O8 0.129597 0.524636 0.006694
O O9 0.161007 0.026149 0.018330
O O10 0.089057 0.500000 0.250000
O O11 0.037991 0.574688 0.113953
O O12 0.000000 0.250000 0.203516
O O13 0.451079 0.108358 0.507422
#
# Coordination Sequence:
#
# PCOD9334953 Si02
#       6
#     8   8   8   8   4   8
#     4  10  22  40  62  83 114 152 195 240 306 356
#     4  10  21  39  58  87 121 156 190 240 286 349
#     4  11  23  36  58  89 119 153 196 233 290 338
#     4  11  20  35  55  80 116 157 194 225 273 342
#     4  10  22  38  54  82 118 148 196 242 292 330
#     4  11  23  38  60  85 115 155 191 250 290 352
#
# _framework density 21.441314999999999
#
# number of rings (size 3 to 8) (size 9 to 14) (size 15 to 20)
#    0.000    1.455    2.727    2.727    0.000    4.364 
#    0.000    2.727    0.000    7.636    0.000    0.000 
#    0.000    0.000    0.000    0.000    0.000    0.000 
#
# Total GULP energy -122715.552670 kJ/mol
# GULP energy per Si atom -5577.979667 kJ/mol
# Density = 2.139251 g / cm^3
# Si number density = 21.441315 Si / 1000 Ang^3
#
#
#
# Elastic Constant Matrix: (Units=GPa)
#
#
# Indices 1 2 3 4 5 6 
#
# 1 32.8510 -4.3648 51.1291 0.0000 0.0000 0.0000
# 2 -4.3648 65.1747 9.2550 0.0000 0.0000 0.0000
# 3 51.1291 9.2550 127.8693 0.0000 0.0000 0.0000
# 4 0.0000 0.0000 0.0000 26.9304 0.0000 0.0000
# 5 0.0000 0.0000 0.0000 0.0000 20.2642 0.0000
# 6 0.0000 0.0000 0.0000 0.0000 0.0000 14.3738
#
#
#
# Elastic Compliance Matrix: (Units=1/GPa)
#
#
# Indices 1 2 3 4 5 6 
#
# 1 0.087732 0.010970 -0.035874 0.000000 0.000000 0.000000
# 2 0.010970 0.016874 -0.005608 0.000000 0.000000 0.000000
# 3 -0.035874 -0.005608 0.022571 0.000000 0.000000 0.000000
# 4 0.000000 0.000000 0.000000 0.037133 0.000000 0.000000
# 5 0.000000 0.000000 0.000000 0.000000 0.049348 0.000000
# 6 0.000000 0.000000 0.000000 0.000000 0.000000 0.069571
#
#
# Mechanical properties :
#
#
# Convention : Reuss Voigt Hill
#
# Bulk Modulus (GPa) = 15.11641 37.54817 26.33229
# Shear Modulus (GPa) = 13.64986 23.63873 18.64430
#
# Velocity S-wave (km/s) = 2.52586 3.32397 2.95201
# Velocity P-wave (km/s) = 3.94615 5.68171 4.89152
#
# Compressibility (1/GPa) = 0.06615325
#
# Stress axis : x y z
#
# Youngs Moduli (GPa) = 11.39834 59.26160 44.30515
#
# Poissons Ratio (x) = -0.65008 1.58940
# Poissons Ratio (y) = -0.12504 0.24845
# Poissons Ratio (z) = 0.40890 0.33232
#
# Static dielectric constant tensor:
#      x y z
#    x 1.824150 0.000000 0.000000 
#    y 0.000000 1.810170 0.000000 
#    z 0.000000 0.000000 1.989610 
# 
# From -- ./inp_files/6382.got.cif
#   From: 2010.05.17/outbox.cif.g08.bks.cpg/sg24_4_cif.got.tgz:6382.got - 2010.06.04 00:33:39.
