data_PCOD9334417
_publ_section_title
;
Structure prediction by ZEFSAII (Michael W. Deem and Ramdas Pophale) SiO2 
 PCOD9334417
Probable space group: I 21 21 21
;
_chemical_formula_sum "Si O2"
_cell_formula_units_Z 56
_cell_length_a 13.121484
_cell_length_b 14.596087
_cell_length_c 12.447383
_cell_angle_alpha 90.000000
_cell_angle_beta 90.000000
_cell_angle_gamma 90.000000
_cell_volume 2383.951695
_symmetry_space_group_name_H-M "I 21 21 21"
_symmetry_group_IT_number 24
_symmetry_cell_setting 'orthorhombic'
loop_
_space_group_symop_operation_xyz
x,y,z
-x,1/2-y,z
x,-y,1/2-z
1/2-x,y,-z
1/2+x,1/2+y,1/2+z
1/2-x,-y,1/2+z
1/2+x,1/2-y,-z
-x,1/2+y,1/2-z
loop_
_atom_site_type_symbol
_atom_site_label
_atom_site_fract_x
_atom_site_fract_y
_atom_site_fract_z
Si Si1 0.913061 0.672438 0.062233
Si Si2 0.621766 0.756808 0.719913
Si Si3 0.621449 0.736835 0.161674
Si Si4 0.052135 0.495649 0.378260
Si Si5 0.249523 0.585601 0.183776
Si Si6 0.386773 0.113949 0.939998
Si Si7 0.808011 0.416472 0.823234
O O1 0.852654 0.698465 0.170489
O O2 0.000000 0.750000 0.052816
O O3 0.973337 0.578837 0.076531
O O4 0.858675 0.680227 0.948041
O O5 0.500000 0.750000 0.726770
O O6 0.675902 0.852857 0.739083
O O7 0.642332 0.714529 0.603342
O O8 0.500000 0.750000 0.178435
O O9 0.670358 0.838270 0.146961
O O10 0.665632 0.677898 0.260921
O O11 0.040009 0.500000 0.250000
O O12 0.166861 0.459422 0.397897
O O13 0.004675 0.589427 0.421838
O O14 0.294325 0.500000 0.250000
O O15 0.309723 0.062101 0.857443
O O16 0.360055 0.092290 0.060951
O O17 0.845077 0.500000 0.750000
#
# Coordination Sequence:
#
# PCOD9334417 Si02
#       7
#     8   8   8   8   8   8   8
#     4  10  20  38  66 102 144 185 236 301 374 438
#     4  11  19  39  69 106 143 177 230 311 383 435
#     4  11  26  48  71  96 150 210 254 298 363 459
#     4  11  19  37  68 108 146 172 228 317 385 430
#     4  11  23  42  72 107 147 193 249 310 376 434
#     4  11  23  40  71 106 144 183 243 308 378 445
#     4  11  25  45  68 103 144 197 250 298 371 459
#
# _framework density 23.490409
#
# number of rings (size 3 to 8) (size 9 to 14) (size 15 to 20)
#    0.000    1.143    5.714    2.143    0.000    1.714 
#    0.000    0.000    6.286    0.000    0.000    0.000 
#    0.000    0.000    0.000    0.000    0.000    0.000 
#
# Total GULP energy -156199.476979 kJ/mol
# GULP energy per Si atom -5578.552749 kJ/mol
# Density = 2.343694 g / cm^3
# Si number density = 23.490409 Si / 1000 Ang^3
#
#
#
# Elastic Constant Matrix: (Units=GPa)
#
#
# Indices 1 2 3 4 5 6 
#
# 1 117.0221 21.9764 37.1720 0.0000 0.0000 0.0000
# 2 21.9764 91.8516 36.2373 0.0000 0.0000 0.0000
# 3 37.1720 36.2373 141.0794 0.0000 0.0000 0.0000
# 4 0.0000 0.0000 0.0000 29.2940 0.0000 0.0000
# 5 0.0000 0.0000 0.0000 0.0000 23.3881 0.0000
# 6 0.0000 0.0000 0.0000 0.0000 0.0000 44.8010
#
#
#
# Elastic Compliance Matrix: (Units=1/GPa)
#
#
# Indices 1 2 3 4 5 6 
#
# 1 0.009492 -0.001429 -0.002134 0.000000 0.000000 0.000000
# 2 -0.001429 0.012330 -0.002790 0.000000 0.000000 0.000000
# 3 -0.002134 -0.002790 0.008367 0.000000 0.000000 0.000000
# 4 0.000000 0.000000 0.000000 0.034137 0.000000 0.000000
# 5 0.000000 0.000000 0.000000 0.000000 0.042757 0.000000
# 6 0.000000 0.000000 0.000000 0.000000 0.000000 0.022321
#
#
# Mechanical properties :
#
#
# Convention : Reuss Voigt Hill
#
# Bulk Modulus (GPa) = 57.20202 60.08051 58.64127
# Shear Modulus (GPa) = 33.79813 36.46779 35.13296
#
# Velocity S-wave (km/s) = 3.79727 3.94439 3.87153
# Velocity P-wave (km/s) = 6.60529 6.81003 6.70844
#
# Compressibility (1/GPa) = 0.01748190
#
# Stress axis : x y z
#
# Youngs Moduli (GPa) = 105.35658 81.10321 119.51452
#
# Poissons Ratio (x) = 0.11591 0.25502
# Poissons Ratio (y) = 0.15057 0.33350
# Poissons Ratio (z) = 0.22481 0.22632
#
# Static dielectric constant tensor:
#      x y z
#    x 2.218440 0.000000 0.000000 
#    y 0.000000 2.026540 0.000000 
#    z 0.000000 0.000000 1.911460 
# 
# From -- ./inp_files/20849.got.cif
#   From: 2010.05.17/outbox.cif.g08.bks.cpg/sg24_11_cif.got.tgz:20849.got - 2010.06.04 00:33:39.
