data_PCOD9334441
_publ_section_title
;
Structure prediction by ZEFSAII (Michael W. Deem and Ramdas Pophale) SiO2 
 PCOD9334441
Probable space group: I 21 21 21
;
_chemical_formula_sum "Si O2"
_cell_formula_units_Z 28
_cell_length_a 5.406909
_cell_length_b 19.938020
_cell_length_c 10.402634
_cell_angle_alpha 90.000000
_cell_angle_beta 90.000000
_cell_angle_gamma 90.000000
_cell_volume 1121.435775
_symmetry_space_group_name_H-M "I 21 21 21"
_symmetry_group_IT_number 24
_symmetry_cell_setting 'orthorhombic'
loop_
_space_group_symop_operation_xyz
x,y,z
-x,1/2-y,z
x,-y,1/2-z
1/2-x,y,-z
1/2+x,1/2+y,1/2+z
1/2-x,-y,1/2+z
1/2+x,1/2-y,-z
-x,1/2+y,1/2-z
loop_
_atom_site_type_symbol
_atom_site_label
_atom_site_fract_x
_atom_site_fract_y
_atom_site_fract_z
Si Si1 0.762083 0.772148 0.258838
Si Si2 0.989154 0.050995 0.926528
Si Si3 0.093387 0.596201 0.837508
Si Si4 0.750000 0.682480 0.000000
O O1 0.500000 0.750000 0.316482
O O2 0.786249 0.849667 0.217219
O O3 0.767135 0.729214 0.125042
O O4 0.000000 0.750000 0.337053
O O5 0.064663 0.087826 0.793832
O O6 0.870640 0.979595 0.881729
O O7 0.750000 0.083274 0.000000
O O8 0.250000 0.041556 0.000000
O O9 0.967622 0.632988 0.957256
#
# Coordination Sequence:
#
# PCOD9334441 Si02
#       4
#     8   8   8   4
#     4  10  21  34  60  97 124 164 210 288 347 387
#     4  11  26  44  67  99 143 198 233 287 354 446
#     4  10  23  42  70 100 146 180 239 297 359 428
#     4  10  20  38  68  96 132 162 230 294 346 390
#
# _framework density 24.967991999999999
#
# number of rings (size 3 to 8) (size 9 to 14) (size 15 to 20)
#    0.000    1.714    1.429    2.571    6.000    9.143 
#    0.000    0.000    0.000   20.571    0.000    0.000 
#    0.000    0.000    0.000    0.000    0.000    0.000 
#
# Total GULP energy -77952.100487 kJ/mol
# GULP energy per Si atom -5568.007178 kJ/mol
# Density = 2.491116 g / cm^3
# Si number density = 24.967992 Si / 1000 Ang^3
#
#
#
# Elastic Constant Matrix: (Units=GPa)
#
#
# Indices 1 2 3 4 5 6 
#
# 1 158.1683 2.6946 21.0514 -0.0002 0.0000 0.0000
# 2 2.6946 67.6466 13.2096 -0.0003 0.0000 0.0000
# 3 21.0514 13.2096 89.4798 -0.0007 0.0000 0.0000
# 4 -0.0002 -0.0003 -0.0007 -250.1777 -0.0001 -0.0001
# 5 0.0000 0.0000 0.0000 -0.0001 11.6701 0.0000
# 6 0.0000 0.0000 0.0000 -0.0001 0.0000 24.3814
#
#
#
# Elastic Compliance Matrix: (Units=1/GPa)
#
#
# Indices 1 2 3 4 5 6 
#
# 1 0.006527 0.000041 -0.001542 0.000000 0.000000 0.000000
# 2 0.000041 0.015222 -0.002257 0.000000 0.000000 0.000000
# 3 -0.001542 -0.002257 0.011872 0.000000 0.000000 0.000000
# 4 0.000000 0.000000 0.000000 -0.003997 0.000000 0.000000
# 5 0.000000 0.000000 0.000000 0.000000 0.085689 0.000000
# 6 0.000000 0.000000 0.000000 0.000000 0.000000 0.041015
#
#
# Mechanical properties :
#
#
# Convention : Reuss Voigt Hill
#
# Bulk Modulus (GPa) = 38.30612 43.24510 40.77561
# Shear Modulus (GPa) = 28.97818 -24.26930 2.35444
#
# Velocity S-wave (km/s) = 3.41047 -3.12110 0.97213
# Velocity P-wave (km/s) = 5.55732 2.09033 4.19841
#
# Compressibility (1/GPa) = 0.02610549
#
# Stress axis : x y z
#
# Youngs Moduli (GPa) = 153.21304 65.69538 84.23501
#
# Poissons Ratio (x) = -0.00270 0.12986
# Poissons Ratio (y) = -0.00629 0.19010
# Poissons Ratio (z) = 0.23619 0.14826
#
# Static dielectric constant tensor:
#      x y z
#    x 5.225940 0.000000 0.000000 
#    y 0.000000 2.071820 0.000000 
#    z 0.000000 0.000000 1.973780 
# 
# From -- ./inp_files/17340.got.cif
#   From: 2010.05.17/outbox.cif.g08.bks.cpg/sg24_9_cif.got.tgz:17340.got - 2010.06.04 00:33:39.
