data_PCOD9334671
_publ_section_title
;
Structure prediction by ZEFSAII (Michael W. Deem and Ramdas Pophale) SiO2 
 PCOD9334671
Probable space group: I 21 21 21
;
_chemical_formula_sum "Si O2"
_cell_formula_units_Z 64
_cell_length_a 10.568224
_cell_length_b 10.357585
_cell_length_c 28.785530
_cell_angle_alpha 90.000000
_cell_angle_beta 90.000000
_cell_angle_gamma 90.000000
_cell_volume 3150.900913
_symmetry_space_group_name_H-M "I 21 21 21"
_symmetry_group_IT_number 24
_symmetry_cell_setting 'orthorhombic'
loop_
_space_group_symop_operation_xyz
x,y,z
-x,1/2-y,z
x,-y,1/2-z
1/2-x,y,-z
1/2+x,1/2+y,1/2+z
1/2-x,-y,1/2+z
1/2+x,1/2-y,-z
-x,1/2+y,1/2-z
loop_
_atom_site_type_symbol
_atom_site_label
_atom_site_fract_x
_atom_site_fract_y
_atom_site_fract_z
Si Si1 0.816831 0.857596 0.713989
Si Si2 0.745540 0.478322 0.885580
Si Si3 0.136381 0.701380 0.369652
Si Si4 0.406371 0.933077 0.295792
Si Si5 0.879605 0.122941 0.486771
Si Si6 0.130228 0.086724 0.526766
Si Si7 0.084290 0.376691 0.279852
Si Si8 0.457706 0.435582 0.611318
O O1 0.718521 0.858091 0.671719
O O2 0.873405 0.715385 0.711197
O O3 0.729079 0.867088 0.760231
O O4 0.940056 0.945960 0.703157
O O5 0.707844 0.325660 0.891019
O O6 0.822877 0.484326 0.837885
O O7 0.841124 0.543137 0.921775
O O8 0.610497 0.551536 0.888054
O O9 0.098876 0.577937 0.400045
O O10 0.000000 0.750000 0.351047
O O11 0.359356 0.000000 0.250000
O O12 0.750000 0.055369 0.500000
O O13 0.871726 0.259435 0.515135
O O14 0.903384 0.146509 0.431960
O O15 0.998061 0.043579 0.505814
O O16 0.250000 0.030634 0.500000
O O17 0.032911 0.500000 0.250000
O O18 0.078886 0.395277 0.335949
O O19 0.000000 0.250000 0.269345
#
# Coordination Sequence:
#
# PCOD9334671 Si02
#       8
#     8   8   8   8   8   8   8   8
#     4  10  21  42  58  89 140 183 222 287 346 407
#     4  10  22  40  70  94 128 186 234 286 363 433
#     4   9  19  38  66  96 129 174 228 285 347 418
#     4  10  23  39  63  91 134 179 232 290 344 428
#     4  10  23  41  66  97 139 179 222 301 357 419
#     4  10  20  42  67  92 136 177 227 282 360 421
#     4  12  27  39  68 103 143 189 242 296 358 440
#     4  11  23  40  69 100 136 181 237 299 364 428
#
# _framework density 20.311651999999999
#
# number of rings (size 3 to 8) (size 9 to 14) (size 15 to 20)
#    0.000    1.750    2.500    0.750    7.000    1.000 
#    0.000    1.875    0.000    0.000    0.000    0.000 
#    0.000    0.000    0.000    0.000    0.000    0.000 
#
# Total GULP energy -178157.710222 kJ/mol
# GULP energy per Si atom -5567.428444 kJ/mol
# Density = 2.026542 g / cm^3
# Si number density = 20.311652 Si / 1000 Ang^3
#
#
#
# Elastic Constant Matrix: (Units=GPa)
#
#
# Indices 1 2 3 4 5 6 
#
# 1 150.4170 27.4787 55.9105 0.0000 0.0000 0.0000
# 2 27.4787 58.0885 47.8874 0.0000 0.0000 0.0000
# 3 55.9105 47.8874 146.3365 0.0000 0.0000 0.0000
# 4 0.0000 0.0000 0.0000 23.0710 0.0000 0.0000
# 5 0.0000 0.0000 0.0000 0.0000 41.7395 0.0000
# 6 0.0000 0.0000 0.0000 0.0000 0.0000 39.1672
#
#
#
# Elastic Compliance Matrix: (Units=1/GPa)
#
#
# Indices 1 2 3 4 5 6 
#
# 1 0.007870 -0.001704 -0.002449 0.000000 0.000000 0.000000
# 2 -0.001704 0.023944 -0.007184 0.000000 0.000000 0.000000
# 3 -0.002449 -0.007184 0.010120 0.000000 0.000000 0.000000
# 4 0.000000 0.000000 0.000000 0.043344 0.000000 0.000000
# 5 0.000000 0.000000 0.000000 0.000000 0.023958 0.000000
# 6 0.000000 0.000000 0.000000 0.000000 0.000000 0.025532
#
#
# Mechanical properties :
#
#
# Convention : Reuss Voigt Hill
#
# Bulk Modulus (GPa) = 51.92331 68.59948 60.26139
# Shear Modulus (GPa) = 30.51334 35.69990 33.10662
#
# Velocity S-wave (km/s) = 3.88010 4.19693 4.04162
# Velocity P-wave (km/s) = 6.75962 7.57182 7.17721
#
# Compressibility (1/GPa) = 0.01925917
#
# Stress axis : x y z
#
# Youngs Moduli (GPa) = 127.06762 41.76449 98.81005
#
# Poissons Ratio (x) = 0.07115 0.24202
# Poissons Ratio (y) = 0.21648 0.70990
# Poissons Ratio (z) = 0.31123 0.30006
#
# Static dielectric constant tensor:
#      x y z
#    x 1.820570 0.000000 0.000000 
#    y 0.000000 1.725760 0.000000 
#    z 0.000000 0.000000 1.755670 
# 
# From -- ./inp_files/35657.got.cif
#   From: 2010.05.17/outbox.cif.g08.bks.cpg/sg24_18_cif.got.tgz:35657.got - 2010.06.04 00:33:39.
