data_PCOD9334101
_publ_section_title
;
Structure prediction by ZEFSAII (Michael W. Deem and Ramdas Pophale) SiO2 
 PCOD9334101
Probable space group: I 21 21 21
;
_chemical_formula_sum "Si O2"
_cell_formula_units_Z 64
_cell_length_a 15.926678
_cell_length_b 8.315566
_cell_length_c 24.768655
_cell_angle_alpha 90.000000
_cell_angle_beta 90.000000
_cell_angle_gamma 90.000000
_cell_volume 3280.344372
_symmetry_space_group_name_H-M "I 21 21 21"
_symmetry_group_IT_number 24
_symmetry_cell_setting 'orthorhombic'
loop_
_space_group_symop_operation_xyz
x,y,z
-x,1/2-y,z
x,-y,1/2-z
1/2-x,y,-z
1/2+x,1/2+y,1/2+z
1/2-x,-y,1/2+z
1/2+x,1/2-y,-z
-x,1/2+y,1/2-z
loop_
_atom_site_type_symbol
_atom_site_label
_atom_site_fract_x
_atom_site_fract_y
_atom_site_fract_z
Si Si1 0.137806 0.669982 0.655013
Si Si2 0.315343 0.886591 0.839967
Si Si3 0.415098 0.678948 0.124538
Si Si4 0.244341 0.686094 0.059891
Si Si5 0.227578 0.315914 0.059617
Si Si6 0.863516 0.495346 0.685933
Si Si7 0.092232 0.817956 0.363320
Si Si8 0.701987 0.176207 0.768228
O O1 0.087942 0.500571 0.650435
O O2 0.193533 0.687282 0.600546
O O3 0.205311 0.663762 0.704570
O O4 0.093264 0.842486 0.663512
O O5 0.304405 0.779545 0.893181
O O6 0.232628 0.000325 0.835945
O O7 0.306905 0.788448 0.784311
O O8 0.397187 0.995533 0.847043
O O9 0.500000 0.750000 0.098975
O O10 0.338951 0.676616 0.082550
O O11 0.396232 0.821222 0.167501
O O12 0.206920 0.506423 0.055332
O O13 0.250000 0.758501 0.000000
O O14 0.150738 0.219203 0.085223
O O15 0.250000 0.257347 0.000000
O O16 0.864571 0.500000 0.750000
O O17 0.137575 0.728603 0.313936
O O18 0.000000 0.750000 0.371037
O O19 0.679259 0.000000 0.750000
#
# Coordination Sequence:
#
# PCOD9334101 Si02
#       8
#     8   8   8   8   8   8   8   8
#     4  10  20  35  61  86 115 162 205 249 294 361
#     4  11  19  36  60  88 120 155 209 253 291 367
#     4  10  23  40  56  90 127 154 192 256 317 363
#     4   9  20  40  66  85 107 156 209 253 298 362
#     4   9  18  38  62  81 113 154 208 249 296 364
#     4  11  19  36  59  85 115 160 207 241 286 365
#     4  11  23  37  55  89 129 157 191 252 316 363
#     4  11  20  35  60  88 117 165 210 243 295 362
#
# _framework density 19.510145000000001
#
# number of rings (size 3 to 8) (size 9 to 14) (size 15 to 20)
#    0.000    1.750    3.750    3.375    0.000    2.000 
#    2.250    5.625    0.000    0.000    0.000    0.000 
#    0.000    0.000    0.000    0.000    0.000    0.000 
#
# Total GULP energy -178423.124205 kJ/mol
# GULP energy per Si atom -5575.722631 kJ/mol
# Density = 1.946574 g / cm^3
# Si number density = 19.510145 Si / 1000 Ang^3
#
#
#
# Elastic Constant Matrix: (Units=GPa)
#
#
# Indices 1 2 3 4 5 6 
#
# 1 62.4845 38.2904 20.5967 0.0000 0.0000 0.0000
# 2 38.2904 125.1319 46.1826 0.0000 0.0000 0.0000
# 3 20.5967 46.1826 134.0295 0.0000 0.0000 0.0000
# 4 0.0000 0.0000 0.0000 40.8662 0.0000 0.0000
# 5 0.0000 0.0000 0.0000 0.0000 6.3184 0.0000
# 6 0.0000 0.0000 0.0000 0.0000 0.0000 17.2376
#
#
#
# Elastic Compliance Matrix: (Units=1/GPa)
#
#
# Indices 1 2 3 4 5 6 
#
# 1 0.019837 -0.005666 -0.001096 0.000000 0.000000 0.000000
# 2 -0.005666 0.010774 -0.002842 0.000000 0.000000 0.000000
# 3 -0.001096 -0.002842 0.008609 0.000000 0.000000 0.000000
# 4 0.000000 0.000000 0.000000 0.024470 0.000000 0.000000
# 5 0.000000 0.000000 0.000000 0.000000 0.158268 0.000000
# 6 0.000000 0.000000 0.000000 0.000000 0.000000 0.058013
#
#
# Mechanical properties :
#
#
# Convention : Reuss Voigt Hill
#
# Bulk Modulus (GPa) = 49.96822 59.08726 54.52774
# Shear Modulus (GPa) = 16.34792 27.32284 21.83538
#
# Velocity S-wave (km/s) = 2.89782 3.74631 3.34905
# Velocity P-wave (km/s) = 6.07153 7.00459 6.55468
#
# Compressibility (1/GPa) = 0.02001272
#
# Stress axis : x y z
#
# Youngs Moduli (GPa) = 50.41039 92.81547 116.16155
#
# Poissons Ratio (x) = 0.52586 0.12734
# Poissons Ratio (y) = 0.28561 0.33011
# Poissons Ratio (z) = 0.05526 0.26376
#
# Static dielectric constant tensor:
#      x y z
#    x 1.705910 0.000000 0.000000 
#    y 0.000000 1.779640 0.000000 
#    z 0.000000 0.000000 1.692210 
# 
# From -- ./inp_files/35875.got.cif
#   From: 2010.05.17/outbox.cif.g08.bks.cpg/sg24_18_cif.got.tgz:35875.got - 2010.06.04 00:33:39.
