data_PCOD9334797
_publ_section_title
;
Structure prediction by ZEFSAII (Michael W. Deem and Ramdas Pophale) SiO2 
 PCOD9334797
Probable space group: I 21 21 21
;
_chemical_formula_sum "Si O2"
_cell_formula_units_Z 48
_cell_length_a 11.805061
_cell_length_b 19.261609
_cell_length_c 9.502079
_cell_angle_alpha 90.000000
_cell_angle_beta 90.000000
_cell_angle_gamma 90.000000
_cell_volume 2160.625190
_symmetry_space_group_name_H-M "I 21 21 21"
_symmetry_group_IT_number 24
_symmetry_cell_setting 'orthorhombic'
loop_
_space_group_symop_operation_xyz
x,y,z
-x,1/2-y,z
x,-y,1/2-z
1/2-x,y,-z
1/2+x,1/2+y,1/2+z
1/2-x,-y,1/2+z
1/2+x,1/2-y,-z
-x,1/2+y,1/2-z
loop_
_atom_site_type_symbol
_atom_site_label
_atom_site_fract_x
_atom_site_fract_y
_atom_site_fract_z
Si Si1 0.767679 0.425225 0.210583
Si Si2 0.000000 0.250000 0.440647
Si Si3 0.660951 0.047826 0.885847
Si Si4 0.177044 0.702777 0.293760
Si Si5 0.500000 0.250000 0.026474
Si Si6 0.564366 0.602439 0.477067
Si Si7 0.177450 0.199787 0.628563
O O1 0.814807 0.500000 0.250000
O O2 0.860422 0.385065 0.117430
O O3 0.729178 0.374305 0.332881
O O4 0.652928 0.437101 0.121221
O O5 0.913737 0.211431 0.334226
O O6 0.943128 0.302701 0.552859
O O7 0.702364 0.123077 0.828632
O O8 0.545007 0.062095 0.970673
O O9 0.644713 0.000000 0.750000
O O10 0.750000 0.019988 0.000000
O O11 0.288380 0.747504 0.254106
O O12 0.107721 0.731650 0.427443
O O13 0.530208 0.324318 0.094651
O O14 0.250000 0.229651 0.500000
#
# Coordination Sequence:
#
# PCOD9334797 Si02
#       7
#     8   4   8   8   4   8   8
#     4  11  24  39  62  98 135 172 217 274 340 415
#     4   9  20  35  60  94 126 171 207 266 332 387
#     4  11  26  44  68  93 128 177 226 279 338 400
#     4   9  19  38  60  87 121 163 211 261 320 388
#     4   9  16  37  64  84 118 157 221 260 316 383
#     4  10  23  42  65  95 125 177 221 274 343 396
#     4  10  21  36  61  93 129 172 218 270 329 394
#
# _framework density 22.215792
#
# number of rings (size 3 to 8) (size 9 to 14) (size 15 to 20)
#    0.000    2.000    1.667    0.500    4.667    8.667 
#    0.000    0.000    0.000    0.000    0.000    0.000 
#    0.000    0.000    0.000    0.000    0.000    0.000 
#
# Total GULP energy -133855.243583 kJ/mol
# GULP energy per Si atom -5577.301816 kJ/mol
# Density = 2.216523 g / cm^3
# Si number density = 22.215792 Si / 1000 Ang^3
#
#
#
# Elastic Constant Matrix: (Units=GPa)
#
#
# Indices 1 2 3 4 5 6 
#
# 1 78.9252 -11.8583 20.0142 0.0000 0.0000 0.0000
# 2 -11.8583 55.9377 -17.1103 0.0000 0.0000 0.0000
# 3 20.0142 -17.1103 49.1381 0.0000 0.0000 0.0000
# 4 0.0000 0.0000 0.0000 28.0281 0.0000 0.0000
# 5 0.0000 0.0000 0.0000 0.0000 7.9260 0.0000
# 6 0.0000 0.0000 0.0000 0.0000 0.0000 23.3180
#
#
#
# Elastic Compliance Matrix: (Units=1/GPa)
#
#
# Indices 1 2 3 4 5 6 
#
# 1 0.014226 0.001392 -0.005310 0.000000 0.000000 0.000000
# 2 0.001392 0.020144 0.006448 0.000000 0.000000 0.000000
# 3 -0.005310 0.006448 0.024759 0.000000 0.000000 0.000000
# 4 0.000000 0.000000 0.000000 0.035679 0.000000 0.000000
# 5 0.000000 0.000000 0.000000 0.000000 0.126167 0.000000
# 6 0.000000 0.000000 0.000000 0.000000 0.000000 0.042885
#
#
# Mechanical properties :
#
#
# Convention : Reuss Voigt Hill
#
# Bulk Modulus (GPa) = 15.57932 18.45469 17.01700
# Shear Modulus (GPa) = 17.84463 24.71810 21.28137
#
# Velocity S-wave (km/s) = 2.83722 3.33924 3.09842
# Velocity P-wave (km/s) = 4.21439 4.81585 4.52512
#
# Compressibility (1/GPa) = 0.06418764
#
# Stress axis : x y z
#
# Youngs Moduli (GPa) = 70.29504 49.64198 40.39008
#
# Poissons Ratio (x) = -0.06908 0.21446
# Poissons Ratio (y) = -0.09782 -0.26042
# Poissons Ratio (z) = 0.37324 -0.32007
#
# Static dielectric constant tensor:
#      x y z
#    x 1.896490 0.000000 0.000000 
#    y 0.000000 1.783340 0.000000 
#    z 0.000000 0.000000 1.888590 
# 
# From -- ./inp_files/19730.got.cif
#   From: 2010.05.17/outbox.cif.g08.bks.cpg/sg24_10_cif.got.tgz:19730.got - 2010.06.04 00:33:39.
