data_PCOD9334241
_publ_section_title
;
Structure prediction by ZEFSAII (Michael W. Deem and Ramdas Pophale) SiO2 
 PCOD9334241
Probable space group: I 21 21 21
;
_chemical_formula_sum "Si O2"
_cell_formula_units_Z 52
_cell_length_a 5.399511
_cell_length_b 22.608093
_cell_length_c 20.111417
_cell_angle_alpha 90.000000
_cell_angle_beta 90.000000
_cell_angle_gamma 90.000000
_cell_volume 2455.053905
_symmetry_space_group_name_H-M "I 21 21 21"
_symmetry_group_IT_number 24
_symmetry_cell_setting 'orthorhombic'
loop_
_space_group_symop_operation_xyz
x,y,z
-x,1/2-y,z
x,-y,1/2-z
1/2-x,y,-z
1/2+x,1/2+y,1/2+z
1/2-x,-y,1/2+z
1/2+x,1/2-y,-z
-x,1/2+y,1/2-z
loop_
_atom_site_type_symbol
_atom_site_label
_atom_site_fract_x
_atom_site_fract_y
_atom_site_fract_z
Si Si1 0.003654 0.821160 0.535715
Si Si2 0.000000 0.250000 0.201592
Si Si3 0.816183 0.857253 0.669596
Si Si4 0.173514 0.834919 0.784362
Si Si5 0.648532 0.004693 0.169857
Si Si6 0.745645 0.288932 0.429065
Si Si7 0.863680 0.457544 0.313337
O O1 0.750000 0.842359 0.500000
O O2 0.010092 0.838331 0.612962
O O3 0.000000 0.750000 0.531796
O O4 0.250000 0.843258 0.500000
O O5 0.105800 0.306648 0.162055
O O6 0.209390 0.221637 0.248411
O O7 0.781991 0.926891 0.656646
O O8 0.924621 0.849766 0.744042
O O9 0.181310 0.824192 0.862647
O O10 0.337258 0.893688 0.779722
O O11 0.623640 0.000000 0.250000
O O12 0.381982 0.979144 0.147637
O O13 0.879796 0.964815 0.147869
O O14 0.500000 0.250000 0.437420
O O15 0.750000 0.322489 0.500000
O O16 0.000000 0.250000 0.419315
O O17 0.885698 0.500000 0.250000
#
# Coordination Sequence:
#
# PCOD9334241 Si02
#       7
#     8   4   8   8   8   8   8
#     4  10  24  43  62  87 131 179 215 254 330 418
#     4  12  24  34  60 104 134 154 210 288 346 366
#     4  12  25  39  66  97 135 165 224 283 332 397
#     4  12  23  38  63  98 133 166 218 281 320 392
#     4  10  20  39  58  90 120 170 209 259 318 389
#     4  10  22  41  61  89 134 178 207 245 322 406
#     4  10  20  37  58  86 123 170 210 256 320 380
#
# _framework density 21.180797999999999
#
# number of rings (size 3 to 8) (size 9 to 14) (size 15 to 20)
#    0.000    1.231    3.846    4.154    5.385    0.000 
#    0.000    0.000    0.000    2.769    0.000    0.000 
#    0.000    0.000    0.000    0.000    0.000    0.000 
#
# Total GULP energy -144906.509920 kJ/mol
# GULP energy per Si atom -5573.327305 kJ/mol
# Density = 2.113259 g / cm^3
# Si number density = 21.180798 Si / 1000 Ang^3
#
#
#
# Elastic Constant Matrix: (Units=GPa)
#
#
# Indices 1 2 3 4 5 6 
#
# 1 122.9748 5.8939 10.2047 0.0000 0.0000 0.0000
# 2 5.8939 49.8061 -5.9271 0.0000 0.0000 0.0000
# 3 10.2047 -5.9271 85.3833 0.0000 0.0000 -0.0001
# 4 0.0000 0.0000 0.0000 1.2485 0.0000 -0.0001
# 5 0.0000 0.0000 0.0000 0.0000 21.6257 0.0000
# 6 0.0000 0.0000 -0.0001 -0.0001 0.0000 -168.7265
#
#
#
# Elastic Compliance Matrix: (Units=1/GPa)
#
#
# Indices 1 2 3 4 5 6 
#
# 1 0.008273 -0.001106 -0.001066 0.000000 0.000000 0.000000
# 2 -0.001106 0.020393 0.001548 0.000000 0.000000 0.000000
# 3 -0.001066 0.001548 0.011947 0.000000 0.000000 0.000000
# 4 0.000000 0.000000 0.000000 0.800932 0.000000 0.000000
# 5 0.000000 0.000000 0.000000 0.000000 0.046241 0.000000
# 6 0.000000 0.000000 0.000000 0.000000 0.000000 -0.005927
#
#
# Mechanical properties :
#
#
# Convention : Reuss Voigt Hill
#
# Bulk Modulus (GPa) = 25.40289 30.94526 28.17408
# Shear Modulus (GPa) = 5.57893 -12.63763 -3.52935
#
# Velocity S-wave (km/s) = 1.62471 -2.44530 -1.29225
# Velocity P-wave (km/s) = 3.94195 2.58246 3.33227
#
# Compressibility (1/GPa) = 0.03936559
#
# Stress axis : x y z
#
# Youngs Moduli (GPa) = 120.87269 49.03663 83.70524
#
# Poissons Ratio (x) = 0.05423 0.08919
# Poissons Ratio (y) = 0.13366 -0.12956
# Poissons Ratio (z) = 0.12879 -0.07590
#
# Static dielectric constant tensor:
#      x y z
#    x 2.001290 0.000000 0.000000 
#    y 0.000000 1.784420 0.000000 
#    z 0.000000 0.000000 1.935850 
# 
# From -- ./inp_files/32191.got.cif
#   From: 2010.05.17/outbox.cif.g08.bks.cpg/sg24_17_cif.got.tgz:32191.got - 2010.06.04 00:33:39.
