data_PCOD9334767
_publ_section_title
;
Structure prediction by ZEFSAII (Michael W. Deem and Ramdas Pophale) SiO2 
 PCOD9334767
Probable space group: I 21 21 21
;
_chemical_formula_sum "Si O2"
_cell_formula_units_Z 64
_cell_length_a 8.294500
_cell_length_b 12.110874
_cell_length_c 36.302322
_cell_angle_alpha 90.000000
_cell_angle_beta 90.000000
_cell_angle_gamma 90.000000
_cell_volume 3646.700545
_symmetry_space_group_name_H-M "I 21 21 21"
_symmetry_group_IT_number 24
_symmetry_cell_setting 'orthorhombic'
loop_
_space_group_symop_operation_xyz
x,y,z
-x,1/2-y,z
x,-y,1/2-z
1/2-x,y,-z
1/2+x,1/2+y,1/2+z
1/2-x,-y,1/2+z
1/2+x,1/2-y,-z
-x,1/2+y,1/2-z
loop_
_atom_site_type_symbol
_atom_site_label
_atom_site_fract_x
_atom_site_fract_y
_atom_site_fract_z
Si Si1 0.191797 0.120985 0.960602
Si Si2 0.689243 0.053555 0.593000
Si Si3 0.688507 0.750000 0.041774
Si Si4 0.188150 0.380633 0.326583
Si Si5 0.811851 0.619367 0.173417
Si Si6 0.691797 0.879014 0.460602
Si Si7 0.689243 0.553556 0.907000
Si Si8 1.000000 0.384575 0.725987
O O1 0.233593 0.250000 0.960085
O O2 1.000000 0.108685 0.958605
O O3 0.271628 0.060988 0.926413
O O4 0.250000 0.074531 0.000000
O O5 0.761407 0.144846 0.565891
O O6 0.741792 0.061814 0.635330
O O7 0.500000 0.074139 0.594012
O O8 0.728371 0.939011 0.573587
O O9 0.500000 0.750000 0.038615
O O10 0.738594 0.644848 0.065891
O O11 0.750000 0.750001 0.000000
O O12 0.181016 0.250000 0.334813
O O13 0.331873 0.394368 0.297093
O O14 0.000000 0.412921 0.316778
O O15 0.758209 0.561814 0.135330
O O16 0.668128 0.605632 0.202907
O O17 0.750000 0.925469 0.500000
O O18 1.000000 0.500000 0.750000
O O19 0.000000 0.250000 0.738985
#
# Coordination Sequence:
#
# PCOD9334767 Si02
#       8
#     8   8   8   8   8   8   8   8
#     4  10  21  36  52  71 100 144 195 243 292 345
#     4  11  21  35  55  79 109 142 189 241 287 343
#     4  12  24  34  50  76 114 152 190 240 294 338
#     4   9  19  36  60  89 119 154 193 236 289 359
#     4   9  19  36  60  89 119 154 193 236 289 359
#     4  10  21  36  52  71 100 144 195 243 292 345
#     4  11  21  35  55  79 109 142 189 241 287 343
#     4  10  22  40  66  94 126 158 198 240 304 368
#
# _framework density 17.550111000000001
#
# number of rings (size 3 to 8) (size 9 to 14) (size 15 to 20)
#    0.000    1.750    1.250    3.375    3.500    2.000 
#    0.000    1.250    0.000    1.500    0.000    0.000 
#    0.000    0.000    0.000    0.000    0.000    0.000 
#
# Total GULP energy -178228.727150 kJ/mol
# GULP energy per Si atom -5569.647723 kJ/mol
# Density = 1.751017 g / cm^3
# Si number density = 17.550111 Si / 1000 Ang^3
#
#
#
# Elastic Constant Matrix: (Units=GPa)
#
#
# Indices 1 2 3 4 5 6 
#
# 1 -1217.3780 3454.7326 933.0036 0.0000 0.0000 0.0000
# 2 3454.7326-9124.6946-2347.1885 0.0000 0.0000 0.0000
# 3 933.0036-2347.1885 -541.8330 0.0000 0.0000 0.0000
# 4 0.0000 0.0000 0.0000 17.3633 0.0000 0.0000
# 5 0.0000 0.0000 0.0000 0.0000 27.6232 0.0000
# 6 0.0000 0.0000 0.0000 0.0000 0.0000 27.1855
#
#
#
# Elastic Compliance Matrix: (Units=1/GPa)
#
#
# Indices 1 2 3 4 5 6 
#
# 1 0.016975 0.009551 -0.012146 0.000000 0.000000 0.000000
# 2 0.009551 0.006333 -0.010987 0.000000 0.000000 0.000000
# 3 -0.012146 -0.010987 0.024835 0.000000 0.000000 0.000000
# 4 0.000000 0.000000 0.000000 0.057593 0.000000 0.000000
# 5 0.000000 0.000000 0.000000 0.000000 0.036201 0.000000
# 6 0.000000 0.000000 0.000000 0.000000 0.000000 0.036784
#
#
# Mechanical properties :
#
#
# Convention : Reuss Voigt Hill
#
# Bulk Modulus (GPa) = 47.67001 -755.86779 -354.09889
# Shear Modulus (GPa) = 23.48759 -847.19582 -411.85411
#
# Velocity S-wave (km/s) = 3.66227 -21.99494 -15.33567
# Velocity P-wave (km/s) = 6.71596 32.81254 22.71078
#
# Compressibility (1/GPa) = 0.02097755
#
# Stress axis : x y z
#
# Youngs Moduli (GPa) = 58.91180 157.90441 40.26592
#
# Poissons Ratio (x) = -1.50819 0.48909
# Poissons Ratio (y) = -0.56268 0.44241
# Poissons Ratio (z) = 0.71557 1.73493
#
# Static dielectric constant tensor:
#      x y z
#    x 1.583980 0.000000 0.000000 
#    y 0.000000 1.626150 0.000000 
#    z 0.000000 0.000000 1.670430 
# 
# From -- ./inp_files/38444.got.cif
#   From: 2010.05.17/outbox.cif.g08.bks.cpg/sg24_20_cif.got.tgz:38444.got - 2010.06.04 00:33:39.
