data_PCOD9334820
_publ_section_title
;
Structure prediction by ZEFSAII (Michael W. Deem and Ramdas Pophale) SiO2 
 PCOD9334820
Probable space group: I 21 21 21
;
_chemical_formula_sum "Si O2"
_cell_formula_units_Z 48
_cell_length_a 29.608337
_cell_length_b 15.113324
_cell_length_c 5.073298
_cell_angle_alpha 90.000000
_cell_angle_beta 90.000000
_cell_angle_gamma 90.000000
_cell_volume 2270.201369
_symmetry_space_group_name_H-M "I 21 21 21"
_symmetry_group_IT_number 24
_symmetry_cell_setting 'orthorhombic'
loop_
_space_group_symop_operation_xyz
x,y,z
-x,1/2-y,z
x,-y,1/2-z
1/2-x,y,-z
1/2+x,1/2+y,1/2+z
1/2-x,-y,1/2+z
1/2+x,1/2-y,-z
-x,1/2+y,1/2-z
loop_
_atom_site_type_symbol
_atom_site_label
_atom_site_fract_x
_atom_site_fract_y
_atom_site_fract_z
Si Si1 0.367459 0.939890 0.012321
Si Si2 0.000000 0.250000 0.553791
Si Si3 0.532539 0.577554 0.948612
Si Si4 0.217400 0.400968 0.250118
Si Si5 0.051557 0.500000 0.750000
Si Si6 0.358714 0.260362 0.630450
Si Si7 0.913440 0.182135 0.871903
O O1 0.419761 0.917743 0.100589
O O2 0.348598 0.842878 0.934050
O O3 0.365639 0.000000 0.750000
O O4 0.348022 0.000000 0.250000
O O5 0.020716 0.175570 0.365274
O O6 0.040371 0.279079 0.748768
O O7 0.541451 0.500000 0.750000
O O8 0.484836 0.550336 0.071450
O O9 0.195736 0.500000 0.250000
O O10 0.250000 0.397678 0.500000
O O11 0.182330 0.321012 0.270130
O O12 0.250000 0.392965 0.000000
O O13 0.079406 0.424038 0.898495
O O14 0.377138 0.301501 0.358867
O O15 0.396133 0.272346 0.861343
#
# Coordination Sequence:
#
# PCOD9334820 Si02
#       7
#     8   4   8   8   4   8   8
#     4  11  23  40  62  90 127 173 228 275 323 376
#     4  10  22  42  54  90 134 178 240 280 336 390
#     4  10  21  37  58  79 121 179 230 283 326 388
#     4  10  23  45  76 107 137 171 207 261 344 437
#     4  10  24  36  54  86 128 182 228 282 334 396
#     4  12  25  44  69 100 134 172 225 284 339 404
#     4  11  26  38  62  93 135 182 228 284 335 385
#
# _framework density 21.143498000000001
#
# number of rings (size 3 to 8) (size 9 to 14) (size 15 to 20)
#    0.000    1.333    2.500    2.000    7.000    2.000 
#    0.000    0.000    0.000    2.000    0.000    0.000 
#    0.000    0.000    0.000    0.000    0.000    0.000 
#
# Total GULP energy -133797.725055 kJ/mol
# GULP energy per Si atom -5574.905211 kJ/mol
# Density = 2.109537 g / cm^3
# Si number density = 21.143498 Si / 1000 Ang^3
#
#
#
# Elastic Constant Matrix: (Units=GPa)
#
#
# Indices 1 2 3 4 5 6 
#
# 1 56.7337 66.1979 21.2587 0.0000 -0.0011 0.0000
# 2 66.1979 185.9000 42.5283 0.0000 -0.0002 0.0000
# 3 21.2587 42.5283 103.7856 0.0000 -0.0158 -0.0001
# 4 0.0000 0.0000 0.0000 29.5870 0.0009 0.0000
# 5 -0.0011 -0.0002 -0.0158 0.0009 -81.9475 -0.0009
# 6 0.0000 0.0000 -0.0001 0.0000 -0.0009 37.4725
#
#
#
# Elastic Compliance Matrix: (Units=1/GPa)
#
#
# Indices 1 2 3 4 5 6 
#
# 1 0.030522 -0.010415 -0.001984 0.000000 0.000000 0.000000
# 2 -0.010415 0.009489 -0.001755 0.000000 0.000000 0.000000
# 3 -0.001984 -0.001755 0.010761 0.000000 -0.000002 0.000000
# 4 0.000000 0.000000 0.000000 0.033799 0.000000 0.000000
# 5 0.000000 0.000000 -0.000002 0.000000 -0.012203 0.000000
# 6 0.000000 0.000000 0.000000 0.000000 0.000000 0.026686
#
#
# Mechanical properties :
#
#
# Convention : Reuss Voigt Hill
#
# Bulk Modulus (GPa) = 44.51601 67.37656 55.94629
# Shear Modulus (GPa) = 37.07822 11.45136 24.26479
#
# Velocity S-wave (km/s) = 4.19220 2.32976 3.39134
# Velocity P-wave (km/s) = 6.67328 6.25880 6.46936
#
# Compressibility (1/GPa) = 0.02246383
#
# Stress axis : x y z
#
# Youngs Moduli (GPa) = 32.76356 105.38100 92.92893
#
# Poissons Ratio (x) = 1.09751 0.18439
# Poissons Ratio (y) = 0.34122 0.16311
# Poissons Ratio (z) = 0.06501 0.18497
#
# Static dielectric constant tensor:
#      x y z
#    x 1.772450 -0.000130 0.000000 
#    y -0.000130 247.602650 0.000110 
#    z 0.000000 0.000110 1.778020 
# 
# From -- ./inp_files/7122.got.cif
#   From: 2010.05.17/outbox.cif.g08.bks.cpg/sg24_4_cif.got.tgz:7122.got - 2010.06.04 00:33:39.
