data_PCOD9334895
_publ_section_title
;
Structure prediction by ZEFSAII (Michael W. Deem and Ramdas Pophale) SiO2 
 PCOD9334895
Probable space group: I 21 21 21
;
_chemical_formula_sum "Si O2"
_cell_formula_units_Z 40
_cell_length_a 14.325490
_cell_length_b 5.116217
_cell_length_c 29.434351
_cell_angle_alpha 90.000000
_cell_angle_beta 90.000000
_cell_angle_gamma 90.000000
_cell_volume 2157.311739
_symmetry_space_group_name_H-M "I 21 21 21"
_symmetry_group_IT_number 24
_symmetry_cell_setting 'orthorhombic'
loop_
_space_group_symop_operation_xyz
x,y,z
-x,1/2-y,z
x,-y,1/2-z
1/2-x,y,-z
1/2+x,1/2+y,1/2+z
1/2-x,-y,1/2+z
1/2+x,1/2-y,-z
-x,1/2+y,1/2-z
loop_
_atom_site_type_symbol
_atom_site_label
_atom_site_fract_x
_atom_site_fract_y
_atom_site_fract_z
Si Si1 0.793889 0.290024 0.624247
Si Si2 0.392618 0.749775 0.218000
Si Si3 0.604631 0.200402 0.573316
Si Si4 0.897398 0.791332 0.589205
Si Si5 0.858188 0.699366 0.487197
O O1 0.820639 0.251644 0.676641
O O2 0.687409 0.237353 0.609724
O O3 0.826091 0.579618 0.609856
O O4 0.857382 0.079308 0.597395
O O5 0.500000 0.750000 0.200080
O O6 0.381505 0.500000 0.250000
O O7 0.381612 0.000000 0.250000
O O8 0.500000 0.250000 0.591012
O O9 0.622907 0.418018 0.534488
O O10 0.612579 0.919547 0.548968
O O11 0.904572 0.736141 0.535865
O O12 0.000000 0.750000 0.610243
O O13 0.750000 0.728727 0.500000
#
# Coordination Sequence:
#
# PCOD9334895 Si02
#       5
#     8   8   8   8   8
#     4  12  23  39  59  85 118 147 194 240 282 347
#     4  10  21  38  60  85 113 144 178 226 297 364
#     4  12  24  40  60  82 117 162 202 239 282 330
#     4  12  23  35  57  85 117 154 191 238 288 335
#     4  12  22  41  56  81 120 160 199 243 281 326
#
# _framework density 18.541595999999998
#
# number of rings (size 3 to 8) (size 9 to 14) (size 15 to 20)
#    0.000    0.400    4.000    6.600    0.000    1.600 
#    0.000    0.000    0.000    1.200    0.000    0.000 
#    0.000    0.000    0.000    0.000    0.000    0.000 
#
# Total GULP energy -111864.681785 kJ/mol
# GULP energy per Si atom -5593.234089 kJ/mol
# Density = 1.849939 g / cm^3
# Si number density = 18.541596 Si / 1000 Ang^3
#
#
#
# Elastic Constant Matrix: (Units=GPa)
#
#
# Indices 1 2 3 4 5 6 
#
# 1 119.7938 -18.4225 24.4608 0.0000 0.0000 0.0000
# 2 -18.4225 68.9819 1.5330 0.0000 0.0000 0.0000
# 3 24.4608 1.5330 89.4022 0.0000 0.0000 0.0000
# 4 0.0000 0.0000 0.0000 16.0027 0.0000 0.0000
# 5 0.0000 0.0000 0.0000 0.0000 8.7894 0.0000
# 6 0.0000 0.0000 0.0000 0.0000 0.0000 16.3527
#
#
#
# Elastic Compliance Matrix: (Units=1/GPa)
#
#
# Indices 1 2 3 4 5 6 
#
# 1 0.009263 0.002531 -0.002578 0.000000 0.000000 0.000000
# 2 0.002531 0.015194 -0.000953 0.000000 0.000000 0.000000
# 3 -0.002578 -0.000953 0.011907 0.000000 0.000000 0.000000
# 4 0.000000 0.000000 0.000000 0.062489 0.000000 0.000000
# 5 0.000000 0.000000 0.000000 0.000000 0.113774 0.000000
# 6 0.000000 0.000000 0.000000 0.000000 0.000000 0.061152
#
#
# Mechanical properties :
#
#
# Convention : Reuss Voigt Hill
#
# Bulk Modulus (GPa) = 29.09974 32.59114 30.84544
# Shear Modulus (GPa) = 17.40744 26.26941 21.83843
#
# Velocity S-wave (km/s) = 3.06736 3.76810 3.43564
# Velocity P-wave (km/s) = 5.31726 6.04540 5.69299
#
# Compressibility (1/GPa) = 0.03436457
#
# Stress axis : x y z
#
# Youngs Moduli (GPa) = 107.95272 65.81667 83.98371
#
# Poissons Ratio (x) = -0.16659 0.21650
# Poissons Ratio (y) = -0.27325 0.08004
# Poissons Ratio (z) = 0.27829 0.06273
#
# Static dielectric constant tensor:
#      x y z
#    x 1.723540 0.000000 0.000000 
#    y 0.000000 1.608490 0.000000 
#    z 0.000000 0.000000 1.622290 
# 
# From -- ./inp_files/35729.got.cif
#   From: 2010.05.17/outbox.cif.g08.bks.cpg/sg24_18_cif.got.tgz:35729.got - 2010.06.04 00:33:39.
