data_PCOD9334576
_publ_section_title
;
Structure prediction by ZEFSAII (Michael W. Deem and Ramdas Pophale) SiO2 
 PCOD9334576
Probable space group: I 21 21 21
;
_chemical_formula_sum "Si O2"
_cell_formula_units_Z 40
_cell_length_a 22.968691
_cell_length_b 9.667424
_cell_length_c 9.108357
_cell_angle_alpha 90.000000
_cell_angle_beta 90.000000
_cell_angle_gamma 90.000000
_cell_volume 2022.493135
_symmetry_space_group_name_H-M "I 21 21 21"
_symmetry_group_IT_number 24
_symmetry_cell_setting 'orthorhombic'
loop_
_space_group_symop_operation_xyz
x,y,z
-x,1/2-y,z
x,-y,1/2-z
1/2-x,y,-z
1/2+x,1/2+y,1/2+z
1/2-x,-y,1/2+z
1/2+x,1/2-y,-z
-x,1/2+y,1/2-z
loop_
_atom_site_type_symbol
_atom_site_label
_atom_site_fract_x
_atom_site_fract_y
_atom_site_fract_z
Si Si1 0.076417 0.000000 0.750000
Si Si2 0.798584 0.346801 0.222014
Si Si3 0.500000 0.250000 0.155733
Si Si4 0.397778 0.575788 0.395151
Si Si5 0.192083 0.419342 0.403788
Si Si6 0.669063 0.666033 0.397631
O O1 0.122910 0.042395 0.876526
O O2 0.036439 0.137736 0.748005
O O3 0.821194 0.500000 0.250000
O O4 0.809443 0.241273 0.354124
O O5 0.730424 0.361640 0.178702
O O6 0.825463 0.297227 0.068774
O O7 0.454017 0.335533 0.056450
O O8 0.418619 0.500000 0.250000
O O9 0.363810 0.477632 0.507896
O O10 0.353509 0.690761 0.332006
O O11 0.197518 0.500000 0.250000
O O12 0.250000 0.443792 0.500000
#
# Coordination Sequence:
#
# PCOD9334576 Si02
#       6
#     4   8   4   8   8   8
#     4  10  20  40  66  92 124 174 218 284 330 376
#     4  11  23  37  57  98 134 174 208 259 336 410
#     4  10  22  40  66 102 122 168 232 288 324 386
#     4  11  22  41  68  96 129 167 225 279 332 390
#     4  12  24  40  65 100 136 180 219 267 335 411
#     4  10  21  38  61  92 137 167 211 273 327 389
#
# _framework density 19.777570000000001
#
# number of rings (size 3 to 8) (size 9 to 14) (size 15 to 20)
#    0.000    1.200    4.000    3.000    2.800    3.200 
#    0.000    0.000    0.000    6.000    0.000    0.000 
#    0.000    0.000    0.000    0.000    0.000    0.000 
#
# Total GULP energy -111381.374115 kJ/mol
# GULP energy per Si atom -5569.068706 kJ/mol
# Density = 1.973256 g / cm^3
# Si number density = 19.777570 Si / 1000 Ang^3
#
#
#
# Elastic Constant Matrix: (Units=GPa)
#
#
# Indices 1 2 3 4 5 6 
#
# 1 104.4821 44.6427 48.3094 0.0000 0.0000 0.0000
# 2 44.6427 99.3254 36.5623 0.0000 0.0000 0.0000
# 3 48.3094 36.5623 75.3087 0.0000 0.0000 0.0000
# 4 0.0000 0.0000 0.0000 33.4992 0.0000 0.0000
# 5 0.0000 0.0000 0.0000 0.0000 12.9275 0.0000
# 6 0.0000 0.0000 0.0000 0.0000 0.0000 38.2676
#
#
#
# Elastic Compliance Matrix: (Units=1/GPa)
#
#
# Indices 1 2 3 4 5 6 
#
# 1 0.014708 -0.003820 -0.007580 0.000000 0.000000 0.000000
# 2 -0.003820 0.013251 -0.003983 0.000000 0.000000 0.000000
# 3 -0.007580 -0.003983 0.020075 0.000000 0.000000 0.000000
# 4 0.000000 0.000000 0.000000 0.029851 0.000000 0.000000
# 5 0.000000 0.000000 0.000000 0.000000 0.077354 0.000000
# 6 0.000000 0.000000 0.000000 0.000000 0.000000 0.026132
#
#
# Mechanical properties :
#
#
# Convention : Reuss Voigt Hill
#
# Bulk Modulus (GPa) = 57.91229 59.79388 58.85309
# Shear Modulus (GPa) = 22.94689 26.91232 24.92960
#
# Velocity S-wave (km/s) = 3.40994 3.69284 3.55420
# Velocity P-wave (km/s) = 6.69693 6.96287 6.83120
#
# Compressibility (1/GPa) = 0.01726749
#
# Stress axis : x y z
#
# Youngs Moduli (GPa) = 67.98878 75.46556 49.81339
#
# Poissons Ratio (x) = 0.28831 0.37760
# Poissons Ratio (y) = 0.25974 0.19839
# Poissons Ratio (z) = 0.51538 0.30055
#
# Static dielectric constant tensor:
#      x y z
#    x 1.744270 0.000000 0.000000 
#    y 0.000000 1.825250 0.000000 
#    z 0.000000 0.000000 1.696460 
# 
# From -- ./inp_files/15670.got.cif
#   From: 2010.05.17/outbox.cif.g08.bks.cpg/sg24_8_cif.got.tgz:15670.got - 2010.06.04 00:33:39.
