data_PCOD9334194
_publ_section_title
;
Structure prediction by ZEFSAII (Michael W. Deem and Ramdas Pophale) SiO2 
 PCOD9334194
Probable space group: I 21 21 21
;
_chemical_formula_sum "Si O2"
_cell_formula_units_Z 36
_cell_length_a 5.178548
_cell_length_b 25.563499
_cell_length_c 12.848750
_cell_angle_alpha 90.000000
_cell_angle_beta 90.000000
_cell_angle_gamma 90.000000
_cell_volume 1700.940738
_symmetry_space_group_name_H-M "I 21 21 21"
_symmetry_group_IT_number 24
_symmetry_cell_setting 'orthorhombic'
loop_
_space_group_symop_operation_xyz
x,y,z
-x,1/2-y,z
x,-y,1/2-z
1/2-x,y,-z
1/2+x,1/2+y,1/2+z
1/2-x,-y,1/2+z
1/2+x,1/2-y,-z
-x,1/2+y,1/2-z
loop_
_atom_site_type_symbol
_atom_site_label
_atom_site_fract_x
_atom_site_fract_y
_atom_site_fract_z
Si Si1 0.874251 0.103450 0.832288
Si Si2 0.699323 0.000000 0.750000
Si Si3 0.137533 0.852005 0.227727
Si Si4 0.500000 0.250000 0.830868
Si Si5 0.506659 0.429680 0.567888
Si Si6 0.750000 0.174337 0.000000
O O1 0.585624 0.122804 0.801781
O O2 0.937388 0.133015 0.940571
O O3 0.084377 0.123912 0.751445
O O4 0.863466 0.041232 0.818807
O O5 0.533573 0.967143 0.832663
O O6 0.145790 0.791184 0.257399
O O7 0.055728 0.871672 0.114302
O O8 0.664178 0.214163 0.909607
O O9 0.250000 0.431041 0.500000
O O10 0.750000 0.446029 0.500000
#
# Coordination Sequence:
#
# PCOD9334194 Si02
#       6
#     8   4   8   4   8   4
#     4  10  22  38  60  90 135 165 221 269 331 404
#     4  10  24  44  64  98 134 186 224 288 344 396
#     4  10  22  41  61  92 127 171 207 282 335 394
#     4  10  20  38  68  92 136 170 216 284 358 386
#     4  11  24  43  67  94 133 178 230 283 334 412
#     4  10  20  36  62 102 122 176 224 278 336 428
#
# _framework density 21.164760999999999
#
# number of rings (size 3 to 8) (size 9 to 14) (size 15 to 20)
#    0.000    1.778    0.000    4.000    1.556   13.333 
#    0.000    1.111    0.000    0.000    0.000    0.000 
#    0.000    0.000    0.000    0.000    0.000    0.000 
#
# Total GULP energy -100325.568829 kJ/mol
# GULP energy per Si atom -5573.642713 kJ/mol
# Density = 2.111659 g / cm^3
# Si number density = 21.164761 Si / 1000 Ang^3
#
#
#
# Elastic Constant Matrix: (Units=GPa)
#
#
# Indices 1 2 3 4 5 6 
#
# 1 60.1112 38.2101 40.9263 0.0000 0.0000 0.0000
# 2 38.2101 158.8925 53.1666 0.0000 0.0000 0.0000
# 3 40.9263 53.1666 111.6277 0.0001 0.0000 0.0000
# 4 0.0000 0.0000 0.0001 -6.3511 0.0000 0.0000
# 5 0.0000 0.0000 0.0000 0.0000 19.0010 0.0000
# 6 0.0000 0.0000 0.0000 0.0000 0.0000 7.0901
#
#
#
# Elastic Compliance Matrix: (Units=1/GPa)
#
#
# Indices 1 2 3 4 5 6 
#
# 1 0.023539 -0.003299 -0.007059 0.000000 0.000000 0.000000
# 2 -0.003299 0.007949 -0.002577 0.000000 0.000000 0.000000
# 3 -0.007059 -0.002577 0.012774 0.000000 0.000000 0.000000
# 4 0.000000 0.000000 0.000000 -0.157454 0.000000 0.000000
# 5 0.000000 0.000000 0.000000 0.000000 0.052629 0.000000
# 6 0.000000 0.000000 0.000000 0.000000 0.000000 0.141042
#
#
# Mechanical properties :
#
#
# Convention : Reuss Voigt Hill
#
# Bulk Modulus (GPa) = 54.36876 66.13751 60.25313
# Shear Modulus (GPa) = 44.45350 17.16990 30.81170
#
# Velocity S-wave (km/s) = 4.58793 2.85133 3.81964
# Velocity P-wave (km/s) = 7.33550 6.49283 6.92699
#
# Compressibility (1/GPa) = 0.01839292
#
# Stress axis : x y z
#
# Youngs Moduli (GPa) = 42.48343 125.80297 78.28654
#
# Poissons Ratio (x) = 0.41496 0.55262
# Poissons Ratio (y) = 0.14013 0.20171
# Poissons Ratio (z) = 0.29989 0.32415
#
# Static dielectric constant tensor:
#      x y z
#    x 1.811110 0.000000 0.000000 
#    y 0.000000 1.806930 0.000000 
#    z 0.000000 0.000000 1.828490 
# 
# From -- ./inp_files/2321.got.cif
#   From: 2010.05.17/outbox.cif.g08.bks.cpg/sg24_2_cif.got.tgz:2321.got - 2010.06.04 00:33:39.
