data_PCOD9334448
_publ_section_title
;
Structure prediction by ZEFSAII (Michael W. Deem and Ramdas Pophale) SiO2 
 PCOD9334448
Probable space group: I 21 21 21
;
_chemical_formula_sum "Si O2"
_cell_formula_units_Z 40
_cell_length_a 26.547494
_cell_length_b 5.532180
_cell_length_c 11.332784
_cell_angle_alpha 90.000000
_cell_angle_beta 90.000000
_cell_angle_gamma 90.000000
_cell_volume 1664.395163
_symmetry_space_group_name_H-M "I 21 21 21"
_symmetry_group_IT_number 24
_symmetry_cell_setting 'orthorhombic'
loop_
_space_group_symop_operation_xyz
x,y,z
-x,1/2-y,z
x,-y,1/2-z
1/2-x,y,-z
1/2+x,1/2+y,1/2+z
1/2-x,-y,1/2+z
1/2+x,1/2-y,-z
-x,1/2+y,1/2-z
loop_
_atom_site_type_symbol
_atom_site_label
_atom_site_fract_x
_atom_site_fract_y
_atom_site_fract_z
Si Si1 0.811725 0.257695 0.213476
Si Si2 0.601220 0.829194 0.066048
Si Si3 0.807204 0.170876 0.957326
Si Si4 0.152828 0.000000 0.750000
Si Si5 0.969466 0.000000 0.750000
Si Si6 0.075347 0.248234 0.307168
O O1 0.783189 0.500000 0.250000
O O2 0.864635 0.250158 0.281062
O O3 0.787196 0.000000 0.250000
O O4 0.825351 0.302307 0.076626
O O5 0.615260 0.622954 0.157382
O O6 0.566596 0.017965 0.135942
O O7 0.656379 0.942328 0.044300
O O8 0.572757 0.753058 0.948025
O O9 0.815436 0.316178 0.835347
O O10 0.750000 0.117617 0.000000
O O11 0.000000 0.750000 0.761867
O O12 0.056709 0.500000 0.250000
O O13 0.055905 0.000000 0.250000
#
# Coordination Sequence:
#
# PCOD9334448 Si02
#       6
#     8   8   8   4   4   8
#     4  10  20  39  63  96 136 193 247 299 371 449
#     4  12  25  49  77 110 159 210 266 342 404 494
#     4  12  27  43  70 108 159 214 265 334 397 488
#     4  12  25  46  70 110 156 212 274 327 406 484
#     4  12  29  52  84 122 158 212 276 349 424 484
#     4  10  20  38  70 106 140 191 252 307 388 470
#
# _framework density 24.032751999999999
#
# number of rings (size 3 to 8) (size 9 to 14) (size 15 to 20)
#    0.000    0.800    6.000    3.000    1.400    2.400 
#    0.000    0.000    0.000    2.400    0.000    0.000 
#    0.000    0.000    0.000    0.000    0.000    0.000 
#
# Total GULP energy -111644.677818 kJ/mol
# GULP energy per Si atom -5582.233891 kJ/mol
# Density = 2.397805 g / cm^3
# Si number density = 24.032752 Si / 1000 Ang^3
#
#
#
# Elastic Constant Matrix: (Units=GPa)
#
#
# Indices 1 2 3 4 5 6 
#
# 1 84.5623 27.3464 22.3145 0.0000 0.0000 0.0000
# 2 27.3464 183.1164 66.0105 0.0000 0.0000 0.0000
# 3 22.3145 66.0105 203.2047 0.0000 0.0000 0.0000
# 4 0.0000 0.0000 0.0000 54.1825 0.0000 0.0000
# 5 0.0000 0.0000 0.0000 0.0000 12.2966 0.0000
# 6 0.0000 0.0000 0.0000 0.0000 0.0000 70.4397
#
#
#
# Elastic Compliance Matrix: (Units=1/GPa)
#
#
# Indices 1 2 3 4 5 6 
#
# 1 0.012561 -0.001561 -0.000872 0.000000 0.000000 0.000000
# 2 -0.001561 0.006379 -0.001901 0.000000 0.000000 0.000000
# 3 -0.000872 -0.001901 0.005634 0.000000 0.000000 0.000000
# 4 0.000000 0.000000 0.000000 0.018456 0.000000 0.000000
# 5 0.000000 0.000000 0.000000 0.000000 0.081324 0.000000
# 6 0.000000 0.000000 0.000000 0.000000 0.000000 0.014197
#
#
# Mechanical properties :
#
#
# Convention : Reuss Voigt Hill
#
# Bulk Modulus (GPa) = 62.87047 78.02511 70.44779
# Shear Modulus (GPa) = 32.78227 51.06455 41.92341
#
# Velocity S-wave (km/s) = 3.69733 4.61455 4.18117
# Velocity P-wave (km/s) = 6.66664 7.80568 7.25854
#
# Compressibility (1/GPa) = 0.01590572
#
# Stress axis : x y z
#
# Youngs Moduli (GPa) = 79.61358 156.75400 177.48097
#
# Poissons Ratio (x) = 0.24476 0.15478
# Poissons Ratio (y) = 0.12431 0.33737
# Poissons Ratio (z) = 0.06943 0.29797
#
# Static dielectric constant tensor:
#      x y z
#    x 1.945820 0.000000 0.000000 
#    y 0.000000 2.045120 0.000000 
#    z 0.000000 0.000000 1.909200 
# 
# From -- ./inp_files/2510.got.cif
#   From: 2010.05.17/outbox.cif.g08.bks.cpg/sg24_2_cif.got.tgz:2510.got - 2010.06.04 00:33:39.
