data_PCOD9334621
_publ_section_title
;
Structure prediction by ZEFSAII (Michael W. Deem and Ramdas Pophale) SiO2 
 PCOD9334621
Probable space group: I 21 21 21
;
_chemical_formula_sum "Si O2"
_cell_formula_units_Z 32
_cell_length_a 7.723989
_cell_length_b 11.184315
_cell_length_c 16.573763
_cell_angle_alpha 90.000000
_cell_angle_beta 90.000000
_cell_angle_gamma 90.000000
_cell_volume 1431.766383
_symmetry_space_group_name_H-M "I 21 21 21"
_symmetry_group_IT_number 24
_symmetry_cell_setting 'orthorhombic'
loop_
_space_group_symop_operation_xyz
x,y,z
-x,1/2-y,z
x,-y,1/2-z
1/2-x,y,-z
1/2+x,1/2+y,1/2+z
1/2-x,-y,1/2+z
1/2+x,1/2-y,-z
-x,1/2+y,1/2-z
loop_
_atom_site_type_symbol
_atom_site_label
_atom_site_fract_x
_atom_site_fract_y
_atom_site_fract_z
Si Si1 0.000000 0.250000 0.798875
Si Si2 0.916480 0.091000 0.369433
Si Si3 0.500000 0.250000 0.479895
Si Si4 0.680193 0.824216 0.591614
Si Si5 0.777960 0.678049 0.831794
O O1 0.079748 0.153836 0.735624
O O2 0.163223 0.275763 0.854643
O O3 0.799389 0.186518 0.321111
O O4 0.928982 0.150444 0.458711
O O5 0.110256 0.095786 0.334084
O O6 0.851597 0.958518 0.377730
O O7 0.368438 0.184657 0.419139
O O8 0.500000 0.750000 0.597678
O O9 0.750000 0.824464 0.500000
#
# Coordination Sequence:
#
# PCOD9334621 Si02
#       5
#     4   8   4   8   8
#     4  11  26  50  66  99 146 182 240 285 352 432
#     4  10  20  40  72 102 137 177 226 288 348 411
#     4   9  16  36  70 109 138 160 220 293 354 414
#     4  12  27  49  70  97 141 194 244 285 336 425
#     4   9  20  41  71 107 135 169 222 299 367 398
#
# _framework density 22.350014000000002
#
# number of rings (size 3 to 8) (size 9 to 14) (size 15 to 20)
#    0.000    2.000    1.250    4.500    3.500    3.000 
#   13.500    0.000    0.000    0.000    0.000    0.000 
#    0.000    0.000    0.000    0.000    0.000    0.000 
#
# Total GULP energy -89376.753372 kJ/mol
# GULP energy per Si atom -5586.047086 kJ/mol
# Density = 2.229914 g / cm^3
# Si number density = 22.350014 Si / 1000 Ang^3
#
#
#
# Elastic Constant Matrix: (Units=GPa)
#
#
# Indices 1 2 3 4 5 6 
#
# 1 165.3766 24.8762 56.2638 0.0000 0.0000 0.0000
# 2 24.8762 69.9879 10.0394 0.0000 0.0000 0.0000
# 3 56.2638 10.0394 103.4434 0.0000 0.0000 0.0000
# 4 0.0000 0.0000 0.0000 -3.3070 0.0000 0.0000
# 5 0.0000 0.0000 0.0000 0.0000 49.0384 0.0000
# 6 0.0000 0.0000 0.0000 0.0000 0.0000 15.2164
#
#
#
# Elastic Compliance Matrix: (Units=1/GPa)
#
#
# Indices 1 2 3 4 5 6 
#
# 1 0.007733 -0.002176 -0.003995 0.000000 0.000000 0.000000
# 2 -0.002176 0.015102 -0.000282 0.000000 0.000000 0.000000
# 3 -0.003995 -0.000282 0.011867 0.000000 0.000000 0.000000
# 4 0.000000 0.000000 0.000000 -0.302391 0.000000 0.000000
# 5 0.000000 0.000000 0.000000 0.000000 0.020392 0.000000
# 6 0.000000 0.000000 0.000000 0.000000 0.000000 0.065718
#
#
# Mechanical properties :
#
#
# Convention : Reuss Voigt Hill
#
# Bulk Modulus (GPa) = 45.87849 57.90740 51.89295
# Shear Modulus (GPa) = -30.97773 28.69814 -1.13979
#
# Velocity S-wave (km/s) = -3.72698 3.58723 -0.71490
# Velocity P-wave (km/s) = 1.43225 6.56682 4.75261
#
# Compressibility (1/GPa) = 0.02179671
#
# Stress axis : x y z
#
# Youngs Moduli (GPa) = 129.31197 66.21652 84.26402
#
# Poissons Ratio (x) = 0.14406 0.33664
# Poissons Ratio (y) = 0.28133 0.02379
# Poissons Ratio (z) = 0.51661 0.01870
#
# Static dielectric constant tensor:
#      x y z
#    x 1.912930 0.000000 0.000000 
#    y 0.000000 1.808800 0.000000 
#    z 0.000000 0.000000 1.842100 
# 
# From -- ./inp_files/24318.got.cif
#   From: 2010.05.17/outbox.cif.g08.bks.cpg/sg24_13_cif.got.tgz:24318.got - 2010.06.04 00:33:39.
