data_PCOD9334672
_publ_section_title
;
Structure prediction by ZEFSAII (Michael W. Deem and Ramdas Pophale) SiO2 
 PCOD9334672
Probable space group: I 21 21 21
;
_chemical_formula_sum "Si O2"
_cell_formula_units_Z 48
_cell_length_a 15.491262
_cell_length_b 8.955524
_cell_length_c 16.527396
_cell_angle_alpha 90.000000
_cell_angle_beta 90.000000
_cell_angle_gamma 90.000000
_cell_volume 2292.884794
_symmetry_space_group_name_H-M "I 21 21 21"
_symmetry_group_IT_number 24
_symmetry_cell_setting 'orthorhombic'
loop_
_space_group_symop_operation_xyz
x,y,z
-x,1/2-y,z
x,-y,1/2-z
1/2-x,y,-z
1/2+x,1/2+y,1/2+z
1/2-x,-y,1/2+z
1/2+x,1/2-y,-z
-x,1/2+y,1/2-z
loop_
_atom_site_type_symbol
_atom_site_label
_atom_site_fract_x
_atom_site_fract_y
_atom_site_fract_z
Si Si1 0.263467 0.281202 0.218254
Si Si2 0.665504 0.962300 0.129331
Si Si3 0.750000 0.243468 0.500000
Si Si4 0.633793 0.500000 0.250000
Si Si5 0.840054 0.472713 0.034058
Si Si6 0.586535 0.346436 0.799818
Si Si7 0.024704 0.920399 0.900991
O O1 0.278347 0.389822 0.142675
O O2 0.313498 0.361363 0.291993
O O3 0.163826 0.253208 0.237260
O O4 0.306400 0.120736 0.206299
O O5 0.692367 0.861168 0.054555
O O6 0.565477 0.001759 0.117901
O O7 0.806135 0.358472 0.445987
O O8 0.576371 0.419504 0.316990
O O9 0.879527 0.390781 0.110738
O O10 0.750000 0.403278 0.000000
O O11 0.913689 0.500321 0.966395
O O12 0.500000 0.250000 0.802683
O O13 0.575491 0.500000 0.750000
O O14 0.000000 0.750000 0.924318
#
# Coordination Sequence:
#
# PCOD9334672 Si02
#       7
#     8   8   4   4   8   8   8
#     4  11  24  45  70  98 142 179 236 291 365 437
#     4  11  24  41  69 105 133 183 233 296 363 418
#     4  10  20  42  68 100 136 190 224 286 376 430
#     4  12  22  40  70  98 142 184 216 286 372 436
#     4  10  23  47  73  99 143 197 237 288 374 435
#     4  12  28  50  75 105 141 197 253 300 358 443
#     4  12  22  41  67 105 139 180 235 289 357 435
#
# _framework density 20.934325999999999
#
# number of rings (size 3 to 8) (size 9 to 14) (size 15 to 20)
#    0.500    0.333    4.167    3.000    2.333    2.000 
#   10.500    0.000    0.000    0.000    0.000    0.000 
#    0.000    0.000    0.000    0.000    0.000    0.000 
#
# Total GULP energy -134044.917322 kJ/mol
# GULP energy per Si atom -5585.204888 kJ/mol
# Density = 2.088668 g / cm^3
# Si number density = 20.934326 Si / 1000 Ang^3
#
#
#
# Elastic Constant Matrix: (Units=GPa)
#
#
# Indices 1 2 3 4 5 6 
#
# 1 173.6846 48.9112 43.1441 0.0000 0.0000 0.0000
# 2 48.9112 87.4934 8.0095 0.0000 0.0000 0.0000
# 3 43.1441 8.0095 66.9607 0.0000 0.0000 0.0000
# 4 0.0000 0.0000 0.0000 20.4105 0.0000 0.0000
# 5 0.0000 0.0000 0.0000 0.0000 26.5668 0.0000
# 6 0.0000 0.0000 0.0000 0.0000 0.0000 31.9219
#
#
#
# Elastic Compliance Matrix: (Units=1/GPa)
#
#
# Indices 1 2 3 4 5 6 
#
# 1 0.008080 -0.004085 -0.004717 0.000000 0.000000 0.000000
# 2 -0.004085 0.013621 0.001003 0.000000 0.000000 0.000000
# 3 -0.004717 0.001003 0.017854 0.000000 0.000000 0.000000
# 4 0.000000 0.000000 0.000000 0.048994 0.000000 0.000000
# 5 0.000000 0.000000 0.000000 0.000000 0.037641 0.000000
# 6 0.000000 0.000000 0.000000 0.000000 0.000000 0.031326
#
#
# Mechanical properties :
#
#
# Convention : Reuss Voigt Hill
#
# Bulk Modulus (GPa) = 41.74401 58.69646 50.22023
# Shear Modulus (GPa) = 27.60896 30.98478 29.29687
#
# Velocity S-wave (km/s) = 3.63552 3.85137 3.74500
# Velocity P-wave (km/s) = 6.13241 6.91930 6.53770
#
# Compressibility (1/GPa) = 0.02395553
#
# Stress axis : x y z
#
# Youngs Moduli (GPa) = 123.76666 73.41475 56.01094
#
# Poissons Ratio (x) = 0.29989 0.26422
# Poissons Ratio (y) = 0.50558 -0.05616
# Poissons Ratio (z) = 0.58385 -0.07361
#
# Static dielectric constant tensor:
#      x y z
#    x 1.784160 0.000000 0.000000 
#    y 0.000000 1.764050 0.000000 
#    z 0.000000 0.000000 1.816760 
# 
# From -- ./inp_files/30749.got.cif
#   From: 2010.05.17/outbox.cif.g08.bks.cpg/sg24_16_cif.got.tgz:30749.got - 2010.06.04 00:33:39.
