data_PCOD9334679
_publ_section_title
;
Structure prediction by ZEFSAII (Michael W. Deem and Ramdas Pophale) SiO2 
 PCOD9334679
Probable space group: I 21 21 21
;
_chemical_formula_sum "Si O2"
_cell_formula_units_Z 36
_cell_length_a 21.625398
_cell_length_b 7.111355
_cell_length_c 10.087065
_cell_angle_alpha 90.000000
_cell_angle_beta 90.000000
_cell_angle_gamma 90.000000
_cell_volume 1551.248190
_symmetry_space_group_name_H-M "I 21 21 21"
_symmetry_group_IT_number 24
_symmetry_cell_setting 'orthorhombic'
loop_
_space_group_symop_operation_xyz
x,y,z
-x,1/2-y,z
x,-y,1/2-z
1/2-x,y,-z
1/2+x,1/2+y,1/2+z
1/2-x,-y,1/2+z
1/2+x,1/2-y,-z
-x,1/2+y,1/2-z
loop_
_atom_site_type_symbol
_atom_site_label
_atom_site_fract_x
_atom_site_fract_y
_atom_site_fract_z
Si Si1 0.012950 0.528963 0.406759
Si Si2 0.710444 0.768882 0.131150
Si Si3 0.301651 0.000000 0.750000
Si Si4 0.116301 0.006701 0.982836
Si Si5 0.386524 0.565836 0.389897
O O1 0.018004 0.500000 0.250000
O O2 0.952040 0.441102 0.473001
O O3 0.000000 0.750000 0.424201
O O4 0.075058 0.485783 0.486441
O O5 0.756235 0.681883 0.240748
O O6 0.650635 0.636548 0.114043
O O7 0.681766 0.976427 0.119180
O O8 0.750000 0.740661 0.000000
O O9 0.344579 0.982043 0.620290
O O10 0.115203 0.211458 0.914137
O O11 0.416245 0.500000 0.250000
#
# Coordination Sequence:
#
# PCOD9334679 Si02
#       5
#     8   8   4   8   8
#     4  10  23  42  68  98 130 181 235 285 347 408
#     4  10  23  38  64  98 128 180 226 276 353 412
#     4  10  20  42  70  96 134 186 236 280 350 418
#     4  10  22  44  66  94 139 179 231 292 341 423
#     4  11  25  43  63 102 139 176 224 286 352 418
#
# _framework density 23.207118999999999
#
# number of rings (size 3 to 8) (size 9 to 14) (size 15 to 20)
#    0.000    1.778    1.111    1.333    3.111    6.222 
#   14.000    0.000    0.000    0.000    0.000    0.000 
#    0.000    0.000    0.000    0.000    0.000    0.000 
#
# Total GULP energy -100516.158484 kJ/mol
# GULP energy per Si atom -5584.231027 kJ/mol
# Density = 2.315430 g / cm^3
# Si number density = 23.207119 Si / 1000 Ang^3
#
#
#
# Elastic Constant Matrix: (Units=GPa)
#
#
# Indices 1 2 3 4 5 6 
#
# 1 88.8554 -7.4933 24.9646 0.0000 0.0000 0.0000
# 2 -7.4933 60.4691 10.9996 0.0000 0.0000 0.0000
# 3 24.9646 10.9996 88.1731 0.0000 0.0000 0.0000
# 4 0.0000 0.0000 0.0000 30.5957 0.0000 0.0000
# 5 0.0000 0.0000 0.0000 0.0000 20.3473 0.0000
# 6 0.0000 0.0000 0.0000 0.0000 0.0000 17.0662
#
#
#
# Elastic Compliance Matrix: (Units=1/GPa)
#
#
# Indices 1 2 3 4 5 6 
#
# 1 0.012518 0.002247 -0.003825 0.000000 0.000000 0.000000
# 2 0.002247 0.017325 -0.002797 0.000000 0.000000 0.000000
# 3 -0.003825 -0.002797 0.012773 0.000000 0.000000 0.000000
# 4 0.000000 0.000000 0.000000 0.032684 0.000000 0.000000
# 5 0.000000 0.000000 0.000000 0.000000 0.049147 0.000000
# 6 0.000000 0.000000 0.000000 0.000000 0.000000 0.058595
#
#
# Mechanical properties :
#
#
# Convention : Reuss Voigt Hill
#
# Bulk Modulus (GPa) = 29.52818 32.71549 31.12183
# Shear Modulus (GPa) = 24.62068 27.53695 26.07881
#
# Velocity S-wave (km/s) = 3.26070 3.44840 3.35586
# Velocity P-wave (km/s) = 5.18918 5.47568 5.33435
#
# Compressibility (1/GPa) = 0.03386596
#
# Stress axis : x y z
#
# Youngs Moduli (GPa) = 79.88308 57.72110 78.28901
#
# Poissons Ratio (x) = -0.12970 0.29943
# Poissons Ratio (y) = -0.17950 0.21901
# Poissons Ratio (z) = 0.30552 0.16147
#
# Static dielectric constant tensor:
#      x y z
#    x 1.872720 0.000000 0.000000 
#    y 0.000000 1.944210 0.000000 
#    z 0.000000 0.000000 1.881500 
# 
# From -- ./inp_files/14831.got.cif
#   From: 2010.05.17/outbox.cif.g08.bks.cpg/sg24_8_cif.got.tgz:14831.got - 2010.06.04 00:33:39.
