data_PCOD9334589
_publ_section_title
;
Structure prediction by ZEFSAII (Michael W. Deem and Ramdas Pophale) SiO2 
 PCOD9334589
Probable space group: I 21 21 21
;
_chemical_formula_sum "Si O2"
_cell_formula_units_Z 48
_cell_length_a 24.857801
_cell_length_b 5.039094
_cell_length_c 15.783705
_cell_angle_alpha 90.000000
_cell_angle_beta 90.000000
_cell_angle_gamma 90.000000
_cell_volume 1977.079450
_symmetry_space_group_name_H-M "I 21 21 21"
_symmetry_group_IT_number 24
_symmetry_cell_setting 'orthorhombic'
loop_
_space_group_symop_operation_xyz
x,y,z
-x,1/2-y,z
x,-y,1/2-z
1/2-x,y,-z
1/2+x,1/2+y,1/2+z
1/2-x,-y,1/2+z
1/2+x,1/2-y,-z
-x,1/2+y,1/2-z
loop_
_atom_site_type_symbol
_atom_site_label
_atom_site_fract_x
_atom_site_fract_y
_atom_site_fract_z
Si Si1 0.330765 0.166669 0.162180
Si Si2 0.500000 0.750000 0.032063
Si Si3 0.217730 0.181534 0.170205
Si Si4 0.846477 0.451450 0.480161
Si Si5 0.414266 0.540316 0.569578
Si Si6 0.055139 0.106174 0.844427
Si Si7 0.119120 0.500000 0.250000
O O1 0.275037 0.332032 0.159055
O O2 0.390949 0.283282 0.151196
O O3 0.335089 0.000000 0.250000
O O4 0.328712 0.989607 0.076970
O O5 0.548323 0.636155 0.090524
O O6 0.470017 0.534005 0.974601
O O7 0.200969 0.026462 0.085672
O O8 0.163090 0.313474 0.203539
O O9 0.230817 0.000000 0.250000
O O10 0.867179 0.156401 0.463500
O O11 0.893730 0.663765 0.453683
O O12 0.417996 0.455571 0.668572
O O13 0.000000 0.250000 0.861167
O O14 0.051901 0.000000 0.750000
#
# Coordination Sequence:
#
# PCOD9334589 Si02
#       7
#     8   4   8   8   8   8   4
#     4  10  22  41  62  99 135 177 233 278 336 412
#     4  12  24  42  68 100 128 188 226 292 338 418
#     4  10  20  40  67  94 134 177 223 280 341 409
#     4  11  22  45  66 102 136 183 220 285 338 410
#     4  11  25  42  75  96 140 174 233 278 349 408
#     4  11  22  40  62  91 136 180 226 277 341 399
#     4  10  22  46  66 102 134 184 220 290 354 414
#
# _framework density 24.278237000000001
#
# number of rings (size 3 to 8) (size 9 to 14) (size 15 to 20)
#    0.000    1.333    4.167    1.500    0.000    0.000 
#    7.500    5.000    0.000    0.000    0.000    0.000 
#    0.000    0.000    0.000    0.000    0.000    0.000 
#
# Total GULP energy -133748.394284 kJ/mol
# GULP energy per Si atom -5572.849762 kJ/mol
# Density = 2.422298 g / cm^3
# Si number density = 24.278237 Si / 1000 Ang^3
#
#
#
# Elastic Constant Matrix: (Units=GPa)
#
#
# Indices 1 2 3 4 5 6 
#
# 1 136.4787 9.7667 28.1760 0.0000 0.0000 0.0000
# 2 9.7667 42.7311 7.6277 0.0000 0.0000 0.0000
# 3 28.1760 7.6277 199.4804 0.0000 0.0000 0.0000
# 4 0.0000 0.0000 0.0000 23.0729 0.0000 0.0000
# 5 0.0000 0.0000 0.0000 0.0000 46.8749 0.0000
# 6 0.0000 0.0000 0.0000 0.0000 0.0000 25.3468
#
#
#
# Elastic Compliance Matrix: (Units=1/GPa)
#
#
# Indices 1 2 3 4 5 6 
#
# 1 0.007650 -0.001566 -0.001021 0.000000 0.000000 0.000000
# 2 -0.001566 0.023884 -0.000692 0.000000 0.000000 0.000000
# 3 -0.001021 -0.000692 0.005184 0.000000 0.000000 0.000000
# 4 0.000000 0.000000 0.000000 0.043341 0.000000 0.000000
# 5 0.000000 0.000000 0.000000 0.000000 0.021333 0.000000
# 6 0.000000 0.000000 0.000000 0.000000 0.000000 0.039453
#
#
# Mechanical properties :
#
#
# Convention : Reuss Voigt Hill
#
# Bulk Modulus (GPa) = 33.15724 52.20346 42.68035
# Shear Modulus (GPa) = 31.75502 41.26690 36.51096
#
# Velocity S-wave (km/s) = 3.62050 4.12727 3.88216
# Velocity P-wave (km/s) = 5.58249 6.65292 6.14107
#
# Compressibility (1/GPa) = 0.03015933
#
# Stress axis : x y z
#
# Youngs Moduli (GPa) = 130.71978 41.86961 192.91438
#
# Poissons Ratio (x) = 0.06558 0.19690
# Poissons Ratio (y) = 0.20475 0.13350
# Poissons Ratio (z) = 0.13342 0.02897
#
# Static dielectric constant tensor:
#      x y z
#    x 2.117620 0.000000 0.000000 
#    y 0.000000 2.057720 0.000000 
#    z 0.000000 0.000000 1.997860 
# 
# From -- ./inp_files/28047.got.cif
#   From: 2010.05.17/outbox.cif.g08.bks.cpg/sg24_15_cif.got.tgz:28047.got - 2010.06.04 00:33:39.
