data_PCOD9334213
_publ_section_title
;
Structure prediction by ZEFSAII (Michael W. Deem and Ramdas Pophale) SiO2 
 PCOD9334213
Probable space group: I 21 21 21
;
_chemical_formula_sum "Si O2"
_cell_formula_units_Z 28
_cell_length_a 19.336619
_cell_length_b 5.096088
_cell_length_c 13.636576
_cell_angle_alpha 90.000000
_cell_angle_beta 90.000000
_cell_angle_gamma 90.000000
_cell_volume 1343.763364
_symmetry_space_group_name_H-M "I 21 21 21"
_symmetry_group_IT_number 24
_symmetry_cell_setting 'orthorhombic'
loop_
_space_group_symop_operation_xyz
x,y,z
-x,1/2-y,z
x,-y,1/2-z
1/2-x,y,-z
1/2+x,1/2+y,1/2+z
1/2-x,-y,1/2+z
1/2+x,1/2-y,-z
-x,1/2+y,1/2-z
loop_
_atom_site_type_symbol
_atom_site_label
_atom_site_fract_x
_atom_site_fract_y
_atom_site_fract_z
Si Si1 0.500000 0.750000 0.639860
Si Si2 0.827304 0.473166 0.461141
Si Si3 0.121559 0.000000 0.250000
Si Si4 0.412372 0.517084 0.484527
Si Si5 0.500000 0.250000 0.188056
O O1 0.433798 0.794356 0.707164
O O2 0.475004 0.527974 0.563597
O O3 0.750000 0.450855 0.500000
O O4 0.834408 0.416944 0.344364
O O5 0.857339 0.762913 0.480921
O O6 0.876284 0.262916 0.514926
O O7 0.442924 0.616768 0.382198
O O8 0.526961 0.500000 0.250000
#
# Coordination Sequence:
#
# PCOD9334213 Si02
#       5
#     4   8   4   8   4
#     4   9  18  34  65  92 116 146 205 278 329 362
#     4  11  23  41  60  89 132 172 212 257 317 397
#     4  10  20  36  64  96 122 162 212 262 334 384
#     4  10  22  40  63  90 125 162 210 277 325 368
#     4  11  22  40  65  96 126 166 223 272 331 392
#
# _framework density 20.837002999999999
#
# number of rings (size 3 to 8) (size 9 to 14) (size 15 to 20)
#    0.000    1.714    0.000    4.286    0.000   11.429 
#    7.714    0.000    0.000    0.000    0.000    0.000 
#    0.000    0.000    0.000    0.000    0.000    0.000 
#
# Total GULP energy -78154.651001 kJ/mol
# GULP energy per Si atom -5582.475071 kJ/mol
# Density = 2.078958 g / cm^3
# Si number density = 20.837003 Si / 1000 Ang^3
#
#
#
# Elastic Constant Matrix: (Units=GPa)
#
#
# Indices 1 2 3 4 5 6 
#
# 1 117.9006 21.5318 54.7911 0.0000 0.0000 0.0000
# 2 21.5318 86.1047 18.9546 0.0000 0.0000 0.0000
# 3 54.7911 18.9546 137.8018 0.0000 0.0000 0.0000
# 4 0.0000 0.0000 0.0000 19.4170 0.0000 0.0000
# 5 0.0000 0.0000 0.0000 0.0000 41.5775 0.0000
# 6 0.0000 0.0000 0.0000 0.0000 0.0000 31.4580
#
#
#
# Elastic Compliance Matrix: (Units=1/GPa)
#
#
# Indices 1 2 3 4 5 6 
#
# 1 0.010664 -0.001788 -0.003994 0.000000 0.000000 0.000000
# 2 -0.001788 0.012276 -0.000978 0.000000 0.000000 0.000000
# 3 -0.003994 -0.000978 0.008980 0.000000 0.000000 0.000000
# 4 0.000000 0.000000 0.000000 0.051501 0.000000 0.000000
# 5 0.000000 0.000000 0.000000 0.000000 0.024051 0.000000
# 6 0.000000 0.000000 0.000000 0.000000 0.000000 0.031788
#
#
# Mechanical properties :
#
#
# Convention : Reuss Voigt Hill
#
# Bulk Modulus (GPa) = 54.34637 59.15134 56.74886
# Shear Modulus (GPa) = 31.46354 34.92581 33.19467
#
# Velocity S-wave (km/s) = 3.89007 4.09851 3.99565
# Velocity P-wave (km/s) = 6.80552 7.13066 6.96999
#
# Compressibility (1/GPa) = 0.01840049
#
# Stress axis : x y z
#
# Youngs Moduli (GPa) = 93.76943 81.45959 111.36467
#
# Poissons Ratio (x) = 0.14561 0.44484
# Poissons Ratio (y) = 0.16761 0.10890
# Poissons Ratio (z) = 0.37455 0.07965
#
# Static dielectric constant tensor:
#      x y z
#    x 1.729110 0.000000 0.000000 
#    y 0.000000 1.736340 0.000000 
#    z 0.000000 0.000000 1.799780 
# 
# From -- ./inp_files/1918.got.cif
#   From: 2010.05.17/outbox.cif.g08.bks.cpg/sg24_1_cif.got.tgz:1918.got - 2010.06.04 00:33:39.
