data_PCOD9334242
_publ_section_title
;
Structure prediction by ZEFSAII (Michael W. Deem and Ramdas Pophale) SiO2 
 PCOD9334242
Probable space group: I 21 21 21
;
_chemical_formula_sum "Si O2"
_cell_formula_units_Z 40
_cell_length_a 5.074415
_cell_length_b 18.912654
_cell_length_c 16.120242
_cell_angle_alpha 90.000000
_cell_angle_beta 90.000000
_cell_angle_gamma 90.000000
_cell_volume 1547.070186
_symmetry_space_group_name_H-M "I 21 21 21"
_symmetry_group_IT_number 24
_symmetry_cell_setting 'orthorhombic'
loop_
_space_group_symop_operation_xyz
x,y,z
-x,1/2-y,z
x,-y,1/2-z
1/2-x,y,-z
1/2+x,1/2+y,1/2+z
1/2-x,-y,1/2+z
1/2+x,1/2-y,-z
-x,1/2+y,1/2-z
loop_
_atom_site_type_symbol
_atom_site_label
_atom_site_fract_x
_atom_site_fract_y
_atom_site_fract_z
Si Si1 0.691232 0.658582 0.089767
Si Si2 0.704329 0.338775 0.767112
Si Si3 0.691468 0.064901 0.591798
Si Si4 0.000000 0.750000 0.399410
Si Si5 0.812818 0.074066 0.821880
Si Si6 0.750000 0.132698 0.000000
O O1 0.765388 0.694805 0.175992
O O2 0.392750 0.630913 0.095370
O O3 0.891071 0.591171 0.091904
O O4 0.750000 0.693016 0.000000
O O5 0.721192 0.277223 0.835358
O O6 0.429343 0.379601 0.785604
O O7 0.925678 0.398826 0.777196
O O8 0.750000 0.034985 0.500000
O O9 0.746455 0.008680 0.664192
O O10 0.040316 0.684529 0.458945
O O11 0.858771 0.094592 0.919000
#
# Coordination Sequence:
#
# PCOD9334242 Si02
#       6
#     8   8   8   4   8   4
#     4  10  22  39  60  82 120 159 199 247 308 349
#     4  11  24  38  59  88 114 159 203 257 291 350
#     4  10  20  37  58  88 122 162 193 239 295 369
#     4  10  22  40  62  86 124 156 208 248 300 348
#     4  11  22  36  60  90 123 153 199 235 298 371
#     4  10  20  38  60  88 120 164 184 240 302 366
#
# _framework density 25.855322000000001
#
# number of rings (size 3 to 8) (size 9 to 14) (size 15 to 20)
#    0.000    1.600    1.000    3.600    0.000    9.600 
#    0.000    0.000    0.000    8.400    0.000    0.000 
#    0.000    0.000    0.000    0.000    0.000    0.000 
#
# Total GULP energy -111816.460523 kJ/mol
# GULP energy per Si atom -5590.823026 kJ/mol
# Density = 2.579647 g / cm^3
# Si number density = 25.855322 Si / 1000 Ang^3
#
#
#
# Elastic Constant Matrix: (Units=GPa)
#
#
# Indices 1 2 3 4 5 6 
#
# 1 125.3731 30.2276 22.6290 0.0000 0.0000 0.0000
# 2 30.2276 50.9622 -0.1751 0.0000 0.0000 0.0000
# 3 22.6290 -0.1751 189.5448 0.0000 0.0000 0.0000
# 4 0.0000 0.0000 0.0000 38.2600 0.0000 0.0000
# 5 0.0000 0.0000 0.0000 0.0000 33.3349 0.0000
# 6 0.0000 0.0000 0.0000 0.0000 0.0000 28.8464
#
#
#
# Elastic Compliance Matrix: (Units=1/GPa)
#
#
# Indices 1 2 3 4 5 6 
#
# 1 0.009550 -0.005668 -0.001145 0.000000 0.000000 0.000000
# 2 -0.005668 0.022987 0.000698 0.000000 0.000000 0.000000
# 3 -0.001145 0.000698 0.005413 0.000000 0.000000 0.000000
# 4 0.000000 0.000000 0.000000 0.026137 0.000000 0.000000
# 5 0.000000 0.000000 0.000000 0.000000 0.029999 0.000000
# 6 0.000000 0.000000 0.000000 0.000000 0.000000 0.034666
#
#
# Mechanical properties :
#
#
# Convention : Reuss Voigt Hill
#
# Bulk Modulus (GPa) = 38.88258 52.36033 45.62146
# Shear Modulus (GPa) = 33.43247 40.96816 37.20031
#
# Velocity S-wave (km/s) = 3.59981 3.98492 3.79725
# Velocity P-wave (km/s) = 5.68765 6.43956 6.07525
#
# Compressibility (1/GPa) = 0.02571846
#
# Stress axis : x y z
#
# Youngs Moduli (GPa) = 104.71748 43.50327 184.73437
#
# Poissons Ratio (x) = 0.24658 0.21158
# Poissons Ratio (y) = 0.59355 -0.12893
# Poissons Ratio (z) = 0.11993 -0.03036
#
# Static dielectric constant tensor:
#      x y z
#    x 1.948720 0.000000 0.000000 
#    y 0.000000 2.115510 0.000000 
#    z 0.000000 0.000000 2.008000 
# 
# From -- ./inp_files/23753.got.cif
#   From: 2010.05.17/outbox.cif.g08.bks.cpg/sg24_12_cif.got.tgz:23753.got - 2010.06.04 00:33:39.
