data_PCOD9334288
_publ_section_title
;
Structure prediction by ZEFSAII (Michael W. Deem and Ramdas Pophale) SiO2 
 PCOD9334288
Probable space group: I 21 21 21
;
_chemical_formula_sum "Si O2"
_cell_formula_units_Z 48
_cell_length_a 14.280659
_cell_length_b 22.090759
_cell_length_c 6.184870
_cell_angle_alpha 90.000000
_cell_angle_beta 90.000000
_cell_angle_gamma 90.000000
_cell_volume 1951.144627
_symmetry_space_group_name_H-M "I 21 21 21"
_symmetry_group_IT_number 24
_symmetry_cell_setting 'orthorhombic'
loop_
_space_group_symop_operation_xyz
x,y,z
-x,1/2-y,z
x,-y,1/2-z
1/2-x,y,-z
1/2+x,1/2+y,1/2+z
1/2-x,-y,1/2+z
1/2+x,1/2-y,-z
-x,1/2+y,1/2-z
loop_
_atom_site_type_symbol
_atom_site_label
_atom_site_fract_x
_atom_site_fract_y
_atom_site_fract_z
Si Si1 0.750000 0.814320 0.000000
Si Si2 0.002294 0.587298 0.903144
Si Si3 0.438019 0.803484 0.387130
Si Si4 0.250000 0.838159 0.500000
Si Si5 0.919037 0.823711 0.255304
Si Si6 0.824749 0.434233 0.330321
Si Si7 0.330499 0.402475 0.133254
O O1 0.841422 0.784415 0.119814
O O2 0.712930 0.859914 0.183773
O O3 0.083307 0.562797 0.744421
O O4 0.952215 0.635995 0.748528
O O5 0.054704 0.624025 0.089154
O O6 0.921175 0.553802 0.037250
O O7 0.500000 0.750000 0.281739
O O8 0.326967 0.794794 0.390351
O O9 0.482242 0.806269 0.629525
O O10 0.314860 0.884413 0.640993
O O11 0.870568 0.854636 0.461055
O O12 0.793205 0.500000 0.250000
O O13 0.750000 0.410249 0.500000
O O14 0.250000 0.437946 0.000000
#
# Coordination Sequence:
#
# PCOD9334288 Si02
#       7
#     4   8   8   4   8   8   8
#     4   8  14  28  52  84 117 159 214 268 338 394
#     4  10  20  37  62  92 140 175 231 295 347 433
#     4  11  24  41  62  90 133 191 241 284 362 437
#     4  12  24  46  68  94 145 195 234 320 366 432
#     4   9  17  33  56  83 127 165 220 285 339 408
#     4  12  24  42  72 104 138 187 240 296 380 454
#     4   8  15  29  54  86 126 169 213 272 345 402
#
# _framework density 24.600943000000001
#
# number of rings (size 3 to 8) (size 9 to 14) (size 15 to 20)
#    0.000    2.000    4.167    0.000    0.000    0.667 
#   15.000    0.000    0.000    0.000    0.000    0.000 
#   77.500    1.000    0.000    0.000    0.000    0.000 
#
# Total GULP energy -133618.716785 kJ/mol
# GULP energy per Si atom -5567.446533 kJ/mol
# Density = 2.454495 g / cm^3
# Si number density = 24.600943 Si / 1000 Ang^3
#
#
#
# Elastic Constant Matrix: (Units=GPa)
#
#
# Indices 1 2 3 4 5 6 
#
# 1 141.6781 11.5751 42.5198 0.0000 0.0000 0.0000
# 2 11.5751 45.4622 3.9996 0.0000 0.0000 0.0000
# 3 42.5198 3.9996 116.0192 -0.0003 -0.0004 0.0005
# 4 0.0000 0.0000 -0.0003 4.6615 -0.0001 0.0003
# 5 0.0000 0.0000 -0.0004 -0.0001 53.8230 0.0002
# 6 0.0000 0.0000 0.0005 0.0003 0.0002 67.9420
#
#
#
# Elastic Compliance Matrix: (Units=1/GPa)
#
#
# Indices 1 2 3 4 5 6 
#
# 1 0.008075 -0.001801 -0.002897 0.000000 0.000000 0.000000
# 2 -0.001801 0.022465 -0.000114 0.000000 0.000000 0.000000
# 3 -0.002897 -0.000114 0.009685 0.000001 0.000000 0.000000
# 4 0.000000 0.000000 0.000001 0.214525 0.000001 -0.000001
# 5 0.000000 0.000000 0.000000 0.000001 0.018579 0.000000
# 6 0.000000 0.000000 0.000000 -0.000001 0.000000 0.014718
#
#
# Mechanical properties :
#
#
# Convention : Reuss Voigt Hill
#
# Bulk Modulus (GPa) = 32.68033 46.59427 39.63730
# Shear Modulus (GPa) = 16.24049 41.62296 28.93172
#
# Velocity S-wave (km/s) = 2.57214 4.11776 3.43307
# Velocity P-wave (km/s) = 4.70470 6.44896 5.64461
#
# Compressibility (1/GPa) = 0.03059945
#
# Stress axis : x y z
#
# Youngs Moduli (GPa) = 123.84032 44.51383 103.25218
#
# Poissons Ratio (x) = 0.08017 0.29915
# Poissons Ratio (y) = 0.22304 0.01181
# Poissons Ratio (z) = 0.35880 0.00509
#
# Static dielectric constant tensor:
#      x y z
#    x 2.127070 0.000000 0.000000 
#    y 0.000000 1.903020 0.000000 
#    z 0.000000 0.000000 1.951140 
# 
# From -- ./inp_files/3796.got.cif
#   From: 2010.05.17/outbox.cif.g08.bks.cpg/sg24_2_cif.got.tgz:3796.got - 2010.06.04 00:33:39.
