data_PCOD9334981
_publ_section_title
;
Structure prediction by ZEFSAII (Michael W. Deem and Ramdas Pophale) SiO2 
 PCOD9334981
Probable space group: I 21 21 21
;
_chemical_formula_sum "Si O2"
_cell_formula_units_Z 48
_cell_length_a 24.998788
_cell_length_b 5.061636
_cell_length_c 18.509261
_cell_angle_alpha 90.000000
_cell_angle_beta 90.000000
_cell_angle_gamma 90.000000
_cell_volume 2342.064996
_symmetry_space_group_name_H-M "I 21 21 21"
_symmetry_group_IT_number 24
_symmetry_cell_setting 'orthorhombic'
loop_
_space_group_symop_operation_xyz
x,y,z
-x,1/2-y,z
x,-y,1/2-z
1/2-x,y,-z
1/2+x,1/2+y,1/2+z
1/2-x,-y,1/2+z
1/2+x,1/2-y,-z
-x,1/2+y,1/2-z
loop_
_atom_site_type_symbol
_atom_site_label
_atom_site_fract_x
_atom_site_fract_y
_atom_site_fract_z
Si Si1 0.188624 0.183338 0.856830
Si Si2 0.000000 0.250000 0.707923
Si Si3 0.898876 0.500000 0.750000
Si Si4 0.693711 0.475268 0.669565
Si Si5 0.962661 0.999526 0.167219
Si Si6 0.148422 0.474492 0.093874
Si Si7 0.695017 0.191044 0.453616
O O1 0.142106 0.179499 0.796580
O O2 0.244717 0.065884 0.827735
O O3 0.176550 0.968535 0.920163
O O4 0.199228 0.471181 0.890648
O O5 0.023251 0.500000 0.750000
O O6 0.941539 0.382994 0.689674
O O7 0.670294 0.500000 0.750000
O O8 0.666762 0.679931 0.613946
O O9 0.683149 0.181182 0.641554
O O10 0.912442 0.995616 0.116084
O O11 0.000000 0.250000 0.156518
O O12 0.942621 0.000000 0.250000
O O13 0.000000 0.750000 0.157217
O O14 0.156213 0.559678 0.011929
O O15 0.750000 0.228376 0.500000
#
# Coordination Sequence:
#
# PCOD9334981 Si02
#       7
#     8   4   4   8   8   8   8
#     4  12  24  38  65  91 122 165 211 247 310 383
#     4   8  20  40  68  88 124 160 196 256 344 362
#     4  10  24  42  70  96 128 158 214 278 320 362
#     4  12  22  37  59  97 121 155 198 261 310 360
#     4  10  21  39  63  87 112 155 204 251 301 346
#     4  12  24  40  63  84 132 162 203 250 307 372
#     4  12  24  41  60  89 127 177 202 235 312 390
#
# _framework density 20.494733
#
# number of rings (size 3 to 8) (size 9 to 14) (size 15 to 20)
#    0.500    0.333    4.167    4.000    2.333    1.333 
#    0.000    0.000   11.000    0.000    0.000    0.000 
#    0.000    0.000    0.000    0.000    0.000    0.000 
#
# Total GULP energy -133726.005390 kJ/mol
# GULP energy per Si atom -5571.916891 kJ/mol
# Density = 2.044809 g / cm^3
# Si number density = 20.494733 Si / 1000 Ang^3
#
#
#
# Elastic Constant Matrix: (Units=GPa)
#
#
# Indices 1 2 3 4 5 6 
#
# 1 55.3537 -5.6304 17.9649 0.0000 0.0000 0.0000
# 2 -5.6304 83.9648 0.6790 0.0000 0.0000 0.0000
# 3 17.9649 0.6790 55.1477 0.0000 0.0000 0.0000
# 4 0.0000 0.0000 0.0000 24.8858 0.0000 0.0000
# 5 0.0000 0.0000 0.0000 0.0000 11.2414 0.0000
# 6 0.0000 0.0000 0.0000 0.0000 0.0000 25.0883
#
#
#
# Elastic Compliance Matrix: (Units=1/GPa)
#
#
# Indices 1 2 3 4 5 6 
#
# 1 0.020369 0.001420 -0.006653 0.000000 0.000000 0.000000
# 2 0.001420 0.012010 -0.000610 0.000000 0.000000 0.000000
# 3 -0.006653 -0.000610 0.020308 0.000000 0.000000 0.000000
# 4 0.000000 0.000000 0.000000 0.040184 0.000000 0.000000
# 5 0.000000 0.000000 0.000000 0.000000 0.088957 0.000000
# 6 0.000000 0.000000 0.000000 0.000000 0.000000 0.039859
#
#
# Mechanical properties :
#
#
# Convention : Reuss Voigt Hill
#
# Bulk Modulus (GPa) = 24.39034 24.49923 24.44478
# Shear Modulus (GPa) = 20.23962 24.33996 22.28979
#
# Velocity S-wave (km/s) = 3.14594 3.44993 3.30143
# Velocity P-wave (km/s) = 5.01224 5.27723 5.14644
#
# Compressibility (1/GPa) = 0.04099984
#
# Stress axis : x y z
#
# Youngs Moduli (GPa) = 49.09361 83.26472 49.24195
#
# Poissons Ratio (x) = -0.11821 0.32760
# Poissons Ratio (y) = -0.06970 0.03005
# Poissons Ratio (z) = 0.32662 0.05082
#
# Static dielectric constant tensor:
#      x y z
#    x 1.727320 0.000000 0.000000 
#    y 0.000000 1.715670 0.000000 
#    z 0.000000 0.000000 1.786540 
# 
# From -- ./inp_files/31532.got.cif
#   From: 2010.05.17/outbox.cif.g08.bks.cpg/sg24_16_cif.got.tgz:31532.got - 2010.06.04 00:33:39.
