data_PCOD9334669
_publ_section_title
;
Structure prediction by ZEFSAII (Michael W. Deem and Ramdas Pophale) SiO2 
 PCOD9334669
Probable space group: I 21 21 21
;
_chemical_formula_sum "Si O2"
_cell_formula_units_Z 60
_cell_length_a 29.555266
_cell_length_b 7.570658
_cell_length_c 12.021908
_cell_angle_alpha 90.000000
_cell_angle_beta 90.000000
_cell_angle_gamma 90.000000
_cell_volume 2689.935708
_symmetry_space_group_name_H-M "I 21 21 21"
_symmetry_group_IT_number 24
_symmetry_cell_setting 'orthorhombic'
loop_
_space_group_symop_operation_xyz
x,y,z
-x,1/2-y,z
x,-y,1/2-z
1/2-x,y,-z
1/2+x,1/2+y,1/2+z
1/2-x,-y,1/2+z
1/2+x,1/2-y,-z
-x,1/2+y,1/2-z
loop_
_atom_site_type_symbol
_atom_site_label
_atom_site_fract_x
_atom_site_fract_y
_atom_site_fract_z
Si Si1 0.889480 0.724497 0.174613
Si Si2 0.917015 0.517350 0.879927
Si Si3 0.525887 0.559732 0.919827
Si Si4 0.217476 0.786275 0.765239
Si Si5 0.342707 0.726544 0.445783
Si Si6 0.188434 0.184333 0.181677
Si Si7 0.541125 0.000000 0.750000
Si Si8 0.150645 0.313977 0.545814
O O1 0.924134 0.570495 0.137944
O O2 0.861933 0.743581 0.287664
O O3 0.925006 0.880060 0.181573
O O4 0.851525 0.741006 0.079523
O O5 0.925595 0.500000 0.750000
O O6 0.883204 0.363255 0.922470
O O7 0.890397 0.703559 0.898376
O O8 0.961774 0.511365 0.954956
O O9 0.500000 0.750000 0.919609
O O10 0.494038 0.437727 0.844829
O O11 0.185551 0.717237 0.667841
O O12 0.267954 0.722372 0.735136
O O13 0.195481 0.731763 0.882855
O O14 0.216374 0.000000 0.750000
O O15 0.312003 0.801802 0.547992
O O16 0.356723 0.523398 0.464951
O O17 0.188726 0.000000 0.250000
#
# Coordination Sequence:
#
# PCOD9334669 Si02
#       8
#     8   8   8   8   8   8   4   8
#     4  10  22  41  63  97 132 178 224 288 359 423
#     4  11  22  42  76 101 136 189 243 291 364 439
#     4   9  21  39  70  93 135 178 220 295 361 429
#     4  11  23  44  67  98 145 196 242 297 355 411
#     4  12  23  42  69 102 134 193 245 290 357 428
#     4  11  25  41  68 100 145 188 247 297 346 436
#     4  10  20  42  66  96 136 176 226 290 374 438
#     4  11  22  43  70  99 143 182 240 297 351 422
#
# _framework density 22.305364999999998
#
# number of rings (size 3 to 8) (size 9 to 14) (size 15 to 20)
#    0.000    1.333    2.667    3.200    2.800    0.533 
#   12.000    0.000   11.733    0.000    0.000    0.000 
#    0.000    0.000    0.000    0.000    0.000    0.000 
#
# Total GULP energy -167189.148663 kJ/mol
# GULP energy per Si atom -5572.971622 kJ/mol
# Density = 2.225460 g / cm^3
# Si number density = 22.305365 Si / 1000 Ang^3
#
#
#
# Elastic Constant Matrix: (Units=GPa)
#
#
# Indices 1 2 3 4 5 6 
#
# 1 98.8228 16.3888 36.1305 0.0000 0.0000 0.0000
# 2 16.3888 97.8085 19.4062 0.0000 0.0000 0.0000
# 3 36.1305 19.4062 119.1649 0.0000 0.0000 0.0000
# 4 0.0000 0.0000 0.0000 28.1164 0.0000 0.0000
# 5 0.0000 0.0000 0.0000 0.0000 69.1982 0.0000
# 6 0.0000 0.0000 0.0000 0.0000 0.0000 -49.0720
#
#
#
# Elastic Compliance Matrix: (Units=1/GPa)
#
#
# Indices 1 2 3 4 5 6 
#
# 1 0.011534 -0.001280 -0.003289 0.000000 0.000000 0.000000
# 2 -0.001280 0.010708 -0.001356 0.000000 0.000000 0.000000
# 3 -0.003289 -0.001356 0.009610 0.000000 0.000000 0.000000
# 4 0.000000 0.000000 0.000000 0.035566 0.000000 0.000000
# 5 0.000000 0.000000 0.000000 0.000000 0.014451 0.000000
# 6 0.000000 0.000000 0.000000 0.000000 0.000000 -0.020378
#
#
# Mechanical properties :
#
#
# Convention : Reuss Voigt Hill
#
# Bulk Modulus (GPa) = 49.99423 51.07193 50.53308
# Shear Modulus (GPa) = 62.49515 25.90658 44.20086
#
# Velocity S-wave (km/s) = 5.29894 3.41170 4.45637
# Velocity P-wave (km/s) = 7.73955 6.20210 7.01308
#
# Compressibility (1/GPa) = 0.02000231
#
# Stress axis : x y z
#
# Youngs Moduli (GPa) = 86.70220 93.39229 104.06295
#
# Poissons Ratio (x) = 0.11955 0.34221
# Poissons Ratio (y) = 0.11099 0.14107
# Poissons Ratio (z) = 0.28512 0.12660
#
# Static dielectric constant tensor:
#      x y z
#    x 1.870340 0.000000 0.000000 
#    y 0.000000 1.967670 0.000000 
#    z 0.000000 0.000000 2.327800 
# 
# From -- ./inp_files/23174.got.cif
#   From: 2010.05.17/outbox.cif.g08.bks.cpg/sg24_12_cif.got.tgz:23174.got - 2010.06.04 00:33:39.
