data_PCOD9334362
_publ_section_title
;
Structure prediction by ZEFSAII (Michael W. Deem and Ramdas Pophale) SiO2 
 PCOD9334362
Probable space group: I 21 21 21
;
_chemical_formula_sum "Si O2"
_cell_formula_units_Z 52
_cell_length_a 11.694293
_cell_length_b 25.406566
_cell_length_c 8.347972
_cell_angle_alpha 90.000000
_cell_angle_beta 90.000000
_cell_angle_gamma 90.000000
_cell_volume 2480.281212
_symmetry_space_group_name_H-M "I 21 21 21"
_symmetry_group_IT_number 24
_symmetry_cell_setting 'orthorhombic'
loop_
_space_group_symop_operation_xyz
x,y,z
-x,1/2-y,z
x,-y,1/2-z
1/2-x,y,-z
1/2+x,1/2+y,1/2+z
1/2-x,-y,1/2+z
1/2+x,1/2-y,-z
-x,1/2+y,1/2-z
loop_
_atom_site_type_symbol
_atom_site_label
_atom_site_fract_x
_atom_site_fract_y
_atom_site_fract_z
Si Si1 0.665331 0.125816 0.261834
Si Si2 0.127328 0.528876 0.008269
Si Si3 0.270335 0.939389 0.302795
Si Si4 0.001526 0.927130 0.552983
Si Si5 0.250000 0.867103 0.000000
Si Si6 0.513258 0.688050 0.035619
Si Si7 0.427786 0.384444 0.747361
O O1 0.647911 0.076937 0.385353
O O2 0.611956 0.103383 0.102390
O O3 0.581040 0.170263 0.331833
O O4 0.797880 0.137591 0.233965
O O5 0.097535 0.557896 0.172089
O O6 0.250000 0.500130 0.000000
O O7 0.028965 0.488214 0.966475
O O8 0.250000 0.935685 0.500000
O O9 0.404592 0.923549 0.310134
O O10 0.221659 0.904110 0.155514
O O11 0.252480 0.000000 0.250000
O O12 0.019791 0.898062 0.384866
O O13 0.143982 0.830898 0.941313
O O14 0.500000 0.750000 0.014404
O O15 0.479825 0.655745 0.877728
#
# Coordination Sequence:
#
# PCOD9334362 Si02
#       7
#     8   8   8   8   4   8   8
#     4  10  20  38  61  93 129 164 220 275 337 413
#     4   9  18  32  55  90 130 174 210 257 325 407
#     4  12  26  43  68 100 148 197 242 281 342 422
#     4  12  21  35  60  94 135 175 214 274 342 410
#     4  12  26  50  72 104 138 188 244 294 352 432
#     4  11  25  45  71  91 121 172 234 294 357 411
#     4  10  22  37  61  95 132 165 219 278 343 414
#
# _framework density 20.965364999999998
#
# number of rings (size 3 to 8) (size 9 to 14) (size 15 to 20)
#    0.000    1.231    2.308    5.538    4.308    3.692 
#    0.000    0.769    0.000    0.000    0.000    0.000 
#    0.000    0.000    0.000    0.000    0.000    0.000 
#
# Total GULP energy -144829.438330 kJ/mol
# GULP energy per Si atom -5570.363013 kJ/mol
# Density = 2.091765 g / cm^3
# Si number density = 20.965365 Si / 1000 Ang^3
#
#
#
# Elastic Constant Matrix: (Units=GPa)
#
#
# Indices 1 2 3 4 5 6 
#
# 1 61.0477 34.7638 16.3862 0.0002 -0.0002 0.0000
# 2 34.7638 102.4817 14.9952 -0.0008 -0.0002 0.0001
# 3 16.3862 14.9952 55.2033 -0.0012 -0.0038 0.0002
# 4 0.0002 -0.0008 -0.0012 14.9399 0.0002 0.0001
# 5 -0.0002 -0.0002 -0.0038 0.0002 40.0680 0.0000
# 6 0.0000 0.0001 0.0002 0.0001 0.0000 22.3171
#
#
#
# Elastic Compliance Matrix: (Units=1/GPa)
#
#
# Indices 1 2 3 4 5 6 
#
# 1 0.021346 -0.006575 -0.004550 -0.000001 0.000000 0.000000
# 2 -0.006575 0.012187 -0.001359 0.000001 0.000000 0.000000
# 3 -0.004550 -0.001359 0.019835 0.000002 0.000002 0.000000
# 4 -0.000001 0.000001 0.000002 0.066935 0.000000 0.000000
# 5 0.000000 0.000000 0.000002 0.000000 0.024958 0.000000
# 6 0.000000 0.000000 0.000000 0.000000 0.000000 0.044809
#
#
# Mechanical properties :
#
#
# Convention : Reuss Voigt Hill
#
# Bulk Modulus (GPa) = 35.21178 39.00258 37.10718
# Shear Modulus (GPa) = 22.27133 25.63751 23.95442
#
# Velocity S-wave (km/s) = 3.26282 3.50072 3.38386
# Velocity P-wave (km/s) = 5.57013 5.91471 5.74500
#
# Compressibility (1/GPa) = 0.02839958
#
# Stress axis : x y z
#
# Youngs Moduli (GPa) = 46.84655 82.05389 50.41700
#
# Poissons Ratio (x) = 0.53953 0.22941
# Poissons Ratio (y) = 0.30803 0.06850
# Poissons Ratio (z) = 0.21316 0.11149
#
# Static dielectric constant tensor:
#      x y z
#    x 1.803220 0.000000 0.000000 
#    y 0.000000 1.699590 0.000000 
#    z 0.000000 0.000000 1.989230 
# 
# From -- ./inp_files/11472.got.cif
#   From: 2010.05.17/outbox.cif.g08.bks.cpg/sg24_6_cif.got.tgz:11472.got - 2010.06.04 00:33:39.
