data_PCOD9334092
_publ_section_title
;
Structure prediction by ZEFSAII (Michael W. Deem and Ramdas Pophale) SiO2 
 PCOD9334092
Probable space group: I 21 21 21
;
_chemical_formula_sum "Si O2"
_cell_formula_units_Z 36
_cell_length_a 32.147072
_cell_length_b 4.952427
_cell_length_c 11.521398
_cell_angle_alpha 90.000000
_cell_angle_beta 90.000000
_cell_angle_gamma 90.000000
_cell_volume 1834.276005
_symmetry_space_group_name_H-M "I 21 21 21"
_symmetry_group_IT_number 24
_symmetry_cell_setting 'orthorhombic'
loop_
_space_group_symop_operation_xyz
x,y,z
-x,1/2-y,z
x,-y,1/2-z
1/2-x,y,-z
1/2+x,1/2+y,1/2+z
1/2-x,-y,1/2+z
1/2+x,1/2-y,-z
-x,1/2+y,1/2-z
loop_
_atom_site_type_symbol
_atom_site_label
_atom_site_fract_x
_atom_site_fract_y
_atom_site_fract_z
Si Si1 0.547785 0.752054 0.336220
Si Si2 0.685791 0.242634 0.829265
Si Si3 0.370437 0.690476 0.467637
Si Si4 0.173320 0.813126 0.865503
Si Si5 0.750000 0.526266 0.000000
O O1 0.500000 0.750000 0.377443
O O2 0.556471 0.500000 0.250000
O O3 0.581157 0.794310 0.437340
O O4 0.552003 0.000000 0.250000
O O5 0.674610 0.500000 0.750000
O O6 0.701636 0.000000 0.750000
O O7 0.647123 0.128980 0.904887
O O8 0.721336 0.342935 0.917557
O O9 0.348148 0.479004 0.378806
O O10 0.354226 0.993059 0.446356
O O11 0.175443 0.000000 0.750000
O O12 0.219142 0.799720 0.920317
#
# Coordination Sequence:
#
# PCOD9334092 Si02
#       5
#     8   8   8   8   4
#     4  10  20  35  59  90 120 147 180 229 289 352
#     4  11  24  40  58  81 113 154 201 248 292 344
#     4  11  22  37  57  82 112 150 188 229 288 346
#     4  11  22  35  55  80 111 147 187 234 281 338
#     4  10  24  38  56  80 108 148 196 242 288 334
#
# _framework density 19.626270999999999
#
# number of rings (size 3 to 8) (size 9 to 14) (size 15 to 20)
#    0.000    1.333    0.000    7.333    0.000   11.556 
#    0.000    0.000    0.000    1.333    0.000    0.000 
#    0.000    0.000    0.000    0.000    0.000    0.000 
#
# Total GULP energy -100466.709689 kJ/mol
# GULP energy per Si atom -5581.483872 kJ/mol
# Density = 1.958160 g / cm^3
# Si number density = 19.626271 Si / 1000 Ang^3
#
#
#
# Elastic Constant Matrix: (Units=GPa)
#
#
# Indices 1 2 3 4 5 6 
#
# 1 143.3065 25.9780 48.8465 0.0000 0.0000 0.0000
# 2 25.9780 117.7498 21.7473 0.0000 0.0000 0.0000
# 3 48.8465 21.7473 92.9239 0.0000 0.0000 0.0000
# 4 0.0000 0.0000 0.0000 4.0566 0.0000 0.0000
# 5 0.0000 0.0000 0.0000 0.0000 30.7461 0.0000
# 6 0.0000 0.0000 0.0000 0.0000 0.0000 22.2448
#
#
#
# Elastic Compliance Matrix: (Units=1/GPa)
#
#
# Indices 1 2 3 4 5 6 
#
# 1 0.008639 -0.001115 -0.004280 0.000000 0.000000 0.000000
# 2 -0.001115 0.009020 -0.001525 0.000000 0.000000 0.000000
# 3 -0.004280 -0.001525 0.013368 0.000000 0.000000 0.000000
# 4 0.000000 0.000000 0.000000 0.246513 0.000000 0.000000
# 5 0.000000 0.000000 0.000000 0.000000 0.032524 0.000000
# 6 0.000000 0.000000 0.000000 0.000000 0.000000 0.044954
#
#
# Mechanical properties :
#
#
# Convention : Reuss Voigt Hill
#
# Bulk Modulus (GPa) = 58.18363 60.79154 59.48758
# Shear Modulus (GPa) = 13.34796 28.57005 20.95901
#
# Velocity S-wave (km/s) = 2.61071 3.81951 3.27143
# Velocity P-wave (km/s) = 6.22880 7.10587 6.68174
#
# Compressibility (1/GPa) = 0.01718697
#
# Stress axis : x y z
#
# Youngs Moduli (GPa) = 115.75162 110.86135 74.80397
#
# Poissons Ratio (x) = 0.12366 0.32018
# Poissons Ratio (y) = 0.12912 0.11405
# Poissons Ratio (z) = 0.49544 0.16903
#
# Static dielectric constant tensor:
#      x y z
#    x 1.863520 0.000000 0.000000 
#    y 0.000000 1.681580 0.000000 
#    z 0.000000 0.000000 1.792630 
# 
# From -- ./inp_files/23058.got.cif
#   From: 2010.05.17/outbox.cif.g08.bks.cpg/sg24_12_cif.got.tgz:23058.got - 2010.06.04 00:33:39.
