data_PCOD9334279
_publ_section_title
;
Structure prediction by ZEFSAII (Michael W. Deem and Ramdas Pophale) SiO2 
 PCOD9334279
Probable space group: I 21 21 21
;
_chemical_formula_sum "Si O2"
_cell_formula_units_Z 40
_cell_length_a 8.106875
_cell_length_b 27.774213
_cell_length_c 7.278856
_cell_angle_alpha 90.000000
_cell_angle_beta 90.000000
_cell_angle_gamma 90.000000
_cell_volume 1638.922306
_symmetry_space_group_name_H-M "I 21 21 21"
_symmetry_group_IT_number 24
_symmetry_cell_setting 'orthorhombic'
loop_
_space_group_symop_operation_xyz
x,y,z
-x,1/2-y,z
x,-y,1/2-z
1/2-x,y,-z
1/2+x,1/2+y,1/2+z
1/2-x,-y,1/2+z
1/2+x,1/2-y,-z
-x,1/2+y,1/2-z
loop_
_atom_site_type_symbol
_atom_site_label
_atom_site_fract_x
_atom_site_fract_y
_atom_site_fract_z
Si Si1 0.547655 0.555025 0.278728
Si Si2 0.374033 0.907548 0.695126
Si Si3 0.224903 0.600041 0.294224
Si Si4 0.703148 0.308558 0.284697
Si Si5 0.694157 0.201458 0.286893
O O1 0.502490 0.500000 0.250000
O O2 0.585207 0.573522 0.488394
O O3 0.730322 0.563754 0.203445
O O4 0.395872 0.585774 0.201246
O O5 0.551303 0.914952 0.788010
O O6 0.305043 0.852509 0.695817
O O7 0.250000 0.579658 0.500000
O O8 0.213777 0.657484 0.306797
O O9 0.750000 0.311429 0.500000
O O10 0.744805 0.254460 0.219863
O O11 0.502830 0.308805 0.269050
O O12 0.750000 0.199618 0.500000
#
# Coordination Sequence:
#
# PCOD9334279 Si02
#       5
#     8   8   8   8   8
#     4  10  22  43  65  89 128 167 222 283 331 394
#     4  10  21  41  67  92 127 169 220 274 337 393
#     4  10  21  40  64  95 132 171 217 271 330 395
#     4  10  20  37  64  95 138 176 219 270 329 396
#     4  10  20  37  61  99 136 180 219 263 326 404
#
# _framework density 24.406282000000001
#
# number of rings (size 3 to 8) (size 9 to 14) (size 15 to 20)
#    0.000    2.000    2.000    1.200    0.000    3.200 
#    7.200    3.000    0.000    0.000    0.000    0.000 
#    0.000    0.000    0.000    0.000    0.000    0.000 
#
# Total GULP energy -111543.560626 kJ/mol
# GULP energy per Si atom -5577.178031 kJ/mol
# Density = 2.435073 g / cm^3
# Si number density = 24.406282 Si / 1000 Ang^3
#
#
#
# Elastic Constant Matrix: (Units=GPa)
#
#
# Indices 1 2 3 4 5 6 
#
# 1 101.4505 16.5934 9.3780 0.0017 0.0000 0.0005
# 2 16.5934 132.7384 5.7357 0.0001 0.0001 0.0002
# 3 9.3780 5.7357 110.0118 0.0010 -0.0003 0.0002
# 4 0.0017 0.0001 0.0010 34.1586 -0.0002 0.0006
# 5 0.0000 0.0001 -0.0003 -0.0002 2.8778 0.0001
# 6 0.0005 0.0002 0.0002 0.0006 0.0001 1.6700
#
#
#
# Elastic Compliance Matrix: (Units=1/GPa)
#
#
# Indices 1 2 3 4 5 6 
#
# 1 0.010132 -0.001232 -0.000800 0.000000 0.000000 -0.000003
# 2 -0.001232 0.007700 -0.000296 0.000000 0.000000 -0.000001
# 3 -0.000800 -0.000296 0.009174 0.000000 0.000001 -0.000001
# 4 0.000000 0.000000 0.000000 0.029275 0.000002 -0.000011
# 5 0.000000 0.000000 0.000001 0.000002 0.347486 -0.000019
# 6 -0.000003 -0.000001 -0.000001 -0.000011 -0.000019 0.598820
#
#
# Mechanical properties :
#
#
# Convention : Reuss Voigt Hill
#
# Bulk Modulus (GPa) = 44.74202 45.29052 45.01627
# Shear Modulus (GPa) = 4.92759 28.57417 16.75088
#
# Velocity S-wave (km/s) = 1.42245 3.42537 2.62264
# Velocity P-wave (km/s) = 4.59018 5.85161 5.25886
#
# Compressibility (1/GPa) = 0.02235035
#
# Stress axis : x y z
#
# Youngs Moduli (GPa) = 98.69277 129.86257 109.00910
#
# Poissons Ratio (x) = 0.16000 0.08715
# Poissons Ratio (y) = 0.12160 0.03232
# Poissons Ratio (z) = 0.07891 0.03850
#
# Static dielectric constant tensor:
#      x y z
#    x 2.056640 0.000000 0.000000 
#    y 0.000000 1.922590 0.000000 
#    z 0.000000 0.000000 2.058980 
# 
# From -- ./inp_files/9287.got.cif
#   From: 2010.05.17/outbox.cif.g08.bks.cpg/sg24_5_cif.got.tgz:9287.got - 2010.06.04 00:33:39.
