data_PCOD9334583
_publ_section_title
;
Structure prediction by ZEFSAII (Michael W. Deem and Ramdas Pophale) SiO2 
 PCOD9334583
Probable space group: I 21 21 21
;
_chemical_formula_sum "Si O2"
_cell_formula_units_Z 64
_cell_length_a 24.391885
_cell_length_b 9.659255
_cell_length_c 13.470260
_cell_angle_alpha 90.000000
_cell_angle_beta 90.000000
_cell_angle_gamma 90.000000
_cell_volume 3173.693436
_symmetry_space_group_name_H-M "I 21 21 21"
_symmetry_group_IT_number 24
_symmetry_cell_setting 'orthorhombic'
loop_
_space_group_symop_operation_xyz
x,y,z
-x,1/2-y,z
x,-y,1/2-z
1/2-x,y,-z
1/2+x,1/2+y,1/2+z
1/2-x,-y,1/2+z
1/2+x,1/2-y,-z
-x,1/2+y,1/2-z
loop_
_atom_site_type_symbol
_atom_site_label
_atom_site_fract_x
_atom_site_fract_y
_atom_site_fract_z
Si Si1 0.366554 0.153193 0.202672
Si Si2 0.989303 0.097062 0.476376
Si Si3 0.878293 0.099239 0.382392
Si Si4 0.307560 0.831197 0.944016
Si Si5 0.102424 0.074059 0.019954
Si Si6 0.547842 0.849946 0.201983
Si Si7 0.258351 0.836293 0.734251
Si Si8 0.640343 0.199149 0.837829
O O1 0.398791 0.262269 0.270413
O O2 0.303166 0.196332 0.205741
O O3 0.371668 0.000000 0.250000
O O4 0.387336 0.136138 0.090002
O O5 0.938230 0.044943 0.413331
O O6 0.966456 0.122613 0.587422
O O7 0.000000 0.250000 0.434430
O O8 0.044755 0.008501 0.477752
O O9 0.849588 0.202688 0.461299
O O10 0.881236 0.176586 0.275360
O O11 0.846561 0.955437 0.373488
O O12 0.281559 0.784482 0.838784
O O13 0.348106 0.964186 0.954146
O O14 0.250000 0.857288 0.000000
O O15 0.101904 0.201635 0.097016
O O16 0.500000 0.750000 0.242937
O O17 0.548993 0.000000 0.250000
O O18 0.302363 0.780812 0.658306
O O19 0.261570 0.000000 0.750000
#
# Coordination Sequence:
#
# PCOD9334583 Si02
#       8
#     8   8   8   8   8   8   8   8
#     4  11  24  42  67 102 136 181 229 281 347 415
#     4  11  23  43  69  96 133 177 229 278 342 415
#     4  10  24  47  65  95 140 180 220 286 353 412
#     4  11  22  39  69  99 132 182 227 279 337 413
#     4  12  24  42  73 104 135 178 240 287 340 415
#     4  11  24  43  67  94 138 176 224 283 343 406
#     4  10  20  40  66  95 137 176 222 281 344 405
#     4  10  24  46  65 101 138 172 228 290 344 407
#
# _framework density 20.165779000000001
#
# number of rings (size 3 to 8) (size 9 to 14) (size 15 to 20)
#    0.000    1.250    2.500    4.125    3.500    0.500 
#   11.250    0.000    0.000    0.000    0.000    0.000 
#    0.000    0.000    0.000    0.000    0.000    0.000 
#
# Total GULP energy -178295.899673 kJ/mol
# GULP energy per Si atom -5571.746865 kJ/mol
# Density = 2.011988 g / cm^3
# Si number density = 20.165779 Si / 1000 Ang^3
#
#
#
# Elastic Constant Matrix: (Units=GPa)
#
#
# Indices 1 2 3 4 5 6 
#
# 1 139.3282 54.6541 48.4699 0.0000 0.0000 0.0000
# 2 54.6541 89.9879 38.2044 0.0000 0.0000 0.0000
# 3 48.4699 38.2044 59.2113 0.0000 0.0000 0.0000
# 4 0.0000 0.0000 0.0000 24.8836 0.0000 0.0000
# 5 0.0000 0.0000 0.0000 0.0000 20.1788 0.0000
# 6 0.0000 0.0000 0.0000 0.0000 0.0000 24.1474
#
#
#
# Elastic Compliance Matrix: (Units=1/GPa)
#
#
# Indices 1 2 3 4 5 6 
#
# 1 0.010955 -0.003920 -0.006438 0.000000 0.000000 0.000000
# 2 -0.003920 0.016708 -0.007571 0.000000 0.000000 0.000000
# 3 -0.006438 -0.007571 0.027044 0.000000 0.000000 0.000000
# 4 0.000000 0.000000 0.000000 0.040187 0.000000 0.000000
# 5 0.000000 0.000000 0.000000 0.000000 0.049557 0.000000
# 6 0.000000 0.000000 0.000000 0.000000 0.000000 0.041412
#
#
# Mechanical properties :
#
#
# Convention : Reuss Voigt Hill
#
# Bulk Modulus (GPa) = 53.05723 63.46490 58.26107
# Shear Modulus (GPa) = 21.92937 23.65523 22.79230
#
# Velocity S-wave (km/s) = 3.30123 3.42868 3.36556
# Velocity P-wave (km/s) = 6.39519 6.87127 6.63750
#
# Compressibility (1/GPa) = 0.01884757
#
# Stress axis : x y z
#
# Youngs Moduli (GPa) = 91.28481 59.85206 36.97664
#
# Poissons Ratio (x) = 0.23462 0.23806
# Poissons Ratio (y) = 0.35784 0.27996
# Poissons Ratio (z) = 0.58771 0.45316
#
# Static dielectric constant tensor:
#      x y z
#    x 1.885440 0.000000 0.000000 
#    y 0.000000 1.726820 0.000000 
#    z 0.000000 0.000000 1.760590 
# 
# From -- ./inp_files/27877.got.cif
#   From: 2010.05.17/outbox.cif.g08.bks.cpg/sg24_14_cif.got.tgz:27877.got - 2010.06.04 00:33:39.
