data_PCOD9334810
_publ_section_title
;
Structure prediction by ZEFSAII (Michael W. Deem and Ramdas Pophale) SiO2 
 PCOD9334810
Probable space group: I 21 21 21
;
_chemical_formula_sum "Si O2"
_cell_formula_units_Z 60
_cell_length_a 29.264956
_cell_length_b 17.607643
_cell_length_c 5.246820
_cell_angle_alpha 90.000000
_cell_angle_beta 90.000000
_cell_angle_gamma 90.000000
_cell_volume 2703.617600
_symmetry_space_group_name_H-M "I 21 21 21"
_symmetry_group_IT_number 24
_symmetry_cell_setting 'orthorhombic'
loop_
_space_group_symop_operation_xyz
x,y,z
-x,1/2-y,z
x,-y,1/2-z
1/2-x,y,-z
1/2+x,1/2+y,1/2+z
1/2-x,-y,1/2+z
1/2+x,1/2-y,-z
-x,1/2+y,1/2-z
loop_
_atom_site_type_symbol
_atom_site_label
_atom_site_fract_x
_atom_site_fract_y
_atom_site_fract_z
Si Si1 0.721666 0.908220 0.249435
Si Si2 0.914076 0.416454 0.646129
Si Si3 0.703457 0.571154 0.626133
Si Si4 0.457403 0.852800 0.670924
Si Si5 0.435973 0.675855 0.761766
Si Si6 0.750000 0.688831 0.000000
Si Si7 0.119455 0.343983 0.782321
Si Si8 0.161147 0.186152 0.738638
O O1 0.750000 0.881746 0.500000
O O2 0.668301 0.884843 0.246398
O O3 0.722529 0.000000 0.250000
O O4 0.750000 0.882918 0.000000
O O5 0.902395 0.500000 0.750000
O O6 0.943210 0.412745 0.389222
O O7 0.870782 0.364649 0.560544
O O8 0.939905 0.376601 0.888451
O O9 0.678765 0.500000 0.750000
O O10 0.750000 0.538003 0.500000
O O11 0.674755 0.620726 0.434437
O O12 0.722823 0.633310 0.815559
O O13 0.437826 0.768384 0.739380
O O14 0.511980 0.846811 0.701748
O O15 0.406055 0.635410 0.542230
O O16 0.413584 0.653997 0.034727
O O17 0.708284 0.725401 0.147377
O O18 0.131720 0.255777 0.828742
#
# Coordination Sequence:
#
# PCOD9334810 Si02
#       8
#     8   8   8   8   8   4   8   8
#     4  10  23  45  72 102 142 185 220 267 346 423
#     4  12  26  43  68  99 138 180 227 282 334 404
#     4  10  21  37  55  77 113 173 232 278 329 374
#     4  11  23  47  69  97 133 177 227 274 353 414
#     4  11  23  44  73  99 132 174 220 287 342 411
#     4  10  24  38  54  78 126 172 224 282 324 370
#     4  12  24  43  71 106 135 173 228 279 331 408
#     4  11  26  38  60  92 131 174 232 278 333 386
#
# _framework density 22.192487
#
# number of rings (size 3 to 8) (size 9 to 14) (size 15 to 20)
#    0.000    1.067    3.333    2.000    6.533    3.733 
#    0.000    4.000    0.000    0.000    0.000    0.000 
#    0.000    0.000    0.000    0.000    0.000    0.000 
#
# Total GULP energy -167416.025728 kJ/mol
# GULP energy per Si atom -5580.534191 kJ/mol
# Density = 2.214198 g / cm^3
# Si number density = 22.192487 Si / 1000 Ang^3
#
#
#
# Elastic Constant Matrix: (Units=GPa)
#
#
# Indices 1 2 3 4 5 6 
#
# 1 128.4289 19.1573 55.6878 0.0000 0.0000 0.0000
# 2 19.1573 41.4443 8.5370 0.0000 0.0000 0.0000
# 3 55.6878 8.5370 124.1705 0.0000 0.0000 0.0000
# 4 0.0000 0.0000 0.0000 15.1939 0.0000 0.0000
# 5 0.0000 0.0000 0.0000 0.0000 27.5775 0.0000
# 6 0.0000 0.0000 0.0000 0.0000 0.0000 29.8383
#
#
#
# Elastic Compliance Matrix: (Units=1/GPa)
#
#
# Indices 1 2 3 4 5 6 
#
# 1 0.010235 -0.003840 -0.004326 0.000000 0.000000 0.000000
# 2 -0.003840 0.025916 -0.000060 0.000000 0.000000 0.000000
# 3 -0.004326 -0.000060 0.009998 0.000000 0.000000 0.000000
# 4 0.000000 0.000000 0.000000 0.065816 0.000000 0.000000
# 5 0.000000 0.000000 0.000000 0.000000 0.036261 0.000000
# 6 0.000000 0.000000 0.000000 0.000000 0.000000 0.033514
#
#
# Mechanical properties :
#
#
# Convention : Reuss Voigt Hill
#
# Bulk Modulus (GPa) = 33.67312 51.20089 42.43701
# Shear Modulus (GPa) = 24.02794 28.56603 26.29698
#
# Velocity S-wave (km/s) = 3.29402 3.59164 3.44604
# Velocity P-wave (km/s) = 5.44734 6.34990 5.91586
#
# Compressibility (1/GPa) = 0.02969728
#
# Stress axis : x y z
#
# Youngs Moduli (GPa) = 97.70314 38.58609 100.02243
#
# Poissons Ratio (x) = 0.14817 0.43272
# Poissons Ratio (y) = 0.37518 0.00597
# Poissons Ratio (z) = 0.42268 0.00230
#
# Static dielectric constant tensor:
#      x y z
#    x 1.775960 0.000000 0.000000 
#    y 0.000000 1.805000 0.000000 
#    z 0.000000 0.000000 1.846510 
# 
# From -- ./inp_files/7829.got.cif
#   From: 2010.05.17/outbox.cif.g08.bks.cpg/sg24_4_cif.got.tgz:7829.got - 2010.06.04 00:33:39.
