data_PCOD9334452
_publ_section_title
;
Structure prediction by ZEFSAII (Michael W. Deem and Ramdas Pophale) SiO2 
 PCOD9334452
Probable space group: I 21 21 21
;
_chemical_formula_sum "Si O2"
_cell_formula_units_Z 40
_cell_length_a 9.756123
_cell_length_b 8.568225
_cell_length_c 24.781918
_cell_angle_alpha 90.000000
_cell_angle_beta 90.000000
_cell_angle_gamma 90.000000
_cell_volume 2071.586371
_symmetry_space_group_name_H-M "I 21 21 21"
_symmetry_group_IT_number 24
_symmetry_cell_setting 'orthorhombic'
loop_
_space_group_symop_operation_xyz
x,y,z
-x,1/2-y,z
x,-y,1/2-z
1/2-x,y,-z
1/2+x,1/2+y,1/2+z
1/2-x,-y,1/2+z
1/2+x,1/2-y,-z
-x,1/2+y,1/2-z
loop_
_atom_site_type_symbol
_atom_site_label
_atom_site_fract_x
_atom_site_fract_y
_atom_site_fract_z
Si Si1 0.632075 0.145152 0.214035
Si Si2 0.804221 0.645587 0.892349
Si Si3 0.500000 0.250000 0.026125
Si Si4 0.750000 0.549316 0.500000
Si Si5 0.143802 0.161458 0.281499
Si Si6 0.602508 0.010211 0.392087
O O1 0.500000 0.250000 0.202841
O O2 0.746755 0.237077 0.247222
O O3 0.585812 0.000000 0.250000
O O4 0.678996 0.072840 0.157358
O O5 0.762294 0.553945 0.946157
O O6 0.704489 0.634168 0.841308
O O7 0.824158 0.828208 0.907098
O O8 0.950319 0.569988 0.874848
O O9 0.383839 0.157071 0.994536
O O10 0.423573 0.380207 0.062728
O O11 0.000000 0.250000 0.284821
O O12 0.125956 0.000000 0.250000
#
# Coordination Sequence:
#
# PCOD9334452 Si02
#       6
#     8   8   4   4   8   8
#     4  12  21  36  67  98 126 170 216 269 319 378
#     4  10  22  45  65  97 132 173 217 266 331 389
#     4  10  22  44  68 100 130 162 222 278 320 378
#     4  10  24  46  70  98 130 170 220 276 324 390
#     4  12  27  44  61  94 139 178 214 264 333 395
#     4  10  20  38  71  97 125 163 222 276 313 378
#
# _framework density 19.308872999999998
#
# number of rings (size 3 to 8) (size 9 to 14) (size 15 to 20)
#    0.000    1.200    3.000    3.600    2.800    0.800 
#   12.600    0.000    0.000    0.000    0.000    0.000 
#    0.000    0.000    0.000    0.000    0.000    0.000 
#
# Total GULP energy -111737.520027 kJ/mol
# GULP energy per Si atom -5586.876001 kJ/mol
# Density = 1.926492 g / cm^3
# Si number density = 19.308873 Si / 1000 Ang^3
#
#
#
# Elastic Constant Matrix: (Units=GPa)
#
#
# Indices 1 2 3 4 5 6 
#
# 1 76.6222 58.9571 62.4567 0.0000 0.0000 0.0000
# 2 58.9571 144.5147 62.9289 0.0000 0.0000 0.0000
# 3 62.4567 62.9289 104.2192 0.0000 0.0000 0.0000
# 4 0.0000 0.0000 0.0000 17.8271 0.0000 0.0000
# 5 0.0000 0.0000 0.0000 0.0000 22.9685 0.0000
# 6 0.0000 0.0000 0.0000 0.0000 0.0000 27.6681
#
#
#
# Elastic Compliance Matrix: (Units=1/GPa)
#
#
# Indices 1 2 3 4 5 6 
#
# 1 0.028608 -0.005706 -0.013699 0.000000 0.000000 0.000000
# 2 -0.005706 0.010526 -0.002936 0.000000 0.000000 0.000000
# 3 -0.013699 -0.002936 0.019578 0.000000 0.000000 0.000000
# 4 0.000000 0.000000 0.000000 0.056095 0.000000 0.000000
# 5 0.000000 0.000000 0.000000 0.000000 0.043538 0.000000
# 6 0.000000 0.000000 0.000000 0.000000 0.000000 0.036143
#
#
# Mechanical properties :
#
#
# Convention : Reuss Voigt Hill
#
# Bulk Modulus (GPa) = 71.27911 77.11574 74.19742
# Shear Modulus (GPa) = 20.50480 23.09360 21.79920
#
# Velocity S-wave (km/s) = 3.26227 3.46209 3.36366
# Velocity P-wave (km/s) = 7.15439 7.48372 7.32091
#
# Compressibility (1/GPa) = 0.01402936
#
# Stress axis : x y z
#
# Youngs Moduli (GPa) = 34.95568 95.00140 51.07854
#
# Poissons Ratio (x) = 0.54206 0.69972
# Poissons Ratio (y) = 0.19945 0.14999
# Poissons Ratio (z) = 0.47885 0.27897
#
# Static dielectric constant tensor:
#      x y z
#    x 1.661570 0.000000 0.000000 
#    y 0.000000 1.691150 0.000000 
#    z 0.000000 0.000000 1.656390 
# 
# From -- ./inp_files/9344.got.cif
#   From: 2010.05.17/outbox.cif.g08.bks.cpg/sg24_5_cif.got.tgz:9344.got - 2010.06.04 00:33:39.
