data_PCOD9334514
_publ_section_title
;
Structure prediction by ZEFSAII (Michael W. Deem and Ramdas Pophale) SiO2 
 PCOD9334514
Probable space group: I 21 21 21
;
_chemical_formula_sum "Si O2"
_cell_formula_units_Z 56
_cell_length_a 9.051043
_cell_length_b 16.120967
_cell_length_c 18.690530
_cell_angle_alpha 90.000000
_cell_angle_beta 90.000000
_cell_angle_gamma 90.000000
_cell_volume 2727.164493
_symmetry_space_group_name_H-M "I 21 21 21"
_symmetry_group_IT_number 24
_symmetry_cell_setting 'orthorhombic'
loop_
_space_group_symop_operation_xyz
x,y,z
-x,1/2-y,z
x,-y,1/2-z
1/2-x,y,-z
1/2+x,1/2+y,1/2+z
1/2-x,-y,1/2+z
1/2+x,1/2-y,-z
-x,1/2+y,1/2-z
loop_
_atom_site_type_symbol
_atom_site_label
_atom_site_fract_x
_atom_site_fract_y
_atom_site_fract_z
Si Si1 0.097658 0.670348 0.721268
Si Si2 0.546941 0.981694 0.078631
Si Si3 0.926229 0.666708 0.009964
Si Si4 0.934576 0.665634 0.179108
Si Si5 0.287783 0.566145 0.811569
Si Si6 0.152242 0.074222 0.711950
Si Si7 0.386057 0.328429 0.056360
O O1 0.211228 0.650682 0.783931
O O2 0.160506 0.675160 0.640862
O O3 0.000000 0.750000 0.734660
O O4 0.975985 0.598280 0.732119
O O5 0.705933 0.963814 0.116595
O O6 0.425617 0.955571 0.138988
O O7 0.544089 0.077812 0.052845
O O8 0.510739 0.914790 0.017717
O O9 0.942561 0.673005 0.094261
O O10 0.000000 0.750000 0.976754
O O11 0.750000 0.662388 0.000000
O O12 0.767622 0.647066 0.200427
O O13 0.000000 0.750000 0.212098
O O14 0.041020 0.587187 0.190927
O O15 0.255328 0.500000 0.750000
O O16 0.237063 0.000000 0.750000
O O17 0.500000 0.250000 0.045892
O O18 0.250000 0.322806 0.000000
#
# Coordination Sequence:
#
# PCOD9334514 Si02
#       7
#     8   8   8   8   8   8   8
#     4  10  20  39  67  91 125 166 217 266 324 392
#     4  11  23  42  72  91 131 177 218 266 333 390
#     4  11  26  42  63 100 137 177 220 262 330 407
#     4  11  25  40  60  98 141 166 212 271 326 392
#     4  11  22  40  63 100 125 168 216 266 326 402
#     4  11  20  41  65  98 124 171 217 271 318 400
#     4  11  25  46  67  96 127 172 229 274 321 388
#
# _framework density 20.534147999999998
#
# number of rings (size 3 to 8) (size 9 to 14) (size 15 to 20)
#    0.000    1.143    4.286    2.143    6.000    2.857 
#    0.000    3.571    0.000    0.000    0.000    0.000 
#    0.000    0.000    0.000    0.000    0.000    0.000 
#
# Total GULP energy -156034.290411 kJ/mol
# GULP energy per Si atom -5572.653229 kJ/mol
# Density = 2.048741 g / cm^3
# Si number density = 20.534148 Si / 1000 Ang^3
#
#
#
# Elastic Constant Matrix: (Units=GPa)
#
#
# Indices 1 2 3 4 5 6 
#
# 1 99.4764 42.6844 24.6648 0.0000 0.0000 0.0000
# 2 42.6844 110.7655 11.3925 0.0000 0.0000 0.0000
# 3 24.6648 11.3925 52.5228 0.0000 0.0000 0.0000
# 4 0.0000 0.0000 0.0000 0.4833 0.0000 0.0000
# 5 0.0000 0.0000 0.0000 0.0000 24.0861 0.0000
# 6 0.0000 0.0000 0.0000 0.0000 0.0000 44.6102
#
#
#
# Elastic Compliance Matrix: (Units=1/GPa)
#
#
# Indices 1 2 3 4 5 6 
#
# 1 0.013329 -0.004595 -0.005263 0.000000 0.000000 0.000000
# 2 -0.004595 0.010818 -0.000189 0.000000 0.000000 0.000000
# 3 -0.005263 -0.000189 0.021552 0.000000 0.000000 0.000000
# 4 0.000000 0.000000 0.000000 2.069161 0.000000 0.000000
# 5 0.000000 0.000000 0.000000 0.000000 0.041518 0.000000
# 6 0.000000 0.000000 0.000000 0.000000 0.000000 0.022416
#
#
# Mechanical properties :
#
#
# Convention : Reuss Voigt Hill
#
# Bulk Modulus (GPa) = 39.05328 46.69425 42.87377
# Shear Modulus (GPa) = 2.26509 26.10411 14.18460
#
# Velocity S-wave (km/s) = 1.05142 3.56933 2.63112
# Velocity P-wave (km/s) = 4.53144 6.30682 5.49136
#
# Compressibility (1/GPa) = 0.02560604
#
# Stress axis : x y z
#
# Youngs Moduli (GPa) = 75.02266 92.43587 46.40018
#
# Poissons Ratio (x) = 0.42477 0.24419
# Poissons Ratio (y) = 0.34475 0.00875
# Poissons Ratio (z) = 0.39482 0.01743
#
# Static dielectric constant tensor:
#      x y z
#    x 1.776750 0.000000 0.000000 
#    y 0.000000 1.876750 0.000000 
#    z 0.000000 0.000000 1.706650 
# 
# From -- ./inp_files/32836.got.cif
#   From: 2010.05.17/outbox.cif.g08.bks.cpg/sg24_17_cif.got.tgz:32836.got - 2010.06.04 00:33:39.
