data_PCOD9334123
_publ_section_title
;
Structure prediction by ZEFSAII (Michael W. Deem and Ramdas Pophale) SiO2 
 PCOD9334123
Probable space group: I 21 21 21
;
_chemical_formula_sum "Si O2"
_cell_formula_units_Z 56
_cell_length_a 22.026700
_cell_length_b 25.031642
_cell_length_c 5.425950
_cell_angle_alpha 90.000000
_cell_angle_beta 90.000000
_cell_angle_gamma 90.000000
_cell_volume 2991.676040
_symmetry_space_group_name_H-M "I 21 21 21"
_symmetry_group_IT_number 24
_symmetry_cell_setting 'orthorhombic'
loop_
_space_group_symop_operation_xyz
x,y,z
-x,1/2-y,z
x,-y,1/2-z
1/2-x,y,-z
1/2+x,1/2+y,1/2+z
1/2-x,-y,1/2+z
1/2+x,1/2-y,-z
-x,1/2+y,1/2-z
loop_
_atom_site_type_symbol
_atom_site_label
_atom_site_fract_x
_atom_site_fract_y
_atom_site_fract_z
Si Si1 0.976024 0.410244 0.079156
Si Si2 0.080096 0.300404 0.700332
Si Si3 0.060287 0.819640 0.795495
Si Si4 0.402729 0.637573 0.721443
Si Si5 0.038019 0.000000 0.750000
Si Si6 0.750000 0.535219 0.000000
Si Si7 0.619195 0.417077 0.546867
Si Si8 0.286673 0.563815 0.748847
O O1 0.913450 0.430375 0.197469
O O2 0.031326 0.391245 0.250422
O O3 0.953383 0.357836 0.935719
O O4 0.000335 0.460968 0.924910
O O5 0.090888 0.237596 0.748007
O O6 0.110124 0.323105 0.451862
O O7 0.008802 0.306810 0.630162
O O8 0.093949 0.332997 0.952930
O O9 0.099160 0.856911 0.977518
O O10 0.350189 0.594069 0.731339
O O11 0.082187 0.043180 0.628255
O O12 0.744177 0.500000 0.250000
O O13 0.810408 0.570590 0.031463
O O14 0.295730 0.500000 0.750000
O O15 0.250000 0.577548 0.500000
O O16 0.250000 0.577680 0.000000
#
# Coordination Sequence:
#
# PCOD9334123 Si02
#       8
#     8   8   8   8   4   4   8   8
#     4  10  21  36  59  92 125 161 201 257 319 361
#     4  10  21  38  62  94 126 160 203 249 319 363
#     4   9  21  36  60  89 126 159 204 259 306 373
#     4  11  22  39  63  94 121 160 203 250 307 371
#     4  10  20  36  52  88 128 156 196 256 314 358
#     4  12  26  42  62  86 118 174 216 252 306 374
#     4  11  21  39  60  85 121 164 213 257 307 363
#     4  10  22  42  64  88 121 162 201 241 297 374
#
# _framework density 18.718603999999999
#
# number of rings (size 3 to 8) (size 9 to 14) (size 15 to 20)
#    0.000    1.714    2.143    2.143    4.000    2.286 
#    3.857    0.000    4.714    0.000    0.000    0.000 
#    0.000    0.000    0.000    0.000    0.000    0.000 
#
# Total GULP energy -155923.999375 kJ/mol
# GULP energy per Si atom -5568.714263 kJ/mol
# Density = 1.867600 g / cm^3
# Si number density = 18.718604 Si / 1000 Ang^3
#
#
#
# Elastic Constant Matrix: (Units=GPa)
#
#
# Indices 1 2 3 4 5 6 
#
# 1 77.9343 41.4450 32.3907 0.0000 0.0000 0.0000
# 2 41.4450 92.7939 36.2797 0.0000 0.0000 0.0000
# 3 32.3907 36.2797 95.4098 0.0000 0.0000 0.0000
# 4 0.0000 0.0000 0.0000 10.2899 0.0000 0.0000
# 5 0.0000 0.0000 0.0000 0.0000 92.5465 0.0000
# 6 0.0000 0.0000 0.0000 0.0000 0.0000 30.6974
#
#
#
# Elastic Compliance Matrix: (Units=1/GPa)
#
#
# Indices 1 2 3 4 5 6 
#
# 1 0.017794 -0.006561 -0.003546 0.000000 0.000000 0.000000
# 2 -0.006561 0.015078 -0.003506 0.000000 0.000000 0.000000
# 3 -0.003546 -0.003506 0.013018 0.000000 0.000000 0.000000
# 4 0.000000 0.000000 0.000000 0.097183 0.000000 0.000000
# 5 0.000000 0.000000 0.000000 0.000000 0.010805 0.000000
# 6 0.000000 0.000000 0.000000 0.000000 0.000000 0.032576
#
#
# Mechanical properties :
#
#
# Convention : Reuss Voigt Hill
#
# Bulk Modulus (GPa) = 53.57952 54.04099 53.81025
# Shear Modulus (GPa) = 22.73742 37.10825 29.92283
#
# Velocity S-wave (km/s) = 3.48903 4.45728 4.00254
# Velocity P-wave (km/s) = 6.70201 7.44464 7.08306
#
# Compressibility (1/GPa) = 0.01866385
#
# Stress axis : x y z
#
# Youngs Moduli (GPa) = 56.19771 66.32307 76.81619
#
# Poissons Ratio (x) = 0.43516 0.27240
# Poissons Ratio (y) = 0.36872 0.26931
# Poissons Ratio (z) = 0.19928 0.23252
#
# Static dielectric constant tensor:
#      x y z
#    x 1.613360 0.000000 0.000000 
#    y 0.000000 1.521960 0.000000 
#    z 0.000000 0.000000 1.772960 
# 
# From -- ./inp_files/5823.got.cif
#   From: 2010.05.17/outbox.cif.g08.bks.cpg/sg24_3_cif.got.tgz:5823.got - 2010.06.04 00:33:39.
