data_PCOD9334154
_publ_section_title
;
Structure prediction by ZEFSAII (Michael W. Deem and Ramdas Pophale) SiO2 
 PCOD9334154
Probable space group: I 21 21 21
;
_chemical_formula_sum "Si O2"
_cell_formula_units_Z 48
_cell_length_a 8.135670
_cell_length_b 30.575196
_cell_length_c 8.945978
_cell_angle_alpha 90.000000
_cell_angle_beta 90.000000
_cell_angle_gamma 90.000000
_cell_volume 2225.309387
_symmetry_space_group_name_H-M "I 21 21 21"
_symmetry_group_IT_number 24
_symmetry_cell_setting 'orthorhombic'
loop_
_space_group_symop_operation_xyz
x,y,z
-x,1/2-y,z
x,-y,1/2-z
1/2-x,y,-z
1/2+x,1/2+y,1/2+z
1/2-x,-y,1/2+z
1/2+x,1/2-y,-z
-x,1/2+y,1/2-z
loop_
_atom_site_type_symbol
_atom_site_label
_atom_site_fract_x
_atom_site_fract_y
_atom_site_fract_z
Si Si1 0.317962 0.231457 0.658686
Si Si2 0.670899 0.628864 0.849241
Si Si3 0.387631 0.604244 0.653165
Si Si4 0.000000 0.250000 0.871124
Si Si5 0.025845 0.500000 0.750000
Si Si6 0.750000 0.817936 0.500000
Si Si7 0.250000 0.522876 0.500000
Si Si8 0.378489 0.916010 0.384638
O O1 0.500000 0.250000 0.698628
O O2 0.250000 0.249920 0.500000
O O3 0.353609 0.180254 0.635483
O O4 0.161502 0.236236 0.771932
O O5 0.504007 0.606242 0.795102
O O6 0.795676 0.620925 0.713409
O O7 0.750000 0.611180 0.000000
O O8 0.283944 0.648827 0.638856
O O9 0.305505 0.556930 0.631237
O O10 0.490647 0.604527 0.497418
O O11 0.088094 0.288327 0.968618
O O12 0.120755 0.495058 0.591661
O O13 0.932704 0.454812 0.777972
O O14 0.250000 0.936775 0.500000
#
# Coordination Sequence:
#
# PCOD9334154 Si02
#       8
#     8   8   8   4   4   4   4   8
#     4  11  23  43  64  90 127 169 214 272 333 390
#     4  10  21  35  60  89 119 160 210 259 319 384
#     4   9  19  40  59  81 125 166 204 256 319 380
#     4  12  26  38  62  96 124 164 222 272 326 388
#     4  10  20  36  58  88 118 156 204 254 316 378
#     4  11  24  38  62  92 124 166 216 272 316 390
#     4   9  20  36  60  86 120 162 200 252 326 368
#     4   9  19  37  60  86 120 164 200 256 317 377
#
# _framework density 21.570035000000001
#
# number of rings (size 3 to 8) (size 9 to 14) (size 15 to 20)
#    0.000    2.000    0.833    2.000    3.500    2.000 
#    0.000    5.833    0.000    0.000    0.000    0.000 
#    0.000    0.000    0.000    0.000    0.000    0.000 
#
# Total GULP energy -133615.250290 kJ/mol
# GULP energy per Si atom -5567.302095 kJ/mol
# Density = 2.152094 g / cm^3
# Si number density = 21.570035 Si / 1000 Ang^3
#
#
#
# Elastic Constant Matrix: (Units=GPa)
#
#
# Indices 1 2 3 4 5 6 
#
# 1 117.3600 39.3676 40.8582 0.0004 0.0000 0.0005
# 2 39.3676 73.2424 34.3812 0.0003 -0.0001 0.0002
# 3 40.8582 34.3812 76.3063 0.0009 -0.0007 0.0021
# 4 0.0004 0.0003 0.0009 12.6539 -0.0003 0.0004
# 5 0.0000 -0.0001 -0.0007 -0.0003 45.3631 -0.0004
# 6 0.0005 0.0002 0.0021 0.0004 -0.0004 17.9642
#
#
#
# Elastic Compliance Matrix: (Units=1/GPa)
#
#
# Indices 1 2 3 4 5 6 
#
# 1 0.011380 -0.004130 -0.004232 0.000000 0.000000 0.000000
# 2 -0.004130 0.018814 -0.006266 0.000000 0.000000 0.000001
# 3 -0.004232 -0.006266 0.018195 -0.000001 0.000000 -0.000002
# 4 0.000000 0.000000 -0.000001 0.079027 0.000001 -0.000002
# 5 0.000000 0.000000 0.000000 0.000001 0.022044 0.000000
# 6 0.000000 0.000001 -0.000002 -0.000002 0.000000 0.055666
#
#
# Mechanical properties :
#
#
# Convention : Reuss Voigt Hill
#
# Bulk Modulus (GPa) = 52.26758 55.12476 53.69617
# Shear Modulus (GPa) = 20.76762 25.34968 23.05865
#
# Velocity S-wave (km/s) = 3.10627 3.43188 3.27312
# Velocity P-wave (km/s) = 6.09503 6.42770 6.26357
#
# Compressibility (1/GPa) = 0.01913232
#
# Stress axis : x y z
#
# Youngs Moduli (GPa) = 87.87667 53.15102 54.96141
#
# Poissons Ratio (x) = 0.21950 0.23262
# Poissons Ratio (y) = 0.36290 0.34438
# Poissons Ratio (z) = 0.37194 0.33304
#
# Static dielectric constant tensor:
#      x y z
#    x 1.942710 0.000000 0.000000 
#    y 0.000000 1.761990 0.000000 
#    z 0.000000 0.000000 1.564600 
# 
# From -- ./inp_files/9835.got.cif
#   From: 2010.05.17/outbox.cif.g08.bks.cpg/sg24_5_cif.got.tgz:9835.got - 2010.06.04 00:33:39.
