data_PCOD9334788
_publ_section_title
;
Structure prediction by ZEFSAII (Michael W. Deem and Ramdas Pophale) SiO2 
 PCOD9334788
Probable space group: I 21 21 21
;
_chemical_formula_sum "Si O2"
_cell_formula_units_Z 64
_cell_length_a 20.429001
_cell_length_b 11.477954
_cell_length_c 13.521215
_cell_angle_alpha 90.000000
_cell_angle_beta 90.000000
_cell_angle_gamma 90.000000
_cell_volume 3170.496865
_symmetry_space_group_name_H-M "I 21 21 21"
_symmetry_group_IT_number 24
_symmetry_cell_setting 'orthorhombic'
loop_
_space_group_symop_operation_xyz
x,y,z
-x,1/2-y,z
x,-y,1/2-z
1/2-x,y,-z
1/2+x,1/2+y,1/2+z
1/2-x,-y,1/2+z
1/2+x,1/2-y,-z
-x,1/2+y,1/2-z
loop_
_atom_site_type_symbol
_atom_site_label
_atom_site_fract_x
_atom_site_fract_y
_atom_site_fract_z
Si Si1 0.186185 0.609268 0.066518
Si Si2 0.808842 0.708675 0.575441
Si Si3 0.837385 0.549149 0.853982
Si Si4 0.454666 0.975386 0.866630
Si Si5 0.879230 0.297568 0.106615
Si Si6 0.261769 0.227871 0.739793
Si Si7 0.075629 0.216960 0.508165
Si Si8 0.409682 0.556000 0.642855
O O1 0.207894 0.677269 0.166488
O O2 0.128034 0.680874 0.012169
O O3 0.156990 0.482605 0.090692
O O4 0.250000 0.603468 0.000000
O O5 0.750000 0.731106 0.500000
O O6 0.814865 0.568991 0.591634
O O7 0.868061 0.746068 0.506004
O O8 0.794686 0.765748 0.681515
O O9 0.865354 0.500000 0.750000
O O10 0.773430 0.627139 0.824973
O O11 0.888663 0.628016 0.914962
O O12 0.430343 0.851802 0.903570
O O13 0.455628 0.000000 0.750000
O O14 0.409760 0.077350 0.906202
O O15 0.527628 0.996533 0.906092
O O16 0.818319 0.312092 0.183143
O O17 0.920629 0.193003 0.152913
O O18 0.000000 0.250000 0.535472
O O19 0.404323 0.500000 0.750000
#
# Coordination Sequence:
#
# PCOD9334788 Si02
#       8
#     8   8   8   8   8   8   8   8
#     4  12  24  40  66  94 127 175 215 262 333 393
#     4   9  20  33  58  92 123 157 201 262 326 373
#     4  10  21  39  66  92 130 162 210 271 330 374
#     4  11  24  38  64  95 129 170 215 263 323 389
#     4  11  21  40  63  90 127 170 218 264 323 384
#     4  10  21  36  59  94 127 159 211 265 323 388
#     4  12  24  42  68  96 134 169 218 267 329 397
#     4  11  24  42  61  88 131 176 214 264 324 395
#
# _framework density 20.186109999999999
#
# number of rings (size 3 to 8) (size 9 to 14) (size 15 to 20)
#    0.000    1.250    5.000    1.125    1.750    6.000 
#    0.000    0.000    5.500    0.750    0.000    0.000 
#    0.000    0.000    0.000    0.000    0.000    0.000 
#
# Total GULP energy -178306.545774 kJ/mol
# GULP energy per Si atom -5572.079555 kJ/mol
# Density = 2.014017 g / cm^3
# Si number density = 20.186110 Si / 1000 Ang^3
#
#
#
# Elastic Constant Matrix: (Units=GPa)
#
#
# Indices 1 2 3 4 5 6 
#
# 1 79.5747 4.8495 18.7163 0.0000 0.0000 0.0000
# 2 4.8495 28.4913 -0.4141 0.0000 0.0000 0.0000
# 3 18.7163 -0.4141 58.4212 0.0000 0.0000 0.0000
# 4 0.0000 0.0000 0.0000 24.0087 0.0000 0.0000
# 5 0.0000 0.0000 0.0000 0.0000 9.0768 0.0000
# 6 0.0000 0.0000 0.0000 0.0000 0.0000 23.0800
#
#
#
# Elastic Compliance Matrix: (Units=1/GPa)
#
#
# Indices 1 2 3 4 5 6 
#
# 1 0.013754 -0.002405 -0.004423 0.000000 0.000000 0.000000
# 2 -0.002405 0.035523 0.001022 0.000000 0.000000 0.000000
# 3 -0.004423 0.001022 0.018541 0.000000 0.000000 0.000000
# 4 0.000000 0.000000 0.000000 0.041652 0.000000 0.000000
# 5 0.000000 0.000000 0.000000 0.000000 0.110170 0.000000
# 6 0.000000 0.000000 0.000000 0.000000 0.000000 0.043328
#
#
# Mechanical properties :
#
#
# Convention : Reuss Voigt Hill
#
# Bulk Modulus (GPa) = 17.79190 23.64341 20.71766
# Shear Modulus (GPa) = 17.04651 20.78880 18.91765
#
# Velocity S-wave (km/s) = 2.90912 3.21262 3.06463
# Velocity P-wave (km/s) = 4.48521 5.04969 4.77580
#
# Compressibility (1/GPa) = 0.05620535
#
# Stress axis : x y z
#
# Youngs Moduli (GPa) = 72.70733 28.15098 53.93335
#
# Poissons Ratio (x) = 0.06771 0.23856
# Poissons Ratio (y) = 0.17489 -0.05514
# Poissons Ratio (z) = 0.32161 -0.02878
#
# Static dielectric constant tensor:
#      x y z
#    x 1.790580 0.000000 0.000000 
#    y 0.000000 1.770920 0.000000 
#    z 0.000000 0.000000 1.771670 
# 
# From -- ./inp_files/27244.got.cif
#   From: 2010.05.17/outbox.cif.g08.bks.cpg/sg24_14_cif.got.tgz:27244.got - 2010.06.04 00:33:39.
