data_PCOD9334233
_publ_section_title
;
Structure prediction by ZEFSAII (Michael W. Deem and Ramdas Pophale) SiO2 
 PCOD9334233
Probable space group: I 21 21 21
;
_chemical_formula_sum "Si O2"
_cell_formula_units_Z 40
_cell_length_a 18.101808
_cell_length_b 15.450261
_cell_length_c 7.635455
_cell_angle_alpha 90.000000
_cell_angle_beta 90.000000
_cell_angle_gamma 90.000000
_cell_volume 2135.466173
_symmetry_space_group_name_H-M "I 21 21 21"
_symmetry_group_IT_number 24
_symmetry_cell_setting 'orthorhombic'
loop_
_space_group_symop_operation_xyz
x,y,z
-x,1/2-y,z
x,-y,1/2-z
1/2-x,y,-z
1/2+x,1/2+y,1/2+z
1/2-x,-y,1/2+z
1/2+x,1/2-y,-z
-x,1/2+y,1/2-z
loop_
_atom_site_type_symbol
_atom_site_label
_atom_site_fract_x
_atom_site_fract_y
_atom_site_fract_z
Si Si1 0.959322 0.417179 0.975060
Si Si2 0.551485 0.379059 0.418636
Si Si3 0.047624 0.333007 0.253982
Si Si4 0.679361 0.736868 0.907391
Si Si5 0.809192 0.410188 0.150394
O O1 0.969247 0.373013 0.785853
O O2 0.937421 0.518009 0.947766
O O3 0.887268 0.380659 0.071981
O O4 0.028043 0.403947 0.106699
O O5 0.487928 0.356521 0.557901
O O6 0.620754 0.317908 0.471890
O O7 0.130417 0.303326 0.294233
O O8 0.000000 0.250000 0.192412
O O9 0.714643 0.663275 0.784390
O O10 0.750000 0.778615 0.000000
O O11 0.819498 0.500000 0.250000
O O12 0.750000 0.422442 0.000000
#
# Coordination Sequence:
#
# PCOD9334233 Si02
#       5
#     8   8   8   8   8
#     4  11  20  36  59  85 112 153 199 238 292 342
#     4  10  21  35  60  87 112 149 200 246 284 351
#     4  10  20  37  55  81 117 153 193 242 284 351
#     4  11  22  39  53  84 125 157 191 237 305 354
#     4  12  22  33  53  82 123 160 192 230 286 358
#
# _framework density 18.731273999999999
#
# number of rings (size 3 to 8) (size 9 to 14) (size 15 to 20)
#    0.000    1.200    6.000    2.400    2.800    2.400 
#    3.600    0.000    0.000    0.000   10.400    0.000 
#    0.000    0.000    0.000    0.000    0.000    0.000 
#
# Total GULP energy -111530.013729 kJ/mol
# GULP energy per Si atom -5576.500686 kJ/mol
# Density = 1.868864 g / cm^3
# Si number density = 18.731274 Si / 1000 Ang^3
#
#
#
# Elastic Constant Matrix: (Units=GPa)
#
#
# Indices 1 2 3 4 5 6 
#
# 1 75.7627 25.3078 66.3023 0.0000 0.0000 0.0000
# 2 25.3078 23.6516 15.1847 0.0000 0.0000 0.0000
# 3 66.3023 15.1847 98.7119 0.0000 0.0000 0.0000
# 4 0.0000 0.0000 0.0000 25.4651 0.0000 0.0000
# 5 0.0000 0.0000 0.0000 0.0000 14.7661 0.0000
# 6 0.0000 0.0000 0.0000 0.0000 0.0000 18.9317
#
#
#
# Elastic Compliance Matrix: (Units=1/GPa)
#
#
# Indices 1 2 3 4 5 6 
#
# 1 0.048733 -0.034542 -0.027419 0.000000 0.000000 0.000000
# 2 -0.034542 0.071397 0.012218 0.000000 0.000000 0.000000
# 3 -0.027419 0.012218 0.026668 0.000000 0.000000 0.000000
# 4 0.000000 0.000000 0.000000 0.039269 0.000000 0.000000
# 5 0.000000 0.000000 0.000000 0.000000 0.067723 0.000000
# 6 0.000000 0.000000 0.000000 0.000000 0.000000 0.052822
#
#
# Mechanical properties :
#
#
# Convention : Reuss Voigt Hill
#
# Bulk Modulus (GPa) = 21.13642 45.74621 33.44132
# Shear Modulus (GPa) = 11.85205 17.92132 14.88668
#
# Velocity S-wave (km/s) = 2.51816 3.09651 2.82219
# Velocity P-wave (km/s) = 4.44560 6.10409 5.33963
#
# Compressibility (1/GPa) = 0.04731169
#
# Stress axis : x y z
#
# Youngs Moduli (GPa) = 20.52006 14.00618 37.49849
#
# Poissons Ratio (x) = 0.48380 1.02817
# Poissons Ratio (y) = 0.70880 -0.45816
# Poissons Ratio (z) = 0.56264 -0.17113
#
# Static dielectric constant tensor:
#      x y z
#    x 1.648220 0.000000 0.000000 
#    y 0.000000 1.702440 0.000000 
#    z 0.000000 0.000000 1.683700 
# 
# From -- ./inp_files/12540.got.cif
#   From: 2010.05.17/outbox.cif.g08.bks.cpg/sg24_7_cif.got.tgz:12540.got - 2010.06.04 00:33:39.
