data_PCOD9334359
_publ_section_title
;
Structure prediction by ZEFSAII (Michael W. Deem and Ramdas Pophale) SiO2 
 PCOD9334359
Probable space group: I 21 21 21
;
_chemical_formula_sum "Si O2"
_cell_formula_units_Z 40
_cell_length_a 15.198625
_cell_length_b 5.085480
_cell_length_c 23.816092
_cell_angle_alpha 90.000000
_cell_angle_beta 90.000000
_cell_angle_gamma 90.000000
_cell_volume 1840.800610
_symmetry_space_group_name_H-M "I 21 21 21"
_symmetry_group_IT_number 24
_symmetry_cell_setting 'orthorhombic'
loop_
_space_group_symop_operation_xyz
x,y,z
-x,1/2-y,z
x,-y,1/2-z
1/2-x,y,-z
1/2+x,1/2+y,1/2+z
1/2-x,-y,1/2+z
1/2+x,1/2-y,-z
-x,1/2+y,1/2-z
loop_
_atom_site_type_symbol
_atom_site_label
_atom_site_fract_x
_atom_site_fract_y
_atom_site_fract_z
Si Si1 0.158855 0.667461 0.964930
Si Si2 0.550896 0.999693 0.317590
Si Si3 0.717570 0.569226 0.881667
Si Si4 0.239967 0.446215 0.184914
Si Si5 0.406447 0.850387 0.520121
O O1 0.192944 0.825947 0.910548
O O2 0.250000 0.665675 0.000000
O O3 0.126347 0.369270 0.974734
O O4 0.089776 0.866526 0.991456
O O5 0.500000 0.750000 0.341200
O O6 0.500000 0.250000 0.340915
O O7 0.537917 0.000000 0.250000
O O8 0.655227 0.990825 0.324291
O O9 0.686419 0.844944 0.853696
O O10 0.661047 0.414261 0.928909
O O11 0.727199 0.354503 0.833060
O O12 0.220962 0.500000 0.250000
O O13 0.500000 0.750000 0.541510
#
# Coordination Sequence:
#
# PCOD9334359 Si02
#       5
#     8   8   8   8   8
#     4  10  20  38  61  86 117 152 191 243 306 367
#     4   9  17  31  50  72 104 149 199 247 290 330
#     4  11  22  39  62  88 121 160 201 246 300 358
#     4  11  22  37  59  87 122 167 213 248 284 346
#     4  11  22  39  64  91 120 154 196 248 309 373
#
# _framework density 21.729676999999999
#
# number of rings (size 3 to 8) (size 9 to 14) (size 15 to 20)
#    0.000    1.600    0.000    7.800    0.000    3.200 
#    0.000   10.000    0.000    2.400    0.000    0.000 
#    0.000    0.000    0.000    0.000    0.000    0.000 
#
# Total GULP energy -111414.090704 kJ/mol
# GULP energy per Si atom -5570.704535 kJ/mol
# Density = 2.168022 g / cm^3
# Si number density = 21.729677 Si / 1000 Ang^3
#
#
#
# Elastic Constant Matrix: (Units=GPa)
#
#
# Indices 1 2 3 4 5 6 
#
# 1 53.1671 24.8698 14.1544 0.0000 0.0000 0.0000
# 2 24.8698 167.1497 31.8321 0.0000 0.0000 0.0000
# 3 14.1544 31.8321 63.5772 0.0000 0.0000 0.0000
# 4 0.0000 0.0000 0.0000 39.7614 0.0000 0.0000
# 5 0.0000 0.0000 0.0000 0.0000 14.8331 0.0000
# 6 0.0000 0.0000 0.0000 0.0000 0.0000 24.5549
#
#
#
# Elastic Compliance Matrix: (Units=1/GPa)
#
#
# Indices 1 2 3 4 5 6 
#
# 1 0.020866 -0.002454 -0.003417 0.000000 0.000000 0.000000
# 2 -0.002454 0.006902 -0.002909 0.000000 0.000000 0.000000
# 3 -0.003417 -0.002909 0.017946 0.000000 0.000000 0.000000
# 4 0.000000 0.000000 0.000000 0.025150 0.000000 0.000000
# 5 0.000000 0.000000 0.000000 0.000000 0.067417 0.000000
# 6 0.000000 0.000000 0.000000 0.000000 0.000000 0.040725
#
#
# Mechanical properties :
#
#
# Convention : Reuss Voigt Hill
#
# Bulk Modulus (GPa) = 35.51888 47.28962 41.40425
# Shear Modulus (GPa) = 24.27762 30.03240 27.15501
#
# Velocity S-wave (km/s) = 3.34616 3.72168 3.53891
# Velocity P-wave (km/s) = 5.59557 6.34648 5.98282
#
# Compressibility (1/GPa) = 0.02815404
#
# Stress axis : x y z
#
# Youngs Moduli (GPa) = 47.92456 144.88927 55.72193
#
# Poissons Ratio (x) = 0.35554 0.19039
# Poissons Ratio (y) = 0.11760 0.16211
# Poissons Ratio (z) = 0.16375 0.42153
#
# Static dielectric constant tensor:
#      x y z
#    x 1.762950 0.000000 0.000000 
#    y 0.000000 1.736590 0.000000 
#    z 0.000000 0.000000 1.891000 
# 
# From -- ./inp_files/35736.got.cif
#   From: 2010.05.17/outbox.cif.g08.bks.cpg/sg24_18_cif.got.tgz:35736.got - 2010.06.04 00:33:39.
