data_PCOD9334180
_publ_section_title
;
Structure prediction by ZEFSAII (Michael W. Deem and Ramdas Pophale) SiO2 
 PCOD9334180
Probable space group: I 21 21 21
;
_chemical_formula_sum "Si O2"
_cell_formula_units_Z 40
_cell_length_a 18.752457
_cell_length_b 9.926964
_cell_length_c 10.676632
_cell_angle_alpha 90.000000
_cell_angle_beta 90.000000
_cell_angle_gamma 90.000000
_cell_volume 1987.508062
_symmetry_space_group_name_H-M "I 21 21 21"
_symmetry_group_IT_number 24
_symmetry_cell_setting 'orthorhombic'
loop_
_space_group_symop_operation_xyz
x,y,z
-x,1/2-y,z
x,-y,1/2-z
1/2-x,y,-z
1/2+x,1/2+y,1/2+z
1/2-x,-y,1/2+z
1/2+x,1/2-y,-z
-x,1/2+y,1/2-z
loop_
_atom_site_type_symbol
_atom_site_label
_atom_site_fract_x
_atom_site_fract_y
_atom_site_fract_z
Si Si1 0.839731 0.899076 0.086059
Si Si2 0.000000 0.750000 0.411994
Si Si3 0.858703 0.168707 0.947128
Si Si4 0.750000 0.601213 0.500000
Si Si5 0.968002 0.000000 0.250000
Si Si6 0.688258 0.792888 0.180173
Si Si7 0.272016 0.000000 0.250000
O O1 0.912211 0.912406 0.164836
O O2 0.771073 0.842969 0.162184
O O3 0.845917 0.817484 0.955860
O O4 0.827735 0.050661 0.034807
O O5 0.936345 0.797309 0.502025
O O6 0.011179 0.885109 0.326483
O O7 0.814289 0.302447 0.968169
O O8 0.848180 0.137184 0.800325
O O9 0.771430 0.522370 0.376446
O O10 0.685794 0.634721 0.213506
#
# Coordination Sequence:
#
# PCOD9334180 Si02
#       7
#     8   4   8   4   4   8   4
#     4  10  21  35  65  97 126 159 222 279 333 389
#     4  10  24  46  60  92 134 174 226 270 338 420
#     4  10  22  38  64  93 126 172 212 276 339 395
#     4  10  20  36  60  88 118 166 216 268 332 386
#     4  10  24  43  64  98 127 180 226 272 348 399
#     4  10  21  36  61  98 131 163 215 283 334 404
#     4  10  22  35  50  96 131 168 206 260 354 389
#
# _framework density 20.125706000000001
#
# number of rings (size 3 to 8) (size 9 to 14) (size 15 to 20)
#    0.000    2.000    0.000    3.000   16.800    0.800 
#    7.200    1.000   26.400    0.000    0.000    0.000 
#    0.000    0.000    0.000    0.000    0.000    0.000 
#
# Total GULP energy -111386.972946 kJ/mol
# GULP energy per Si atom -5569.348647 kJ/mol
# Density = 2.007990 g / cm^3
# Si number density = 20.125706 Si / 1000 Ang^3
#
#
#
# Elastic Constant Matrix: (Units=GPa)
#
#
# Indices 1 2 3 4 5 6 
#
# 1 49.6355 22.2428 22.5100 0.0000 0.0000 0.0000
# 2 22.2428 91.4645 43.3222 0.0000 0.0000 0.0000
# 3 22.5100 43.3222 146.7383 0.0000 0.0000 0.0000
# 4 0.0000 0.0000 0.0000 47.7871 0.0000 0.0000
# 5 0.0000 0.0000 0.0000 0.0000 21.1862 0.0000
# 6 0.0000 0.0000 0.0000 0.0000 0.0000 17.1004
#
#
#
# Elastic Compliance Matrix: (Units=1/GPa)
#
#
# Indices 1 2 3 4 5 6 
#
# 1 0.023207 -0.004601 -0.002202 0.000000 0.000000 0.000000
# 2 -0.004601 0.013623 -0.003316 0.000000 0.000000 0.000000
# 3 -0.002202 -0.003316 0.008132 0.000000 0.000000 0.000000
# 4 0.000000 0.000000 0.000000 0.020926 0.000000 0.000000
# 5 0.000000 0.000000 0.000000 0.000000 0.047200 0.000000
# 6 0.000000 0.000000 0.000000 0.000000 0.000000 0.058478
#
#
# Mechanical properties :
#
#
# Convention : Reuss Voigt Hill
#
# Bulk Modulus (GPa) = 40.44616 51.55426 46.00021
# Shear Modulus (GPa) = 24.99439 30.53229 27.76334
#
# Velocity S-wave (km/s) = 3.52790 3.89920 3.71819
# Velocity P-wave (km/s) = 6.06096 6.77815 6.42956
#
# Compressibility (1/GPa) = 0.02472422
#
# Stress axis : x y z
#
# Youngs Moduli (GPa) = 43.09030 73.40680 122.97648
#
# Poissons Ratio (x) = 0.33773 0.27076
# Poissons Ratio (y) = 0.19825 0.40781
# Poissons Ratio (z) = 0.09487 0.24343
#
# Static dielectric constant tensor:
#      x y z
#    x 1.662240 0.000000 0.000000 
#    y 0.000000 1.755410 0.000000 
#    z 0.000000 0.000000 1.839490 
# 
# From -- ./inp_files/21400.got.cif
#   From: 2010.05.17/outbox.cif.g08.bks.cpg/sg24_11_cif.got.tgz:21400.got - 2010.06.04 00:33:39.
