data_PCOD9334992
_publ_section_title
;
Structure prediction by ZEFSAII (Michael W. Deem and Ramdas Pophale) SiO2 
 PCOD9334992
Probable space group: I 21 21 21
;
_chemical_formula_sum "Si O2"
_cell_formula_units_Z 56
_cell_length_a 8.869658
_cell_length_b 14.607754
_cell_length_c 20.250616
_cell_angle_alpha 90.000000
_cell_angle_beta 90.000000
_cell_angle_gamma 90.000000
_cell_volume 2623.786901
_symmetry_space_group_name_H-M "I 21 21 21"
_symmetry_group_IT_number 24
_symmetry_cell_setting 'orthorhombic'
loop_
_space_group_symop_operation_xyz
x,y,z
-x,1/2-y,z
x,-y,1/2-z
1/2-x,y,-z
1/2+x,1/2+y,1/2+z
1/2-x,-y,1/2+z
1/2+x,1/2-y,-z
-x,1/2+y,1/2-z
loop_
_atom_site_type_symbol
_atom_site_label
_atom_site_fract_x
_atom_site_fract_y
_atom_site_fract_z
Si Si1 0.992631 0.458993 0.406184
Si Si2 0.850594 0.102126 0.276549
Si Si3 0.396947 0.159529 0.206740
Si Si4 0.250000 0.480092 0.000000
Si Si5 0.463285 0.649742 0.160256
Si Si6 0.507224 0.037443 0.091023
Si Si7 0.555866 0.341407 0.844565
Si Si8 0.750000 0.479494 0.500000
O O1 0.958019 0.564513 0.385387
O O2 0.847972 0.424367 0.446470
O O3 0.040148 0.408516 0.339675
O O4 0.132060 0.462128 0.456786
O O5 0.697410 0.148760 0.301530
O O6 0.941137 0.148585 0.217348
O O7 0.811264 0.000000 0.250000
O O8 0.500000 0.250000 0.200669
O O9 0.412223 0.130061 0.282956
O O10 0.225748 0.168880 0.182492
O O11 0.473741 0.086231 0.158935
O O12 0.348152 0.424445 0.052752
O O13 0.500000 0.750000 0.133019
O O14 0.462226 0.568889 0.107701
O O15 0.366737 0.039936 0.041730
O O16 0.500000 0.250000 0.881332
#
# Coordination Sequence:
#
# PCOD9334992 Si02
#       8
#     8   8   8   4   8   8   8   4
#     4  10  21  40  63  89 120 158 212 243 306 365
#     4  10  21  39  64  91 122 161 201 250 315 371
#     4  11  24  39  63  96 126 160 202 255 314 372
#     4  10  22  38  66  88 114 172 208 248 294 368
#     4  11  23  39  64  94 124 158 207 256 313 370
#     4  11  22  42  66  87 127 164 209 253 307 359
#     4  11  23  38  60  91 127 155 195 257 310 367
#     4  10  22  40  62  90 120 168 208 252 294 368
#
# _framework density 21.343197
#
# number of rings (size 3 to 8) (size 9 to 14) (size 15 to 20)
#    0.000    1.429    2.857    3.000    6.000    1.143 
#    0.000    5.000    0.000    0.000    0.000    0.000 
#    0.000    0.000    0.000    0.000    0.000    0.000 
#
# Total GULP energy -156426.196099 kJ/mol
# GULP energy per Si atom -5586.649861 kJ/mol
# Density = 2.129462 g / cm^3
# Si number density = 21.343197 Si / 1000 Ang^3
#
#
#
# Elastic Constant Matrix: (Units=GPa)
#
#
# Indices 1 2 3 4 5 6 
#
# 1 115.3603 26.6869 17.4290 0.0000 0.0000 0.0000
# 2 26.6869 74.9101 20.1261 0.0000 0.0000 0.0000
# 3 17.4290 20.1261 77.0560 0.0000 0.0000 0.0000
# 4 0.0000 0.0000 0.0000 1.0232 0.0000 0.0000
# 5 0.0000 0.0000 0.0000 0.0000 41.0399 0.0000
# 6 0.0000 0.0000 0.0000 0.0000 0.0000 17.8016
#
#
#
# Elastic Compliance Matrix: (Units=1/GPa)
#
#
# Indices 1 2 3 4 5 6 
#
# 1 0.009580 -0.003044 -0.001372 0.000000 0.000000 0.000000
# 2 -0.003044 0.015324 -0.003314 0.000000 0.000000 0.000000
# 3 -0.001372 -0.003314 0.014153 0.000000 0.000000 0.000000
# 4 0.000000 0.000000 0.000000 0.977322 0.000000 0.000000
# 5 0.000000 0.000000 0.000000 0.000000 0.024367 0.000000
# 6 0.000000 0.000000 0.000000 0.000000 0.000000 0.056175
#
#
# Mechanical properties :
#
#
# Convention : Reuss Voigt Hill
#
# Bulk Modulus (GPa) = 42.37707 43.97893 43.17800
# Shear Modulus (GPa) = 4.46330 25.51191 14.98761
#
# Velocity S-wave (km/s) = 1.44767 3.46109 2.65282
# Velocity P-wave (km/s) = 4.76366 6.05165 5.44587
#
# Compressibility (1/GPa) = 0.02359767
#
# Stress axis : x y z
#
# Youngs Moduli (GPa) = 104.38408 65.25607 70.65443
#
# Poissons Ratio (x) = 0.19866 0.09692
# Poissons Ratio (y) = 0.31778 0.23414
# Poissons Ratio (z) = 0.14318 0.21625
#
# Static dielectric constant tensor:
#      x y z
#    x 1.796330 0.000000 0.000000 
#    y 0.000000 1.770480 0.000000 
#    z 0.000000 0.000000 1.770060 
# 
# From -- ./inp_files/27600.got.cif
#   From: 2010.05.17/outbox.cif.g08.bks.cpg/sg24_14_cif.got.tgz:27600.got - 2010.06.04 00:33:39.
