data_PCOD9334897
_publ_section_title
;
Structure prediction by ZEFSAII (Michael W. Deem and Ramdas Pophale) SiO2 
 PCOD9334897
Probable space group: I 21 21 21
;
_chemical_formula_sum "Si O2"
_cell_formula_units_Z 64
_cell_length_a 8.712767
_cell_length_b 18.273662
_cell_length_c 21.137635
_cell_angle_alpha 90.000000
_cell_angle_beta 90.000000
_cell_angle_gamma 90.000000
_cell_volume 3365.410785
_symmetry_space_group_name_H-M "I 21 21 21"
_symmetry_group_IT_number 24
_symmetry_cell_setting 'orthorhombic'
loop_
_space_group_symop_operation_xyz
x,y,z
-x,1/2-y,z
x,-y,1/2-z
1/2-x,y,-z
1/2+x,1/2+y,1/2+z
1/2-x,-y,1/2+z
1/2+x,1/2-y,-z
-x,1/2+y,1/2-z
loop_
_atom_site_type_symbol
_atom_site_label
_atom_site_fract_x
_atom_site_fract_y
_atom_site_fract_z
Si Si1 0.935388 0.079666 0.125288
Si Si2 0.065686 0.083551 0.627378
Si Si3 0.565824 0.831645 0.248154
Si Si4 0.564884 0.831578 0.499985
Si Si5 0.564738 0.920396 0.374713
Si Si6 0.434238 0.916507 0.872622
Si Si7 0.065807 0.331650 0.251882
Si Si8 0.435081 0.168378 0.500014
O O1 0.750068 0.072090 0.124399
O O2 0.977326 0.124869 0.188076
O O3 0.008239 0.999652 0.126253
O O4 0.982403 0.124339 0.062771
O O5 0.249964 0.084912 0.630885
O O6 0.017408 0.124824 0.562990
O O7 0.997409 0.125465 0.687541
O O8 0.008038 0.000425 0.626257
O O9 0.500000 0.750000 0.249694
O O10 0.522747 0.875199 0.311927
O O11 0.750007 0.828533 0.244810
O O12 0.500000 0.750000 0.499945
O O13 0.750000 0.827396 0.500000
O O14 0.517665 0.875735 0.437228
O O15 0.502608 0.874613 0.812463
O O16 0.482549 0.875240 0.937009
O O17 0.000000 0.250000 0.250422
O O18 0.500000 0.250000 0.500048
O O19 0.250000 0.172243 0.500000
#
# Coordination Sequence:
#
# PCOD9334897 Si02
#       8
#     8   8   8   8   8   8   8   8
#     4  10  22  39  59  85 117 152 190 234 284 337
#     4  11  23  39  60  86 115 149 191 236 284 339
#     4  11  23  39  59  85 117 151 190 235 283 337
#     4  10  21  38  60  86 116 152 193 236 285 338
#     4  10  22  39  59  85 117 152 190 234 284 337
#     4  11  23  39  60  86 115 149 191 236 284 339
#     4  11  23  39  59  85 117 151 190 235 283 337
#     4  10  23  40  58  84 114 146 187 234 282 334
#
# _framework density 19.016995999999999
#
# number of rings (size 3 to 8) (size 9 to 14) (size 15 to 20)
#    0.000    1.500    0.000    4.500    0.000   10.000 
#    0.000    0.000    0.000    0.000    0.000    0.000 
#    0.000    0.000    0.000    0.000    0.000    0.000 
#
# Total GULP energy -178982.690520 kJ/mol
# GULP energy per Si atom -5593.209079 kJ/mol
# Density = 1.897371 g / cm^3
# Si number density = 19.016996 Si / 1000 Ang^3
#
#
#
# Elastic Constant Matrix: (Units=GPa)
#
#
# Indices 1 2 3 4 5 6 
#
# 1 33.6458 59.9119 61.6582 0.0000 0.0000 0.0000
# 2 59.9119 240.4320 147.5522 0.0000 0.0000 0.0000
# 3 61.6582 147.5522 241.3416 0.0000 0.0000 0.0000
# 4 0.0000 0.0000 0.0000 44.5086 0.0000 0.0000
# 5 0.0000 0.0000 0.0000 0.0000 27.0209 0.0000
# 6 0.0000 0.0000 0.0000 0.0000 0.0000 45.0566
#
#
#
# Elastic Compliance Matrix: (Units=1/GPa)
#
#
# Indices 1 2 3 4 5 6 
#
# 1 0.068455 -0.010123 -0.011300 0.000000 0.000000 0.000000
# 2 -0.010123 0.008154 -0.002399 0.000000 0.000000 0.000000
# 3 -0.011300 -0.002399 0.008497 0.000000 0.000000 0.000000
# 4 0.000000 0.000000 0.000000 0.022468 0.000000 0.000000
# 5 0.000000 0.000000 0.000000 0.000000 0.037008 0.000000
# 6 0.000000 0.000000 0.000000 0.000000 0.000000 0.022194
#
#
# Mechanical properties :
#
#
# Convention : Reuss Voigt Hill
#
# Bulk Modulus (GPa) = 26.69357 117.07378 71.88368
# Shear Modulus (GPa) = 22.03539 39.73704 30.88622
#
# Velocity S-wave (km/s) = 3.40769 4.57612 4.03443
# Velocity P-wave (km/s) = 5.43602 9.46666 7.71906
#
# Compressibility (1/GPa) = 0.03746221
#
# Stress axis : x y z
#
# Youngs Moduli (GPa) = 14.60809 122.64030 117.68871
#
# Poissons Ratio (x) = 1.24153 1.32985
# Poissons Ratio (y) = 0.14788 0.28232
# Poissons Ratio (z) = 0.16507 0.29420
#
# Static dielectric constant tensor:
#      x y z
#    x 1.645160 0.000000 0.000000 
#    y 0.000000 1.601860 0.000000 
#    z 0.000000 0.000000 1.645500 
# 
# From -- ./inp_files/32946.got.cif
#   From: 2010.05.17/outbox.cif.g08.bks.cpg/sg24_17_cif.got.tgz:32946.got - 2010.06.04 00:33:39.
