data_PCOD9334857
_publ_section_title
;
Structure prediction by ZEFSAII (Michael W. Deem and Ramdas Pophale) SiO2 
 PCOD9334857
Probable space group: I 21 21 21
;
_chemical_formula_sum "Si O2"
_cell_formula_units_Z 56
_cell_length_a 10.552627
_cell_length_b 18.141805
_cell_length_c 15.063246
_cell_angle_alpha 90.000000
_cell_angle_beta 90.000000
_cell_angle_gamma 90.000000
_cell_volume 2883.763567
_symmetry_space_group_name_H-M "I 21 21 21"
_symmetry_group_IT_number 24
_symmetry_cell_setting 'orthorhombic'
loop_
_space_group_symop_operation_xyz
x,y,z
-x,1/2-y,z
x,-y,1/2-z
1/2-x,y,-z
1/2+x,1/2+y,1/2+z
1/2-x,-y,1/2+z
1/2+x,1/2-y,-z
-x,1/2+y,1/2-z
loop_
_atom_site_type_symbol
_atom_site_label
_atom_site_fract_x
_atom_site_fract_y
_atom_site_fract_z
Si Si1 0.355203 0.985521 0.346260
Si Si2 0.750000 0.586303 0.000000
Si Si3 0.000000 0.338782 0.419550
Si Si4 0.243131 0.834440 0.606839
Si Si5 0.855202 0.985521 0.653740
Si Si6 0.500000 0.338664 0.787531
Si Si7 0.750000 0.913697 0.000000
Si Si8 0.756869 0.834440 0.606839
O O1 0.284163 0.032418 0.419411
O O2 0.500000 0.011691 0.345762
O O3 0.298167 0.000000 0.250000
O O4 0.351166 0.898750 0.365655
O O5 0.873085 0.632712 0.030826
O O6 0.126915 0.367288 0.469174
O O7 0.000000 0.250000 0.419971
O O8 0.000000 0.364561 0.315222
O O9 0.250000 0.835171 0.500000
O O10 0.375340 0.856452 0.654635
O O11 0.211704 0.750000 0.633245
O O12 0.784163 0.032418 0.580589
O O13 0.798167 0.000000 0.750000
O O14 0.851166 0.898750 0.634345
O O15 0.500000 0.250000 0.781671
O O16 0.375340 0.356452 0.845365
O O17 0.750000 0.835171 0.500000
#
# Coordination Sequence:
#
# PCOD9334857 Si02
#       8
#     8   4   8   8   8   8   4   8
#     4  11  24  41  61  91 133 170 209 268 328 388
#     4  12  23  44  67  98 124 176 220 266 341 394
#     4  11  24  43  70  95 130 172 224 280 322 390
#     4  10  21  37  63  93 125 167 214 268 324 388
#     4  11  24  41  61  91 133 170 209 268 328 388
#     4   9  20  39  61  93 126 162 219 274 323 386
#     4  12  23  44  67  98 124 176 220 266 341 394
#     4  10  21  37  63  93 125 167 214 268 324 388
#
# _framework density 19.419067999999999
#
# number of rings (size 3 to 8) (size 9 to 14) (size 15 to 20)
#    0.000    1.429    2.857    2.143    2.000    1.714 
#    0.000    4.286    0.000    0.000    0.000    0.000 
#    0.000    0.000    0.000    0.000    0.000    0.000 
#
# Total GULP energy -156213.097030 kJ/mol
# GULP energy per Si atom -5579.039180 kJ/mol
# Density = 1.937487 g / cm^3
# Si number density = 19.419068 Si / 1000 Ang^3
#
#
#
# Elastic Constant Matrix: (Units=GPa)
#
#
# Indices 1 2 3 4 5 6 
#
# 1 109.1675 34.9747 62.1846 0.0000 0.0000 0.0000
# 2 34.9747 101.1105 56.4371 0.0000 0.0000 0.0000
# 3 62.1846 56.4371 163.9747 0.0000 0.0000 0.0000
# 4 0.0000 0.0000 0.0000 -98.1822 0.0000 0.0000
# 5 0.0000 0.0000 0.0000 0.0000 32.5818 0.0000
# 6 0.0000 0.0000 0.0000 0.0000 0.0000 34.3698
#
#
#
# Elastic Compliance Matrix: (Units=1/GPa)
#
#
# Indices 1 2 3 4 5 6 
#
# 1 0.012000 -0.001994 -0.003865 0.000000 0.000000 0.000000
# 2 -0.001994 0.012573 -0.003571 0.000000 0.000000 0.000000
# 3 -0.003865 -0.003571 0.008793 0.000000 0.000000 0.000000
# 4 0.000000 0.000000 0.000000 -0.010185 0.000000 0.000000
# 5 0.000000 0.000000 0.000000 0.000000 0.030692 0.000000
# 6 0.000000 0.000000 0.000000 0.000000 0.000000 0.029095
#
#
# Mechanical properties :
#
#
# Convention : Reuss Voigt Hill
#
# Bulk Modulus (GPa) = 68.93124 75.71617 72.32370
# Shear Modulus (GPa) = 46.87579 8.46429 27.67004
#
# Velocity S-wave (km/s) = 4.91848 2.09003 3.77887
# Velocity P-wave (km/s) = 8.23584 6.70071 7.50762
#
# Compressibility (1/GPa) = 0.01450721
#
# Stress axis : x y z
#
# Youngs Moduli (GPa) = 83.33017 79.53361 113.72255
#
# Poissons Ratio (x) = 0.15858 0.43951
# Poissons Ratio (y) = 0.16615 0.40615
# Poissons Ratio (z) = 0.32205 0.28404
#
# Static dielectric constant tensor:
#      x y z
#    x 1.696390 0.000000 0.000000 
#    y 0.000000 1.654680 0.000000 
#    z 0.000000 0.000000 1.656330 
# 
# From -- ./inp_files/25851.got.cif
#   From: 2010.05.17/outbox.cif.g08.bks.cpg/sg24_13_cif.got.tgz:25851.got - 2010.06.04 00:33:39.
