data_PCOD9334503
_publ_section_title
;
Structure prediction by ZEFSAII (Michael W. Deem and Ramdas Pophale) SiO2 
 PCOD9334503
Probable space group: I 21 21 21
;
_chemical_formula_sum "Si O2"
_cell_formula_units_Z 40
_cell_length_a 11.872556
_cell_length_b 13.812054
_cell_length_c 10.617831
_cell_angle_alpha 90.000000
_cell_angle_beta 90.000000
_cell_angle_gamma 90.000000
_cell_volume 1741.158482
_symmetry_space_group_name_H-M "I 21 21 21"
_symmetry_group_IT_number 24
_symmetry_cell_setting 'orthorhombic'
loop_
_space_group_symop_operation_xyz
x,y,z
-x,1/2-y,z
x,-y,1/2-z
1/2-x,y,-z
1/2+x,1/2+y,1/2+z
1/2-x,-y,1/2+z
1/2+x,1/2-y,-z
-x,1/2+y,1/2-z
loop_
_atom_site_type_symbol
_atom_site_label
_atom_site_fract_x
_atom_site_fract_y
_atom_site_fract_z
Si Si1 0.709453 0.000000 0.250000
Si Si2 0.869200 0.598635 0.192295
Si Si3 0.750000 0.736306 0.000000
Si Si4 0.642451 0.230645 0.852962
Si Si5 0.111744 0.605235 0.102650
Si Si6 0.106559 0.688952 0.631539
O O1 0.793579 0.975464 0.132344
O O2 0.631864 0.911259 0.296730
O O3 0.823745 0.500000 0.250000
O O4 0.905036 0.666165 0.310109
O O5 0.980779 0.577003 0.106694
O O6 0.782958 0.663276 0.111439
O O7 0.647155 0.815403 0.003098
O O8 0.626960 0.163938 0.732271
O O9 0.776636 0.246849 0.860121
O O10 0.598429 0.181454 0.979823
O O11 0.000000 0.750000 0.677921
#
# Coordination Sequence:
#
# PCOD9334503 Si02
#       6
#     4   8   4   8   8   8
#     4  10  22  40  68 102 128 180 242 290 332 448
#     4  11  22  42  69 100 134 185 241 283 347 431
#     4  10  22  38  64 104 142 172 216 316 360 390
#     4   9  20  38  66  89 132 170 229 283 335 412
#     4  10  20  41  67  97 127 175 239 288 342 420
#     4  10  20  39  65  97 133 178 221 289 358 405
#
# _framework density 22.973210000000002
#
# number of rings (size 3 to 8) (size 9 to 14) (size 15 to 20)
#    0.000    2.000    1.000    3.600    0.000    4.800 
#    5.400   18.000    0.000    0.000    0.000    0.000 
#    0.000    0.000    0.000    0.000    0.000    0.000 
#
# Total GULP energy -111380.966838 kJ/mol
# GULP energy per Si atom -5569.048342 kJ/mol
# Density = 2.292092 g / cm^3
# Si number density = 22.973210 Si / 1000 Ang^3
#
#
#
# Elastic Constant Matrix: (Units=GPa)
#
#
# Indices 1 2 3 4 5 6 
#
# 1 121.0774 38.7895 35.2495 0.0000 0.0000 0.0000
# 2 38.7895 129.7612 44.1059 0.0000 0.0000 0.0000
# 3 35.2495 44.1059 90.8340 0.0000 0.0000 0.0000
# 4 0.0000 0.0000 0.0000 40.0900 0.0000 0.0000
# 5 0.0000 0.0000 0.0000 0.0000 37.8015 0.0000
# 6 0.0000 0.0000 0.0000 0.0000 0.0000 165.4701
#
#
#
# Elastic Compliance Matrix: (Units=1/GPa)
#
#
# Indices 1 2 3 4 5 6 
#
# 1 0.009703 -0.001941 -0.002823 0.000000 0.000000 0.000000
# 2 -0.001941 0.009618 -0.003917 0.000000 0.000000 0.000000
# 3 -0.002823 -0.003917 0.014006 0.000000 0.000000 0.000000
# 4 0.000000 0.000000 0.000000 0.024944 0.000000 0.000000
# 5 0.000000 0.000000 0.000000 0.000000 0.026454 0.000000
# 6 0.000000 0.000000 0.000000 0.000000 0.000000 0.006043
#
#
# Mechanical properties :
#
#
# Convention : Reuss Voigt Hill
#
# Bulk Modulus (GPa) = 62.63403 64.21807 63.42605
# Shear Modulus (GPa) = 44.07145 63.57419 53.82282
#
# Velocity S-wave (km/s) = 4.38469 5.26624 4.84555
# Velocity P-wave (km/s) = 7.27716 8.06175 7.67948
#
# Compressibility (1/GPa) = 0.01596576
#
# Stress axis : x y z
#
# Youngs Moduli (GPa) = 103.06268 103.97105 71.39546
#
# Poissons Ratio (x) = 0.20181 0.20154
# Poissons Ratio (y) = 0.20004 0.27965
# Poissons Ratio (z) = 0.29093 0.40725
#
# Static dielectric constant tensor:
#      x y z
#    x 1.944530 0.000000 0.000000 
#    y 0.000000 1.915700 0.000000 
#    z 0.000000 0.000000 1.493860 
# 
# From -- ./inp_files/19463.got.cif
#   From: 2010.05.17/outbox.cif.g08.bks.cpg/sg24_10_cif.got.tgz:19463.got - 2010.06.04 00:33:39.
