data_PCOD9334697
_publ_section_title
;
Structure prediction by ZEFSAII (Michael W. Deem and Ramdas Pophale) SiO2 
 PCOD9334697
Probable space group: I 21 21 21
;
_chemical_formula_sum "Si O2"
_cell_formula_units_Z 40
_cell_length_a 24.190376
_cell_length_b 13.512286
_cell_length_c 5.332501
_cell_angle_alpha 90.000000
_cell_angle_beta 90.000000
_cell_angle_gamma 90.000000
_cell_volume 1743.020092
_symmetry_space_group_name_H-M "I 21 21 21"
_symmetry_group_IT_number 24
_symmetry_cell_setting 'orthorhombic'
loop_
_space_group_symop_operation_xyz
x,y,z
-x,1/2-y,z
x,-y,1/2-z
1/2-x,y,-z
1/2+x,1/2+y,1/2+z
1/2-x,-y,1/2+z
1/2+x,1/2-y,-z
-x,1/2+y,1/2-z
loop_
_atom_site_type_symbol
_atom_site_label
_atom_site_fract_x
_atom_site_fract_y
_atom_site_fract_z
Si Si1 0.372707 0.691593 0.031328
Si Si2 0.974936 0.061020 0.512489
Si Si3 0.949833 0.304854 0.199551
Si Si4 0.633915 0.393214 0.132159
Si Si5 0.750000 0.674107 0.500000
Si Si6 0.750000 0.805575 0.000000
O O1 0.369586 0.793650 0.193694
O O2 0.311210 0.646520 0.009811
O O3 0.418295 0.612148 0.110966
O O4 0.401230 0.728978 0.773343
O O5 0.018856 0.145244 0.433466
O O6 0.965893 0.000000 0.250000
O O7 0.995124 0.000000 0.750000
O O8 0.000000 0.250000 0.058671
O O9 0.917665 0.387085 0.051622
O O10 0.632431 0.500000 0.250000
O O11 0.693566 0.386465 0.000928
O O12 0.752085 0.740063 0.250719
#
# Coordination Sequence:
#
# PCOD9334697 Si02
#       6
#     8   8   8   8   4   4
#     4  10  24  44  69 103 137 183 232 290 345 420
#     4  11  28  46  72 101 140 186 235 294 348 406
#     4  10  24  44  68  98 140 185 231 282 345 416
#     4  11  25  42  70 102 146 185 235 282 349 416
#     4  10  22  43  66  99 140 182 228 279 340 421
#     4  10  20  43  74  97 136 182 224 287 352 401
#
# _framework density 22.948672999999999
#
# number of rings (size 3 to 8) (size 9 to 14) (size 15 to 20)
#    0.000    1.600    2.000    0.000   11.200    4.000 
#    0.000    1.000    0.000    0.000    0.000    0.000 
#    0.000    0.000    0.000    0.000    0.000    0.000 
#
# Total GULP energy -111679.994058 kJ/mol
# GULP energy per Si atom -5583.999703 kJ/mol
# Density = 2.289644 g / cm^3
# Si number density = 22.948673 Si / 1000 Ang^3
#
#
#
# Elastic Constant Matrix: (Units=GPa)
#
#
# Indices 1 2 3 4 5 6 
#
# 1 216.8062 22.2669 29.9710 0.0000 0.0000 0.0000
# 2 22.2669 45.2670 15.0336 0.0000 0.0000 0.0000
# 3 29.9710 15.0336 80.1337 0.0000 0.0000 0.0000
# 4 0.0000 0.0000 0.0000 30.3952 0.0000 0.0000
# 5 0.0000 0.0000 0.0000 0.0000 26.9485 0.0000
# 6 0.0000 0.0000 0.0000 0.0000 0.0000 30.9431
#
#
#
# Elastic Compliance Matrix: (Units=1/GPa)
#
#
# Indices 1 2 3 4 5 6 
#
# 1 0.005023 -0.001970 -0.001509 0.000000 0.000000 0.000000
# 2 -0.001970 0.024331 -0.003828 0.000000 0.000000 0.000000
# 3 -0.001509 -0.003828 0.013762 0.000000 0.000000 0.000000
# 4 0.000000 0.000000 0.000000 0.032900 0.000000 0.000000
# 5 0.000000 0.000000 0.000000 0.000000 0.037108 0.000000
# 6 0.000000 0.000000 0.000000 0.000000 0.000000 0.032317
#
#
# Mechanical properties :
#
#
# Convention : Reuss Voigt Hill
#
# Bulk Modulus (GPa) = 35.08465 52.97219 44.02842
# Shear Modulus (GPa) = 29.48868 35.98638 32.73753
#
# Velocity S-wave (km/s) = 3.58856 3.96425 3.78107
# Velocity P-wave (km/s) = 5.70016 6.63978 6.18783
#
# Compressibility (1/GPa) = 0.02850249
#
# Stress axis : x y z
#
# Youngs Moduli (GPa) = 199.07018 41.09917 72.66501
#
# Poissons Ratio (x) = 0.08096 0.10967
# Poissons Ratio (y) = 0.39212 0.27816
# Poissons Ratio (z) = 0.30045 0.15733
#
# Static dielectric constant tensor:
#      x y z
#    x 1.886520 0.000000 0.000000 
#    y 0.000000 1.901190 0.000000 
#    z 0.000000 0.000000 1.891010 
# 
# From -- ./inp_files/6308.got.cif
#   From: 2010.05.17/outbox.cif.g08.bks.cpg/sg24_4_cif.got.tgz:6308.got - 2010.06.04 00:33:39.
