data_PCOD9334664
_publ_section_title
;
Structure prediction by ZEFSAII (Michael W. Deem and Ramdas Pophale) SiO2 
 PCOD9334664
Probable space group: I 21 21 21
;
_chemical_formula_sum "Si O2"
_cell_formula_units_Z 56
_cell_length_a 6.816982
_cell_length_b 23.554628
_cell_length_c 15.692546
_cell_angle_alpha 90.000000
_cell_angle_beta 90.000000
_cell_angle_gamma 90.000000
_cell_volume 2519.775259
_symmetry_space_group_name_H-M "I 21 21 21"
_symmetry_group_IT_number 24
_symmetry_cell_setting 'orthorhombic'
loop_
_space_group_symop_operation_xyz
x,y,z
-x,1/2-y,z
x,-y,1/2-z
1/2-x,y,-z
1/2+x,1/2+y,1/2+z
1/2-x,-y,1/2+z
1/2+x,1/2-y,-z
-x,1/2+y,1/2-z
loop_
_atom_site_type_symbol
_atom_site_label
_atom_site_fract_x
_atom_site_fract_y
_atom_site_fract_z
Si Si1 0.210231 0.110756 0.645564
Si Si2 0.915475 0.690225 0.387105
Si Si3 0.942012 0.625024 0.665102
Si Si4 0.556120 0.812991 0.809336
Si Si5 0.293638 0.983417 0.600652
Si Si6 0.095258 0.687563 0.923973
Si Si7 0.842276 0.913647 0.413301
O O1 0.112395 0.127182 0.735755
O O2 0.420643 0.140966 0.645436
O O3 0.070306 0.139328 0.575570
O O4 0.238498 0.043904 0.638932
O O5 0.002257 0.684923 0.290519
O O6 0.011640 0.638038 0.437205
O O7 0.000000 0.750000 0.419417
O O8 0.682479 0.677127 0.378103
O O9 0.840929 0.567076 0.634048
O O10 0.169197 0.614503 0.642561
O O11 0.500000 0.750000 0.839776
O O12 0.778422 0.819254 0.837418
O O13 0.250000 0.987231 0.500000
O O14 0.515392 0.962524 0.622463
O O15 0.000000 0.750000 0.925487
O O16 0.250000 0.682222 0.000000
O O17 0.750000 0.936408 0.500000
#
# Coordination Sequence:
#
# PCOD9334664 Si02
#       7
#     8   8   8   8   8   8   8
#     4  11  25  43  69  99 131 176 234 286 335 416
#     4   9  21  39  66 103 133 169 215 268 329 410
#     4  10  22  45  70  97 136 176 222 277 345 402
#     4  10  20  42  65  92 133 175 216 270 341 409
#     4  11  24  43  69  95 134 174 224 287 342 403
#     4  12  26  40  64  95 138 182 223 280 351 419
#     4  11  22  43  69  93 133 181 214 275 347 404
#
# _framework density 22.224201999999998
#
# number of rings (size 3 to 8) (size 9 to 14) (size 15 to 20)
#    0.000    1.429    2.857    1.714    2.000    1.714 
#    2.571    4.286    0.000    0.000    0.000    0.000 
#    0.000    0.000    0.000    0.000    0.000    0.000 
#
# Total GULP energy -156422.225856 kJ/mol
# GULP energy per Si atom -5586.508066 kJ/mol
# Density = 2.217362 g / cm^3
# Si number density = 22.224202 Si / 1000 Ang^3
#
#
#
# Elastic Constant Matrix: (Units=GPa)
#
#
# Indices 1 2 3 4 5 6 
#
# 1 126.4534 54.8213 14.5061 0.0000 0.0000 0.0000
# 2 54.8213 105.3393 -16.7121 0.0000 0.0000 0.0000
# 3 14.5061 -16.7121 27.0217 0.0000 0.0000 0.0000
# 4 0.0000 0.0000 0.0000 -53.9506 0.0000 -0.0001
# 5 0.0000 0.0000 0.0000 0.0000 32.4169 0.0000
# 6 0.0000 0.0000 0.0000 -0.0001 0.0000 35.3489
#
#
#
# Elastic Compliance Matrix: (Units=1/GPa)
#
#
# Indices 1 2 3 4 5 6 
#
# 1 0.013187 -0.008855 -0.012556 0.000000 0.000000 0.000000
# 2 -0.008855 0.016472 0.014941 0.000000 0.000000 0.000000
# 3 -0.012556 0.014941 0.052988 0.000000 0.000000 0.000000
# 4 0.000000 0.000000 0.000000 -0.018535 0.000000 0.000000
# 5 0.000000 0.000000 0.000000 0.000000 0.030848 0.000000
# 6 0.000000 0.000000 0.000000 0.000000 0.000000 0.028289
#
#
# Mechanical properties :
#
#
# Convention : Reuss Voigt Hill
#
# Bulk Modulus (GPa) = 14.34561 40.44944 27.39753
# Shear Modulus (GPa) = 31.36263 16.50964 23.93614
#
# Velocity S-wave (km/s) = 3.76066 2.72852 3.28537
# Velocity P-wave (km/s) = 5.03247 5.30722 5.17167
#
# Compressibility (1/GPa) = 0.06970773
#
# Stress axis : x y z
#
# Youngs Moduli (GPa) = 75.83040 60.70940 18.87208
#
# Poissons Ratio (x) = 0.53758 0.23696
# Poissons Ratio (y) = 0.67148 -0.28197
# Poissons Ratio (z) = 0.95212 -0.90706
#
# Static dielectric constant tensor:
#      x y z
#    x 2.083120 0.000000 0.000000 
#    y 0.000000 1.779130 0.000000 
#    z 0.000000 0.000000 1.893810 
# 
# From -- ./inp_files/32262.got.cif
#   From: 2010.05.17/outbox.cif.g08.bks.cpg/sg24_17_cif.got.tgz:32262.got - 2010.06.04 00:33:39.
