data_PCOD9334762
_publ_section_title
;
Structure prediction by ZEFSAII (Michael W. Deem and Ramdas Pophale) SiO2 
 PCOD9334762
Probable space group: I 21 21 21
;
_chemical_formula_sum "Si O2"
_cell_formula_units_Z 40
_cell_length_a 26.554177
_cell_length_b 10.047595
_cell_length_c 7.763614
_cell_angle_alpha 90.000000
_cell_angle_beta 90.000000
_cell_angle_gamma 90.000000
_cell_volume 2071.375816
_symmetry_space_group_name_H-M "I 21 21 21"
_symmetry_group_IT_number 24
_symmetry_cell_setting 'orthorhombic'
loop_
_space_group_symop_operation_xyz
x,y,z
-x,1/2-y,z
x,-y,1/2-z
1/2-x,y,-z
1/2+x,1/2+y,1/2+z
1/2-x,-y,1/2+z
1/2+x,1/2-y,-z
-x,1/2+y,1/2-z
loop_
_atom_site_type_symbol
_atom_site_label
_atom_site_fract_x
_atom_site_fract_y
_atom_site_fract_z
Si Si1 0.410512 0.854596 0.328516
Si Si2 0.201050 0.880814 0.614838
Si Si3 0.103712 0.401710 0.598159
Si Si4 0.281339 0.373827 0.340779
Si Si5 0.549884 0.000000 0.750000
Si Si6 0.000000 0.750000 0.431223
O O1 0.357910 0.864934 0.437630
O O2 0.404611 0.747875 0.171496
O O3 0.454419 0.800312 0.449083
O O4 0.421465 0.000000 0.250000
O O5 0.250000 0.909369 0.500000
O O6 0.212414 0.741232 0.704141
O O7 0.198638 0.000000 0.750000
O O8 0.084410 0.500000 0.750000
O O9 0.164008 0.418757 0.592176
O O10 0.080906 0.443750 0.415146
O O11 0.256061 0.500000 0.250000
O O12 0.250000 0.322245 0.500000
O O13 0.517819 0.875280 0.681512
#
# Coordination Sequence:
#
# PCOD9334762 Si02
#       6
#     8   8   8   8   4   4
#     4  10  24  44  69  96 135 183 221 271 345 402
#     4  10  21  41  65  94 131 171 219 268 330 394
#     4  10  22  45  65  91 136 176 211 268 333 392
#     4  10  21  35  61  94 126 167 210 255 320 384
#     4  12  28  44  68 100 126 168 234 272 334 402
#     4  12  28  44  68 100 130 174 230 282 332 402
#
# _framework density 19.310835999999998
#
# number of rings (size 3 to 8) (size 9 to 14) (size 15 to 20)
#    0.000    1.600    2.000    1.200    7.000    1.600 
#    1.800    0.000    0.000    0.000    0.000    0.000 
#    0.000    0.000    0.000    0.000    0.000    0.000 
#
# Total GULP energy -111529.077365 kJ/mol
# GULP energy per Si atom -5576.453868 kJ/mol
# Density = 1.926688 g / cm^3
# Si number density = 19.310836 Si / 1000 Ang^3
#
#
#
# Elastic Constant Matrix: (Units=GPa)
#
#
# Indices 1 2 3 4 5 6 
#
# 1 130.4574 25.8427 63.1848 0.0000 0.0000 0.0000
# 2 25.8427 113.1110 17.6298 0.0000 0.0000 0.0000
# 3 63.1848 17.6298 83.9115 0.0000 0.0000 0.0000
# 4 0.0000 0.0000 0.0000 18.3305 0.0000 0.0000
# 5 0.0000 0.0000 0.0000 0.0000 30.6948 0.0000
# 6 0.0000 0.0000 0.0000 0.0000 0.0000 23.3037
#
#
#
# Elastic Compliance Matrix: (Units=1/GPa)
#
#
# Indices 1 2 3 4 5 6 
#
# 1 0.012280 -0.001411 -0.008950 0.000000 0.000000 0.000000
# 2 -0.001411 0.009302 -0.000892 0.000000 0.000000 0.000000
# 3 -0.008950 -0.000892 0.018844 0.000000 0.000000 0.000000
# 4 0.000000 0.000000 0.000000 0.054554 0.000000 0.000000
# 5 0.000000 0.000000 0.000000 0.000000 0.032579 0.000000
# 6 0.000000 0.000000 0.000000 0.000000 0.000000 0.042912
#
#
# Mechanical properties :
#
#
# Convention : Reuss Voigt Hill
#
# Bulk Modulus (GPa) = 55.80314 60.08828 57.94571
# Shear Modulus (GPa) = 25.13200 29.18730 27.15965
#
# Velocity S-wave (km/s) = 3.61147 3.89195 3.75433
# Velocity P-wave (km/s) = 6.80811 7.16800 6.99037
#
# Compressibility (1/GPa) = 0.01792014
#
# Stress axis : x y z
#
# Youngs Moduli (GPa) = 81.43603 107.50131 53.06689
#
# Poissons Ratio (x) = 0.15164 0.47495
# Poissons Ratio (y) = 0.11487 0.04735
# Poissons Ratio (z) = 0.72886 0.09592
#
# Static dielectric constant tensor:
#      x y z
#    x 1.728730 0.000000 0.000000 
#    y 0.000000 1.677150 0.000000 
#    z 0.000000 0.000000 1.660830 
# 
# From -- ./inp_files/9519.got.cif
#   From: 2010.05.17/outbox.cif.g08.bks.cpg/sg24_5_cif.got.tgz:9519.got - 2010.06.04 00:33:39.
