data_PCOD9334433
_publ_section_title
;
Structure prediction by ZEFSAII (Michael W. Deem and Ramdas Pophale) SiO2 
 PCOD9334433
Probable space group: I 21 21 21
;
_chemical_formula_sum "Si O2"
_cell_formula_units_Z 40
_cell_length_a 18.114775
_cell_length_b 4.724176
_cell_length_c 17.078986
_cell_angle_alpha 90.000000
_cell_angle_beta 90.000000
_cell_angle_gamma 90.000000
_cell_volume 1461.574965
_symmetry_space_group_name_H-M "I 21 21 21"
_symmetry_group_IT_number 24
_symmetry_cell_setting 'orthorhombic'
loop_
_space_group_symop_operation_xyz
x,y,z
-x,1/2-y,z
x,-y,1/2-z
1/2-x,y,-z
1/2+x,1/2+y,1/2+z
1/2-x,-y,1/2+z
1/2+x,1/2-y,-z
-x,1/2+y,1/2-z
loop_
_atom_site_type_symbol
_atom_site_label
_atom_site_fract_x
_atom_site_fract_y
_atom_site_fract_z
Si Si1 0.766297 0.500000 0.750000
Si Si2 0.750000 0.884089 0.500000
Si Si3 0.000000 0.250000 0.795576
Si Si4 0.450399 0.000000 0.750000
Si Si5 0.054060 0.985464 0.995352
Si Si6 0.642246 0.157349 0.124752
Si Si7 0.658305 0.493983 0.876616
O O1 0.810544 0.275855 0.802500
O O2 0.714760 0.644121 0.817179
O O3 0.690878 0.019505 0.438835
O O4 0.703655 0.702152 0.563601
O O5 0.959241 0.500000 0.750000
O O6 0.063814 0.429393 0.839171
O O7 0.500000 0.750000 0.784034
O O8 0.398352 0.145463 0.815160
O O9 0.110828 0.090458 0.929997
O O10 0.000000 0.250000 0.018078
O O11 0.000000 0.750000 0.965514
O O12 0.101878 0.851765 0.065766
#
# Coordination Sequence:
#
# PCOD9334433 Si02
#       7
#     4   4   4   4   8   8   8
#     4   9  18  38  68  88 131 170 214 260 319 380
#     4   8  18  38  66  92 130 174 212 262 316 382
#     4  12  26  42  72  98 130 164 212 270 320 376
#     4  11  22  38  66  94 127 164 210 268 321 376
#     4  11  23  39  66  95 128 165 211 267 320 376
#     4  10  20  38  67  95 131 167 217 261 321 377
#     4   9  19  37  65  91 129 167 217 257 320 381
#
# _framework density 27.367736000000001
#
# number of rings (size 3 to 8) (size 9 to 14) (size 15 to 20)
#    0.000    2.000    2.000    1.200    1.400    0.000 
#    0.000    0.000   33.000   25.200    0.000    0.000 
#    0.000    0.000    0.000    0.000    0.000    0.000 
#
# Total GULP energy -111521.354781 kJ/mol
# GULP energy per Si atom -5576.067739 kJ/mol
# Density = 2.730545 g / cm^3
# Si number density = 27.367736 Si / 1000 Ang^3
#
#
#
# Elastic Constant Matrix: (Units=GPa)
#
#
# Indices 1 2 3 4 5 6 
#
# 1 135.5921 42.5165 81.2224 0.0000 0.0000 0.0000
# 2 42.5165 67.8376 36.4720 0.0000 0.0000 0.0000
# 3 81.2224 36.4720 179.8953 0.0000 0.0000 0.0000
# 4 0.0000 0.0000 0.0000 14.7586 0.0000 0.0000
# 5 0.0000 0.0000 0.0000 0.0000 89.5026 0.0000
# 6 0.0000 0.0000 0.0000 0.0000 0.0000 13.6845
#
#
#
# Elastic Compliance Matrix: (Units=1/GPa)
#
#
# Indices 1 2 3 4 5 6 
#
# 1 0.011403 -0.004915 -0.004152 0.000000 0.000000 0.000000
# 2 -0.004915 0.018662 -0.001565 0.000000 0.000000 0.000000
# 3 -0.004152 -0.001565 0.007751 0.000000 0.000000 0.000000
# 4 0.000000 0.000000 0.000000 0.067757 0.000000 0.000000
# 5 0.000000 0.000000 0.000000 0.000000 0.011173 0.000000
# 6 0.000000 0.000000 0.000000 0.000000 0.000000 0.073075
#
#
# Mechanical properties :
#
#
# Convention : Reuss Voigt Hill
#
# Bulk Modulus (GPa) = 60.40982 78.19409 69.30196
# Shear Modulus (GPa) = 23.08376 38.46341 30.77359
#
# Velocity S-wave (km/s) = 2.90740 3.75297 3.35692
# Velocity P-wave (km/s) = 5.77857 6.88574 6.35631
#
# Compressibility (1/GPa) = 0.01655360
#
# Stress axis : x y z
#
# Youngs Moduli (GPa) = 87.69370 53.58342 129.02004
#
# Poissons Ratio (x) = 0.26334 0.53572
# Poissons Ratio (y) = 0.43097 0.20188
# Poissons Ratio (z) = 0.36412 0.08384
#
# Static dielectric constant tensor:
#      x y z
#    x 2.230460 0.000000 0.000000 
#    y 0.000000 -44.102240 0.000000 
#    z 0.000000 0.000000 2.235800 
# 
# From -- ./inp_files/4574.got.cif
#   From: 2010.05.17/outbox.cif.g08.bks.cpg/sg24_3_cif.got.tgz:4574.got - 2010.06.04 00:33:39.
