data_PCOD9334814
_publ_section_title
;
Structure prediction by ZEFSAII (Michael W. Deem and Ramdas Pophale) SiO2 
 PCOD9334814
Probable space group: I 21 21 21
;
_chemical_formula_sum "Si O2"
_cell_formula_units_Z 32
_cell_length_a 5.062459
_cell_length_b 7.353458
_cell_length_c 36.715421
_cell_angle_alpha 90.000000
_cell_angle_beta 90.000000
_cell_angle_gamma 90.000000
_cell_volume 1366.789544
_symmetry_space_group_name_H-M "I 21 21 21"
_symmetry_group_IT_number 24
_symmetry_cell_setting 'orthorhombic'
loop_
_space_group_symop_operation_xyz
x,y,z
-x,1/2-y,z
x,-y,1/2-z
1/2-x,y,-z
1/2+x,1/2+y,1/2+z
1/2-x,-y,1/2+z
1/2+x,1/2-y,-z
-x,1/2+y,1/2-z
loop_
_atom_site_type_symbol
_atom_site_label
_atom_site_fract_x
_atom_site_fract_y
_atom_site_fract_z
Si Si1 0.509771 0.966667 0.708170
Si Si2 0.751147 0.370527 0.593306
Si Si3 0.006753 0.028079 0.476966
Si Si4 0.510691 0.469498 0.166484
O O1 0.500000 0.750000 0.703847
O O2 0.726935 0.036341 0.679853
O O3 0.221378 0.031867 0.696786
O O4 0.578262 0.000000 0.750000
O O5 0.500000 0.250000 0.605222
O O6 0.605254 0.505436 0.564526
O O7 0.000000 0.250000 0.576532
O O8 0.888934 0.463543 0.627585
O O9 0.750000 0.971787 0.500000
O O10 0.000000 0.250000 0.476718
O O11 0.250000 0.960630 0.500000
O O12 0.500000 0.250000 0.165402
#
# Coordination Sequence:
#
# PCOD9334814 Si02
#       4
#     8   8   8   8
#     4  10  21  37  57  80 110 151 196 240 293 353
#     4  11  21  34  56  88 116 146 196 246 287 345
#     4   9  16  28  47  75 110 140 171 224 287 333
#     4  10  22  39  56  81 118 157 191 234 302 363
#
# _framework density 23.412528999999999
#
# number of rings (size 3 to 8) (size 9 to 14) (size 15 to 20)
#    0.000    2.000    0.000    6.000    0.000    3.000 
#    0.000    0.000    0.000    0.000    0.000   24.500 
#    0.000    0.000    0.000    0.000    0.000    0.000 
#
# Total GULP energy -89246.001579 kJ/mol
# GULP energy per Si atom -5577.875099 kJ/mol
# Density = 2.335924 g / cm^3
# Si number density = 23.412529 Si / 1000 Ang^3
#
#
#
# Elastic Constant Matrix: (Units=GPa)
#
#
# Indices 1 2 3 4 5 6 
#
# 1 189.6245 18.0492 66.2470 0.0000 0.0000 0.0000
# 2 18.0492 55.0056 9.2794 0.0000 0.0000 0.0000
# 3 66.2470 9.2794 171.5420 0.0000 0.0000 0.0000
# 4 0.0000 0.0000 0.0000 -183.1239 0.0000 0.0000
# 5 0.0000 0.0000 0.0000 0.0000 42.0302 0.0000
# 6 0.0000 0.0000 0.0000 0.0000 0.0000 2.0408
#
#
#
# Elastic Compliance Matrix: (Units=1/GPa)
#
#
# Indices 1 2 3 4 5 6 
#
# 1 0.006242 -0.001657 -0.002321 0.000000 0.000000 0.000000
# 2 -0.001657 0.018787 -0.000376 0.000000 0.000000 0.000000
# 3 -0.002321 -0.000376 0.006746 0.000000 0.000000 0.000000
# 4 0.000000 0.000000 0.000000 -0.005461 0.000000 0.000000
# 5 0.000000 0.000000 0.000000 0.000000 0.023792 0.000000
# 6 0.000000 0.000000 0.000000 0.000000 0.000000 0.489994
#
#
# Mechanical properties :
#
#
# Convention : Reuss Voigt Hill
#
# Bulk Modulus (GPa) = 43.35189 67.03592 55.19391
# Shear Modulus (GPa) = 8.98475 -6.30415 1.34030
#
# Velocity S-wave (km/s) = 1.96110 -1.64271 0.75744
# Velocity P-wave (km/s) = 4.86668 5.00966 4.93869
#
# Compressibility (1/GPa) = 0.02306704
#
# Stress axis : x y z
#
# Youngs Moduli (GPa) = 160.20161 53.22802 148.23204
#
# Poissons Ratio (x) = 0.08818 0.34405
# Poissons Ratio (y) = 0.26541 0.05581
# Poissons Ratio (z) = 0.37183 0.02004
#
# Static dielectric constant tensor:
#      x y z
#    x 1.895020 0.000000 0.000000 
#    y 0.000000 1.924050 0.000000 
#    z 0.000000 0.000000 1.960950 
# 
# From -- ./inp_files/37759.got.cif
#   From: 2010.05.17/outbox.cif.g08.bks.cpg/sg24_19_cif.got.tgz:37759.got - 2010.06.04 00:33:39.
