data_PCOD9334487
_publ_section_title
;
Structure prediction by ZEFSAII (Michael W. Deem and Ramdas Pophale) SiO2 
 PCOD9334487
Probable space group: I 21 21 21
;
_chemical_formula_sum "Si O2"
_cell_formula_units_Z 56
_cell_length_a 8.695737
_cell_length_b 14.039303
_cell_length_c 20.279130
_cell_angle_alpha 90.000000
_cell_angle_beta 90.000000
_cell_angle_gamma 90.000000
_cell_volume 2475.718504
_symmetry_space_group_name_H-M "I 21 21 21"
_symmetry_group_IT_number 24
_symmetry_cell_setting 'orthorhombic'
loop_
_space_group_symop_operation_xyz
x,y,z
-x,1/2-y,z
x,-y,1/2-z
1/2-x,y,-z
1/2+x,1/2+y,1/2+z
1/2-x,-y,1/2+z
1/2+x,1/2-y,-z
-x,1/2+y,1/2-z
loop_
_atom_site_type_symbol
_atom_site_label
_atom_site_fract_x
_atom_site_fract_y
_atom_site_fract_z
Si Si1 0.418676 0.157638 0.133539
Si Si2 0.406661 0.893430 0.223545
Si Si3 0.920106 0.549323 0.029535
Si Si4 0.921681 0.037647 0.599342
Si Si5 0.056136 0.148292 0.106971
Si Si6 0.643108 0.016535 0.817454
Si Si7 0.084356 0.151811 0.334284
O O1 0.500000 0.250000 0.103237
O O2 0.469467 0.152767 0.210075
O O3 0.481323 0.060833 0.101861
O O4 0.233852 0.158405 0.128943
O O5 0.249751 0.846896 0.198967
O O6 0.369723 0.000000 0.250000
O O7 0.513387 0.898678 0.159245
O O8 0.951063 0.443338 0.058940
O O9 0.910649 0.625092 0.088502
O O10 0.750000 0.545860 0.000000
O O11 0.042572 0.576052 0.973028
O O12 0.749774 0.011728 0.620831
O O13 0.000000 0.250000 0.080281
O O14 0.939156 0.116034 0.165492
O O15 0.738931 0.000000 0.750000
O O16 0.511608 0.937911 0.807862
O O17 0.000000 0.250000 0.322916
#
# Coordination Sequence:
#
# PCOD9334487 Si02
#       7
#     8   8   8   8   8   8   8
#     4  11  22  37  61  95 129 166 212 263 324 390
#     4  10  20  39  63  88 123 170 211 261 329 388
#     4  11  21  47  68  87 127 174 213 269 322 380
#     4  11  22  40  65  89 124 167 216 263 322 389
#     4  11  24  41  65  97 129 171 215 265 330 390
#     4  11  23  42  66  97 134 169 212 272 334 397
#     4  11  24  41  65  93 123 172 221 264 325 390
#
# _framework density 22.619696000000001
#
# number of rings (size 3 to 8) (size 9 to 14) (size 15 to 20)
#    0.000    1.143    2.857    6.000    0.000    7.429 
#    5.143    0.714    0.000    0.000    0.000    0.000 
#    0.000    0.000    0.000    0.000    0.000    0.000 
#
# Total GULP energy -156495.077095 kJ/mol
# GULP energy per Si atom -5589.109896 kJ/mol
# Density = 2.256821 g / cm^3
# Si number density = 22.619696 Si / 1000 Ang^3
#
#
#
# Elastic Constant Matrix: (Units=GPa)
#
#
# Indices 1 2 3 4 5 6 
#
# 1 64.2405 0.2700 -8.4741 0.0000 0.0000 0.0000
# 2 0.2700 57.2579 -21.8184 0.0000 0.0000 0.0000
# 3 -8.4741 -21.8184 88.1974 0.0000 0.0000 0.0000
# 4 0.0000 0.0000 0.0000 0.9109 0.0000 0.0000
# 5 0.0000 0.0000 0.0000 0.0000 30.9231 0.0000
# 6 0.0000 0.0000 0.0000 0.0000 0.0000 25.5177
#
#
#
# Elastic Compliance Matrix: (Units=1/GPa)
#
#
# Indices 1 2 3 4 5 6 
#
# 1 0.015782 0.000556 0.001654 0.000000 0.000000 0.000000
# 2 0.000556 0.019302 0.004828 0.000000 0.000000 0.000000
# 3 0.001654 0.004828 0.012692 0.000000 0.000000 0.000000
# 4 0.000000 0.000000 0.000000 1.097790 0.000000 0.000000
# 5 0.000000 0.000000 0.000000 0.000000 0.032338 0.000000
# 6 0.000000 0.000000 0.000000 0.000000 0.000000 0.039188
#
#
# Mechanical properties :
#
#
# Convention : Reuss Voigt Hill
#
# Bulk Modulus (GPa) = 16.16758 16.62784 16.39771
# Shear Modulus (GPa) = 4.08619 27.45156 15.76888
#
# Velocity S-wave (km/s) = 1.34551 3.48747 2.64319
# Velocity P-wave (km/s) = 3.09466 4.85630 4.07189
#
# Compressibility (1/GPa) = 0.06185219
#
# Stress axis : x y z
#
# Youngs Moduli (GPa) = 63.36194 51.80780 78.79246
#
# Poissons Ratio (x) = -0.02879 -0.13031
# Poissons Ratio (y) = -0.03522 -0.38044
# Poissons Ratio (z) = -0.10479 -0.25015
#
# Static dielectric constant tensor:
#      x y z
#    x 1.828160 0.000000 0.000000 
#    y 0.000000 1.815230 0.000000 
#    z 0.000000 0.000000 1.950260 
# 
# From -- ./inp_files/32818.got.cif
#   From: 2010.05.17/outbox.cif.g08.bks.cpg/sg24_17_cif.got.tgz:32818.got - 2010.06.04 00:33:39.
