data_PCOD9334259
_publ_section_title
;
Structure prediction by ZEFSAII (Michael W. Deem and Ramdas Pophale) SiO2 
 PCOD9334259
Probable space group: I 21 21 21
;
_chemical_formula_sum "Si O2"
_cell_formula_units_Z 48
_cell_length_a 7.935362
_cell_length_b 8.402389
_cell_length_c 33.468679
_cell_angle_alpha 90.000000
_cell_angle_beta 90.000000
_cell_angle_gamma 90.000000
_cell_volume 2231.557587
_symmetry_space_group_name_H-M "I 21 21 21"
_symmetry_group_IT_number 24
_symmetry_cell_setting 'orthorhombic'
loop_
_space_group_symop_operation_xyz
x,y,z
-x,1/2-y,z
x,-y,1/2-z
1/2-x,y,-z
1/2+x,1/2+y,1/2+z
1/2-x,-y,1/2+z
1/2+x,1/2-y,-z
-x,1/2+y,1/2-z
loop_
_atom_site_type_symbol
_atom_site_label
_atom_site_fract_x
_atom_site_fract_y
_atom_site_fract_z
Si Si1 0.358201 0.575900 0.171879
Si Si2 0.325117 0.405312 0.421224
Si Si3 0.203321 0.264195 0.953302
Si Si4 0.206262 0.922762 0.794447
Si Si5 0.952560 0.931557 0.293984
Si Si6 0.708078 0.581143 0.046722
O O1 0.357747 0.617483 0.125533
O O2 0.315247 0.732373 0.199082
O O3 0.541359 0.512361 0.183585
O O4 0.212780 0.451535 0.180221
O O5 0.242199 0.575763 0.430691
O O6 0.506766 0.413847 0.443845
O O7 0.228233 0.247933 0.435655
O O8 0.000000 0.250000 0.950202
O O9 0.269992 0.092242 0.938320
O O10 0.250000 0.281722 0.000000
O O11 0.203398 0.000000 0.750000
O O12 0.387406 0.972939 0.811139
O O13 0.000000 0.750000 0.289376
O O14 0.917572 0.000000 0.250000
O O15 0.750000 0.582566 0.000000
#
# Coordination Sequence:
#
# PCOD9334259 Si02
#       6
#     8   8   8   8   8   8
#     4  11  23  42  66  96 137 172 221 278 346 407
#     4  10  20  37  60  88 128 168 202 273 338 387
#     4   9  18  34  59  83 114 154 203 254 303 378
#     4  10  21  39  68  93 124 173 224 276 324 398
#     4  11  23  42  66  93 128 173 226 277 329 400
#     4   9  17  33  60  86 115 158 216 253 315 389
#
# _framework density 21.509640000000001
#
# number of rings (size 3 to 8) (size 9 to 14) (size 15 to 20)
#    0.000    2.000    0.000    5.500    0.000    3.333 
#   12.000    0.833   40.333    0.000    0.000    0.000 
#    0.000    0.000    0.000    0.000    0.000    0.000 
#
# Total GULP energy -133871.837445 kJ/mol
# GULP energy per Si atom -5577.993227 kJ/mol
# Density = 2.146068 g / cm^3
# Si number density = 21.509640 Si / 1000 Ang^3
#
#
#
# Elastic Constant Matrix: (Units=GPa)
#
#
# Indices 1 2 3 4 5 6 
#
# 1 61.2694 -4.5454 15.5484 0.0000 0.0000 0.0000
# 2 -4.5454 160.2829 40.2798 0.0000 -0.0001 0.0000
# 3 15.5484 40.2798 81.9496 0.0000 0.0000 0.0000
# 4 0.0000 0.0000 0.0000 -6.4195 0.0000 0.0000
# 5 0.0000 -0.0001 0.0000 0.0000 90.7959 0.0000
# 6 0.0000 0.0000 0.0000 0.0000 0.0000 4.3153
#
#
#
# Elastic Compliance Matrix: (Units=1/GPa)
#
#
# Indices 1 2 3 4 5 6 
#
# 1 0.017464 0.001515 -0.004058 0.000000 0.000000 0.000000
# 2 0.001515 0.007250 -0.003851 0.000000 0.000000 0.000000
# 3 -0.004058 -0.003851 0.014865 0.000000 0.000000 0.000000
# 4 0.000000 0.000000 0.000000 -0.155776 0.000000 0.000000
# 5 0.000000 0.000000 0.000000 0.000000 0.011014 0.000000
# 6 0.000000 0.000000 0.000000 0.000000 0.000000 0.231735
#
#
# Mechanical properties :
#
#
# Convention : Reuss Voigt Hill
#
# Bulk Modulus (GPa) = 37.32610 45.11863 41.22237
# Shear Modulus (GPa) = 33.72261 34.55295 34.13778
#
# Velocity S-wave (km/s) = 3.96383 4.01233 3.98815
# Velocity P-wave (km/s) = 6.19194 6.51818 6.35715
#
# Compressibility (1/GPa) = 0.02679090
#
# Stress axis : x y z
#
# Youngs Moduli (GPa) = 57.26207 137.93755 67.27070
#
# Poissons Ratio (x) = -0.20898 0.27299
# Poissons Ratio (y) = -0.08675 0.25905
# Poissons Ratio (z) = 0.23237 0.53117
#
# Static dielectric constant tensor:
#      x y z
#    x 1.793980 0.000000 0.000000 
#    y 0.000000 1.934280 0.000000 
#    z 0.000000 0.000000 1.760460 
# 
# From -- ./inp_files/38291.got.cif
#   From: 2010.05.17/outbox.cif.g08.bks.cpg/sg24_20_cif.got.tgz:38291.got - 2010.06.04 00:33:39.
