data_PCOD9334784
_publ_section_title
;
Structure prediction by ZEFSAII (Michael W. Deem and Ramdas Pophale) SiO2 
 PCOD9334784
Probable space group: I 21 21 21
;
_chemical_formula_sum "Si O2"
_cell_formula_units_Z 56
_cell_length_a 5.342678
_cell_length_b 30.700112
_cell_length_c 16.285087
_cell_angle_alpha 90.000000
_cell_angle_beta 90.000000
_cell_angle_gamma 90.000000
_cell_volume 2671.093209
_symmetry_space_group_name_H-M "I 21 21 21"
_symmetry_group_IT_number 24
_symmetry_cell_setting 'orthorhombic'
loop_
_space_group_symop_operation_xyz
x,y,z
-x,1/2-y,z
x,-y,1/2-z
1/2-x,y,-z
1/2+x,1/2+y,1/2+z
1/2-x,-y,1/2+z
1/2+x,1/2-y,-z
-x,1/2+y,1/2-z
loop_
_atom_site_type_symbol
_atom_site_label
_atom_site_fract_x
_atom_site_fract_y
_atom_site_fract_z
Si Si1 0.767700 0.564415 0.094656
Si Si2 0.996527 0.654348 0.445481
Si Si3 0.834747 0.873286 0.290080
Si Si4 0.819605 0.662476 0.142804
Si Si5 0.916397 0.207411 0.759042
Si Si6 0.724508 0.042850 0.304954
Si Si7 0.000000 0.250000 0.053849
Si Si8 0.500000 0.750000 0.859658
O O1 0.752098 0.617652 0.098231
O O2 0.529271 0.544978 0.142375
O O3 0.028103 0.550353 0.138434
O O4 0.750000 0.551184 0.000000
O O5 0.250000 0.650597 0.500000
O O6 0.001199 0.620403 0.370626
O O7 0.750000 0.649017 0.500000
O O8 0.975632 0.702970 0.404411
O O9 0.650383 0.833905 0.313897
O O10 0.709546 0.916357 0.257276
O O11 0.986703 0.853451 0.213153
O O12 0.593831 0.683731 0.193096
O O13 0.922683 0.705255 0.094385
O O14 0.711120 0.231588 0.702062
O O15 0.000000 0.250000 0.810038
O O16 0.747851 0.000000 0.250000
O O17 0.750000 0.246343 0.000000
#
# Coordination Sequence:
#
# PCOD9334784 Si02
#       8
#     8   8   8   8   8   8   4   4
#     4  11  23  43  72 103 136 170 217 274 337 395
#     4  10  22  36  52  78 114 156 205 258 317 377
#     4  10  21  36  59  85 118 164 214 265 326 388
#     4   9  18  33  58  87 123 170 218 261 313 387
#     4   9  16  30  52  87 118 158 212 266 305 377
#     4  11  24  45  71 101 131 171 219 274 332 403
#     4   8  16  33  46  66 104 149 194 248 306 369
#     4   8  16  29  50  86 126 167 216 264 308 369
#
# _framework density 20.965197
#
# number of rings (size 3 to 8) (size 9 to 14) (size 15 to 20)
#    0.000    2.286    1.429    0.857    2.000    3.429 
#    5.143    2.143    4.714    0.000    0.000    0.000 
#    0.000    0.000    0.000    0.000    0.000    0.000 
#
# Total GULP energy -155941.795519 kJ/mol
# GULP energy per Si atom -5569.349840 kJ/mol
# Density = 2.091748 g / cm^3
# Si number density = 20.965197 Si / 1000 Ang^3
#
#
#
# Elastic Constant Matrix: (Units=GPa)
#
#
# Indices 1 2 3 4 5 6 
#
# 1 94.3300 42.9471 24.1181 0.0000 0.0000 0.0000
# 2 42.9471 108.6650 46.8120 0.0000 0.0000 0.0000
# 3 24.1181 46.8120 83.4895 0.0000 0.0000 0.0000
# 4 0.0000 0.0000 0.0000 7.0177 0.0000 0.0000
# 5 0.0000 0.0000 0.0000 0.0000 8.4367 0.0000
# 6 0.0000 0.0000 0.0000 0.0000 0.0000 23.6344
#
#
#
# Elastic Compliance Matrix: (Units=1/GPa)
#
#
# Indices 1 2 3 4 5 6 
#
# 1 0.013011 -0.004645 -0.001154 0.000000 0.000000 0.000000
# 2 -0.004645 0.013792 -0.006391 0.000000 0.000000 0.000000
# 3 -0.001154 -0.006391 0.015894 0.000000 0.000000 0.000000
# 4 0.000000 0.000000 0.000000 0.142497 0.000000 0.000000
# 5 0.000000 0.000000 0.000000 0.000000 0.118529 0.000000
# 6 0.000000 0.000000 0.000000 0.000000 0.000000 0.042311
#
#
# Mechanical properties :
#
#
# Convention : Reuss Voigt Hill
#
# Bulk Modulus (GPa) = 54.59539 57.13767 55.86653
# Shear Modulus (GPa) = 13.27950 19.32491 16.30221
#
# Velocity S-wave (km/s) = 2.51949 3.03935 2.79154
# Velocity P-wave (km/s) = 5.87888 6.29520 6.09060
#
# Compressibility (1/GPa) = 0.01831657
#
# Stress axis : x y z
#
# Youngs Moduli (GPa) = 76.85803 72.50758 62.91547
#
# Poissons Ratio (x) = 0.33681 0.07261
# Poissons Ratio (y) = 0.35701 0.40209
# Poissons Ratio (z) = 0.08870 0.46340
#
# Static dielectric constant tensor:
#      x y z
#    x 1.910460 0.000000 0.000000 
#    y 0.000000 1.798130 0.000000 
#    z 0.000000 0.000000 1.756640 
# 
# From -- ./inp_files/24093.got.cif
#   From: 2010.05.17/outbox.cif.g08.bks.cpg/sg24_13_cif.got.tgz:24093.got - 2010.06.04 00:33:39.
