data_PCOD9334273
_publ_section_title
;
Structure prediction by ZEFSAII (Michael W. Deem and Ramdas Pophale) SiO2 
 PCOD9334273
Probable space group: I 21 21 21
;
_chemical_formula_sum "Si O2"
_cell_formula_units_Z 40
_cell_length_a 8.960947
_cell_length_b 19.332190
_cell_length_c 11.928236
_cell_angle_alpha 90.000000
_cell_angle_beta 90.000000
_cell_angle_gamma 90.000000
_cell_volume 2066.384743
_symmetry_space_group_name_H-M "I 21 21 21"
_symmetry_group_IT_number 24
_symmetry_cell_setting 'orthorhombic'
loop_
_space_group_symop_operation_xyz
x,y,z
-x,1/2-y,z
x,-y,1/2-z
1/2-x,y,-z
1/2+x,1/2+y,1/2+z
1/2-x,-y,1/2+z
1/2+x,1/2-y,-z
-x,1/2+y,1/2-z
loop_
_atom_site_type_symbol
_atom_site_label
_atom_site_fract_x
_atom_site_fract_y
_atom_site_fract_z
Si Si1 0.649320 0.574711 0.221861
Si Si2 0.649781 0.295731 0.109668
Si Si3 0.385626 0.403341 0.426692
Si Si4 0.190275 0.295695 0.295306
Si Si5 0.591357 0.660527 0.882913
O O1 0.714834 0.500000 0.250000
O O2 0.621354 0.632278 0.320465
O O3 0.498685 0.556415 0.153095
O O4 0.772198 0.611438 0.144199
O O5 0.500000 0.250000 0.086272
O O6 0.746672 0.245739 0.190698
O O7 0.750000 0.309877 0.000000
O O8 0.250000 0.436120 0.500000
O O9 0.307340 0.348570 0.345141
O O10 0.493967 0.364704 0.513808
O O11 0.157980 0.237109 0.388746
O O12 0.030780 0.333513 0.281654
#
# Coordination Sequence:
#
# PCOD9334273 Si02
#       5
#     8   8   8   8   8
#     4  11  24  42  61  89 131 168 213 273 328 394
#     4  11  24  40  65  92 129 173 226 265 319 385
#     4  10  20  37  61  91 122 158 200 258 327 387
#     4   9  19  36  58  93 123 153 201 263 311 372
#     4   9  20  33  62  91 123 154 201 253 326 390
#
# _framework density 19.357478
#
# number of rings (size 3 to 8) (size 9 to 14) (size 15 to 20)
#    0.000    2.000    2.000    0.600    5.600   19.200 
#    0.000    5.000    0.000    0.000    0.000    0.000 
#    0.000    0.000    0.000    0.000    0.000    0.000 
#
# Total GULP energy -111345.349577 kJ/mol
# GULP energy per Si atom -5567.267479 kJ/mol
# Density = 1.931342 g / cm^3
# Si number density = 19.357478 Si / 1000 Ang^3
#
#
#
# Elastic Constant Matrix: (Units=GPa)
#
#
# Indices 1 2 3 4 5 6 
#
# 1 103.5859 12.6126 30.3462 0.0000 0.0000 0.0000
# 2 12.6126 40.6113 -0.8448 0.0000 0.0000 0.0000
# 3 30.3462 -0.8448 69.0337 0.0000 0.0000 0.0000
# 4 0.0000 0.0000 0.0000 3.8918 0.0000 0.0000
# 5 0.0000 0.0000 0.0000 0.0000 29.6229 0.0000
# 6 0.0000 0.0000 0.0000 0.0000 0.0000 8.2215
#
#
#
# Elastic Compliance Matrix: (Units=1/GPa)
#
#
# Indices 1 2 3 4 5 6 
#
# 1 0.011615 -0.003714 -0.005151 0.000000 0.000000 0.000000
# 2 -0.003714 0.025818 0.001949 0.000000 0.000000 0.000000
# 3 -0.005151 0.001949 0.016774 0.000000 0.000000 0.000000
# 4 0.000000 0.000000 0.000000 0.256947 0.000000 0.000001
# 5 0.000000 0.000000 0.000000 0.000000 0.033758 0.000000
# 6 0.000000 0.000000 0.000000 0.000001 0.000000 0.121632
#
#
# Mechanical properties :
#
#
# Convention : Reuss Voigt Hill
#
# Bulk Modulus (GPa) = 24.76904 33.05098 28.91001
# Shear Modulus (GPa) = 10.12482 19.75505 14.93993
#
# Velocity S-wave (km/s) = 2.28950 3.19805 2.78113
# Velocity P-wave (km/s) = 4.45112 5.54507 5.02793
#
# Compressibility (1/GPa) = 0.04037299
#
# Stress axis : x y z
#
# Youngs Moduli (GPa) = 86.09397 38.73290 59.61614
#
# Poissons Ratio (x) = 0.14387 0.30710
# Poissons Ratio (y) = 0.31979 -0.11618
# Poissons Ratio (z) = 0.44350 -0.07548
#
# Static dielectric constant tensor:
#      x y z
#    x 1.736850 0.000000 0.000000 
#    y 0.000000 1.631950 0.000000 
#    z 0.000000 0.000000 1.724440 
# 
# From -- ./inp_files/10697.got.cif
#   From: 2010.05.17/outbox.cif.g08.bks.cpg/sg24_6_cif.got.tgz:10697.got - 2010.06.04 00:33:39.
