data_PCOD9334372
_publ_section_title
;
Structure prediction by ZEFSAII (Michael W. Deem and Ramdas Pophale) SiO2 
 PCOD9334372
Probable space group: I 21 21 21
;
_chemical_formula_sum "Si O2"
_cell_formula_units_Z 28
_cell_length_a 13.577959
_cell_length_b 5.073114
_cell_length_c 19.434052
_cell_angle_alpha 90.000000
_cell_angle_beta 90.000000
_cell_angle_gamma 90.000000
_cell_volume 1338.666746
_symmetry_space_group_name_H-M "I 21 21 21"
_symmetry_group_IT_number 24
_symmetry_cell_setting 'orthorhombic'
loop_
_space_group_symop_operation_xyz
x,y,z
-x,1/2-y,z
x,-y,1/2-z
1/2-x,y,-z
1/2+x,1/2+y,1/2+z
1/2-x,-y,1/2+z
1/2+x,1/2-y,-z
-x,1/2+y,1/2-z
loop_
_atom_site_type_symbol
_atom_site_label
_atom_site_fract_x
_atom_site_fract_y
_atom_site_fract_z
Si Si1 0.382529 0.750934 0.798472
Si Si2 0.270084 0.755593 0.077260
Si Si3 0.615834 0.748123 0.388013
Si Si4 0.065178 0.000000 0.750000
O O1 0.500000 0.750000 0.813859
O O2 0.359735 0.500000 0.750000
O O3 0.320895 0.762026 0.869269
O O4 0.361638 0.000000 0.750000
O O5 0.344396 0.541415 0.108626
O O6 0.320818 0.040688 0.069130
O O7 0.250000 0.660502 0.000000
O O8 0.500000 0.750000 0.405138
O O9 0.624826 0.625776 0.311750
O O10 0.000000 0.750000 0.775017
#
# Coordination Sequence:
#
# PCOD9334372 Si02
#       4
#     8   8   8   4
#     4  10  23  44  69  96 126 173 233 288 333 387
#     4  12  26  43  66 101 135 179 227 280 345 411
#     4  11  24  42  65  97 137 174 213 266 339 409
#     4  10  20  38  62  96 128 166 216 260 322 402
#
# _framework density 20.916332000000001
#
# number of rings (size 3 to 8) (size 9 to 14) (size 15 to 20)
#    0.000    1.143    0.000    6.857    6.000    2.286 
#    0.000    2.857    0.000    0.000    0.000    0.000 
#    0.000    0.000    0.000    0.000    0.000    0.000 
#
# Total GULP energy -78235.428948 kJ/mol
# GULP energy per Si atom -5588.244925 kJ/mol
# Density = 2.086873 g / cm^3
# Si number density = 20.916332 Si / 1000 Ang^3
#
#
#
# Elastic Constant Matrix: (Units=GPa)
#
#
# Indices 1 2 3 4 5 6 
#
# 1 120.2892 39.1796 58.9084 0.0000 0.0000 0.0000
# 2 39.1796 124.5476 25.1891 0.0000 0.0000 0.0000
# 3 58.9084 25.1891 126.1481 0.0000 0.0000 0.0000
# 4 0.0000 0.0000 0.0000 29.5558 0.0000 0.0000
# 5 0.0000 0.0000 0.0000 0.0000 9.7442 0.0000
# 6 0.0000 0.0000 0.0000 0.0000 0.0000 1.5758
#
#
#
# Elastic Compliance Matrix: (Units=1/GPa)
#
#
# Indices 1 2 3 4 5 6 
#
# 1 0.011562 -0.002652 -0.004870 0.000000 0.000000 0.000000
# 2 -0.002652 0.008975 -0.000554 0.000000 0.000000 0.000000
# 3 -0.004870 -0.000554 0.010312 0.000000 0.000000 0.000000
# 4 0.000000 0.000000 0.000000 0.033834 0.000000 0.000000
# 5 0.000000 0.000000 0.000000 0.000000 0.102625 0.000000
# 6 0.000000 0.000000 0.000000 0.000000 0.000000 0.634598
#
#
# Mechanical properties :
#
#
# Convention : Reuss Voigt Hill
#
# Bulk Modulus (GPa) = 68.03612 68.61547 68.32580
# Shear Modulus (GPa) = 6.07566 24.68901 15.38233
#
# Velocity S-wave (km/s) = 1.70618 3.43938 2.71481
# Velocity P-wave (km/s) = 6.03985 6.97484 6.52411
#
# Compressibility (1/GPa) = 0.01469808
#
# Stress axis : x y z
#
# Youngs Moduli (GPa) = 86.49100 111.41614 96.97705
#
# Poissons Ratio (x) = 0.29550 0.47224
# Poissons Ratio (y) = 0.22940 0.05369
# Poissons Ratio (z) = 0.42117 0.06169
#
# Static dielectric constant tensor:
#      x y z
#    x 1.804650 0.000000 0.000000 
#    y 0.000000 1.760070 0.000000 
#    z 0.000000 0.000000 2.038640 
# 
# From -- ./inp_files/33105.got.cif
#   From: 2010.05.17/outbox.cif.g08.bks.cpg/sg24_17_cif.got.tgz:33105.got - 2010.06.04 00:33:39.
