data_PCOD9334624
_publ_section_title
;
Structure prediction by ZEFSAII (Michael W. Deem and Ramdas Pophale) SiO2 
 PCOD9334624
Probable space group: I 21 21 21
;
_chemical_formula_sum "Si O2"
_cell_formula_units_Z 60
_cell_length_a 27.337566
_cell_length_b 12.842110
_cell_length_c 8.773511
_cell_angle_alpha 90.000000
_cell_angle_beta 90.000000
_cell_angle_gamma 90.000000
_cell_volume 3080.134314
_symmetry_space_group_name_H-M "I 21 21 21"
_symmetry_group_IT_number 24
_symmetry_cell_setting 'orthorhombic'
loop_
_space_group_symop_operation_xyz
x,y,z
-x,1/2-y,z
x,-y,1/2-z
1/2-x,y,-z
1/2+x,1/2+y,1/2+z
1/2-x,-y,1/2+z
1/2+x,1/2-y,-z
-x,1/2+y,1/2-z
loop_
_atom_site_type_symbol
_atom_site_label
_atom_site_fract_x
_atom_site_fract_y
_atom_site_fract_z
Si Si1 0.731968 0.386644 0.676933
Si Si2 0.909491 0.305881 0.876607
Si Si3 0.963017 0.834066 0.859513
Si Si4 0.135464 0.375645 0.457695
Si Si5 0.805122 0.921405 0.517484
Si Si6 0.185357 0.727263 0.783758
Si Si7 0.965740 0.500000 0.750000
Si Si8 0.350734 0.243986 0.825413
O O1 0.739487 0.500000 0.750000
O O2 0.750000 0.394240 0.500000
O O3 0.767945 0.297859 0.741150
O O4 0.678270 0.345930 0.732427
O O5 0.945308 0.217095 0.803119
O O6 0.860906 0.292898 0.774335
O O7 0.933683 0.416980 0.842814
O O8 0.890617 0.292165 0.049295
O O9 0.000000 0.750000 0.931606
O O10 0.997134 0.933575 0.850144
O O11 0.913803 0.862181 0.946555
O O12 0.156513 0.491974 0.463764
O O13 0.176769 0.306057 0.542777
O O14 0.126968 0.324423 0.295310
O O15 0.750000 0.961197 0.500000
O O16 0.813558 0.879851 0.688254
O O17 0.812808 0.816508 0.419499
#
# Coordination Sequence:
#
# PCOD9334624 Si02
#       8
#     8   8   8   8   8   8   4   8
#     4  12  27  42  63  91 128 187 230 276 320 385
#     4   9  22  39  66  94 123 168 210 283 329 395
#     4   9  21  43  67  93 122 166 221 276 328 412
#     4  11  23  39  65  95 132 174 214 265 338 408
#     4  11  23  36  64  95 136 181 218 261 324 397
#     4  10  22  40  60  89 130 172 231 264 315 388
#     4  10  20  40  72  98 118 160 238 270 338 402
#     4  11  24  43  59  98 143 168 215 275 335 389
#
# _framework density 19.479671
#
# number of rings (size 3 to 8) (size 9 to 14) (size 15 to 20)
#    0.000    1.600    2.667    0.800   12.133    1.067 
#    2.400    2.000    0.000    0.000    0.000    0.000 
#    0.000    0.000    0.000    0.000    0.000    0.000 
#
# Total GULP energy -167234.352231 kJ/mol
# GULP energy per Si atom -5574.478408 kJ/mol
# Density = 1.943533 g / cm^3
# Si number density = 19.479671 Si / 1000 Ang^3
#
#
#
# Elastic Constant Matrix: (Units=GPa)
#
#
# Indices 1 2 3 4 5 6 
#
# 1 105.6316 47.4717 32.4873 0.0000 0.0000 0.0000
# 2 47.4717 110.7885 46.9309 0.0000 0.0000 0.0000
# 3 32.4873 46.9309 110.3628 0.0000 0.0000 0.0000
# 4 0.0000 0.0000 0.0000 16.3340 0.0000 0.0000
# 5 0.0000 0.0000 0.0000 0.0000 22.9733 0.0000
# 6 0.0000 0.0000 0.0000 0.0000 0.0000 24.5846
#
#
#
# Elastic Compliance Matrix: (Units=1/GPa)
#
#
# Indices 1 2 3 4 5 6 
#
# 1 0.011962 -0.004432 -0.001636 0.000000 0.000000 0.000000
# 2 -0.004432 0.012652 -0.004075 0.000000 0.000000 0.000000
# 3 -0.001636 -0.004075 0.011276 0.000000 0.000000 0.000000
# 4 0.000000 0.000000 0.000000 0.061222 0.000000 0.000000
# 5 0.000000 0.000000 0.000000 0.000000 0.043529 0.000000
# 6 0.000000 0.000000 0.000000 0.000000 0.000000 0.040676
#
#
# Mechanical properties :
#
#
# Convention : Reuss Voigt Hill
#
# Bulk Modulus (GPa) = 64.09711 64.50696 64.30203
# Shear Modulus (GPa) = 24.17734 26.10457 25.14095
#
# Velocity S-wave (km/s) = 3.52683 3.66470 3.59642
# Velocity P-wave (km/s) = 7.03994 7.14798 7.09416
#
# Compressibility (1/GPa) = 0.01560133
#
# Stress axis : x y z
#
# Youngs Moduli (GPa) = 83.59715 79.04018 88.68618
#
# Poissons Ratio (x) = 0.35034 0.14513
# Poissons Ratio (y) = 0.37054 0.36142
# Poissons Ratio (z) = 0.13680 0.32211
#
# Static dielectric constant tensor:
#      x y z
#    x 1.670130 0.000000 0.000000 
#    y 0.000000 1.645730 0.000000 
#    z 0.000000 0.000000 1.757180 
# 
# From -- ./inp_files/16439.got.cif
#   From: 2010.05.17/outbox.cif.g08.bks.cpg/sg24_9_cif.got.tgz:16439.got - 2010.06.04 00:33:39.
