data_PCOD9334798
_publ_section_title
;
Structure prediction by ZEFSAII (Michael W. Deem and Ramdas Pophale) SiO2 
 PCOD9334798
Probable space group: I 21 21 21
;
_chemical_formula_sum "Si O2"
_cell_formula_units_Z 48
_cell_length_a 6.581939
_cell_length_b 14.770738
_cell_length_c 24.309040
_cell_angle_alpha 90.000000
_cell_angle_beta 90.000000
_cell_angle_gamma 90.000000
_cell_volume 2363.327215
_symmetry_space_group_name_H-M "I 21 21 21"
_symmetry_group_IT_number 24
_symmetry_cell_setting 'orthorhombic'
loop_
_space_group_symop_operation_xyz
x,y,z
-x,1/2-y,z
x,-y,1/2-z
1/2-x,y,-z
1/2+x,1/2+y,1/2+z
1/2-x,-y,1/2+z
1/2+x,1/2-y,-z
-x,1/2+y,1/2-z
loop_
_atom_site_type_symbol
_atom_site_label
_atom_site_fract_x
_atom_site_fract_y
_atom_site_fract_z
Si Si1 0.173535 0.181151 0.559874
Si Si2 0.086584 0.346947 0.865429
Si Si3 0.821914 0.473091 0.940162
Si Si4 0.009414 0.542730 0.344765
Si Si5 0.417097 0.844299 0.832318
Si Si6 0.153290 0.903611 0.737753
O O1 0.250000 0.211546 0.500000
O O2 0.348005 0.174928 0.605496
O O3 0.000000 0.250000 0.578423
O O4 0.104191 0.076821 0.553843
O O5 0.315373 0.383878 0.856218
O O6 0.000000 0.250000 0.885544
O O7 0.993111 0.416796 0.909214
O O8 0.987428 0.353400 0.804879
O O9 0.630915 0.466479 0.898851
O O10 0.750000 0.440889 0.000000
O O11 0.054539 0.436016 0.330696
O O12 0.862978 0.577828 0.295879
O O13 0.500000 0.750000 0.809567
O O14 0.217175 0.864304 0.796037
O O15 0.053143 0.000000 0.750000
#
# Coordination Sequence:
#
# PCOD9334798 Si02
#       6
#     8   8   8   8   8   8
#     4  10  21  39  61  89 128 165 204 260 317 386
#     4  11  24  40  64  92 121 171 213 261 329 374
#     4   9  21  43  62  88 127 160 210 265 312 382
#     4   9  21  41  61  87 127 164 199 260 321 370
#     4  10  21  36  61  94 121 164 208 257 315 379
#     4   9  21  41  57  84 129 160 203 261 308 379
#
# _framework density 20.310348000000001
#
# number of rings (size 3 to 8) (size 9 to 14) (size 15 to 20)
#    0.000    2.333    0.000    1.500    4.667    5.333 
#    3.000    0.000    0.000    0.000    0.000    0.000 
#    0.000    0.000    0.000    0.000    0.000    0.000 
#
# Total GULP energy -133675.864420 kJ/mol
# GULP energy per Si atom -5569.827684 kJ/mol
# Density = 2.026412 g / cm^3
# Si number density = 20.310348 Si / 1000 Ang^3
#
#
#
# Elastic Constant Matrix: (Units=GPa)
#
#
# Indices 1 2 3 4 5 6 
#
# 1 51.9451 32.0820 -1.8673 0.0000 0.0000 0.0000
# 2 32.0820 62.7029 -6.8709 0.0000 0.0000 0.0000
# 3 -1.8673 -6.8709 87.6350 0.0000 0.0000 0.0000
# 4 0.0000 0.0000 0.0000 304.5298 0.0000 0.0000
# 5 0.0000 0.0000 0.0000 0.0000 8.5561 0.0000
# 6 0.0000 0.0000 0.0000 0.0000 0.0000 5.0470
#
#
#
# Elastic Compliance Matrix: (Units=1/GPa)
#
#
# Indices 1 2 3 4 5 6 
#
# 1 0.028170 -0.014472 -0.000534 0.000000 0.000000 0.000000
# 2 -0.014472 0.023521 0.001536 0.000000 0.000000 0.000000
# 3 -0.000534 0.001536 0.011520 0.000000 0.000000 0.000000
# 4 0.000000 0.000000 0.000000 0.003284 0.000000 0.000000
# 5 0.000000 0.000000 0.000000 0.000000 0.116876 0.000000
# 6 0.000000 0.000000 0.000000 0.000000 0.000000 0.198138
#
#
# Mechanical properties :
#
#
# Convention : Reuss Voigt Hill
#
# Bulk Modulus (GPa) = 27.57091 27.66343 27.61717
# Shear Modulus (GPa) = 11.88951 75.55586 43.72268
#
# Velocity S-wave (km/s) = 2.42211 6.10585 4.64479
# Velocity P-wave (km/s) = 4.62887 7.95981 6.51095
#
# Compressibility (1/GPa) = 0.03627011
#
# Stress axis : x y z
#
# Youngs Moduli (GPa) = 35.49905 42.51532 86.80568
#
# Poissons Ratio (x) = 0.61527 0.04639
# Poissons Ratio (y) = 0.51373 -0.13331
# Poissons Ratio (z) = 0.01897 -0.06529
#
# Static dielectric constant tensor:
#      x y z
#    x 1.715080 0.000000 0.000000 
#    y 0.000000 1.963150 0.000000 
#    z 0.000000 0.000000 1.725620 
# 
# From -- ./inp_files/28025.got.cif
#   From: 2010.05.17/outbox.cif.g08.bks.cpg/sg24_15_cif.got.tgz:28025.got - 2010.06.04 00:33:39.
