data_PCOD9334635
_publ_section_title
;
Structure prediction by ZEFSAII (Michael W. Deem and Ramdas Pophale) SiO2 
 PCOD9334635
Probable space group: I 21 21 21
;
_chemical_formula_sum "Si O2"
_cell_formula_units_Z 36
_cell_length_a 20.306952
_cell_length_b 10.830256
_cell_length_c 7.414785
_cell_angle_alpha 90.000000
_cell_angle_beta 90.000000
_cell_angle_gamma 90.000000
_cell_volume 1630.729874
_symmetry_space_group_name_H-M "I 21 21 21"
_symmetry_group_IT_number 24
_symmetry_cell_setting 'orthorhombic'
loop_
_space_group_symop_operation_xyz
x,y,z
-x,1/2-y,z
x,-y,1/2-z
1/2-x,y,-z
1/2+x,1/2+y,1/2+z
1/2-x,-y,1/2+z
1/2+x,1/2-y,-z
-x,1/2+y,1/2-z
loop_
_atom_site_type_symbol
_atom_site_label
_atom_site_fract_x
_atom_site_fract_y
_atom_site_fract_z
Si Si1 0.629340 0.361662 0.293058
Si Si2 0.000000 0.250000 0.651836
Si Si3 0.816811 0.251402 0.383175
Si Si4 0.415514 0.460069 0.555964
Si Si5 0.677817 0.177353 0.013006
O O1 0.646405 0.500000 0.250000
O O2 0.555737 0.322476 0.238770
O O3 0.635527 0.342946 0.507381
O O4 0.674213 0.265903 0.184557
O O5 0.963103 0.137566 0.543962
O O6 0.750000 0.261596 0.500000
O O7 0.848683 0.117073 0.410166
O O8 0.822173 0.261711 0.167881
O O9 0.443974 0.500000 0.750000
O O10 0.384259 0.584321 0.470290
O O11 0.750000 0.114064 0.000000
#
# Coordination Sequence:
#
# PCOD9334635 Si02
#       5
#     8   4   8   8   8
#     4  11  26  43  64  98 134 184 227 284 348 415
#     4  10  24  46  64  98 138 178 240 284 340 426
#     4  10  20  41  64  98 137 166 218 285 343 410
#     4   9  21  41  68 100 132 176 226 286 344 404
#     4  11  22  41  70 105 130 179 230 284 360 409
#
# _framework density 22.076006
#
# number of rings (size 3 to 8) (size 9 to 14) (size 15 to 20)
#    0.000    1.778    2.222    0.667    3.111    4.444 
#   12.000    1.111    0.000    0.000    0.000    0.000 
#    0.000    0.000    0.000    0.000    0.000    0.000 
#
# Total GULP energy -100200.969100 kJ/mol
# GULP energy per Si atom -5566.720506 kJ/mol
# Density = 2.202576 g / cm^3
# Si number density = 22.076006 Si / 1000 Ang^3
#
#
#
# Elastic Constant Matrix: (Units=GPa)
#
#
# Indices 1 2 3 4 5 6 
#
# 1 72.9694 5.0494 0.6501 0.0000 0.0000 0.0000
# 2 5.0494 85.9145 26.1963 0.0000 0.0000 0.0000
# 3 0.6501 26.1963 89.7548 0.0000 0.0000 0.0000
# 4 0.0000 0.0000 0.0000 15.1001 0.0000 0.0000
# 5 0.0000 0.0000 0.0000 0.0000 16.8494 0.0000
# 6 0.0000 0.0000 0.0000 0.0000 0.0000 -0.0095
#
#
#
# Elastic Compliance Matrix: (Units=1/GPa)
#
#
# Indices 1 2 3 4 5 6 
#
# 1 0.013762 -0.000854 0.000150 0.000000 0.000000 0.000000
# 2 -0.000854 0.012830 -0.003738 0.000000 0.000000 0.000000
# 3 0.000150 -0.003738 0.012231 0.000000 0.000000 0.000000
# 4 0.000000 0.000000 0.000000 0.066225 0.000000 0.000000
# 5 0.000000 0.000000 0.000000 0.000000 0.059349 0.000000
# 6 0.000000 0.000000 0.000000 0.000000 0.000000**********
#
#
# Mechanical properties :
#
#
# Convention : Reuss Voigt Hill
#
# Bulk Modulus (GPa) = 33.40347 34.71449 34.05898
# Shear Modulus (GPa) = -0.04777 20.83751 10.39487
#
# Velocity S-wave (km/s) = -0.14726 3.07563 2.17230
# Velocity P-wave (km/s) = 3.89038 5.32651 4.66405
#
# Compressibility (1/GPa) = 0.02993701
#
# Stress axis : x y z
#
# Youngs Moduli (GPa) = 72.66300 77.94500 81.75638
#
# Poissons Ratio (x) = 0.06660 -0.01224
# Poissons Ratio (y) = 0.06209 0.30563
# Poissons Ratio (z) = -0.01088 0.29138
#
# Static dielectric constant tensor:
#      x y z
#    x 1.894730 0.000000 0.000000 
#    y 0.000000 1.779450 0.000000 
#    z 0.000000 0.000000 1.907050 
# 
# From -- ./inp_files/14816.got.cif
#   From: 2010.05.17/outbox.cif.g08.bks.cpg/sg24_8_cif.got.tgz:14816.got - 2010.06.04 00:33:39.
