data_PCOD9334743
_publ_section_title
;
Structure prediction by ZEFSAII (Michael W. Deem and Ramdas Pophale) SiO2 
 PCOD9334743
Probable space group: I 21 21 21
;
_chemical_formula_sum "Si O2"
_cell_formula_units_Z 48
_cell_length_a 8.951514
_cell_length_b 8.743241
_cell_length_c 28.135405
_cell_angle_alpha 90.000000
_cell_angle_beta 90.000000
_cell_angle_gamma 90.000000
_cell_volume 2202.024343
_symmetry_space_group_name_H-M "I 21 21 21"
_symmetry_group_IT_number 24
_symmetry_cell_setting 'orthorhombic'
loop_
_space_group_symop_operation_xyz
x,y,z
-x,1/2-y,z
x,-y,1/2-z
1/2-x,y,-z
1/2+x,1/2+y,1/2+z
1/2-x,-y,1/2+z
1/2+x,1/2-y,-z
-x,1/2+y,1/2-z
loop_
_atom_site_type_symbol
_atom_site_label
_atom_site_fract_x
_atom_site_fract_y
_atom_site_fract_z
Si Si1 0.163052 0.990558 0.804142
Si Si2 0.443004 0.421813 0.603473
Si Si3 0.509914 0.067886 0.799237
Si Si4 0.575884 0.419837 0.513099
Si Si5 0.500000 0.750000 0.366048
Si Si6 0.628065 0.006328 0.071650
Si Si7 0.500000 0.250000 0.359524
O O1 0.340139 0.009944 0.804075
O O2 0.084051 0.125274 0.833810
O O3 0.108886 0.000000 0.750000
O O4 0.124093 0.826924 0.826620
O O5 0.500000 0.250000 0.614945
O O6 0.413755 0.509395 0.652496
O O7 0.567622 0.483888 0.566963
O O8 0.295799 0.441994 0.570613
O O9 0.500000 0.250000 0.796375
O O10 0.574107 0.000000 0.750000
O O11 0.500000 0.250000 0.513137
O O12 0.750000 0.410593 0.500000
O O13 0.472665 0.510468 0.475576
O O14 0.382955 0.665597 0.400601
O O15 0.552870 0.882887 0.106218
#
# Coordination Sequence:
#
# PCOD9334743 Si02
#       7
#     8   8   8   8   4   8   4
#     4  10  21  39  61  94 127 175 224 280 331 399
#     4  11  23  40  67  97 131 175 224 279 339 403
#     4  11  24  42  65  95 134 176 227 281 340 405
#     4  11  23  39  66  99 131 172 221 275 333 404
#     4  10  23  38  64  88 138 172 221 274 350 394
#     4  11  22  41  61  95 129 175 217 274 330 405
#     4  10  21  34  66  84 128 168 221 268 330 388
#
# _framework density 21.798123
#
# number of rings (size 3 to 8) (size 9 to 14) (size 15 to 20)
#    0.000    1.333    0.833    5.500    4.667    1.333 
#    1.500    4.167    0.000    0.000    0.000    0.000 
#    0.000    0.000    0.000    0.000    0.000    0.000 
#
# Total GULP energy -134012.043878 kJ/mol
# GULP energy per Si atom -5583.835162 kJ/mol
# Density = 2.174851 g / cm^3
# Si number density = 21.798123 Si / 1000 Ang^3
#
#
#
# Elastic Constant Matrix: (Units=GPa)
#
#
# Indices 1 2 3 4 5 6 
#
# 1 70.5480 -2.6598 18.1614 0.0000 0.0000 0.0000
# 2 -2.6598 70.5708 38.8946 0.0000 0.0000 0.0000
# 3 18.1614 38.8946 154.0961 0.0000 0.0000 0.0000
# 4 0.0000 0.0000 0.0000 33.6365 0.0000 0.0000
# 5 0.0000 0.0000 0.0000 0.0000 37.1413 0.0000
# 6 0.0000 0.0000 0.0000 0.0000 0.0000 30.8424
#
#
#
# Elastic Compliance Matrix: (Units=1/GPa)
#
#
# Indices 1 2 3 4 5 6 
#
# 1 0.014805 0.001765 -0.002190 0.000000 0.000000 0.000000
# 2 0.001765 0.016670 -0.004416 0.000000 0.000000 0.000000
# 3 -0.002190 -0.004416 0.007862 0.000000 0.000000 0.000000
# 4 0.000000 0.000000 0.000000 0.029730 0.000000 0.000000
# 5 0.000000 0.000000 0.000000 0.000000 0.026924 0.000000
# 6 0.000000 0.000000 0.000000 0.000000 0.000000 0.032423
#
#
# Mechanical properties :
#
#
# Convention : Reuss Voigt Hill
#
# Bulk Modulus (GPa) = 33.72008 44.88968 39.30488
# Shear Modulus (GPa) = 33.78796 36.37862 35.08329
#
# Velocity S-wave (km/s) = 3.94133 4.08963 4.01616
# Velocity P-wave (km/s) = 6.01788 6.55273 6.29099
#
# Compressibility (1/GPa) = 0.02965592
#
# Stress axis : x y z
#
# Youngs Moduli (GPa) = 67.54380 59.98654 127.19133
#
# Poissons Ratio (x) = -0.10589 0.27861
# Poissons Ratio (y) = -0.11923 0.56164
# Poissons Ratio (z) = 0.14795 0.26488
#
# Static dielectric constant tensor:
#      x y z
#    x 1.818140 0.000000 0.000000 
#    y 0.000000 1.799850 0.000000 
#    z 0.000000 0.000000 1.873220 
# 
# From -- ./inp_files/38322.got.cif
#   From: 2010.05.17/outbox.cif.g08.bks.cpg/sg24_20_cif.got.tgz:38322.got - 2010.06.04 00:33:39.
