data_PCOD9334475
_publ_section_title
;
Structure prediction by ZEFSAII (Michael W. Deem and Ramdas Pophale) SiO2 
 PCOD9334475
Probable space group: I 21 21 21
;
_chemical_formula_sum "Si O2"
_cell_formula_units_Z 48
_cell_length_a 5.020734
_cell_length_b 28.395511
_cell_length_c 15.068179
_cell_angle_alpha 90.000000
_cell_angle_beta 90.000000
_cell_angle_gamma 90.000000
_cell_volume 2148.214641
_symmetry_space_group_name_H-M "I 21 21 21"
_symmetry_group_IT_number 24
_symmetry_cell_setting 'orthorhombic'
loop_
_space_group_symop_operation_xyz
x,y,z
-x,1/2-y,z
x,-y,1/2-z
1/2-x,y,-z
1/2+x,1/2+y,1/2+z
1/2-x,-y,1/2+z
1/2+x,1/2-y,-z
-x,1/2+y,1/2-z
loop_
_atom_site_type_symbol
_atom_site_label
_atom_site_fract_x
_atom_site_fract_y
_atom_site_fract_z
Si Si1 0.250000 0.614977 0.500000
Si Si2 0.834990 0.859278 0.312863
Si Si3 0.568781 0.472528 0.916956
Si Si4 0.936728 0.572475 0.085173
Si Si5 0.739577 0.218014 0.337179
Si Si6 0.337270 0.084089 0.229130
Si Si7 0.250000 0.655768 0.000000
O O1 0.278430 0.647874 0.413094
O O2 0.434542 0.575517 0.548610
O O3 0.800366 0.817882 0.242573
O O4 0.645725 0.902584 0.279480
O O5 0.145614 0.873949 0.307361
O O6 0.412882 0.521857 0.903646
O O7 0.748910 0.459353 0.832649
O O8 0.750000 0.483640 0.000000
O O9 0.753338 0.577068 0.171036
O O10 0.750000 0.572966 0.000000
O O11 0.104347 0.619143 0.066326
O O12 0.500000 0.250000 0.305434
O O13 0.633183 0.190968 0.425653
O O14 0.000000 0.250000 0.357718
#
# Coordination Sequence:
#
# PCOD9334475 Si02
#       7
#     4   8   8   8   8   8   4
#     4  10  21  40  70  96 136 182 218 274 335 416
#     4  11  23  43  72  96 134 172 227 272 351 406
#     4  10  20  39  61  99 137 181 229 269 322 387
#     4  11  24  38  64  94 140 181 232 277 323 399
#     4  12  27  47  71  98 130 170 227 293 355 422
#     4  11  22  42  64  98 136 185 221 273 325 407
#     4  12  25  44  66  96 130 184 224 286 351 414
#
# _framework density 22.344135000000001
#
# number of rings (size 3 to 8) (size 9 to 14) (size 15 to 20)
#    0.000    1.000    3.333    3.500    2.333    0.000 
#    0.000    2.500    0.000    0.000    0.000    0.000 
#    0.000    0.000    0.000    0.000    0.000    0.000 
#
# Total GULP energy -133629.724496 kJ/mol
# GULP energy per Si atom -5567.905187 kJ/mol
# Density = 2.229328 g / cm^3
# Si number density = 22.344135 Si / 1000 Ang^3
#
#
#
# Elastic Constant Matrix: (Units=GPa)
#
#
# Indices 1 2 3 4 5 6 
#
# 1 44.7566 2.1782 -13.1736 0.0000 0.0000 0.0000
# 2 2.1782 79.2917 17.7094 0.0000 0.0000 0.0000
# 3 -13.1736 17.7094 157.8202 0.0000 0.0000 0.0000
# 4 0.0000 0.0000 0.0000 7.6694 0.0000 0.0000
# 5 0.0000 0.0000 0.0000 0.0000 26.6908 0.0000
# 6 0.0000 0.0000 0.0000 0.0000 0.0000 -3.0578
#
#
#
# Elastic Compliance Matrix: (Units=1/GPa)
#
#
# Indices 1 2 3 4 5 6 
#
# 1 0.022997 -0.001088 0.002042 0.000000 0.000000 0.000000
# 2 -0.001088 0.012987 -0.001548 0.000000 0.000000 0.000000
# 3 0.002042 -0.001548 0.006680 0.000000 0.000000 0.000000
# 4 0.000000 0.000000 0.000000 0.130387 0.000000 0.000000
# 5 0.000000 0.000000 0.000000 0.000000 0.037466 0.000000
# 6 0.000000 0.000000 0.000000 0.000000 0.000000 -0.327036
#
#
# Mechanical properties :
#
#
# Convention : Reuss Voigt Hill
#
# Bulk Modulus (GPa) = 24.11017 32.81074 28.46045
# Shear Modulus (GPa) = -49.25920 24.60413 -12.32753
#
# Velocity S-wave (km/s) = -4.70038 3.32195 -2.35140
# Velocity P-wave (km/s) = 4.31790 5.42494 2.32225
#
# Compressibility (1/GPa) = 0.04147627
#
# Stress axis : x y z
#
# Youngs Moduli (GPa) = 43.48406 76.99824 149.69017
#
# Poissons Ratio (x) = 0.08375 -0.30562
# Poissons Ratio (y) = 0.04730 0.23174
# Poissons Ratio (z) = -0.08878 0.11920
#
# Static dielectric constant tensor:
#      x y z
#    x 1.854740 0.000000 0.000000 
#    y 0.000000 2.074500 0.000000 
#    z 0.000000 0.000000 1.963260 
# 
# From -- ./inp_files/23922.got.cif
#   From: 2010.05.17/outbox.cif.g08.bks.cpg/sg24_12_cif.got.tgz:23922.got - 2010.06.04 00:33:39.
