data_PCOD9334855
_publ_section_title
;
Structure prediction by ZEFSAII (Michael W. Deem and Ramdas Pophale) SiO2 
 PCOD9334855
Probable space group: I 21 21 21
;
_chemical_formula_sum "Si O2"
_cell_formula_units_Z 64
_cell_length_a 8.358040
_cell_length_b 31.956447
_cell_length_c 12.270337
_cell_angle_alpha 90.000000
_cell_angle_beta 90.000000
_cell_angle_gamma 90.000000
_cell_volume 3277.324339
_symmetry_space_group_name_H-M "I 21 21 21"
_symmetry_group_IT_number 24
_symmetry_cell_setting 'orthorhombic'
loop_
_space_group_symop_operation_xyz
x,y,z
-x,1/2-y,z
x,-y,1/2-z
1/2-x,y,-z
1/2+x,1/2+y,1/2+z
1/2-x,-y,1/2+z
1/2+x,1/2-y,-z
-x,1/2+y,1/2-z
loop_
_atom_site_type_symbol
_atom_site_label
_atom_site_fract_x
_atom_site_fract_y
_atom_site_fract_z
Si Si1 0.445590 0.375368 0.874303
Si Si2 0.056833 0.546975 0.772618
Si Si3 0.445590 0.624632 0.374303
Si Si4 0.941672 0.583341 1.000000
Si Si5 0.058471 0.819489 1.000000
Si Si6 0.943167 0.046975 0.272618
Si Si7 0.941003 0.794674 0.236396
Si Si8 0.941003 0.794674 0.763604
O O1 0.250000 0.375223 0.873409
O O2 0.498068 0.417788 0.813456
O O3 0.498807 0.334602 0.806255
O O4 0.496527 0.373960 1.000000
O O5 0.998550 0.500000 0.750000
O O6 0.001933 0.582212 0.686544
O O7 0.250000 0.546311 0.767481
O O8 0.006120 0.561545 0.891968
O O9 0.498807 0.665398 0.306255
O O10 0.992623 0.631883 1.000000
O O11 0.006120 0.561545 0.108032
O O12 0.750000 0.582192 0.000000
O O13 0.996189 0.799618 0.111513
O O14 0.250000 0.817112 0.000000
O O15 0.996189 0.799618 0.888487
O O16 0.001450 0.000000 0.250000
O O17 0.750000 0.795073 0.238499
O O18 0.000000 0.750000 0.279374
O O19 0.000000 0.750000 0.720626
#
# Coordination Sequence:
#
# PCOD9334855 Si02
#       8
#     8   8   8   8   8   8   8   8
#     4   9  19  36  57  84 116 150 189 239 291 337
#     4  10  21  37  63  92 117 150 197 244 285 342
#     4   9  19  36  57  84 116 150 189 239 291 337
#     4  11  23  38  60  87 125 160 189 237 294 353
#     4  11  22  38  59  85 118 154 194 237 287 345
#     4  10  21  37  63  92 117 150 197 244 285 342
#     4  11  22  37  59  85 116 151 191 240 292 349
#     4  11  22  37  59  85 116 151 191 240 292 349
#
# _framework density 19.528124999999999
#
# number of rings (size 3 to 8) (size 9 to 14) (size 15 to 20)
#    0.000    1.750    2.500    1.875    1.750    2.000 
#    0.000    0.000    0.000    5.250    0.000    0.000 
#    0.000    0.000    0.000    0.000    0.000    0.000 
#
# Total GULP energy -178789.985233 kJ/mol
# GULP energy per Si atom -5587.187039 kJ/mol
# Density = 1.948368 g / cm^3
# Si number density = 19.528125 Si / 1000 Ang^3
#
#
#
# Elastic Constant Matrix: (Units=GPa)
#
#
# Indices 1 2 3 4 5 6 
#
# 1 15.0496 24.7271 9.5661 0.0004 0.0001 0.0000
# 2 24.7271 205.9771 92.1196 0.0005 0.0000 0.0000
# 3 9.5661 92.1196 157.2420 0.0016 0.0001 0.0000
# 4 0.0004 0.0005 0.0016 48.0093 -0.0002 0.0000
# 5 0.0001 0.0000 0.0001 -0.0002 -0.2810 0.0000
# 6 0.0000 0.0000 0.0000 0.0000 0.0000 22.5443
#
#
#
# Elastic Compliance Matrix: (Units=1/GPa)
#
#
# Indices 1 2 3 4 5 6 
#
# 1 0.082905 -0.010429 0.001066 -0.000001 0.000021 0.000000
# 2 -0.010429 0.007891 -0.003988 0.000000 -0.000004 0.000000
# 3 0.001066 -0.003988 0.008631 0.000000 0.000005 0.000000
# 4 -0.000001 0.000000 0.000000 0.020829 -0.000018 0.000000
# 5 0.000021 -0.000004 0.000005 -0.000018 -3.559214 0.000000
# 6 0.000000 0.000000 0.000000 0.000000 0.000000 0.044357
#
#
# Mechanical properties :
#
#
# Convention : Reuss Voigt Hill
#
# Bulk Modulus (GPa) = 13.75054 70.12158 41.93606
# Shear Modulus (GPa) = -1.49537 30.84493 14.67478
#
# Velocity S-wave (km/s) = -0.87602 3.97862 2.74427
# Velocity P-wave (km/s) = 2.45631 7.55591 5.61807
#
# Compressibility (1/GPa) = 0.07272441
#
# Stress axis : x y z
#
# Youngs Moduli (GPa) = 12.06197 126.73335 115.85877
#
# Poissons Ratio (x) = 1.32176 -0.12355
# Poissons Ratio (y) = 0.12580 0.46206
# Poissons Ratio (z) = -0.01286 0.50543
#
# Static dielectric constant tensor:
#      x y z
#    x 1.669990 0.000000 0.000000 
#    y 0.000000 1.697230 0.000000 
#    z 0.000000 0.000000 1.639440 
# 
# From -- ./inp_files/11638.got.cif
#   From: 2010.05.17/outbox.cif.g08.bks.cpg/sg24_6_cif.got.tgz:11638.got - 2010.06.04 00:33:39.
