data_PCOD9334269
_publ_section_title
;
Structure prediction by ZEFSAII (Michael W. Deem and Ramdas Pophale) SiO2 
 PCOD9334269
Probable space group: I 21 21 21
;
_chemical_formula_sum "Si O2"
_cell_formula_units_Z 48
_cell_length_a 19.047820
_cell_length_b 13.912217
_cell_length_c 8.678275
_cell_angle_alpha 90.000000
_cell_angle_beta 90.000000
_cell_angle_gamma 90.000000
_cell_volume 2299.720357
_symmetry_space_group_name_H-M "I 21 21 21"
_symmetry_group_IT_number 24
_symmetry_cell_setting 'orthorhombic'
loop_
_space_group_symop_operation_xyz
x,y,z
-x,1/2-y,z
x,-y,1/2-z
1/2-x,y,-z
1/2+x,1/2+y,1/2+z
1/2-x,-y,1/2+z
1/2+x,1/2-y,-z
-x,1/2+y,1/2-z
loop_
_atom_site_type_symbol
_atom_site_label
_atom_site_fract_x
_atom_site_fract_y
_atom_site_fract_z
Si Si1 0.326099 0.538353 0.575724
Si Si2 0.434211 0.906673 0.359678
Si Si3 0.325884 0.999156 0.567055
Si Si4 0.060639 0.619632 0.061797
Si Si5 0.089374 0.826653 0.940726
Si Si6 0.046694 0.346603 0.086018
O O1 0.315666 0.500000 0.750000
O O2 0.250000 0.541930 0.500000
O O3 0.382229 0.459106 0.512958
O O4 0.369488 0.638987 0.564276
O O5 0.380076 0.922228 0.498122
O O6 0.412617 0.820408 0.245059
O O7 0.508681 0.896133 0.441111
O O8 0.428227 0.000000 0.250000
O O9 0.250000 0.977897 0.500000
O O10 0.326560 0.000000 0.750000
O O11 0.351205 0.102446 0.502508
O O12 0.040895 0.608723 0.242290
O O13 0.091802 0.725225 0.026457
O O14 0.985734 0.623859 0.978535
O O15 0.000000 0.250000 0.097220
#
# Coordination Sequence:
#
# PCOD9334269 Si02
#       6
#     8   8   8   8   8   8
#     4  10  23  42  64  94 133 174 214 263 336 403
#     4  10  22  38  61  96 126 163 214 273 333 387
#     4  11  22  38  61  86 126 170 211 266 335 398
#     4  10  21  40  66  94 124 175 219 267 327 395
#     4  10  20  37  60  94 126 158 225 272 324 390
#     4  11  22  41  67  93 128 168 224 266 324 396
#
# _framework density 20.872104
#
# number of rings (size 3 to 8) (size 9 to 14) (size 15 to 20)
#    0.000    1.667    1.667    4.500    2.333    4.000 
#    0.000    0.833    3.667    0.000    0.000    0.000 
#    0.000    0.000    0.000    0.000    0.000    0.000 
#
# Total GULP energy -133795.726775 kJ/mol
# GULP energy per Si atom -5574.821949 kJ/mol
# Density = 2.082460 g / cm^3
# Si number density = 20.872104 Si / 1000 Ang^3
#
#
#
# Elastic Constant Matrix: (Units=GPa)
#
#
# Indices 1 2 3 4 5 6 
#
# 1 130.9994 27.4310 40.3369 0.0000 0.0000 0.0000
# 2 27.4310 71.6260 11.6064 0.0000 0.0000 0.0000
# 3 40.3369 11.6064 132.1827 0.0000 0.0000 0.0000
# 4 0.0000 0.0000 0.0000 20.9013 0.0000 0.0000
# 5 0.0000 0.0000 0.0000 0.0000 37.8292 0.0000
# 6 0.0000 0.0000 0.0000 0.0000 0.0000 18.6988
#
#
#
# Elastic Compliance Matrix: (Units=1/GPa)
#
#
# Indices 1 2 3 4 5 6 
#
# 1 0.009041 -0.003059 -0.002490 0.000000 0.000000 0.000000
# 2 -0.003059 0.015198 -0.000401 0.000000 0.000000 0.000000
# 3 -0.002490 -0.000401 0.008360 0.000000 0.000000 0.000000
# 4 0.000000 0.000000 0.000000 0.047844 0.000000 0.000000
# 5 0.000000 0.000000 0.000000 0.000000 0.026435 0.000000
# 6 0.000000 0.000000 0.000000 0.000000 0.000000 0.053479
#
#
# Mechanical properties :
#
#
# Convention : Reuss Voigt Hill
#
# Bulk Modulus (GPa) = 48.31210 54.83963 51.57586
# Shear Modulus (GPa) = 27.90843 32.51479 30.21161
#
# Velocity S-wave (km/s) = 3.66063 3.95119 3.80868
# Velocity P-wave (km/s) = 6.40811 6.86637 6.64120
#
# Compressibility (1/GPa) = 0.02069875
#
# Stress axis : x y z
#
# Youngs Moduli (GPa) = 110.60747 65.79865 119.61076
#
# Poissons Ratio (x) = 0.20127 0.29787
# Poissons Ratio (y) = 0.33834 0.04796
# Poissons Ratio (z) = 0.27545 0.02638
#
# Static dielectric constant tensor:
#      x y z
#    x 1.746800 0.000000 0.000000 
#    y 0.000000 1.879490 0.000000 
#    z 0.000000 0.000000 1.779730 
# 
# From -- ./inp_files/14150.got.cif
#   From: 2010.05.17/outbox.cif.g08.bks.cpg/sg24_8_cif.got.tgz:14150.got - 2010.06.04 00:33:39.
