data_PCOD9334719
_publ_section_title
;
Structure prediction by ZEFSAII (Michael W. Deem and Ramdas Pophale) SiO2 
 PCOD9334719
Probable space group: I 21 21 21
;
_chemical_formula_sum "Si O2"
_cell_formula_units_Z 28
_cell_length_a 4.996741
_cell_length_b 19.801354
_cell_length_c 13.716520
_cell_angle_alpha 90.000000
_cell_angle_beta 90.000000
_cell_angle_gamma 90.000000
_cell_volume 1357.143178
_symmetry_space_group_name_H-M "I 21 21 21"
_symmetry_group_IT_number 24
_symmetry_cell_setting 'orthorhombic'
loop_
_space_group_symop_operation_xyz
x,y,z
-x,1/2-y,z
x,-y,1/2-z
1/2-x,y,-z
1/2+x,1/2+y,1/2+z
1/2-x,-y,1/2+z
1/2+x,1/2-y,-z
-x,1/2+y,1/2-z
loop_
_atom_site_type_symbol
_atom_site_label
_atom_site_fract_x
_atom_site_fract_y
_atom_site_fract_z
Si Si1 0.426322 0.904770 0.098752
Si Si2 0.393754 0.078439 0.782125
Si Si3 0.606932 0.941722 0.396942
Si Si4 0.750000 0.204203 0.500000
O O1 0.231992 0.886828 0.187978
O O2 0.574941 0.976684 0.113729
O O3 0.637716 0.845843 0.082012
O O4 0.250000 0.912017 0.000000
O O5 0.386090 0.000000 0.750000
O O6 0.693507 0.089689 0.816960
O O7 0.188591 0.085234 0.872910
O O8 0.750000 0.929897 0.500000
O O9 0.500000 0.250000 0.530681
#
# Coordination Sequence:
#
# PCOD9334719 Si02
#       4
#     8   8   8   4
#     4  11  23  37  59  78 122 161 200 249 299 345
#     4  10  21  31  51  80 108 151 196 222 281 366
#     4  11  20  33  52  80 114 153 189 227 283 359
#     4  12  26  40  58  82 114 168 222 254 288 340
#
# _framework density 20.631575000000002
#
# number of rings (size 3 to 8) (size 9 to 14) (size 15 to 20)
#    0.000    1.143    2.857    6.857    4.000    0.000 
#    0.000    0.000    0.000    0.000    0.000    0.000 
#    0.000    6.857    1.714    0.857    1.143    0.000 
#
# Total GULP energy -78201.406311 kJ/mol
# GULP energy per Si atom -5585.814736 kJ/mol
# Density = 2.058462 g / cm^3
# Si number density = 20.631575 Si / 1000 Ang^3
#
#
#
# Elastic Constant Matrix: (Units=GPa)
#
#
# Indices 1 2 3 4 5 6 
#
# 1 133.1200 27.4477 26.5304 0.0000 0.0000 0.0000
# 2 27.4477 45.8049 7.9051 0.0000 0.0000 0.0000
# 3 26.5304 7.9051 87.6098 0.0000 0.0000 0.0000
# 4 0.0000 0.0000 0.0000 6.0797 0.0000 0.0000
# 5 0.0000 0.0000 0.0000 0.0000 45.3739 0.0000
# 6 0.0000 0.0000 0.0000 0.0000 0.0000 26.6967
#
#
#
# Elastic Compliance Matrix: (Units=1/GPa)
#
#
# Indices 1 2 3 4 5 6 
#
# 1 0.008996 -0.004998 -0.002273 0.000000 0.000000 0.000000
# 2 -0.004998 0.024954 -0.000738 0.000000 0.000000 0.000000
# 3 -0.002273 -0.000738 0.012169 0.000000 0.000000 0.000000
# 4 0.000000 0.000000 0.000000 0.164483 0.000000 0.000000
# 5 0.000000 0.000000 0.000000 0.000000 0.022039 0.000000
# 6 0.000000 0.000000 0.000000 0.000000 0.000000 0.037458
#
#
# Mechanical properties :
#
#
# Convention : Reuss Voigt Hill
#
# Bulk Modulus (GPa) = 33.22224 43.36678 38.29451
# Shear Modulus (GPa) = 16.88331 29.27349 23.07840
#
# Velocity S-wave (km/s) = 2.86374 3.77087 3.34817
# Velocity P-wave (km/s) = 5.20310 6.32650 5.79210
#
# Compressibility (1/GPa) = 0.03010032
#
# Stress axis : x y z
#
# Youngs Moduli (GPa) = 111.16559 40.07348 82.17475
#
# Poissons Ratio (x) = 0.20029 0.18679
# Poissons Ratio (y) = 0.55562 0.06065
# Poissons Ratio (z) = 0.25269 0.02958
#
# Static dielectric constant tensor:
#      x y z
#    x 1.778880 0.000000 0.000000 
#    y 0.000000 1.709400 0.000000 
#    z 0.000000 0.000000 1.823680 
# 
# From -- ./inp_files/23561.got.cif
#   From: 2010.05.17/outbox.cif.g08.bks.cpg/sg24_12_cif.got.tgz:23561.got - 2010.06.04 00:33:39.
