data_PCOD9334780
_publ_section_title
;
Structure prediction by ZEFSAII (Michael W. Deem and Ramdas Pophale) SiO2 
 PCOD9334780
Probable space group: I 21 21 21
;
_chemical_formula_sum "Si O2"
_cell_formula_units_Z 64
_cell_length_a 9.782694
_cell_length_b 16.436396
_cell_length_c 20.052784
_cell_angle_alpha 90.000000
_cell_angle_beta 90.000000
_cell_angle_gamma 90.000000
_cell_volume 3224.331908
_symmetry_space_group_name_H-M "I 21 21 21"
_symmetry_group_IT_number 24
_symmetry_cell_setting 'orthorhombic'
loop_
_space_group_symop_operation_xyz
x,y,z
-x,1/2-y,z
x,-y,1/2-z
1/2-x,y,-z
1/2+x,1/2+y,1/2+z
1/2-x,-y,1/2+z
1/2+x,1/2-y,-z
-x,1/2+y,1/2-z
loop_
_atom_site_type_symbol
_atom_site_label
_atom_site_fract_x
_atom_site_fract_y
_atom_site_fract_z
Si Si1 0.512147 0.152958 0.732243
Si Si2 0.689701 0.192339 0.930144
Si Si3 0.751708 0.576921 0.799919
Si Si4 0.404595 0.143915 0.881357
Si Si5 0.797308 0.073851 0.696571
Si Si6 0.910884 0.056035 0.893295
Si Si7 0.524466 0.340242 0.226343
Si Si8 0.311172 0.991844 0.431517
O O1 0.500000 0.250000 0.727913
O O2 0.400580 0.106465 0.688273
O O3 0.472661 0.128651 0.808892
O O4 0.657513 0.121228 0.707927
O O5 0.535533 0.156560 0.930099
O O6 0.675057 0.269458 0.881083
O O7 0.795847 0.122203 0.910333
O O8 0.750000 0.224339 0.000000
O O9 0.755960 0.500000 0.750000
O O10 0.819790 0.553711 0.869607
O O11 0.828989 0.646891 0.758981
O O12 0.296367 0.077152 0.905714
O O13 0.916950 0.135437 0.716623
O O14 0.794707 0.000000 0.750000
O O15 0.834620 0.026552 0.628875
O O16 0.994708 0.094908 0.831269
O O17 0.034818 0.040185 0.943840
O O18 0.500000 0.250000 0.201154
O O19 0.250000 0.025166 0.500000
#
# Coordination Sequence:
#
# PCOD9334780 Si02
#       8
#     8   8   8   8   8   8   8   8
#     4  12  23  38  63  95 127 159 211 270 331 384
#     4  11  24  39  57  87 134 181 214 251 309 398
#     4  12  22  40  63  93 125 163 211 269 321 387
#     4  11  23  40  59  91 133 173 217 258 320 385
#     4  10  21  36  57  88 125 161 201 264 317 370
#     4  11  23  39  61  91 128 170 215 260 325 383
#     4  11  21  36  61  90 127 158 203 262 323 377
#     4  12  25  42  64  93 130 172 219 268 321 392
#
# _framework density 19.849073000000001
#
# number of rings (size 3 to 8) (size 9 to 14) (size 15 to 20)
#    0.000    0.750    5.000    4.125    5.250    1.000 
#    0.000    0.000    0.000    0.750    0.000    0.000 
#    0.000    0.000    0.000    0.000    0.000    0.000 
#
# Total GULP energy -178705.264576 kJ/mol
# GULP energy per Si atom -5584.539518 kJ/mol
# Density = 1.980390 g / cm^3
# Si number density = 19.849073 Si / 1000 Ang^3
#
#
#
# Elastic Constant Matrix: (Units=GPa)
#
#
# Indices 1 2 3 4 5 6 
#
# 1 98.0990 11.9768 18.5518 0.0000 0.0000 0.0000
# 2 11.9768 39.4396 16.7266 0.0000 0.0000 0.0000
# 3 18.5518 16.7266 53.1519 0.0000 0.0000 0.0000
# 4 0.0000 0.0000 0.0000 14.7252 0.0000 0.0000
# 5 0.0000 0.0000 0.0000 0.0000 26.0968 0.0000
# 6 0.0000 0.0000 0.0000 0.0000 0.0000 28.5746
#
#
#
# Elastic Compliance Matrix: (Units=1/GPa)
#
#
# Indices 1 2 3 4 5 6 
#
# 1 0.011047 -0.001984 -0.003231 0.000000 0.000000 0.000000
# 2 -0.001984 0.029617 -0.008628 0.000000 0.000000 0.000000
# 3 -0.003231 -0.008628 0.022657 0.000000 0.000000 0.000000
# 4 0.000000 0.000000 0.000000 0.067911 0.000000 0.000000
# 5 0.000000 0.000000 0.000000 0.000000 0.038319 0.000000
# 6 0.000000 0.000000 0.000000 0.000000 0.000000 0.034996
#
#
# Mechanical properties :
#
#
# Convention : Reuss Voigt Hill
#
# Bulk Modulus (GPa) = 28.06287 31.68898 29.87593
# Shear Modulus (GPa) = 20.48244 23.44167 21.96206
#
# Velocity S-wave (km/s) = 3.21582 3.44029 3.32995
# Velocity P-wave (km/s) = 5.28748 5.63741 5.46525
#
# Compressibility (1/GPa) = 0.03563427
#
# Stress axis : x y z
#
# Youngs Moduli (GPa) = 90.52113 33.76454 44.13653
#
# Poissons Ratio (x) = 0.06700 0.14262
# Poissons Ratio (y) = 0.17962 0.38080
# Poissons Ratio (z) = 0.29251 0.29131
#
# Static dielectric constant tensor:
#      x y z
#    x 1.738240 0.000000 0.000000 
#    y 0.000000 1.696810 0.000000 
#    z 0.000000 0.000000 1.721400 
# 
# From -- ./inp_files/15427.got.cif
#   From: 2010.05.17/outbox.cif.g08.bks.cpg/sg24_8_cif.got.tgz:15427.got - 2010.06.04 00:33:39.
