data_PCOD9334844
_publ_section_title
;
Structure prediction by ZEFSAII (Michael W. Deem and Ramdas Pophale) SiO2 
 PCOD9334844
Probable space group: I 21 21 21
;
_chemical_formula_sum "Si O2"
_cell_formula_units_Z 40
_cell_length_a 8.140865
_cell_length_b 7.688298
_cell_length_c 27.494711
_cell_angle_alpha 90.000000
_cell_angle_beta 90.000000
_cell_angle_gamma 90.000000
_cell_volume 1720.877357
_symmetry_space_group_name_H-M "I 21 21 21"
_symmetry_group_IT_number 24
_symmetry_cell_setting 'orthorhombic'
loop_
_space_group_symop_operation_xyz
x,y,z
-x,1/2-y,z
x,-y,1/2-z
1/2-x,y,-z
1/2+x,1/2+y,1/2+z
1/2-x,-y,1/2+z
1/2+x,1/2-y,-z
-x,1/2+y,1/2-z
loop_
_atom_site_type_symbol
_atom_site_label
_atom_site_fract_x
_atom_site_fract_y
_atom_site_fract_z
Si Si1 0.522568 0.552842 0.096712
Si Si2 0.038013 0.451305 0.194529
Si Si3 0.567505 0.944969 0.304222
Si Si4 0.300612 0.442488 0.555376
Si Si5 0.625852 0.555120 0.904222
O O1 0.500000 0.750000 0.076694
O O2 0.519222 0.558433 0.154834
O O3 0.353709 0.464049 0.080410
O O4 0.697337 0.471431 0.084599
O O5 0.991154 0.500000 0.250000
O O6 0.235536 0.470462 0.190061
O O7 0.000000 0.250000 0.187644
O O8 0.935930 0.544830 0.151668
O O9 0.500000 0.750000 0.311921
O O10 0.523030 0.000000 0.250000
O O11 0.250000 0.416819 0.500000
O O12 0.479100 0.524426 0.563760
O O13 0.334576 0.255533 0.581318
#
# Coordination Sequence:
#
# PCOD9334844 Si02
#       5
#     8   8   8   8   8
#     4  10  21  37  61  93 126 169 213 269 333 387
#     4  11  25  41  66  96 139 183 224 275 342 407
#     4  11  23  40  61  92 130 174 223 272 331 405
#     4  10  22  38  64  97 132 168 226 280 328 391
#     4  10  22  37  63  95 136 167 220 275 336 390
#
# _framework density 23.243956000000001
#
# number of rings (size 3 to 8) (size 9 to 14) (size 15 to 20)
#    0.000    1.600    2.000    1.800   11.200    4.800 
#    0.000    0.000    0.000    2.400    0.000    0.000 
#    0.000    0.000    0.000    0.000    0.000    0.000 
#
# Total GULP energy -111603.077704 kJ/mol
# GULP energy per Si atom -5580.153885 kJ/mol
# Density = 2.319105 g / cm^3
# Si number density = 23.243956 Si / 1000 Ang^3
#
#
#
# Elastic Constant Matrix: (Units=GPa)
#
#
# Indices 1 2 3 4 5 6 
#
# 1 232.5656 11.4004 62.2040 0.0000 0.0000 0.0000
# 2 11.4004 55.3424 16.2807 0.0000 0.0000 0.0000
# 3 62.2040 16.2807 145.1787 0.0000 0.0000 0.0000
# 4 0.0000 0.0000 0.0000 13.2448 0.0000 0.0000
# 5 0.0000 0.0000 0.0000 0.0000 42.5742 0.0000
# 6 0.0000 0.0000 0.0000 0.0000 0.0000 12.0124
#
#
#
# Elastic Compliance Matrix: (Units=1/GPa)
#
#
# Indices 1 2 3 4 5 6 
#
# 1 0.004865 -0.000402 -0.002039 0.000000 0.000000 0.000000
# 2 -0.000402 0.018719 -0.001927 0.000000 0.000000 0.000000
# 3 -0.002039 -0.001927 0.007978 0.000000 0.000000 0.000000
# 4 0.000000 0.000000 0.000000 0.075502 0.000000 0.000000
# 5 0.000000 0.000000 0.000000 0.000000 0.023488 0.000000
# 6 0.000000 0.000000 0.000000 0.000000 0.000000 0.083247
#
#
# Mechanical properties :
#
#
# Convention : Reuss Voigt Hill
#
# Bulk Modulus (GPa) = 43.81151 68.09522 55.95336
# Shear Modulus (GPa) = 21.72549 36.44638 29.08594
#
# Velocity S-wave (km/s) = 3.06056 3.96409 3.54126
# Velocity P-wave (km/s) = 5.60168 7.09306 6.39102
#
# Compressibility (1/GPa) = 0.02282505
#
# Stress axis : x y z
#
# Youngs Moduli (GPa) = 205.54754 53.42160 125.34534
#
# Poissons Ratio (x) = 0.02149 0.25563
# Poissons Ratio (y) = 0.08268 0.24152
# Poissons Ratio (z) = 0.41919 0.10294
#
# Static dielectric constant tensor:
#      x y z
#    x 2.065760 0.000000 0.000000 
#    y 0.000000 1.810110 0.000000 
#    z 0.000000 0.000000 1.864510 
# 
# From -- ./inp_files/9261.got.cif
#   From: 2010.05.17/outbox.cif.g08.bks.cpg/sg24_5_cif.got.tgz:9261.got - 2010.06.04 00:33:39.
