data_PCOD9334450
_publ_section_title
;
Structure prediction by ZEFSAII (Michael W. Deem and Ramdas Pophale) SiO2 
 PCOD9334450
Probable space group: I 21 21 21
;
_chemical_formula_sum "Si O2"
_cell_formula_units_Z 52
_cell_length_a 8.394271
_cell_length_b 18.432384
_cell_length_c 17.785244
_cell_angle_alpha 90.000000
_cell_angle_beta 90.000000
_cell_angle_gamma 90.000000
_cell_volume 2751.847248
_symmetry_space_group_name_H-M "I 21 21 21"
_symmetry_group_IT_number 24
_symmetry_cell_setting 'orthorhombic'
loop_
_space_group_symop_operation_xyz
x,y,z
-x,1/2-y,z
x,-y,1/2-z
1/2-x,y,-z
1/2+x,1/2+y,1/2+z
1/2-x,-y,1/2+z
1/2+x,1/2-y,-z
-x,1/2+y,1/2-z
loop_
_atom_site_type_symbol
_atom_site_label
_atom_site_fract_x
_atom_site_fract_y
_atom_site_fract_z
Si Si1 0.376742 0.312738 0.433850
Si Si2 0.793556 0.944222 0.686717
Si Si3 0.500000 0.750000 0.685136
Si Si4 0.935518 0.452273 0.628086
Si Si5 0.025236 0.908217 0.378397
Si Si6 0.788481 0.500000 0.250000
Si Si7 0.826984 0.787911 0.765305
Si Si8 0.250000 0.967875 0.500000
O O1 0.500000 0.250000 0.458875
O O2 0.250000 0.327550 0.500000
O O3 0.473125 0.382876 0.403943
O O4 0.299960 0.287029 0.355149
O O5 0.656883 0.934289 0.625143
O O6 0.833151 0.868990 0.729184
O O7 0.732165 0.000000 0.750000
O O8 0.943669 0.983905 0.651008
O O9 0.482869 0.823400 0.638447
O O10 0.666173 0.754531 0.730711
O O11 0.822593 0.445205 0.701238
O O12 0.829112 0.481622 0.561483
O O13 0.118073 0.922668 0.455075
O O14 0.112903 0.952202 0.310218
O O15 0.000000 0.750000 0.751457
#
# Coordination Sequence:
#
# PCOD9334450 Si02
#       8
#     8   8   4   8   8   4   8   4
#     4  11  26  41  58  88 131 172 208 256 316 387
#     4  11  20  39  67  97 119 161 217 269 308 363
#     4  10  24  40  70  94 126 162 218 264 324 380
#     4  11  23  41  66  91 125 167 212 257 321 374
#     4  10  23  42  63  98 126 163 209 264 319 385
#     4  10  20  38  70  92 126 160 212 272 304 382
#     4  10  23  41  65  96 125 166 213 267 321 376
#     4  10  26  40  64  92 132 166 204 256 328 388
#
# _framework density 18.896398000000001
#
# number of rings (size 3 to 8) (size 9 to 14) (size 15 to 20)
#    0.000    1.538    3.077    0.000   12.923    0.000 
#    2.769    3.077    0.000    0.000    0.000    0.000 
#    0.000    0.000    0.000    0.000    0.000    0.000 
#
# Total GULP energy -145007.350469 kJ/mol
# GULP energy per Si atom -5577.205787 kJ/mol
# Density = 1.885339 g / cm^3
# Si number density = 18.896398 Si / 1000 Ang^3
#
#
#
# Elastic Constant Matrix: (Units=GPa)
#
#
# Indices 1 2 3 4 5 6 
#
# 1 66.0467 7.3292 21.9122 0.0000 0.0000 0.0000
# 2 7.3292 52.5605 2.2625 0.0000 0.0000 0.0000
# 3 21.9122 2.2625 69.0035 0.0000 0.0000 0.0000
# 4 0.0000 0.0000 0.0000 15.2796 0.0000 0.0000
# 5 0.0000 0.0000 0.0000 0.0000 32.9319 0.0000
# 6 0.0000 0.0000 0.0000 0.0000 0.0000 28.6615
#
#
#
# Elastic Compliance Matrix: (Units=1/GPa)
#
#
# Indices 1 2 3 4 5 6 
#
# 1 0.017166 -0.002162 -0.005380 0.000000 0.000000 0.000000
# 2 -0.002162 0.019325 0.000053 0.000000 0.000000 0.000000
# 3 -0.005380 0.000053 0.016199 0.000000 0.000000 0.000000
# 4 0.000000 0.000000 0.000000 0.065447 0.000000 0.000000
# 5 0.000000 0.000000 0.000000 0.000000 0.030366 0.000000
# 6 0.000000 0.000000 0.000000 0.000000 0.000000 0.034890
#
#
# Mechanical properties :
#
#
# Convention : Reuss Voigt Hill
#
# Bulk Modulus (GPa) = 26.51755 27.84651 27.18203
# Shear Modulus (GPa) = 23.70336 25.78172 24.74254
#
# Velocity S-wave (km/s) = 3.54557 3.69775 3.62246
# Velocity P-wave (km/s) = 5.55203 5.74452 5.64910
#
# Compressibility (1/GPa) = 0.03771087
#
# Stress axis : x y z
#
# Youngs Moduli (GPa) = 58.25575 51.74670 61.73320
#
# Poissons Ratio (x) = 0.11188 0.33213
# Poissons Ratio (y) = 0.12595 -0.00327
# Poissons Ratio (z) = 0.31342 -0.00274
#
# Static dielectric constant tensor:
#      x y z
#    x 1.666680 0.000000 0.000000 
#    y 0.000000 1.657650 0.000000 
#    z 0.000000 0.000000 1.663420 
# 
# From -- ./inp_files/29677.got.cif
#   From: 2010.05.17/outbox.cif.g08.bks.cpg/sg24_15_cif.got.tgz:29677.got - 2010.06.04 00:33:39.
