data_PCOD9334258
_publ_section_title
;
Structure prediction by ZEFSAII (Michael W. Deem and Ramdas Pophale) SiO2 
 PCOD9334258
Probable space group: I 21 21 21
;
_chemical_formula_sum "Si O2"
_cell_formula_units_Z 48
_cell_length_a 9.465915
_cell_length_b 23.656320
_cell_length_c 11.982589
_cell_angle_alpha 90.000000
_cell_angle_beta 90.000000
_cell_angle_gamma 90.000000
_cell_volume 2683.245749
_symmetry_space_group_name_H-M "I 21 21 21"
_symmetry_group_IT_number 24
_symmetry_cell_setting 'orthorhombic'
loop_
_space_group_symop_operation_xyz
x,y,z
-x,1/2-y,z
x,-y,1/2-z
1/2-x,y,-z
1/2+x,1/2+y,1/2+z
1/2-x,-y,1/2+z
1/2+x,1/2-y,-z
-x,1/2+y,1/2-z
loop_
_atom_site_type_symbol
_atom_site_label
_atom_site_fract_x
_atom_site_fract_y
_atom_site_fract_z
Si Si1 0.378991 0.067501 0.421755
Si Si2 0.445340 0.500000 0.250000
Si Si3 0.500000 0.750000 0.406965
Si Si4 0.220093 0.615575 0.729596
Si Si5 0.500000 0.750000 0.017715
Si Si6 0.250000 0.678192 0.500000
Si Si7 0.393290 0.634768 0.933338
Si Si8 0.572862 0.326938 0.291813
O O1 0.250000 0.050043 0.500000
O O2 0.486239 0.099034 0.506017
O O3 0.346116 0.115799 0.326801
O O4 0.457083 0.018014 0.354508
O O5 0.348051 0.553740 0.276775
O O6 0.388273 0.716242 0.480577
O O7 0.586317 0.707352 0.323536
O O8 0.257092 0.640168 0.609949
O O9 0.355995 0.617994 0.808250
O O10 0.093247 0.653798 0.784428
O O11 0.598192 0.716011 0.105849
O O12 0.428598 0.701069 0.946015
O O13 0.250000 0.622713 0.000000
#
# Coordination Sequence:
#
# PCOD9334258 Si02
#       8
#     8   4   4   8   4   4   8   8
#     4  10  21  38  60  91 121 150 198 257 315 371
#     4  10  20  40  68  78 120 168 186 256 330 350
#     4   9  18  37  56  78 118 167 197 230 288 366
#     4  10  20  37  60  87 115 157 212 247 288 359
#     4   9  16  25  52  86 118 147 173 236 302 336
#     4  10  22  38  58  84 122 160 208 236 288 366
#     4  11  19  36  58  90 122 149 202 247 292 372
#     4   8  16  34  54  77 116 160 186 226 304 364
#
# _framework density 17.888783
#
# number of rings (size 3 to 8) (size 9 to 14) (size 15 to 20)
#    0.000    2.333    5.000    0.000    0.000    4.667 
#    3.000    2.500   12.833    0.000    0.000    0.000 
#    0.000    0.000    0.000    0.000    0.000    0.000 
#
# Total GULP energy -133664.431499 kJ/mol
# GULP energy per Si atom -5569.351312 kJ/mol
# Density = 1.784807 g / cm^3
# Si number density = 17.888783 Si / 1000 Ang^3
#
#
#
# Elastic Constant Matrix: (Units=GPa)
#
#
# Indices 1 2 3 4 5 6 
#
# 1 63.6137 47.6929 58.9470 0.0000 0.0000 0.0000
# 2 47.6929 113.8364 63.0121 0.0000 0.0000 0.0000
# 3 58.9470 63.0121 132.4922 0.0000 0.0000 0.0000
# 4 0.0000 0.0000 0.0000 15.5717 0.0000 0.0000
# 5 0.0000 0.0000 0.0000 0.0000 39.4072 0.0000
# 6 0.0000 0.0000 0.0000 0.0000 0.0000 25.6431
#
#
#
# Elastic Compliance Matrix: (Units=1/GPa)
#
#
# Indices 1 2 3 4 5 6 
#
# 1 0.030506 -0.007151 -0.010172 0.000000 0.000000 0.000000
# 2 -0.007151 0.013599 -0.003286 0.000000 0.000000 0.000000
# 3 -0.010172 -0.003286 0.013636 0.000000 0.000000 0.000000
# 4 0.000000 0.000000 0.000000 0.064219 0.000000 0.000000
# 5 0.000000 0.000000 0.000000 0.000000 0.025376 0.000000
# 6 0.000000 0.000000 0.000000 0.000000 0.000000 0.038997
#
#
# Mechanical properties :
#
#
# Convention : Reuss Voigt Hill
#
# Bulk Modulus (GPa) = 60.51652 72.13846 66.32749
# Shear Modulus (GPa) = 21.45372 25.47711 23.46542
#
# Velocity S-wave (km/s) = 3.46682 3.77794 3.62572
# Velocity P-wave (km/s) = 7.06597 7.71000 7.39500
#
# Compressibility (1/GPa) = 0.01652441
#
# Stress axis : x y z
#
# Youngs Moduli (GPa) = 32.77996 73.53229 73.33439
#
# Poissons Ratio (x) = 0.52579 0.74595
# Poissons Ratio (y) = 0.23439 0.24101
# Poissons Ratio (z) = 0.33343 0.24166
#
# Static dielectric constant tensor:
#      x y z
#    x 1.628530 0.000000 0.000000 
#    y 0.000000 1.637890 0.000000 
#    z 0.000000 0.000000 1.648330 
# 
# From -- ./inp_files/18656.got.cif
#   From: 2010.05.17/outbox.cif.g08.bks.cpg/sg24_10_cif.got.tgz:18656.got - 2010.06.04 00:33:39.
