data_PCOD9334553
_publ_section_title
;
Structure prediction by ZEFSAII (Michael W. Deem and Ramdas Pophale) SiO2 
 PCOD9334553
Probable space group: I 21 21 21
;
_chemical_formula_sum "Si O2"
_cell_formula_units_Z 60
_cell_length_a 16.184488
_cell_length_b 12.016231
_cell_length_c 14.793144
_cell_angle_alpha 90.000000
_cell_angle_beta 90.000000
_cell_angle_gamma 90.000000
_cell_volume 2876.919556
_symmetry_space_group_name_H-M "I 21 21 21"
_symmetry_group_IT_number 24
_symmetry_cell_setting 'orthorhombic'
loop_
_space_group_symop_operation_xyz
x,y,z
-x,1/2-y,z
x,-y,1/2-z
1/2-x,y,-z
1/2+x,1/2+y,1/2+z
1/2-x,-y,1/2+z
1/2+x,1/2-y,-z
-x,1/2+y,1/2-z
loop_
_atom_site_type_symbol
_atom_site_label
_atom_site_fract_x
_atom_site_fract_y
_atom_site_fract_z
Si Si1 0.912034 0.309303 0.606876
Si Si2 0.293435 0.877729 0.618256
Si Si3 0.750000 0.823520 0.500000
Si Si4 0.870496 0.392148 0.791314
Si Si5 0.097465 0.264235 0.235240
Si Si6 0.593086 0.197502 0.568855
Si Si7 0.091644 0.432450 0.072243
Si Si8 0.923809 0.439815 0.971882
O O1 0.865934 0.314110 0.703807
O O2 0.869374 0.240683 0.525331
O O3 0.927581 0.433074 0.564743
O O4 0.000000 0.250000 0.625244
O O5 0.254047 0.760946 0.584188
O O6 0.217484 0.934098 0.668508
O O7 0.363635 0.842480 0.687734
O O8 0.341704 0.931033 0.534138
O O9 0.666645 0.893671 0.507969
O O10 0.915467 0.500000 0.750000
O O11 0.917170 0.361582 0.883394
O O12 0.133403 0.268757 0.336158
O O13 0.106601 0.370511 0.168204
O O14 0.000000 0.250000 0.244081
O O15 0.500000 0.250000 0.566840
O O16 0.589743 0.065065 0.575935
O O17 0.002377 0.403298 0.030520
#
# Coordination Sequence:
#
# PCOD9334553 Si02
#       8
#     8   8   4   8   8   8   8   8
#     4  10  21  41  63  96 130 173 221 273 330 405
#     4  11  21  42  61  95 130 167 219 274 332 391
#     4  10  24  38  64  90 132 162 208 268 332 394
#     4  10  23  39  61  95 133 167 217 275 328 401
#     4  10  21  35  61  96 120 163 217 267 326 386
#     4  10  20  40  63  89 127 163 218 270 317 398
#     4  11  21  40  64  94 127 170 215 270 335 392
#     4  11  20  39  70  91 130 172 220 275 333 394
#
# _framework density 20.855639
#
# number of rings (size 3 to 8) (size 9 to 14) (size 15 to 20)
#    0.000    1.600    5.333    0.400    0.000    2.133 
#    2.400    1.333    0.000    0.000    0.000    0.000 
#    0.000    0.000    0.000    0.000    0.000    0.000 
#
# Total GULP energy -167061.713550 kJ/mol
# GULP energy per Si atom -5568.723785 kJ/mol
# Density = 2.080817 g / cm^3
# Si number density = 20.855639 Si / 1000 Ang^3
#
#
#
# Elastic Constant Matrix: (Units=GPa)
#
#
# Indices 1 2 3 4 5 6 
#
# 1 66.3540 4.4183 25.6626 0.0000 0.0000 0.0000
# 2 4.4183 55.6651 17.4513 0.0000 0.0000 0.0000
# 3 25.6626 17.4513 174.8837 0.0000 0.0000 0.0000
# 4 0.0000 0.0000 0.0000 94.2238 0.0000 0.0000
# 5 0.0000 0.0000 0.0000 0.0000 18.4315 0.0000
# 6 0.0000 0.0000 0.0000 0.0000 0.0000 20.8658
#
#
#
# Elastic Compliance Matrix: (Units=1/GPa)
#
#
# Indices 1 2 3 4 5 6 
#
# 1 0.015994 -0.000551 -0.002292 0.000000 0.000000 0.000000
# 2 -0.000551 0.018564 -0.001772 0.000000 0.000000 0.000000
# 3 -0.002292 -0.001772 0.006231 0.000000 0.000000 0.000000
# 4 0.000000 0.000000 0.000000 0.010613 0.000000 0.000000
# 5 0.000000 0.000000 0.000000 0.000000 0.054255 0.000000
# 6 0.000000 0.000000 0.000000 0.000000 0.000000 0.047925
#
#
# Mechanical properties :
#
#
# Convention : Reuss Voigt Hill
#
# Bulk Modulus (GPa) = 31.68599 43.55193 37.61896
# Shear Modulus (GPa) = 28.84657 43.32892 36.08774
#
# Velocity S-wave (km/s) = 3.72311 4.56297 4.16427
# Velocity P-wave (km/s) = 5.80587 6.97774 6.41860
#
# Compressibility (1/GPa) = 0.03155969
#
# Stress axis : x y z
#
# Youngs Moduli (GPa) = 62.52423 53.86858 160.48283
#
# Poissons Ratio (x) = 0.02968 0.36782
# Poissons Ratio (y) = 0.03445 0.28431
# Poissons Ratio (z) = 0.14330 0.09543
#
# Static dielectric constant tensor:
#      x y z
#    x 1.719290 0.000000 0.000000 
#    y 0.000000 1.773580 0.000000 
#    z 0.000000 0.000000 1.837380 
# 
# From -- ./inp_files/27174.got.cif
#   From: 2010.05.17/outbox.cif.g08.bks.cpg/sg24_14_cif.got.tgz:27174.got - 2010.06.04 00:33:39.
