data_PCOD9334882
_publ_section_title
;
Structure prediction by ZEFSAII (Michael W. Deem and Ramdas Pophale) SiO2 
 PCOD9334882
Probable space group: I 21 21 21
;
_chemical_formula_sum "Si O2"
_cell_formula_units_Z 44
_cell_length_a 24.415414
_cell_length_b 4.913504
_cell_length_c 17.537353
_cell_angle_alpha 90.000000
_cell_angle_beta 90.000000
_cell_angle_gamma 90.000000
_cell_volume 2103.872663
_symmetry_space_group_name_H-M "I 21 21 21"
_symmetry_group_IT_number 24
_symmetry_cell_setting 'orthorhombic'
loop_
_space_group_symop_operation_xyz
x,y,z
-x,1/2-y,z
x,-y,1/2-z
1/2-x,y,-z
1/2+x,1/2+y,1/2+z
1/2-x,-y,1/2+z
1/2+x,1/2-y,-z
-x,1/2+y,1/2-z
loop_
_atom_site_type_symbol
_atom_site_label
_atom_site_fract_x
_atom_site_fract_y
_atom_site_fract_z
Si Si1 0.712188 0.458820 0.376369
Si Si2 0.448838 0.599064 0.330697
Si Si3 0.865130 0.500000 0.750000
Si Si4 0.561208 0.143758 0.480145
Si Si5 0.868728 0.623251 0.484016
Si Si6 0.774516 0.058686 0.085733
O O1 0.674739 0.349072 0.308976
O O2 0.673052 0.524564 0.448837
O O3 0.738819 0.750314 0.359406
O O4 0.761710 0.251528 0.393563
O O5 0.500000 0.750000 0.369757
O O6 0.471508 0.500000 0.250000
O O7 0.432259 0.355293 0.387265
O O8 0.400641 0.797210 0.302632
O O9 0.500000 0.250000 0.495544
O O10 0.599966 0.341617 0.529178
O O11 0.583677 0.837698 0.493057
O O12 0.832862 0.793536 0.423493
O O13 0.750000 0.076255 0.000000
#
# Coordination Sequence:
#
# PCOD9334882 Si02
#       6
#     8   8   4   8   8   8
#     4  11  22  37  55  84 106 148 199 250 300 346
#     4  12  24  38  51  74 115 169 217 255 292 338
#     4  12  26  38  56  82 120 162 210 264 300 346
#     4  12  24  37  56  84 113 151 201 251 295 351
#     4  11  21  40  59  80 111 150 195 250 310 354
#     4  10  21  38  59  78 104 138 198 254 297 363
#
# _framework density 20.913813999999999
#
# number of rings (size 3 to 8) (size 9 to 14) (size 15 to 20)
#    0.000    0.727    2.727    8.182    2.545    0.000 
#    0.000    0.000    0.000    0.000    0.000    0.000 
#    0.000    0.000    0.000   45.818    0.000    1.273 
#
# Total GULP energy -122590.485712 kJ/mol
# GULP energy per Si atom -5572.294805 kJ/mol
# Density = 2.086621 g / cm^3
# Si number density = 20.913814 Si / 1000 Ang^3
#
#
#
# Elastic Constant Matrix: (Units=GPa)
#
#
# Indices 1 2 3 4 5 6 
#
# 1 88.4033 32.6776 28.7531 0.0000 0.0000 0.0000
# 2 32.6776 117.8995 12.4988 0.0000 0.0000 0.0000
# 3 28.7531 12.4988 20.3835 0.0000 0.0000 0.0000
# 4 0.0000 0.0000 0.0000 17.1844 0.0000 0.0000
# 5 0.0000 0.0000 0.0000 0.0000 20.5795 0.0000
# 6 0.0000 0.0000 0.0000 0.0000 0.0000 46.8928
#
#
#
# Elastic Compliance Matrix: (Units=1/GPa)
#
#
# Indices 1 2 3 4 5 6 
#
# 1 0.021839 -0.002981 -0.028978 0.000000 0.000000 0.000000
# 2 -0.002981 0.009478 -0.001607 0.000000 0.000000 0.000000
# 3 -0.028978 -0.001607 0.090921 0.000000 0.000000 0.000000
# 4 0.000000 0.000000 0.000000 0.058192 0.000000 0.000000
# 5 0.000000 0.000000 0.000000 0.000000 0.048592 0.000000
# 6 0.000000 0.000000 0.000000 0.000000 0.000000 0.021325
#
#
# Mechanical properties :
#
#
# Convention : Reuss Voigt Hill
#
# Bulk Modulus (GPa) = 18.14677 41.61614 29.88146
# Shear Modulus (GPa) = 14.88769 27.11512 21.00140
#
# Velocity S-wave (km/s) = 2.67096 3.60462 3.17233
# Velocity P-wave (km/s) = 4.26706 6.10463 5.26661
#
# Compressibility (1/GPa) = 0.05510621
#
# Stress axis : x y z
#
# Youngs Moduli (GPa) = 45.79035 105.50337 10.99858
#
# Poissons Ratio (x) = 0.31450 0.31871
# Poissons Ratio (y) = 0.13650 0.01768
# Poissons Ratio (z) = 1.32690 0.16955
#
# Static dielectric constant tensor:
#      x y z
#    x 1.878810 0.000000 0.000000 
#    y 0.000000 1.878240 0.000000 
#    z 0.000000 0.000000 1.768230 
# 
# From -- ./inp_files/34050.got.cif
#   From: 2010.05.17/outbox.cif.g08.bks.cpg/sg24_18_cif.got.tgz:34050.got - 2010.06.04 00:33:39.
