data_PCOD9334405
_publ_section_title
;
Structure prediction by ZEFSAII (Michael W. Deem and Ramdas Pophale) SiO2 
 PCOD9334405
Probable space group: I 21 21 21
;
_chemical_formula_sum "Si O2"
_cell_formula_units_Z 32
_cell_length_a 10.440858
_cell_length_b 5.061376
_cell_length_c 29.284977
_cell_angle_alpha 90.000000
_cell_angle_beta 90.000000
_cell_angle_gamma 90.000000
_cell_volume 1547.567775
_symmetry_space_group_name_H-M "I 21 21 21"
_symmetry_group_IT_number 24
_symmetry_cell_setting 'orthorhombic'
loop_
_space_group_symop_operation_xyz
x,y,z
-x,1/2-y,z
x,-y,1/2-z
1/2-x,y,-z
1/2+x,1/2+y,1/2+z
1/2-x,-y,1/2+z
1/2+x,1/2-y,-z
-x,1/2+y,1/2-z
loop_
_atom_site_type_symbol
_atom_site_label
_atom_site_fract_x
_atom_site_fract_y
_atom_site_fract_z
Si Si1 0.882226 0.602387 0.483360
Si Si2 0.233285 0.815854 0.100833
Si Si3 0.591842 0.000000 0.750000
Si Si4 0.500000 0.750000 0.061378
Si Si5 0.648597 0.178635 0.845047
O O1 0.750000 0.745443 0.500000
O O2 0.829205 0.387571 0.447957
O O3 0.000000 0.750000 0.459339
O O4 0.952896 0.478563 0.527124
O O5 0.375882 0.707856 0.091958
O O6 0.160706 0.581578 0.125003
O O7 0.225276 0.080393 0.131678
O O8 0.500000 0.250000 0.736497
O O9 0.676038 0.099770 0.792610
O O10 0.500000 0.250000 0.843728
#
# Coordination Sequence:
#
# PCOD9334405 Si02
#       5
#     8   8   4   4   8
#     4  10  24  40  60  88 125 174 222 271 319 374
#     4  11  25  41  64  90 130 169 221 261 314 390
#     4  10  20  38  64  98 134 160 196 262 340 392
#     4  10  26  42  58  88 126 182 212 268 318 364
#     4  11  23  40  65  98 127 161 204 268 325 393
#
# _framework density 20.677607999999999
#
# number of rings (size 3 to 8) (size 9 to 14) (size 15 to 20)
#    0.000    1.500    0.000    4.500   14.000    1.000 
#    0.000    0.000    0.000    3.000    0.000    1.750 
#    0.000    0.000    0.000    0.000    0.000    0.000 
#
# Total GULP energy -89358.595063 kJ/mol
# GULP energy per Si atom -5584.912191 kJ/mol
# Density = 2.063054 g / cm^3
# Si number density = 20.677608 Si / 1000 Ang^3
#
#
#
# Elastic Constant Matrix: (Units=GPa)
#
#
# Indices 1 2 3 4 5 6 
#
# 1 114.9177 27.9920 37.1495 0.0000 0.0000 0.0000
# 2 27.9920 99.0053 33.3165 0.0000 0.0000 0.0000
# 3 37.1495 33.3165 109.8862 0.0000 0.0000 0.0000
# 4 0.0000 0.0000 0.0000 28.7012 0.0000 0.0000
# 5 0.0000 0.0000 0.0000 0.0000 57.3260 0.0000
# 6 0.0000 0.0000 0.0000 0.0000 0.0000 24.9316
#
#
#
# Elastic Compliance Matrix: (Units=1/GPa)
#
#
# Indices 1 2 3 4 5 6 
#
# 1 0.010080 -0.001897 -0.002833 0.000000 0.000000 0.000000
# 2 -0.001897 0.011605 -0.002877 0.000000 0.000000 0.000000
# 3 -0.002833 -0.002877 0.010930 0.000000 0.000000 0.000000
# 4 0.000000 0.000000 0.000000 0.034842 0.000000 0.000000
# 5 0.000000 0.000000 0.000000 0.000000 0.017444 0.000000
# 6 0.000000 0.000000 0.000000 0.000000 0.000000 0.040110
#
#
# Mechanical properties :
#
#
# Convention : Reuss Voigt Hill
#
# Bulk Modulus (GPa) = 57.46537 57.85836 57.66187
# Shear Modulus (GPa) = 34.24094 37.21518 35.72806
#
# Velocity S-wave (km/s) = 4.07374 4.24699 4.16127
# Velocity P-wave (km/s) = 7.06956 7.21742 7.14387
#
# Compressibility (1/GPa) = 0.01740178
#
# Stress axis : x y z
#
# Youngs Moduli (GPa) = 99.21076 86.17006 91.48859
#
# Poissons Ratio (x) = 0.16343 0.25915
# Poissons Ratio (y) = 0.18816 0.26324
# Poissons Ratio (z) = 0.28102 0.24794
#
# Static dielectric constant tensor:
#      x y z
#    x 1.861430 0.000000 0.000000 
#    y 0.000000 1.798350 0.000000 
#    z 0.000000 0.000000 1.792350 
# 
# From -- ./inp_files/38099.got.cif
#   From: 2010.05.17/outbox.cif.g08.bks.cpg/sg24_20_cif.got.tgz:38099.got - 2010.06.04 00:33:39.
