data_PCOD9334346
_publ_section_title
;
Structure prediction by ZEFSAII (Michael W. Deem and Ramdas Pophale) SiO2 
 PCOD9334346
Probable space group: I 21 21 21
;
_chemical_formula_sum "Si O2"
_cell_formula_units_Z 28
_cell_length_a 5.201215
_cell_length_b 28.859335
_cell_length_c 8.859229
_cell_angle_alpha 90.000000
_cell_angle_beta 90.000000
_cell_angle_gamma 90.000000
_cell_volume 1329.802220
_symmetry_space_group_name_H-M "I 21 21 21"
_symmetry_group_IT_number 24
_symmetry_cell_setting 'orthorhombic'
loop_
_space_group_symop_operation_xyz
x,y,z
-x,1/2-y,z
x,-y,1/2-z
1/2-x,y,-z
1/2+x,1/2+y,1/2+z
1/2-x,-y,1/2+z
1/2+x,1/2-y,-z
-x,1/2+y,1/2-z
loop_
_atom_site_type_symbol
_atom_site_label
_atom_site_fract_x
_atom_site_fract_y
_atom_site_fract_z
Si Si1 0.500000 0.250000 0.900200
Si Si2 0.678095 0.204773 0.324524
Si Si3 0.212387 0.398778 0.681255
Si Si4 0.218144 0.950128 0.183478
O O1 0.577729 0.209794 0.784953
O O2 0.250000 0.240208 0.000000
O O3 0.500000 0.250000 0.297079
O O4 0.750000 0.207328 0.500000
O O5 0.594137 0.152458 0.291850
O O6 0.250000 0.401348 0.500000
O O7 0.497074 0.413615 0.732753
O O8 0.998951 0.434330 0.738041
O O9 0.149914 0.000000 0.250000
O O10 0.250000 0.951763 0.000000
#
# Coordination Sequence:
#
# PCOD9334346 Si02
#       4
#     4   8   8   8
#     4  12  26  42  60  90 136 176 204 262 334 372
#     4  11  23  40  70  97 125 171 232 266 303 381
#     4   9  21  36  61  92 120 151 205 266 308 352
#     4  10  20  38  60  86 120 156 196 255 317 369
#
# _framework density 21.055762999999999
#
# number of rings (size 3 to 8) (size 9 to 14) (size 15 to 20)
#    0.000    1.714    2.857    0.857    4.000    1.143 
#    0.000    4.286    0.000    0.000    0.000    0.000 
#    0.000    0.000    0.000    0.000    0.000    0.000 
#
# Total GULP energy -77942.008313 kJ/mol
# GULP energy per Si atom -5567.286308 kJ/mol
# Density = 2.100784 g / cm^3
# Si number density = 21.055763 Si / 1000 Ang^3
#
#
#
# Elastic Constant Matrix: (Units=GPa)
#
#
# Indices 1 2 3 4 5 6 
#
# 1 124.7659 39.0894 26.2110 0.0000 0.0000 0.0000
# 2 39.0894 115.9964 4.6632 0.0003 0.0000 0.0000
# 3 26.2110 4.6632 64.9768 0.0003 0.0000 0.0000
# 4 0.0000 0.0003 0.0003 -58.1234 -0.0001 0.0001
# 5 0.0000 0.0000 0.0000 -0.0001 -5.7024 0.0000
# 6 0.0000 0.0000 0.0000 0.0001 0.0000 37.1951
#
#
#
# Elastic Compliance Matrix: (Units=1/GPa)
#
#
# Indices 1 2 3 4 5 6 
#
# 1 0.009783 -0.003147 -0.003720 0.000000 0.000000 0.000000
# 2 -0.003147 0.009658 0.000576 0.000000 0.000000 0.000000
# 3 -0.003720 0.000576 0.016849 0.000000 0.000000 0.000000
# 4 0.000000 0.000000 0.000000 -0.017205 0.000000 0.000000
# 5 0.000000 0.000000 0.000000 0.000000 -0.175366 0.000000
# 6 0.000000 0.000000 0.000000 0.000000 0.000000 0.026885
#
#
# Mechanical properties :
#
#
# Convention : Reuss Voigt Hill
#
# Bulk Modulus (GPa) = 42.17938 49.51849 45.84894
# Shear Modulus (GPa) = -45.90938 10.39223 -17.75858
#
# Velocity S-wave (km/s) = -4.67451 2.22403 -2.90730
# Velocity P-wave (km/s) = 3.00982 5.49217 3.24845
#
# Compressibility (1/GPa) = 0.02370827
#
# Stress axis : x y z
#
# Youngs Moduli (GPa) = 102.22278 103.53783 59.34901
#
# Poissons Ratio (x) = 0.32584 0.22080
# Poissons Ratio (y) = 0.32170 -0.03421
# Poissons Ratio (z) = 0.38030 -0.05967
#
# Static dielectric constant tensor:
#      x y z
#    x 2.006950 0.000000 0.000000 
#    y 0.000000 1.828190 0.000000 
#    z 0.000000 0.000000 1.775200 
# 
# From -- ./inp_files/8170.got.cif
#   From: 2010.05.17/outbox.cif.g08.bks.cpg/sg24_5_cif.got.tgz:8170.got - 2010.06.04 00:33:39.
