data_PCOD9334781
_publ_section_title
;
Structure prediction by ZEFSAII (Michael W. Deem and Ramdas Pophale) SiO2 
 PCOD9334781
Probable space group: I 21 21 21
;
_chemical_formula_sum "Si O2"
_cell_formula_units_Z 28
_cell_length_a 15.748262
_cell_length_b 12.716416
_cell_length_c 5.584475
_cell_angle_alpha 90.000000
_cell_angle_beta 90.000000
_cell_angle_gamma 90.000000
_cell_volume 1118.355066
_symmetry_space_group_name_H-M "I 21 21 21"
_symmetry_group_IT_number 24
_symmetry_cell_setting 'orthorhombic'
loop_
_space_group_symop_operation_xyz
x,y,z
-x,1/2-y,z
x,-y,1/2-z
1/2-x,y,-z
1/2+x,1/2+y,1/2+z
1/2-x,-y,1/2+z
1/2+x,1/2-y,-z
-x,1/2+y,1/2-z
loop_
_atom_site_type_symbol
_atom_site_label
_atom_site_fract_x
_atom_site_fract_y
_atom_site_fract_z
Si Si1 0.278471 0.621165 0.249757
Si Si2 0.024657 0.371477 0.654503
Si Si3 0.962189 0.368633 0.154726
Si Si4 0.302420 0.000000 0.750000
O O1 0.244277 0.500000 0.250000
O O2 0.250000 0.670831 0.500000
O O3 0.379256 0.617392 0.239658
O O4 0.250000 0.671831 0.000000
O O5 0.000000 0.250000 0.627130
O O6 0.014424 0.411253 0.384072
O O7 0.970893 0.408915 0.882683
O O8 0.866111 0.398686 0.230130
O O9 0.000000 0.250000 0.132526
O O10 0.250000 0.005890 0.500000
#
# Coordination Sequence:
#
# PCOD9334781 Si02
#       4
#     8   8   8   4
#     4  10  21  36  57  89 122 153 200 261 315 365
#     4  10  21  40  62  93 128 172 222 260 331 413
#     4  10  23  43  66 100 134 179 231 278 344 416
#     4  12  26  46  74 108 140 182 240 300 352 414
#
# _framework density 25.036771000000002
#
# number of rings (size 3 to 8) (size 9 to 14) (size 15 to 20)
#    0.000    1.714    0.000    3.429    4.000    0.000 
#    0.000   34.286    0.000    0.000    0.000    0.000 
#    0.000    0.000    0.000    0.000    0.000    0.000 
#
# Total GULP energy -78098.019920 kJ/mol
# GULP energy per Si atom -5578.429994 kJ/mol
# Density = 2.497979 g / cm^3
# Si number density = 25.036771 Si / 1000 Ang^3
#
#
#
# Elastic Constant Matrix: (Units=GPa)
#
#
# Indices 1 2 3 4 5 6 
#
# 1 138.5731 6.9582 76.4927 0.0000 0.0000 0.0000
# 2 6.9582 118.9919 48.7288 0.0000 0.0000 0.0000
# 3 76.4927 48.7288 307.9816 0.0000 0.0000 0.0000
# 4 0.0000 0.0000 0.0000 31.9181 0.0000 0.0000
# 5 0.0000 0.0000 0.0000 0.0000 95.7462 0.0000
# 6 0.0000 0.0000 0.0000 0.0000 0.0000 37.7383
#
#
#
# Elastic Compliance Matrix: (Units=1/GPa)
#
#
# Indices 1 2 3 4 5 6 
#
# 1 0.008380 0.000387 -0.002143 0.000000 0.000000 0.000000
# 2 0.000387 0.009004 -0.001521 0.000000 0.000000 0.000000
# 3 -0.002143 -0.001521 0.004020 0.000000 0.000000 0.000000
# 4 0.000000 0.000000 0.000000 0.031330 0.000000 0.000000
# 5 0.000000 0.000000 0.000000 0.000000 0.010444 0.000000
# 6 0.000000 0.000000 0.000000 0.000000 0.000000 0.026498
#
#
# Mechanical properties :
#
#
# Convention : Reuss Voigt Hill
#
# Bulk Modulus (GPa) = 67.33342 92.21179 79.77260
# Shear Modulus (GPa) = 49.41756 61.97164 55.69460
#
# Velocity S-wave (km/s) = 4.44757 4.98056 4.72159
# Velocity P-wave (km/s) = 7.30251 8.36571 7.85213
#
# Compressibility (1/GPa) = 0.01485147
#
# Stress axis : x y z
#
# Youngs Moduli (GPa) = 119.33693 111.06069 248.77436
#
# Poissons Ratio (x) = -0.04302 0.53300
# Poissons Ratio (y) = -0.04623 0.37835
# Poissons Ratio (z) = 0.25568 0.16891
#
# Static dielectric constant tensor:
#      x y z
#    x 1.965680 0.000000 0.000000 
#    y 0.000000 1.368060 0.000000 
#    z 0.000000 0.000000 2.011370 
# 
# From -- ./inp_files/3016.got.cif
#   From: 2010.05.17/outbox.cif.g08.bks.cpg/sg24_2_cif.got.tgz:3016.got - 2010.06.04 00:33:39.
