data_PCOD9334319
_publ_section_title
;
Structure prediction by ZEFSAII (Michael W. Deem and Ramdas Pophale) SiO2 
 PCOD9334319
Probable space group: I 21 21 21
;
_chemical_formula_sum "Si O2"
_cell_formula_units_Z 40
_cell_length_a 10.526934
_cell_length_b 17.782292
_cell_length_c 9.202744
_cell_angle_alpha 90.000000
_cell_angle_beta 90.000000
_cell_angle_gamma 90.000000
_cell_volume 1722.689389
_symmetry_space_group_name_H-M "I 21 21 21"
_symmetry_group_IT_number 24
_symmetry_cell_setting 'orthorhombic'
loop_
_space_group_symop_operation_xyz
x,y,z
-x,1/2-y,z
x,-y,1/2-z
1/2-x,y,-z
1/2+x,1/2+y,1/2+z
1/2-x,-y,1/2+z
1/2+x,1/2-y,-z
-x,1/2+y,1/2-z
loop_
_atom_site_type_symbol
_atom_site_label
_atom_site_fract_x
_atom_site_fract_y
_atom_site_fract_z
Si Si1 0.635072 0.179684 0.431407
Si Si2 0.384877 0.158257 0.553883
Si Si3 0.170920 0.078268 0.176076
Si Si4 0.375136 0.700868 0.399687
Si Si5 0.056027 0.066625 0.867495
O O1 0.750000 0.133132 0.500000
O O2 0.501223 0.138027 0.448414
O O3 0.626651 0.251959 0.538128
O O4 0.653235 0.213057 0.271456
O O5 0.250000 0.126194 0.500000
O O6 0.408555 0.130755 0.716719
O O7 0.312731 0.114197 0.165873
O O8 0.200442 0.000000 0.250000
O O9 0.098566 0.050119 0.033017
O O10 0.500000 0.750000 0.444214
O O11 0.250000 0.709885 0.500000
O O12 0.430783 0.616257 0.388494
O O13 0.038284 0.000000 0.750000
#
# Coordination Sequence:
#
# PCOD9334319 Si02
#       5
#     8   8   8   8   8
#     4  10  23  41  65  98 138 192 231 296 379 447
#     4  10  20  37  70  97 140 176 239 297 366 448
#     4  10  23  38  73 111 135 195 248 313 376 449
#     4  12  28  48  73 113 153 203 249 324 395 463
#     4  10  25  47  70 104 157 198 254 312 379 462
#
# _framework density 23.219508000000001
#
# number of rings (size 3 to 8) (size 9 to 14) (size 15 to 20)
#    0.000    1.600    2.000    1.200   16.800    0.000 
#    0.000    2.000    0.000    0.000    0.000    0.000 
#    0.000    0.000    0.000    0.000    0.000    0.000 
#
# Total GULP energy -111401.462063 kJ/mol
# GULP energy per Si atom -5570.073103 kJ/mol
# Density = 2.316666 g / cm^3
# Si number density = 23.219508 Si / 1000 Ang^3
#
#
#
# Elastic Constant Matrix: (Units=GPa)
#
#
# Indices 1 2 3 4 5 6 
#
# 1 176.6974 38.1976 75.5715 0.0000 0.0000 0.0000
# 2 38.1976 60.0526 41.8934 0.0000 0.0000 0.0000
# 3 75.5715 41.8934 136.0636 0.0001 0.0001 0.0000
# 4 0.0000 0.0000 0.0001 35.0327 0.0000 0.0000
# 5 0.0000 0.0000 0.0001 0.0000 38.7391 0.0000
# 6 0.0000 0.0000 0.0000 0.0000 0.0000 20.8521
#
#
#
# Elastic Compliance Matrix: (Units=1/GPa)
#
#
# Indices 1 2 3 4 5 6 
#
# 1 0.007692 -0.002436 -0.003523 0.000000 0.000000 0.000000
# 2 -0.002436 0.021978 -0.005414 0.000000 0.000000 0.000000
# 3 -0.003523 -0.005414 0.010973 0.000000 0.000000 0.000000
# 4 0.000000 0.000000 0.000000 0.028545 0.000000 0.000000
# 5 0.000000 0.000000 0.000000 0.000000 0.025814 0.000000
# 6 0.000000 0.000000 0.000000 0.000000 0.000000 0.047957
#
#
# Mechanical properties :
#
#
# Convention : Reuss Voigt Hill
#
# Bulk Modulus (GPa) = 55.86923 76.01541 65.94232
# Shear Modulus (GPa) = 29.12559 33.40153 31.26356
#
# Velocity S-wave (km/s) = 3.54553 3.79689 3.67336
# Velocity P-wave (km/s) = 6.39333 7.21322 6.81562
#
# Compressibility (1/GPa) = 0.01789894
#
# Stress axis : x y z
#
# Youngs Moduli (GPa) = 129.99726 45.49941 91.13234
#
# Poissons Ratio (x) = 0.11081 0.32102
# Poissons Ratio (y) = 0.31661 0.49342
# Poissons Ratio (z) = 0.45793 0.24635
#
# Static dielectric constant tensor:
#      x y z
#    x 2.070660 0.000000 0.000000 
#    y 0.000000 1.897160 0.000000 
#    z 0.000000 0.000000 1.988660 
# 
# From -- ./inp_files/11022.got.cif
#   From: 2010.05.17/outbox.cif.g08.bks.cpg/sg24_6_cif.got.tgz:11022.got - 2010.06.04 00:33:39.
