data_PCOD9334117
_publ_section_title
;
Structure prediction by ZEFSAII (Michael W. Deem and Ramdas Pophale) SiO2 
 PCOD9334117
Probable space group: I 21 21 21
;
_chemical_formula_sum "Si O2"
_cell_formula_units_Z 32
_cell_length_a 5.307330
_cell_length_b 19.627498
_cell_length_c 15.553391
_cell_angle_alpha 90.000000
_cell_angle_beta 90.000000
_cell_angle_gamma 90.000000
_cell_volume 1620.190658
_symmetry_space_group_name_H-M "I 21 21 21"
_symmetry_group_IT_number 24
_symmetry_cell_setting 'orthorhombic'
loop_
_space_group_symop_operation_xyz
x,y,z
-x,1/2-y,z
x,-y,1/2-z
1/2-x,y,-z
1/2+x,1/2+y,1/2+z
1/2-x,-y,1/2+z
1/2+x,1/2-y,-z
-x,1/2+y,1/2-z
loop_
_atom_site_type_symbol
_atom_site_label
_atom_site_fract_x
_atom_site_fract_y
_atom_site_fract_z
Si Si1 0.750000 0.334398 0.000000
Si Si2 0.749995 0.288937 0.190341
Si Si3 0.250164 0.074017 0.706272
Si Si4 0.249842 0.559980 0.902490
Si Si5 0.250000 0.425804 0.000000
O O1 0.750020 0.291279 0.913134
O O2 0.500255 0.381079 0.999988
O O3 0.500000 0.250000 0.219794
O O4 0.750008 0.365869 0.224342
O O5 0.000000 0.250000 0.219786
O O6 0.500040 0.079369 0.648323
O O7 0.000464 0.079347 0.648229
O O8 0.250124 0.000000 0.750000
O O9 0.250000 0.588120 0.000000
O O10 0.249938 0.477848 0.919131
#
# Coordination Sequence:
#
# PCOD9334117 Si02
#       5
#     4   8   8   8   4
#     4  12  22  41  62  92 134 181 210 246 320 417
#     4  12  26  43  64  93 136 176 213 265 327 395
#     4  12  23  41  68  98 127 169 226 271 326 375
#     4  10  22  38  63  95 134 162 209 281 326 376
#     4  10  20  35  64  98 126 165 210 260 324 373
#
# _framework density 19.75076
#
# number of rings (size 3 to 8) (size 9 to 14) (size 15 to 20)
#    0.750    0.000    0.000    9.750    0.000    0.000 
#    0.000    0.000    0.000   15.000    0.000    0.000 
#    0.000    0.000    0.000    0.000    0.000    0.000 
#
# Total GULP energy -89487.112692 kJ/mol
# GULP energy per Si atom -5592.944543 kJ/mol
# Density = 1.970581 g / cm^3
# Si number density = 19.750760 Si / 1000 Ang^3
#
#
#
# Elastic Constant Matrix: (Units=GPa)
#
#
# Indices 1 2 3 4 5 6 
#
# 1 198.1885 40.9856 49.6425 0.0000 0.0000 0.0000
# 2 40.9856 98.2715 24.3888 0.0000 0.0000 0.0000
# 3 49.6425 24.3888 101.5824 0.0000 0.0000 0.0000
# 4 0.0000 0.0000 0.0000 -24.2528 0.0000 0.0000
# 5 0.0000 0.0000 0.0000 0.0000 60.5349 0.0000
# 6 0.0000 0.0000 0.0000 0.0000 0.0000 25.1712
#
#
#
# Elastic Compliance Matrix: (Units=1/GPa)
#
#
# Indices 1 2 3 4 5 6 
#
# 1 0.006068 -0.001909 -0.002507 0.000000 0.000000 0.000000
# 2 -0.001909 0.011421 -0.001809 0.000000 0.000000 0.000000
# 3 -0.002507 -0.001809 0.011504 0.000000 0.000000 0.000000
# 4 0.000000 0.000000 0.000000 -0.041232 0.000000 0.000000
# 5 0.000000 0.000000 0.000000 0.000000 0.016519 0.000000
# 6 0.000000 0.000000 0.000000 0.000000 0.000000 0.039728
#
#
# Mechanical properties :
#
#
# Convention : Reuss Voigt Hill
#
# Bulk Modulus (GPa) = 60.44958 69.78627 65.11792
# Shear Modulus (GPa) = 80.67997 31.15903 55.91950
#
# Velocity S-wave (km/s) = 6.39826 3.97622 5.32673
# Velocity P-wave (km/s) = 9.23343 7.51603 8.41864
#
# Compressibility (1/GPa) = 0.01654271
#
# Stress axis : x y z
#
# Youngs Moduli (GPa) = 164.78634 87.55832 86.92676
#
# Poissons Ratio (x) = 0.16712 0.21796
# Poissons Ratio (y) = 0.31452 0.15728
# Poissons Ratio (z) = 0.41318 0.15842
#
# Static dielectric constant tensor:
#      x y z
#    x 1.671670 0.000000 0.000000 
#    y 0.000000 1.677720 0.000000 
#    z 0.000000 0.000000 1.689640 
# 
# From -- ./inp_files/4305.got.cif
#   From: 2010.05.17/outbox.cif.g08.bks.cpg/sg24_3_cif.got.tgz:4305.got - 2010.06.04 00:33:39.
