data_PCOD9334749
_publ_section_title
;
Structure prediction by ZEFSAII (Michael W. Deem and Ramdas Pophale) SiO2 
 PCOD9334749
Probable space group: I 21 21 21
;
_chemical_formula_sum "Si O2"
_cell_formula_units_Z 48
_cell_length_a 9.617150
_cell_length_b 14.939863
_cell_length_c 15.493538
_cell_angle_alpha 90.000000
_cell_angle_beta 90.000000
_cell_angle_gamma 90.000000
_cell_volume 2226.094550
_symmetry_space_group_name_H-M "I 21 21 21"
_symmetry_group_IT_number 24
_symmetry_cell_setting 'orthorhombic'
loop_
_space_group_symop_operation_xyz
x,y,z
-x,1/2-y,z
x,-y,1/2-z
1/2-x,y,-z
1/2+x,1/2+y,1/2+z
1/2-x,-y,1/2+z
1/2+x,1/2-y,-z
-x,1/2+y,1/2-z
loop_
_atom_site_type_symbol
_atom_site_label
_atom_site_fract_x
_atom_site_fract_y
_atom_site_fract_z
Si Si1 0.437858 0.650482 0.652743
Si Si2 0.599386 0.602302 0.486573
Si Si3 0.400614 0.897698 0.013427
Si Si4 0.562143 0.150482 0.652742
Si Si5 0.378437 0.391811 0.150417
Si Si6 0.121563 0.391811 0.650418
O O1 0.500000 0.750000 0.652818
O O2 0.519200 0.601297 0.577083
O O3 0.455640 0.613222 0.750001
O O4 0.273507 0.648849 0.634153
O O5 0.750000 0.646126 0.500000
O O6 0.625687 0.500000 0.457031
O O7 0.495867 0.641257 0.415136
O O8 0.504131 0.858742 0.084866
O O9 0.250000 0.853875 0.000000
O O10 0.480802 0.898703 0.922918
O O11 0.500000 0.250000 0.652817
O O12 0.726494 0.148850 0.634153
O O13 0.417026 0.374812 0.250000
O O14 0.362816 0.500000 0.139766
#
# Coordination Sequence:
#
# PCOD9334749 Si02
#       6
#     8   8   8   8   8   8
#     4  10  21  36  54  78 107 141 183 226 269 320
#     4  10  21  35  54  82 111 141 180 224 270 321
#     4  10  21  35  54  82 111 141 180 224 270 321
#     4  10  21  36  54  78 107 141 183 226 269 320
#     4   9  18  35  59  83 108 142 182 223 270 325
#     4   9  18  35  59  83 108 142 182 223 270 325
#
# _framework density 21.562425999999999
#
# number of rings (size 3 to 8) (size 9 to 14) (size 15 to 20)
#    0.000    2.333    0.000    2.000    0.000    8.667 
#    0.000    3.333    0.000    7.000    0.000    0.000 
#    0.000    0.000    0.000    0.000    0.000    0.000 
#
# Total GULP energy -134026.709964 kJ/mol
# GULP energy per Si atom -5584.446248 kJ/mol
# Density = 2.151335 g / cm^3
# Si number density = 21.562426 Si / 1000 Ang^3
#
#
#
# Elastic Constant Matrix: (Units=GPa)
#
#
# Indices 1 2 3 4 5 6 
#
# 1 213.2380 23.9686 127.5283 0.0000 0.0000 0.0000
# 2 23.9686 55.1261 15.5339 0.0000 0.0000 0.0000
# 3 127.5283 15.5339 125.5705 0.0000 0.0000 0.0000
# 4 0.0000 0.0000 0.0000 60.0488 0.0000 0.0000
# 5 0.0000 0.0000 0.0000 0.0000 25.2201 0.0000
# 6 0.0000 0.0000 0.0000 0.0000 0.0000 68.1705
#
#
#
# Elastic Compliance Matrix: (Units=1/GPa)
#
#
# Indices 1 2 3 4 5 6 
#
# 1 0.012127 -0.001867 -0.012085 0.000000 0.000000 0.000000
# 2 -0.001867 0.019083 -0.000464 0.000000 0.000000 0.000000
# 3 -0.012085 -0.000464 0.020295 0.000000 0.000000 0.000000
# 4 0.000000 0.000000 0.000000 0.016653 0.000000 0.000000
# 5 0.000000 0.000000 0.000000 0.000000 0.039651 0.000000
# 6 0.000000 0.000000 0.000000 0.000000 0.000000 0.014669
#
#
# Mechanical properties :
#
#
# Convention : Reuss Voigt Hill
#
# Bulk Modulus (GPa) = 44.10874 80.88848 62.49861
# Shear Modulus (GPa) = 31.47255 45.81480 38.64368
#
# Velocity S-wave (km/s) = 3.82462 4.61450 4.23800
# Velocity P-wave (km/s) = 6.32490 8.12321 7.27980
#
# Compressibility (1/GPa) = 0.02267124
#
# Stress axis : x y z
#
# Youngs Moduli (GPa) = 82.45978 52.40278 49.27393
#
# Poissons Ratio (x) = 0.09785 0.59549
# Poissons Ratio (y) = 0.15398 0.02287
# Poissons Ratio (z) = 0.99654 0.02433
#
# Static dielectric constant tensor:
#      x y z
#    x 1.761670 0.000000 0.000000 
#    y 0.000000 1.841030 0.000000 
#    z 0.000000 0.000000 1.770860 
# 
# From -- ./inp_files/14205.got.cif
#   From: 2010.05.17/outbox.cif.g08.bks.cpg/sg24_8_cif.got.tgz:14205.got - 2010.06.04 00:33:39.
