data_PCOD9334588
_publ_section_title
;
Structure prediction by ZEFSAII (Michael W. Deem and Ramdas Pophale) SiO2 
 PCOD9334588
Probable space group: I 21 21 21
;
_chemical_formula_sum "Si O2"
_cell_formula_units_Z 40
_cell_length_a 8.971412
_cell_length_b 23.340782
_cell_length_c 8.329818
_cell_angle_alpha 90.000000
_cell_angle_beta 90.000000
_cell_angle_gamma 90.000000
_cell_volume 1744.261988
_symmetry_space_group_name_H-M "I 21 21 21"
_symmetry_group_IT_number 24
_symmetry_cell_setting 'orthorhombic'
loop_
_space_group_symop_operation_xyz
x,y,z
-x,1/2-y,z
x,-y,1/2-z
1/2-x,y,-z
1/2+x,1/2+y,1/2+z
1/2-x,-y,1/2+z
1/2+x,1/2-y,-z
-x,1/2+y,1/2-z
loop_
_atom_site_type_symbol
_atom_site_label
_atom_site_fract_x
_atom_site_fract_y
_atom_site_fract_z
Si Si1 0.415033 0.917619 0.927699
Si Si2 0.919919 0.849513 0.542844
Si Si3 0.584507 0.528338 0.428798
Si Si4 0.450508 0.191360 0.364171
Si Si5 0.161897 0.835987 0.331620
O O1 0.385484 0.896384 0.749247
O O2 0.250000 0.924601 0.000000
O O3 0.479370 0.863579 0.024425
O O4 0.489489 0.978446 0.960973
O O5 0.750000 0.856800 0.500000
O O6 0.996223 0.911878 0.574946
O O7 0.948776 0.815010 0.705597
O O8 0.001546 0.816449 0.396078
O O9 0.592985 0.500000 0.250000
O O10 0.750000 0.538101 0.500000
O O11 0.500000 0.250000 0.446302
O O12 0.278413 0.189960 0.297924
O O13 0.250000 0.836986 0.500000
#
# Coordination Sequence:
#
# PCOD9334588 Si02
#       5
#     8   8   8   8   8
#     4   9  19  37  63  94 123 165 213 268 333 394
#     4  11  24  41  59  92 133 173 216 270 330 395
#     4  11  22  38  66  95 123 168 220 268 329 405
#     4  10  20  40  67  93 123 165 220 280 321 384
#     4   9  20  40  66  91 125 167 219 266 323 401
#
# _framework density 22.932334999999998
#
# number of rings (size 3 to 8) (size 9 to 14) (size 15 to 20)
#    0.000    2.000    2.000    1.800    8.400    2.400 
#    3.600   11.000    0.000    0.000    0.000    0.000 
#    0.000    0.000    0.000    0.000    0.000    0.000 
#
# Total GULP energy -111520.579365 kJ/mol
# GULP energy per Si atom -5576.028968 kJ/mol
# Density = 2.288014 g / cm^3
# Si number density = 22.932335 Si / 1000 Ang^3
#
#
#
# Elastic Constant Matrix: (Units=GPa)
#
#
# Indices 1 2 3 4 5 6 
#
# 1 104.7123 23.8596 11.7617 0.0001 0.0001 0.0000
# 2 23.8596 134.1687 1.6235 0.0005 0.0000 0.0000
# 3 11.7617 1.6235 79.4624 0.0002 -0.0011 0.0004
# 4 0.0001 0.0005 0.0002 10.9541 -0.0001 -0.0002
# 5 0.0001 0.0000 -0.0011 -0.0001 8.6635 -0.0001
# 6 0.0000 0.0000 0.0004 -0.0002 -0.0001 18.8395
#
#
#
# Elastic Compliance Matrix: (Units=1/GPa)
#
#
# Indices 1 2 3 4 5 6 
#
# 1 0.010120 -0.001782 -0.001462 0.000000 0.000000 0.000000
# 2 -0.001782 0.007769 0.000105 0.000000 0.000000 0.000000
# 3 -0.001462 0.000105 0.012799 0.000000 0.000002 0.000000
# 4 0.000000 0.000000 0.000000 0.091290 0.000001 0.000001
# 5 0.000000 0.000000 0.000002 0.000001 0.115426 0.000001
# 6 0.000000 0.000000 0.000000 0.000001 0.000001 0.053080
#
#
# Mechanical properties :
#
#
# Convention : Reuss Voigt Hill
#
# Bulk Modulus (GPa) = 40.96539 43.64809 42.30674
# Shear Modulus (GPa) = 16.39894 26.43136 21.41515
#
# Velocity S-wave (km/s) = 2.67704 3.39865 3.05920
# Velocity P-wave (km/s) = 5.24001 5.87161 5.56478
#
# Compressibility (1/GPa) = 0.02441085
#
# Stress axis : x y z
#
# Youngs Moduli (GPa) = 98.81243 128.71783 78.13258
#
# Poissons Ratio (x) = 0.22938 0.11419
# Poissons Ratio (y) = 0.17609 -0.00821
# Poissons Ratio (z) = 0.14442 -0.01352
#
# Static dielectric constant tensor:
#      x y z
#    x 1.870210 0.000000 0.000000 
#    y 0.000000 1.966980 0.000000 
#    z 0.000000 0.000000 1.947260 
# 
# From -- ./inp_files/9248.got.cif
#   From: 2010.05.17/outbox.cif.g08.bks.cpg/sg24_5_cif.got.tgz:9248.got - 2010.06.04 00:33:39.
