data_PCOD9334167
_publ_section_title
;
Structure prediction by ZEFSAII (Michael W. Deem and Ramdas Pophale) SiO2 
 PCOD9334167
Probable space group: I 21 21 21
;
_chemical_formula_sum "Si O2"
_cell_formula_units_Z 32
_cell_length_a 6.678633
_cell_length_b 17.432782
_cell_length_c 14.152457
_cell_angle_alpha 90.000000
_cell_angle_beta 90.000000
_cell_angle_gamma 90.000000
_cell_volume 1647.730279
_symmetry_space_group_name_H-M "I 21 21 21"
_symmetry_group_IT_number 24
_symmetry_cell_setting 'orthorhombic'
loop_
_space_group_symop_operation_xyz
x,y,z
-x,1/2-y,z
x,-y,1/2-z
1/2-x,y,-z
1/2+x,1/2+y,1/2+z
1/2-x,-y,1/2+z
1/2+x,1/2-y,-z
-x,1/2+y,1/2-z
loop_
_atom_site_type_symbol
_atom_site_label
_atom_site_fract_x
_atom_site_fract_y
_atom_site_fract_z
Si Si1 0.864697 0.419570 0.599639
Si Si2 0.793936 0.035852 0.352528
Si Si3 0.642008 0.569990 0.598129
Si Si4 0.592404 0.666396 0.778400
O O1 0.750000 0.410110 0.500000
O O2 0.899522 0.068012 0.594798
O O3 0.778692 0.500646 0.638677
O O4 0.798630 0.349830 0.666101
O O5 0.939959 0.106191 0.326939
O O6 0.736067 0.000000 0.250000
O O7 0.924247 0.971122 0.406880
O O8 0.750000 0.590533 0.500000
O O9 0.624675 0.638916 0.671112
O O10 0.500000 0.750000 0.784950
#
# Coordination Sequence:
#
# PCOD9334167 Si02
#       4
#     8   8   8   8
#     4  10  20  36  59  87 113 153 201 254 292 344
#     4   9  18  36  62  88 111 152 202 246 297 347
#     4   9  19  35  62  86 112 151 198 256 290 349
#     4  10  21  37  56  85 123 158 191 238 304 366
#
# _framework density 19.420653000000001
#
# number of rings (size 3 to 8) (size 9 to 14) (size 15 to 20)
#    0.000    2.500    0.000    3.750    0.000   10.000 
#    4.500    0.000   27.500    0.000    0.000    0.000 
#    0.000    0.000    0.000    0.000    0.000    0.000 
#
# Total GULP energy -89215.500766 kJ/mol
# GULP energy per Si atom -5575.968798 kJ/mol
# Density = 1.937645 g / cm^3
# Si number density = 19.420653 Si / 1000 Ang^3
#
#
#
# Elastic Constant Matrix: (Units=GPa)
#
#
# Indices 1 2 3 4 5 6 
#
# 1 122.3799 1.9815 52.3823 0.0000 0.0000 0.0000
# 2 1.9815 60.3055 18.9386 0.0000 0.0000 0.0000
# 3 52.3823 18.9386 105.9615 0.0000 0.0000 0.0000
# 4 0.0000 0.0000 0.0000 15.5393 0.0000 0.0000
# 5 0.0000 0.0000 0.0000 0.0000 35.0277 0.0000
# 6 0.0000 0.0000 0.0000 0.0000 0.0000 18.2042
#
#
#
# Elastic Compliance Matrix: (Units=1/GPa)
#
#
# Indices 1 2 3 4 5 6 
#
# 1 0.010468 0.001357 -0.005418 0.000000 0.000000 0.000000
# 2 0.001357 0.017744 -0.003843 0.000000 0.000000 0.000000
# 3 -0.005418 -0.003843 0.012802 0.000000 0.000000 0.000000
# 4 0.000000 0.000000 0.000000 0.064353 0.000000 0.000000
# 5 0.000000 0.000000 0.000000 0.000000 0.028549 0.000000
# 6 0.000000 0.000000 0.000000 0.000000 0.000000 0.054932
#
#
# Mechanical properties :
#
#
# Convention : Reuss Voigt Hill
#
# Bulk Modulus (GPa) = 39.66750 48.36128 44.01439
# Shear Modulus (GPa) = 23.46785 28.11056 25.78921
#
# Velocity S-wave (km/s) = 3.47997 3.80867 3.64803
# Velocity P-wave (km/s) = 6.05117 6.65563 6.36058
#
# Compressibility (1/GPa) = 0.02520956
#
# Stress axis : x y z
#
# Youngs Moduli (GPa) = 95.52752 56.35592 78.11060
#
# Poissons Ratio (x) = -0.07650 0.42317
# Poissons Ratio (y) = -0.12967 0.30014
# Poissons Ratio (z) = 0.51753 0.21655
#
# Static dielectric constant tensor:
#      x y z
#    x 1.724350 0.000000 0.000000 
#    y 0.000000 1.639270 0.000000 
#    z 0.000000 0.000000 1.752450 
# 
# From -- ./inp_files/12107.got.cif
#   From: 2010.05.17/outbox.cif.g08.bks.cpg/sg24_7_cif.got.tgz:12107.got - 2010.06.04 00:33:39.
