data_PCOD9334464
_publ_section_title
;
Structure prediction by ZEFSAII (Michael W. Deem and Ramdas Pophale) SiO2 
 PCOD9334464
Probable space group: I 21 21 21
;
_chemical_formula_sum "Si O2"
_cell_formula_units_Z 48
_cell_length_a 30.709512
_cell_length_b 8.200590
_cell_length_c 8.828935
_cell_angle_alpha 90.000000
_cell_angle_beta 90.000000
_cell_angle_gamma 90.000000
_cell_volume 2223.444708
_symmetry_space_group_name_H-M "I 21 21 21"
_symmetry_group_IT_number 24
_symmetry_cell_setting 'orthorhombic'
loop_
_space_group_symop_operation_xyz
x,y,z
-x,1/2-y,z
x,-y,1/2-z
1/2-x,y,-z
1/2+x,1/2+y,1/2+z
1/2-x,-y,1/2+z
1/2+x,1/2-y,-z
-x,1/2+y,1/2-z
loop_
_atom_site_type_symbol
_atom_site_label
_atom_site_fract_x
_atom_site_fract_y
_atom_site_fract_z
Si Si1 0.795242 0.673627 0.081458
Si Si2 0.794672 0.722832 0.424833
Si Si3 0.521339 0.432827 0.419822
Si Si4 0.890561 0.696152 0.940561
Si Si5 0.938096 0.015614 0.072071
Si Si6 0.127468 0.338683 0.861276
O O1 0.797119 0.757932 0.246206
O O2 0.793964 0.475409 0.079537
O O3 0.750000 0.725606 0.000000
O O4 0.842223 0.701733 0.006889
O O5 0.750000 0.778974 0.500000
O O6 0.831997 0.795053 0.532140
O O7 0.500000 0.250000 0.415329
O O8 0.518007 0.500000 0.250000
O O9 0.571455 0.433774 0.473836
O O10 0.488716 0.525207 0.531412
O O11 0.883209 0.701765 0.761203
O O12 0.914899 0.857419 0.999705
O O13 0.931414 0.000000 0.250000
O O14 0.912591 0.150413 0.977109
O O15 0.133604 0.500000 0.750000
#
# Coordination Sequence:
#
# PCOD9334464 Si02
#       6
#     8   8   8   8   8   8
#     4  10  21  38  61  89 122 154 191 247 304 351
#     4  10  21  38  60  89 121 154 197 244 297 358
#     4  10  21  39  59  87 119 155 203 247 298 365
#     4  10  21  37  60  87 116 155 198 241 293 359
#     4  10  20  39  59  82 120 157 191 245 298 347
#     4  10  21  38  61  85 116 159 199 241 298 354
#
# _framework density 21.588121999999998
#
# number of rings (size 3 to 8) (size 9 to 14) (size 15 to 20)
#    0.000    2.000    0.000    4.500    2.333    1.333 
#    3.000   15.000    0.000    0.000    0.000    0.000 
#    0.000    0.000    0.000    0.000    0.000    0.000 
#
# Total GULP energy -133752.923241 kJ/mol
# GULP energy per Si atom -5573.038468 kJ/mol
# Density = 2.153899 g / cm^3
# Si number density = 21.588122 Si / 1000 Ang^3
#
#
#
# Elastic Constant Matrix: (Units=GPa)
#
#
# Indices 1 2 3 4 5 6 
#
# 1 234.4128 21.0789 110.3962 0.0000 0.0000 0.0000
# 2 21.0789 22.8151 9.8442 0.0000 0.0000 0.0000
# 3 110.3962 9.8442 186.4264 0.0000 0.0000 0.0000
# 4 0.0000 0.0000 0.0000 18.4268 0.0000 0.0000
# 5 0.0000 0.0000 0.0000 0.0000 36.3792 0.0000
# 6 0.0000 0.0000 0.0000 0.0000 0.0000 10.0225
#
#
#
# Elastic Compliance Matrix: (Units=1/GPa)
#
#
# Indices 1 2 3 4 5 6 
#
# 1 0.006305 -0.004312 -0.003506 0.000000 0.000000 0.000000
# 2 -0.004312 0.047802 0.000029 0.000000 0.000000 0.000000
# 3 -0.003506 0.000029 0.007439 0.000000 0.000000 0.000000
# 4 0.000000 0.000000 0.000000 0.054269 0.000000 0.000000
# 5 0.000000 0.000000 0.000000 0.000000 0.027488 0.000000
# 6 0.000000 0.000000 0.000000 0.000000 0.000000 0.099775
#
#
# Mechanical properties :
#
#
# Convention : Reuss Voigt Hill
#
# Bulk Modulus (GPa) = 21.75420 80.69920 51.22670
# Shear Modulus (GPa) = 18.24966 33.12138 25.68552
#
# Velocity S-wave (km/s) = 2.91066 3.92119 3.45309
# Velocity P-wave (km/s) = 4.62544 7.61337 6.29913
#
# Compressibility (1/GPa) = 0.04596813
#
# Stress axis : x y z
#
# Youngs Moduli (GPa) = 158.60920 20.91955 134.43530
#
# Poissons Ratio (x) = 0.09021 0.47130
# Poissons Ratio (y) = 0.68398 -0.00396
# Poissons Ratio (z) = 0.55605 -0.00062
#
# Static dielectric constant tensor:
#      x y z
#    x 1.803620 0.000000 0.000000 
#    y 0.000000 1.925230 0.000000 
#    z 0.000000 0.000000 1.747390 
# 
# From -- ./inp_files/9758.got.cif
#   From: 2010.05.17/outbox.cif.g08.bks.cpg/sg24_5_cif.got.tgz:9758.got - 2010.06.04 00:33:39.
