data_PCOD9334888
_publ_section_title
;
Structure prediction by ZEFSAII (Michael W. Deem and Ramdas Pophale) SiO2 
 PCOD9334888
Probable space group: I 21 21 21
;
_chemical_formula_sum "Si O2"
_cell_formula_units_Z 32
_cell_length_a 11.833450
_cell_length_b 19.416482
_cell_length_c 5.287500
_cell_angle_alpha 90.000000
_cell_angle_beta 90.000000
_cell_angle_gamma 90.000000
_cell_volume 1214.876986
_symmetry_space_group_name_H-M "I 21 21 21"
_symmetry_group_IT_number 24
_symmetry_cell_setting 'orthorhombic'
loop_
_space_group_symop_operation_xyz
x,y,z
-x,1/2-y,z
x,-y,1/2-z
1/2-x,y,-z
1/2+x,1/2+y,1/2+z
1/2-x,-y,1/2+z
1/2+x,1/2-y,-z
-x,1/2+y,1/2-z
loop_
_atom_site_type_symbol
_atom_site_label
_atom_site_fract_x
_atom_site_fract_y
_atom_site_fract_z
Si Si1 0.391010 0.925645 0.167814
Si Si2 0.623743 0.050602 0.532908
Si Si3 0.353802 0.313432 0.821071
Si Si4 0.114515 0.841790 0.349599
O O1 0.350133 0.872002 0.378642
O O2 0.342851 0.000000 0.250000
O O3 0.527560 0.937002 0.176057
O O4 0.373166 0.895475 0.884462
O O5 0.750000 0.020477 0.500000
O O6 0.646147 0.128973 0.609649
O O7 0.572730 0.000000 0.750000
O O8 0.482170 0.324928 0.911079
O O9 0.339895 0.232671 0.763064
O O10 0.250000 0.332016 0.000000
#
# Coordination Sequence:
#
# PCOD9334888 Si02
#       4
#     8   8   8   8
#     4  11  21  39  61  86 120 159 200 253 306 354
#     4  11  21  34  57  93 128 163 199 241 301 379
#     4  10  21  38  59  88 126 164 200 249 300 355
#     4  10  23  38  61  92 120 158 208 246 298 368
#
# _framework density 26.340116999999999
#
# number of rings (size 3 to 8) (size 9 to 14) (size 15 to 20)
#    0.000    1.500    0.000    6.750    0.000   10.000 
#    0.000    0.000    0.000    3.000    0.000    1.750 
#    0.000    0.000    0.000    0.000    0.000    0.000 
#
# Total GULP energy -89301.252233 kJ/mol
# GULP energy per Si atom -5581.328265 kJ/mol
# Density = 2.628017 g / cm^3
# Si number density = 26.340117 Si / 1000 Ang^3
#
#
#
# Elastic Constant Matrix: (Units=GPa)
#
#
# Indices 1 2 3 4 5 6 
#
# 1 98.5489 3.5562 28.6272 0.0000 -0.0002 -0.0004
# 2 3.5562 210.7645 87.6920 0.0003 0.0000 -0.0010
# 3 28.6272 87.6920 136.5416 0.0083 0.0006 -0.0036
# 4 0.0000 0.0003 0.0083 29.5892 0.0007 0.0006
# 5 -0.0002 0.0000 0.0006 0.0007 55.4701 -0.0001
# 6 -0.0004 -0.0010 -0.0036 0.0006 -0.0001 22.9783
#
#
#
# Elastic Compliance Matrix: (Units=1/GPa)
#
#
# Indices 1 2 3 4 5 6 
#
# 1 0.010974 0.001054 -0.002978 0.000001 0.000000 0.000000
# 2 0.001054 0.006576 -0.004444 0.000001 0.000000 0.000000
# 3 -0.002978 -0.004444 0.010802 -0.000003 0.000000 0.000001
# 4 0.000001 0.000001 -0.000003 0.033796 0.000000 -0.000001
# 5 0.000000 0.000000 0.000000 0.000000 0.018028 0.000000
# 6 0.000000 0.000000 0.000001 -0.000001 0.000000 0.043519
#
#
# Mechanical properties :
#
#
# Convention : Reuss Voigt Hill
#
# Bulk Modulus (GPa) = 64.03597 76.17843 70.10720
# Shear Modulus (GPa) = 35.30148 43.33950 39.32049
#
# Velocity S-wave (km/s) = 3.66487 4.06073 3.86787
# Velocity P-wave (km/s) = 6.50172 7.13932 6.82796
#
# Compressibility (1/GPa) = 0.01561622
#
# Stress axis : x y z
#
# Youngs Moduli (GPa) = 91.12314 152.06939 92.57298
#
# Poissons Ratio (x) = -0.16023 0.27564
# Poissons Ratio (y) = -0.09602 0.41142
# Poissons Ratio (z) = 0.27132 0.67583
#
# Static dielectric constant tensor:
#      x y z
#    x 2.250300 0.000000 0.000000 
#    y 0.000000 2.016270 0.000000 
#    z 0.000000 0.000000 2.111410 
# 
# From -- ./inp_files/3050.got.cif
#   From: 2010.05.17/outbox.cif.g08.bks.cpg/sg24_2_cif.got.tgz:3050.got - 2010.06.04 00:33:39.
