data_PCOD9334173
_publ_section_title
;
Structure prediction by ZEFSAII (Michael W. Deem and Ramdas Pophale) SiO2 
 PCOD9334173
Probable space group: I 21 21 21
;
_chemical_formula_sum "Si O2"
_cell_formula_units_Z 60
_cell_length_a 19.414611
_cell_length_b 24.300503
_cell_length_c 5.715179
_cell_angle_alpha 90.000000
_cell_angle_beta 90.000000
_cell_angle_gamma 90.000000
_cell_volume 2696.334655
_symmetry_space_group_name_H-M "I 21 21 21"
_symmetry_group_IT_number 24
_symmetry_cell_setting 'orthorhombic'
loop_
_space_group_symop_operation_xyz
x,y,z
-x,1/2-y,z
x,-y,1/2-z
1/2-x,y,-z
1/2+x,1/2+y,1/2+z
1/2-x,-y,1/2+z
1/2+x,1/2-y,-z
-x,1/2+y,1/2-z
loop_
_atom_site_type_symbol
_atom_site_label
_atom_site_fract_x
_atom_site_fract_y
_atom_site_fract_z
Si Si1 0.061296 0.217080 0.529863
Si Si2 0.115773 0.125303 0.811612
Si Si3 0.354085 0.434958 0.324394
Si Si4 0.807735 0.760035 0.199172
Si Si5 0.000862 0.621789 0.298866
Si Si6 0.837532 0.879887 0.339955
Si Si7 0.489011 0.053090 0.408073
Si Si8 0.750000 0.660522 0.500000
O O1 0.109890 0.186297 0.709340
O O2 0.113507 0.254338 0.386109
O O3 0.023272 0.170509 0.375828
O O4 0.000000 0.250000 0.650225
O O5 0.084460 0.082769 0.628776
O O6 0.057008 0.122149 0.006138
O O7 0.193768 0.121010 0.884169
O O8 0.348199 0.500000 0.250000
O O9 0.329153 0.415477 0.589924
O O10 0.436580 0.421332 0.328923
O O11 0.320650 0.405755 0.096560
O O12 0.804513 0.819806 0.315805
O O13 0.791661 0.703665 0.337993
O O14 0.750000 0.761112 0.000000
O O15 0.079953 0.630007 0.359194
O O16 0.998240 0.560856 0.183947
O O17 0.485235 0.000000 0.250000
#
# Coordination Sequence:
#
# PCOD9334173 Si02
#       8
#     8   8   8   8   8   8   8   4
#     4  11  22  38  61  91 126 168 222 282 335 393
#     4  11  22  38  60  87 128 171 224 265 333 396
#     4  10  21  40  67 104 136 167 213 282 351 399
#     4  12  26  42  61  92 132 176 220 272 333 403
#     4  10  20  36  59  94 123 165 211 276 328 395
#     4  11  23  39  67  99 135 168 222 272 334 401
#     4   9  20  37  62  93 130 164 211 280 344 390
#     4  12  26  40  62  86 128 188 216 264 330 404
#
# _framework density 22.252428999999999
#
# number of rings (size 3 to 8) (size 9 to 14) (size 15 to 20)
#    0.000    1.333    5.333    0.400    1.867    2.133 
#    0.000    0.000    2.933    1.600    0.000    0.000 
#    0.000    0.000    0.000    0.000    0.000    0.000 
#
# Total GULP energy -167040.903822 kJ/mol
# GULP energy per Si atom -5568.030127 kJ/mol
# Density = 2.220178 g / cm^3
# Si number density = 22.252429 Si / 1000 Ang^3
#
#
#
# Elastic Constant Matrix: (Units=GPa)
#
#
# Indices 1 2 3 4 5 6 
#
# 1 64.6865 -6.7611 -1.5867 0.0000 0.0000 0.0000
# 2 -6.7611 55.5236 13.1509 0.0000 0.0000 0.0000
# 3 -1.5867 13.1509 69.3246 0.0000 0.0000 0.0000
# 4 0.0000 0.0000 0.0000 19.4006 0.0000 0.0000
# 5 0.0000 0.0000 0.0000 0.0000 28.3449 0.0000
# 6 0.0000 0.0000 0.0000 0.0000 0.0000 14.6273
#
#
#
# Elastic Compliance Matrix: (Units=1/GPa)
#
#
# Indices 1 2 3 4 5 6 
#
# 1 0.015658 0.001908 -0.000003 0.000000 0.000000 0.000000
# 2 0.001908 0.019090 -0.003578 0.000000 0.000000 0.000000
# 3 -0.000003 -0.003578 0.015104 0.000000 0.000000 0.000000
# 4 0.000000 0.000000 0.000000 0.051545 0.000000 0.000000
# 5 0.000000 0.000000 0.000000 0.000000 0.035280 0.000000
# 6 0.000000 0.000000 0.000000 0.000000 0.000000 0.068365
#
#
# Mechanical properties :
#
#
# Convention : Reuss Voigt Hill
#
# Bulk Modulus (GPa) = 21.50320 22.12677 21.81498
# Shear Modulus (GPa) = 22.33234 24.79000 23.56117
#
# Velocity S-wave (km/s) = 3.17139 3.34134 3.25747
# Velocity P-wave (km/s) = 4.80568 4.98510 4.89621
#
# Compressibility (1/GPa) = 0.04650471
#
# Stress axis : x y z
#
# Youngs Moduli (GPa) = 63.86325 52.38337 66.20972
#
# Poissons Ratio (x) = -0.09992 0.00023
# Poissons Ratio (y) = -0.12182 0.23688
# Poissons Ratio (z) = 0.00022 0.18741
#
# Static dielectric constant tensor:
#      x y z
#    x 1.832850 0.000000 0.000000 
#    y 0.000000 1.890320 0.000000 
#    z 0.000000 0.000000 1.986820 
# 
# From -- ./inp_files/5849.got.cif
#   From: 2010.05.17/outbox.cif.g08.bks.cpg/sg24_3_cif.got.tgz:5849.got - 2010.06.04 00:33:39.
