data_PCOD9334086
_publ_section_title
;
Structure prediction by ZEFSAII (Michael W. Deem and Ramdas Pophale) SiO2 
 PCOD9334086
Probable space group: I 21 21 21
;
_chemical_formula_sum "Si O2"
_cell_formula_units_Z 48
_cell_length_a 9.822202
_cell_length_b 16.270270
_cell_length_c 13.263816
_cell_angle_alpha 90.000000
_cell_angle_beta 90.000000
_cell_angle_gamma 90.000000
_cell_volume 2119.688824
_symmetry_space_group_name_H-M "I 21 21 21"
_symmetry_group_IT_number 24
_symmetry_cell_setting 'orthorhombic'
loop_
_space_group_symop_operation_xyz
x,y,z
-x,1/2-y,z
x,-y,1/2-z
1/2-x,y,-z
1/2+x,1/2+y,1/2+z
1/2-x,-y,1/2+z
1/2+x,1/2-y,-z
-x,1/2+y,1/2-z
loop_
_atom_site_type_symbol
_atom_site_label
_atom_site_fract_x
_atom_site_fract_y
_atom_site_fract_z
Si Si1 0.023986 0.658287 0.137715
Si Si2 0.885052 0.195018 0.046022
Si Si3 0.258171 0.595081 0.727780
Si Si4 0.097159 0.017925 0.487360
Si Si5 0.816620 0.412237 0.198053
Si Si6 0.475416 0.108596 0.142792
O O1 0.998800 0.587458 0.056278
O O2 0.917573 0.634952 0.227617
O O3 0.000000 0.750000 0.101119
O O4 0.171776 0.648617 0.186395
O O5 0.823383 0.126648 0.121745
O O6 0.000000 0.250000 0.099742
O O7 0.750000 0.238466 0.000000
O O8 0.965468 0.161297 0.949321
O O9 0.293382 0.500000 0.750000
O O10 0.096561 0.605764 0.722204
O O11 0.250000 0.051889 0.500000
O O12 0.116852 0.942194 0.407537
O O13 0.046375 0.980438 0.591524
O O14 0.785872 0.500000 0.250000
O O15 0.673819 0.366532 0.180512
#
# Coordination Sequence:
#
# PCOD9334086 Si02
#       6
#     8   8   8   8   8   8
#     4  11  22  37  58  84 117 152 182 223 282 342
#     4  10  22  36  53  81 116 149 180 221 278 338
#     4  11  22  37  56  83 114 145 184 231 283 331
#     4   9  19  38  62  84 107 146 199 238 268 321
#     4   9  18  35  59  83 108 145 193 235 272 325
#     4  10  20  35  59  85 109 143 187 238 280 321
#
# _framework density 22.644832999999998
#
# number of rings (size 3 to 8) (size 9 to 14) (size 15 to 20)
#    0.000    2.000    0.000    4.500    0.000    6.000 
#    0.000    1.667    0.000    0.000    0.000    0.000 
#    0.000    0.000    0.000    0.000    0.000    0.000 
#
# Total GULP energy -134178.239699 kJ/mol
# GULP energy per Si atom -5590.759987 kJ/mol
# Density = 2.259329 g / cm^3
# Si number density = 22.644833 Si / 1000 Ang^3
#
#
#
# Elastic Constant Matrix: (Units=GPa)
#
#
# Indices 1 2 3 4 5 6 
#
# 1 128.1187 24.8551 22.5094 0.0000 0.0000 0.0000
# 2 24.8551 62.7165 2.3924 0.0000 0.0000 0.0000
# 3 22.5094 2.3924 33.3426 0.0000 0.0000 0.0000
# 4 0.0000 0.0000 0.0000 14.8631 0.0000 0.0000
# 5 0.0000 0.0000 0.0000 0.0000 27.5052 0.0000
# 6 0.0000 0.0000 0.0000 0.0000 0.0000 17.3926
#
#
#
# Elastic Compliance Matrix: (Units=1/GPa)
#
#
# Indices 1 2 3 4 5 6 
#
# 1 0.009589 -0.003563 -0.006218 0.000000 0.000000 0.000000
# 2 -0.003563 0.017312 0.001163 0.000000 0.000000 0.000000
# 3 -0.006218 0.001163 0.034106 0.000000 0.000000 0.000000
# 4 0.000000 0.000000 0.000000 0.067281 0.000000 0.000000
# 5 0.000000 0.000000 0.000000 0.000000 0.036357 0.000000
# 6 0.000000 0.000000 0.000000 0.000000 0.000000 0.057496
#
#
# Mechanical properties :
#
#
# Convention : Reuss Voigt Hill
#
# Bulk Modulus (GPa) = 22.84569 35.96573 29.40571
# Shear Modulus (GPa) = 19.68768 23.58025 21.63397
#
# Velocity S-wave (km/s) = 2.95178 3.23043 3.09424
# Velocity P-wave (km/s) = 4.66132 5.46180 5.07736
#
# Compressibility (1/GPa) = 0.04377193
#
# Stress axis : x y z
#
# Youngs Moduli (GPa) = 104.28734 57.76197 29.32054
#
# Poissons Ratio (x) = 0.20580 0.18231
# Poissons Ratio (y) = 0.37157 -0.03410
# Poissons Ratio (z) = 0.64843 -0.06719
#
# Static dielectric constant tensor:
#      x y z
#    x 1.873400 0.000000 0.000000 
#    y 0.000000 1.891650 0.000000 
#    z 0.000000 0.000000 1.854980 
# 
# From -- ./inp_files/24791.got.cif
#   From: 2010.05.17/outbox.cif.g08.bks.cpg/sg24_13_cif.got.tgz:24791.got - 2010.06.04 00:33:39.
