data_PCOD9334280
_publ_section_title
;
Structure prediction by ZEFSAII (Michael W. Deem and Ramdas Pophale) SiO2 
 PCOD9334280
Probable space group: I 21 21 21
;
_chemical_formula_sum "Si O2"
_cell_formula_units_Z 64
_cell_length_a 14.247651
_cell_length_b 26.307185
_cell_length_c 7.180664
_cell_angle_alpha 90.000000
_cell_angle_beta 90.000000
_cell_angle_gamma 90.000000
_cell_volume 2691.424819
_symmetry_space_group_name_H-M "I 21 21 21"
_symmetry_group_IT_number 24
_symmetry_cell_setting 'orthorhombic'
loop_
_space_group_symop_operation_xyz
x,y,z
-x,1/2-y,z
x,-y,1/2-z
1/2-x,y,-z
1/2+x,1/2+y,1/2+z
1/2-x,-y,1/2+z
1/2+x,1/2-y,-z
-x,1/2+y,1/2-z
loop_
_atom_site_type_symbol
_atom_site_label
_atom_site_fract_x
_atom_site_fract_y
_atom_site_fract_z
Si Si1 0.083068 0.365016 0.248489
Si Si2 0.112337 0.941233 0.820397
Si Si3 0.067552 0.792194 0.262046
Si Si4 0.524263 0.145656 0.310104
Si Si5 0.940021 0.559327 0.250009
Si Si6 0.778542 0.820337 0.782940
Si Si7 0.136741 0.784959 0.658845
Si Si8 0.215225 0.128336 0.234579
O O1 0.052132 0.355078 0.467500
O O2 0.185493 0.345841 0.199425
O O3 0.007752 0.329991 0.147274
O O4 0.045544 0.421559 0.214064
O O5 0.214549 0.916126 0.801130
O O6 0.030066 0.904693 0.741448
O O7 0.109057 0.000000 0.750000
O O8 0.090509 0.931998 0.037331
O O9 0.116695 0.769483 0.445023
O O10 0.145523 0.828986 0.164917
O O11 0.000000 0.750000 0.167125
O O12 0.627947 0.149783 0.227201
O O13 0.456565 0.193582 0.261980
O O14 0.931817 0.500000 0.250000
O O15 0.863669 0.592640 0.363921
O O16 0.809009 0.762168 0.749369
O O17 0.750000 0.823336 0.000000
O O18 0.206156 0.833057 0.659706
#
# Coordination Sequence:
#
# PCOD9334280 Si02
#       8
#     8   8   8   8   8   8   8   8
#     4   9  21  38  57  82 114 153 195 239 286 344
#     4  10  21  37  60  87 117 151 191 243 301 355
#     4  11  22  36  54  82 120 157 189 230 283 340
#     4   9  20  38  58  84 116 151 196 242 284 343
#     4  10  21  38  60  85 115 150 193 243 296 354
#     4  10  20  37  62  86 114 158 206 244 284 342
#     4  11  22  36  57  86 118 154 193 238 288 341
#     4  10  22  36  54  82 116 152 187 229 283 347
#
# _framework density 23.779225
#
# number of rings (size 3 to 8) (size 9 to 14) (size 15 to 20)
#    0.000    2.000    0.000    3.000    0.000   12.000 
#    0.000    2.500    0.000    0.000    0.000    0.000 
#    0.000    0.000    0.000    0.000    0.000    0.000 
#
# Total GULP energy -178148.109972 kJ/mol
# GULP energy per Si atom -5567.128437 kJ/mol
# Density = 2.372510 g / cm^3
# Si number density = 23.779225 Si / 1000 Ang^3
#
#
#
# Elastic Constant Matrix: (Units=GPa)
#
#
# Indices 1 2 3 4 5 6 
#
# 1 234.9821 96.5281 27.4139 -0.0034 0.0034 -0.0030
# 2 96.5281 167.7974 7.6628 -0.0044 0.0021 0.0003
# 3 27.4139 7.6628 58.1375 -0.0182 0.0064 -0.0098
# 4 -0.0034 -0.0044 -0.0182 9.5986 0.0011 0.0045
# 5 0.0034 0.0021 0.0064 0.0011 17.6940 -0.0006
# 6 -0.0030 0.0003 -0.0098 0.0045 -0.0006 54.0641
#
#
#
# Elastic Compliance Matrix: (Units=1/GPa)
#
#
# Indices 1 2 3 4 5 6 
#
# 1 0.005872 -0.003271 -0.002338 -0.000004 0.000000 0.000000
# 2 -0.003271 0.007818 0.000512 0.000003 0.000000 0.000000
# 3 -0.002338 0.000512 0.018235 0.000034 -0.000006 0.000003
# 4 -0.000004 0.000003 0.000034 0.104182 -0.000006 -0.000009
# 5 0.000000 0.000000 -0.000006 -0.000006 0.056516 0.000001
# 6 0.000000 0.000000 0.000003 -0.000009 0.000001 0.018497
#
#
# Mechanical properties :
#
#
# Convention : Reuss Voigt Hill
#
# Bulk Modulus (GPa) = 46.01574 80.45853 63.23714
# Shear Modulus (GPa) = 21.87626 38.22549 30.05088
#
# Velocity S-wave (km/s) = 3.03640 4.01373 3.55878
# Velocity P-wave (km/s) = 5.62905 7.44239 6.59831
#
# Compressibility (1/GPa) = 0.02173169
#
# Stress axis : x y z
#
# Youngs Moduli (GPa) = 170.29391 127.90897 54.83823
#
# Poissons Ratio (x) = 0.41843 0.12820
# Poissons Ratio (y) = 0.55709 -0.02808
# Poissons Ratio (z) = 0.39811 -0.06550
#
# Static dielectric constant tensor:
#      x y z
#    x 1.941070 0.000000 0.000010 
#    y 0.000000 2.094010 -0.000010 
#    z 0.000010 -0.000010 2.106860 
# 
# From -- ./inp_files/13350.got.cif
#   From: 2010.05.17/outbox.cif.g08.bks.cpg/sg24_7_cif.got.tgz:13350.got - 2010.06.04 00:33:39.
