data_PCOD9334676
_publ_section_title
;
Structure prediction by ZEFSAII (Michael W. Deem and Ramdas Pophale) SiO2 
 PCOD9334676
Probable space group: I 21 21 21
;
_chemical_formula_sum "Si O2"
_cell_formula_units_Z 28
_cell_length_a 6.993018
_cell_length_b 12.557961
_cell_length_c 13.017918
_cell_angle_alpha 90.000000
_cell_angle_beta 90.000000
_cell_angle_gamma 90.000000
_cell_volume 1143.208139
_symmetry_space_group_name_H-M "I 21 21 21"
_symmetry_group_IT_number 24
_symmetry_cell_setting 'orthorhombic'
loop_
_space_group_symop_operation_xyz
x,y,z
-x,1/2-y,z
x,-y,1/2-z
1/2-x,y,-z
1/2+x,1/2+y,1/2+z
1/2-x,-y,1/2+z
1/2+x,1/2-y,-z
-x,1/2+y,1/2-z
loop_
_atom_site_type_symbol
_atom_site_label
_atom_site_fract_x
_atom_site_fract_y
_atom_site_fract_z
Si Si1 0.357889 0.343495 0.728308
Si Si2 0.474927 0.551061 0.971160
Si Si3 0.500000 0.750000 0.103397
Si Si4 0.395543 0.354465 0.086534
O O1 0.500000 0.250000 0.766722
O O2 0.477768 0.418364 0.649293
O O3 0.239839 0.396950 0.821586
O O4 0.187435 0.286800 0.664661
O O5 0.250000 0.549365 0.000000
O O6 0.555343 0.650195 0.033308
O O7 0.529701 0.441054 0.029027
O O8 0.500000 0.250000 0.126425
O O9 0.250000 0.315304 0.000000
#
# Coordination Sequence:
#
# PCOD9334676 Si02
#       4
#     8   8   4   8
#     4  11  22  43  76 103 133 185 239 281 342 415
#     4   9  21  39  72  97 137 181 227 287 342 398
#     4  10  20  42  70 104 136 176 236 296 334 398
#     4  11  24  46  68 101 148 185 222 286 357 414
#
# _framework density 24.492477000000001
#
# number of rings (size 3 to 8) (size 9 to 14) (size 15 to 20)
#    0.000    1.714    2.857    0.857    0.000   10.286 
#    5.143    0.000    0.000    0.000    0.000    0.000 
#    0.000    0.000    0.000    0.000    0.000    0.000 
#
# Total GULP energy -78092.084948 kJ/mol
# GULP energy per Si atom -5578.006068 kJ/mol
# Density = 2.443673 g / cm^3
# Si number density = 24.492477 Si / 1000 Ang^3
#
#
#
# Elastic Constant Matrix: (Units=GPa)
#
#
# Indices 1 2 3 4 5 6 
#
# 1 75.2404 19.4474 18.8821 0.0000 0.0000 0.0000
# 2 19.4474 145.2581 50.1861 0.0000 0.0000 0.0000
# 3 18.8821 50.1861 151.0596 0.0000 0.0000 0.0000
# 4 0.0000 0.0000 0.0000 40.4295 0.0000 0.0000
# 5 0.0000 0.0000 0.0000 0.0000 37.1571 0.0000
# 6 0.0000 0.0000 0.0000 0.0000 0.0000 20.9517
#
#
#
# Elastic Compliance Matrix: (Units=1/GPa)
#
#
# Indices 1 2 3 4 5 6 
#
# 1 0.013980 -0.001432 -0.001272 0.000000 0.000000 0.000000
# 2 -0.001432 0.007924 -0.002453 0.000000 0.000000 0.000000
# 3 -0.001272 -0.002453 0.007594 0.000000 0.000000 0.000000
# 4 0.000000 0.000000 0.000000 0.024734 0.000000 0.000000
# 5 0.000000 0.000000 0.000000 0.000000 0.026913 0.000000
# 6 0.000000 0.000000 0.000000 0.000000 0.000000 0.047729
#
#
# Mechanical properties :
#
#
# Convention : Reuss Voigt Hill
#
# Bulk Modulus (GPa) = 52.12960 60.95437 56.54199
# Shear Modulus (GPa) = 34.34470 38.57716 36.46093
#
# Velocity S-wave (km/s) = 3.74873 3.97301 3.86250
# Velocity P-wave (km/s) = 6.32989 6.78140 6.55953
#
# Compressibility (1/GPa) = 0.01918296
#
# Stress axis : x y z
#
# Youngs Moduli (GPa) = 71.53045 126.20343 131.68379
#
# Poissons Ratio (x) = 0.18077 0.16745
# Poissons Ratio (y) = 0.10246 0.32308
# Poissons Ratio (z) = 0.09096 0.30963
#
# Static dielectric constant tensor:
#      x y z
#    x 1.937660 0.000000 0.000000 
#    y 0.000000 2.069860 0.000000 
#    z 0.000000 0.000000 2.003360 
# 
# From -- ./inp_files/24280.got.cif
#   From: 2010.05.17/outbox.cif.g08.bks.cpg/sg24_13_cif.got.tgz:24280.got - 2010.06.04 00:33:39.
