data_PCOD9334382
_publ_section_title
;
Structure prediction by ZEFSAII (Michael W. Deem and Ramdas Pophale) SiO2 
 PCOD9334382
Probable space group: I 21 21 21
;
_chemical_formula_sum "Si O2"
_cell_formula_units_Z 56
_cell_length_a 8.645541
_cell_length_b 17.478671
_cell_length_c 17.039121
_cell_angle_alpha 90.000000
_cell_angle_beta 90.000000
_cell_angle_gamma 90.000000
_cell_volume 2574.825310
_symmetry_space_group_name_H-M "I 21 21 21"
_symmetry_group_IT_number 24
_symmetry_cell_setting 'orthorhombic'
loop_
_space_group_symop_operation_xyz
x,y,z
-x,1/2-y,z
x,-y,1/2-z
1/2-x,y,-z
1/2+x,1/2+y,1/2+z
1/2-x,-y,1/2+z
1/2+x,1/2-y,-z
-x,1/2+y,1/2-z
loop_
_atom_site_type_symbol
_atom_site_label
_atom_site_fract_x
_atom_site_fract_y
_atom_site_fract_z
Si Si1 0.668764 0.723876 0.425421
Si Si2 0.645730 0.857238 0.657386
Si Si3 0.202322 0.887715 0.317525
Si Si4 0.679044 0.515098 0.082715
Si Si5 0.314913 0.162962 0.637604
Si Si6 0.647726 0.006555 0.343352
Si Si7 0.326313 0.663887 0.843900
O O1 0.500000 0.750000 0.446832
O O2 0.750000 0.688086 0.500000
O O3 0.770283 0.795221 0.396000
O O4 0.663404 0.662174 0.356847
O O5 0.462130 0.861794 0.646643
O O6 0.664494 0.833234 0.748699
O O7 0.726536 0.939404 0.645521
O O8 0.202931 0.866150 0.227149
O O9 0.229089 0.973536 0.346227
O O10 0.711237 0.605330 0.088527
O O11 0.500406 0.497697 0.100807
O O12 0.750000 0.488821 0.000000
O O13 0.271080 0.252073 0.630067
O O14 0.499355 0.154342 0.622957
O O15 0.723671 0.089342 0.359952
O O16 0.602286 0.000000 0.250000
#
# Coordination Sequence:
#
# PCOD9334382 Si02
#       7
#     8   8   8   8   8   8   8
#     4  12  24  37  56  89 131 168 203 247 306 373
#     4  10  20  38  63  93 122 157 205 257 307 370
#     4  11  21  40  66  88 119 165 209 254 312 369
#     4  12  26  41  56  87 128 167 210 256 311 369
#     4  10  20  40  67  91 121 158 206 258 316 369
#     4  10  21  39  64  94 126 157 209 259 309 366
#     4   9  19  39  66  96 117 152 210 262 305 370
#
# _framework density 21.749048999999999
#
# number of rings (size 3 to 8) (size 9 to 14) (size 15 to 20)
#    0.000    1.429    1.429    4.714    0.000    5.143 
#    0.000    5.000    0.000    0.000    0.000    0.000 
#    0.000    0.000    0.000    0.000    0.000    0.000 
#
# Total GULP energy -156495.797924 kJ/mol
# GULP energy per Si atom -5589.135640 kJ/mol
# Density = 2.169955 g / cm^3
# Si number density = 21.749049 Si / 1000 Ang^3
#
#
#
# Elastic Constant Matrix: (Units=GPa)
#
#
# Indices 1 2 3 4 5 6 
#
# 1 59.2940 14.5602 13.7613 0.0000 0.0000 0.0000
# 2 14.5602 127.1381 2.4686 0.0000 0.0000 0.0000
# 3 13.7613 2.4686 30.6807 0.0000 0.0000 0.0000
# 4 0.0000 0.0000 0.0000 -29.0477 0.0000 0.0000
# 5 0.0000 0.0000 0.0000 0.0000 22.3993 0.0000
# 6 0.0000 0.0000 0.0000 0.0000 0.0000 26.3176
#
#
#
# Elastic Compliance Matrix: (Units=1/GPa)
#
#
# Indices 1 2 3 4 5 6 
#
# 1 0.019344 -0.002050 -0.008511 0.000000 0.000000 0.000000
# 2 -0.002050 0.008095 0.000268 0.000000 0.000000 0.000000
# 3 -0.008511 0.000268 0.036390 0.000000 0.000000 0.000000
# 4 0.000000 0.000000 0.000000 -0.034426 0.000000 0.000000
# 5 0.000000 0.000000 0.000000 0.000000 0.044644 0.000000
# 6 0.000000 0.000000 0.000000 0.000000 0.000000 0.037997
#
#
# Mechanical properties :
#
#
# Convention : Reuss Voigt Hill
#
# Bulk Modulus (GPa) = 23.12556 30.96589 27.04572
# Shear Modulus (GPa) = 34.00324 16.35537 25.17930
#
# Velocity S-wave (km/s) = 3.95832 2.74524 3.40622
# Velocity P-wave (km/s) = 5.61668 4.93125 5.28509
#
# Compressibility (1/GPa) = 0.04324220
#
# Stress axis : x y z
#
# Youngs Moduli (GPa) = 51.69589 123.53256 27.48019
#
# Poissons Ratio (x) = 0.25325 0.23390
# Poissons Ratio (y) = 0.10598 -0.00737
# Poissons Ratio (z) = 0.44001 -0.03313
#
# Static dielectric constant tensor:
#      x y z
#    x 1.764510 0.000000 0.000000 
#    y 0.000000 1.795360 0.000000 
#    z 0.000000 0.000000 1.796460 
# 
# From -- ./inp_files/32827.got.cif
#   From: 2010.05.17/outbox.cif.g08.bks.cpg/sg24_17_cif.got.tgz:32827.got - 2010.06.04 00:33:39.
