data_PCOD9334007
_publ_section_title
;
Structure prediction by ZEFSAII (Michael W. Deem and Ramdas Pophale) SiO2 
 PCOD9334007
Probable space group: I 21 21 21
;
_chemical_formula_sum "Si O2"
_cell_formula_units_Z 28
_cell_length_a 16.300683
_cell_length_b 7.254723
_cell_length_c 9.669561
_cell_angle_alpha 90.000000
_cell_angle_beta 90.000000
_cell_angle_gamma 90.000000
_cell_volume 1143.492694
_symmetry_space_group_name_H-M "I 21 21 21"
_symmetry_group_IT_number 24
_symmetry_cell_setting 'orthorhombic'
loop_
_space_group_symop_operation_xyz
x,y,z
-x,1/2-y,z
x,-y,1/2-z
1/2-x,y,-z
1/2+x,1/2+y,1/2+z
1/2-x,-y,1/2+z
1/2+x,1/2-y,-z
-x,1/2+y,1/2-z
loop_
_atom_site_type_symbol
_atom_site_label
_atom_site_fract_x
_atom_site_fract_y
_atom_site_fract_z
Si Si1 0.691070 0.789796 0.793987
Si Si2 0.001687 0.531271 0.551072
Si Si3 0.363381 0.246949 0.389053
Si Si4 0.939968 0.500000 0.250000
O O1 0.670342 0.755411 0.954071
O O2 0.623334 0.666416 0.717558
O O3 0.683344 0.000000 0.750000
O O4 0.787477 0.739379 0.783728
O O5 0.923466 0.426656 0.613733
O O6 0.994747 0.482190 0.386726
O O7 0.000000 0.750000 0.570825
O O8 0.080635 0.429845 0.613196
#
# Coordination Sequence:
#
# PCOD9334007 Si02
#       4
#     8   8   8   4
#     4  10  20  37  58  85 120 158 190 247 298 364
#     4  10  20  34  58  84 118 154 191 248 297 352
#     4   9  21  36  55  88 123 147 198 248 299 355
#     4  10  22  32  58  94 114 146 206 236 298 368
#
# _framework density 24.486384999999999
#
# number of rings (size 3 to 8) (size 9 to 14) (size 15 to 20)
#    0.000    2.286    0.000    1.714   10.000    2.286 
#    0.000    5.714   18.857    0.000    0.000    0.000 
#    0.000    0.000    0.000    0.000    0.000    0.000 
#
# Total GULP energy -78374.860316 kJ/mol
# GULP energy per Si atom -5598.204308 kJ/mol
# Density = 2.443065 g / cm^3
# Si number density = 24.486385 Si / 1000 Ang^3
#
#
#
# Elastic Constant Matrix: (Units=GPa)
#
#
# Indices 1 2 3 4 5 6 
#
# 1 145.5583 50.4515 21.8152 0.0000 0.0000 0.0000
# 2 50.4515 163.8840 -3.5109 0.0000 0.0000 0.0000
# 3 21.8152 -3.5109 91.0241 0.0000 0.0000 0.0000
# 4 0.0000 0.0000 0.0000 18.1880 0.0000 0.0000
# 5 0.0000 0.0000 0.0000 0.0000 10.6564 0.0000
# 6 0.0000 0.0000 0.0000 0.0000 0.0000 31.7328
#
#
#
# Elastic Compliance Matrix: (Units=1/GPa)
#
#
# Indices 1 2 3 4 5 6 
#
# 1 0.008047 -0.002521 -0.002026 0.000000 0.000000 0.000000
# 2 -0.002521 0.006897 0.000870 0.000000 0.000000 0.000000
# 3 -0.002026 0.000870 0.011505 0.000000 0.000000 0.000000
# 4 0.000000 0.000000 0.000000 0.054981 0.000000 0.000000
# 5 0.000000 0.000000 0.000000 0.000000 0.093841 0.000000
# 6 0.000000 0.000000 0.000000 0.000000 0.000000 0.031513
#
#
# Mechanical properties :
#
#
# Convention : Reuss Voigt Hill
#
# Bulk Modulus (GPa) = 52.36675 59.77531 56.07103
# Shear Modulus (GPa) = 22.67547 34.22949 28.45248
#
# Velocity S-wave (km/s) = 3.04640 3.74290 3.41247
# Velocity P-wave (km/s) = 5.81434 6.56839 6.20283
#
# Compressibility (1/GPa) = 0.01909609
#
# Stress axis : x y z
#
# Youngs Moduli (GPa) = 124.26290 145.00018 86.91717
#
# Poissons Ratio (x) = 0.36552 0.17609
# Poissons Ratio (y) = 0.31324 -0.07563
# Poissons Ratio (z) = 0.25175 -0.12617
#
# Static dielectric constant tensor:
#      x y z
#    x 2.011570 0.000000 0.000000 
#    y 0.000000 1.947300 0.000000 
#    z 0.000000 0.000000 1.931280 
# 
# From -- ./inp_files/20328.got.cif
#   From: 2010.05.17/outbox.cif.g08.bks.cpg/sg24_11_cif.got.tgz:20328.got - 2010.06.04 00:33:39.
