data_PCOD9334739
_publ_section_title
;
Structure prediction by ZEFSAII (Michael W. Deem and Ramdas Pophale) SiO2 
 PCOD9334739
Probable space group: I 21 21 21
;
_chemical_formula_sum "Si O2"
_cell_formula_units_Z 60
_cell_length_a 20.035137
_cell_length_b 22.310511
_cell_length_c 6.019921
_cell_angle_alpha 90.000000
_cell_angle_beta 90.000000
_cell_angle_gamma 90.000000
_cell_volume 2690.869437
_symmetry_space_group_name_H-M "I 21 21 21"
_symmetry_group_IT_number 24
_symmetry_cell_setting 'orthorhombic'
loop_
_space_group_symop_operation_xyz
x,y,z
-x,1/2-y,z
x,-y,1/2-z
1/2-x,y,-z
1/2+x,1/2+y,1/2+z
1/2-x,-y,1/2+z
1/2+x,1/2-y,-z
-x,1/2+y,1/2-z
loop_
_atom_site_type_symbol
_atom_site_label
_atom_site_fract_x
_atom_site_fract_y
_atom_site_fract_z
Si Si1 0.681379 0.000000 0.250000
Si Si2 0.682713 0.117985 0.472256
Si Si3 0.442682 0.346677 0.179751
Si Si4 0.676659 0.560474 0.611281
Si Si5 0.675952 0.678833 0.929333
Si Si6 0.083244 0.868735 0.683681
Si Si7 0.403210 0.444276 0.854452
Si Si8 0.430412 0.237132 0.846701
O O1 0.640222 0.979824 0.463888
O O2 0.712568 0.062391 0.323101
O O3 0.750000 0.156165 0.500000
O O4 0.622446 0.145002 0.329856
O O5 0.644712 0.092540 0.688874
O O6 0.511288 0.363257 0.306711
O O7 0.444859 0.397137 0.989049
O O8 0.432083 0.285319 0.045704
O O9 0.663213 0.500000 0.750000
O O10 0.750000 0.554977 0.500000
O O11 0.679426 0.619375 0.771488
O O12 0.619658 0.573692 0.424609
O O13 0.634156 0.731580 0.807404
O O14 0.750000 0.695874 0.000000
O O15 0.635964 0.659944 0.148855
O O16 0.068708 0.825732 0.474204
O O17 0.442930 0.500000 0.750000
O O18 0.500000 0.250000 0.719367
#
# Coordination Sequence:
#
# PCOD9334739 Si02
#       8
#     4   8   8   8   8   8   8   8
#     4   8  18  32  54  84 110 156 204 260 314 388
#     4  10  21  34  59  88 119 164 215 270 323 391
#     4  10  22  42  62  90 133 169 220 284 331 402
#     4  11  23  40  68 104 139 175 219 269 334 419
#     4  11  22  42  71 100 132 173 222 279 336 399
#     4  10  23  42  65  95 130 170 222 273 331 404
#     4   9  19  37  58  86 119 162 209 263 333 388
#     4   9  22  42  66  92 126 177 222 271 341 409
#
# _framework density 22.297626999999999
#
# number of rings (size 3 to 8) (size 9 to 14) (size 15 to 20)
#    0.000    2.133    1.333    0.400    2.800    8.000 
#    0.000   10.667    0.000    0.000    0.000    0.000 
#    0.000    0.000    0.000    0.000    0.000    0.000 
#
# Total GULP energy -167134.598375 kJ/mol
# GULP energy per Si atom -5571.153279 kJ/mol
# Density = 2.224688 g / cm^3
# Si number density = 22.297627 Si / 1000 Ang^3
#
#
#
# Elastic Constant Matrix: (Units=GPa)
#
#
# Indices 1 2 3 4 5 6 
#
# 1 190.4398 50.3176 53.7262 0.0000 0.0000 0.0000
# 2 50.3176 76.6047 21.4005 0.0000 0.0000 0.0000
# 3 53.7262 21.4005 65.1043 0.0000 0.0000 0.0000
# 4 0.0000 0.0000 0.0000 25.3958 0.0000 0.0000
# 5 0.0000 0.0000 0.0000 0.0000 30.7037 0.0000
# 6 0.0000 0.0000 0.0000 0.0000 0.0000 28.1008
#
#
#
# Elastic Compliance Matrix: (Units=1/GPa)
#
#
# Indices 1 2 3 4 5 6 
#
# 1 0.007647 -0.003590 -0.005130 0.000000 0.000000 0.000000
# 2 -0.003590 0.016059 -0.002317 0.000000 0.000000 0.000000
# 3 -0.005130 -0.002317 0.020355 0.000000 0.000000 0.000000
# 4 0.000000 0.000000 0.000000 0.039377 0.000000 0.000000
# 5 0.000000 0.000000 0.000000 0.000000 0.032569 0.000000
# 6 0.000000 0.000000 0.000000 0.000000 0.000000 0.035586
#
#
# Mechanical properties :
#
#
# Convention : Reuss Voigt Hill
#
# Bulk Modulus (GPa) = 45.47952 64.78193 55.13072
# Shear Modulus (GPa) = 27.62497 30.62036 29.12267
#
# Velocity S-wave (km/s) = 3.52365 3.70977 3.61790
# Velocity P-wave (km/s) = 6.08240 6.88957 6.49853
#
# Compressibility (1/GPa) = 0.02198792
#
# Stress axis : x y z
#
# Youngs Moduli (GPa) = 130.77343 62.27056 49.12725
#
# Poissons Ratio (x) = 0.22352 0.25205
# Poissons Ratio (y) = 0.46941 0.11381
# Poissons Ratio (z) = 0.67093 0.14425
#
# Static dielectric constant tensor:
#      x y z
#    x 1.921500 0.000000 0.000000 
#    y 0.000000 1.911270 0.000000 
#    z 0.000000 0.000000 1.884660 
# 
# From -- ./inp_files/5846.got.cif
#   From: 2010.05.17/outbox.cif.g08.bks.cpg/sg24_3_cif.got.tgz:5846.got - 2010.06.04 00:33:39.
