data_PCOD9334121
_publ_section_title
;
Structure prediction by ZEFSAII (Michael W. Deem and Ramdas Pophale) SiO2 
 PCOD9334121
Probable space group: I 21 21 21
;
_chemical_formula_sum "Si O2"
_cell_formula_units_Z 40
_cell_length_a 25.975074
_cell_length_b 5.700659
_cell_length_c 12.592111
_cell_angle_alpha 90.000000
_cell_angle_beta 90.000000
_cell_angle_gamma 90.000000
_cell_volume 1864.577332
_symmetry_space_group_name_H-M "I 21 21 21"
_symmetry_group_IT_number 24
_symmetry_cell_setting 'orthorhombic'
loop_
_space_group_symop_operation_xyz
x,y,z
-x,1/2-y,z
x,-y,1/2-z
1/2-x,y,-z
1/2+x,1/2+y,1/2+z
1/2-x,-y,1/2+z
1/2+x,1/2-y,-z
-x,1/2+y,1/2-z
loop_
_atom_site_type_symbol
_atom_site_label
_atom_site_fract_x
_atom_site_fract_y
_atom_site_fract_z
Si Si1 0.618299 0.343161 0.885196
Si Si2 0.691889 0.205602 0.052536
Si Si3 0.707469 0.500000 0.750000
Si Si4 0.555553 0.000000 0.750000
Si Si5 0.013563 0.007714 0.464568
Si Si6 0.717533 0.281517 0.389146
O O1 0.669424 0.469103 0.847124
O O2 0.573633 0.497168 0.935936
O O3 0.592548 0.212307 0.784759
O O4 0.644062 0.173929 0.971227
O O5 0.688100 0.466454 0.104466
O O6 0.689158 0.965085 0.117627
O O7 0.750000 0.209515 0.000000
O O8 0.744338 0.295055 0.711524
O O9 0.519514 0.980004 0.853796
O O10 0.000000 0.250000 0.522447
O O11 0.000000 0.750000 0.510489
O O12 0.750000 0.275284 0.500000
#
# Coordination Sequence:
#
# PCOD9334121 Si02
#       6
#     8   8   4   4   8   8
#     4  11  22  33  60  80 108 173 202 239 326 360
#     4  10  21  40  49  76 115 141 203 272 282 349
#     4  12  21  34  58  82 102 170 210 243 326 360
#     4  10  21  32  50  82 112 142 206 241 280 376
#     4  10  20  36  47  75 114 135 191 252 269 354
#     4  10  22  38  51  75 115 137 201 280 284 347
#
# _framework density 21.452583000000001
#
# number of rings (size 3 to 8) (size 9 to 14) (size 15 to 20)
#    0.000    1.600    4.000    3.600    5.600    4.000 
#    0.000    0.000    0.000    0.000    0.000    0.000 
#    0.000    0.000    0.000   37.800    4.000   34.600 
#
# Total GULP energy -111380.950578 kJ/mol
# GULP energy per Si atom -5569.047529 kJ/mol
# Density = 2.140376 g / cm^3
# Si number density = 21.452583 Si / 1000 Ang^3
#
#
#
# Elastic Constant Matrix: (Units=GPa)
#
#
# Indices 1 2 3 4 5 6 
#
# 1 83.2265 32.1660 28.7595 0.0000 0.0000 0.0000
# 2 32.1660 182.9251 12.2925 0.0000 0.0000 0.0000
# 3 28.7595 12.2925 22.2961 0.0000 0.0000 0.0000
# 4 0.0000 0.0000 0.0000 11.9467 0.0000 0.0000
# 5 0.0000 0.0000 0.0000 0.0000 9.0776 0.0000
# 6 0.0000 0.0000 0.0000 0.0000 0.0000 26.6235
#
#
#
# Elastic Compliance Matrix: (Units=1/GPa)
#
#
# Indices 1 2 3 4 5 6 
#
# 1 0.022412 -0.002075 -0.027764 0.000000 0.000000 0.000000
# 2 -0.002075 0.005869 -0.000559 0.000000 0.000000 0.000000
# 3 -0.027764 -0.000559 0.080972 0.000000 0.000000 0.000000
# 4 0.000000 0.000000 0.000000 0.083705 0.000000 0.000000
# 5 0.000000 0.000000 0.000000 0.000000 0.110162 0.000000
# 6 0.000000 0.000000 0.000000 0.000000 0.000000 0.037561
#
#
# Mechanical properties :
#
#
# Convention : Reuss Voigt Hill
#
# Bulk Modulus (GPa) = 20.63741 48.32042 34.47892
# Shear Modulus (GPa) = 11.97230 23.87820 17.92525
#
# Velocity S-wave (km/s) = 2.36494 3.33989 2.89377
# Velocity P-wave (km/s) = 4.13499 6.11934 5.22228
#
# Compressibility (1/GPa) = 0.04845569
#
# Stress axis : x y z
#
# Youngs Moduli (GPa) = 44.61972 170.38120 12.34989
#
# Poissons Ratio (x) = 0.35357 0.34289
# Poissons Ratio (y) = 0.09259 0.00691
# Poissons Ratio (z) = 1.23884 0.09527
#
# Static dielectric constant tensor:
#      x y z
#    x 1.771580 0.000000 0.000000 
#    y 0.000000 1.904240 0.000000 
#    z 0.000000 0.000000 1.890990 
# 
# From -- ./inp_files/17649.got.cif
#   From: 2010.05.17/outbox.cif.g08.bks.cpg/sg24_9_cif.got.tgz:17649.got - 2010.06.04 00:33:39.
