data_PCOD9334251
_publ_section_title
;
Structure prediction by ZEFSAII (Michael W. Deem and Ramdas Pophale) SiO2 
 PCOD9334251
Probable space group: I 21 21 21
;
_chemical_formula_sum "Si O2"
_cell_formula_units_Z 40
_cell_length_a 15.831582
_cell_length_b 14.283028
_cell_length_c 7.474935
_cell_angle_alpha 90.000000
_cell_angle_beta 90.000000
_cell_angle_gamma 90.000000
_cell_volume 1690.254196
_symmetry_space_group_name_H-M "I 21 21 21"
_symmetry_group_IT_number 24
_symmetry_cell_setting 'orthorhombic'
loop_
_space_group_symop_operation_xyz
x,y,z
-x,1/2-y,z
x,-y,1/2-z
1/2-x,y,-z
1/2+x,1/2+y,1/2+z
1/2-x,-y,1/2+z
1/2+x,1/2-y,-z
-x,1/2+y,1/2-z
loop_
_atom_site_type_symbol
_atom_site_label
_atom_site_fract_x
_atom_site_fract_y
_atom_site_fract_z
Si Si1 0.387937 0.150269 0.828212
Si Si2 0.712092 0.656611 0.195819
Si Si3 0.958086 0.976821 0.448427
Si Si4 0.540830 0.345803 0.427619
Si Si5 0.839559 0.177568 0.923400
O O1 0.289459 0.119052 0.814765
O O2 0.451984 0.074209 0.907022
O O3 0.421760 0.173260 0.628284
O O4 0.381887 0.243445 0.947279
O O5 0.689136 0.763325 0.250619
O O6 0.750000 0.652179 0.000000
O O7 0.618542 0.614692 0.189383
O O8 0.902667 0.907842 0.566386
O O9 0.921603 0.000000 0.250000
O O10 0.973136 0.074311 0.544484
O O11 0.500000 0.250000 0.357054
O O12 0.750000 0.144739 0.000000
#
# Coordination Sequence:
#
# PCOD9334251 Si02
#       5
#     8   8   8   8   8
#     4   9  18  37  63  89 119 159 209 262 317 373
#     4   9  20  39  61  88 125 168 207 258 323 378
#     4  10  20  37  65  95 123 163 213 266 322 380
#     4  10  20  37  59  86 125 165 203 256 320 379
#     4  10  20  38  64  92 121 161 210 260 313 380
#
# _framework density 23.665078000000001
#
# number of rings (size 3 to 8) (size 9 to 14) (size 15 to 20)
#    0.000    2.400    0.000    3.000    0.000    1.600 
#    0.000   34.000    0.000    0.000    0.000    0.000 
#    0.000    0.000    0.000    0.000    0.000    0.000 
#
# Total GULP energy -111727.095802 kJ/mol
# GULP energy per Si atom -5586.354790 kJ/mol
# Density = 2.361122 g / cm^3
# Si number density = 23.665078 Si / 1000 Ang^3
#
#
#
# Elastic Constant Matrix: (Units=GPa)
#
#
# Indices 1 2 3 4 5 6 
#
# 1 65.6318 19.4268 4.0583 0.0000 0.0000 0.0000
# 2 19.4268 84.2148 -18.6689 0.0000 0.0000 0.0000
# 3 4.0583 -18.6689 24.9687 0.0000 0.0000 0.0000
# 4 0.0000 0.0000 0.0000 17.8283 0.0000 0.0000
# 5 0.0000 0.0000 0.0000 0.0000 22.2246 0.0000
# 6 0.0000 0.0000 0.0000 0.0000 0.0000 12.1881
#
#
#
# Elastic Compliance Matrix: (Units=1/GPa)
#
#
# Indices 1 2 3 4 5 6 
#
# 1 0.017304 -0.005532 -0.006949 0.000000 0.000000 0.000000
# 2 -0.005532 0.016002 0.012864 0.000000 0.000000 0.000000
# 3 -0.006949 0.012864 0.050798 0.000000 0.000000 0.000000
# 4 0.000000 0.000000 0.000000 0.056091 0.000000 0.000000
# 5 0.000000 0.000000 0.000000 0.000000 0.044995 0.000000
# 6 0.000000 0.000000 0.000000 0.000000 0.000000 0.082047
#
#
# Mechanical properties :
#
#
# Convention : Reuss Voigt Hill
#
# Bulk Modulus (GPa) = 11.78273 20.49418 16.13846
# Shear Modulus (GPa) = 16.96292 21.78146 19.37219
#
# Velocity S-wave (km/s) = 2.68020 3.03711 2.86422
# Velocity P-wave (km/s) = 3.81677 4.58013 4.21576
#
# Compressibility (1/GPa) = 0.08486995
#
# Stress axis : x y z
#
# Youngs Moduli (GPa) = 57.79126 62.49127 19.68591
#
# Poissons Ratio (x) = 0.34570 0.13679
# Poissons Ratio (y) = 0.31970 -0.25324
# Poissons Ratio (z) = 0.40157 -0.80388
#
# Static dielectric constant tensor:
#      x y z
#    x 1.931870 0.000000 0.000000 
#    y 0.000000 1.844780 0.000000 
#    z 0.000000 0.000000 1.971850 
# 
# From -- ./inp_files/12287.got.cif
#   From: 2010.05.17/outbox.cif.g08.bks.cpg/sg24_7_cif.got.tgz:12287.got - 2010.06.04 00:33:39.
