data_PCOD9334217
_publ_section_title
;
Structure prediction by ZEFSAII (Michael W. Deem and Ramdas Pophale) SiO2 
 PCOD9334217
Probable space group: I 21 21 21
;
_chemical_formula_sum "Si O2"
_cell_formula_units_Z 40
_cell_length_a 4.877012
_cell_length_b 17.167625
_cell_length_c 18.799167
_cell_angle_alpha 90.000000
_cell_angle_beta 90.000000
_cell_angle_gamma 90.000000
_cell_volume 1573.992463
_symmetry_space_group_name_H-M "I 21 21 21"
_symmetry_group_IT_number 24
_symmetry_cell_setting 'orthorhombic'
loop_
_space_group_symop_operation_xyz
x,y,z
-x,1/2-y,z
x,-y,1/2-z
1/2-x,y,-z
1/2+x,1/2+y,1/2+z
1/2-x,-y,1/2+z
1/2+x,1/2-y,-z
-x,1/2+y,1/2-z
loop_
_atom_site_type_symbol
_atom_site_label
_atom_site_fract_x
_atom_site_fract_y
_atom_site_fract_z
Si Si1 0.527592 0.500000 0.750000
Si Si2 0.750000 0.869244 0.500000
Si Si3 0.483303 0.133503 0.452612
Si Si4 0.750000 0.512489 0.500000
Si Si5 0.800221 0.345358 0.774361
Si Si6 0.195639 0.356616 0.313192
Si Si7 0.000000 0.750000 0.390771
O O1 0.717541 0.435245 0.786073
O O2 0.346502 0.450341 0.694432
O O3 0.499354 0.928740 0.497127
O O4 0.821895 0.810168 0.436605
O O5 0.250000 0.179132 0.500000
O O6 0.632828 0.164712 0.382493
O O7 0.750000 0.114293 0.500000
O O8 0.185501 0.052947 0.561308
O O9 0.112448 0.335420 0.753370
O O10 0.700341 0.299485 0.841559
O O11 0.608406 0.326160 0.704733
#
# Coordination Sequence:
#
# PCOD9334217 Si02
#       7
#     4   4   8   4   8   8   4
#     4   8  22  36  66  90 122 164 224 294 320 394
#     4  12  27  44  64  88 138 194 229 268 311 408
#     4  10  20  36  65 103 139 165 213 283 348 411
#     4  10  23  38  66  96 134 186 217 274 323 408
#     4  10  24  40  67  89 129 172 226 287 334 401
#     4  10  21  39  62  97 126 171 215 287 345 389
#     4  12  30  50  64  98 136 194 242 272 336 410
#
# _framework density 25.413083
#
# number of rings (size 3 to 8) (size 9 to 14) (size 15 to 20)
#    1.800    0.000    1.000    2.400    2.800    8.800 
#    0.000    0.000    0.000    0.000    0.000   14.000 
#    0.000    0.000    0.000    0.000    0.000    0.000 
#
# Total GULP energy -111635.934857 kJ/mol
# GULP energy per Si atom -5581.796743 kJ/mol
# Density = 2.535524 g / cm^3
# Si number density = 25.413083 Si / 1000 Ang^3
#
#
#
# Elastic Constant Matrix: (Units=GPa)
#
#
# Indices 1 2 3 4 5 6 
#
# 1 163.9028 6.6340 30.3621 0.0000 0.0000 0.0000
# 2 6.6340 99.5759 18.5387 0.0000 0.0000 0.0000
# 3 30.3621 18.5387 93.1580 0.0000 0.0000 0.0000
# 4 0.0000 0.0000 0.0000 7.7118 0.0000 0.0000
# 5 0.0000 0.0000 0.0000 0.0000 -43.5028 0.0000
# 6 0.0000 0.0000 0.0000 0.0000 0.0000 38.5520
#
#
#
# Elastic Compliance Matrix: (Units=1/GPa)
#
#
# Indices 1 2 3 4 5 6 
#
# 1 0.006493 -0.000040 -0.002108 0.000000 0.000000 0.000000
# 2 -0.000040 0.010429 -0.002062 0.000000 0.000000 0.000000
# 3 -0.002108 -0.002062 0.011832 0.000000 0.000000 0.000000
# 4 0.000000 0.000000 0.000000 0.129671 0.000000 0.000000
# 5 0.000000 0.000000 0.000000 0.000000 -0.022987 0.000000
# 6 0.000000 0.000000 0.000000 0.000000 0.000000 0.025939
#
#
# Mechanical properties :
#
#
# Convention : Reuss Voigt Hill
#
# Bulk Modulus (GPa) = 49.18113 51.96736 50.57425
# Shear Modulus (GPa) = 28.31628 20.62566 24.47097
#
# Velocity S-wave (km/s) = 3.34165 2.85198 3.10647
# Velocity P-wave (km/s) = 5.85521 5.59808 5.72809
#
# Compressibility (1/GPa) = 0.02033300
#
# Stress axis : x y z
#
# Youngs Moduli (GPa) = 154.00350 95.88433 84.51637
#
# Poissons Ratio (x) = 0.00384 0.17819
# Poissons Ratio (y) = 0.00617 0.17431
# Poissons Ratio (z) = 0.32469 0.19775
#
# Static dielectric constant tensor:
#      x y z
#    x 1.942290 0.000000 0.000000 
#    y 0.000000 2.375260 0.000000 
#    z 0.000000 0.000000 2.042610 
# 
# From -- ./inp_files/28735.got.cif
#   From: 2010.05.17/outbox.cif.g08.bks.cpg/sg24_15_cif.got.tgz:28735.got - 2010.06.04 00:33:39.
