data_PCOD9334203
_publ_section_title
;
Structure prediction by ZEFSAII (Michael W. Deem and Ramdas Pophale) SiO2 
 PCOD9334203
Probable space group: I 21 21 21
;
_chemical_formula_sum "Si O2"
_cell_formula_units_Z 48
_cell_length_a 7.849678
_cell_length_b 12.561072
_cell_length_c 24.954582
_cell_angle_alpha 90.000000
_cell_angle_beta 90.000000
_cell_angle_gamma 90.000000
_cell_volume 2460.531032
_symmetry_space_group_name_H-M "I 21 21 21"
_symmetry_group_IT_number 24
_symmetry_cell_setting 'orthorhombic'
loop_
_space_group_symop_operation_xyz
x,y,z
-x,1/2-y,z
x,-y,1/2-z
1/2-x,y,-z
1/2+x,1/2+y,1/2+z
1/2-x,-y,1/2+z
1/2+x,1/2-y,-z
-x,1/2+y,1/2-z
loop_
_atom_site_type_symbol
_atom_site_label
_atom_site_fract_x
_atom_site_fract_y
_atom_site_fract_z
Si Si1 0.527454 0.878200 0.651393
Si Si2 0.775603 0.565476 0.118088
Si Si3 0.918853 0.867511 0.465072
Si Si4 0.767524 0.167985 0.253596
Si Si5 0.500000 0.250000 0.653410
Si Si6 0.250000 0.000183 0.500000
Si Si7 0.618527 0.390306 0.272455
O O1 0.500000 0.750000 0.652237
O O2 0.629189 0.897432 0.596050
O O3 0.631429 0.891936 0.706475
O O4 0.365918 0.956393 0.640583
O O5 0.908865 0.661866 0.118378
O O6 0.712255 0.553938 0.057546
O O7 0.644945 0.604576 0.163746
O O8 0.750000 0.872479 0.500000
O O9 0.000000 0.750000 0.464866
O O10 0.075950 0.937170 0.486530
O O11 0.720708 0.293676 0.244564
O O12 0.581045 0.120174 0.261255
O O13 0.880394 0.180232 0.306790
O O14 0.686883 0.500000 0.250000
#
# Coordination Sequence:
#
# PCOD9334203 Si02
#       7
#     8   8   8   8   4   4   8
#     4  10  20  36  63  92 120 166 201 244 320 388
#     4  10  23  41  65  87 125 164 211 265 312 369
#     4  10  20  37  61  92 129 166 206 252 310 379
#     4  10  21  38  58  89 125 157 204 247 312 377
#     4  10  22  40  62  86 118 162 212 258 304 366
#     4  10  22  44  64  88 124 172 214 266 320 366
#     4  10  22  37  57  90 126 160 198 255 312 366
#
# _framework density 19.507982999999999
#
# number of rings (size 3 to 8) (size 9 to 14) (size 15 to 20)
#    0.000    2.000    1.667    1.000    4.667    1.333 
#    6.000    3.333    1.833    0.000    0.000    0.000 
#    0.000    0.000    0.000    0.000    0.000    0.000 
#
# Total GULP energy -133639.481012 kJ/mol
# GULP energy per Si atom -5568.311709 kJ/mol
# Density = 1.946358 g / cm^3
# Si number density = 19.507983 Si / 1000 Ang^3
#
#
#
# Elastic Constant Matrix: (Units=GPa)
#
#
# Indices 1 2 3 4 5 6 
#
# 1 47.3533 0.9082 28.0303 0.0000 0.0000 0.0000
# 2 0.9082 71.4205 28.3363 0.0000 0.0000 0.0000
# 3 28.0303 28.3363 131.4804 0.0000 0.0000 0.0000
# 4 0.0000 0.0000 0.0000 13.9462 0.0000 0.0000
# 5 0.0000 0.0000 0.0000 0.0000 25.4828 0.0000
# 6 0.0000 0.0000 0.0000 0.0000 0.0000 13.6683
#
#
#
# Elastic Compliance Matrix: (Units=1/GPa)
#
#
# Indices 1 2 3 4 5 6 
#
# 1 0.024406 0.001918 -0.005616 0.000000 0.000000 0.000000
# 2 0.001918 0.015461 -0.003741 0.000000 0.000000 0.000000
# 3 -0.005616 -0.003741 0.009609 0.000000 0.000000 0.000000
# 4 0.000000 0.000000 0.000000 0.071704 0.000000 0.000000
# 5 0.000000 0.000000 0.000000 0.000000 0.039242 0.000000
# 6 0.000000 0.000000 0.000000 0.000000 0.000000 0.073162
#
#
# Mechanical properties :
#
#
# Convention : Reuss Voigt Hill
#
# Bulk Modulus (GPa) = 28.90390 40.53375 34.71883
# Shear Modulus (GPa) = 19.23105 23.48475 21.35790
#
# Velocity S-wave (km/s) = 3.14316 3.47342 3.31241
# Velocity P-wave (km/s) = 5.29351 6.07531 5.69783
#
# Compressibility (1/GPa) = 0.03459740
#
# Stress axis : x y z
#
# Youngs Moduli (GPa) = 40.97414 64.67680 104.06559
#
# Poissons Ratio (x) = -0.12405 0.58447
# Poissons Ratio (y) = -0.07859 0.38932
# Poissons Ratio (z) = 0.23013 0.24196
#
# Static dielectric constant tensor:
#      x y z
#    x 1.680950 0.000000 0.000000 
#    y 0.000000 1.748930 0.000000 
#    z 0.000000 0.000000 1.697920 
# 
# From -- ./inp_files/35177.got.cif
#   From: 2010.05.17/outbox.cif.g08.bks.cpg/sg24_18_cif.got.tgz:35177.got - 2010.06.04 00:33:39.
