data_PCOD9334612
_publ_section_title
;
Structure prediction by ZEFSAII (Michael W. Deem and Ramdas Pophale) SiO2 
 PCOD9334612
Probable space group: I 21 21 21
;
_chemical_formula_sum "Si O2"
_cell_formula_units_Z 44
_cell_length_a 14.004219
_cell_length_b 12.806962
_cell_length_c 11.901840
_cell_angle_alpha 90.000000
_cell_angle_beta 90.000000
_cell_angle_gamma 90.000000
_cell_volume 2134.612864
_symmetry_space_group_name_H-M "I 21 21 21"
_symmetry_group_IT_number 24
_symmetry_cell_setting 'orthorhombic'
loop_
_space_group_symop_operation_xyz
x,y,z
-x,1/2-y,z
x,-y,1/2-z
1/2-x,y,-z
1/2+x,1/2+y,1/2+z
1/2-x,-y,1/2+z
1/2+x,1/2-y,-z
-x,1/2+y,1/2-z
loop_
_atom_site_type_symbol
_atom_site_label
_atom_site_fract_x
_atom_site_fract_y
_atom_site_fract_z
Si Si1 0.250000 0.119148 0.500000
Si Si2 0.421216 0.013656 0.115896
Si Si3 0.000000 0.750000 0.308304
Si Si4 0.793122 0.226310 0.298906
Si Si5 0.565790 0.918663 0.538533
Si Si6 0.311943 0.500000 0.750000
Si Si7 0.331707 0.228154 0.085972
O O1 0.213388 0.198628 0.404827
O O2 0.332887 0.048758 0.441060
O O3 0.407937 0.137713 0.099817
O O4 0.428839 0.000000 0.250000
O O5 0.515974 0.995857 0.040708
O O6 0.096387 0.732559 0.239771
O O7 0.990044 0.649706 0.388807
O O8 0.763125 0.104138 0.298980
O O9 0.722789 0.267047 0.203240
O O10 0.629673 0.964714 0.638991
O O11 0.625943 0.836171 0.463124
O O12 0.250000 0.193987 0.000000
#
# Coordination Sequence:
#
# PCOD9334612 Si02
#       7
#     4   8   4   8   8   4   8
#     4  12  28  42  70 100 148 164 230 300 338 418
#     4  12  25  44  65 103 135 186 221 276 359 409
#     4  10  20  40  70  92 134 170 228 274 314 408
#     4  11  25  44  65 106 133 181 223 287 344 398
#     4  11  23  42  68 102 131 179 234 280 327 412
#     4  10  24  44  72  94 130 178 234 274 338 406
#     4  12  20  44  71  94 137 178 234 278 329 412
#
# _framework density 20.612635999999998
#
# number of rings (size 3 to 8) (size 9 to 14) (size 15 to 20)
#    0.000    0.727    8.182    0.000    5.091    1.455 
#    4.909    0.000    0.000    0.000    0.000    0.000 
#    0.000    0.000    0.000    0.000    0.000    0.000 
#
# Total GULP energy -122605.137181 kJ/mol
# GULP energy per Si atom -5572.960781 kJ/mol
# Density = 2.056572 g / cm^3
# Si number density = 20.612636 Si / 1000 Ang^3
#
#
#
# Elastic Constant Matrix: (Units=GPa)
#
#
# Indices 1 2 3 4 5 6 
#
# 1 42.8267 7.7309 38.6792 0.0000 0.0000 0.0000
# 2 7.7309 63.4193 46.3967 0.0000 0.0000 0.0000
# 3 38.6792 46.3967 164.3849 0.0000 0.0000 0.0000
# 4 0.0000 0.0000 0.0000 42.8703 0.0000 0.0000
# 5 0.0000 0.0000 0.0000 0.0000 22.0546 0.0000
# 6 0.0000 0.0000 0.0000 0.0000 0.0000 0.7887
#
#
#
# Elastic Compliance Matrix: (Units=1/GPa)
#
#
# Indices 1 2 3 4 5 6 
#
# 1 0.029829 0.001889 -0.007552 0.000000 0.000000 0.000000
# 2 0.001889 0.019991 -0.006087 0.000000 0.000000 0.000000
# 3 -0.007552 -0.006087 0.009578 0.000000 0.000000 0.000000
# 4 0.000000 0.000000 0.000000 0.023326 0.000000 0.000000
# 5 0.000000 0.000000 0.000000 0.000000 0.045342 0.000000
# 6 0.000000 0.000000 0.000000 0.000000 0.000000 1.267987
#
#
# Mechanical properties :
#
#
# Convention : Reuss Voigt Hill
#
# Bulk Modulus (GPa) = 27.85630 50.69384 39.27507
# Shear Modulus (GPa) = 3.49279 24.99765 14.24522
#
# Velocity S-wave (km/s) = 1.30314 3.48621 2.63171
# Velocity P-wave (km/s) = 3.97590 6.39155 5.32257
#
# Compressibility (1/GPa) = 0.03589852
#
# Stress axis : x y z
#
# Youngs Moduli (GPa) = 33.52391 50.02310 104.40470
#
# Poissons Ratio (x) = -0.09447 0.78844
# Poissons Ratio (y) = -0.06331 0.63547
# Poissons Ratio (z) = 0.25317 0.30447
#
# Static dielectric constant tensor:
#      x y z
#    x 1.751960 0.000000 0.000000 
#    y 0.000000 1.802930 0.000000 
#    z 0.000000 0.000000 1.777050 
# 
# From -- ./inp_files/20694.got.cif
#   From: 2010.05.17/outbox.cif.g08.bks.cpg/sg24_11_cif.got.tgz:20694.got - 2010.06.04 00:33:39.
