data_PCOD9334766
_publ_section_title
;
Structure prediction by ZEFSAII (Michael W. Deem and Ramdas Pophale) SiO2 
 PCOD9334766
Probable space group: I 21 21 21
;
_chemical_formula_sum "Si O2"
_cell_formula_units_Z 52
_cell_length_a 9.096108
_cell_length_b 9.565706
_cell_length_c 28.715600
_cell_angle_alpha 90.000000
_cell_angle_beta 90.000000
_cell_angle_gamma 90.000000
_cell_volume 2498.564310
_symmetry_space_group_name_H-M "I 21 21 21"
_symmetry_group_IT_number 24
_symmetry_cell_setting 'orthorhombic'
loop_
_space_group_symop_operation_xyz
x,y,z
-x,1/2-y,z
x,-y,1/2-z
1/2-x,y,-z
1/2+x,1/2+y,1/2+z
1/2-x,-y,1/2+z
1/2+x,1/2-y,-z
-x,1/2+y,1/2-z
loop_
_atom_site_type_symbol
_atom_site_label
_atom_site_fract_x
_atom_site_fract_y
_atom_site_fract_z
Si Si1 0.250000 0.937364 0.000000
Si Si2 0.672569 0.481057 0.096491
Si Si3 0.665594 0.691899 0.667944
Si Si4 0.897569 0.061117 0.848433
Si Si5 0.627164 0.000000 0.250000
Si Si6 0.000000 0.250000 0.448737
Si Si7 0.326394 0.771915 0.769506
Si Si8 0.254887 0.727646 0.874108
O O1 0.390574 0.845417 0.980765
O O2 0.201064 0.034603 0.957504
O O3 0.803863 0.422676 0.128600
O O4 0.527217 0.410512 0.116157
O O5 0.661866 0.648836 0.102516
O O6 0.500000 0.750000 0.666394
O O7 0.775330 0.820260 0.656542
O O8 0.698421 0.642369 0.721246
O O9 0.961808 0.035830 0.796368
O O10 0.826134 0.915302 0.863111
O O11 0.733174 0.869244 0.239939
O O12 0.115993 0.311776 0.410681
O O13 0.500000 0.750000 0.768952
O O14 0.294407 0.797375 0.823889
#
# Coordination Sequence:
#
# PCOD9334766 Si02
#       8
#     4   8   8   8   4   4   8   8
#     4  10  26  42  66  90 128 158 222 268 332 372
#     4  11  24  42  61  90 123 162 215 264 321 379
#     4  10  23  39  62  89 130 172 207 251 310 382
#     4  10  21  39  64  88 132 167 204 251 318 376
#     4   8  18  32  52  88 124 168 204 244 298 388
#     4  10  22  40  64  92 128 158 206 268 328 364
#     4   9  17  32  53  89 126 163 204 249 308 378
#     4  10  21  35  66  97 122 159 210 264 317 380
#
# _framework density 20.811951000000001
#
# number of rings (size 3 to 8) (size 9 to 14) (size 15 to 20)
#    0.000    2.154    0.769    0.923    8.615    4.308 
#    0.000    6.154    0.000    0.000    0.000    0.000 
#    0.000    0.000    0.000    0.000    0.000    0.000 
#
# Total GULP energy -144810.680597 kJ/mol
# GULP energy per Si atom -5569.641561 kJ/mol
# Density = 2.076458 g / cm^3
# Si number density = 20.811951 Si / 1000 Ang^3
#
#
#
# Elastic Constant Matrix: (Units=GPa)
#
#
# Indices 1 2 3 4 5 6 
#
# 1 102.3908 21.8279 54.8385 0.0000 0.0000 0.0000
# 2 21.8279 59.5064 35.9029 0.0000 0.0000 0.0000
# 3 54.8385 35.9029 185.1147 0.0000 0.0000 0.0000
# 4 0.0000 0.0000 0.0000 34.0777 0.0000 0.0000
# 5 0.0000 0.0000 0.0000 0.0000 -123.2071 0.0000
# 6 0.0000 0.0000 0.0000 0.0000 0.0000 10.2852
#
#
#
# Elastic Compliance Matrix: (Units=1/GPa)
#
#
# Indices 1 2 3 4 5 6 
#
# 1 0.011939 -0.002543 -0.003044 0.000000 0.000000 0.000000
# 2 -0.002543 0.019574 -0.003043 0.000000 0.000000 0.000000
# 3 -0.003044 -0.003043 0.006894 0.000000 0.000000 0.000000
# 4 0.000000 0.000000 0.000000 0.029345 0.000000 0.000000
# 5 0.000000 0.000000 0.000000 0.000000 -0.008116 0.000000
# 6 0.000000 0.000000 0.000000 0.000000 0.000000 0.097227
#
#
# Mechanical properties :
#
#
# Convention : Reuss Voigt Hill
#
# Bulk Modulus (GPa) = 47.28746 63.57227 55.42986
# Shear Modulus (GPa) = 27.59841 -0.13934 13.72954
#
# Velocity S-wave (km/s) = 3.64550 -0.25903 2.57124
# Velocity P-wave (km/s) = 6.36319 5.52475 5.95873
#
# Compressibility (1/GPa) = 0.02114726
#
# Stress axis : x y z
#
# Youngs Moduli (GPa) = 83.76142 51.08898 145.05692
#
# Poissons Ratio (x) = 0.12992 0.44148
# Poissons Ratio (y) = 0.21301 0.44140
# Poissons Ratio (z) = 0.25493 0.15546
#
# Static dielectric constant tensor:
#      x y z
#    x 1.762370 0.000000 0.000000 
#    y 0.000000 1.804750 0.000000 
#    z 0.000000 0.000000 1.801890 
# 
# From -- ./inp_files/36910.got.cif
#   From: 2010.05.17/outbox.cif.g08.bks.cpg/sg24_19_cif.got.tgz:36910.got - 2010.06.04 00:33:39.
