data_PCOD9334565
_publ_section_title
;
Structure prediction by ZEFSAII (Michael W. Deem and Ramdas Pophale) SiO2 
 PCOD9334565
Probable space group: I 21 21 21
;
_chemical_formula_sum "Si O2"
_cell_formula_units_Z 36
_cell_length_a 27.312372
_cell_length_b 10.975592
_cell_length_c 5.562361
_cell_angle_alpha 90.000000
_cell_angle_beta 90.000000
_cell_angle_gamma 90.000000
_cell_volume 1667.425907
_symmetry_space_group_name_H-M "I 21 21 21"
_symmetry_group_IT_number 24
_symmetry_cell_setting 'orthorhombic'
loop_
_space_group_symop_operation_xyz
x,y,z
-x,1/2-y,z
x,-y,1/2-z
1/2-x,y,-z
1/2+x,1/2+y,1/2+z
1/2-x,-y,1/2+z
1/2+x,1/2-y,-z
-x,1/2+y,1/2-z
loop_
_atom_site_type_symbol
_atom_site_label
_atom_site_fract_x
_atom_site_fract_y
_atom_site_fract_z
Si Si1 0.959375 0.429588 0.992909
Si Si2 0.639677 0.000000 0.750000
Si Si3 0.219593 0.865100 0.748184
Si Si4 0.069991 0.662264 0.577435
Si Si5 0.158529 0.366507 0.645628
O O1 0.957118 0.500000 0.250000
O O2 0.931698 0.300747 0.011822
O O3 0.015642 0.391150 0.933061
O O4 0.942556 0.500000 0.750000
O O5 0.604126 0.924068 0.579261
O O6 0.671020 0.106452 0.629365
O O7 0.250000 0.860556 0.500000
O O8 0.184217 0.749525 0.747761
O O9 0.195423 0.000000 0.750000
O O10 0.250000 0.857935 0.000000
O O11 0.099767 0.656569 0.828568
O O12 0.171870 0.500000 0.750000
#
# Coordination Sequence:
#
# PCOD9334565 Si02
#       5
#     8   4   8   8   8
#     4  11  24  40  62  93 127 175 223 270 324 386
#     4  10  20  40  64  94 126 176 208 274 328 386
#     4  10  24  46  70  98 134 173 211 266 336 402
#     4  10  23  39  64  88 133 170 219 274 327 379
#     4  10  23  40  66  98 129 174 219 271 329 393
#
# _framework density 21.590163
#
# number of rings (size 3 to 8) (size 9 to 14) (size 15 to 20)
#    0.000    1.778    1.111    2.000    9.333    3.556 
#    0.000    0.000    0.000    0.000    0.000    0.000 
#    0.000    0.000    0.000    0.000    0.000    0.000 
#
# Total GULP energy -100201.311686 kJ/mol
# GULP energy per Si atom -5566.739538 kJ/mol
# Density = 2.154102 g / cm^3
# Si number density = 21.590163 Si / 1000 Ang^3
#
#
#
# Elastic Constant Matrix: (Units=GPa)
#
#
# Indices 1 2 3 4 5 6 
#
# 1 26.7482 51.2568 21.4141 0.0000 0.0000 0.0000
# 2 51.2568 205.6281 62.9256 0.0001 0.0001 0.0000
# 3 21.4141 62.9256 110.7007 0.0005 0.0004 -0.0001
# 4 0.0000 0.0001 0.0005 36.5093 0.0001 0.0000
# 5 0.0000 0.0001 0.0004 0.0001 5.1240 0.0000
# 6 0.0000 0.0000 -0.0001 0.0000 0.0000 16.6391
#
#
#
# Elastic Compliance Matrix: (Units=1/GPa)
#
#
# Indices 1 2 3 4 5 6 
#
# 1 0.073461 -0.016903 -0.004602 0.000000 0.000000 0.000000
# 2 -0.016903 0.009777 -0.002288 0.000000 0.000000 0.000000
# 3 -0.004602 -0.002288 0.011224 0.000000 -0.000001 0.000000
# 4 0.000000 0.000000 0.000000 0.027390 -0.000001 0.000000
# 5 0.000000 0.000000 -0.000001 -0.000001 0.195159 0.000000
# 6 0.000000 0.000000 0.000000 0.000000 0.000000 0.060099
#
#
# Mechanical properties :
#
#
# Convention : Reuss Voigt Hill
#
# Bulk Modulus (GPa) = 21.33286 68.25221 44.79254
# Shear Modulus (GPa) = 11.35532 25.48651 18.42092
#
# Velocity S-wave (km/s) = 2.29585 3.43952 2.92414
# Velocity P-wave (km/s) = 4.11463 6.88876 5.67385
#
# Compressibility (1/GPa) = 0.04687604
#
# Stress axis : x y z
#
# Youngs Moduli (GPa) = 13.61258 102.28420 89.09557
#
# Poissons Ratio (x) = 1.72895 0.41002
# Poissons Ratio (y) = 0.23010 0.20381
# Poissons Ratio (z) = 0.06265 0.23398
#
# Static dielectric constant tensor:
#      x y z
#    x 1.777300 0.000000 0.000000 
#    y 0.000000 1.788620 0.000000 
#    z 0.000000 0.000000 2.298000 
# 
# From -- ./inp_files/6181.got.cif
#   From: 2010.05.17/outbox.cif.g08.bks.cpg/sg24_4_cif.got.tgz:6181.got - 2010.06.04 00:33:39.
