data_PCOD9334039
_publ_section_title
;
Structure prediction by ZEFSAII (Michael W. Deem and Ramdas Pophale) SiO2 
 PCOD9334039
Probable space group: I 21 21 21
;
_chemical_formula_sum "Si O2"
_cell_formula_units_Z 52
_cell_length_a 31.364303
_cell_length_b 17.605379
_cell_length_c 5.155113
_cell_angle_alpha 90.000000
_cell_angle_beta 90.000000
_cell_angle_gamma 90.000000
_cell_volume 2846.552572
_symmetry_space_group_name_H-M "I 21 21 21"
_symmetry_group_IT_number 24
_symmetry_cell_setting 'orthorhombic'
loop_
_space_group_symop_operation_xyz
x,y,z
-x,1/2-y,z
x,-y,1/2-z
1/2-x,y,-z
1/2+x,1/2+y,1/2+z
1/2-x,-y,1/2+z
1/2+x,1/2-y,-z
-x,1/2+y,1/2-z
loop_
_atom_site_type_symbol
_atom_site_label
_atom_site_fract_x
_atom_site_fract_y
_atom_site_fract_z
Si Si1 0.593180 0.087947 0.828550
Si Si2 0.456870 0.208199 0.970449
Si Si3 0.250000 0.681085 0.500000
Si Si4 0.662488 0.828046 0.307028
Si Si5 0.085814 0.727166 0.983081
Si Si6 0.792901 0.065880 0.403472
Si Si7 0.997187 0.947460 0.503698
O O1 0.580874 0.140019 0.580944
O O2 0.598833 0.000000 0.750000
O O3 0.632389 0.132336 0.972160
O O4 0.550715 0.087311 0.004799
O O5 0.500000 0.250000 0.879639
O O6 0.443354 0.243433 0.247475
O O7 0.469123 0.120617 0.997304
O O8 0.422817 0.224922 0.743711
O O9 0.293676 0.715126 0.385620
O O10 0.272778 0.630884 0.723311
O O11 0.633058 0.773580 0.136574
O O12 0.679158 0.897584 0.127658
O O13 0.750000 0.025450 0.500000
O O14 0.816209 0.000000 0.250000
O O15 0.003253 0.000000 0.750000
O O16 0.000306 0.000000 0.250000
#
# Coordination Sequence:
#
# PCOD9334039 Si02
#       7
#     8   8   4   8   8   8   8
#     4  11  26  40  56  84 123 156 215 269 311 350
#     4  12  24  41  66  89 119 160 204 254 314 386
#     4  10  22  38  52  74 108 156 210 264 306 370
#     4  11  24  40  54  82 113 161 213 264 321 360
#     4  12  24  40  61  87 117 159 206 260 315 371
#     4  10  20  35  51  69 105 147 211 262 310 355
#     4  11  25  44  65  92 123 159 206 261 313 368
#
# _framework density 18.267710000000001
#
# number of rings (size 3 to 8) (size 9 to 14) (size 15 to 20)
#    0.000    0.923    3.846    2.308    8.615    3.692 
#    2.769    0.000    0.000    0.000    0.000    0.000 
#    0.000    0.000    0.000    4.154    8.615    0.923 
#
# Total GULP energy -145072.424899 kJ/mol
# GULP energy per Si atom -5579.708650 kJ/mol
# Density = 1.822613 g / cm^3
# Si number density = 18.267710 Si / 1000 Ang^3
#
#
#
# Elastic Constant Matrix: (Units=GPa)
#
#
# Indices 1 2 3 4 5 6 
#
# 1 113.3166 55.2652 46.8322 0.0000 0.0000 0.0000
# 2 55.2652 70.9506 40.3397 0.0000 0.0000 -0.0001
# 3 46.8322 40.3397 120.6875 -0.0001 -0.0002 0.0005
# 4 0.0000 0.0000 -0.0001 33.4884 0.0000 -0.0004
# 5 0.0000 0.0000 -0.0002 0.0000 40.7017 0.0000
# 6 0.0000 -0.0001 0.0005 -0.0004 0.0000 -153.9326
#
#
#
# Elastic Compliance Matrix: (Units=1/GPa)
#
#
# Indices 1 2 3 4 5 6 
#
# 1 0.014741 -0.010161 -0.002324 0.000000 0.000000 0.000000
# 2 -0.010161 0.024405 -0.004215 0.000000 0.000000 0.000000
# 3 -0.002324 -0.004215 0.010596 0.000000 0.000000 0.000000
# 4 0.000000 0.000000 0.000000 0.029861 0.000000 0.000000
# 5 0.000000 0.000000 0.000000 0.000000 0.024569 0.000000
# 6 0.000000 0.000000 0.000000 0.000000 0.000000 -0.006496
#
#
# Mechanical properties :
#
#
# Convention : Reuss Voigt Hill
#
# Bulk Modulus (GPa) = 61.18510 65.53654 63.36082
# Shear Modulus (GPa) = 36.62427 -5.11398 15.75514
#
# Velocity S-wave (km/s) = 4.48243 -1.67498 2.93995
# Velocity P-wave (km/s) = 7.76890 5.67563 6.80326
#
# Compressibility (1/GPa) = 0.01634385
#
# Stress axis : x y z
#
# Youngs Moduli (GPa) = 67.83965 40.97540 94.37233
#
# Poissons Ratio (x) = 0.41633 0.21931
# Poissons Ratio (y) = 0.68929 0.39774
# Poissons Ratio (z) = 0.15765 0.17269
#
# Static dielectric constant tensor:
#      x y z
#    x 1.705630 0.000000 0.000000 
#    y 0.000000 1.603630 0.000000 
#    z 0.000000 0.000000 1.913040 
# 
# From -- ./inp_files/7811.got.cif
#   From: 2010.05.17/outbox.cif.g08.bks.cpg/sg24_4_cif.got.tgz:7811.got - 2010.06.04 00:33:39.
