data_PCOD9334634
_publ_section_title
;
Structure prediction by ZEFSAII (Michael W. Deem and Ramdas Pophale) SiO2 
 PCOD9334634
Probable space group: I 21 21 21
;
_chemical_formula_sum "Si O2"
_cell_formula_units_Z 48
_cell_length_a 8.317762
_cell_length_b 25.237527
_cell_length_c 11.160618
_cell_angle_alpha 90.000000
_cell_angle_beta 90.000000
_cell_angle_gamma 90.000000
_cell_volume 2342.834063
_symmetry_space_group_name_H-M "I 21 21 21"
_symmetry_group_IT_number 24
_symmetry_cell_setting 'orthorhombic'
loop_
_space_group_symop_operation_xyz
x,y,z
-x,1/2-y,z
x,-y,1/2-z
1/2-x,y,-z
1/2+x,1/2+y,1/2+z
1/2-x,-y,1/2+z
1/2+x,1/2-y,-z
-x,1/2+y,1/2-z
loop_
_atom_site_type_symbol
_atom_site_label
_atom_site_fract_x
_atom_site_fract_y
_atom_site_fract_z
Si Si1 0.000000 0.250000 0.693693
Si Si2 0.441125 0.688357 0.617607
Si Si3 0.250000 0.753564 0.000000
Si Si4 0.473475 0.445703 0.315001
Si Si5 0.750000 0.887031 0.000000
Si Si6 0.750000 0.568631 0.000000
Si Si7 0.439350 0.342999 0.148119
Si Si8 0.451848 0.843106 0.869224
O O1 0.141626 0.269025 0.606805
O O2 0.960436 0.299261 0.777947
O O3 0.500000 0.750000 0.609394
O O4 0.480638 0.660087 0.492009
O O5 0.249634 0.677525 0.645873
O O6 0.533984 0.663046 0.728619
O O7 0.130650 0.792229 0.073420
O O8 0.431323 0.500000 0.250000
O O9 0.340750 0.423776 0.405927
O O10 0.627843 0.456719 0.402688
O O11 0.476838 0.398341 0.215143
O O12 0.874751 0.851216 0.072074
O O13 0.854764 0.606456 0.085302
#
# Coordination Sequence:
#
# PCOD9334634 Si02
#       8
#     4   8   4   8   4   4   8   8
#     4  12  24  42  58  98 128 180 226 284 344 422
#     4  11  23  40  63  98 139 183 225 282 349 429
#     4  11  26  33  64  90 132 170 228 270 340 410
#     4  11  24  47  72 102 136 180 237 302 357 422
#     4  10  20  41  75  92 130 169 224 297 346 408
#     4   9  22  46  67  98 134 175 228 287 350 416
#     4  11  24  42  66  94 139 181 230 288 350 423
#     4  10  20  41  63  96 128 174 219 276 341 409
#
# _framework density 20.488008000000001
#
# number of rings (size 3 to 8) (size 9 to 14) (size 15 to 20)
#    0.000    1.333    2.500    4.000    3.500    2.000 
#    3.000    1.667    0.000    0.000    0.000    0.000 
#    0.000    0.000    0.000    0.000    0.000    0.000 
#
# Total GULP energy -133928.779185 kJ/mol
# GULP energy per Si atom -5580.365799 kJ/mol
# Density = 2.044138 g / cm^3
# Si number density = 20.488008 Si / 1000 Ang^3
#
#
#
# Elastic Constant Matrix: (Units=GPa)
#
#
# Indices 1 2 3 4 5 6 
#
# 1 74.7631 7.3868 40.2536 0.0001 0.0000 0.0000
# 2 7.3868 85.8481 57.5679 0.0001 0.0001 0.0000
# 3 40.2536 57.5679 208.8035 0.0004 0.0006 0.0003
# 4 0.0001 0.0001 0.0004 31.6382 0.0001 0.0001
# 5 0.0000 0.0001 0.0006 0.0001 28.1422 0.0000
# 6 0.0000 0.0000 0.0003 0.0001 0.0000 7.5411
#
#
#
# Elastic Compliance Matrix: (Units=1/GPa)
#
#
# Indices 1 2 3 4 5 6 
#
# 1 0.014969 0.000794 -0.003105 0.000000 0.000000 0.000000
# 2 0.000794 0.014333 -0.004105 0.000000 0.000000 0.000000
# 3 -0.003105 -0.004105 0.006519 0.000000 0.000000 0.000000
# 4 0.000000 0.000000 0.000000 0.031607 0.000000 0.000000
# 5 0.000000 0.000000 0.000000 0.000000 0.035534 0.000000
# 6 0.000000 0.000000 0.000000 0.000000 0.000000 0.132607
#
#
# Mechanical properties :
#
#
# Convention : Reuss Voigt Hill
#
# Bulk Modulus (GPa) = 43.49700 64.42570 53.96135
# Shear Modulus (GPa) = 19.52644 31.07807 25.30226
#
# Velocity S-wave (km/s) = 3.09053 3.89895 3.51804
# Velocity P-wave (km/s) = 5.83196 7.19604 6.54961
#
# Compressibility (1/GPa) = 0.02299009
#
# Stress axis : x y z
#
# Youngs Moduli (GPa) = 66.80611 69.77084 153.38936
#
# Poissons Ratio (x) = -0.05539 0.47621
# Poissons Ratio (y) = -0.05304 0.62960
# Poissons Ratio (z) = 0.20740 0.28638
#
# Static dielectric constant tensor:
#      x y z
#    x 1.835140 0.000000 0.000000 
#    y 0.000000 1.724040 0.000000 
#    z 0.000000 0.000000 1.725770 
# 
# From -- ./inp_files/18650.got.cif
#   From: 2010.05.17/outbox.cif.g08.bks.cpg/sg24_10_cif.got.tgz:18650.got - 2010.06.04 00:33:39.
