data_PCOD9334935
_publ_section_title
;
Structure prediction by ZEFSAII (Michael W. Deem and Ramdas Pophale) SiO2 
 PCOD9334935
Probable space group: I 21 21 21
;
_chemical_formula_sum "Si O2"
_cell_formula_units_Z 40
_cell_length_a 26.750410
_cell_length_b 7.594583
_cell_length_c 9.287118
_cell_angle_alpha 90.000000
_cell_angle_beta 90.000000
_cell_angle_gamma 90.000000
_cell_volume 1886.754260
_symmetry_space_group_name_H-M "I 21 21 21"
_symmetry_group_IT_number 24
_symmetry_cell_setting 'orthorhombic'
loop_
_space_group_symop_operation_xyz
x,y,z
-x,1/2-y,z
x,-y,1/2-z
1/2-x,y,-z
1/2+x,1/2+y,1/2+z
1/2-x,-y,1/2+z
1/2+x,1/2-y,-z
-x,1/2+y,1/2-z
loop_
_atom_site_type_symbol
_atom_site_label
_atom_site_fract_x
_atom_site_fract_y
_atom_site_fract_z
Si Si1 0.000000 0.250000 0.454426
Si Si2 0.629136 0.000000 0.250000
Si Si3 0.077955 0.704786 0.275190
Si Si4 0.312091 0.182531 0.838580
Si Si5 0.962787 0.880919 0.566056
Si Si6 0.199681 0.805624 0.683389
O O1 0.047592 0.203941 0.352203
O O2 0.012089 0.430046 0.536950
O O3 0.590685 0.937933 0.371640
O O4 0.664677 0.831236 0.232190
O O5 0.067957 0.500000 0.250000
O O6 0.137015 0.730345 0.283376
O O7 0.052296 0.737819 0.428029
O O8 0.257160 0.260838 0.807543
O O9 0.311269 0.000000 0.750000
O O10 0.314154 0.175751 0.013362
O O11 0.000000 0.750000 0.651467
O O12 0.196279 0.000000 0.750000
#
# Coordination Sequence:
#
# PCOD9334935 Si02
#       6
#     4   4   8   8   8   8
#     4  10  24  42  66  94 130 172 222 286 342 388
#     4  12  26  44  68  96 136 188 218 272 346 404
#     4  10  21  38  64  98 126 166 219 279 340 387
#     4  10  22  42  70 101 133 178 227 283 338 397
#     4  11  25  42  62  96 131 172 222 273 329 407
#     4  10  24  46  66 100 143 177 225 276 337 415
#
# _framework density 21.200429
#
# number of rings (size 3 to 8) (size 9 to 14) (size 15 to 20)
#    0.000    1.600    3.000    0.000    5.600    4.800 
#    0.000    2.000    0.000    0.000    0.000    0.000 
#    0.000    0.000    0.000    0.000    0.000    0.000 
#
# Total GULP energy -111465.835489 kJ/mol
# GULP energy per Si atom -5573.291774 kJ/mol
# Density = 2.115218 g / cm^3
# Si number density = 21.200429 Si / 1000 Ang^3
#
#
#
# Elastic Constant Matrix: (Units=GPa)
#
#
# Indices 1 2 3 4 5 6 
#
# 1 165.3595 59.8136 32.9847 0.0000 0.0000 0.0000
# 2 59.8136 92.4246 18.8438 0.0000 0.0000 0.0000
# 3 32.9847 18.8438 31.2330 0.0000 0.0000 0.0000
# 4 0.0000 0.0000 0.0000 13.4278 0.0000 0.0000
# 5 0.0000 0.0000 0.0000 0.0000 12.9410 0.0000
# 6 0.0000 0.0000 0.0000 0.0000 0.0000 45.2584
#
#
#
# Elastic Compliance Matrix: (Units=1/GPa)
#
#
# Indices 1 2 3 4 5 6 
#
# 1 0.009019 -0.004441 -0.006846 0.000000 0.000000 0.000000
# 2 -0.004441 0.014524 -0.004072 0.000000 0.000000 0.000000
# 3 -0.006846 -0.004072 0.041704 0.000000 0.000000 0.000000
# 4 0.000000 0.000000 0.000000 0.074472 0.000000 0.000000
# 5 0.000000 0.000000 0.000000 0.000000 0.077274 0.000000
# 6 0.000000 0.000000 0.000000 0.000000 0.000000 0.022095
#
#
# Mechanical properties :
#
#
# Convention : Reuss Voigt Hill
#
# Bulk Modulus (GPa) = 28.96138 56.92238 42.94188
# Shear Modulus (GPa) = 17.77349 26.15045 21.96197
#
# Velocity S-wave (km/s) = 2.89858 3.51591 3.22206
# Velocity P-wave (km/s) = 4.98926 6.58712 5.84307
#
# Compressibility (1/GPa) = 0.03452874
#
# Stress axis : x y z
#
# Youngs Moduli (GPa) = 110.87113 68.85071 23.97844
#
# Poissons Ratio (x) = 0.30579 0.16415
# Poissons Ratio (y) = 0.49241 0.09765
# Poissons Ratio (z) = 0.75900 0.28039
#
# Static dielectric constant tensor:
#      x y z
#    x 1.786620 0.000000 0.000000 
#    y 0.000000 1.734940 0.000000 
#    z 0.000000 0.000000 1.885320 
# 
# From -- ./inp_files/15668.got.cif
#   From: 2010.05.17/outbox.cif.g08.bks.cpg/sg24_8_cif.got.tgz:15668.got - 2010.06.04 00:33:39.
