data_PCOD9334014
_publ_section_title
;
Structure prediction by ZEFSAII (Michael W. Deem and Ramdas Pophale) SiO2 
 PCOD9334014
Probable space group: I 21 21 21
;
_chemical_formula_sum "Si O2"
_cell_formula_units_Z 36
_cell_length_a 9.141670
_cell_length_b 20.211891
_cell_length_c 8.106171
_cell_angle_alpha 90.000000
_cell_angle_beta 90.000000
_cell_angle_gamma 90.000000
_cell_volume 1497.780763
_symmetry_space_group_name_H-M "I 21 21 21"
_symmetry_group_IT_number 24
_symmetry_cell_setting 'orthorhombic'
loop_
_space_group_symop_operation_xyz
x,y,z
-x,1/2-y,z
x,-y,1/2-z
1/2-x,y,-z
1/2+x,1/2+y,1/2+z
1/2-x,-y,1/2+z
1/2+x,1/2-y,-z
-x,1/2+y,1/2-z
loop_
_atom_site_type_symbol
_atom_site_label
_atom_site_fract_x
_atom_site_fract_y
_atom_site_fract_z
Si Si1 0.893665 0.470457 0.424540
Si Si2 0.168282 0.839586 0.260688
Si Si3 0.513983 0.329293 0.083456
Si Si4 0.106042 0.385204 0.612347
Si Si5 0.500000 0.750000 0.948573
O O1 0.948681 0.500000 0.250000
O O2 0.750000 0.506737 0.500000
O O3 0.837745 0.399690 0.362422
O O4 0.010397 0.449698 0.562806
O O5 0.038075 0.848983 0.393597
O O6 0.326780 0.840918 0.338374
O O7 0.135176 0.771116 0.167552
O O8 0.500000 0.250000 0.086216
O O9 0.397198 0.370712 0.190878
O O10 0.250000 0.391354 0.500000
O O11 0.036161 0.315264 0.550636
#
# Coordination Sequence:
#
# PCOD9334014 Si02
#       5
#     8   8   8   8   4
#     4  11  25  45  69  92 124 178 238 291 339 406
#     4  10  22  38  59  97 133 173 227 274 334 408
#     4  11  20  36  61  94 138 175 213 268 343 413
#     4  11  23  40  66  99 136 176 222 277 350 412
#     4  10  20  34  58  96 136 174 212 266 332 422
#
# _framework density 24.03556
#
# number of rings (size 3 to 8) (size 9 to 14) (size 15 to 20)
#    0.000    1.333    4.444    1.333    3.111    0.000 
#    0.000    3.333    0.000    0.000    0.000    0.000 
#    0.000    0.000    0.000    0.000    0.000    0.000 
#
# Total GULP energy -100490.300897 kJ/mol
# GULP energy per Si atom -5582.794494 kJ/mol
# Density = 2.398085 g / cm^3
# Si number density = 24.035560 Si / 1000 Ang^3
#
#
#
# Elastic Constant Matrix: (Units=GPa)
#
#
# Indices 1 2 3 4 5 6 
#
# 1 53.8801 6.5668 15.0415 -0.0002 0.0003 0.0000
# 2 6.5668 59.4360 19.0661 -0.0002 0.0001 0.0000
# 3 15.0415 19.0661 122.8666 -0.0009 0.0011 0.0002
# 4 -0.0002 -0.0002 -0.0009 31.2724 0.0002 0.0000
# 5 0.0003 0.0001 0.0011 0.0002 35.9058 -0.0001
# 6 0.0000 0.0000 0.0002 0.0000 -0.0001 12.8063
#
#
#
# Elastic Compliance Matrix: (Units=1/GPa)
#
#
# Indices 1 2 3 4 5 6 
#
# 1 0.019334 -0.001449 -0.002142 0.000000 0.000000 0.000000
# 2 -0.001449 0.017815 -0.002587 0.000000 0.000000 0.000000
# 3 -0.002142 -0.002587 0.008803 0.000000 0.000000 0.000000
# 4 0.000000 0.000000 0.000000 0.031977 0.000000 0.000000
# 5 0.000000 0.000000 0.000000 0.000000 0.027851 0.000000
# 6 0.000000 0.000000 0.000000 0.000000 0.000000 0.078086
#
#
# Mechanical properties :
#
#
# Convention : Reuss Voigt Hill
#
# Bulk Modulus (GPa) = 29.76597 35.28129 32.52363
# Shear Modulus (GPa) = 24.10562 29.03079 26.56821
#
# Velocity S-wave (km/s) = 3.17032 3.47915 3.32832
# Velocity P-wave (km/s) = 5.08058 5.55428 5.32270
#
# Compressibility (1/GPa) = 0.03359541
#
# Stress axis : x y z
#
# Youngs Moduli (GPa) = 51.72151 56.13311 113.60281
#
# Poissons Ratio (x) = 0.08134 0.24335
# Poissons Ratio (y) = 0.07494 0.29390
# Poissons Ratio (z) = 0.11079 0.14522
#
# Static dielectric constant tensor:
#      x y z
#    x 1.998140 0.000000 0.000000 
#    y 0.000000 1.873620 0.000000 
#    z 0.000000 0.000000 2.044510 
# 
# From -- ./inp_files/9070.got.cif
#   From: 2010.05.17/outbox.cif.g08.bks.cpg/sg24_5_cif.got.tgz:9070.got - 2010.06.04 00:33:39.
