data_PCOD9334325
_publ_section_title
;
Structure prediction by ZEFSAII (Michael W. Deem and Ramdas Pophale) SiO2 
 PCOD9334325
Probable space group: I 21 21 21
;
_chemical_formula_sum "Si O2"
_cell_formula_units_Z 48
_cell_length_a 25.607331
_cell_length_b 5.261469
_cell_length_c 16.967449
_cell_angle_alpha 90.000000
_cell_angle_beta 90.000000
_cell_angle_gamma 90.000000
_cell_volume 2286.061363
_symmetry_space_group_name_H-M "I 21 21 21"
_symmetry_group_IT_number 24
_symmetry_cell_setting 'orthorhombic'
loop_
_space_group_symop_operation_xyz
x,y,z
-x,1/2-y,z
x,-y,1/2-z
1/2-x,y,-z
1/2+x,1/2+y,1/2+z
1/2-x,-y,1/2+z
1/2+x,1/2-y,-z
-x,1/2+y,1/2-z
loop_
_atom_site_type_symbol
_atom_site_label
_atom_site_fract_x
_atom_site_fract_y
_atom_site_fract_z
Si Si1 0.841487 0.500000 0.250000
Si Si2 0.354820 0.901936 0.067538
Si Si3 0.628332 0.755143 0.899202
Si Si4 0.220265 0.381236 0.139501
Si Si5 0.750000 0.468976 0.000000
Si Si6 0.966827 0.997597 0.343817
Si Si7 0.844952 0.082214 0.838596
O O1 0.877807 0.586177 0.178443
O O2 0.805787 0.276708 0.211679
O O3 0.368838 0.638908 0.108048
O O4 0.292622 0.883835 0.049778
O O5 0.361393 0.145436 0.124290
O O6 0.378378 0.896473 0.979925
O O7 0.586923 0.980431 0.891341
O O8 0.685967 0.875234 0.884995
O O9 0.219210 0.206230 0.061659
O O10 0.281316 0.422911 0.157257
O O11 0.000000 0.250000 0.361836
O O12 0.955468 0.000000 0.250000
O O13 0.000000 0.750000 0.362414
O O14 0.858843 0.000000 0.750000
#
# Coordination Sequence:
#
# PCOD9334325 Si02
#       7
#     4   8   8   8   4   8   8
#     4  12  24  34  56  86 116 166 212 266 302 370
#     4  11  23  38  59  84 115 163 204 262 312 363
#     4  12  24  40  59  86 122 160 217 262 315 367
#     4  11  23  36  54  82 115 166 214 265 310 357
#     4  10  20  38  54  78 118 154 214 260 306 346
#     4  10  24  41  62  86 117 159 208 258 316 373
#     4  11  24  39  59  84 121 161 213 258 312 366
#
# _framework density 20.99681
#
# number of rings (size 3 to 8) (size 9 to 14) (size 15 to 20)
#    0.000    1.000    1.667    6.000   12.833    0.667 
#    0.000    0.000    0.000    0.000    0.000    0.000 
#    0.000    4.000    0.000    1.000    0.000    0.167 
#
# Total GULP energy -134157.091756 kJ/mol
# GULP energy per Si atom -5589.878823 kJ/mol
# Density = 2.094902 g / cm^3
# Si number density = 20.996810 Si / 1000 Ang^3
#
#
#
# Elastic Constant Matrix: (Units=GPa)
#
#
# Indices 1 2 3 4 5 6 
#
# 1 36.4716 14.3294 16.2420 0.0000 0.0000 0.0000
# 2 14.3294 113.8397 49.4915 0.0000 0.0000 0.0000
# 3 16.2420 49.4915 133.6453 0.0000 0.0000 0.0000
# 4 0.0000 0.0000 0.0000 40.3155 0.0000 0.0000
# 5 0.0000 0.0000 0.0000 0.0000 5.8405 0.0000
# 6 0.0000 0.0000 0.0000 0.0000 0.0000 10.6547
#
#
#
# Elastic Compliance Matrix: (Units=1/GPa)
#
#
# Indices 1 2 3 4 5 6 
#
# 1 0.029609 -0.002578 -0.002644 0.000000 0.000000 0.000000
# 2 -0.002578 0.010694 -0.003647 0.000000 0.000000 0.000000
# 3 -0.002644 -0.003647 0.009154 0.000000 0.000000 0.000000
# 4 0.000000 0.000000 0.000000 0.024804 0.000000 0.000000
# 5 0.000000 0.000000 0.000000 0.000000 0.171218 0.000000
# 6 0.000000 0.000000 0.000000 0.000000 0.000000 0.093856
#
#
# Mechanical properties :
#
#
# Convention : Reuss Voigt Hill
#
# Bulk Modulus (GPa) = 31.52540 49.34250 40.43395
# Shear Modulus (GPa) = 13.60004 24.95504 19.27754
#
# Velocity S-wave (km/s) = 2.54779 3.45123 3.03333
# Velocity P-wave (km/s) = 4.86847 6.27951 5.61846
#
# Compressibility (1/GPa) = 0.03172045
#
# Stress axis : x y z
#
# Youngs Moduli (GPa) = 33.77388 93.50803 109.23732
#
# Poissons Ratio (x) = 0.24102 0.28881
# Poissons Ratio (y) = 0.08705 0.39839
# Poissons Ratio (z) = 0.08929 0.34103
#
# Static dielectric constant tensor:
#      x y z
#    x 1.767550 0.000000 0.000000 
#    y 0.000000 1.813500 0.000000 
#    z 0.000000 0.000000 1.807840 
# 
# From -- ./inp_files/31529.got.cif
#   From: 2010.05.17/outbox.cif.g08.bks.cpg/sg24_16_cif.got.tgz:31529.got - 2010.06.04 00:33:39.
