data_PCOD9334335
_publ_section_title
;
Structure prediction by ZEFSAII (Michael W. Deem and Ramdas Pophale) SiO2 
 PCOD9334335
Probable space group: I 21 21 21
;
_chemical_formula_sum "Si O2"
_cell_formula_units_Z 40
_cell_length_a 26.552862
_cell_length_b 13.198156
_cell_length_c 5.408677
_cell_angle_alpha 90.000000
_cell_angle_beta 90.000000
_cell_angle_gamma 90.000000
_cell_volume 1895.464445
_symmetry_space_group_name_H-M "I 21 21 21"
_symmetry_group_IT_number 24
_symmetry_cell_setting 'orthorhombic'
loop_
_space_group_symop_operation_xyz
x,y,z
-x,1/2-y,z
x,-y,1/2-z
1/2-x,y,-z
1/2+x,1/2+y,1/2+z
1/2-x,-y,1/2+z
1/2+x,1/2-y,-z
-x,1/2+y,1/2-z
loop_
_atom_site_type_symbol
_atom_site_label
_atom_site_fract_x
_atom_site_fract_y
_atom_site_fract_z
Si Si1 0.503773 0.616540 0.500816
Si Si2 0.047329 0.888481 0.998700
Si Si3 0.306955 0.743315 0.434198
Si Si4 0.110751 0.613452 0.347931
Si Si5 0.351382 0.801911 0.925802
O O1 0.522156 0.499301 0.499085
O O2 0.528882 0.660134 0.747031
O O3 0.443896 0.620089 0.525540
O O4 0.528429 0.660401 0.254160
O O5 0.107421 0.886088 0.008753
O O6 0.250000 0.715434 0.500000
O O7 0.344929 0.648495 0.467772
O O8 0.315128 0.786178 0.159838
O O9 0.324819 0.817118 0.659937
O O10 0.117005 0.500000 0.250000
O O11 0.117844 0.696300 0.127507
#
# Coordination Sequence:
#
# PCOD9334335 Si02
#       5
#     8   8   8   8   8
#     4  10  21  36  59  86 128 159 191 235 300 355
#     4  10  20  38  58  88 121 167 188 240 295 365
#     4  10  23  43  62  86 117 158 207 261 302 339
#     4  10  23  41  57  86 127 161 201 248 290 358
#     4  10  23  39  62  89 119 157 211 242 301 359
#
# _framework density 21.103009
#
# number of rings (size 3 to 8) (size 9 to 14) (size 15 to 20)
#    1.200    0.800    2.000    1.800    2.800    1.600 
#    3.600    0.000    0.000    0.000    0.000   56.000 
#    0.000    0.000    0.000    0.000    0.000    0.000 
#
# Total GULP energy -111442.225842 kJ/mol
# GULP energy per Si atom -5572.111292 kJ/mol
# Density = 2.105498 g / cm^3
# Si number density = 21.103009 Si / 1000 Ang^3
#
#
#
# Elastic Constant Matrix: (Units=GPa)
#
#
# Indices 1 2 3 4 5 6 
#
# 1 98.5357 8.1149 10.8652 0.0000 0.0000 0.0000
# 2 8.1149 45.3600 -4.2398 0.0000 0.0000 0.0000
# 3 10.8652 -4.2398 158.1356 0.0000 0.0000 0.0000
# 4 0.0000 0.0000 0.0000 -9.2258 0.0000 0.0000
# 5 0.0000 0.0000 0.0000 0.0000 40.1764 0.0000
# 6 0.0000 0.0000 0.0000 0.0000 0.0000 26.0631
#
#
#
# Elastic Compliance Matrix: (Units=1/GPa)
#
#
# Indices 1 2 3 4 5 6 
#
# 1 0.010392 -0.001931 -0.000766 0.000000 0.000000 0.000000
# 2 -0.001931 0.022460 0.000735 0.000000 0.000000 0.000000
# 3 -0.000766 0.000735 0.006396 0.000000 0.000000 0.000000
# 4 0.000000 0.000000 0.000000 -0.108392 0.000000 0.000000
# 5 0.000000 0.000000 0.000000 0.000000 0.024890 0.000000
# 6 0.000000 0.000000 0.000000 0.000000 0.000000 0.038368
#
#
# Mechanical properties :
#
#
# Convention : Reuss Voigt Hill
#
# Bulk Modulus (GPa) = 28.30883 36.83465 32.57174
# Shear Modulus (GPa) = 509.53373 30.55546 270.04460
#
# Velocity S-wave (km/s) = 15.55554 3.80928 11.32443
# Velocity P-wave (km/s) = 18.33240 6.06960 13.65498
#
# Compressibility (1/GPa) = 0.03532466
#
# Stress axis : x y z
#
# Youngs Moduli (GPa) = 96.22735 44.52372 156.34758
#
# Poissons Ratio (x) = 0.08596 0.11973
# Poissons Ratio (y) = 0.18579 -0.11489
# Poissons Ratio (z) = 0.07369 -0.03272
#
# Static dielectric constant tensor:
#      x y z
#    x 1.741620 0.000000 0.000000 
#    y 0.000000 1.731380 0.000000 
#    z 0.000000 0.000000 1.837930 
# 
# From -- ./inp_files/7013.got.cif
#   From: 2010.05.17/outbox.cif.g08.bks.cpg/sg24_4_cif.got.tgz:7013.got - 2010.06.04 00:33:39.
