data_PCOD9334133
_publ_section_title
;
Structure prediction by ZEFSAII (Michael W. Deem and Ramdas Pophale) SiO2 
 PCOD9334133
Probable space group: I 21 21 21
;
_chemical_formula_sum "Si O2"
_cell_formula_units_Z 52
_cell_length_a 12.203419
_cell_length_b 8.861953
_cell_length_c 26.868423
_cell_angle_alpha 90.000000
_cell_angle_beta 90.000000
_cell_angle_gamma 90.000000
_cell_volume 2905.715849
_symmetry_space_group_name_H-M "I 21 21 21"
_symmetry_group_IT_number 24
_symmetry_cell_setting 'orthorhombic'
loop_
_space_group_symop_operation_xyz
x,y,z
-x,1/2-y,z
x,-y,1/2-z
1/2-x,y,-z
1/2+x,1/2+y,1/2+z
1/2-x,-y,1/2+z
1/2+x,1/2-y,-z
-x,1/2+y,1/2-z
loop_
_atom_site_type_symbol
_atom_site_label
_atom_site_fract_x
_atom_site_fract_y
_atom_site_fract_z
Si Si1 0.012666 0.929334 0.803662
Si Si2 0.670827 0.079838 0.453370
Si Si3 0.673997 0.685536 0.902187
Si Si4 0.000000 0.750000 0.179741
Si Si5 0.500000 0.250000 0.513470
Si Si6 0.891324 0.847341 0.623904
Si Si7 0.258579 0.072999 0.165378
Si Si8 0.907346 0.500000 0.250000
O O1 0.000000 0.750000 0.804101
O O2 0.988663 0.000000 0.750000
O O3 0.137168 0.974743 0.816770
O O4 0.933108 0.015631 0.841587
O O5 0.750000 0.061480 0.500000
O O6 0.723446 0.212084 0.419040
O O7 0.556087 0.130207 0.477045
O O8 0.660303 0.926507 0.423469
O O9 0.604552 0.761792 0.857144
O O10 0.592732 0.681680 0.949836
O O11 0.707967 0.522726 0.880526
O O12 0.979171 0.609741 0.215941
O O13 0.806407 0.734425 0.649955
O O14 0.000000 0.750000 0.612332
O O15 0.172197 0.083458 0.210412
#
# Coordination Sequence:
#
# PCOD9334133 Si02
#       8
#     8   8   8   4   4   8   8   4
#     4  11  21  35  57  85 120 158 192 235 280 340
#     4  10  21  39  59  83 111 147 192 245 288 354
#     4   9  19  38  60  81 109 149 192 239 284 348
#     4   9  20  36  56  84 112 148 188 236 281 328
#     4   9  20  36  62  86 106 140 204 236 295 342
#     4  10  23  37  53  84 121 150 193 239 291 340
#     4  10  20  36  56  82 117 153 192 233 289 343
#     4  10  20  36  58  80 118 150 190 238 272 344
#
# _framework density 17.895762999999999
#
# number of rings (size 3 to 8) (size 9 to 14) (size 15 to 20)
#    0.000    2.154    0.769    2.308    5.385    1.231 
#    2.769    0.000    0.000    0.000    0.000    0.000 
#    0.000    0.000    0.000    0.000    0.000    0.000 
#
# Total GULP energy -145020.554656 kJ/mol
# GULP energy per Si atom -5577.713641 kJ/mol
# Density = 1.785503 g / cm^3
# Si number density = 17.895763 Si / 1000 Ang^3
#
#
#
# Elastic Constant Matrix: (Units=GPa)
#
#
# Indices 1 2 3 4 5 6 
#
# 1 51.5061 34.1324 23.9636 0.0000 0.0000 0.0000
# 2 34.1324 113.0272 44.4759 0.0000 0.0000 0.0000
# 3 23.9636 44.4759 75.7830 0.0000 0.0000 0.0000
# 4 0.0000 0.0000 0.0000 26.6455 0.0000 0.0000
# 5 0.0000 0.0000 0.0000 0.0000 3.1136 0.0000
# 6 0.0000 0.0000 0.0000 0.0000 0.0000 10.1804
#
#
#
# Elastic Compliance Matrix: (Units=1/GPa)
#
#
# Indices 1 2 3 4 5 6 
#
# 1 0.025448 -0.005875 -0.004599 0.000000 0.000000 0.000000
# 2 -0.005875 0.012861 -0.005690 0.000000 0.000000 0.000000
# 3 -0.004599 -0.005690 0.017989 0.000000 0.000000 0.000000
# 4 0.000000 0.000000 0.000000 0.037530 0.000000 0.000000
# 5 0.000000 0.000000 0.000000 0.000000 0.321172 0.000000
# 6 0.000000 0.000000 0.000000 0.000000 0.000000 0.098228
#
#
# Mechanical properties :
#
#
# Convention : Reuss Voigt Hill
#
# Bulk Modulus (GPa) = 41.71916 49.49557 45.60736
# Shear Modulus (GPa) = 9.03266 17.17086 13.10176
#
# Velocity S-wave (km/s) = 2.24907 3.10093 2.70870
# Velocity P-wave (km/s) = 5.48702 6.36701 5.94332
#
# Compressibility (1/GPa) = 0.02396980
#
# Stress axis : x y z
#
# Youngs Moduli (GPa) = 39.29524 77.75679 55.58917
#
# Poissons Ratio (x) = 0.45684 0.25565
# Poissons Ratio (y) = 0.23087 0.31629
# Poissons Ratio (z) = 0.18072 0.44242
#
# Static dielectric constant tensor:
#      x y z
#    x 1.637090 0.000000 0.000000 
#    y 0.000000 1.578320 0.000000 
#    z 0.000000 0.000000 1.627650 
# 
# From -- ./inp_files/16417.got.cif
#   From: 2010.05.17/outbox.cif.g08.bks.cpg/sg24_9_cif.got.tgz:16417.got - 2010.06.04 00:33:39.
