data_PCOD9334695
_publ_section_title
;
Structure prediction by ZEFSAII (Michael W. Deem and Ramdas Pophale) SiO2 
 PCOD9334695
Probable space group: I 21 21 21
;
_chemical_formula_sum "Si O2"
_cell_formula_units_Z 48
_cell_length_a 8.519743
_cell_length_b 12.153474
_cell_length_c 22.447111
_cell_angle_alpha 90.000000
_cell_angle_beta 90.000000
_cell_angle_gamma 90.000000
_cell_volume 2324.274325
_symmetry_space_group_name_H-M "I 21 21 21"
_symmetry_group_IT_number 24
_symmetry_cell_setting 'orthorhombic'
loop_
_space_group_symop_operation_xyz
x,y,z
-x,1/2-y,z
x,-y,1/2-z
1/2-x,y,-z
1/2+x,1/2+y,1/2+z
1/2-x,-y,1/2+z
1/2+x,1/2-y,-z
-x,1/2+y,1/2-z
loop_
_atom_site_type_symbol
_atom_site_label
_atom_site_fract_x
_atom_site_fract_y
_atom_site_fract_z
Si Si1 0.476982 0.506954 0.463470
Si Si2 0.847165 0.674978 0.613335
Si Si3 0.239164 0.665382 0.900595
Si Si4 0.250000 0.690062 0.500000
Si Si5 0.750000 0.647174 0.000000
Si Si6 0.260447 0.127524 0.759789
Si Si7 0.500000 0.750000 0.195923
Si Si8 0.500000 0.750000 0.826930
O O1 0.583001 0.559814 0.410978
O O2 0.332202 0.436587 0.436805
O O3 0.401812 0.610109 0.498033
O O4 0.593905 0.427836 0.499649
O O5 0.760675 0.735015 0.558550
O O6 0.739418 0.659274 0.670830
O O7 0.000000 0.750000 0.627760
O O8 0.408855 0.663852 0.869608
O O9 0.118975 0.687743 0.847342
O O10 0.239562 0.771804 0.943549
O O11 0.089754 0.162598 0.736115
O O12 0.378873 0.191347 0.716893
O O13 0.287172 0.000000 0.750000
#
# Coordination Sequence:
#
# PCOD9334695 Si02
#       8
#     8   8   8   4   4   8   4   4
#     4  11  23  42  68 103 135 184 220 274 353 412
#     4  10  22  46  69  99 131 177 232 282 332 407
#     4  11  23  42  64 101 142 175 221 287 337 413
#     4  10  24  44  68 102 142 172 232 284 340 402
#     4  12  24  38  70 106 136 180 224 272 348 416
#     4  11  23  47  71  97 132 182 229 278 346 403
#     4  10  20  43  70  95 132 170 228 288 330 414
#     4  10  28  45  60 103 148 166 234 288 336 404
#
# _framework density 20.651606999999998
#
# number of rings (size 3 to 8) (size 9 to 14) (size 15 to 20)
#    0.000    1.333    2.500    2.000    7.000    0.000 
#   13.500    1.667    0.000    0.000    0.000    0.000 
#    0.000    0.000    0.000    0.000    0.000    0.000 
#
# Total GULP energy -134129.344371 kJ/mol
# GULP energy per Si atom -5588.722682 kJ/mol
# Density = 2.060460 g / cm^3
# Si number density = 20.651607 Si / 1000 Ang^3
#
#
#
# Elastic Constant Matrix: (Units=GPa)
#
#
# Indices 1 2 3 4 5 6 
#
# 1 89.2581 37.0572 60.9328 0.0000 0.0000 0.0000
# 2 37.0572 105.8282 61.5724 0.0000 0.0000 0.0000
# 3 60.9328 61.5724 134.7195 0.0000 0.0000 0.0000
# 4 0.0000 0.0000 0.0000 14.7661 0.0000 0.0000
# 5 0.0000 0.0000 0.0000 0.0000 40.3820 0.0000
# 6 0.0000 0.0000 0.0000 0.0000 0.0000 31.4908
#
#
#
# Elastic Compliance Matrix: (Units=1/GPa)
#
#
# Indices 1 2 3 4 5 6 
#
# 1 0.016500 -0.001956 -0.006569 0.000000 0.000000 0.000000
# 2 -0.001956 0.013104 -0.005104 0.000000 0.000000 0.000000
# 3 -0.006569 -0.005104 0.012727 0.000000 0.000000 0.000000
# 4 0.000000 0.000000 0.000000 0.067723 0.000000 0.000000
# 5 0.000000 0.000000 0.000000 0.000000 0.024764 0.000000
# 6 0.000000 0.000000 0.000000 0.000000 0.000000 0.031755
#
#
# Mechanical properties :
#
#
# Convention : Reuss Voigt Hill
#
# Bulk Modulus (GPa) = 66.34666 72.10340 69.22503
# Shear Modulus (GPa) = 25.14404 28.67734 26.91069
#
# Velocity S-wave (km/s) = 3.49310 3.73047 3.61374
# Velocity P-wave (km/s) = 6.96171 7.31746 7.14180
#
# Compressibility (1/GPa) = 0.01507235
#
# Stress axis : x y z
#
# Youngs Moduli (GPa) = 60.60711 76.31271 78.57405
#
# Poissons Ratio (x) = 0.14925 0.51614
# Poissons Ratio (y) = 0.11853 0.40108
# Poissons Ratio (z) = 0.39812 0.38954
#
# Static dielectric constant tensor:
#      x y z
#    x 1.768670 0.000000 0.000000 
#    y 0.000000 1.724520 0.000000 
#    z 0.000000 0.000000 1.731350 
# 
# From -- ./inp_files/22637.got.cif
#   From: 2010.05.17/outbox.cif.g08.bks.cpg/sg24_12_cif.got.tgz:22637.got - 2010.06.04 00:33:39.
