data_PCOD9334958
_publ_section_title
;
Structure prediction by ZEFSAII (Michael W. Deem and Ramdas Pophale) SiO2 
 PCOD9334958
Probable space group: I 21 21 21
;
_chemical_formula_sum "Si O2"
_cell_formula_units_Z 60
_cell_length_a 12.554666
_cell_length_b 20.544456
_cell_length_c 11.846290
_cell_angle_alpha 90.000000
_cell_angle_beta 90.000000
_cell_angle_gamma 90.000000
_cell_volume 3055.499166
_symmetry_space_group_name_H-M "I 21 21 21"
_symmetry_group_IT_number 24
_symmetry_cell_setting 'orthorhombic'
loop_
_space_group_symop_operation_xyz
x,y,z
-x,1/2-y,z
x,-y,1/2-z
1/2-x,y,-z
1/2+x,1/2+y,1/2+z
1/2-x,-y,1/2+z
1/2+x,1/2-y,-z
-x,1/2+y,1/2-z
loop_
_atom_site_type_symbol
_atom_site_label
_atom_site_fract_x
_atom_site_fract_y
_atom_site_fract_z
Si Si1 0.791775 0.854105 0.123170
Si Si2 0.945656 0.679416 0.787334
Si Si3 0.848319 0.865221 0.668006
Si Si4 0.384184 0.220658 0.676234
Si Si5 0.256057 0.222852 0.127435
Si Si6 0.627727 0.400095 0.510010
Si Si7 0.557473 0.963393 0.867600
Si Si8 0.750000 0.966658 0.500000
O O1 0.708861 0.879537 0.213779
O O2 0.803715 0.776759 0.133351
O O3 0.902027 0.889444 0.152052
O O4 0.750000 0.868921 0.000000
O O5 0.841097 0.690545 0.712017
O O6 0.000000 0.750000 0.819662
O O7 0.030558 0.646446 0.703051
O O8 0.916973 0.636249 0.897088
O O9 0.795439 0.798026 0.623912
O O10 0.819838 0.921506 0.582269
O O11 0.500000 0.250000 0.657845
O O12 0.355857 0.214894 0.808221
O O13 0.368183 0.155619 0.606249
O O14 0.250000 0.198012 0.000000
O O15 0.750000 0.423403 0.500000
O O16 0.544862 0.455113 0.552036
O O17 0.535509 0.000000 0.750000
O O18 0.661120 0.995232 0.927175
#
# Coordination Sequence:
#
# PCOD9334958 Si02
#       8
#     8   8   8   8   8   8   8   4
#     4  11  21  37  61  97 130 161 210 272 336 391
#     4  10  22  39  65 103 136 172 213 271 343 409
#     4  10  22  39  64  91 135 171 210 266 333 400
#     4  11  22  35  65 101 129 169 209 273 343 398
#     4  10  21  39  59  97 138 175 210 258 329 419
#     4  12  24  45  67  96 135 172 222 283 336 402
#     4  12  26  42  65  96 130 176 228 283 326 385
#     4  12  24  46  66  96 132 174 230 278 332 392
#
# _framework density 19.636725999999999
#
# number of rings (size 3 to 8) (size 9 to 14) (size 15 to 20)
#    0.000    1.067    5.333    1.600    3.733    1.600 
#    2.400    1.333    0.000    0.000    0.000    0.000 
#    0.000    0.000    0.000    0.000    0.000    0.000 
#
# Total GULP energy -167454.236775 kJ/mol
# GULP energy per Si atom -5581.807892 kJ/mol
# Density = 1.959203 g / cm^3
# Si number density = 19.636726 Si / 1000 Ang^3
#
#
#
# Elastic Constant Matrix: (Units=GPa)
#
#
# Indices 1 2 3 4 5 6 
#
# 1 92.9620 27.7158 25.9386 0.0000 0.0000 0.0000
# 2 27.7158 58.2815 38.2624 0.0000 0.0000 0.0000
# 3 25.9386 38.2624 126.7794 0.0000 0.0000 0.0000
# 4 0.0000 0.0000 0.0000 49.8481 0.0000 -0.0002
# 5 0.0000 0.0000 0.0000 0.0000 25.7115 0.0000
# 6 0.0000 0.0000 0.0000 -0.0002 0.0000 83.6425
#
#
#
# Elastic Compliance Matrix: (Units=1/GPa)
#
#
# Indices 1 2 3 4 5 6 
#
# 1 0.012628 -0.005374 -0.000962 0.000000 0.000000 0.000000
# 2 -0.005374 0.023685 -0.006049 0.000000 0.000000 0.000000
# 3 -0.000962 -0.006049 0.009910 0.000000 0.000000 0.000000
# 4 0.000000 0.000000 0.000000 0.020061 0.000000 0.000000
# 5 0.000000 0.000000 0.000000 0.000000 0.038893 0.000000
# 6 0.000000 0.000000 0.000000 0.000000 0.000000 0.011956
#
#
# Mechanical properties :
#
#
# Convention : Reuss Voigt Hill
#
# Bulk Modulus (GPa) = 46.61139 51.31739 48.96439
# Shear Modulus (GPa) = 33.54552 44.24748 38.89650
#
# Velocity S-wave (km/s) = 4.13765 4.75205 4.45545
# Velocity P-wave (km/s) = 6.82753 7.50329 7.17337
#
# Compressibility (1/GPa) = 0.02145399
#
# Stress axis : x y z
#
# Youngs Moduli (GPa) = 79.19200 42.22165 100.90823
#
# Poissons Ratio (x) = 0.22688 0.09705
# Poissons Ratio (y) = 0.42555 0.61036
# Poissons Ratio (z) = 0.07616 0.25538
#
# Static dielectric constant tensor:
#      x y z
#    x 1.701580 0.000000 0.000000 
#    y 0.000000 1.703730 0.000000 
#    z 0.000000 0.000000 1.481540 
# 
# From -- ./inp_files/20007.got.cif
#   From: 2010.05.17/outbox.cif.g08.bks.cpg/sg24_11_cif.got.tgz:20007.got - 2010.06.04 00:33:39.
