data_PCOD9334794
_publ_section_title
;
Structure prediction by ZEFSAII (Michael W. Deem and Ramdas Pophale) SiO2 
 PCOD9334794
Probable space group: I 21 21 21
;
_chemical_formula_sum "Si O2"
_cell_formula_units_Z 32
_cell_length_a 8.357500
_cell_length_b 26.959995
_cell_length_c 7.639379
_cell_angle_alpha 90.000000
_cell_angle_beta 90.000000
_cell_angle_gamma 90.000000
_cell_volume 1721.290806
_symmetry_space_group_name_H-M "I 21 21 21"
_symmetry_group_IT_number 24
_symmetry_cell_setting 'orthorhombic'
loop_
_space_group_symop_operation_xyz
x,y,z
-x,1/2-y,z
x,-y,1/2-z
1/2-x,y,-z
1/2+x,1/2+y,1/2+z
1/2-x,-y,1/2+z
1/2+x,1/2-y,-z
-x,1/2+y,1/2-z
loop_
_atom_site_type_symbol
_atom_site_label
_atom_site_fract_x
_atom_site_fract_y
_atom_site_fract_z
Si Si1 0.073944 0.866430 0.936720
Si Si2 0.536884 0.193507 0.131815
Si Si3 0.170680 0.444391 0.689336
Si Si4 0.871345 0.145713 0.211800
O O1 0.074490 0.823538 0.791261
O O2 0.988975 0.912410 0.839291
O O3 0.250000 0.878555 0.000000
O O4 0.965579 0.851966 0.105281
O O5 0.500000 0.250000 0.087323
O O6 0.718171 0.182741 0.201454
O O7 0.524145 0.160183 0.956634
O O8 0.144309 0.500000 0.750000
O O9 0.250000 0.447925 0.500000
O O10 0.292275 0.409212 0.798477
#
# Coordination Sequence:
#
# PCOD9334794 Si02
#       4
#     8   8   8   8
#     4  10  22  38  55  85 126 152 190 247 292 352
#     4  10  21  36  61  85 114 160 199 242 289 338
#     4   9  19  36  64  85 108 155 200 241 299 348
#     4   9  21  40  57  87 118 146 205 246 282 362
#
# _framework density 18.590699999999998
#
# number of rings (size 3 to 8) (size 9 to 14) (size 15 to 20)
#    0.000    2.500    0.000    2.250    7.000    8.000 
#    0.000    5.000    0.000    0.000    0.000    0.000 
#    0.000    0.000    0.000    0.000    0.000    0.000 
#
# Total GULP energy -89182.429753 kJ/mol
# GULP energy per Si atom -5573.901860 kJ/mol
# Density = 1.854839 g / cm^3
# Si number density = 18.590700 Si / 1000 Ang^3
#
#
#
# Elastic Constant Matrix: (Units=GPa)
#
#
# Indices 1 2 3 4 5 6 
#
# 1 35.2821 32.8349 15.6195 0.0000 0.0000 0.0000
# 2 32.8349 121.4632 71.2313 0.0000 0.0001 0.0001
# 3 15.6195 71.2313 114.2707 0.0009 -0.0012 -0.0005
# 4 0.0000 0.0000 0.0009 28.2567 -0.0001 -0.0001
# 5 0.0000 0.0001 -0.0012 -0.0001 12.7701 0.0001
# 6 0.0000 0.0001 -0.0005 -0.0001 0.0001 7.9964
#
#
#
# Elastic Compliance Matrix: (Units=1/GPa)
#
#
# Indices 1 2 3 4 5 6 
#
# 1 0.038134 -0.011430 0.001913 0.000000 0.000000 0.000000
# 2 -0.011430 0.016403 -0.008662 0.000000 -0.000001 -0.000001
# 3 0.001913 -0.008662 0.013890 0.000000 0.000001 0.000001
# 4 0.000000 0.000000 0.000000 0.035390 0.000000 0.000000
# 5 0.000000 -0.000001 0.000001 0.000000 0.078308 -0.000001
# 6 0.000000 -0.000001 0.000001 0.000000 -0.000001 0.125056
#
#
# Mechanical properties :
#
#
# Convention : Reuss Voigt Hill
#
# Bulk Modulus (GPa) = 31.18565 56.70972 43.94768
# Shear Modulus (GPa) = 14.11519 19.89334 17.00426
#
# Velocity S-wave (km/s) = 2.75846 3.27474 3.02762
# Velocity P-wave (km/s) = 5.19199 6.69844 5.99274
#
# Compressibility (1/GPa) = 0.03206603
#
# Stress axis : x y z
#
# Youngs Moduli (GPa) = 26.22348 60.96477 71.99679
#
# Poissons Ratio (x) = 0.69685 -0.13771
# Poissons Ratio (y) = 0.29974 0.62367
# Poissons Ratio (z) = -0.05016 0.52810
#
# Static dielectric constant tensor:
#      x y z
#    x 1.654500 0.000000 0.000000 
#    y 0.000000 1.659750 0.000000 
#    z 0.000000 0.000000 1.680420 
# 
# From -- ./inp_files/9166.got.cif
#   From: 2010.05.17/outbox.cif.g08.bks.cpg/sg24_5_cif.got.tgz:9166.got - 2010.06.04 00:33:39.
