data_PCOD9334403
_publ_section_title
;
Structure prediction by ZEFSAII (Michael W. Deem and Ramdas Pophale) SiO2 
 PCOD9334403
Probable space group: I 21 21 21
;
_chemical_formula_sum "Si O2"
_cell_formula_units_Z 32
_cell_length_a 9.521401
_cell_length_b 8.670611
_cell_length_c 17.246407
_cell_angle_alpha 90.000000
_cell_angle_beta 90.000000
_cell_angle_gamma 90.000000
_cell_volume 1423.800658
_symmetry_space_group_name_H-M "I 21 21 21"
_symmetry_group_IT_number 24
_symmetry_cell_setting 'orthorhombic'
loop_
_space_group_symop_operation_xyz
x,y,z
-x,1/2-y,z
x,-y,1/2-z
1/2-x,y,-z
1/2+x,1/2+y,1/2+z
1/2-x,-y,1/2+z
1/2+x,1/2-y,-z
-x,1/2+y,1/2-z
loop_
_atom_site_type_symbol
_atom_site_label
_atom_site_fract_x
_atom_site_fract_y
_atom_site_fract_z
Si Si1 0.398829 0.608917 0.175245
Si Si2 0.853081 0.679660 0.156765
Si Si3 0.149206 0.829637 0.344140
Si Si4 0.626397 0.857696 0.439478
O O1 0.500000 0.750000 0.197266
O O2 0.373143 0.500000 0.250000
O O3 0.263849 0.694316 0.140392
O O4 0.447087 0.498147 0.105847
O O5 0.847558 0.668379 0.250716
O O6 0.839757 0.505660 0.127031
O O7 0.000000 0.750000 0.132174
O O8 0.280834 0.735865 0.376343
O O9 0.000000 0.750000 0.363103
O O10 0.500000 0.750000 0.469453
O O11 0.750000 0.901216 0.500000
#
# Coordination Sequence:
#
# PCOD9334403 Si02
#       4
#     8   8   8   8
#     4  12  25  43  70 104 138 174 231 292 345 400
#     4  10  21  35  65 102 137 172 217 282 330 393
#     4  10  20  38  64  97 135 176 223 268 333 400
#     4  12  26  46  68  97 135 187 226 277 344 417
#
# _framework density 22.475055999999999
#
# number of rings (size 3 to 8) (size 9 to 14) (size 15 to 20)
#    0.000    1.000    2.500    4.500    7.000    0.000 
#    0.000    8.750    0.000    0.000    0.000    0.000 
#    0.000    0.000    0.000    0.000    0.000    0.000 
#
# Total GULP energy -89380.433763 kJ/mol
# GULP energy per Si atom -5586.277110 kJ/mol
# Density = 2.242390 g / cm^3
# Si number density = 22.475056 Si / 1000 Ang^3
#
#
#
# Elastic Constant Matrix: (Units=GPa)
#
#
# Indices 1 2 3 4 5 6 
#
# 1 86.1496 20.0665 -3.2616 0.0000 0.0000 0.0000
# 2 20.0665 138.0088 29.8311 0.0000 0.0000 0.0000
# 3 -3.2616 29.8311 41.8614 0.0000 0.0000 0.0000
# 4 0.0000 0.0000 0.0000 5.2712 0.0000 0.0000
# 5 0.0000 0.0000 0.0000 0.0000 22.4384 0.0000
# 6 0.0000 0.0000 0.0000 0.0000 0.0000 45.7074
#
#
#
# Elastic Compliance Matrix: (Units=1/GPa)
#
#
# Indices 1 2 3 4 5 6 
#
# 1 0.012255 -0.002350 0.002630 0.000000 0.000000 0.000000
# 2 -0.002350 0.009016 -0.006608 0.000000 0.000000 0.000000
# 3 0.002630 -0.006608 0.028802 0.000000 0.000000 0.000000
# 4 0.000000 0.000000 0.000000 0.189709 0.000000 0.000000
# 5 0.000000 0.000000 0.000000 0.000000 0.044566 0.000000
# 6 0.000000 0.000000 0.000000 0.000000 0.000000 0.021878
#
#
# Mechanical properties :
#
#
# Convention : Reuss Voigt Hill
#
# Bulk Modulus (GPa) = 26.72681 39.92131 33.32406
# Shear Modulus (GPa) = 15.08952 29.30900 22.19926
#
# Velocity S-wave (km/s) = 2.59393 3.61511 3.14622
# Velocity P-wave (km/s) = 4.57044 5.93518 5.29694
#
# Compressibility (1/GPa) = 0.03741561
#
# Stress axis : x y z
#
# Youngs Moduli (GPa) = 81.60130 110.91407 34.71957
#
# Poissons Ratio (x) = 0.26068 -0.09130
# Poissons Ratio (y) = 0.19178 0.22943
# Poissons Ratio (z) = -0.21458 0.73292
#
# Static dielectric constant tensor:
#      x y z
#    x 1.804550 0.000000 0.000000 
#    y 0.000000 1.865490 0.000000 
#    z 0.000000 0.000000 1.840970 
# 
# From -- ./inp_files/8946.got.cif
#   From: 2010.05.17/outbox.cif.g08.bks.cpg/sg24_5_cif.got.tgz:8946.got - 2010.06.04 00:33:39.
