data_PCOD9334236
_publ_section_title
;
Structure prediction by ZEFSAII (Michael W. Deem and Ramdas Pophale) SiO2 
 PCOD9334236
Probable space group: I 21 21 21
;
_chemical_formula_sum "Si O2"
_cell_formula_units_Z 48
_cell_length_a 5.167918
_cell_length_b 16.062820
_cell_length_c 29.119915
_cell_angle_alpha 90.000000
_cell_angle_beta 90.000000
_cell_angle_gamma 90.000000
_cell_volume 2417.283066
_symmetry_space_group_name_H-M "I 21 21 21"
_symmetry_group_IT_number 24
_symmetry_cell_setting 'orthorhombic'
loop_
_space_group_symop_operation_xyz
x,y,z
-x,1/2-y,z
x,-y,1/2-z
1/2-x,y,-z
1/2+x,1/2+y,1/2+z
1/2-x,-y,1/2+z
1/2+x,1/2-y,-z
-x,1/2+y,1/2-z
loop_
_atom_site_type_symbol
_atom_site_label
_atom_site_fract_x
_atom_site_fract_y
_atom_site_fract_z
Si Si1 0.926953 0.337409 0.667250
Si Si2 0.035616 0.656729 0.411563
Si Si3 0.672499 0.001726 0.300407
Si Si4 0.464027 0.156765 0.151098
Si Si5 0.998238 0.491225 0.468946
Si Si6 0.582628 0.896509 0.875821
O O1 0.857676 0.150002 0.627067
O O2 0.643549 0.342470 0.646476
O O3 0.000000 0.250000 0.690045
O O4 0.978823 0.418729 0.698133
O O5 0.818307 0.649057 0.371592
O O6 0.993007 0.584250 0.448007
O O7 0.000000 0.750000 0.430837
O O8 0.320530 0.649843 0.389357
O O9 0.870835 0.025415 0.341137
O O10 0.791872 0.000000 0.250000
O O11 0.528664 0.917235 0.314098
O O12 0.500000 0.250000 0.170667
O O13 0.750000 0.476311 0.500000
O O14 0.250000 0.481352 0.500000
O O15 0.011122 0.430149 0.425339
#
# Coordination Sequence:
#
# PCOD9334236 Si02
#       6
#     8   8   8   8   8   8
#     4  10  21  40  68  90 122 164 204 259 315 372
#     4  10  20  37  57  82 120 164 203 255 305 360
#     4  10  23  38  65  93 127 164 209 261 310 372
#     4  10  20  37  60  84 125 168 204 248 309 364
#     4  12  23  36  62  89 119 161 207 252 313 380
#     4  10  22  41  63  87 129 155 208 255 316 371
#
# _framework density 19.857005999999998
#
# number of rings (size 3 to 8) (size 9 to 14) (size 15 to 20)
#    1.000    0.667    1.667    3.500    0.000    2.000 
#    0.000    0.000    3.667   10.000    0.000    0.000 
#    0.000    0.000    0.000    0.000    0.000    0.000 
#
# Total GULP energy -133864.193705 kJ/mol
# GULP energy per Si atom -5577.674738 kJ/mol
# Density = 1.981181 g / cm^3
# Si number density = 19.857006 Si / 1000 Ang^3
#
#
#
# Elastic Constant Matrix: (Units=GPa)
#
#
# Indices 1 2 3 4 5 6 
#
# 1 81.7301 15.1165 -0.7127 0.0000 0.0000 0.0000
# 2 15.1165 100.5357 22.8505 0.0000 0.0000 0.0000
# 3 -0.7127 22.8505 65.4274 0.0000 0.0000 0.0000
# 4 0.0000 0.0000 0.0000 -2.1748 0.0000 0.0000
# 5 0.0000 0.0000 0.0000 0.0000 10.8848 0.0000
# 6 0.0000 0.0000 0.0000 0.0000 0.0000 30.2902
#
#
#
# Elastic Compliance Matrix: (Units=1/GPa)
#
#
# Indices 1 2 3 4 5 6 
#
# 1 0.012631 -0.002097 0.000870 0.000000 0.000000 0.000000
# 2 -0.002097 0.011152 -0.003918 0.000000 0.000000 0.000000
# 3 0.000870 -0.003918 0.016662 0.000000 0.000000 0.000000
# 4 0.000000 0.000000 0.000000 -0.459815 0.000000 0.000000
# 5 0.000000 0.000000 0.000000 0.000000 0.091871 0.000000
# 6 0.000000 0.000000 0.000000 0.000000 0.000000 0.033014
#
#
# Mechanical properties :
#
#
# Convention : Reuss Voigt Hill
#
# Bulk Modulus (GPa) = 33.16136 35.80020 34.48078
# Shear Modulus (GPa) = -18.23867 21.82930 1.79532
#
# Velocity S-wave (km/s) = -3.03397 3.31920 0.95188
# Velocity P-wave (km/s) = 2.11260 5.72343 4.31397
#
# Compressibility (1/GPa) = 0.03015558
#
# Stress axis : x y z
#
# Youngs Moduli (GPa) = 79.17152 89.66621 60.01714
#
# Poissons Ratio (x) = 0.18802 -0.05221
# Poissons Ratio (y) = 0.16601 0.23514
# Poissons Ratio (z) = -0.06887 0.35130
#
# Static dielectric constant tensor:
#      x y z
#    x 1.685610 0.000000 0.000000 
#    y 0.000000 1.748740 0.000000 
#    z 0.000000 0.000000 1.658300 
# 
# From -- ./inp_files/36469.got.cif
#   From: 2010.05.17/outbox.cif.g08.bks.cpg/sg24_19_cif.got.tgz:36469.got - 2010.06.04 00:33:39.
