data_PCOD9334862
_publ_section_title
;
Structure prediction by ZEFSAII (Michael W. Deem and Ramdas Pophale) SiO2 
 PCOD9334862
Probable space group: I 21 21 21
;
_chemical_formula_sum "Si O2"
_cell_formula_units_Z 56
_cell_length_a 15.442446
_cell_length_b 16.599172
_cell_length_c 10.604941
_cell_angle_alpha 90.000000
_cell_angle_beta 90.000000
_cell_angle_gamma 90.000000
_cell_volume 2718.383798
_symmetry_space_group_name_H-M "I 21 21 21"
_symmetry_group_IT_number 24
_symmetry_cell_setting 'orthorhombic'
loop_
_space_group_symop_operation_xyz
x,y,z
-x,1/2-y,z
x,-y,1/2-z
1/2-x,y,-z
1/2+x,1/2+y,1/2+z
1/2-x,-y,1/2+z
1/2+x,1/2-y,-z
-x,1/2+y,1/2-z
loop_
_atom_site_type_symbol
_atom_site_label
_atom_site_fract_x
_atom_site_fract_y
_atom_site_fract_z
Si Si1 0.250000 0.843344 0.000000
Si Si2 0.365552 0.323410 0.185854
Si Si3 0.500000 0.750000 0.121596
Si Si4 0.505816 0.920945 0.465264
Si Si5 0.946615 0.909027 0.249509
Si Si6 0.187009 0.724102 0.221639
Si Si7 0.345536 0.811533 0.520889
Si Si8 0.563801 0.593516 0.978739
O O1 0.223573 0.783196 0.114199
O O2 0.165210 0.899460 0.990177
O O3 0.420263 0.274848 0.289532
O O4 0.425047 0.397147 0.140847
O O5 0.267922 0.331392 0.234205
O O6 0.354579 0.268071 0.063078
O O7 0.524739 0.674137 0.037592
O O8 0.541366 0.894542 0.602681
O O9 0.417322 0.870321 0.464384
O O10 0.481030 0.014388 0.464170
O O11 0.887863 0.839445 0.188945
O O12 0.035622 0.910802 0.168679
O O13 0.909350 0.000000 0.250000
O O14 0.151836 0.780956 0.334987
O O15 0.250000 0.846822 0.500000
#
# Coordination Sequence:
#
# PCOD9334862 Si02
#       8
#     4   8   4   8   8   8   8   8
#     4  12  24  42  66 104 138 182 226 272 342 430
#     4  11  22  41  66  96 130 171 226 280 338 404
#     4  12  22  46  62  92 138 180 226 276 346 422
#     4  11  22  42  68  98 131 172 225 283 339 400
#     4  10  23  44  67  98 129 172 228 283 338 405
#     4  11  23  42  69  97 132 177 228 282 344 408
#     4  10  21  37  66  96 123 170 219 273 331 391
#     4  11  26  42  67  97 139 179 224 278 348 417
#
# _framework density 20.600473999999998
#
# number of rings (size 3 to 8) (size 9 to 14) (size 15 to 20)
#    0.000    1.143    4.286    1.714    1.000    1.714 
#    2.571    0.000    3.143    0.000    0.000    0.000 
#    0.000    0.000    0.000    0.000    0.000    0.000 
#
# Total GULP energy -156257.937925 kJ/mol
# GULP energy per Si atom -5580.640640 kJ/mol
# Density = 2.055359 g / cm^3
# Si number density = 20.600474 Si / 1000 Ang^3
#
#
#
# Elastic Constant Matrix: (Units=GPa)
#
#
# Indices 1 2 3 4 5 6 
#
# 1 83.1619 49.6262 -2.0591 0.0000 0.0000 0.0000
# 2 49.6262 62.9022 19.3455 0.0000 0.0000 0.0000
# 3 -2.0591 19.3455 56.9577 0.0000 0.0000 0.0000
# 4 0.0000 0.0000 0.0000 21.4234 0.0000 0.0000
# 5 0.0000 0.0000 0.0000 0.0000 35.5585 0.0000
# 6 0.0000 0.0000 0.0000 0.0000 0.0000 17.8328
#
#
#
# Elastic Compliance Matrix: (Units=1/GPa)
#
#
# Indices 1 2 3 4 5 6 
#
# 1 0.026228 -0.023431 0.008907 0.000000 0.000000 0.000000
# 2 -0.023431 0.038685 -0.013986 0.000000 0.000000 0.000000
# 3 0.008907 -0.013986 0.022629 0.000000 0.000000 0.000000
# 4 0.000000 0.000000 0.000000 0.046678 0.000000 0.000000
# 5 0.000000 0.000000 0.000000 0.000000 0.028123 0.000000
# 6 0.000000 0.000000 0.000000 0.000000 0.000000 0.056077
#
#
# Mechanical properties :
#
#
# Convention : Reuss Voigt Hill
#
# Bulk Modulus (GPa) = 32.76555 37.42745 35.09650
# Shear Modulus (GPa) = 17.50607 24.03688 20.77147
#
# Velocity S-wave (km/s) = 2.91828 3.41957 3.17882
# Velocity P-wave (km/s) = 5.22445 5.81369 5.52693
#
# Compressibility (1/GPa) = 0.03051986
#
# Stress axis : x y z
#
# Youngs Moduli (GPa) = 38.12749 25.84964 44.19043
#
# Poissons Ratio (x) = 0.60569 -0.39359
# Poissons Ratio (y) = 0.89338 0.61807
# Poissons Ratio (z) = -0.33959 0.36154
#
# Static dielectric constant tensor:
#      x y z
#    x 1.769070 0.000000 0.000000 
#    y 0.000000 1.724390 0.000000 
#    z 0.000000 0.000000 1.746820 
# 
# From -- ./inp_files/20915.got.cif
#   From: 2010.05.17/outbox.cif.g08.bks.cpg/sg24_11_cif.got.tgz:20915.got - 2010.06.04 00:33:39.
