data_PCOD9334603
_publ_section_title
;
Structure prediction by ZEFSAII (Michael W. Deem and Ramdas Pophale) SiO2 
 PCOD9334603
Probable space group: I 21 21 21
;
_chemical_formula_sum "Si O2"
_cell_formula_units_Z 56
_cell_length_a 9.352006
_cell_length_b 16.339348
_cell_length_c 18.353794
_cell_angle_alpha 90.000000
_cell_angle_beta 90.000000
_cell_angle_gamma 90.000000
_cell_volume 2804.563983
_symmetry_space_group_name_H-M "I 21 21 21"
_symmetry_group_IT_number 24
_symmetry_cell_setting 'orthorhombic'
loop_
_space_group_symop_operation_xyz
x,y,z
-x,1/2-y,z
x,-y,1/2-z
1/2-x,y,-z
1/2+x,1/2+y,1/2+z
1/2-x,-y,1/2+z
1/2+x,1/2-y,-z
-x,1/2+y,1/2-z
loop_
_atom_site_type_symbol
_atom_site_label
_atom_site_fract_x
_atom_site_fract_y
_atom_site_fract_z
Si Si1 0.503042 0.102135 0.826733
Si Si2 0.919545 0.165764 0.013525
Si Si3 0.516451 0.428741 0.610470
Si Si4 0.093608 0.988511 0.532482
Si Si5 0.229797 0.618891 0.203735
Si Si6 0.804773 0.313264 0.290456
Si Si7 0.556602 0.566725 0.190261
O O1 0.549444 0.144529 0.901733
O O2 0.640465 0.090276 0.774700
O O3 0.390575 0.156298 0.781237
O O4 0.440573 0.013060 0.847721
O O5 0.000000 0.250000 0.995083
O O6 0.750000 0.171137 0.000000
O O7 0.991622 0.090648 0.969814
O O8 0.536761 0.445687 0.526126
O O9 0.353737 0.414205 0.633293
O O10 0.605833 0.353837 0.643241
O O11 0.250000 0.965284 0.500000
O O12 0.093071 0.029256 0.611348
O O13 0.210529 0.716696 0.205399
O O14 0.390950 0.589223 0.200279
O O15 0.650575 0.353808 0.294557
O O16 0.597102 0.500000 0.250000
#
# Coordination Sequence:
#
# PCOD9334603 Si02
#       7
#     8   8   8   8   8   8   8
#     4  10  21  41  69  95 130 177 222 260 324 416
#     4  11  25  44  70 101 137 173 218 277 342 396
#     4  10  20  40  69  88 125 173 220 265 328 399
#     4  11  25  45  67  94 130 174 229 268 325 411
#     4  11  23  39  63  99 133 161 222 279 336 390
#     4  11  21  41  64  97 126 173 219 274 324 394
#     4  12  26  42  65  93 131 173 218 275 338 394
#
# _framework density 19.967452000000002
#
# number of rings (size 3 to 8) (size 9 to 14) (size 15 to 20)
#    0.000    1.143    1.429    6.857    8.000    0.000 
#    2.571    4.286    0.000    0.000    0.000    0.000 
#    0.000    0.000    0.000    0.000    0.000    0.000 
#
# Total GULP energy -156587.950222 kJ/mol
# GULP energy per Si atom -5592.426794 kJ/mol
# Density = 1.992201 g / cm^3
# Si number density = 19.967452 Si / 1000 Ang^3
#
#
#
# Elastic Constant Matrix: (Units=GPa)
#
#
# Indices 1 2 3 4 5 6 
#
# 1 106.1459 9.2874 20.0272 0.0000 0.0000 0.0000
# 2 9.2874 103.9042 41.8001 0.0000 0.0000 0.0000
# 3 20.0272 41.8001 114.0004 0.0000 0.0000 0.0000
# 4 0.0000 0.0000 0.0000 7.4657 0.0000 0.0000
# 5 0.0000 0.0000 0.0000 0.0000 17.8180 0.0000
# 6 0.0000 0.0000 0.0000 0.0000 0.0000 40.8128
#
#
#
# Elastic Compliance Matrix: (Units=1/GPa)
#
#
# Indices 1 2 3 4 5 6 
#
# 1 0.009748 -0.000214 -0.001634 0.000000 0.000000 0.000000
# 2 -0.000214 0.011294 -0.004104 0.000000 0.000000 0.000000
# 3 -0.001634 -0.004104 0.010564 0.000000 0.000000 0.000000
# 4 0.000000 0.000000 0.000000 0.133946 0.000000 0.000000
# 5 0.000000 0.000000 0.000000 0.000000 0.056123 0.000000
# 6 0.000000 0.000000 0.000000 0.000000 0.000000 0.024502
#
#
# Mechanical properties :
#
#
# Convention : Reuss Voigt Hill
#
# Bulk Modulus (GPa) = 50.75468 51.80889 51.28178
# Shear Modulus (GPa) = 18.89302 30.08168 24.48735
#
# Velocity S-wave (km/s) = 3.07936 3.88562 3.50575
# Velocity P-wave (km/s) = 6.17391 6.79218 6.49041
#
# Compressibility (1/GPa) = 0.01970262
#
# Stress axis : x y z
#
# Youngs Moduli (GPa) = 102.58492 88.54075 94.66448
#
# Poissons Ratio (x) = 0.01894 0.15469
# Poissons Ratio (y) = 0.02195 0.38847
# Poissons Ratio (z) = 0.16763 0.36334
#
# Static dielectric constant tensor:
#      x y z
#    x 1.715990 0.000000 0.000000 
#    y 0.000000 1.695270 0.000000 
#    z 0.000000 0.000000 1.688730 
# 
# From -- ./inp_files/32829.got.cif
#   From: 2010.05.17/outbox.cif.g08.bks.cpg/sg24_17_cif.got.tgz:32829.got - 2010.06.04 00:33:39.
