data_PCOD9334836
_publ_section_title
;
Structure prediction by ZEFSAII (Michael W. Deem and Ramdas Pophale) SiO2 
 PCOD9334836
Probable space group: I 21 21 21
;
_chemical_formula_sum "Si O2"
_cell_formula_units_Z 64
_cell_length_a 13.323113
_cell_length_b 18.290023
_cell_length_c 13.824570
_cell_angle_alpha 90.000000
_cell_angle_beta 90.000000
_cell_angle_gamma 90.000000
_cell_volume 3368.771815
_symmetry_space_group_name_H-M "I 21 21 21"
_symmetry_group_IT_number 24
_symmetry_cell_setting 'orthorhombic'
loop_
_space_group_symop_operation_xyz
x,y,z
-x,1/2-y,z
x,-y,1/2-z
1/2-x,y,-z
1/2+x,1/2+y,1/2+z
1/2-x,-y,1/2+z
1/2+x,1/2-y,-z
-x,1/2+y,1/2-z
loop_
_atom_site_type_symbol
_atom_site_label
_atom_site_fract_x
_atom_site_fract_y
_atom_site_fract_z
Si Si1 0.250000 0.258640 0.883868
Si Si2 0.471248 0.553458 0.383919
Si Si3 0.570207 0.684487 0.268708
Si Si4 0.863164 0.569780 0.885958
Si Si5 0.863165 0.430220 0.385958
Si Si6 0.971248 0.053458 0.116081
Si Si7 0.750000 0.069293 0.116407
Si Si8 0.929793 0.684487 0.268708
O O1 0.153777 0.219311 0.838236
O O2 0.250000 0.344648 0.857573
O O3 0.346223 0.219311 0.838236
O O4 0.250000 0.252805 0.000000
O O5 0.505952 0.626455 0.330253
O O6 0.551721 0.490035 0.363629
O O7 0.472956 0.565811 0.500000
O O8 0.356797 0.535488 0.354425
O O9 0.500000 0.750000 0.232974
O O10 0.619321 0.639604 0.181173
O O11 0.750000 0.540555 0.869340
O O12 0.871199 0.587568 0.000000
O O13 0.880679 0.360396 0.318827
O O14 0.948279 0.490035 0.363629
O O15 0.856797 0.035489 0.145575
O O16 0.005952 0.126455 0.169747
O O17 0.750000 0.066051 0.000000
O O18 0.000000 0.750000 0.232975
#
# Coordination Sequence:
#
# PCOD9334836 Si02
#       8
#     8   8   8   8   8   8   8   8
#     4  11  22  36  57  91 129 156 185 238 305 369
#     4  10  21  37  60  91 123 159 196 244 302 359
#     4  12  23  37  61  91 121 156 200 243 300 360
#     4  10  23  43  63  85 117 159 208 254 292 339
#     4  10  23  43  63  85 117 159 208 254 292 339
#     4  10  21  37  60  91 123 159 196 244 302 359
#     4   9  18  36  58  86 126 157 186 232 299 369
#     4  12  23  37  61  91 121 156 200 243 300 360
#
# _framework density 18.998021999999999
#
# number of rings (size 3 to 8) (size 9 to 14) (size 15 to 20)
#    0.000    1.500    3.750    1.500    1.750    2.500 
#    0.000    3.750    0.000    0.000    0.000    0.000 
#    0.000    0.000    0.000    0.000    0.000    0.000 
#
# Total GULP energy -178739.465192 kJ/mol
# GULP energy per Si atom -5585.608287 kJ/mol
# Density = 1.895478 g / cm^3
# Si number density = 18.998022 Si / 1000 Ang^3
#
#
#
# Elastic Constant Matrix: (Units=GPa)
#
#
# Indices 1 2 3 4 5 6 
#
# 1 182.2098 61.8221 40.0099 0.0000 0.0000 0.0000
# 2 61.8221 85.1532 39.3909 0.0001 0.0000 0.0000
# 3 40.0099 39.3909 83.6197 0.0002 0.0000 0.0000
# 4 0.0000 0.0001 0.0002 29.9427 0.0000 0.0000
# 5 0.0000 0.0000 0.0000 0.0000 1.0495 0.0000
# 6 0.0000 0.0000 0.0000 0.0000 0.0000 38.3974
#
#
#
# Elastic Compliance Matrix: (Units=1/GPa)
#
#
# Indices 1 2 3 4 5 6 
#
# 1 0.007389 -0.004768 -0.001289 0.000000 0.000000 0.000000
# 2 -0.004768 0.018092 -0.006241 0.000000 0.000000 0.000000
# 3 -0.001289 -0.006241 0.015516 0.000000 0.000000 0.000000
# 4 0.000000 0.000000 0.000000 0.033397 0.000001 0.000000
# 5 0.000000 0.000000 0.000000 0.000001 0.952833 0.000000
# 6 0.000000 0.000000 0.000000 0.000000 0.000000 0.026043
#
#
# Mechanical properties :
#
#
# Convention : Reuss Voigt Hill
#
# Bulk Modulus (GPa) = 60.97666 70.38096 65.67881
# Shear Modulus (GPa) = 4.61538 27.86190 16.23864
#
# Velocity S-wave (km/s) = 1.56034 3.83373 2.92679
# Velocity P-wave (km/s) = 5.95082 7.53151 6.78733
#
# Compressibility (1/GPa) = 0.01639972
#
# Stress axis : x y z
#
# Youngs Moduli (GPa) = 135.33500 55.27163 64.44960
#
# Poissons Ratio (x) = 0.26354 0.08310
# Poissons Ratio (y) = 0.64529 0.40226
# Poissons Ratio (z) = 0.17450 0.34497
#
# Static dielectric constant tensor:
#      x y z
#    x 1.690600 0.000000 0.000000 
#    y 0.000000 1.621530 0.000000 
#    z 0.000000 0.000000 1.645470 
# 
# From -- ./inp_files/25999.got.cif
#   From: 2010.05.17/outbox.cif.g08.bks.cpg/sg24_13_cif.got.tgz:25999.got - 2010.06.04 00:33:39.
