data_PCOD9334341
_publ_section_title
;
Structure prediction by ZEFSAII (Michael W. Deem and Ramdas Pophale) SiO2 
 PCOD9334341
Probable space group: I 21 21 21
;
_chemical_formula_sum "Si O2"
_cell_formula_units_Z 48
_cell_length_a 5.123400
_cell_length_b 26.559275
_cell_length_c 14.796150
_cell_angle_alpha 90.000000
_cell_angle_beta 90.000000
_cell_angle_gamma 90.000000
_cell_volume 2013.368201
_symmetry_space_group_name_H-M "I 21 21 21"
_symmetry_group_IT_number 24
_symmetry_cell_setting 'orthorhombic'
loop_
_space_group_symop_operation_xyz
x,y,z
-x,1/2-y,z
x,-y,1/2-z
1/2-x,y,-z
1/2+x,1/2+y,1/2+z
1/2-x,-y,1/2+z
1/2+x,1/2-y,-z
-x,1/2+y,1/2-z
loop_
_atom_site_type_symbol
_atom_site_label
_atom_site_fract_x
_atom_site_fract_y
_atom_site_fract_z
Si Si1 0.550273 0.389727 0.739393
Si Si2 0.000000 0.750000 0.564374
Si Si3 0.780945 0.500000 0.250000
Si Si4 0.750000 0.950077 0.000000
Si Si5 0.105610 0.142518 0.906177
Si Si6 0.250000 0.718475 0.000000
Si Si7 0.540307 0.539362 0.433783
Si Si8 0.567757 0.865190 0.137854
O O1 0.548385 0.450484 0.732444
O O2 0.681221 0.375097 0.833235
O O3 0.268437 0.366951 0.720864
O O4 0.766987 0.371743 0.665223
O O5 0.750000 0.757178 0.500000
O O6 0.994399 0.698025 0.621091
O O7 0.610088 0.514210 0.338224
O O8 0.665688 0.913228 0.079412
O O9 0.531850 0.993302 0.998352
O O10 0.906171 0.093743 0.910535
O O11 0.250000 0.155552 0.000000
O O12 0.500000 0.750000 0.966039
O O13 0.371774 0.683126 0.077596
O O14 0.750000 0.563173 0.500000
#
# Coordination Sequence:
#
# PCOD9334341 Si02
#       8
#     8   4   4   4   8   4   8   8
#     4  11  23  43  64 103 138 179 227 278 337 410
#     4  10  22  42  66  90 122 170 222 276 330 380
#     4  10  20  40  60  92 144 172 222 274 334 400
#     4  11  22  36  66  96 134 174 221 260 334 412
#     4   9  22  43  66  93 132 177 226 278 332 392
#     4  11  24  48  76 102 136 178 227 292 356 422
#     4  10  20  38  59  94 129 174 218 267 329 400
#     4  11  25  43  70 100 138 178 222 279 345 412
#
# _framework density 23.840646
#
# number of rings (size 3 to 8) (size 9 to 14) (size 15 to 20)
#    0.000    1.667    1.667    2.000    1.167    4.667 
#   19.500    0.000    0.000    0.000    0.000    0.000 
#    0.000    0.000    0.000    0.000    0.000    0.000 
#
# Total GULP energy -133678.432984 kJ/mol
# GULP energy per Si atom -5569.934708 kJ/mol
# Density = 2.378638 g / cm^3
# Si number density = 23.840646 Si / 1000 Ang^3
#
#
#
# Elastic Constant Matrix: (Units=GPa)
#
#
# Indices 1 2 3 4 5 6 
#
# 1 62.4128 8.5514 -22.1288 0.0000 0.0000 0.0000
# 2 8.5514 167.1698 16.8649 0.0000 0.0000 0.0000
# 3 -22.1288 16.8649 35.8004 0.0000 0.0000 0.0000
# 4 0.0000 0.0000 0.0000 20.2803 0.0000 0.0000
# 5 0.0000 0.0000 0.0000 0.0000 27.9209 0.0000
# 6 0.0000 0.0000 0.0000 0.0000 0.0000 -23.2945
#
#
#
# Elastic Compliance Matrix: (Units=1/GPa)
#
#
# Indices 1 2 3 4 5 6 
#
# 1 0.021518 -0.002564 0.014509 0.000000 0.000000 0.000000
# 2 -0.002564 0.006586 -0.004688 0.000000 0.000000 0.000000
# 3 0.014509 -0.004688 0.039109 0.000000 0.000000 0.000000
# 4 0.000000 0.000000 0.000000 0.049309 0.000000 0.000000
# 5 0.000000 0.000000 0.000000 0.000000 0.035816 0.000000
# 6 0.000000 0.000000 0.000000 0.000000 0.000000 -0.042929
#
#
# Mechanical properties :
#
#
# Convention : Reuss Voigt Hill
#
# Bulk Modulus (GPa) = 12.23606 30.21754 21.22680
# Shear Modulus (GPa) = 40.93752 22.45438 31.69595
#
# Velocity S-wave (km/s) = 4.14832 3.07229 3.65018
# Velocity P-wave (km/s) = 5.29985 5.02868 5.16604
#
# Compressibility (1/GPa) = 0.08172565
#
# Stress axis : x y z
#
# Youngs Moduli (GPa) = 46.47317 151.83650 25.56965
#
# Poissons Ratio (x) = 0.38937 -0.37098
# Poissons Ratio (y) = 0.11918 0.11986
# Poissons Ratio (z) = -0.67426 0.71176
#
# Static dielectric constant tensor:
#      x y z
#    x 2.007250 0.000000 0.000000 
#    y 0.000000 1.992390 0.000000 
#    z 0.000000 0.000000 2.003290 
# 
# From -- ./inp_files/23961.got.cif
#   From: 2010.05.17/outbox.cif.g08.bks.cpg/sg24_12_cif.got.tgz:23961.got - 2010.06.04 00:33:39.
