data_PCOD9334532
_publ_section_title
;
Structure prediction by ZEFSAII (Michael W. Deem and Ramdas Pophale) SiO2 
 PCOD9334532
Probable space group: I 21 21 21
;
_chemical_formula_sum "Si O2"
_cell_formula_units_Z 40
_cell_length_a 28.172798
_cell_length_b 14.067147
_cell_length_c 5.335638
_cell_angle_alpha 90.000000
_cell_angle_beta 90.000000
_cell_angle_gamma 90.000000
_cell_volume 2114.571449
_symmetry_space_group_name_H-M "I 21 21 21"
_symmetry_group_IT_number 24
_symmetry_cell_setting 'orthorhombic'
loop_
_space_group_symop_operation_xyz
x,y,z
-x,1/2-y,z
x,-y,1/2-z
1/2-x,y,-z
1/2+x,1/2+y,1/2+z
1/2-x,-y,1/2+z
1/2+x,1/2-y,-z
-x,1/2+y,1/2-z
loop_
_atom_site_type_symbol
_atom_site_label
_atom_site_fract_x
_atom_site_fract_y
_atom_site_fract_z
Si Si1 0.625277 0.768301 0.438331
Si Si2 0.534431 0.903837 0.388293
Si Si3 0.404199 0.826934 0.919119
Si Si4 0.959641 0.500000 0.250000
Si Si5 0.500000 0.750000 0.019793
Si Si6 0.807097 0.058166 0.998135
O O1 0.580251 0.841046 0.451879
O O2 0.625257 0.695183 0.669756
O O3 0.669637 0.838554 0.470850
O O4 0.619352 0.711411 0.175379
O O5 0.496443 0.933266 0.598836
O O6 0.504767 0.841037 0.194821
O O7 0.550314 0.000000 0.250000
O O8 0.424875 0.933702 0.915083
O O9 0.451341 0.762376 0.878587
O O10 0.821206 0.000000 0.750000
O O11 0.750000 0.065496 0.000000
O O12 0.821600 0.000000 0.250000
#
# Coordination Sequence:
#
# PCOD9334532 Si02
#       6
#     8   8   8   4   4   8
#     4  11  24  37  56  85 114 150 189 243 291 345
#     4  11  22  33  53  74 110 154 198 238 285 332
#     4  11  23  37  55  76 115 150 198 244 281 337
#     4  12  22  36  54  78 110 162 204 238 288 326
#     4  10  20  40  46  76 110 150 198 246 282 332
#     4  10  21  39  64  90 119 148 183 231 294 365
#
# _framework density 18.916364000000002
#
# number of rings (size 3 to 8) (size 9 to 14) (size 15 to 20)
#    0.000    1.200    2.000    5.400    4.200    0.800 
#    0.000    0.000    0.000    0.000    0.000    2.800 
#    0.000    0.000    0.000    0.000    0.000    0.000 
#
# Total GULP energy -111598.620651 kJ/mol
# GULP energy per Si atom -5579.931033 kJ/mol
# Density = 1.887331 g / cm^3
# Si number density = 18.916364 Si / 1000 Ang^3
#
#
#
# Elastic Constant Matrix: (Units=GPa)
#
#
# Indices 1 2 3 4 5 6 
#
# 1 29.7691 11.3821 23.9972 0.0000 0.0000 0.0000
# 2 11.3821 71.4322 40.5837 0.0000 0.0000 0.0000
# 3 23.9972 40.5837 110.8931 0.0001 -0.0001 -0.0001
# 4 0.0000 0.0000 0.0001 35.1342 0.0000 0.0000
# 5 0.0000 0.0000 -0.0001 0.0000 7.9013 0.0000
# 6 0.0000 0.0000 -0.0001 0.0000 0.0000 30.9293
#
#
#
# Elastic Compliance Matrix: (Units=1/GPa)
#
#
# Indices 1 2 3 4 5 6 
#
# 1 0.040889 -0.001879 -0.008161 0.000000 0.000000 0.000000
# 2 -0.001879 0.017761 -0.006093 0.000000 0.000000 0.000000
# 3 -0.008161 -0.006093 0.013014 0.000000 0.000000 0.000000
# 4 0.000000 0.000000 0.000000 0.028462 0.000000 0.000000
# 5 0.000000 0.000000 0.000000 0.000000 0.126562 0.000000
# 6 0.000000 0.000000 0.000000 0.000000 0.000000 0.032332
#
#
# Mechanical properties :
#
#
# Convention : Reuss Voigt Hill
#
# Bulk Modulus (GPa) = 25.38248 40.44672 32.91460
# Shear Modulus (GPa) = 16.42483 23.86837 20.14660
#
# Velocity S-wave (km/s) = 2.94987 3.55601 3.26703
# Velocity P-wave (km/s) = 5.00497 6.18778 5.62753
#
# Compressibility (1/GPa) = 0.03939725
#
# Stress axis : x y z
#
# Youngs Moduli (GPa) = 24.45665 56.30463 76.84247
#
# Poissons Ratio (x) = 0.10579 0.62709
# Poissons Ratio (y) = 0.04595 0.46822
# Poissons Ratio (z) = 0.19958 0.34308
#
# Static dielectric constant tensor:
#      x y z
#    x 1.668120 0.000000 0.000000 
#    y 0.000000 1.677530 0.000000 
#    z 0.000000 0.000000 1.720250 
# 
# From -- ./inp_files/2514.got.cif
#   From: 2010.05.17/outbox.cif.g08.bks.cpg/sg24_2_cif.got.tgz:2514.got - 2010.06.04 00:33:39.
