data_PCOD9334345
_publ_section_title
;
Structure prediction by ZEFSAII (Michael W. Deem and Ramdas Pophale) SiO2 
 PCOD9334345
Probable space group: I 21 21 21
;
_chemical_formula_sum "Si O2"
_cell_formula_units_Z 60
_cell_length_a 23.263733
_cell_length_b 15.304411
_cell_length_c 8.829423
_cell_angle_alpha 90.000000
_cell_angle_beta 90.000000
_cell_angle_gamma 90.000000
_cell_volume 3143.607733
_symmetry_space_group_name_H-M "I 21 21 21"
_symmetry_group_IT_number 24
_symmetry_cell_setting 'orthorhombic'
loop_
_space_group_symop_operation_xyz
x,y,z
-x,1/2-y,z
x,-y,1/2-z
1/2-x,y,-z
1/2+x,1/2+y,1/2+z
1/2-x,-y,1/2+z
1/2+x,1/2-y,-z
-x,1/2+y,1/2-z
loop_
_atom_site_type_symbol
_atom_site_label
_atom_site_fract_x
_atom_site_fract_y
_atom_site_fract_z
Si Si1 0.750000 0.498180 0.500000
Si Si2 0.252256 0.867576 0.751872
Si Si3 0.134710 0.223520 0.212298
Si Si4 0.546753 0.401527 0.293783
Si Si5 0.475658 0.846959 0.870367
Si Si6 0.586053 0.910006 0.694343
Si Si7 0.419222 0.591835 0.331824
Si Si8 0.360208 0.771346 0.348791
O O1 0.724019 0.566887 0.620010
O O2 0.723832 0.428758 0.381157
O O3 0.308312 0.812284 0.793066
O O4 0.202916 0.803554 0.695557
O O5 0.080562 0.168602 0.270235
O O6 0.122660 0.325569 0.241411
O O7 0.136882 0.218811 0.030271
O O8 0.563393 0.500000 0.250000
O O9 0.540410 0.393360 0.473942
O O10 0.483298 0.384357 0.225118
O O11 0.592644 0.334006 0.228013
O O12 0.500000 0.750000 0.907486
O O13 0.524683 0.896344 0.776326
O O14 0.578612 0.915876 0.513726
O O15 0.612611 0.000000 0.750000
O O16 0.404323 0.500000 0.250000
O O17 0.376271 0.672447 0.301730
#
# Coordination Sequence:
#
# PCOD9334345 Si02
#       8
#     4   8   8   8   8   8   8   8
#     4  10  24  42  64  82 122 152 196 232 278 340
#     4  11  23  43  61  89 117 154 191 236 285 341
#     4  10  22  39  60  84 117 156 192 239 294 340
#     4  11  23  35  56  87 121 155 195 240 292 349
#     4  10  21  37  58  84 117 155 196 241 290 345
#     4  10  20  38  60  85 115 152 195 241 289 346
#     4  10  21  39  59  86 117 155 194 241 296 346
#     4  11  22  38  62  85 120 155 194 242 290 348
#
# _framework density 19.086351000000001
#
# number of rings (size 3 to 8) (size 9 to 14) (size 15 to 20)
#    0.000    1.600    1.333    3.600    3.733    3.200 
#    2.400    0.667    0.000    0.000    0.000    0.000 
#    0.000    0.000    0.000    0.000    0.000    0.000 
#
# Total GULP energy -167304.375306 kJ/mol
# GULP energy per Si atom -5576.812510 kJ/mol
# Density = 1.904291 g / cm^3
# Si number density = 19.086351 Si / 1000 Ang^3
#
#
#
# Elastic Constant Matrix: (Units=GPa)
#
#
# Indices 1 2 3 4 5 6 
#
# 1 78.2329 50.9313 9.7707 0.0000 0.0000 0.0000
# 2 50.9313 117.0672 38.2723 0.0000 0.0000 0.0000
# 3 9.7707 38.2723 46.6149 0.0000 0.0000 0.0000
# 4 0.0000 0.0000 0.0000 33.8346 0.0000 0.0000
# 5 0.0000 0.0000 0.0000 0.0000 16.3003 0.0000
# 6 0.0000 0.0000 0.0000 0.0000 0.0000 1.6628
#
#
#
# Elastic Compliance Matrix: (Units=1/GPa)
#
#
# Indices 1 2 3 4 5 6 
#
# 1 0.018286 -0.009162 0.003689 0.000000 0.000000 0.000000
# 2 -0.009162 0.016266 -0.011435 0.000000 0.000000 0.000000
# 3 0.003689 -0.011435 0.030067 0.000000 0.000000 0.000000
# 4 0.000000 0.000000 0.000000 0.029556 0.000000 0.000000
# 5 0.000000 0.000000 0.000000 0.000000 0.061349 0.000000
# 6 0.000000 0.000000 0.000000 0.000000 0.000000 0.601402
#
#
# Mechanical properties :
#
#
# Convention : Reuss Voigt Hill
#
# Bulk Modulus (GPa) = 32.46214 48.87375 40.66794
# Shear Modulus (GPa) = 6.24213 19.88891 13.06552
#
# Velocity S-wave (km/s) = 1.81041 3.23158 2.61923
# Velocity P-wave (km/s) = 4.62764 6.29177 5.52275
#
# Compressibility (1/GPa) = 0.03080512
#
# Stress axis : x y z
#
# Youngs Moduli (GPa) = 54.68676 61.47692 33.25858
#
# Poissons Ratio (x) = 0.56322 -0.12269
# Poissons Ratio (y) = 0.50102 0.38031
# Poissons Ratio (z) = -0.20174 0.70298
#
# Static dielectric constant tensor:
#      x y z
#    x 1.631890 0.000000 0.000000 
#    y 0.000000 1.676350 0.000000 
#    z 0.000000 0.000000 1.683260 
# 
# From -- ./inp_files/16008.got.cif
#   From: 2010.05.17/outbox.cif.g08.bks.cpg/sg24_9_cif.got.tgz:16008.got - 2010.06.04 00:33:39.
