data_PCOD9334535
_publ_section_title
;
Structure prediction by ZEFSAII (Michael W. Deem and Ramdas Pophale) SiO2 
 PCOD9334535
Probable space group: I 21 21 21
;
_chemical_formula_sum "Si O2"
_cell_formula_units_Z 48
_cell_length_a 17.142521
_cell_length_b 19.011809
_cell_length_c 7.972599
_cell_angle_alpha 90.000000
_cell_angle_beta 90.000000
_cell_angle_gamma 90.000000
_cell_volume 2598.352411
_symmetry_space_group_name_H-M "I 21 21 21"
_symmetry_group_IT_number 24
_symmetry_cell_setting 'orthorhombic'
loop_
_space_group_symop_operation_xyz
x,y,z
-x,1/2-y,z
x,-y,1/2-z
1/2-x,y,-z
1/2+x,1/2+y,1/2+z
1/2-x,-y,1/2+z
1/2+x,1/2-y,-z
-x,1/2+y,1/2-z
loop_
_atom_site_type_symbol
_atom_site_label
_atom_site_fract_x
_atom_site_fract_y
_atom_site_fract_z
Si Si1 0.726329 0.069273 0.692751
Si Si2 0.498444 0.166438 0.952081
Si Si3 0.897405 0.920078 0.705296
Si Si4 0.909573 0.228274 0.642957
Si Si5 0.380725 0.702478 0.783065
Si Si6 0.661748 0.300907 0.028379
O O1 0.750000 0.060757 0.500000
O O2 0.803712 0.074676 0.808017
O O3 0.676537 0.137924 0.704456
O O4 0.681150 0.000000 0.750000
O O5 0.500000 0.250000 0.008080
O O6 0.532748 0.173845 0.765265
O O7 0.556633 0.114872 0.050502
O O8 0.409778 0.145516 0.991566
O O9 0.907424 0.856973 0.840290
O O10 0.923194 0.000000 0.750000
O O11 0.879869 0.244502 0.456218
O O12 0.000000 0.250000 0.652043
O O13 0.142501 0.235981 0.791003
O O14 0.351505 0.745449 0.622255
O O15 0.750000 0.326534 0.000000
#
# Coordination Sequence:
#
# PCOD9334535 Si02
#       6
#     8   8   8   8   8   8
#     4  11  25  35  51  84 122 163 188 219 278 344
#     4  10  20  40  54  82 114 151 198 238 287 338
#     4  11  21  35  56  81 114 155 196 221 275 351
#     4  12  20  39  60  81 121 152 189 240 295 342
#     4  11  23  34  57  85 114 158 193 234 275 347
#     4  11  22  36  60  82 114 147 194 248 295 337
#
# _framework density 18.473246
#
# number of rings (size 3 to 8) (size 9 to 14) (size 15 to 20)
#    0.000    1.000    6.667    2.500    4.667    0.000 
#    0.000    0.000    0.000    0.000    0.000    5.833 
#    0.000    0.000    0.000    0.000    0.000    0.000 
#
# Total GULP energy -133606.307369 kJ/mol
# GULP energy per Si atom -5566.929474 kJ/mol
# Density = 1.843120 g / cm^3
# Si number density = 18.473246 Si / 1000 Ang^3
#
#
#
# Elastic Constant Matrix: (Units=GPa)
#
#
# Indices 1 2 3 4 5 6 
#
# 1 108.6283 11.7738 34.1826 0.0000 0.0000 0.0000
# 2 11.7738 50.9267 13.8896 0.0000 0.0000 0.0000
# 3 34.1826 13.8896 120.0496 0.0000 0.0000 0.0000
# 4 0.0000 0.0000 0.0000 22.7414 0.0000 0.0000
# 5 0.0000 0.0000 0.0000 0.0000 14.8168 0.0000
# 6 0.0000 0.0000 0.0000 0.0000 0.0000 13.3202
#
#
#
# Elastic Compliance Matrix: (Units=1/GPa)
#
#
# Indices 1 2 3 4 5 6 
#
# 1 0.010240 -0.001623 -0.002728 0.000000 0.000000 0.000000
# 2 -0.001623 0.020533 -0.001913 0.000000 0.000000 0.000000
# 3 -0.002728 -0.001913 0.009328 0.000000 0.000000 0.000000
# 4 0.000000 0.000000 0.000000 0.043973 0.000000 0.000000
# 5 0.000000 0.000000 0.000000 0.000000 0.067491 0.000000
# 6 0.000000 0.000000 0.000000 0.000000 0.000000 0.075074
#
#
# Mechanical properties :
#
#
# Convention : Reuss Voigt Hill
#
# Bulk Modulus (GPa) = 36.26889 44.36629 40.31759
# Shear Modulus (GPa) = 20.13213 24.82624 22.47919
#
# Velocity S-wave (km/s) = 3.30479 3.66990 3.49212
# Velocity P-wave (km/s) = 5.85133 6.48277 6.17512
#
# Compressibility (1/GPa) = 0.02757184
#
# Stress axis : x y z
#
# Youngs Moduli (GPa) = 97.65565 48.70151 107.20398
#
# Poissons Ratio (x) = 0.07906 0.29244
# Poissons Ratio (y) = 0.15854 0.20513
# Poissons Ratio (z) = 0.26640 0.09319
#
# Static dielectric constant tensor:
#      x y z
#    x 1.744880 0.000000 0.000000 
#    y 0.000000 1.652860 0.000000 
#    z 0.000000 0.000000 1.747210 
# 
# From -- ./inp_files/12998.got.cif
#   From: 2010.05.17/outbox.cif.g08.bks.cpg/sg24_7_cif.got.tgz:12998.got - 2010.06.04 00:33:39.
