data_PCOD9334013
_publ_section_title
;
Structure prediction by ZEFSAII (Michael W. Deem and Ramdas Pophale) SiO2 
 PCOD9334013
Probable space group: I 21 21 21
;
_chemical_formula_sum "Si O2"
_cell_formula_units_Z 52
_cell_length_a 11.371270
_cell_length_b 14.234771
_cell_length_c 15.957284
_cell_angle_alpha 90.000000
_cell_angle_beta 90.000000
_cell_angle_gamma 90.000000
_cell_volume 2582.964462
_symmetry_space_group_name_H-M "I 21 21 21"
_symmetry_group_IT_number 24
_symmetry_cell_setting 'orthorhombic'
loop_
_space_group_symop_operation_xyz
x,y,z
-x,1/2-y,z
x,-y,1/2-z
1/2-x,y,-z
1/2+x,1/2+y,1/2+z
1/2-x,-y,1/2+z
1/2+x,1/2-y,-z
-x,1/2+y,1/2-z
loop_
_atom_site_type_symbol
_atom_site_label
_atom_site_fract_x
_atom_site_fract_y
_atom_site_fract_z
Si Si1 0.227069 0.273373 0.791479
Si Si2 0.550755 0.646742 0.928395
Si Si3 0.278379 0.906116 0.783951
Si Si4 0.444000 0.059507 0.401810
Si Si5 0.175422 0.559568 0.586936
Si Si6 0.500000 0.250000 0.322082
Si Si7 0.149106 0.571098 0.183623
O O1 0.272710 0.166675 0.794256
O O2 0.193681 0.337638 0.870933
O O3 0.313386 0.337097 0.735094
O O4 0.112074 0.253549 0.736744
O O5 0.500000 0.750000 0.948688
O O6 0.647832 0.646831 0.855628
O O7 0.438110 0.593288 0.891169
O O8 0.601068 0.588792 0.006552
O O9 0.159051 0.943670 0.831763
O O10 0.335991 0.000000 0.750000
O O11 0.509854 0.155498 0.375227
O O12 0.538577 0.974843 0.411668
O O13 0.250000 0.556988 0.500000
O O14 0.238449 0.483652 0.647279
O O15 0.094223 0.500000 0.250000
#
# Coordination Sequence:
#
# PCOD9334013 Si02
#       7
#     8   8   8   8   8   4   8
#     4  10  22  38  63  93 122 168 213 259 313 377
#     4  12  22  40  62  93 130 165 209 263 324 380
#     4  11  26  44  65  89 127 175 215 261 315 387
#     4  11  23  37  61  96 128 161 204 264 328 375
#     4  11  22  39  64  96 128 163 209 266 319 370
#     4  10  20  34  58  92 128 158 200 258 312 376
#     4  10  20  36  61  91 126 162 208 257 308 381
#
# _framework density 20.131906000000001
#
# number of rings (size 3 to 8) (size 9 to 14) (size 15 to 20)
#    0.000    1.231    5.385    0.923    4.308    0.000 
#    2.769    1.538    0.000    0.000    0.000    0.000 
#    0.000    0.000    0.000    0.000    0.000    0.000 
#
# Total GULP energy -144790.894733 kJ/mol
# GULP energy per Si atom -5568.880567 kJ/mol
# Density = 2.008609 g / cm^3
# Si number density = 20.131906 Si / 1000 Ang^3
#
#
#
# Elastic Constant Matrix: (Units=GPa)
#
#
# Indices 1 2 3 4 5 6 
#
# 1 67.0425 26.3182 11.6543 0.0000 0.0000 0.0000
# 2 26.3182 125.5872 38.6192 0.0000 0.0000 0.0000
# 3 11.6543 38.6192 74.3053 0.0000 0.0000 0.0000
# 4 0.0000 0.0000 0.0000 31.3770 0.0000 0.0000
# 5 0.0000 0.0000 0.0000 0.0000 -16.5395 0.0000
# 6 0.0000 0.0000 0.0000 0.0000 0.0000 25.0635
#
#
#
# Elastic Compliance Matrix: (Units=1/GPa)
#
#
# Indices 1 2 3 4 5 6 
#
# 1 0.016307 -0.003131 -0.000930 0.000000 0.000000 0.000000
# 2 -0.003131 0.010079 -0.004747 0.000000 0.000000 0.000000
# 3 -0.000930 -0.004747 0.016071 0.000000 0.000000 0.000000
# 4 0.000000 0.000000 0.000000 0.031870 0.000000 0.000000
# 5 0.000000 0.000000 0.000000 0.000000 -0.060461 0.000000
# 6 0.000000 0.000000 0.000000 0.000000 0.000000 0.039899
#
#
# Mechanical properties :
#
#
# Convention : Reuss Voigt Hill
#
# Bulk Modulus (GPa) = 40.25853 46.67983 43.46918
# Shear Modulus (GPa) = 62.76578 20.66974 41.71776
#
# Velocity S-wave (km/s) = 5.58972 3.20772 4.55710
# Velocity P-wave (km/s) = 7.85498 6.07919 7.02344
#
# Compressibility (1/GPa) = 0.02483945
#
# Stress axis : x y z
#
# Youngs Moduli (GPa) = 61.32411 99.22060 62.22336
#
# Poissons Ratio (x) = 0.31068 0.05788
# Poissons Ratio (y) = 0.19202 0.29538
# Poissons Ratio (z) = 0.05704 0.47101
#
# Static dielectric constant tensor:
#      x y z
#    x 1.646890 0.000000 0.000000 
#    y 0.000000 1.735490 0.000000 
#    z 0.000000 0.000000 1.718030 
# 
# From -- ./inp_files/25808.got.cif
#   From: 2010.05.17/outbox.cif.g08.bks.cpg/sg24_13_cif.got.tgz:25808.got - 2010.06.04 00:33:39.
