data_PCOD9334877
_publ_section_title
;
Structure prediction by ZEFSAII (Michael W. Deem and Ramdas Pophale) SiO2 
 PCOD9334877
Probable space group: I 21 21 21
;
_chemical_formula_sum "Si O2"
_cell_formula_units_Z 36
_cell_length_a 23.833582
_cell_length_b 5.251093
_cell_length_c 16.120604
_cell_angle_alpha 90.000000
_cell_angle_beta 90.000000
_cell_angle_gamma 90.000000
_cell_volume 2017.531564
_symmetry_space_group_name_H-M "I 21 21 21"
_symmetry_group_IT_number 24
_symmetry_cell_setting 'orthorhombic'
loop_
_space_group_symop_operation_xyz
x,y,z
-x,1/2-y,z
x,-y,1/2-z
1/2-x,y,-z
1/2+x,1/2+y,1/2+z
1/2-x,-y,1/2+z
1/2+x,1/2-y,-z
-x,1/2+y,1/2-z
loop_
_atom_site_type_symbol
_atom_site_label
_atom_site_fract_x
_atom_site_fract_y
_atom_site_fract_z
Si Si1 0.813323 0.108378 0.987888
Si Si2 0.618759 0.877534 0.874301
Si Si3 0.695704 0.255026 0.198621
Si Si4 0.822167 0.626951 0.349826
Si Si5 0.500000 0.750000 0.806883
O O1 0.824723 0.198152 0.894989
O O2 0.750000 0.997447 0.000000
O O3 0.858717 0.924053 0.031675
O O4 0.813446 0.347729 0.050585
O O5 0.656067 0.654081 0.834142
O O6 0.554867 0.801708 0.862214
O O7 0.632465 0.151286 0.833556
O O8 0.674041 0.500000 0.250000
O O9 0.762522 0.300324 0.187604
O O10 0.686252 0.000000 0.250000
O O11 0.508703 0.500000 0.750000
#
# Coordination Sequence:
#
# PCOD9334877 Si02
#       5
#     8   8   8   8   4
#     4   8  20  37  54  76 113 154 197 228 282 361
#     4  10  21  38  58  74 112 159 194 233 287 331
#     4  11  22  31  51  84 116 143 185 242 293 341
#     4   9  20  35  55  74 108 156 197 221 280 349
#     4  12  26  40  58  88 122 150 204 252 276 328
#
# _framework density 17.843585999999998
#
# number of rings (size 3 to 8) (size 9 to 14) (size 15 to 20)
#    1.333    0.889    0.000    2.667    3.111    6.222 
#    0.000    0.000    0.000    0.000    0.000    0.000 
#    6.667    0.000    0.000    0.000    0.000    0.000 
#
# Total GULP energy -100258.929701 kJ/mol
# GULP energy per Si atom -5569.940539 kJ/mol
# Density = 1.780297 g / cm^3
# Si number density = 17.843586 Si / 1000 Ang^3
#
#
#
# Elastic Constant Matrix: (Units=GPa)
#
#
# Indices 1 2 3 4 5 6 
#
# 1 87.1846 26.2718 40.1601 0.0000 0.0000 0.0000
# 2 26.2718 124.8802 58.3436 0.0000 0.0000 0.0000
# 3 40.1601 58.3436 112.7933 0.0000 0.0000 0.0000
# 4 0.0000 0.0000 0.0000 22.6789 0.0000 0.0000
# 5 0.0000 0.0000 0.0000 0.0000 22.4905 0.0000
# 6 0.0000 0.0000 0.0000 0.0000 0.0000 15.9989
#
#
#
# Elastic Compliance Matrix: (Units=1/GPa)
#
#
# Indices 1 2 3 4 5 6 
#
# 1 0.013780 -0.000800 -0.004493 0.000000 0.000000 0.000000
# 2 -0.000800 0.010606 -0.005201 0.000000 0.000000 0.000000
# 3 -0.004493 -0.005201 0.013156 0.000000 0.000000 0.000000
# 4 0.000000 0.000000 0.000000 0.044094 0.000000 0.000000
# 5 0.000000 0.000000 0.000000 0.000000 0.044463 0.000000
# 6 0.000000 0.000000 0.000000 0.000000 0.000000 0.062504
#
#
# Mechanical properties :
#
#
# Convention : Reuss Voigt Hill
#
# Bulk Modulus (GPa) = 60.40734 63.82323 62.11528
# Shear Modulus (GPa) = 23.24396 25.57250 24.40823
#
# Velocity S-wave (km/s) = 3.61314 3.78980 3.70252
# Velocity P-wave (km/s) = 7.16475 7.41592 7.29142
#
# Compressibility (1/GPa) = 0.01655428
#
# Stress axis : x y z
#
# Youngs Moduli (GPa) = 72.56631 94.28647 76.01229
#
# Poissons Ratio (x) = 0.07544 0.34150
# Poissons Ratio (y) = 0.05806 0.39535
# Poissons Ratio (z) = 0.32602 0.49040
#
# Static dielectric constant tensor:
#      x y z
#    x 1.588270 0.000000 0.000000 
#    y 0.000000 1.633420 0.000000 
#    z 0.000000 0.000000 1.694970 
# 
# From -- ./inp_files/3617.got.cif
#   From: 2010.05.17/outbox.cif.g08.bks.cpg/sg24_2_cif.got.tgz:3617.got - 2010.06.04 00:33:39.
