data_PCOD9334257
_publ_section_title
;
Structure prediction by ZEFSAII (Michael W. Deem and Ramdas Pophale) SiO2 
 PCOD9334257
Probable space group: I 21 21 21
;
_chemical_formula_sum "Si O2"
_cell_formula_units_Z 48
_cell_length_a 16.177793
_cell_length_b 9.719987
_cell_length_c 16.280875
_cell_angle_alpha 90.000000
_cell_angle_beta 90.000000
_cell_angle_gamma 90.000000
_cell_volume 2560.134017
_symmetry_space_group_name_H-M "I 21 21 21"
_symmetry_group_IT_number 24
_symmetry_cell_setting 'orthorhombic'
loop_
_space_group_symop_operation_xyz
x,y,z
-x,1/2-y,z
x,-y,1/2-z
1/2-x,y,-z
1/2+x,1/2+y,1/2+z
1/2-x,-y,1/2+z
1/2+x,1/2-y,-z
-x,1/2+y,1/2-z
loop_
_atom_site_type_symbol
_atom_site_label
_atom_site_fract_x
_atom_site_fract_y
_atom_site_fract_z
Si Si1 0.337275 0.895124 0.684099
Si Si2 0.672535 0.979295 0.452919
Si Si3 0.307729 0.981347 0.075459
Si Si4 0.403822 0.277620 0.353368
Si Si5 0.593572 0.282816 0.980844
Si Si6 0.770990 0.855209 0.717350
O O1 0.395592 0.849402 0.609191
O O2 0.298740 0.759453 0.724583
O O3 0.374368 0.000000 0.750000
O O4 0.256382 0.967691 0.644215
O O5 0.750000 0.046412 0.500000
O O6 0.636525 0.866018 0.514663
O O7 0.702060 0.887335 0.375466
O O8 0.612063 0.095031 0.416127
O O9 0.364312 0.859465 0.108079
O O10 0.250000 0.934285 0.000000
O O11 0.361691 0.109572 0.041926
O O12 0.500000 0.250000 0.336867
O O13 0.350599 0.314323 0.272172
O O14 0.500000 0.250000 0.003586
O O15 0.738557 0.000000 0.750000
#
# Coordination Sequence:
#
# PCOD9334257 Si02
#       6
#     8   8   8   8   8   8
#     4  11  20  40  63  82 116 158 206 243 292 368
#     4  11  20  39  63  85 120 163 205 238 293 378
#     4  10  20  37  60  87 114 155 199 238 297 364
#     4  11  23  37  55  92 128 153 191 250 312 356
#     4  11  22  37  61  90 117 151 201 255 301 352
#     4  10  21  37  57  87 115 159 198 236 297 363
#
# _framework density 18.749019000000001
#
# number of rings (size 3 to 8) (size 9 to 14) (size 15 to 20)
#    0.000    1.333    5.000    2.000    0.000    0.667 
#    9.000    0.833    0.000    4.000    0.000    0.000 
#    0.000    0.000    0.000    0.000    0.000    0.000 
#
# Total GULP energy -133937.738550 kJ/mol
# GULP energy per Si atom -5580.739106 kJ/mol
# Density = 1.870635 g / cm^3
# Si number density = 18.749019 Si / 1000 Ang^3
#
#
#
# Elastic Constant Matrix: (Units=GPa)
#
#
# Indices 1 2 3 4 5 6 
#
# 1 26.5146 -4.1866 -4.3124 0.0000 0.0000 0.0000
# 2 -4.1866 66.6636 6.0804 0.0000 0.0000 0.0000
# 3 -4.3124 6.0804 59.3647 0.0000 0.0000 0.0000
# 4 0.0000 0.0000 0.0000 29.6855 0.0000 0.0000
# 5 0.0000 0.0000 0.0000 0.0000 7.1855 0.0000
# 6 0.0000 0.0000 0.0000 0.0000 0.0000 27.2303
#
#
#
# Elastic Compliance Matrix: (Units=1/GPa)
#
#
# Indices 1 2 3 4 5 6 
#
# 1 0.038478 0.002182 0.002572 0.000000 0.000000 0.000000
# 2 0.002182 0.015266 -0.001405 0.000000 0.000000 0.000000
# 3 0.002572 -0.001405 0.017176 0.000000 0.000000 0.000000
# 4 0.000000 0.000000 0.000000 0.033686 0.000000 0.000000
# 5 0.000000 0.000000 0.000000 0.000000 0.139170 0.000000
# 6 0.000000 0.000000 0.000000 0.000000 0.000000 0.036724
#
#
# Mechanical properties :
#
#
# Convention : Reuss Voigt Hill
#
# Bulk Modulus (GPa) = 12.88386 16.41173 14.64779
# Shear Modulus (GPa) = 16.68475 23.15102 19.91788
#
# Velocity S-wave (km/s) = 2.98635 3.51776 3.26290
# Velocity P-wave (km/s) = 4.33333 5.02712 4.69306
#
# Compressibility (1/GPa) = 0.07761650
#
# Stress axis : x y z
#
# Youngs Moduli (GPa) = 25.98896 65.50555 58.22158
#
# Poissons Ratio (x) = -0.14293 -0.14973
# Poissons Ratio (y) = -0.05671 0.08181
# Poissons Ratio (z) = -0.06683 0.09204
#
# Static dielectric constant tensor:
#      x y z
#    x 1.652860 0.000000 0.000000 
#    y 0.000000 1.664830 0.000000 
#    z 0.000000 0.000000 1.677910 
# 
# From -- ./inp_files/14147.got.cif
#   From: 2010.05.17/outbox.cif.g08.bks.cpg/sg24_8_cif.got.tgz:14147.got - 2010.06.04 00:33:39.
