data_PCOD9334127
_publ_section_title
;
Structure prediction by ZEFSAII (Michael W. Deem and Ramdas Pophale) SiO2 
 PCOD9334127
Probable space group: I 21 21 21
;
_chemical_formula_sum "Si O2"
_cell_formula_units_Z 48
_cell_length_a 39.320863
_cell_length_b 7.535235
_cell_length_c 7.993993
_cell_angle_alpha 90.000000
_cell_angle_beta 90.000000
_cell_angle_gamma 90.000000
_cell_volume 2368.555719
_symmetry_space_group_name_H-M "I 21 21 21"
_symmetry_group_IT_number 24
_symmetry_cell_setting 'orthorhombic'
loop_
_space_group_symop_operation_xyz
x,y,z
-x,1/2-y,z
x,-y,1/2-z
1/2-x,y,-z
1/2+x,1/2+y,1/2+z
1/2-x,-y,1/2+z
1/2+x,1/2-y,-z
-x,1/2+y,1/2-z
loop_
_atom_site_type_symbol
_atom_site_label
_atom_site_fract_x
_atom_site_fract_y
_atom_site_fract_z
Si Si1 0.789132 0.500000 0.451052
Si Si2 0.083373 0.716658 0.935897
Si Si3 0.158451 0.705412 0.047285
Si Si4 0.916627 0.216658 0.935897
Si Si5 0.039823 0.287253 0.250000
Si Si6 0.158451 0.705413 0.452715
O O1 0.790289 0.500000 0.250000
O O2 0.750000 0.500001 0.500000
O O3 0.810544 0.328658 0.507872
O O4 0.810544 0.671340 0.507872
O O5 0.082955 0.500000 0.938273
O O6 0.073375 0.774040 0.750000
O O7 0.122317 0.766659 0.974587
O O8 0.058781 0.779323 0.083551
O O9 0.155555 0.713477 0.250000
O O10 0.163801 0.499999 0.000996
O O11 0.941219 0.279323 0.083551
O O12 0.877684 0.266660 0.974589
O O13 0.044056 0.500000 0.250000
O O14 0.000000 0.250000 0.250002
#
# Coordination Sequence:
#
# PCOD9334127 Si02
#       6
#     8   8   8   8   8   8
#     4  10  22  36  52  80 116 150 184 236 292 344
#     4   9  17  32  56  80 104 142 191 234 277 336
#     4   9  17  34  57  78 104 145 192 234 283 341
#     4   9  17  32  56  80 104 142 191 234 277 336
#     4  10  20  36  54  78 112 148 180 232 292 342
#     4   9  17  34  57  78 104 145 192 234 283 341
#
# _framework density 20.265512000000001
#
# number of rings (size 3 to 8) (size 9 to 14) (size 15 to 20)
#    0.000    2.667    1.667    0.000    0.000    2.667 
#    3.000    0.000    0.000    0.000    0.000    0.000 
#    0.000    0.000    0.000    0.000    0.000    0.000 
#
# Total GULP energy -134016.216581 kJ/mol
# GULP energy per Si atom -5584.009024 kJ/mol
# Density = 2.021939 g / cm^3
# Si number density = 20.265512 Si / 1000 Ang^3
#
#
#
# Elastic Constant Matrix: (Units=GPa)
#
#
# Indices 1 2 3 4 5 6 
#
# 1 194.0943 48.5285 91.6579 0.0000 0.0000 0.0000
# 2 48.5285 69.9300 36.0946 0.0000 0.0000 0.0000
# 3 91.6579 36.0946 115.9141 0.0000 0.0000 0.0000
# 4 0.0000 0.0000 0.0000 -3.1817 0.0000 0.0000
# 5 0.0000 0.0000 0.0000 0.0000 23.6521 0.0000
# 6 0.0000 0.0000 0.0000 0.0000 0.0000 31.7847
#
#
#
# Elastic Compliance Matrix: (Units=1/GPa)
#
#
# Indices 1 2 3 4 5 6 
#
# 1 0.008710 -0.002966 -0.005964 0.000000 0.000000 0.000000
# 2 -0.002966 0.018049 -0.003275 0.000000 0.000000 0.000000
# 3 -0.005964 -0.003275 0.014363 0.000000 0.000000 0.000000
# 4 0.000000 0.000000 0.000000 -0.314301 0.000000 0.000000
# 5 0.000000 0.000000 0.000000 0.000000 0.042280 0.000000
# 6 0.000000 0.000000 0.000000 0.000000 0.000000 0.031462
#
#
# Mechanical properties :
#
#
# Convention : Reuss Voigt Hill
#
# Bulk Modulus (GPa) = 59.83721 81.38894 70.61307
# Shear Modulus (GPa) = -29.50581 24.02818 -2.73881
#
# Velocity S-wave (km/s) = -3.81985 3.44709 -1.16379
# Velocity P-wave (km/s) = 3.18367 7.48944 5.75445
#
# Compressibility (1/GPa) = 0.01671201
#
# Stress axis : x y z
#
# Youngs Moduli (GPa) = 114.81014 55.40564 69.62557
#
# Poissons Ratio (x) = 0.16434 0.41523
# Poissons Ratio (y) = 0.34055 0.22800
# Poissons Ratio (z) = 0.68470 0.18144
#
# Static dielectric constant tensor:
#      x y z
#    x 1.659120 0.000000 0.000000 
#    y 0.000000 1.746220 0.000000 
#    z 0.000000 0.000000 1.769480 
# 
# From -- ./inp_files/16829.got.cif
#   From: 2010.05.17/outbox.cif.g08.bks.cpg/sg24_9_cif.got.tgz:16829.got - 2010.06.04 00:33:39.
