data_PCOD9334562
_publ_section_title
;
Structure prediction by ZEFSAII (Michael W. Deem and Ramdas Pophale) SiO2 
 PCOD9334562
Probable space group: I 21 21 21
;
_chemical_formula_sum "Si O2"
_cell_formula_units_Z 40
_cell_length_a 8.821921
_cell_length_b 8.496819
_cell_length_c 27.861620
_cell_angle_alpha 90.000000
_cell_angle_beta 90.000000
_cell_angle_gamma 90.000000
_cell_volume 2088.458722
_symmetry_space_group_name_H-M "I 21 21 21"
_symmetry_group_IT_number 24
_symmetry_cell_setting 'orthorhombic'
loop_
_space_group_symop_operation_xyz
x,y,z
-x,1/2-y,z
x,-y,1/2-z
1/2-x,y,-z
1/2+x,1/2+y,1/2+z
1/2-x,-y,1/2+z
1/2+x,1/2-y,-z
-x,1/2+y,1/2-z
loop_
_atom_site_type_symbol
_atom_site_label
_atom_site_fract_x
_atom_site_fract_y
_atom_site_fract_z
Si Si1 0.105973 0.897004 0.792158
Si Si2 0.500000 0.250000 0.458037
Si Si3 0.255990 0.670758 0.406136
Si Si4 0.750000 0.022598 0.500000
Si Si5 0.606515 0.500000 0.750000
Si Si6 0.500000 0.250000 0.827223
Si Si7 0.421352 0.979185 0.393815
O O1 0.000000 0.750000 0.802674
O O2 0.030231 0.000000 0.750000
O O3 0.275398 0.870649 0.772236
O O4 0.129422 0.998278 0.839551
O O5 0.391037 0.365499 0.487057
O O6 0.597507 0.362089 0.423424
O O7 0.202727 0.584956 0.454594
O O8 0.329171 0.839585 0.418173
O O9 0.401312 0.566753 0.390324
O O10 0.136348 0.701548 0.363724
O O11 0.525491 0.401564 0.792090
#
# Coordination Sequence:
#
# PCOD9334562 Si02
#       7
#     8   4   8   4   4   4   8
#     4  10  21  37  63  95 119 164 224 260 311 369
#     4  10  22  42  63  96 128 155 214 276 324 396
#     4  10  23  40  66  91 127 170 213 268 334 398
#     4  10  24  44  64  98 120 172 216 274 336 392
#     4  10  26  40  58  96 134 174 210 270 322 396
#     4  12  24  44  59  94 140 169 216 260 340 392
#     4  10  20  40  64  90 122 164 215 267 311 383
#
# _framework density 19.15288
#
# number of rings (size 3 to 8) (size 9 to 14) (size 15 to 20)
#    0.600    1.200    3.000    0.000    5.600    7.200 
#    0.000    0.000    0.000    0.000    0.000    0.000 
#    0.000    0.000    0.000    0.000    0.000    0.000 
#
# Total GULP energy -111345.491313 kJ/mol
# GULP energy per Si atom -5567.274566 kJ/mol
# Density = 1.910929 g / cm^3
# Si number density = 19.152880 Si / 1000 Ang^3
#
#
#
# Elastic Constant Matrix: (Units=GPa)
#
#
# Indices 1 2 3 4 5 6 
#
# 1 66.2450 31.1803 43.2659 0.0000 0.0000 0.0000
# 2 31.1803 101.4689 59.7216 0.0000 0.0000 0.0000
# 3 43.2659 59.7216 126.0785 0.0000 0.0000 0.0000
# 4 0.0000 0.0000 0.0000 38.9160 0.0000 0.0000
# 5 0.0000 0.0000 0.0000 0.0000 -22.9141 0.0000
# 6 0.0000 0.0000 0.0000 0.0000 0.0000 23.1314
#
#
#
# Elastic Compliance Matrix: (Units=1/GPa)
#
#
# Indices 1 2 3 4 5 6 
#
# 1 0.020065 -0.002930 -0.005498 0.000000 0.000000 0.000000
# 2 -0.002930 0.014093 -0.005670 0.000000 0.000000 0.000000
# 3 -0.005498 -0.005670 0.012504 0.000000 0.000000 0.000000
# 4 0.000000 0.000000 0.000000 0.025696 0.000000 0.000000
# 5 0.000000 0.000000 0.000000 0.000000 -0.043641 0.000000
# 6 0.000000 0.000000 0.000000 0.000000 0.000000 0.043231
#
#
# Mechanical properties :
#
#
# Convention : Reuss Voigt Hill
#
# Bulk Modulus (GPa) = 54.15247 62.45866 58.30556
# Shear Modulus (GPa) = 47.03666 18.46830 32.75248
#
# Velocity S-wave (km/s) = 4.96103 3.10862 4.13977
# Velocity P-wave (km/s) = 7.81991 6.75026 7.30469
#
# Compressibility (1/GPa) = 0.01846638
#
# Stress axis : x y z
#
# Youngs Moduli (GPa) = 49.83717 70.95803 79.97386
#
# Poissons Ratio (x) = 0.20791 0.43968
# Poissons Ratio (y) = 0.14602 0.45346
# Poissons Ratio (z) = 0.27400 0.40234
#
# Static dielectric constant tensor:
#      x y z
#    x 1.683010 0.000000 0.000000 
#    y 0.000000 1.757790 0.000000 
#    z 0.000000 0.000000 1.688540 
# 
# From -- ./inp_files/9373.got.cif
#   From: 2010.05.17/outbox.cif.g08.bks.cpg/sg24_5_cif.got.tgz:9373.got - 2010.06.04 00:33:39.
