data_PCOD9334240
_publ_section_title
;
Structure prediction by ZEFSAII (Michael W. Deem and Ramdas Pophale) SiO2 
 PCOD9334240
Probable space group: I 21 21 21
;
_chemical_formula_sum "Si O2"
_cell_formula_units_Z 56
_cell_length_a 8.719050
_cell_length_b 24.218457
_cell_length_c 10.598422
_cell_angle_alpha 90.000000
_cell_angle_beta 90.000000
_cell_angle_gamma 90.000000
_cell_volume 2237.983324
_symmetry_space_group_name_H-M "I 21 21 21"
_symmetry_group_IT_number 24
_symmetry_cell_setting 'orthorhombic'
loop_
_space_group_symop_operation_xyz
x,y,z
-x,1/2-y,z
x,-y,1/2-z
1/2-x,y,-z
1/2+x,1/2+y,1/2+z
1/2-x,-y,1/2+z
1/2+x,1/2-y,-z
-x,1/2+y,1/2-z
loop_
_atom_site_type_symbol
_atom_site_label
_atom_site_fract_x
_atom_site_fract_y
_atom_site_fract_z
Si Si1 0.068672 0.534169 0.021107
Si Si2 0.339327 0.114262 0.634267
Si Si3 0.933182 0.807196 0.474740
Si Si4 0.065727 0.078825 0.017701
Si Si5 0.546420 0.579733 0.230125
Si Si6 0.176221 0.758723 0.137319
Si Si7 0.427690 0.304603 0.261088
O O1 0.000672 0.477231 0.077209
O O2 0.002940 0.538289 0.878107
O O3 0.250000 0.534708 0.000000
O O4 0.000624 0.585211 0.103719
O O5 0.250000 0.111255 0.500000
O O6 0.230960 0.079898 0.727180
O O7 0.315950 0.177320 0.677852
O O8 0.750000 0.807784 0.500000
O O9 0.994442 0.806817 0.620104
O O10 0.000000 0.750000 0.418669
O O11 0.999670 0.864617 0.421019
O O12 0.995629 0.077086 0.874432
O O13 0.250000 0.079911 0.000000
O O14 0.475755 0.638095 0.179674
O O15 0.250570 0.712343 0.227952
O O16 0.000000 0.750000 0.122422
O O17 0.250000 0.751901 0.000000
O O18 0.500000 0.250000 0.322143
#
# Coordination Sequence:
#
# PCOD9334240 Si02
#       7
#     8   8   8   8   8   8   8
#     4  11  24  40  64  93 130 164 212 267 326 394
#     4   9  20  38  58  88 122 163 208 256 305 385
#     4  10  22  41  65  92 123 158 205 260 323 376
#     4  11  23  44  68  91 122 171 215 271 324 386
#     4  10  21  40  64  88 123 168 216 259 324 380
#     4  11  23  33  56  89 129 168 206 247 313 381
#     4  10  20  37  58  85 123 163 205 254 304 378
#
# _framework density 25.022525999999999
#
# number of rings (size 3 to 8) (size 9 to 14) (size 15 to 20)
#    0.000    1.714    1.429    3.000    6.000    0.571 
#    2.571    2.857    0.000    0.000    0.000    0.000 
#    0.000    0.000    0.000    0.000    0.000    0.000 
#
# Total GULP energy -156354.268232 kJ/mol
# GULP energy per Si atom -5584.081008 kJ/mol
# Density = 2.496557 g / cm^3
# Si number density = 25.022526 Si / 1000 Ang^3
#
#
#
# Elastic Constant Matrix: (Units=GPa)
#
#
# Indices 1 2 3 4 5 6 
#
# 1 140.9121 38.7349 -24.6633 -0.0003 0.0001 0.0000
# 2 38.7349 169.2997 -4.4455 -0.0004 0.0000 -0.0001
# 3 -24.6633 -4.4455 66.6129 -0.0014 0.0001 -0.0003
# 4 -0.0003 -0.0004 -0.0014 19.4967 -0.0001 -0.0001
# 5 0.0001 0.0000 0.0001 -0.0001 19.1747 -0.0002
# 6 0.0000 -0.0001 -0.0003 -0.0001 -0.0002 35.2841
#
#
#
# Elastic Compliance Matrix: (Units=1/GPa)
#
#
# Indices 1 2 3 4 5 6 
#
# 1 0.008088 -0.001775 0.002876 0.000000 0.000000 0.000000
# 2 -0.001775 0.006307 -0.000236 0.000000 0.000000 0.000000
# 3 0.002876 -0.000236 0.016061 0.000001 0.000000 0.000000
# 4 0.000000 0.000000 0.000001 0.051291 0.000000 0.000000
# 5 0.000000 0.000000 0.000000 0.000000 0.052152 0.000000
# 6 0.000000 0.000000 0.000000 0.000000 0.000000 0.028341
#
#
# Mechanical properties :
#
#
# Convention : Reuss Voigt Hill
#
# Bulk Modulus (GPa) = 31.07001 44.00854 37.53928
# Shear Modulus (GPa) = 29.19902 39.27101 34.23501
#
# Velocity S-wave (km/s) = 3.41971 3.96590 3.70289
# Velocity P-wave (km/s) = 5.29494 6.21264 5.77205
#
# Compressibility (1/GPa) = 0.03218538
#
# Stress axis : x y z
#
# Youngs Moduli (GPa) = 123.64110 158.56453 62.26182
#
# Poissons Ratio (x) = 0.28144 -0.17907
# Poissons Ratio (y) = 0.21946 0.01471
# Poissons Ratio (z) = -0.35560 0.03747
#
# Static dielectric constant tensor:
#      x y z
#    x 2.054790 0.000000 0.000000 
#    y 0.000000 2.249840 0.000000 
#    z 0.000000 0.000000 2.019510 
# 
# From -- ./inp_files/25062.got.cif
#   From: 2010.05.17/outbox.cif.g08.bks.cpg/sg24_13_cif.got.tgz:25062.got - 2010.06.04 00:33:39.
