data_PCOD9334769
_publ_section_title
;
Structure prediction by ZEFSAII (Michael W. Deem and Ramdas Pophale) SiO2 
 PCOD9334769
Probable space group: I 21 21 21
;
_chemical_formula_sum "Si O2"
_cell_formula_units_Z 48
_cell_length_a 20.748991
_cell_length_b 5.349716
_cell_length_c 21.611053
_cell_angle_alpha 90.000000
_cell_angle_beta 90.000000
_cell_angle_gamma 90.000000
_cell_volume 2398.853014
_symmetry_space_group_name_H-M "I 21 21 21"
_symmetry_group_IT_number 24
_symmetry_cell_setting 'orthorhombic'
loop_
_space_group_symop_operation_xyz
x,y,z
-x,1/2-y,z
x,-y,1/2-z
1/2-x,y,-z
1/2+x,1/2+y,1/2+z
1/2-x,-y,1/2+z
1/2+x,1/2-y,-z
-x,1/2+y,1/2-z
loop_
_atom_site_type_symbol
_atom_site_label
_atom_site_fract_x
_atom_site_fract_y
_atom_site_fract_z
Si Si1 0.131991 0.250012 0.461403
Si Si2 0.471797 0.499946 0.821967
Si Si3 0.695762 0.430711 0.051624
Si Si4 0.177540 0.599758 0.164752
Si Si5 0.251619 0.088080 0.811137
Si Si6 0.926337 0.244696 0.005334
O O1 0.171068 0.195661 0.524151
O O2 0.180096 0.340747 0.408283
O O3 0.082398 0.474441 0.465165
O O4 0.903460 0.518720 0.452043
O O5 0.500000 0.250000 0.851181
O O6 0.493983 0.500000 0.750000
O O7 0.395133 0.515210 0.822333
O O8 0.500000 0.750000 0.850732
O O9 0.719284 0.441397 0.121521
O O10 0.630713 0.265821 0.045622
O O11 0.750000 0.351062 0.000000
O O12 0.193248 0.871976 0.191957
O O13 0.222288 0.372118 0.186702
O O14 0.212009 0.000000 0.750000
O O15 0.000000 0.250000 0.984078
#
# Coordination Sequence:
#
# PCOD9334769 Si02
#       6
#     8   8   8   8   8   8
#     4  10  22  37  63  88 124 166 209 260 322 387
#     4  10  21  36  53  74 109 162 211 254 304 363
#     4  10  22  41  64  93 131 166 216 260 333 386
#     4  12  23  41  58  89 125 166 213 263 324 379
#     4  12  25  40  64  93 127 168 213 271 325 392
#     4  10  22  39  62  95 128 167 211 269 324 386
#
# _framework density 20.009564999999998
#
# number of rings (size 3 to 8) (size 9 to 14) (size 15 to 20)
#    1.000    0.333    1.667    5.000    2.333    4.000 
#    0.000    0.000    0.000    0.000    4.333    0.000 
#    0.000    0.000    0.000    0.000    0.000    0.000 
#
# Total GULP energy -133653.876681 kJ/mol
# GULP energy per Si atom -5568.911528 kJ/mol
# Density = 1.996402 g / cm^3
# Si number density = 20.009565 Si / 1000 Ang^3
#
#
#
# Elastic Constant Matrix: (Units=GPa)
#
#
# Indices 1 2 3 4 5 6 
#
# 1 88.0545 33.9537 35.0368 0.0000 0.0000 0.0000
# 2 33.9537 153.8707 42.3438 0.0000 0.0000 0.0000
# 3 35.0368 42.3438 124.7005 0.0000 0.0000 0.0000
# 4 0.0000 0.0000 0.0000 26.6335 0.0000 0.0000
# 5 0.0000 0.0000 0.0000 0.0000 21.6053 0.0000
# 6 0.0000 0.0000 0.0000 0.0000 0.0000 20.6545
#
#
#
# Elastic Compliance Matrix: (Units=1/GPa)
#
#
# Indices 1 2 3 4 5 6 
#
# 1 0.013383 -0.002116 -0.003042 0.000000 0.000000 0.000000
# 2 -0.002116 0.007503 -0.001953 0.000000 0.000000 0.000000
# 3 -0.003042 -0.001953 0.009537 0.000000 0.000000 0.000000
# 4 0.000000 0.000000 0.000000 0.037547 0.000000 0.000000
# 5 0.000000 0.000000 0.000000 0.000000 0.046285 0.000000
# 6 0.000000 0.000000 0.000000 0.000000 0.000000 0.048416
#
#
# Mechanical properties :
#
#
# Convention : Reuss Voigt Hill
#
# Bulk Modulus (GPa) = 61.72343 65.47713 63.60028
# Shear Modulus (GPa) = 27.42835 30.79808 29.11322
#
# Velocity S-wave (km/s) = 3.70640 3.92748 3.81854
# Velocity P-wave (km/s) = 7.01644 7.30484 7.16209
#
# Compressibility (1/GPa) = 0.01620130
#
# Stress axis : x y z
#
# Youngs Moduli (GPa) = 74.72275 133.27200 104.85384
#
# Poissons Ratio (x) = 0.28201 0.31892
# Poissons Ratio (y) = 0.15812 0.20482
# Poissons Ratio (z) = 0.22728 0.26033
#
# Static dielectric constant tensor:
#      x y z
#    x 1.730800 0.000000 0.000000 
#    y 0.000000 1.769100 0.000000 
#    z 0.000000 0.000000 1.836020 
# 
# From -- ./inp_files/34073.got.cif
#   From: 2010.05.17/outbox.cif.g08.bks.cpg/sg24_18_cif.got.tgz:34073.got - 2010.06.04 00:33:39.
