data_PCOD9334522
_publ_section_title
;
Structure prediction by ZEFSAII (Michael W. Deem and Ramdas Pophale) SiO2 
 PCOD9334522
Probable space group: I 21 21 21
;
_chemical_formula_sum "Si O2"
_cell_formula_units_Z 64
_cell_length_a 11.680400
_cell_length_b 7.223562
_cell_length_c 30.952143
_cell_angle_alpha 90.000000
_cell_angle_beta 90.000000
_cell_angle_gamma 90.000000
_cell_volume 2611.559010
_symmetry_space_group_name_H-M "I 21 21 21"
_symmetry_group_IT_number 24
_symmetry_cell_setting 'orthorhombic'
loop_
_space_group_symop_operation_xyz
x,y,z
-x,1/2-y,z
x,-y,1/2-z
1/2-x,y,-z
1/2+x,1/2+y,1/2+z
1/2-x,-y,1/2+z
1/2+x,1/2-y,-z
-x,1/2+y,1/2-z
loop_
_atom_site_type_symbol
_atom_site_label
_atom_site_fract_x
_atom_site_fract_y
_atom_site_fract_z
Si Si1 0.230771 0.375977 0.607689
Si Si2 0.217938 0.960865 0.296068
Si Si3 0.968039 0.970353 0.952327
Si Si4 0.838040 0.558700 0.600975
Si Si5 0.280522 0.473034 0.199989
Si Si6 0.536947 0.448126 0.190209
Si Si7 0.445054 0.551983 0.952436
Si Si8 0.403221 0.114718 0.876944
O O1 0.121826 0.483308 0.587132
O O2 0.200513 0.157442 0.604724
O O3 0.267527 0.432676 0.656327
O O4 0.331302 0.417162 0.574497
O O5 0.250876 0.745593 0.304048
O O6 0.346818 0.046901 0.293657
O O7 0.136494 0.010690 0.336085
O O8 0.163012 0.000000 0.250000
O O9 0.000000 0.750000 0.952070
O O10 0.085163 0.076471 0.941086
O O11 0.925491 0.027103 0.999728
O O12 0.922185 0.589240 0.641365
O O13 0.721851 0.675055 0.605233
O O14 0.245589 0.500000 0.250000
O O15 0.413703 0.539792 0.194974
O O16 0.500000 0.250000 0.210740
O O17 0.500000 0.750000 0.960581
O O18 0.533699 0.457693 0.919594
O O19 0.500000 0.250000 0.858088
#
# Coordination Sequence:
#
# PCOD9334522 Si02
#       8
#     8   8   8   8   8   8   8   8
#     4  11  21  39  65 102 137 174 221 289 353 408
#     4  10  23  43  64  90 131 180 226 279 341 406
#     4   9  20  37  66 102 132 170 221 280 353 413
#     4  10  20  39  68  96 135 178 217 285 348 423
#     4  11  23  36  64 102 133 168 225 282 343 423
#     4   9  19  37  58  92 132 172 210 271 341 410
#     4  11  22  40  67  97 130 175 234 280 334 413
#     4  11  24  44  67  91 130 186 230 283 343 405
#
# _framework density 24.506433999999999
#
# number of rings (size 3 to 8) (size 9 to 14) (size 15 to 20)
#    0.000    1.750    2.500    1.500    3.500    0.500 
#    0.000    3.750    5.500    0.000    0.000    0.000 
#    0.000    0.000    0.000    0.000    0.000    0.000 
#
# Total GULP energy -178392.541726 kJ/mol
# GULP energy per Si atom -5574.766929 kJ/mol
# Density = 2.445066 g / cm^3
# Si number density = 24.506434 Si / 1000 Ang^3
#
#
#
# Elastic Constant Matrix: (Units=GPa)
#
#
# Indices 1 2 3 4 5 6 
#
# 1 113.3790 25.8677 49.3761 0.0000 0.0000 0.0000
# 2 25.8677 70.4242 24.6469 0.0000 0.0000 0.0000
# 3 49.3761 24.6469 162.3864 0.0000 0.0000 0.0000
# 4 0.0000 0.0000 0.0000 30.0429 0.0000 0.0000
# 5 0.0000 0.0000 0.0000 0.0000 24.4115 0.0000
# 6 0.0000 0.0000 0.0000 0.0000 0.0000 28.9105
#
#
#
# Elastic Compliance Matrix: (Units=1/GPa)
#
#
# Indices 1 2 3 4 5 6 
#
# 1 0.010718 -0.002953 -0.002811 0.000000 0.000000 0.000000
# 2 -0.002953 0.015810 -0.001502 0.000000 0.000000 0.000000
# 3 -0.002811 -0.001502 0.007241 0.000000 0.000000 0.000000
# 4 0.000000 0.000000 0.000000 0.033286 0.000000 0.000000
# 5 0.000000 0.000000 0.000000 0.000000 0.040964 0.000000
# 6 0.000000 0.000000 0.000000 0.000000 0.000000 0.034589
#
#
# Mechanical properties :
#
#
# Convention : Reuss Voigt Hill
#
# Bulk Modulus (GPa) = 51.98188 60.66346 56.32267
# Shear Modulus (GPa) = 30.57142 33.09290 31.83216
#
# Velocity S-wave (km/s) = 3.53581 3.67873 3.60798
# Velocity P-wave (km/s) = 6.15848 6.54614 6.35526
#
# Compressibility (1/GPa) = 0.01923747
#
# Stress axis : x y z
#
# Youngs Moduli (GPa) = 93.30294 63.25133 138.10803
#
# Poissons Ratio (x) = 0.18679 0.38818
# Poissons Ratio (y) = 0.27553 0.20739
# Poissons Ratio (z) = 0.26225 0.09498
#
# Static dielectric constant tensor:
#      x y z
#    x 1.985870 0.000000 0.000000 
#    y 0.000000 2.077780 0.000000 
#    z 0.000000 0.000000 1.969870 
# 
# From -- ./inp_files/38618.got.cif
#   From: 2010.05.17/outbox.cif.g08.bks.cpg/sg24_20_cif.got.tgz:38618.got - 2010.06.04 00:33:39.
