data_PCOD9334211
_publ_section_title
;
Structure prediction by ZEFSAII (Michael W. Deem and Ramdas Pophale) SiO2 
 PCOD9334211
Probable space group: I 21 21 21
;
_chemical_formula_sum "Si O2"
_cell_formula_units_Z 40
_cell_length_a 13.697030
_cell_length_b 18.197887
_cell_length_c 7.184431
_cell_angle_alpha 90.000000
_cell_angle_beta 90.000000
_cell_angle_gamma 90.000000
_cell_volume 1790.769748
_symmetry_space_group_name_H-M "I 21 21 21"
_symmetry_group_IT_number 24
_symmetry_cell_setting 'orthorhombic'
loop_
_space_group_symop_operation_xyz
x,y,z
-x,1/2-y,z
x,-y,1/2-z
1/2-x,y,-z
1/2+x,1/2+y,1/2+z
1/2-x,-y,1/2+z
1/2+x,1/2-y,-z
-x,1/2+y,1/2-z
loop_
_atom_site_type_symbol
_atom_site_label
_atom_site_fract_x
_atom_site_fract_y
_atom_site_fract_z
Si Si1 0.250000 0.388087 0.000000
Si Si2 0.005823 0.874570 0.111051
Si Si3 0.214423 0.085327 0.287587
Si Si4 0.426391 0.087701 0.212785
Si Si5 0.442939 0.678556 0.528278
Si Si6 0.872894 0.000000 0.250000
O O1 0.162638 0.334386 0.940413
O O2 0.197521 0.442864 0.144315
O O3 0.941708 0.822125 0.245261
O O4 0.111843 0.873739 0.211841
O O5 0.945141 0.950701 0.125030
O O6 0.031604 0.868940 0.893227
O O7 0.250000 0.089120 0.500000
O O8 0.312518 0.107110 0.176922
O O9 0.192023 0.000000 0.250000
O O10 0.426908 0.000000 0.250000
O O11 0.495129 0.108876 0.043301
O O12 0.500000 0.750000 0.464442
#
# Coordination Sequence:
#
# PCOD9334211 Si02
#       6
#     4   8   8   8   8   4
#     4  10  24  40  64  96 124 166 224 270 332 378
#     4  10  20  37  59  88 128 162 197 265 318 375
#     4   9  18  29  52  91 122 151 193 242 319 374
#     4  10  21  36  63  95 126 161 210 272 321 379
#     4  11  26  43  61  88 128 175 218 262 325 399
#     4  10  20  36  64  92 124 158 210 280 320 386
#
# _framework density 22.336763999999999
#
# number of rings (size 3 to 8) (size 9 to 14) (size 15 to 20)
#    0.000    2.000    1.000    2.400    9.800    2.400 
#    0.000    0.000    0.000    0.000    0.000    0.000 
#    0.000    0.000    0.000    0.000    0.000    0.000 
#
# Total GULP energy -111464.963291 kJ/mol
# GULP energy per Si atom -5573.248165 kJ/mol
# Density = 2.228592 g / cm^3
# Si number density = 22.336764 Si / 1000 Ang^3
#
#
#
# Elastic Constant Matrix: (Units=GPa)
#
#
# Indices 1 2 3 4 5 6 
#
# 1 127.9435 29.7552 28.8034 0.0000 0.0000 0.0000
# 2 29.7552 66.4128 -7.4595 0.0000 0.0000 0.0000
# 3 28.8034 -7.4595 61.6803 0.0000 0.0000 0.0000
# 4 0.0000 0.0000 0.0000 14.5511 0.0000 0.0000
# 5 0.0000 0.0000 0.0000 0.0000 51.4711 0.0000
# 6 0.0000 0.0000 0.0000 0.0000 0.0000 26.7889
#
#
#
# Elastic Compliance Matrix: (Units=1/GPa)
#
#
# Indices 1 2 3 4 5 6 
#
# 1 0.010243 -0.005197 -0.005412 0.000000 0.000000 0.000000
# 2 -0.005197 0.017902 0.004592 0.000000 0.000000 0.000000
# 3 -0.005412 0.004592 0.019295 0.000000 0.000000 0.000000
# 4 0.000000 0.000000 0.000000 0.068723 0.000000 0.000000
# 5 0.000000 0.000000 0.000000 0.000000 0.019428 0.000000
# 6 0.000000 0.000000 0.000000 0.000000 0.000000 0.037329
#
#
# Mechanical properties :
#
#
# Convention : Reuss Voigt Hill
#
# Bulk Modulus (GPa) = 28.24392 39.80387 34.02389
# Shear Modulus (GPa) = 25.41220 32.22472 28.81846
#
# Velocity S-wave (km/s) = 3.37662 3.80238 3.59581
# Velocity P-wave (km/s) = 5.27959 6.09393 5.70132
#
# Compressibility (1/GPa) = 0.03540585
#
# Stress axis : x y z
#
# Youngs Moduli (GPa) = 97.62834 55.86109 51.82645
#
# Poissons Ratio (x) = 0.29031 0.28047
# Poissons Ratio (y) = 0.50738 -0.23798
# Poissons Ratio (z) = 0.52834 -0.25651
#
# Static dielectric constant tensor:
#      x y z
#    x 1.859040 0.000000 0.000000 
#    y 0.000000 1.843690 0.000000 
#    z 0.000000 0.000000 1.850790 
# 
# From -- ./inp_files/10744.got.cif
#   From: 2010.05.17/outbox.cif.g08.bks.cpg/sg24_6_cif.got.tgz:10744.got - 2010.06.04 00:33:39.
