data_PCOD9334724
_publ_section_title
;
Structure prediction by ZEFSAII (Michael W. Deem and Ramdas Pophale) SiO2 
 PCOD9334724
Probable space group: I 21 21 21
;
_chemical_formula_sum "Si O2"
_cell_formula_units_Z 40
_cell_length_a 21.604820
_cell_length_b 9.372903
_cell_length_c 10.387353
_cell_angle_alpha 90.000000
_cell_angle_beta 90.000000
_cell_angle_gamma 90.000000
_cell_volume 2103.437759
_symmetry_space_group_name_H-M "I 21 21 21"
_symmetry_group_IT_number 24
_symmetry_cell_setting 'orthorhombic'
loop_
_space_group_symop_operation_xyz
x,y,z
-x,1/2-y,z
x,-y,1/2-z
1/2-x,y,-z
1/2+x,1/2+y,1/2+z
1/2-x,-y,1/2+z
1/2+x,1/2-y,-z
-x,1/2+y,1/2-z
loop_
_atom_site_type_symbol
_atom_site_label
_atom_site_fract_x
_atom_site_fract_y
_atom_site_fract_z
Si Si1 0.894616 0.252736 0.917538
Si Si2 0.950844 0.547998 0.971428
Si Si3 0.577782 0.842406 0.130719
Si Si4 0.532403 0.887389 0.660749
Si Si5 0.799340 0.970043 0.607166
O O1 0.906358 0.421787 0.924049
O O2 0.921147 0.205858 0.778977
O O3 0.825132 0.190581 0.914521
O O4 0.929873 0.180256 0.039798
O O5 0.921044 0.703434 0.960777
O O6 0.014366 0.572956 0.891972
O O7 0.978181 0.488189 0.104144
O O8 0.637844 0.936338 0.102136
O O9 0.500000 0.750000 0.725118
O O10 0.569010 0.000000 0.750000
O O11 0.750000 0.007423 0.500000
O O12 0.774053 0.000000 0.750000
#
# Coordination Sequence:
#
# PCOD9334724 Si02
#       5
#     8   8   8   8   8
#     4  10  21  35  56  87 114 148 186 236 283 346
#     4  10  21  33  57  90 122 143 176 236 298 343
#     4  10  21  32  61  89 117 141 188 235 296 340
#     4  10  22  33  48  77 120 157 185 213 273 349
#     4  10  22  40  57  81 107 150 202 241 284 341
#
# _framework density 19.016487999999999
#
# number of rings (size 3 to 8) (size 9 to 14) (size 15 to 20)
#    0.000    2.000    2.000    0.600   14.000    0.800 
#    0.000    1.000    0.000    0.000    0.000    0.000 
#    0.000    0.000    0.000    0.000    0.000    0.000 
#
# Total GULP energy -111446.026598 kJ/mol
# GULP energy per Si atom -5572.301330 kJ/mol
# Density = 1.897321 g / cm^3
# Si number density = 19.016488 Si / 1000 Ang^3
#
#
#
# Elastic Constant Matrix: (Units=GPa)
#
#
# Indices 1 2 3 4 5 6 
#
# 1 48.2541 12.9206 30.2382 0.0000 0.0000 0.0000
# 2 12.9206 111.1780 38.9444 0.0000 0.0000 0.0000
# 3 30.2382 38.9444 67.6658 0.0000 0.0000 0.0000
# 4 0.0000 0.0000 0.0000 35.5328 0.0000 0.0000
# 5 0.0000 0.0000 0.0000 0.0000 24.0949 0.0000
# 6 0.0000 0.0000 0.0000 0.0000 0.0000 13.7831
#
#
#
# Elastic Compliance Matrix: (Units=1/GPa)
#
#
# Indices 1 2 3 4 5 6 
#
# 1 0.028973 0.001463 -0.013789 0.000000 0.000000 0.000000
# 2 0.001463 0.011340 -0.007180 0.000000 0.000000 0.000000
# 3 -0.013789 -0.007180 0.025073 0.000000 0.000000 0.000000
# 4 0.000000 0.000000 0.000000 0.028143 0.000000 0.000000
# 5 0.000000 0.000000 0.000000 0.000000 0.041503 0.000000
# 6 0.000000 0.000000 0.000000 0.000000 0.000000 0.072553
#
#
# Mechanical properties :
#
#
# Convention : Reuss Voigt Hill
#
# Bulk Modulus (GPa) = 37.91792 43.47825 40.69809
# Shear Modulus (GPa) = 19.57806 24.34849 21.96327
#
# Velocity S-wave (km/s) = 3.21211 3.58213 3.40216
# Velocity P-wave (km/s) = 5.80859 6.32629 6.07296
#
# Compressibility (1/GPa) = 0.02637275
#
# Stress axis : x y z
#
# Youngs Moduli (GPa) = 34.51502 88.18555 39.88323
#
# Poissons Ratio (x) = -0.12903 0.54996
# Poissons Ratio (y) = -0.05050 0.28637
# Poissons Ratio (z) = 0.47594 0.63320
#
# Static dielectric constant tensor:
#      x y z
#    x 1.638640 0.000000 0.000000 
#    y 0.000000 1.739430 0.000000 
#    z 0.000000 0.000000 1.723600 
# 
# From -- ./inp_files/22050.got.cif
#   From: 2010.05.17/outbox.cif.g08.bks.cpg/sg24_12_cif.got.tgz:22050.got - 2010.06.04 00:33:39.
