data_PCOD9334281
_publ_section_title
;
Structure prediction by ZEFSAII (Michael W. Deem and Ramdas Pophale) SiO2 
 PCOD9334281
Probable space group: I 21 21 21
;
_chemical_formula_sum "Si O2"
_cell_formula_units_Z 64
_cell_length_a 9.917267
_cell_length_b 13.892889
_cell_length_c 24.047559
_cell_angle_alpha 90.000000
_cell_angle_beta 90.000000
_cell_angle_gamma 90.000000
_cell_volume 3313.260405
_symmetry_space_group_name_H-M "I 21 21 21"
_symmetry_group_IT_number 24
_symmetry_cell_setting 'orthorhombic'
loop_
_space_group_symop_operation_xyz
x,y,z
-x,1/2-y,z
x,-y,1/2-z
1/2-x,y,-z
1/2+x,1/2+y,1/2+z
1/2-x,-y,1/2+z
1/2+x,1/2-y,-z
-x,1/2+y,1/2-z
loop_
_atom_site_type_symbol
_atom_site_label
_atom_site_fract_x
_atom_site_fract_y
_atom_site_fract_z
Si Si1 0.157517 0.885691 0.252393
Si Si2 0.654347 0.536205 0.553300
Si Si3 0.836988 0.353548 0.374981
Si Si4 0.154871 0.750000 0.679149
Si Si5 0.663012 0.853548 0.874980
Si Si6 0.657517 0.885691 0.747607
Si Si7 0.278120 0.750000 0.566321
Si Si8 0.154347 0.536205 0.446700
O O1 0.196338 0.854319 0.190147
O O2 0.259610 0.839174 0.296012
O O3 1.000000 0.859567 0.263704
O O4 0.163387 0.000000 0.250000
O O5 0.750000 0.534681 0.500000
O O6 0.703915 0.452400 0.595005
O O7 0.654142 0.645782 0.576287
O O8 0.500000 0.513924 0.537655
O O9 0.790964 0.250000 0.399163
O O10 1.000000 0.354459 0.377086
O O11 0.240389 0.660826 0.703988
O O12 0.160361 0.750000 0.612114
O O13 0.000000 0.750000 0.697596
O O14 0.696338 0.854318 0.809853
O O15 0.703915 0.952400 0.904995
O O16 0.663387 0.000000 0.750000
O O17 0.250000 0.750000 0.500000
O O18 0.345858 0.645782 0.576286
O O19 0.250000 0.534681 0.500000
#
# Coordination Sequence:
#
# PCOD9334281 Si02
#       8
#     8   8   8   8   8   8   8   8
#     4  10  20  37  62  88 116 158 209 251 290 353
#     4  10  21  37  60  87 115 153 198 249 303 355
#     4   9  17  33  57  84 116 153 197 245 290 346
#     4  12  25  39  59  91 126 156 190 245 315 365
#     4   9  17  33  57  84 116 153 197 245 290 346
#     4  10  20  37  62  88 116 158 209 251 290 353
#     4  10  23  41  58  79 114 154 196 235 286 363
#     4  10  21  37  60  87 115 153 198 249 303 355
#
# _framework density 19.316320000000001
#
# number of rings (size 3 to 8) (size 9 to 14) (size 15 to 20)
#    0.000    2.000    1.250    2.250    0.000    9.000 
#    0.000    1.250    0.000    0.000    0.000    0.000 
#    0.000    0.000    0.000    0.000    0.000    0.000 
#
# Total GULP energy -178196.597259 kJ/mol
# GULP energy per Si atom -5568.643664 kJ/mol
# Density = 1.927236 g / cm^3
# Si number density = 19.316320 Si / 1000 Ang^3
#
#
#
# Elastic Constant Matrix: (Units=GPa)
#
#
# Indices 1 2 3 4 5 6 
#
# 1 90.7113 23.4865 45.3245 0.0000 0.0000 0.0000
# 2 23.4865 171.5021 51.6338 0.0000 0.0000 0.0000
# 3 45.3245 51.6338 88.8859 0.0000 0.0000 0.0000
# 4 0.0000 0.0000 0.0000 29.1753 0.0000 0.0000
# 5 0.0000 0.0000 0.0000 0.0000 21.7109 0.0000
# 6 0.0000 0.0000 0.0000 0.0000 0.0000 18.5598
#
#
#
# Elastic Compliance Matrix: (Units=1/GPa)
#
#
# Indices 1 2 3 4 5 6 
#
# 1 0.014806 0.000297 -0.007722 0.000000 0.000000 0.000000
# 2 0.000297 0.007073 -0.004260 0.000000 0.000000 0.000000
# 3 -0.007722 -0.004260 0.017663 0.000000 0.000000 0.000000
# 4 0.000000 0.000000 0.000000 0.034276 0.000000 0.000000
# 5 0.000000 0.000000 0.000000 0.000000 0.046060 0.000000
# 6 0.000000 0.000000 0.000000 0.000000 0.000000 0.053880
#
#
# Mechanical properties :
#
#
# Convention : Reuss Voigt Hill
#
# Bulk Modulus (GPa) = 61.83974 65.77655 63.80815
# Shear Modulus (GPa) = 24.68932 29.26618 26.97775
#
# Velocity S-wave (km/s) = 3.57901 3.89665 3.74121
# Velocity P-wave (km/s) = 7.01162 7.37370 7.19494
#
# Compressibility (1/GPa) = 0.01617083
#
# Stress axis : x y z
#
# Youngs Moduli (GPa) = 67.54244 141.38852 56.61591
#
# Poissons Ratio (x) = -0.04205 0.43721
# Poissons Ratio (y) = -0.02009 0.24119
# Poissons Ratio (z) = 0.52159 0.60234
#
# Static dielectric constant tensor:
#      x y z
#    x 1.650960 0.000000 0.000000 
#    y 0.000000 1.741410 0.000000 
#    z 0.000000 0.000000 1.689110 
# 
# From -- ./inp_files/35278.got.cif
#   From: 2010.05.17/outbox.cif.g08.bks.cpg/sg24_18_cif.got.tgz:35278.got - 2010.06.04 00:33:39.
