data_PCOD9334329
_publ_section_title
;
Structure prediction by ZEFSAII (Michael W. Deem and Ramdas Pophale) SiO2 
 PCOD9334329
Probable space group: I 21 21 21
;
_chemical_formula_sum "Si O2"
_cell_formula_units_Z 60
_cell_length_a 17.853161
_cell_length_b 16.704226
_cell_length_c 11.604285
_cell_angle_alpha 90.000000
_cell_angle_beta 90.000000
_cell_angle_gamma 90.000000
_cell_volume 3460.667426
_symmetry_space_group_name_H-M "I 21 21 21"
_symmetry_group_IT_number 24
_symmetry_cell_setting 'orthorhombic'
loop_
_space_group_symop_operation_xyz
x,y,z
-x,1/2-y,z
x,-y,1/2-z
1/2-x,y,-z
1/2+x,1/2+y,1/2+z
1/2-x,-y,1/2+z
1/2+x,1/2-y,-z
-x,1/2+y,1/2-z
loop_
_atom_site_type_symbol
_atom_site_label
_atom_site_fract_x
_atom_site_fract_y
_atom_site_fract_z
Si Si1 0.192412 0.254832 0.897243
Si Si2 0.115786 0.587823 0.905716
Si Si3 0.750000 0.819194 0.000000
Si Si4 0.954659 0.167746 0.365816
Si Si5 0.408168 0.597194 0.361005
Si Si6 0.913792 0.591438 0.271959
Si Si7 0.818784 0.258995 0.292336
Si Si8 0.547246 0.669803 0.486083
O O1 0.155025 0.342008 0.905280
O O2 0.244714 0.250390 0.784561
O O3 0.250000 0.239347 0.000000
O O4 0.120688 0.196770 0.914129
O O5 0.088177 0.609290 0.777339
O O6 0.112652 0.491854 0.901310
O O7 0.198800 0.623730 0.921886
O O8 0.072404 0.625454 0.015830
O O9 0.798902 0.760860 0.077215
O O10 0.887235 0.195011 0.278898
O O11 0.000000 0.250000 0.392131
O O12 0.010526 0.109683 0.298706
O O13 0.488567 0.620129 0.411335
O O14 0.892497 0.500000 0.250000
O O15 0.851895 0.653631 0.226827
O O16 0.928358 0.618712 0.403247
O O17 0.500000 0.750000 0.521777
#
# Coordination Sequence:
#
# PCOD9334329 Si02
#       8
#     8   8   4   8   8   8   8   8
#     4  11  21  36  59  84 112 154 189 230 285 342
#     4  10  20  38  56  86 117 146 185 238 287 339
#     4  10  20  38  60  84 116 148 190 232 288 350
#     4   9  20  35  59  82 110 149 190 229 278 343
#     4  10  22  36  57  85 119 147 188 235 286 335
#     4  11  21  37  58  82 113 146 189 240 286 331
#     4  10  20  39  57  84 111 150 189 232 280 347
#     4  10  21  37  59  83 114 150 192 234 277 348
#
# _framework density 17.337696000000001
#
# number of rings (size 3 to 8) (size 9 to 14) (size 15 to 20)
#    0.000    1.867    2.667    2.000    2.800    1.600 
#    2.400    1.333    2.933    0.000    0.000    0.000 
#    0.000    0.000    0.000    0.000    0.000    0.000 
#
# Total GULP energy -167114.952150 kJ/mol
# GULP energy per Si atom -5570.498405 kJ/mol
# Density = 1.729823 g / cm^3
# Si number density = 17.337696 Si / 1000 Ang^3
#
#
#
# Elastic Constant Matrix: (Units=GPa)
#
#
# Indices 1 2 3 4 5 6 
#
# 1 102.5332 50.3399 34.0692 0.0000 0.0000 0.0000
# 2 50.3399 97.1969 48.9290 0.0000 0.0000 0.0000
# 3 34.0692 48.9290 73.9799 0.0000 0.0000 0.0000
# 4 0.0000 0.0000 0.0000 23.1425 0.0000 0.0000
# 5 0.0000 0.0000 0.0000 0.0000 3.2960 0.0000
# 6 0.0000 0.0000 0.0000 0.0000 0.0000 13.0047
#
#
#
# Elastic Compliance Matrix: (Units=1/GPa)
#
#
# Indices 1 2 3 4 5 6 
#
# 1 0.013348 -0.005725 -0.002361 0.000000 0.000000 0.000000
# 2 -0.005725 0.017879 -0.009188 0.000000 0.000000 0.000000
# 3 -0.002361 -0.009188 0.020681 0.000000 0.000000 0.000000
# 4 0.000000 0.000000 0.000000 0.043211 0.000000 0.000000
# 5 0.000000 0.000000 0.000000 0.000000 0.303397 0.000000
# 6 0.000000 0.000000 0.000000 0.000000 0.000000 0.076895
#
#
# Mechanical properties :
#
#
# Convention : Reuss Voigt Hill
#
# Bulk Modulus (GPa) = 57.60227 60.04290 58.82258
# Shear Modulus (GPa) = 9.69470 17.24676 13.47073
#
# Velocity S-wave (km/s) = 2.36724 3.15740 2.79043
# Velocity P-wave (km/s) = 6.38495 6.92812 6.66207
#
# Compressibility (1/GPa) = 0.01736043
#
# Stress axis : x y z
#
# Youngs Moduli (GPa) = 74.91764 55.93229 48.35265
#
# Poissons Ratio (x) = 0.32020 0.11415
# Poissons Ratio (y) = 0.42888 0.44428
# Poissons Ratio (z) = 0.17686 0.51393
#
# Static dielectric constant tensor:
#      x y z
#    x 1.634010 0.000000 0.000000 
#    y 0.000000 1.568410 0.000000 
#    z 0.000000 0.000000 1.600420 
# 
# From -- ./inp_files/21685.got.cif
#   From: 2010.05.17/outbox.cif.g08.bks.cpg/sg24_11_cif.got.tgz:21685.got - 2010.06.04 00:33:39.
