data_PCOD9334226
_publ_section_title
;
Structure prediction by ZEFSAII (Michael W. Deem and Ramdas Pophale) SiO2 
 PCOD9334226
Probable space group: I 21 21 21
;
_chemical_formula_sum "Si O2"
_cell_formula_units_Z 32
_cell_length_a 13.121691
_cell_length_b 14.807485
_cell_length_c 7.606155
_cell_angle_alpha 90.000000
_cell_angle_beta 90.000000
_cell_angle_gamma 90.000000
_cell_volume 1477.870156
_symmetry_space_group_name_H-M "I 21 21 21"
_symmetry_group_IT_number 24
_symmetry_cell_setting 'orthorhombic'
loop_
_space_group_symop_operation_xyz
x,y,z
-x,1/2-y,z
x,-y,1/2-z
1/2-x,y,-z
1/2+x,1/2+y,1/2+z
1/2-x,-y,1/2+z
1/2+x,1/2-y,-z
-x,1/2+y,1/2-z
loop_
_atom_site_type_symbol
_atom_site_label
_atom_site_fract_x
_atom_site_fract_y
_atom_site_fract_z
Si Si1 0.961372 0.602694 0.566104
Si Si2 0.878686 0.831153 0.292433
Si Si3 0.446956 0.409858 0.439270
Si Si4 0.750000 0.687815 0.500000
Si Si5 0.237932 0.500000 0.750000
O O1 0.843508 0.628096 0.567932
O O2 0.027239 0.656914 0.424230
O O3 0.981332 0.496780 0.520324
O O4 0.008639 0.626249 0.756329
O O5 0.804095 0.750297 0.350758
O O6 0.809319 0.919993 0.314617
O O7 0.925083 0.840641 0.096211
O O8 0.339235 0.454567 0.387787
#
# Coordination Sequence:
#
# PCOD9334226 Si02
#       5
#     8   8   8   4   4
#     4  10  23  45  67  99 141 180 236 296 353 429
#     4  12  22  41  69 101 135 179 235 292 354 427
#     4  10  22  42  71  99 132 185 243 288 343 448
#     4  12  26  44  68 104 152 186 222 314 386 404
#     4  10  20  36  70 100 122 176 244 290 336 422
#
# _framework density 21.652781000000001
#
# number of rings (size 3 to 8) (size 9 to 14) (size 15 to 20)
#    0.000    1.500    2.500    4.500    3.500    0.000 
#    9.000   17.500    0.000    0.000    0.000    0.000 
#    0.000    0.000    0.000    0.000    0.000    0.000 
#
# Total GULP energy -89397.501363 kJ/mol
# GULP energy per Si atom -5587.343835 kJ/mol
# Density = 2.160350 g / cm^3
# Si number density = 21.652781 Si / 1000 Ang^3
#
#
#
# Elastic Constant Matrix: (Units=GPa)
#
#
# Indices 1 2 3 4 5 6 
#
# 1 169.8867 32.7985 49.1852 0.0000 0.0000 0.0000
# 2 32.7985 44.5800 22.1237 0.0000 0.0000 0.0000
# 3 49.1852 22.1237 131.3207 0.0000 0.0000 0.0000
# 4 0.0000 0.0000 0.0000 4.5906 0.0000 0.0000
# 5 0.0000 0.0000 0.0000 0.0000 2.1492 0.0000
# 6 0.0000 0.0000 0.0000 0.0000 0.0000 40.5603
#
#
#
# Elastic Compliance Matrix: (Units=1/GPa)
#
#
# Indices 1 2 3 4 5 6 
#
# 1 0.007312 -0.004387 -0.002000 0.000000 0.000000 0.000000
# 2 -0.004387 0.027111 -0.002924 0.000000 0.000000 0.000000
# 3 -0.002000 -0.002924 0.008856 0.000000 0.000000 0.000000
# 4 0.000000 0.000000 0.000000 0.217839 0.000000 0.000000
# 5 0.000000 0.000000 0.000000 0.000000 0.465292 0.000000
# 6 0.000000 0.000000 0.000000 0.000000 0.000000 0.024655
#
#
# Mechanical properties :
#
#
# Convention : Reuss Voigt Hill
#
# Bulk Modulus (GPa) = 40.55612 61.55580 51.05596
# Shear Modulus (GPa) = 6.42751 25.57201 15.99976
#
# Velocity S-wave (km/s) = 1.72479 3.44030 2.72126
# Velocity P-wave (km/s) = 4.76837 6.65366 5.78829
#
# Compressibility (1/GPa) = 0.02465719
#
# Stress axis : x y z
#
# Youngs Moduli (GPa) = 136.75706 36.88589 112.91151
#
# Poissons Ratio (x) = 0.16183 0.22578
# Poissons Ratio (y) = 0.60001 0.33016
# Poissons Ratio (z) = 0.27346 0.10786
#
# Static dielectric constant tensor:
#      x y z
#    x 1.740680 0.000000 0.000000 
#    y 0.000000 1.818220 0.000000 
#    z 0.000000 0.000000 1.879170 
# 
# From -- ./inp_files/10313.got.cif
#   From: 2010.05.17/outbox.cif.g08.bks.cpg/sg24_6_cif.got.tgz:10313.got - 2010.06.04 00:33:39.
