data_PCOD9334221
_publ_section_title
;
Structure prediction by ZEFSAII (Michael W. Deem and Ramdas Pophale) SiO2 
 PCOD9334221
Probable space group: I 21 21 21
;
_chemical_formula_sum "Si O2"
_cell_formula_units_Z 56
_cell_length_a 21.810850
_cell_length_b 14.087142
_cell_length_c 8.742171
_cell_angle_alpha 90.000000
_cell_angle_beta 90.000000
_cell_angle_gamma 90.000000
_cell_volume 2686.054254
_symmetry_space_group_name_H-M "I 21 21 21"
_symmetry_group_IT_number 24
_symmetry_cell_setting 'orthorhombic'
loop_
_space_group_symop_operation_xyz
x,y,z
-x,1/2-y,z
x,-y,1/2-z
1/2-x,y,-z
1/2+x,1/2+y,1/2+z
1/2-x,-y,1/2+z
1/2+x,1/2-y,-z
-x,1/2+y,1/2-z
loop_
_atom_site_type_symbol
_atom_site_label
_atom_site_fract_x
_atom_site_fract_y
_atom_site_fract_z
Si Si1 0.316487 0.874406 0.559516
Si Si2 0.771934 0.102794 0.330566
Si Si3 0.959878 0.600625 0.156428
Si Si4 0.633954 0.443314 0.394709
Si Si5 0.742253 0.304617 0.318674
Si Si6 0.933636 0.738897 0.441207
Si Si7 0.592599 0.109436 0.716361
O O1 0.250000 0.843742 0.500000
O O2 0.300971 0.856521 0.738957
O O3 0.373227 0.812371 0.497426
O O4 0.329847 0.980472 0.501937
O O5 0.750000 0.084691 0.500000
O O6 0.737661 0.195272 0.260158
O O7 0.842040 0.140302 0.344632
O O8 0.767801 0.000000 0.250000
O O9 0.955407 0.500000 0.250000
O O10 0.944189 0.678209 0.284909
O O11 0.031153 0.620557 0.117657
O O12 0.916758 0.599798 0.008603
O O13 0.605626 0.500000 0.250000
O O14 0.682468 0.371888 0.315828
O O15 0.750000 0.294300 0.500000
O O16 0.916783 0.841561 0.379856
O O17 0.000000 0.750000 0.521499
O O18 0.598264 0.000000 0.750000
#
# Coordination Sequence:
#
# PCOD9334221 Si02
#       7
#     8   8   8   8   8   8   8
#     4  12  23  40  61  95 137 176 213 265 337 392
#     4  10  22  42  65  90 125 162 221 281 339 395
#     4  10  20  36  66  89 121 168 219 269 322 378
#     4  12  25  38  56  97 144 174 210 256 336 410
#     4  11  24  38  62  92 130 169 216 272 325 393
#     4  10  20  37  64  93 121 162 224 274 312 382
#     4   9  19  38  60  95 116 156 220 280 313 371
#
# _framework density 20.848424999999999
#
# number of rings (size 3 to 8) (size 9 to 14) (size 15 to 20)
#    0.000    1.429    4.286    1.286    2.000    1.714 
#    0.000    0.714    0.000    6.000    0.000    0.000 
#    0.000    0.000    0.000    0.000    0.000    0.000 
#
# Total GULP energy -155939.614955 kJ/mol
# GULP energy per Si atom -5569.271963 kJ/mol
# Density = 2.080097 g / cm^3
# Si number density = 20.848425 Si / 1000 Ang^3
#
#
#
# Elastic Constant Matrix: (Units=GPa)
#
#
# Indices 1 2 3 4 5 6 
#
# 1 135.8952 24.5840 15.7375 0.0000 0.0000 0.0000
# 2 24.5840 119.4326 17.5686 0.0000 0.0000 0.0000
# 3 15.7375 17.5686 47.9118 0.0000 0.0000 0.0000
# 4 0.0000 0.0000 0.0000 12.8289 0.0000 0.0000
# 5 0.0000 0.0000 0.0000 0.0000 29.3488 0.0000
# 6 0.0000 0.0000 0.0000 0.0000 0.0000 28.1842
#
#
#
# Elastic Compliance Matrix: (Units=1/GPa)
#
#
# Indices 1 2 3 4 5 6 
#
# 1 0.007837 -0.001305 -0.002096 0.000000 0.000000 0.000000
# 2 -0.001305 0.009068 -0.002896 0.000000 0.000000 0.000000
# 3 -0.002096 -0.002896 0.022622 0.000000 0.000000 0.000000
# 4 0.000000 0.000000 0.000000 0.077949 0.000000 0.000000
# 5 0.000000 0.000000 0.000000 0.000000 0.034073 0.000000
# 6 0.000000 0.000000 0.000000 0.000000 0.000000 0.035481
#
#
# Mechanical properties :
#
#
# Convention : Reuss Voigt Hill
#
# Bulk Modulus (GPa) = 37.12930 46.55775 41.84352
# Shear Modulus (GPa) = 23.96915 30.42903 27.19909
#
# Velocity S-wave (km/s) = 3.39438 3.82453 3.61586
# Velocity P-wave (km/s) = 5.76283 6.47169 6.12752
#
# Compressibility (1/GPa) = 0.02693291
#
# Stress axis : x y z
#
# Youngs Moduli (GPa) = 127.59351 110.28300 44.20454
#
# Poissons Ratio (x) = 0.14391 0.09264
# Poissons Ratio (y) = 0.16650 0.12803
# Poissons Ratio (z) = 0.26741 0.31942
#
# Static dielectric constant tensor:
#      x y z
#    x 1.836380 0.000000 0.000000 
#    y 0.000000 1.852580 0.000000 
#    z 0.000000 0.000000 1.848960 
# 
# From -- ./inp_files/15252.got.cif
#   From: 2010.05.17/outbox.cif.g08.bks.cpg/sg24_8_cif.got.tgz:15252.got - 2010.06.04 00:33:39.
