data_PCOD9334125
_publ_section_title
;
Structure prediction by ZEFSAII (Michael W. Deem and Ramdas Pophale) SiO2 
 PCOD9334125
Probable space group: I 21 21 21
;
_chemical_formula_sum "Si O2"
_cell_formula_units_Z 40
_cell_length_a 13.776171
_cell_length_b 22.640408
_cell_length_c 5.278651
_cell_angle_alpha 90.000000
_cell_angle_beta 90.000000
_cell_angle_gamma 90.000000
_cell_volume 1646.401387
_symmetry_space_group_name_H-M "I 21 21 21"
_symmetry_group_IT_number 24
_symmetry_cell_setting 'orthorhombic'
loop_
_space_group_symop_operation_xyz
x,y,z
-x,1/2-y,z
x,-y,1/2-z
1/2-x,y,-z
1/2+x,1/2+y,1/2+z
1/2-x,-y,1/2+z
1/2+x,1/2-y,-z
-x,1/2+y,1/2-z
loop_
_atom_site_type_symbol
_atom_site_label
_atom_site_fract_x
_atom_site_fract_y
_atom_site_fract_z
Si Si1 0.879352 0.466619 0.997948
Si Si2 0.145386 0.169426 0.889164
Si Si3 0.888182 0.034680 0.001829
Si Si4 0.113879 0.257423 0.489327
Si Si5 0.090771 0.673711 0.508939
O O1 0.847472 0.500000 0.750000
O O2 0.852129 0.399256 0.954163
O O3 0.995515 0.469657 0.002545
O O4 0.848304 0.500000 0.250000
O O5 0.147527 0.193825 0.599303
O O6 0.250000 0.191364 0.000000
O O7 0.030105 0.181847 0.979308
O O8 0.855828 0.000000 0.750000
O O9 0.876092 0.105548 0.010667
O O10 0.853479 0.000000 0.250000
O O11 0.135543 0.289127 0.224560
O O12 0.000000 0.250000 0.471716
O O13 0.130037 0.300630 0.727058
#
# Coordination Sequence:
#
# PCOD9334125 Si02
#       5
#     8   8   8   8   8
#     4   9  19  34  51  76 114 157 198 242 290 334
#     4  10  22  38  59  86 116 158 212 256 290 347
#     4   9  16  28  49  76 104 139 186 234 276 334
#     4  10  20  36  54  75 108 154 198 239 295 350
#     4  10  20  36  55  77 112 154 190 235 298 351
#
# _framework density 24.295411000000001
#
# number of rings (size 3 to 8) (size 9 to 14) (size 15 to 20)
#    0.000    2.400    0.000    3.000    0.000   12.000 
#    0.000   15.000    0.000    0.000    0.000    0.000 
#    0.000    4.800    0.000   57.400    0.000   12.800 
#
# Total GULP energy -111435.500179 kJ/mol
# GULP energy per Si atom -5571.775009 kJ/mol
# Density = 2.424011 g / cm^3
# Si number density = 24.295411 Si / 1000 Ang^3
#
#
#
# Elastic Constant Matrix: (Units=GPa)
#
#
# Indices 1 2 3 4 5 6 
#
# 1 154.4213 32.9791 20.2300 -0.0002 0.0003 0.0000
# 2 32.9791 197.9529 120.2521 0.0006 0.0005 0.0030
# 3 20.2300 120.2521 222.1116 0.0045 0.0021 -0.0052
# 4 -0.0002 0.0006 0.0045 34.6090 -0.0002 -0.0039
# 5 0.0003 0.0005 0.0021 -0.0002 -20.9678 0.0007
# 6 0.0000 0.0030 -0.0052 -0.0039 0.0007 -32.6163
#
#
#
# Elastic Compliance Matrix: (Units=1/GPa)
#
#
# Indices 1 2 3 4 5 6 
#
# 1 0.006715 -0.001113 -0.000009 0.000000 0.000000 0.000000
# 2 -0.001113 0.007712 -0.004074 0.000000 0.000000 0.000001
# 3 -0.000009 -0.004074 0.006709 -0.000001 0.000001 -0.000001
# 4 0.000000 0.000000 -0.000001 0.028894 0.000000 -0.000003
# 5 0.000000 0.000000 0.000001 0.000000 -0.047692 -0.000001
# 6 0.000000 0.000001 -0.000001 -0.000003 -0.000001 -0.030659
#
#
# Mechanical properties :
#
#
# Convention : Reuss Voigt Hill
#
# Bulk Modulus (GPa) = 93.08133 102.37868 97.73001
# Shear Modulus (GPa) = -348.45819 22.93995 -162.75912
#
# Velocity S-wave (km/s) = -11.98903 3.07613 -8.19373
# Velocity P-wave (km/s) = 12.37957 7.40590 7.01450
#
# Compressibility (1/GPa) = 0.01074329
#
# Stress axis : x y z
#
# Youngs Moduli (GPa) = 148.92671 129.66823 149.06088
#
# Poissons Ratio (x) = 0.14436 0.00132
# Poissons Ratio (y) = 0.16580 0.60726
# Poissons Ratio (z) = 0.00131 0.52826
#
# Static dielectric constant tensor:
#      x y z
#    x 1.956700 0.000000 0.000000 
#    y 0.000000 1.900030 0.000000 
#    z 0.000000 0.000000 1.948010 
# 
# From -- ./inp_files/5490.got.cif
#   From: 2010.05.17/outbox.cif.g08.bks.cpg/sg24_3_cif.got.tgz:5490.got - 2010.06.04 00:33:39.
