data_PCOD9334504
_publ_section_title
;
Structure prediction by ZEFSAII (Michael W. Deem and Ramdas Pophale) SiO2 
 PCOD9334504
Probable space group: I 21 21 21
;
_chemical_formula_sum "Si O2"
_cell_formula_units_Z 36
_cell_length_a 26.682296
_cell_length_b 10.979141
_cell_length_c 5.188484
_cell_angle_alpha 90.000000
_cell_angle_beta 90.000000
_cell_angle_gamma 90.000000
_cell_volume 1519.959591
_symmetry_space_group_name_H-M "I 21 21 21"
_symmetry_group_IT_number 24
_symmetry_cell_setting 'orthorhombic'
loop_
_space_group_symop_operation_xyz
x,y,z
-x,1/2-y,z
x,-y,1/2-z
1/2-x,y,-z
1/2+x,1/2+y,1/2+z
1/2-x,-y,1/2+z
1/2+x,1/2-y,-z
-x,1/2+y,1/2-z
loop_
_atom_site_type_symbol
_atom_site_label
_atom_site_fract_x
_atom_site_fract_y
_atom_site_fract_z
Si Si1 0.403309 0.500000 0.750000
Si Si2 0.500000 0.250000 0.474800
Si Si3 0.661666 0.734090 0.267297
Si Si4 0.750000 0.424908 0.000000
Si Si5 0.028360 0.500000 0.750000
Si Si6 0.108487 0.760125 0.230503
Si Si7 0.786373 0.000000 0.750000
O O1 0.437578 0.519480 0.500526
O O2 0.372687 0.620643 0.786227
O O3 0.499425 0.373805 0.308729
O O4 0.550585 0.257263 0.644885
O O5 0.707426 0.659027 0.379126
O O6 0.617513 0.708942 0.474716
O O7 0.679921 0.875893 0.262490
O O8 0.642024 0.682569 0.994230
O O9 0.768354 0.500000 0.250000
O O10 0.750000 0.005231 0.500000
#
# Coordination Sequence:
#
# PCOD9334504 Si02
#       7
#     4   4   8   4   4   8   4
#     4  10  20  39  66 100 141 184 221 280 363 422
#     4  10  24  46  68 104 146 194 232 296 348 422
#     4  12  25  45  73 109 137 182 237 292 362 422
#     4  12  28  52  74  94 146 196 240 292 362 430
#     4  10  22  39  68  94 137 194 243 280 353 408
#     4  11  23  41  71 104 142 183 231 288 346 430
#     4  12  24  42  76 112 146 168 226 308 368 432
#
# _framework density 23.684839
#
# number of rings (size 3 to 8) (size 9 to 14) (size 15 to 20)
#    0.000    0.889    1.111    6.667    1.556    8.889 
#    6.000    0.000    0.000    0.000    0.000    0.000 
#    0.000    0.000    0.000    0.000    0.000    0.000 
#
# Total GULP energy -100633.355914 kJ/mol
# GULP energy per Si atom -5590.741995 kJ/mol
# Density = 2.363093 g / cm^3
# Si number density = 23.684839 Si / 1000 Ang^3
#
#
#
# Elastic Constant Matrix: (Units=GPa)
#
#
# Indices 1 2 3 4 5 6 
#
# 1 82.4908 15.5776 43.6479 0.0001 -0.0001 0.0003
# 2 15.5776 84.3201 32.0190 0.0004 0.0001 0.0006
# 3 43.6479 32.0190 174.2518 0.0004 -0.0001 0.0013
# 4 0.0001 0.0004 0.0004 30.7785 0.0001 0.0006
# 5 -0.0001 0.0001 -0.0001 0.0001 44.8831 0.0003
# 6 0.0003 0.0006 0.0013 0.0006 0.0003 18.2418
#
#
#
# Elastic Compliance Matrix: (Units=1/GPa)
#
#
# Indices 1 2 3 4 5 6 
#
# 1 0.014118 -0.001360 -0.003287 0.000000 0.000000 0.000000
# 2 -0.001360 0.012880 -0.002026 0.000000 0.000000 0.000000
# 3 -0.003287 -0.002026 0.006934 0.000000 0.000000 0.000000
# 4 0.000000 0.000000 0.000000 0.032490 0.000000 -0.000001
# 5 0.000000 0.000000 0.000000 0.000000 0.022280 0.000000
# 6 0.000000 0.000000 0.000000 -0.000001 0.000000 0.054819
#
#
# Mechanical properties :
#
#
# Convention : Reuss Voigt Hill
#
# Bulk Modulus (GPa) = 48.57362 58.17241 53.37302
# Shear Modulus (GPa) = 30.53797 35.43523 32.98660
#
# Velocity S-wave (km/s) = 3.59464 3.87216 3.73598
# Velocity P-wave (km/s) = 6.14666 6.67876 6.41823
#
# Compressibility (1/GPa) = 0.02058731
#
# Stress axis : x y z
#
# Youngs Moduli (GPa) = 70.82938 77.63844 144.20974
#
# Poissons Ratio (x) = 0.10561 0.47395
# Poissons Ratio (y) = 0.09635 0.29217
# Poissons Ratio (z) = 0.23278 0.15730
#
# Static dielectric constant tensor:
#      x y z
#    x 1.894610 0.000000 0.000000 
#    y 0.000000 1.931000 0.000000 
#    z 0.000000 0.000000 1.968360 
# 
# From -- ./inp_files/6234.got.cif
#   From: 2010.05.17/outbox.cif.g08.bks.cpg/sg24_4_cif.got.tgz:6234.got - 2010.06.04 00:33:39.
