data_PCOD9334085
_publ_section_title
;
Structure prediction by ZEFSAII (Michael W. Deem and Ramdas Pophale) SiO2 
 PCOD9334085
Probable space group: I 21 21 21
;
_chemical_formula_sum "Si O2"
_cell_formula_units_Z 44
_cell_length_a 14.714041
_cell_length_b 5.632505
_cell_length_c 21.382922
_cell_angle_alpha 90.000000
_cell_angle_beta 90.000000
_cell_angle_gamma 90.000000
_cell_volume 1772.150491
_symmetry_space_group_name_H-M "I 21 21 21"
_symmetry_group_IT_number 24
_symmetry_cell_setting 'orthorhombic'
loop_
_space_group_symop_operation_xyz
x,y,z
-x,1/2-y,z
x,-y,1/2-z
1/2-x,y,-z
1/2+x,1/2+y,1/2+z
1/2-x,-y,1/2+z
1/2+x,1/2-y,-z
-x,1/2+y,1/2-z
loop_
_atom_site_type_symbol
_atom_site_label
_atom_site_fract_x
_atom_site_fract_y
_atom_site_fract_z
Si Si1 0.213419 0.295249 0.402535
Si Si2 0.637665 0.250243 0.216741
Si Si3 0.616036 0.097572 0.080240
Si Si4 0.750000 0.584224 0.500000
Si Si5 0.957647 0.003217 0.045678
Si Si6 0.157497 0.247221 0.260834
O O1 0.317663 0.376211 0.405368
O O2 0.145278 0.494438 0.428399
O O3 0.189462 0.240208 0.332198
O O4 0.199823 0.081762 0.450141
O O5 0.610899 0.500000 0.250000
O O6 0.601205 0.225615 0.146303
O O7 0.749005 0.250793 0.219182
O O8 0.611818 0.000000 0.250000
O O9 0.677223 0.272353 0.039043
O O10 0.541059 0.013550 0.030519
O O11 0.000000 0.250000 0.068556
O O12 0.000000 0.750000 0.066044
O O13 0.111250 0.500000 0.250000
O O14 0.107600 0.000000 0.250000
#
# Coordination Sequence:
#
# PCOD9334085 Si02
#       6
#     8   8   8   4   8   8
#     4  12  23  40  70 100 133 177 230 292 333 401
#     4  10  20  35  59 102 129 157 206 287 342 381
#     4  12  23  40  70 100 133 177 230 292 333 401
#     4  12  20  36  66 104 128 166 234 288 346 386
#     4  12  28  46  63  99 146 190 224 272 346 414
#     4  10  20  35  59 102 129 157 206 287 342 381
#
# _framework density 24.828592
#
# number of rings (size 3 to 8) (size 9 to 14) (size 15 to 20)
#    0.000    0.727    7.273    3.273    0.000    0.000 
#    0.000    0.000    0.000    4.364    0.000    0.000 
#    0.000    0.000    0.000    0.000    0.000    0.000 
#
# Total GULP energy -123076.023527 kJ/mol
# GULP energy per Si atom -5594.364706 kJ/mol
# Density = 2.477208 g / cm^3
# Si number density = 24.828592 Si / 1000 Ang^3
#
#
#
# Elastic Constant Matrix: (Units=GPa)
#
#
# Indices 1 2 3 4 5 6 
#
# 1 60.7257 16.8091 -5.9152 0.0000 0.0000 0.0000
# 2 16.8091 202.1547 29.1569 0.0000 0.0000 0.0000
# 3 -5.9152 29.1569 93.9812 0.0000 0.0000 0.0000
# 4 0.0000 0.0000 0.0000 23.5733 0.0000 0.0000
# 5 0.0000 0.0000 0.0000 0.0000 -10.2955 0.0000
# 6 0.0000 0.0000 0.0000 0.0000 0.0000 18.2070
#
#
#
# Elastic Compliance Matrix: (Units=1/GPa)
#
#
# Indices 1 2 3 4 5 6 
#
# 1 0.017078 -0.001649 0.001586 0.000000 0.000000 0.000000
# 2 -0.001649 0.005338 -0.001760 0.000000 0.000000 0.000000
# 3 0.001586 -0.001760 0.011286 0.000000 0.000000 0.000000
# 4 0.000000 0.000000 0.000000 0.042421 0.000000 0.000000
# 5 0.000000 0.000000 0.000000 0.000000 -0.097130 0.000000
# 6 0.000000 0.000000 0.000000 0.000000 0.000000 0.054924
#
#
# Mechanical properties :
#
#
# Convention : Reuss Voigt Hill
#
# Bulk Modulus (GPa) = 33.26904 48.55148 40.91026
# Shear Modulus (GPa) = 105.08357 27.41768 66.25063
#
# Velocity S-wave (km/s) = 6.51272 3.32667 5.17118
# Velocity P-wave (km/s) = 8.36556 5.86113 7.22272
#
# Compressibility (1/GPa) = 0.03005798
#
# Stress axis : x y z
#
# Youngs Moduli (GPa) = 58.55336 187.34949 88.60363
#
# Poissons Ratio (x) = 0.30892 -0.14057
# Poissons Ratio (y) = 0.09655 0.15592
# Poissons Ratio (z) = -0.09289 0.32969
#
# Static dielectric constant tensor:
#      x y z
#    x 1.976120 0.000000 0.000000 
#    y 0.000000 2.039000 0.000000 
#    z 0.000000 0.000000 1.925000 
# 
# From -- ./inp_files/35938.got.cif
#   From: 2010.05.17/outbox.cif.g08.bks.cpg/sg24_18_cif.got.tgz:35938.got - 2010.06.04 00:33:39.
