data_PCOD9334609
_publ_section_title
;
Structure prediction by ZEFSAII (Michael W. Deem and Ramdas Pophale) SiO2 
 PCOD9334609
Probable space group: I 21 21 21
;
_chemical_formula_sum "Si O2"
_cell_formula_units_Z 28
_cell_length_a 20.711344
_cell_length_b 5.161496
_cell_length_c 11.123230
_cell_angle_alpha 90.000000
_cell_angle_beta 90.000000
_cell_angle_gamma 90.000000
_cell_volume 1189.090186
_symmetry_space_group_name_H-M "I 21 21 21"
_symmetry_group_IT_number 24
_symmetry_cell_setting 'orthorhombic'
loop_
_space_group_symop_operation_xyz
x,y,z
-x,1/2-y,z
x,-y,1/2-z
1/2-x,y,-z
1/2+x,1/2+y,1/2+z
1/2-x,-y,1/2+z
1/2+x,1/2-y,-z
-x,1/2+y,1/2-z
loop_
_atom_site_type_symbol
_atom_site_label
_atom_site_fract_x
_atom_site_fract_y
_atom_site_fract_z
Si Si1 0.500000 0.250000 0.961517
Si Si2 0.326143 0.757625 0.890434
Si Si3 0.070329 0.000000 0.250000
Si Si4 0.639293 0.232204 0.043476
Si Si5 0.210009 0.000000 0.750000
O O1 0.525894 0.459444 0.865645
O O2 0.562567 0.177689 0.038636
O O3 0.380031 0.770374 0.784624
O O4 0.257716 0.829543 0.833082
O O5 0.328309 0.500494 0.969287
O O6 0.346059 0.002683 0.971822
O O7 0.667467 0.300151 0.173153
#
# Coordination Sequence:
#
# PCOD9334609 Si02
#       5
#     4   8   4   8   4
#     4  10  20  40  70 104 138 176 232 280 350 412
#     4  10  24  43  68 102 136 179 236 287 347 405
#     4   9  18  36  70 104 140 177 224 296 340 397
#     4  11  25  44  70 102 139 183 230 289 344 422
#     4  11  26  46  72 102 144 185 228 290 358 415
#
# _framework density 23.547415999999998
#
# number of rings (size 3 to 8) (size 9 to 14) (size 15 to 20)
#    0.000    1.714    0.000    2.571    0.000   20.571 
#    0.000    5.714    0.000    0.000    0.000    0.000 
#    0.000    0.000    0.000    0.000    0.000    0.000 
#
# Total GULP energy -78330.365605 kJ/mol
# GULP energy per Si atom -5595.026115 kJ/mol
# Density = 2.349382 g / cm^3
# Si number density = 23.547416 Si / 1000 Ang^3
#
#
#
# Elastic Constant Matrix: (Units=GPa)
#
#
# Indices 1 2 3 4 5 6 
#
# 1 210.1178 40.5003 85.3262 0.0000 0.0000 0.0000
# 2 40.5003 146.2666 43.8094 0.0000 0.0000 0.0000
# 3 85.3262 43.8094 77.6888 0.0000 0.0000 0.0000
# 4 0.0000 0.0000 0.0000 48.3062 0.0000 0.0000
# 5 0.0000 0.0000 0.0000 0.0000 3.0558 0.0000
# 6 0.0000 0.0000 0.0000 0.0000 0.0000 15.6753
#
#
#
# Elastic Compliance Matrix: (Units=1/GPa)
#
#
# Indices 1 2 3 4 5 6 
#
# 1 0.008626 0.000540 -0.009779 0.000000 0.000000 0.000000
# 2 0.000540 0.008260 -0.005251 0.000000 0.000000 0.000000
# 3 -0.009779 -0.005251 0.026573 0.000000 0.000000 0.000000
# 4 0.000000 0.000000 0.000000 0.020701 0.000000 0.000000
# 5 0.000000 0.000000 0.000000 0.000000 0.327250 0.000000
# 6 0.000000 0.000000 0.000000 0.000000 0.000000 0.063794
#
#
# Mechanical properties :
#
#
# Convention : Reuss Voigt Hill
#
# Bulk Modulus (GPa) = 69.06187 85.92721 77.49454
# Shear Modulus (GPa) = 10.22470 31.03663 20.63066
#
# Velocity S-wave (km/s) = 2.08605 3.63443 2.96317
# Velocity P-wave (km/s) = 5.93251 7.36088 6.68495
#
# Compressibility (1/GPa) = 0.01447977
#
# Stress axis : x y z
#
# Youngs Moduli (GPa) = 115.92633 121.06390 37.63148
#
# Poissons Ratio (x) = -0.06543 0.36800
# Poissons Ratio (y) = -0.06265 0.19762
# Poissons Ratio (z) = 1.13364 0.63577
#
# Static dielectric constant tensor:
#      x y z
#    x 1.933330 0.000000 0.000000 
#    y 0.000000 2.025420 0.000000 
#    z 0.000000 0.000000 1.973950 
# 
# From -- ./inp_files/21893.got.cif
#   From: 2010.05.17/outbox.cif.g08.bks.cpg/sg24_11_cif.got.tgz:21893.got - 2010.06.04 00:33:39.
