data_PCOD9334690
_publ_section_title
;
Structure prediction by ZEFSAII (Michael W. Deem and Ramdas Pophale) SiO2 
 PCOD9334690
Probable space group: I 21 21 21
;
_chemical_formula_sum "Si O2"
_cell_formula_units_Z 44
_cell_length_a 8.099078
_cell_length_b 19.224980
_cell_length_c 13.292017
_cell_angle_alpha 90.000000
_cell_angle_beta 90.000000
_cell_angle_gamma 90.000000
_cell_volume 2069.628357
_symmetry_space_group_name_H-M "I 21 21 21"
_symmetry_group_IT_number 24
_symmetry_cell_setting 'orthorhombic'
loop_
_space_group_symop_operation_xyz
x,y,z
-x,1/2-y,z
x,-y,1/2-z
1/2-x,y,-z
1/2+x,1/2+y,1/2+z
1/2-x,-y,1/2+z
1/2+x,1/2-y,-z
-x,1/2+y,1/2-z
loop_
_atom_site_type_symbol
_atom_site_label
_atom_site_fract_x
_atom_site_fract_y
_atom_site_fract_z
Si Si1 0.501872 0.533984 0.558169
Si Si2 0.495341 0.830140 0.671177
Si Si3 0.325000 0.665116 0.199190
Si Si4 0.250000 0.077720 0.500000
Si Si5 0.686799 0.677499 0.180020
Si Si6 0.668028 0.015335 0.360057
O O1 0.543228 0.612576 0.586768
O O2 0.640365 0.475438 0.565235
O O3 0.435786 0.522748 0.445266
O O4 0.352118 0.513224 0.630539
O O5 0.500000 0.750000 0.635547
O O6 0.675993 0.842517 0.721297
O O7 0.350529 0.837009 0.754859
O O8 0.514002 0.666964 0.239812
O O9 0.302060 0.741017 0.150382
O O10 0.317999 0.598237 0.127453
O O11 0.172651 0.128821 0.582699
O O12 0.599198 0.000000 0.250000
#
# Coordination Sequence:
#
# PCOD9334690 Si02
#       6
#     8   8   8   4   8   8
#     4  11  25  41  66 104 132 177 234 275 350 416
#     4  10  22  46  73  96 134 184 231 284 347 410
#     4  10  20  43  67  98 130 185 226 281 344 398
#     4  12  24  40  58 102 144 176 224 292 346 412
#     4  10  23  40  66 100 138 179 232 283 346 407
#     4  11  22  42  69  95 135 178 224 286 339 407
#
# _framework density 21.259854000000001
#
# number of rings (size 3 to 8) (size 9 to 14) (size 15 to 20)
#    0.000    1.455    3.636    1.091    0.000    2.909 
#    9.818    1.818    4.000    0.000    0.000    0.000 
#    0.000    0.000    0.000    0.000    0.000    0.000 
#
# Total GULP energy -122700.394189 kJ/mol
# GULP energy per Si atom -5577.290645 kJ/mol
# Density = 2.121147 g / cm^3
# Si number density = 21.259854 Si / 1000 Ang^3
#
#
#
# Elastic Constant Matrix: (Units=GPa)
#
#
# Indices 1 2 3 4 5 6 
#
# 1 91.4646 45.3774 18.6420 0.0000 0.0000 0.0000
# 2 45.3774 195.2564 67.1926 0.0000 0.0000 0.0000
# 3 18.6420 67.1926 82.8108 -0.0001 0.0000 0.0000
# 4 0.0000 0.0000 -0.0001 387.7704 0.0000 0.0000
# 5 0.0000 0.0000 0.0000 0.0000 -10.2838 0.0000
# 6 0.0000 0.0000 0.0000 0.0000 0.0000 2.1036
#
#
#
# Elastic Compliance Matrix: (Units=1/GPa)
#
#
# Indices 1 2 3 4 5 6 
#
# 1 0.012382 -0.002661 -0.000628 0.000000 0.000000 0.000000
# 2 -0.002661 0.007678 -0.005630 0.000000 0.000000 0.000000
# 3 -0.000628 -0.005630 0.016786 0.000000 0.000000 0.000000
# 4 0.000000 0.000000 0.000000 0.002579 0.000000 0.000000
# 5 0.000000 0.000000 0.000000 0.000000 -0.097240 0.000000
# 6 0.000000 0.000000 0.000000 0.000000 0.000000 0.475365
#
#
# Mechanical properties :
#
#
# Convention : Reuss Voigt Hill
#
# Bulk Modulus (GPa) = 52.61674 70.21730 61.41702
# Shear Modulus (GPa) = 11.31931 91.80602 51.56267
#
# Velocity S-wave (km/s) = 2.30994 6.57849 4.93013
# Velocity P-wave (km/s) = 5.64956 9.52900 7.83324
#
# Compressibility (1/GPa) = 0.01900536
#
# Stress axis : x y z
#
# Youngs Moduli (GPa) = 80.76546 130.24980 59.57498
#
# Poissons Ratio (x) = 0.34665 0.03740
# Poissons Ratio (y) = 0.21495 0.33543
# Poissons Ratio (z) = 0.05070 0.73336
#
# Static dielectric constant tensor:
#      x y z
#    x 1.514180 0.000000 0.000000 
#    y 0.000000 1.796740 0.000000 
#    z 0.000000 0.000000 1.756680 
# 
# From -- ./inp_files/24732.got.cif
#   From: 2010.05.17/outbox.cif.g08.bks.cpg/sg24_13_cif.got.tgz:24732.got - 2010.06.04 00:33:39.
