data_PCOD9334774
_publ_section_title
;
Structure prediction by ZEFSAII (Michael W. Deem and Ramdas Pophale) SiO2 
 PCOD9334774
Probable space group: I 21 21 21
;
_chemical_formula_sum "Si O2"
_cell_formula_units_Z 24
_cell_length_a 7.121446
_cell_length_b 5.223961
_cell_length_c 27.368755
_cell_angle_alpha 90.000000
_cell_angle_beta 90.000000
_cell_angle_gamma 90.000000
_cell_volume 1018.176698
_symmetry_space_group_name_H-M "I 21 21 21"
_symmetry_group_IT_number 24
_symmetry_cell_setting 'orthorhombic'
loop_
_space_group_symop_operation_xyz
x,y,z
-x,1/2-y,z
x,-y,1/2-z
1/2-x,y,-z
1/2+x,1/2+y,1/2+z
1/2-x,-y,1/2+z
1/2+x,1/2-y,-z
-x,1/2+y,1/2-z
loop_
_atom_site_type_symbol
_atom_site_label
_atom_site_fract_x
_atom_site_fract_y
_atom_site_fract_z
Si Si1 0.868575 0.999152 0.196160
Si Si2 0.216073 0.686716 0.901969
Si Si3 0.279019 0.189888 0.055102
O O1 0.732460 0.946514 0.150792
O O2 0.000000 0.750000 0.196155
O O3 0.775863 0.000000 0.250000
O O4 0.000000 0.250000 0.190799
O O5 0.303167 0.474229 0.937775
O O6 0.000000 0.750000 0.913615
O O7 0.297194 0.972209 0.908309
O O8 0.500000 0.250000 0.063394
O O9 0.250000 0.098473 0.000000
#
# Coordination Sequence:
#
# PCOD9334774 Si02
#       3
#     8   8   8
#     4  10  21  38  59  85 115 147 189 238 286 341
#     4  10  21  38  57  82 115 149 189 235 285 343
#     4  10  21  36  55  81 113 148 189 235 282 338
#
# _framework density 23.571546999999999
#
# number of rings (size 3 to 8) (size 9 to 14) (size 15 to 20)
#    0.000    2.000    0.000    3.000    0.000    4.000 
#    0.000   10.000    0.000    0.000    0.000    0.000 
#    0.000    0.000    0.000    0.000    0.000    0.000 
#
# Total GULP energy -66925.117970 kJ/mol
# GULP energy per Si atom -5577.093164 kJ/mol
# Density = 2.351790 g / cm^3
# Si number density = 23.571547 Si / 1000 Ang^3
#
#
#
# Elastic Constant Matrix: (Units=GPa)
#
#
# Indices 1 2 3 4 5 6 
#
# 1 38.0584 14.9331 -29.1504 0.0000 0.0000 0.0000
# 2 14.9331 214.4537 50.2288 0.0000 0.0000 0.0000
# 3 -29.1504 50.2288 109.3568 0.0000 0.0000 0.0000
# 4 0.0000 0.0000 0.0000 50.0195 0.0000 0.0000
# 5 0.0000 0.0000 0.0000 0.0000 28.0079 0.0000
# 6 0.0000 0.0000 0.0000 0.0000 0.0000 6.3892
#
#
#
# Elastic Compliance Matrix: (Units=1/GPa)
#
#
# Indices 1 2 3 4 5 6 
#
# 1 0.038319 -0.005671 0.012819 0.000000 0.000000 0.000000
# 2 -0.005671 0.006064 -0.004297 0.000000 0.000000 0.000000
# 3 0.012819 -0.004297 0.014535 0.000000 0.000000 0.000000
# 4 0.000000 0.000000 0.000000 0.019992 0.000000 0.000000
# 5 0.000000 0.000000 0.000000 0.000000 0.035704 0.000000
# 6 0.000000 0.000000 0.000000 0.000000 0.000000 0.156514
#
#
# Mechanical properties :
#
#
# Convention : Reuss Voigt Hill
#
# Bulk Modulus (GPa) = 15.47481 48.21020 31.84251
# Shear Modulus (GPa) = 17.42363 38.60715 28.01539
#
# Velocity S-wave (km/s) = 2.72174 4.05145 3.45124
# Velocity P-wave (km/s) = 4.05665 6.51021 5.42399
#
# Compressibility (1/GPa) = 0.06462116
#
# Stress axis : x y z
#
# Youngs Moduli (GPa) = 26.09665 164.89902 68.79888
#
# Poissons Ratio (x) = 0.93510 -0.88194
# Poissons Ratio (y) = 0.14799 0.29563
# Poissons Ratio (z) = -0.33453 0.70857
#
# Static dielectric constant tensor:
#      x y z
#    x 1.864930 0.000000 0.000000 
#    y 0.000000 1.977950 0.000000 
#    z 0.000000 0.000000 1.919740 
# 
# From -- ./inp_files/798.got.cif
#   From: 2010.05.17/outbox.cif.g08.bks.cpg/sg24_1_cif.got.tgz:798.got - 2010.06.04 00:33:39.
