data_PCOD9334034
_publ_section_title
;
Structure prediction by ZEFSAII (Michael W. Deem and Ramdas Pophale) SiO2 
 PCOD9334034
Probable space group: I 21 21 21
;
_chemical_formula_sum "Si O2"
_cell_formula_units_Z 32
_cell_length_a 16.585423
_cell_length_b 7.275227
_cell_length_c 13.163940
_cell_angle_alpha 90.000000
_cell_angle_beta 90.000000
_cell_angle_gamma 90.000000
_cell_volume 1588.396770
_symmetry_space_group_name_H-M "I 21 21 21"
_symmetry_group_IT_number 24
_symmetry_cell_setting 'orthorhombic'
loop_
_space_group_symop_operation_xyz
x,y,z
-x,1/2-y,z
x,-y,1/2-z
1/2-x,y,-z
1/2+x,1/2+y,1/2+z
1/2-x,-y,1/2+z
1/2+x,1/2-y,-z
-x,1/2+y,1/2-z
loop_
_atom_site_type_symbol
_atom_site_label
_atom_site_fract_x
_atom_site_fract_y
_atom_site_fract_z
Si Si1 0.750000 0.537439 0.000000
Si Si2 0.286932 0.814706 0.305039
Si Si3 0.556481 0.912712 0.353889
Si Si4 0.842978 0.898020 0.024880
Si Si5 0.167764 0.500000 0.250000
O O1 0.746302 0.400105 0.092725
O O2 0.824833 0.679246 0.014991
O O3 0.362954 0.687140 0.317121
O O4 0.220968 0.685824 0.253218
O O5 0.311776 0.000000 0.250000
O O6 0.500000 0.750000 0.394787
O O7 0.520606 0.000000 0.250000
O O8 0.590640 0.046587 0.441224
O O9 0.869040 0.974177 0.136231
O O10 0.750000 0.971246 0.000000
#
# Coordination Sequence:
#
# PCOD9334034 Si02
#       5
#     4   8   8   8   4
#     4  10  20  34  64  96 128 170 226 284 336 398
#     4  12  19  35  59  92 129 165 216 271 345 393
#     4  12  24  41  62  95 140 184 225 280 343 416
#     4  10  20  39  63  95 136 173 226 287 340 400
#     4  12  20  38  64  96 134 170 220 294 344 392
#
# _framework density 20.146097999999999
#
# number of rings (size 3 to 8) (size 9 to 14) (size 15 to 20)
#    0.750    0.000    6.250    3.750    0.000    0.000 
#    0.000    0.000    0.000    4.500    0.000    0.000 
#    0.000    0.000    0.000    0.000    0.000    0.000 
#
# Total GULP energy -89074.145614 kJ/mol
# GULP energy per Si atom -5567.134101 kJ/mol
# Density = 2.010025 g / cm^3
# Si number density = 20.146098 Si / 1000 Ang^3
#
#
#
# Elastic Constant Matrix: (Units=GPa)
#
#
# Indices 1 2 3 4 5 6 
#
# 1 19.6917 -1.4444 16.0780 0.0000 0.0000 0.0000
# 2 -1.4444 86.6276 20.2927 0.0000 0.0000 0.0000
# 3 16.0780 20.2927 102.9910 0.0000 0.0000 0.0000
# 4 0.0000 0.0000 0.0000 51.7084 0.0000 0.0000
# 5 0.0000 0.0000 0.0000 0.0000 2324.4303 0.0000
# 6 0.0000 0.0000 0.0000 0.0000 0.0000 32.3152
#
#
#
# Elastic Compliance Matrix: (Units=1/GPa)
#
#
# Indices 1 2 3 4 5 6 
#
# 1 0.059087 0.003298 -0.009874 0.000000 0.000000 0.000000
# 2 0.003298 0.012286 -0.002936 0.000000 0.000000 0.000000
# 3 -0.009874 -0.002936 0.011829 0.000000 0.000000 0.000000
# 4 0.000000 0.000000 0.000000 0.019339 0.000000 0.000000
# 5 0.000000 0.000000 0.000000 0.000000 0.000430 0.000000
# 6 0.000000 0.000000 0.000000 0.000000 0.000000 0.030945
#
#
# Mechanical properties :
#
#
# Convention : Reuss Voigt Hill
#
# Bulk Modulus (GPa) = 15.58130 31.01810 23.29970
# Shear Modulus (GPa) = 28.68076 493.31640 260.99858
#
# Velocity S-wave (km/s) = 3.77721 15.66528 11.39448
# Velocity P-wave (km/s) = 5.17436 18.51030 13.59054
#
# Compressibility (1/GPa) = 0.06417952
#
# Stress axis : x y z
#
# Youngs Moduli (GPa) = 16.92433 81.39106 84.53482
#
# Poissons Ratio (x) = -0.26844 0.83469
# Poissons Ratio (y) = -0.05582 0.24817
# Poissons Ratio (z) = 0.16711 0.23894
#
# Static dielectric constant tensor:
#      x y z
#    x 1.696570 0.000000 0.000000 
#    y 0.000000 -14.348370 0.000000 
#    z 0.000000 0.000000 1.746580 
# 
# From -- ./inp_files/26827.got.cif
#   From: 2010.05.17/outbox.cif.g08.bks.cpg/sg24_14_cif.got.tgz:26827.got - 2010.06.04 00:33:39.
