data_PCOD9334596
_publ_section_title
;
Structure prediction by ZEFSAII (Michael W. Deem and Ramdas Pophale) SiO2 
 PCOD9334596
Probable space group: I 21 21 21
;
_chemical_formula_sum "Si O2"
_cell_formula_units_Z 32
_cell_length_a 7.278413
_cell_length_b 33.488647
_cell_length_c 5.120755
_cell_angle_alpha 90.000000
_cell_angle_beta 90.000000
_cell_angle_gamma 90.000000
_cell_volume 1248.154350
_symmetry_space_group_name_H-M "I 21 21 21"
_symmetry_group_IT_number 24
_symmetry_cell_setting 'orthorhombic'
loop_
_space_group_symop_operation_xyz
x,y,z
-x,1/2-y,z
x,-y,1/2-z
1/2-x,y,-z
1/2+x,1/2+y,1/2+z
1/2-x,-y,1/2+z
1/2+x,1/2-y,-z
-x,1/2+y,1/2-z
loop_
_atom_site_type_symbol
_atom_site_label
_atom_site_fract_x
_atom_site_fract_y
_atom_site_fract_z
Si Si1 0.750000 0.216031 0.000000
Si Si2 0.000000 0.750000 0.898848
Si Si3 0.946869 0.833802 0.150299
Si Si4 0.547637 0.913907 0.614156
Si Si5 0.545537 0.460257 0.390495
O O1 0.683383 0.243126 0.230340
O O2 0.911028 0.186224 0.068890
O O3 0.025985 0.794397 0.015634
O O4 0.033142 0.875918 0.225776
O O5 0.750000 0.841590 0.000000
O O6 0.750000 0.903812 0.500000
O O7 0.446817 0.928910 0.351877
O O8 0.560179 0.946140 0.848588
O O9 0.472149 0.500000 0.250000
O O10 0.750000 0.468090 0.500000
#
# Coordination Sequence:
#
# PCOD9334596 Si02
#       5
#     4   4   8   8   8
#     4  10  20  40  68  92 136 192 236 300 356 426
#     4  10  22  38  70  98 134 194 242 288 368 428
#     4  10  21  41  68 100 141 189 235 305 374 412
#     4  12  25  46  82 114 145 192 253 305 359 437
#     4  12  27  51  79 107 153 199 233 294 382 448
#
# _framework density 25.637857
#
# number of rings (size 3 to 8) (size 9 to 14) (size 15 to 20)
#    0.000    1.000    1.250    6.000    3.500    2.000 
#    0.000    8.750   13.750    0.000    0.000    0.000 
#    0.000    0.000    0.000    0.000    0.000    0.000 
#
# Total GULP energy -89217.809075 kJ/mol
# GULP energy per Si atom -5576.113067 kJ/mol
# Density = 2.557950 g / cm^3
# Si number density = 25.637857 Si / 1000 Ang^3
#
#
#
# Elastic Constant Matrix: (Units=GPa)
#
#
# Indices 1 2 3 4 5 6 
#
# 1 19.7660 18.2010 12.2943 0.0443 -0.0029 0.0009
# 2 18.2010 158.1343 79.0583 0.1175 -0.0116 0.0064
# 3 12.2943 79.0583 178.6798 0.1522 -0.0048 0.0046
# 4 0.0443 0.1175 0.1522 203.2714 0.0062 -0.0127
# 5 -0.0029 -0.0116 -0.0048 0.0062 46.6279 0.0029
# 6 0.0009 0.0064 0.0046 -0.0127 0.0029 28.3916
#
#
#
# Elastic Compliance Matrix: (Units=1/GPa)
#
#
# Indices 1 2 3 4 5 6 
#
# 1 0.056826 -0.005888 -0.001305 -0.000008 0.000002 0.000000
# 2 -0.005888 0.008730 -0.003458 -0.000001 0.000001 -0.000001
# 3 -0.001305 -0.003458 0.007216 -0.000003 0.000000 0.000000
# 4 -0.000008 -0.000001 -0.000003 0.004920 -0.000001 0.000002
# 5 0.000002 0.000001 0.000000 -0.000001 0.021446 -0.000002
# 6 0.000000 -0.000001 0.000000 0.000002 -0.000002 0.035222
#
#
# Mechanical properties :
#
#
# Convention : Reuss Voigt Hill
#
# Bulk Modulus (GPa) = 19.42844 63.96526 41.69685
# Shear Modulus (GPa) = 28.93229 72.12661 50.52945
#
# Velocity S-wave (km/s) = 3.36296 5.30980 4.44429
# Velocity P-wave (km/s) = 4.76170 7.91174 6.52953
#
# Compressibility (1/GPa) = 0.05147094
#
# Stress axis : x y z
#
# Youngs Moduli (GPa) = 17.59771 114.54704 138.57739
#
# Poissons Ratio (x) = 0.67448 0.18080
# Poissons Ratio (y) = 0.10362 0.47913
# Poissons Ratio (z) = 0.02296 0.39605
#
# Static dielectric constant tensor:
#      x y z
#    x 2.124970 0.000000 0.000010 
#    y 0.000000 2.069680 0.000010 
#    z 0.000010 0.000010 2.130870 
# 
# From -- ./inp_files/1332.got.cif
#   From: 2010.05.17/outbox.cif.g08.bks.cpg/sg24_1_cif.got.tgz:1332.got - 2010.06.04 00:33:39.
