data_PCOD9334660
_publ_section_title
;
Structure prediction by ZEFSAII (Michael W. Deem and Ramdas Pophale) SiO2 
 PCOD9334660
Probable space group: I 21 21 21
;
_chemical_formula_sum "Si O2"
_cell_formula_units_Z 64
_cell_length_a 8.996890
_cell_length_b 14.351197
_cell_length_c 23.157444
_cell_angle_alpha 90.000000
_cell_angle_beta 90.000000
_cell_angle_gamma 90.000000
_cell_volume 2989.999800
_symmetry_space_group_name_H-M "I 21 21 21"
_symmetry_group_IT_number 24
_symmetry_cell_setting 'orthorhombic'
loop_
_space_group_symop_operation_xyz
x,y,z
-x,1/2-y,z
x,-y,1/2-z
1/2-x,y,-z
1/2+x,1/2+y,1/2+z
1/2-x,-y,1/2+z
1/2+x,1/2-y,-z
-x,1/2+y,1/2-z
loop_
_atom_site_type_symbol
_atom_site_label
_atom_site_fract_x
_atom_site_fract_y
_atom_site_fract_z
Si Si1 0.794174 0.682717 0.651297
Si Si2 0.982570 0.512334 0.680709
Si Si3 0.257875 0.122781 0.627880
Si Si4 0.798878 0.930555 0.165482
Si Si5 0.965744 0.459178 0.123820
Si Si6 0.831913 0.250920 0.263455
Si Si7 0.849782 0.187851 0.056259
Si Si8 0.331716 0.707272 0.941848
O O1 0.932475 0.611927 0.654227
O O2 0.652524 0.614206 0.646295
O O3 0.783286 0.727906 0.713691
O O4 0.757713 0.757727 0.601738
O O5 0.955797 0.500000 0.750000
O O6 0.884894 0.432992 0.649234
O O7 0.151801 0.490691 0.667239
O O8 0.326853 0.174003 0.684434
O O9 0.235701 0.206561 0.583730
O O10 0.368065 0.045582 0.600889
O O11 0.791942 0.848706 0.211178
O O12 0.826246 0.875727 0.104988
O O13 0.937564 0.997664 0.174799
O O14 0.080890 0.407061 0.082005
O O15 0.000000 0.250000 0.240253
O O16 0.000000 0.250000 0.045397
O O17 0.750000 0.173518 0.000000
O O18 0.500000 0.750000 0.947278
O O19 0.250000 0.677290 0.000000
#
# Coordination Sequence:
#
# PCOD9334660 Si02
#       8
#     8   8   8   8   8   8   8   8
#     4  10  23  43  64  93 131 173 228 269 337 410
#     4  11  24  41  62  98 136 178 220 274 344 403
#     4  10  20  42  64  91 136 175 218 273 337 408
#     4  11  24  41  64  98 138 171 223 278 336 405
#     4  10  20  42  65  95 124 166 231 275 318 402
#     4  11  19  37  69  97 126 176 217 270 344 406
#     4  10  23  44  67  91 126 174 225 281 333 390
#     4  11  24  43  68 100 136 179 230 279 345 412
#
# _framework density 21.404685000000001
#
# number of rings (size 3 to 8) (size 9 to 14) (size 15 to 20)
#    0.000    1.500    3.750    1.875    1.750    5.000 
#    2.250    8.125    0.000    0.000    0.000    0.000 
#    0.000    0.000    0.000    0.000    0.000    0.000 
#
# Total GULP energy -178728.690204 kJ/mol
# GULP energy per Si atom -5585.271569 kJ/mol
# Density = 2.135597 g / cm^3
# Si number density = 21.404685 Si / 1000 Ang^3
#
#
#
# Elastic Constant Matrix: (Units=GPa)
#
#
# Indices 1 2 3 4 5 6 
#
# 1 72.4363 23.2094 9.6614 0.0000 0.0000 0.0000
# 2 23.2094 71.6199 37.0530 0.0000 0.0000 0.0000
# 3 9.6614 37.0530 75.2087 0.0000 0.0000 0.0000
# 4 0.0000 0.0000 0.0000 9.3058 0.0000 0.0000
# 5 0.0000 0.0000 0.0000 0.0000 11.5072 0.0000
# 6 0.0000 0.0000 0.0000 0.0000 0.0000 10.1615
#
#
#
# Elastic Compliance Matrix: (Units=1/GPa)
#
#
# Indices 1 2 3 4 5 6 
#
# 1 0.015428 -0.005334 0.000646 0.000000 0.000000 0.000000
# 2 -0.005334 0.020583 -0.009455 0.000000 0.000000 0.000000
# 3 0.000646 -0.009455 0.017872 0.000000 0.000000 0.000000
# 4 0.000000 0.000000 0.000000 0.107459 0.000000 0.000000
# 5 0.000000 0.000000 0.000000 0.000000 0.086902 0.000000
# 6 0.000000 0.000000 0.000000 0.000000 0.000000 0.098410
#
#
# Mechanical properties :
#
#
# Convention : Reuss Voigt Hill
#
# Bulk Modulus (GPa) = 39.06844 39.90140 39.48492
# Shear Modulus (GPa) = 13.03871 16.15098 14.59485
#
# Velocity S-wave (km/s) = 2.47078 2.74989 2.61406
# Velocity P-wave (km/s) = 5.14116 5.36325 5.25338
#
# Compressibility (1/GPa) = 0.02559611
#
# Stress axis : x y z
#
# Youngs Moduli (GPa) = 64.81673 48.58399 55.95435
#
# Poissons Ratio (x) = 0.25914 -0.03614
# Poissons Ratio (y) = 0.34572 0.52907
# Poissons Ratio (z) = -0.04187 0.45938
#
# Static dielectric constant tensor:
#      x y z
#    x 1.795990 0.000000 0.000000 
#    y 0.000000 1.813330 0.000000 
#    z 0.000000 0.000000 1.779960 
# 
# From -- ./inp_files/16035.got.cif
#   From: 2010.05.17/outbox.cif.g08.bks.cpg/sg24_9_cif.got.tgz:16035.got - 2010.06.04 00:33:39.
