data_PCOD9334976
_publ_section_title
;
Structure prediction by ZEFSAII (Michael W. Deem and Ramdas Pophale) SiO2 
 PCOD9334976
Probable space group: I 21 21 21
;
_chemical_formula_sum "Si O2"
_cell_formula_units_Z 48
_cell_length_a 28.162285
_cell_length_b 9.617909
_cell_length_c 8.970128
_cell_angle_alpha 90.000000
_cell_angle_beta 90.000000
_cell_angle_gamma 90.000000
_cell_volume 2429.669451
_symmetry_space_group_name_H-M "I 21 21 21"
_symmetry_group_IT_number 24
_symmetry_cell_setting 'orthorhombic'
loop_
_space_group_symop_operation_xyz
x,y,z
-x,1/2-y,z
x,-y,1/2-z
1/2-x,y,-z
1/2+x,1/2+y,1/2+z
1/2-x,-y,1/2+z
1/2+x,1/2-y,-z
-x,1/2+y,1/2-z
loop_
_atom_site_type_symbol
_atom_site_label
_atom_site_fract_x
_atom_site_fract_y
_atom_site_fract_z
Si Si1 0.374730 0.845981 0.203880
Si Si2 0.043997 0.650793 0.678108
Si Si3 0.651912 0.160016 0.788205
Si Si4 0.155411 0.911992 0.112136
Si Si5 0.457430 0.647802 0.679804
Si Si6 0.196387 0.818181 0.542124
O O1 0.409246 0.727952 0.263176
O O2 0.323900 0.827327 0.289533
O O3 0.392125 0.000000 0.250000
O O4 0.373728 0.851161 0.025828
O O5 0.039078 0.500000 0.750000
O O6 0.045293 0.638802 0.499219
O O7 0.000000 0.750000 0.718089
O O8 0.678339 0.275962 0.687615
O O9 0.595603 0.186318 0.766141
O O10 0.664769 0.204243 0.955431
O O11 0.662033 0.000000 0.750000
O O12 0.132559 0.000000 0.250000
O O13 0.187160 0.030053 0.032436
O O14 0.500000 0.750000 0.720479
O O15 0.468561 0.500000 0.750000
O O16 0.250000 0.782131 0.500000
#
# Coordination Sequence:
#
# PCOD9334976 Si02
#       6
#     8   8   8   8   8   8
#     4  10  21  39  62  92 122 167 210 261 321 373
#     4  11  24  42  62  92 127 166 208 265 317 381
#     4  10  21  40  60  91 127 162 202 260 317 376
#     4   9  21  37  61  90 121 166 211 258 310 372
#     4  10  23  41  62  92 125 164 207 254 314 383
#     4  10  21  41  64  91 125 163 210 266 315 381
#
# _framework density 19.755773000000001
#
# number of rings (size 3 to 8) (size 9 to 14) (size 15 to 20)
#    0.000    2.000    1.667    0.500    4.667    8.667 
#    3.000    3.333    0.000    0.000    0.000    0.000 
#    0.000    0.000    0.000    0.000    0.000    0.000 
#
# Total GULP energy -133734.351241 kJ/mol
# GULP energy per Si atom -5572.264635 kJ/mol
# Density = 1.971081 g / cm^3
# Si number density = 19.755773 Si / 1000 Ang^3
#
#
#
# Elastic Constant Matrix: (Units=GPa)
#
#
# Indices 1 2 3 4 5 6 
#
# 1 89.2900 39.3013 24.7470 0.0000 0.0000 0.0000
# 2 39.3013 125.9552 42.5651 0.0000 0.0000 0.0000
# 3 24.7470 42.5651 114.5572 0.0000 0.0000 0.0000
# 4 0.0000 0.0000 0.0000 29.1834 0.0000 0.0000
# 5 0.0000 0.0000 0.0000 0.0000 -6.6613 0.0000
# 6 0.0000 0.0000 0.0000 0.0000 0.0000 17.4577
#
#
#
# Elastic Compliance Matrix: (Units=1/GPa)
#
#
# Indices 1 2 3 4 5 6 
#
# 1 0.013207 -0.003610 -0.001512 0.000000 0.000000 0.000000
# 2 -0.003610 0.010066 -0.002960 0.000000 0.000000 0.000000
# 3 -0.001512 -0.002960 0.010156 0.000000 0.000000 0.000000
# 4 0.000000 0.000000 0.000000 0.034266 0.000000 0.000000
# 5 0.000000 0.000000 0.000000 0.000000 -0.150121 0.000000
# 6 0.000000 0.000000 0.000000 0.000000 0.000000 0.057281
#
#
# Mechanical properties :
#
#
# Convention : Reuss Voigt Hill
#
# Bulk Modulus (GPa) = 57.92075 60.33659 59.12867
# Shear Modulus (GPa) = -1550.67181 22.87521 -763.89830
#
# Velocity S-wave (km/s) = -28.04683 3.40648 -19.68528
# Velocity P-wave (km/s) = 31.92884 6.78821 22.06095
#
# Compressibility (1/GPa) = 0.01726497
#
# Stress axis : x y z
#
# Youngs Moduli (GPa) = 75.71459 99.34203 98.46606
#
# Poissons Ratio (x) = 0.35865 0.14885
# Poissons Ratio (y) = 0.27335 0.29149
# Poissons Ratio (z) = 0.11446 0.29409
#
# Static dielectric constant tensor:
#      x y z
#    x 1.721510 0.000000 0.000000 
#    y 0.000000 1.687960 0.000000 
#    z 0.000000 0.000000 1.746970 
# 
# From -- ./inp_files/9741.got.cif
#   From: 2010.05.17/outbox.cif.g08.bks.cpg/sg24_5_cif.got.tgz:9741.got - 2010.06.04 00:33:39.
