data_PCOD9334059
_publ_section_title
;
Structure prediction by ZEFSAII (Michael W. Deem and Ramdas Pophale) SiO2 
 PCOD9334059
Probable space group: I 21 21 21
;
_chemical_formula_sum "Si O2"
_cell_formula_units_Z 64
_cell_length_a 26.260852
_cell_length_b 8.953361
_cell_length_c 15.139184
_cell_angle_alpha 90.000000
_cell_angle_beta 90.000000
_cell_angle_gamma 90.000000
_cell_volume 3559.568666
_symmetry_space_group_name_H-M "I 21 21 21"
_symmetry_group_IT_number 24
_symmetry_cell_setting 'orthorhombic'
loop_
_space_group_symop_operation_xyz
x,y,z
-x,1/2-y,z
x,-y,1/2-z
1/2-x,y,-z
1/2+x,1/2+y,1/2+z
1/2-x,-y,1/2+z
1/2+x,1/2-y,-z
-x,1/2+y,1/2-z
loop_
_atom_site_type_symbol
_atom_site_label
_atom_site_fract_x
_atom_site_fract_y
_atom_site_fract_z
Si Si1 0.787910 0.786153 0.082286
Si Si2 0.943067 0.786177 0.001129
Si Si3 0.449852 0.334235 0.710828
Si Si4 0.238252 0.177376 0.231357
Si Si5 0.135444 0.031147 0.469909
Si Si6 0.633667 0.028033 0.978313
Si Si7 0.373813 0.219149 0.840279
Si Si8 0.199519 0.222974 0.937481
O O1 0.760886 0.767248 0.176558
O O2 0.819380 0.634515 0.066498
O O3 0.829560 0.916921 0.076462
O O4 0.750000 0.805908 0.000000
O O5 0.948876 0.824523 0.105490
O O6 0.907395 0.640408 0.991598
O O7 0.000000 0.750000 0.967131
O O8 0.909193 0.929508 0.972347
O O9 0.500000 0.250000 0.743416
O O10 0.449138 0.500000 0.750000
O O11 0.402071 0.246051 0.749470
O O12 0.185987 0.217996 0.180597
O O13 0.282790 0.212611 0.162958
O O14 0.237801 0.000000 0.250000
O O15 0.113049 0.933953 0.389538
O O16 0.162136 0.912883 0.535304
O O17 0.612484 0.147623 0.907813
O O18 0.669523 0.125051 0.041923
O O19 0.250000 0.214848 0.000000
#
# Coordination Sequence:
#
# PCOD9334059 Si02
#       8
#     8   8   8   8   8   8   8   8
#     4  11  22  35  53  81 118 151 191 234 294 350
#     4  10  22  37  54  76 112 155 204 245 305 356
#     4  11  24  34  49  75 109 149 204 252 284 343
#     4  12  22  34  59  82 111 160 206 234 285 364
#     4  10  20  35  56  76 109 154 193 246 283 347
#     4  10  21  38  53  79 114 157 194 250 288 342
#     4  11  21  33  53  73 108 153 201 230 283 333
#     4  11  20  38  56  82 116 152 201 247 288 334
#
# _framework density 17.979706
#
# number of rings (size 3 to 8) (size 9 to 14) (size 15 to 20)
#    0.000    1.250    5.000    3.000    3.500    0.000 
#    0.000    1.875    0.000    0.000    0.000    0.000 
#    0.000   30.000    0.000    1.250    0.000    0.250 
#
# Total GULP energy -178655.857563 kJ/mol
# GULP energy per Si atom -5582.995549 kJ/mol
# Density = 1.793878 g / cm^3
# Si number density = 17.979706 Si / 1000 Ang^3
#
#
#
# Elastic Constant Matrix: (Units=GPa)
#
#
# Indices 1 2 3 4 5 6 
#
# 1 85.0279 41.9739 21.6200 0.0000 0.0000 0.0000
# 2 41.9739 89.9446 13.0258 0.0000 0.0000 0.0000
# 3 21.6200 13.0258 45.7231 0.0000 0.0000 0.0000
# 4 0.0000 0.0000 0.0000 9.4266 0.0000 0.0000
# 5 0.0000 0.0000 0.0000 0.0000 19.3512 0.0000
# 6 0.0000 0.0000 0.0000 0.0000 0.0000 26.5311
#
#
#
# Elastic Compliance Matrix: (Units=1/GPa)
#
#
# Indices 1 2 3 4 5 6 
#
# 1 0.016686 -0.006930 -0.005916 0.000000 0.000000 0.000000
# 2 -0.006930 0.014475 -0.000847 0.000000 0.000000 0.000000
# 3 -0.005916 -0.000847 0.024909 0.000000 0.000000 0.000000
# 4 0.000000 0.000000 0.000000 0.106082 0.000000 0.000000
# 5 0.000000 0.000000 0.000000 0.000000 0.051676 0.000000
# 6 0.000000 0.000000 0.000000 0.000000 0.000000 0.037692
#
#
# Mechanical properties :
#
#
# Convention : Reuss Voigt Hill
#
# Bulk Modulus (GPa) = 34.86155 41.54835 38.20495
# Shear Modulus (GPa) = 17.33302 20.66683 18.99993
#
# Velocity S-wave (km/s) = 3.10826 3.39404 3.25428
# Velocity P-wave (km/s) = 5.68447 6.20628 5.95110
#
# Compressibility (1/GPa) = 0.02868490
#
# Stress axis : x y z
#
# Youngs Moduli (GPa) = 59.93043 69.08657 40.14584
#
# Poissons Ratio (x) = 0.47877 0.23749
# Poissons Ratio (y) = 0.41532 0.03399
# Poissons Ratio (z) = 0.35453 0.05850
#
# Static dielectric constant tensor:
#      x y z
#    x 1.650320 0.000000 0.000000 
#    y 0.000000 1.646140 0.000000 
#    z 0.000000 0.000000 1.612810 
# 
# From -- ./inp_files/28293.got.cif
#   From: 2010.05.17/outbox.cif.g08.bks.cpg/sg24_15_cif.got.tgz:28293.got - 2010.06.04 00:33:39.
