data_PCOD9334870
_publ_section_title
;
Structure prediction by ZEFSAII (Michael W. Deem and Ramdas Pophale) SiO2 
 PCOD9334870
Probable space group: I 21 21 21
;
_chemical_formula_sum "Si O2"
_cell_formula_units_Z 40
_cell_length_a 8.659983
_cell_length_b 24.144101
_cell_length_c 8.072797
_cell_angle_alpha 90.000000
_cell_angle_beta 90.000000
_cell_angle_gamma 90.000000
_cell_volume 1687.920977
_symmetry_space_group_name_H-M "I 21 21 21"
_symmetry_group_IT_number 24
_symmetry_cell_setting 'orthorhombic'
loop_
_space_group_symop_operation_xyz
x,y,z
-x,1/2-y,z
x,-y,1/2-z
1/2-x,y,-z
1/2+x,1/2+y,1/2+z
1/2-x,-y,1/2+z
1/2+x,1/2-y,-z
-x,1/2+y,1/2-z
loop_
_atom_site_type_symbol
_atom_site_label
_atom_site_fract_x
_atom_site_fract_y
_atom_site_fract_z
Si Si1 0.071065 0.501455 0.049789
Si Si2 0.920860 0.192702 0.213496
Si Si3 0.622358 0.601142 0.889836
Si Si4 0.070248 0.308577 0.811822
Si Si5 0.364033 0.089545 0.139229
O O1 0.065901 0.500000 0.250000
O O2 0.987683 0.559420 0.012083
O O3 0.250000 0.498790 0.000000
O O4 0.975264 0.454342 0.951636
O O5 0.741760 0.186751 0.259740
O O6 0.000000 0.250000 0.266929
O O7 0.017960 0.142486 0.286658
O O8 0.922316 0.192214 0.013158
O O9 0.737780 0.566750 0.768725
O O10 0.750000 0.632038 0.000000
O O11 0.000000 0.250000 0.758043
O O12 0.964974 0.361773 0.780678
O O13 0.250000 0.115402 0.000000
#
# Coordination Sequence:
#
# PCOD9334870 Si02
#       5
#     8   8   8   8   8
#     4  12  29  47  71 103 142 188 236 294 357 423
#     4  10  21  42  71 106 145 182 235 294 358 423
#     4  12  28  47  70 104 145 192 239 292 354 422
#     4  10  21  37  74 111 137 178 238 301 355 417
#     4  12  24  46  73 100 142 183 239 293 347 416
#
# _framework density 23.697790000000001
#
# number of rings (size 3 to 8) (size 9 to 14) (size 15 to 20)
#    0.000    0.800    4.000    1.800   11.200    0.000 
#    0.000    4.000    0.000    0.000    0.000    0.000 
#    0.000    0.000    0.000    0.000    0.000    0.000 
#
# Total GULP energy -111872.108226 kJ/mol
# GULP energy per Si atom -5593.605411 kJ/mol
# Density = 2.364385 g / cm^3
# Si number density = 23.697790 Si / 1000 Ang^3
#
#
#
# Elastic Constant Matrix: (Units=GPa)
#
#
# Indices 1 2 3 4 5 6 
#
# 1 254.7996 112.6193 57.4130 -0.0002 -0.0006 0.0002
# 2 112.6193 168.8335 34.6732 0.0000 -0.0001 -0.0001
# 3 57.4130 34.6732 46.1092 0.0000 0.0038 0.0021
# 4 -0.0002 0.0000 0.0000 16.9216 0.0003 0.0005
# 5 -0.0006 -0.0001 0.0038 0.0003 40.7698 0.0006
# 6 0.0002 -0.0001 0.0021 0.0005 0.0006 45.9543
#
#
#
# Elastic Compliance Matrix: (Units=1/GPa)
#
#
# Indices 1 2 3 4 5 6 
#
# 1 0.006688 -0.003253 -0.005881 0.000000 0.000001 0.000000
# 2 -0.003253 0.008587 -0.002407 0.000000 0.000000 0.000000
# 3 -0.005881 -0.002407 0.030820 0.000000 -0.000003 -0.000001
# 4 0.000000 0.000000 0.000000 0.059096 0.000000 -0.000001
# 5 0.000001 0.000000 -0.000003 0.000000 0.024528 0.000000
# 6 0.000000 0.000000 -0.000001 -0.000001 0.000000 0.021761
#
#
# Mechanical properties :
#
#
# Convention : Reuss Voigt Hill
#
# Bulk Modulus (GPa) = 43.45290 97.68370 70.56830
# Shear Modulus (GPa) = 27.43750 38.39825 32.91788
#
# Velocity S-wave (km/s) = 3.40635 4.02970 3.73107
# Velocity P-wave (km/s) = 5.81782 7.93482 6.95731
#
# Compressibility (1/GPa) = 0.02301343
#
# Stress axis : x y z
#
# Youngs Moduli (GPa) = 149.52958 116.45100 32.44653
#
# Poissons Ratio (x) = 0.37884 0.19081
# Poissons Ratio (y) = 0.48645 0.07809
# Poissons Ratio (z) = 0.87935 0.28027
#
# Static dielectric constant tensor:
#      x y z
#    x 1.841410 0.000000 0.000000 
#    y 0.000000 1.851330 0.000000 
#    z 0.000000 0.000000 2.022380 
# 
# From -- ./inp_files/9224.got.cif
#   From: 2010.05.17/outbox.cif.g08.bks.cpg/sg24_5_cif.got.tgz:9224.got - 2010.06.04 00:33:39.
