data_PCOD9334560
_publ_section_title
;
Structure prediction by ZEFSAII (Michael W. Deem and Ramdas Pophale) SiO2 
 PCOD9334560
Probable space group: I 21 21 21
;
_chemical_formula_sum "Si O2"
_cell_formula_units_Z 44
_cell_length_a 9.278831
_cell_length_b 22.962959
_cell_length_c 10.808536
_cell_angle_alpha 90.000000
_cell_angle_beta 90.000000
_cell_angle_gamma 90.000000
_cell_volume 2302.968451
_symmetry_space_group_name_H-M "I 21 21 21"
_symmetry_group_IT_number 24
_symmetry_cell_setting 'orthorhombic'
loop_
_space_group_symop_operation_xyz
x,y,z
-x,1/2-y,z
x,-y,1/2-z
1/2-x,y,-z
1/2+x,1/2+y,1/2+z
1/2-x,-y,1/2+z
1/2+x,1/2-y,-z
-x,1/2+y,1/2-z
loop_
_atom_site_type_symbol
_atom_site_label
_atom_site_fract_x
_atom_site_fract_y
_atom_site_fract_z
Si Si1 0.054680 0.185085 0.139829
Si Si2 0.500000 0.750000 0.158547
Si Si3 0.673093 0.113439 0.704949
Si Si4 0.250000 0.707755 0.000000
Si Si5 0.937738 0.945107 0.660759
Si Si6 0.250000 0.518276 0.000000
Si Si7 0.893356 0.337498 0.855165
O O1 0.225904 0.178410 0.162791
O O2 0.000000 0.250000 0.175501
O O3 0.960167 0.135305 0.209455
O O4 0.046697 0.180152 0.990282
O O5 0.481243 0.804618 0.248688
O O6 0.366420 0.746189 0.067913
O O7 0.691510 0.166236 0.608499
O O8 0.809212 0.097556 0.791938
O O9 0.683881 0.057859 0.610704
O O10 0.078485 0.906134 0.652410
O O11 0.957969 0.000000 0.750000
O O12 0.878808 0.975898 0.539220
#
# Coordination Sequence:
#
# PCOD9334560 Si02
#       7
#     8   4   8   4   8   4   8
#     4  11  24  40  65  96 131 173 215 272 328 393
#     4  12  24  42  60  94 130 172 210 272 332 398
#     4  10  21  40  63  96 129 164 223 263 325 401
#     4  11  24  38  62  92 132 166 211 260 334 396
#     4  10  20  40  64  89 126 170 217 269 320 383
#     4   9  20  38  70  96 122 172 217 276 326 392
#     4  11  24  42  63  96 128 170 223 267 326 390
#
# _framework density 19.105775999999999
#
# number of rings (size 3 to 8) (size 9 to 14) (size 15 to 20)
#    0.000    1.455    2.727    2.182    3.818    0.000 
#    0.000    6.364    0.000    0.000    0.000    0.000 
#    0.000    0.000    0.000    0.000    0.000    0.000 
#
# Total GULP energy -122562.735913 kJ/mol
# GULP energy per Si atom -5571.033451 kJ/mol
# Density = 1.906229 g / cm^3
# Si number density = 19.105776 Si / 1000 Ang^3
#
#
#
# Elastic Constant Matrix: (Units=GPa)
#
#
# Indices 1 2 3 4 5 6 
#
# 1 86.3794 54.0392 55.1259 0.0022 0.0005 0.0005
# 2 54.0392 107.4131 30.8548 0.0015 0.0004 0.0002
# 3 55.1259 30.8548 85.6643 0.0138 0.0032 0.0019
# 4 0.0022 0.0015 0.0138 -101.3359 0.0083 0.0035
# 5 0.0005 0.0004 0.0032 0.0083 22.9767 0.0008
# 6 0.0005 0.0002 0.0019 0.0035 0.0008 38.4161
#
#
#
# Elastic Compliance Matrix: (Units=1/GPa)
#
#
# Indices 1 2 3 4 5 6 
#
# 1 0.025792 -0.009156 -0.013300 -0.000001 0.000001 0.000000
# 2 -0.009156 0.013634 0.000981 0.000000 0.000000 0.000000
# 3 -0.013300 0.000981 0.019879 0.000002 -0.000003 -0.000001
# 4 -0.000001 0.000000 0.000002 -0.009868 0.000004 0.000001
# 5 0.000001 0.000000 -0.000003 0.000004 0.043522 -0.000001
# 6 0.000000 0.000000 -0.000001 0.000001 -0.000001 0.026031
#
#
# Mechanical properties :
#
#
# Convention : Reuss Voigt Hill
#
# Bulk Modulus (GPa) = 61.13920 62.16628 61.65274
# Shear Modulus (GPa) = 29.86998 1.30716 15.58857
#
# Velocity S-wave (km/s) = 3.95828 0.82804 2.85951
# Velocity P-wave (km/s) = 7.27739 5.78989 6.57584
#
# Compressibility (1/GPa) = 0.01635612
#
# Stress axis : x y z
#
# Youngs Moduli (GPa) = 38.77097 73.34469 50.30469
#
# Poissons Ratio (x) = 0.67152 0.66905
# Poissons Ratio (y) = 0.35497 -0.04935
# Poissons Ratio (z) = 0.51566 -0.07195
#
# Static dielectric constant tensor:
#      x y z
#    x 1.670570 0.000000 0.000010 
#    y 0.000000 1.671650 0.000000 
#    z 0.000010 0.000000 1.791420 
# 
# From -- ./inp_files/18563.got.cif
#   From: 2010.05.17/outbox.cif.g08.bks.cpg/sg24_10_cif.got.tgz:18563.got - 2010.06.04 00:33:39.
