data_PCOD9334090
_publ_section_title
;
Structure prediction by ZEFSAII (Michael W. Deem and Ramdas Pophale) SiO2 
 PCOD9334090
Probable space group: I 21 21 21
;
_chemical_formula_sum "Si O2"
_cell_formula_units_Z 64
_cell_length_a 19.025925
_cell_length_b 18.025203
_cell_length_c 8.949311
_cell_angle_alpha 90.000000
_cell_angle_beta 90.000000
_cell_angle_gamma 90.000000
_cell_volume 3069.131846
_symmetry_space_group_name_H-M "I 21 21 21"
_symmetry_group_IT_number 24
_symmetry_cell_setting 'orthorhombic'
loop_
_space_group_symop_operation_xyz
x,y,z
-x,1/2-y,z
x,-y,1/2-z
1/2-x,y,-z
1/2+x,1/2+y,1/2+z
1/2-x,-y,1/2+z
1/2+x,1/2-y,-z
-x,1/2+y,1/2-z
loop_
_atom_site_type_symbol
_atom_site_label
_atom_site_fract_x
_atom_site_fract_y
_atom_site_fract_z
Si Si1 0.571260 0.294370 0.002744
Si Si2 0.324560 0.835827 0.055280
Si Si3 0.744018 0.109125 0.167491
Si Si4 0.713085 0.733139 0.368756
Si Si5 0.443595 0.089100 0.257120
Si Si6 0.117731 0.575038 0.173870
Si Si7 0.579596 0.755151 0.827230
Si Si8 0.597723 0.920018 0.177878
O O1 0.500000 0.250000 0.030722
O O2 0.580785 0.294660 0.823779
O O3 0.636016 0.249076 0.070496
O O4 0.572494 0.370844 0.097846
O O5 0.298219 0.797312 0.206215
O O6 0.387329 0.887585 0.116375
O O7 0.250000 0.869874 0.000000
O O8 0.361688 0.777297 0.941032
O O9 0.761682 0.195513 0.148858
O O10 0.801237 0.076262 0.276691
O O11 0.667165 0.108964 0.239821
O O12 0.750000 0.076009 0.000000
O O13 0.750000 0.685231 0.500000
O O14 0.522054 0.117534 0.298968
O O15 0.441970 0.000000 0.250000
O O16 0.086352 0.500000 0.250000
O O17 0.089284 0.657510 0.215054
O O18 0.110972 0.571477 0.996888
O O19 0.500000 0.750000 0.890927
O O20 0.588847 0.000000 0.250000
#
# Coordination Sequence:
#
# PCOD9334090 Si02
#       8
#     8   8   8   8   8   8   8   8
#     4  10  21  39  65  92 125 166 214 261 315 390
#     4  11  22  41  66  93 128 166 214 271 331 396
#     4  11  21  36  59  91 130 173 221 266 320 387
#     4  10  20  35  59  88 121 165 213 256 310 382
#     4  10  24  45  68  95 126 167 216 272 333 395
#     4  12  25  40  61  93 133 172 218 273 327 385
#     4  11  24  42  65  97 131 169 217 267 328 396
#     4  11  23  40  60  85 127 174 217 262 327 397
#
# _framework density 20.852803000000002
#
# number of rings (size 3 to 8) (size 9 to 14) (size 15 to 20)
#    0.000    1.250    0.000    6.750    0.000    8.000 
#    0.000    4.375    0.000    0.000    0.000    0.000 
#    0.000    0.000    0.000    0.000    0.000    0.000 
#
# Total GULP energy -178372.650798 kJ/mol
# GULP energy per Si atom -5574.145337 kJ/mol
# Density = 2.080534 g / cm^3
# Si number density = 20.852803 Si / 1000 Ang^3
#
#
#
# Elastic Constant Matrix: (Units=GPa)
#
#
# Indices 1 2 3 4 5 6 
#
# 1 138.3898 33.2879 54.2361 0.0000 0.0000 0.0000
# 2 33.2879 91.8065 38.3770 0.0000 0.0000 0.0000
# 3 54.2361 38.3770 155.0971 0.0000 0.0000 0.0000
# 4 0.0000 0.0000 0.0000 23.5503 0.0000 0.0000
# 5 0.0000 0.0000 0.0000 0.0000 49.3184 0.0000
# 6 0.0000 0.0000 0.0000 0.0000 0.0000 27.8722
#
#
#
# Elastic Compliance Matrix: (Units=1/GPa)
#
#
# Indices 1 2 3 4 5 6 
#
# 1 0.008724 -0.002106 -0.002530 0.000000 0.000000 0.000000
# 2 -0.002106 0.012657 -0.002396 0.000000 0.000000 0.000000
# 3 -0.002530 -0.002396 0.007925 0.000000 0.000000 0.000000
# 4 0.000000 0.000000 0.000000 0.042462 0.000000 0.000000
# 5 0.000000 0.000000 0.000000 0.000000 0.020276 0.000000
# 6 0.000000 0.000000 0.000000 0.000000 0.000000 0.035878
#
#
# Mechanical properties :
#
#
# Convention : Reuss Voigt Hill
#
# Bulk Modulus (GPa) = 65.59819 70.78837 68.19328
# Shear Modulus (GPa) = 33.99831 37.44101 35.71966
#
# Velocity S-wave (km/s) = 4.04220 4.24192 4.14326
# Velocity P-wave (km/s) = 7.30149 7.61658 7.46070
#
# Compressibility (1/GPa) = 0.01524432
#
# Stress axis : x y z
#
# Youngs Moduli (GPa) = 114.62834 79.00527 126.18438
#
# Poissons Ratio (x) = 0.16636 0.31920
# Poissons Ratio (y) = 0.24138 0.30228
# Poissons Ratio (z) = 0.28997 0.18926
#
# Static dielectric constant tensor:
#      x y z
#    x 1.865420 0.000000 0.000000 
#    y 0.000000 1.781610 0.000000 
#    z 0.000000 0.000000 1.774700 
# 
# From -- ./inp_files/14591.got.cif
#   From: 2010.05.17/outbox.cif.g08.bks.cpg/sg24_8_cif.got.tgz:14591.got - 2010.06.04 00:33:39.
