data_PCOD9334932
_publ_section_title
;
Structure prediction by ZEFSAII (Michael W. Deem and Ramdas Pophale) SiO2 
 PCOD9334932
Probable space group: I 21 21 21
;
_chemical_formula_sum "Si O2"
_cell_formula_units_Z 48
_cell_length_a 7.668783
_cell_length_b 11.800987
_cell_length_c 24.621509
_cell_angle_alpha 90.000000
_cell_angle_beta 90.000000
_cell_angle_gamma 90.000000
_cell_volume 2228.227076
_symmetry_space_group_name_H-M "I 21 21 21"
_symmetry_group_IT_number 24
_symmetry_cell_setting 'orthorhombic'
loop_
_space_group_symop_operation_xyz
x,y,z
-x,1/2-y,z
x,-y,1/2-z
1/2-x,y,-z
1/2+x,1/2+y,1/2+z
1/2-x,-y,1/2+z
1/2+x,1/2-y,-z
-x,1/2+y,1/2-z
loop_
_atom_site_type_symbol
_atom_site_label
_atom_site_fract_x
_atom_site_fract_y
_atom_site_fract_z
Si Si1 0.388749 0.504075 0.112506
Si Si2 0.323673 0.695716 0.316640
Si Si3 0.273109 0.319321 0.303046
Si Si4 0.250000 0.562896 0.500000
Si Si5 0.000000 0.250000 0.043382
Si Si6 0.112524 0.920429 0.198513
Si Si7 0.724031 0.604290 0.625336
O O1 0.278518 0.409809 0.146358
O O2 0.368006 0.618301 0.147498
O O3 0.586165 0.452943 0.113206
O O4 0.306391 0.508228 0.052767
O O5 0.500000 0.750000 0.339926
O O6 0.358715 0.658227 0.255567
O O7 0.205611 0.805727 0.324012
O O8 0.244615 0.184744 0.308250
O O9 0.080204 0.370848 0.295564
O O10 0.092036 0.649708 0.489048
O O11 0.146796 0.182685 0.078095
O O12 0.157007 0.000000 0.250000
O O13 0.114893 0.996889 0.144654
#
# Coordination Sequence:
#
# PCOD9334932 Si02
#       7
#     8   8   8   4   4   8   8
#     4  11  24  42  64  98 134 180 227 283 344 410
#     4  10  21  38  63  97 134 171 219 272 343 405
#     4  11  24  40  65  95 141 185 223 282 351 409
#     4  12  24  42  70  98 134 178 230 288 342 412
#     4  12  24  40  70  96 138 176 226 296 352 400
#     4  11  23  37  62  98 134 182 231 275 341 418
#     4  11  24  40  65  99 138 174 231 285 346 413
#
# _framework density 21.541789999999999
#
# number of rings (size 3 to 8) (size 9 to 14) (size 15 to 20)
#    0.000    1.000    3.333    3.500    5.833    0.000 
#    0.000    0.000    0.000    9.000    0.000    0.000 
#    0.000    0.000    0.000    0.000    0.000    0.000 
#
# Total GULP energy -133921.184938 kJ/mol
# GULP energy per Si atom -5580.049372 kJ/mol
# Density = 2.149276 g / cm^3
# Si number density = 21.541790 Si / 1000 Ang^3
#
#
#
# Elastic Constant Matrix: (Units=GPa)
#
#
# Indices 1 2 3 4 5 6 
#
# 1 65.9981 41.2654 28.0922 0.0000 0.0000 0.0000
# 2 41.2654 114.8067 45.6843 0.0000 0.0000 0.0000
# 3 28.0922 45.6843 110.1338 0.0000 0.0000 0.0000
# 4 0.0000 0.0000 0.0000 38.8856 0.0000 0.0000
# 5 0.0000 0.0000 0.0000 0.0000 27.5066 0.0000
# 6 0.0000 0.0000 0.0000 0.0000 0.0000 38.5777
#
#
#
# Elastic Compliance Matrix: (Units=1/GPa)
#
#
# Indices 1 2 3 4 5 6 
#
# 1 0.020127 -0.006218 -0.002555 0.000000 0.000000 0.000000
# 2 -0.006218 0.012353 -0.003538 0.000000 0.000000 0.000000
# 3 -0.002555 -0.003538 0.011199 0.000000 0.000000 0.000000
# 4 0.000000 0.000000 0.000000 0.025716 0.000000 0.000000
# 5 0.000000 0.000000 0.000000 0.000000 0.036355 0.000000
# 6 0.000000 0.000000 0.000000 0.000000 0.000000 0.025922
#
#
# Mechanical properties :
#
#
# Convention : Reuss Voigt Hill
#
# Bulk Modulus (GPa) = 52.47134 57.89137 55.18136
# Shear Modulus (GPa) = 30.74159 32.72045 31.73102
#
# Velocity S-wave (km/s) = 3.78175 3.90157 3.84213
# Velocity P-wave (km/s) = 6.59391 6.87231 6.73455
#
# Compressibility (1/GPa) = 0.01905802
#
# Stress axis : x y z
#
# Youngs Moduli (GPa) = 49.68452 80.95154 89.29241
#
# Poissons Ratio (x) = 0.50334 0.22812
# Poissons Ratio (y) = 0.30893 0.31593
# Poissons Ratio (z) = 0.12693 0.28642
#
# Static dielectric constant tensor:
#      x y z
#    x 1.911500 0.000000 0.000000 
#    y 0.000000 1.818250 0.000000 
#    z 0.000000 0.000000 1.801150 
# 
# From -- ./inp_files/11317.got.cif
#   From: 2010.05.17/outbox.cif.g08.bks.cpg/sg24_6_cif.got.tgz:11317.got - 2010.06.04 00:33:39.
