data_PCOD9334245
_publ_section_title
;
Structure prediction by ZEFSAII (Michael W. Deem and Ramdas Pophale) SiO2 
 PCOD9334245
Probable space group: I 21 21 21
;
_chemical_formula_sum "Si O2"
_cell_formula_units_Z 60
_cell_length_a 23.475360
_cell_length_b 11.263320
_cell_length_c 11.289985
_cell_angle_alpha 90.000000
_cell_angle_beta 90.000000
_cell_angle_gamma 90.000000
_cell_volume 2985.190486
_symmetry_space_group_name_H-M "I 21 21 21"
_symmetry_group_IT_number 24
_symmetry_cell_setting 'orthorhombic'
loop_
_space_group_symop_operation_xyz
x,y,z
-x,1/2-y,z
x,-y,1/2-z
1/2-x,y,-z
1/2+x,1/2+y,1/2+z
1/2-x,-y,1/2+z
1/2+x,1/2-y,-z
-x,1/2+y,1/2-z
loop_
_atom_site_type_symbol
_atom_site_label
_atom_site_fract_x
_atom_site_fract_y
_atom_site_fract_z
Si Si1 0.152850 0.857992 0.486075
Si Si2 0.485297 0.620342 0.884328
Si Si3 0.183031 0.125576 0.492949
Si Si4 0.471258 0.869789 0.611722
Si Si5 0.647409 0.848215 0.875837
Si Si6 0.684950 0.363694 0.246889
Si Si7 0.724316 0.178399 0.838426
Si Si8 0.750000 0.023792 0.500000
O O1 0.094997 0.853414 0.413332
O O2 0.147107 0.850590 0.628806
O O3 0.194199 0.754917 0.441037
O O4 0.179307 0.987391 0.463028
O O5 0.500000 0.750000 0.938349
O O6 0.511018 0.626048 0.750481
O O7 0.510145 0.498587 0.938595
O O8 0.416901 0.608113 0.881685
O O9 0.250000 0.156175 0.500000
O O10 0.149997 0.207355 0.401393
O O11 0.157774 0.149741 0.623991
O O12 0.500000 0.750000 0.562046
O O13 0.674545 0.865361 0.747470
O O14 0.692820 0.903890 0.969097
O O15 0.707616 0.500000 0.250000
O O16 0.734751 0.267950 0.231372
O O17 0.757190 0.065449 0.889640
#
# Coordination Sequence:
#
# PCOD9334245 Si02
#       8
#     8   8   8   8   8   8   8   4
#     4  11  22  36  63  92 125 169 210 278 323 388
#     4  10  22  41  60  92 125 162 213 276 328 379
#     4  11  21  40  61  94 130 166 215 258 330 399
#     4  10  22  38  59  89 121 159 218 264 327 374
#     4  12  25  40  66  91 135 178 210 273 324 397
#     4  10  20  37  58  90 129 163 208 261 325 398
#     4  12  22  37  61  91 129 171 217 260 331 396
#     4  12  26  38  54  96 130 182 212 242 336 414
#
# _framework density 20.099219000000002
#
# number of rings (size 3 to 8) (size 9 to 14) (size 15 to 20)
#    0.000    1.067    3.333    4.400    5.600    1.067 
#    0.000    0.000    0.000    5.600    0.000    0.000 
#    0.000    0.000    0.000    0.000    0.000    0.000 
#
# Total GULP energy -167469.719897 kJ/mol
# GULP energy per Si atom -5582.323997 kJ/mol
# Density = 2.005347 g / cm^3
# Si number density = 20.099219 Si / 1000 Ang^3
#
#
#
# Elastic Constant Matrix: (Units=GPa)
#
#
# Indices 1 2 3 4 5 6 
#
# 1 112.6978 22.7526 19.7383 0.0000 0.0000 0.0000
# 2 22.7526 112.0349 14.9190 0.0000 0.0000 0.0000
# 3 19.7383 14.9190 64.4437 0.0000 0.0000 0.0000
# 4 0.0000 0.0000 0.0000 25.9516 0.0000 0.0000
# 5 0.0000 0.0000 0.0000 0.0000 25.7188 0.0000
# 6 0.0000 0.0000 0.0000 0.0000 0.0000 16.1426
#
#
#
# Elastic Compliance Matrix: (Units=1/GPa)
#
#
# Indices 1 2 3 4 5 6 
#
# 1 0.009652 -0.001616 -0.002582 0.000000 0.000000 0.000000
# 2 -0.001616 0.009480 -0.001700 0.000000 0.000000 0.000000
# 3 -0.002582 -0.001700 0.016702 0.000000 0.000000 0.000000
# 4 0.000000 0.000000 0.000000 0.038533 0.000000 0.000000
# 5 0.000000 0.000000 0.000000 0.000000 0.038882 0.000000
# 6 0.000000 0.000000 0.000000 0.000000 0.000000 0.061948
#
#
# Mechanical properties :
#
#
# Convention : Reuss Voigt Hill
#
# Bulk Modulus (GPa) = 41.60105 44.88847 43.24476
# Shear Modulus (GPa) = 25.64023 29.01369 27.32696
#
# Velocity S-wave (km/s) = 3.57554 3.80349 3.69128
# Velocity P-wave (km/s) = 6.14726 6.45528 6.30315
#
# Compressibility (1/GPa) = 0.02403786
#
# Stress axis : x y z
#
# Youngs Moduli (GPa) = 103.60724 105.48110 59.87395
#
# Poissons Ratio (x) = 0.17049 0.15460
# Poissons Ratio (y) = 0.16746 0.10177
# Poissons Ratio (z) = 0.26752 0.17929
#
# Static dielectric constant tensor:
#      x y z
#    x 1.695900 0.000000 0.000000 
#    y 0.000000 1.773580 0.000000 
#    z 0.000000 0.000000 1.759730 
# 
# From -- ./inp_files/22250.got.cif
#   From: 2010.05.17/outbox.cif.g08.bks.cpg/sg24_12_cif.got.tgz:22250.got - 2010.06.04 00:33:39.
