data_PCOD9334156
_publ_section_title
;
Structure prediction by ZEFSAII (Michael W. Deem and Ramdas Pophale) SiO2 
 PCOD9334156
Probable space group: I 21 21 21
;
_chemical_formula_sum "Si O2"
_cell_formula_units_Z 56
_cell_length_a 17.599183
_cell_length_b 10.248055
_cell_length_c 13.480552
_cell_angle_alpha 90.000000
_cell_angle_beta 90.000000
_cell_angle_gamma 90.000000
_cell_volume 2431.317246
_symmetry_space_group_name_H-M "I 21 21 21"
_symmetry_group_IT_number 24
_symmetry_cell_setting 'orthorhombic'
loop_
_space_group_symop_operation_xyz
x,y,z
-x,1/2-y,z
x,-y,1/2-z
1/2-x,y,-z
1/2+x,1/2+y,1/2+z
1/2-x,-y,1/2+z
1/2+x,1/2-y,-z
-x,1/2+y,1/2-z
loop_
_atom_site_type_symbol
_atom_site_label
_atom_site_fract_x
_atom_site_fract_y
_atom_site_fract_z
Si Si1 0.468378 0.381059 0.884233
Si Si2 0.569745 0.841195 0.914840
Si Si3 0.226458 0.719249 0.113712
Si Si4 0.554262 0.874838 0.137318
Si Si5 0.328329 0.241501 0.225540
Si Si6 0.455393 0.879766 0.400193
Si Si7 0.289585 0.409195 0.895132
O O1 0.500000 0.250000 0.830648
O O2 0.459788 0.533575 0.854126
O O3 0.377249 0.362201 0.902994
O O4 0.525334 0.388390 0.981327
O O5 0.500000 0.750000 0.931125
O O6 0.637497 0.754990 0.871467
O O7 0.593292 0.887252 0.027576
O O8 0.283416 0.807953 0.177340
O O9 0.221511 0.561430 0.135836
O O10 0.250000 0.734648 0.000000
O O11 0.500000 0.750000 0.138134
O O12 0.615049 0.846995 0.222824
O O13 0.498147 0.996370 0.143649
O O14 0.373757 0.146844 0.150830
O O15 0.260744 0.315826 0.171446
O O16 0.500000 0.750000 0.370863
O O17 0.250000 0.401166 0.000000
#
# Coordination Sequence:
#
# PCOD9334156 Si02
#       7
#     8   8   8   8   8   8   8
#     4   9  18  37  61  85 120 158 209 260 311 379
#     4   9  18  37  64  89 117 166 213 256 313 379
#     4  10  20  36  58  88 131 163 211 264 322 385
#     4  10  22  38  60  90 124 163 202 254 313 381
#     4  12  23  35  61  95 127 165 211 271 323 383
#     4  10  22  35  58  93 124 153 201 262 317 371
#     4  10  21  34  57  87 126 172 208 259 323 387
#
# _framework density 23.032779999999999
#
# number of rings (size 3 to 8) (size 9 to 14) (size 15 to 20)
#    0.000    2.000    1.429    2.571    6.000    1.714 
#    0.000    0.714    6.286    0.857    0.000    0.000 
#    0.000    0.000    0.000    0.000    0.000    0.000 
#
# Total GULP energy -155961.801372 kJ/mol
# GULP energy per Si atom -5570.064335 kJ/mol
# Density = 2.298036 g / cm^3
# Si number density = 23.032780 Si / 1000 Ang^3
#
#
#
# Elastic Constant Matrix: (Units=GPa)
#
#
# Indices 1 2 3 4 5 6 
#
# 1 135.0916 22.6345 23.3981 0.0000 0.0000 0.0000
# 2 22.6345 64.0833 -9.1029 0.0000 0.0000 0.0000
# 3 23.3981 -9.1029 70.3503 0.0000 0.0000 0.0000
# 4 0.0000 0.0000 0.0000 17.3862 0.0000 0.0000
# 5 0.0000 0.0000 0.0000 0.0000 354.3852 0.0000
# 6 0.0000 0.0000 0.0000 0.0000 0.0000 -22.2921
#
#
#
# Elastic Compliance Matrix: (Units=1/GPa)
#
#
# Indices 1 2 3 4 5 6 
#
# 1 0.008559 -0.003491 -0.003298 0.000000 0.000000 0.000000
# 2 -0.003491 0.017321 0.003402 0.000000 0.000000 0.000000
# 3 -0.003298 0.003402 0.015752 0.000000 0.000000 0.000000
# 4 0.000000 0.000000 0.000000 0.057517 0.000000 0.000000
# 5 0.000000 0.000000 0.000000 0.000000 0.002822 0.000000
# 6 0.000000 0.000000 0.000000 0.000000 0.000000 -0.044859
#
#
# Mechanical properties :
#
#
# Convention : Reuss Voigt Hill
#
# Bulk Modulus (GPa) = 28.68857 38.15386 33.42121
# Shear Modulus (GPa) = 66.22077 85.40223 75.81150
#
# Velocity S-wave (km/s) = 5.36778 6.09582 5.74335
# Velocity P-wave (km/s) = 7.13442 8.13304 7.65005
#
# Compressibility (1/GPa) = 0.03485709
#
# Stress axis : x y z
#
# Youngs Moduli (GPa) = 116.84079 57.73268 63.48462
#
# Poissons Ratio (x) = 0.20157 0.20939
# Poissons Ratio (y) = 0.40795 -0.21601
# Poissons Ratio (z) = 0.38538 -0.19644
#
# Static dielectric constant tensor:
#      x y z
#    x 1.897680 0.000000 0.000000 
#    y 0.000000 1.490270 0.000000 
#    z 0.000000 0.000000 2.193630 
# 
# From -- ./inp_files/26532.got.cif
#   From: 2010.05.17/outbox.cif.g08.bks.cpg/sg24_14_cif.got.tgz:26532.got - 2010.06.04 00:33:39.
