data_PCOD9334443
_publ_section_title
;
Structure prediction by ZEFSAII (Michael W. Deem and Ramdas Pophale) SiO2 
 PCOD9334443
Probable space group: I 21 21 21
;
_chemical_formula_sum "Si O2"
_cell_formula_units_Z 40
_cell_length_a 8.393155
_cell_length_b 9.234753
_cell_length_c 23.771409
_cell_angle_alpha 90.000000
_cell_angle_beta 90.000000
_cell_angle_gamma 90.000000
_cell_volume 1842.491325
_symmetry_space_group_name_H-M "I 21 21 21"
_symmetry_group_IT_number 24
_symmetry_cell_setting 'orthorhombic'
loop_
_space_group_symop_operation_xyz
x,y,z
-x,1/2-y,z
x,-y,1/2-z
1/2-x,y,-z
1/2+x,1/2+y,1/2+z
1/2-x,-y,1/2+z
1/2+x,1/2-y,-z
-x,1/2+y,1/2-z
loop_
_atom_site_type_symbol
_atom_site_label
_atom_site_fract_x
_atom_site_fract_y
_atom_site_fract_z
Si Si1 0.500000 0.250000 0.000564
Si Si2 0.973118 0.004615 0.425786
Si Si3 0.085278 0.590599 0.303467
Si Si4 0.000000 0.750000 0.997234
Si Si5 0.644267 0.503084 0.422646
Si Si6 0.031089 0.580761 0.693624
O O1 0.412635 0.361479 0.958238
O O2 0.595362 0.355795 0.041594
O O3 0.909112 0.143261 0.459260
O O4 0.165517 0.002605 0.425299
O O5 0.941124 0.995870 0.360692
O O6 0.024192 0.500000 0.250000
O O7 0.276985 0.585635 0.302921
O O8 0.000000 0.750000 0.305952
O O9 0.913274 0.637333 0.956683
O O10 0.555741 0.515281 0.362070
O O11 0.972183 0.500000 0.750000
O O12 0.000000 0.750000 0.694203
#
# Coordination Sequence:
#
# PCOD9334443 Si02
#       6
#     4   8   8   4   8   8
#     4  10  20  38  68  98 128 170 218 274 326 400
#     4  11  24  43  68 100 135 177 224 274 332 396
#     4  11  26  46  70 101 133 175 224 277 337 398
#     4  10  24  42  64 102 138 176 218 274 330 392
#     4  11  24  43  68 100 135 177 224 274 332 396
#     4  11  26  46  70 101 133 175 224 277 337 398
#
# _framework density 21.709737000000001
#
# number of rings (size 3 to 8) (size 9 to 14) (size 15 to 20)
#    0.000    1.200    2.000    3.600    2.800    8.000 
#    0.000   10.000    0.000    0.000    0.000    0.000 
#    0.000    0.000    0.000    0.000    0.000    0.000 
#
# Total GULP energy -111624.258317 kJ/mol
# GULP energy per Si atom -5581.212916 kJ/mol
# Density = 2.166032 g / cm^3
# Si number density = 21.709737 Si / 1000 Ang^3
#
#
#
# Elastic Constant Matrix: (Units=GPa)
#
#
# Indices 1 2 3 4 5 6 
#
# 1 80.8454 33.2284 43.7968 0.0000 0.0000 0.0000
# 2 33.2284 157.2289 84.1027 0.0000 0.0000 0.0000
# 3 43.7968 84.1027 215.9512 0.0000 0.0000 0.0000
# 4 0.0000 0.0000 0.0000 30.5755 0.0000 0.0000
# 5 0.0000 0.0000 0.0000 0.0000 29.6018 0.0000
# 6 0.0000 0.0000 0.0000 0.0000 0.0000 26.2433
#
#
#
# Elastic Compliance Matrix: (Units=1/GPa)
#
#
# Indices 1 2 3 4 5 6 
#
# 1 0.014314 -0.001860 -0.002179 0.000000 0.000000 0.000000
# 2 -0.001860 0.008275 -0.002846 0.000000 0.000000 0.000000
# 3 -0.002179 -0.002846 0.006181 0.000000 0.000000 0.000000
# 4 0.000000 0.000000 0.000000 0.032706 0.000000 0.000000
# 5 0.000000 0.000000 0.000000 0.000000 0.033782 0.000000
# 6 0.000000 0.000000 0.000000 0.000000 0.000000 0.038105
#
#
# Mechanical properties :
#
#
# Convention : Reuss Voigt Hill
#
# Bulk Modulus (GPa) = 66.65826 86.25348 76.45587
# Shear Modulus (GPa) = 32.86629 36.81062 34.83846
#
# Velocity S-wave (km/s) = 3.89510 4.12221 4.01026
# Velocity P-wave (km/s) = 7.14143 7.90401 7.53238
#
# Compressibility (1/GPa) = 0.01500189
#
# Stress axis : x y z
#
# Youngs Moduli (GPa) = 69.86203 120.84077 161.79108
#
# Poissons Ratio (x) = 0.22472 0.35250
# Poissons Ratio (y) = 0.12992 0.46041
# Poissons Ratio (z) = 0.15221 0.34388
#
# Static dielectric constant tensor:
#      x y z
#    x 2.132380 0.000000 0.000000 
#    y 0.000000 1.779990 0.000000 
#    z 0.000000 0.000000 1.812470 
# 
# From -- ./inp_files/9357.got.cif
#   From: 2010.05.17/outbox.cif.g08.bks.cpg/sg24_5_cif.got.tgz:9357.got - 2010.06.04 00:33:39.
