data_PCOD9334132
_publ_section_title
;
Structure prediction by ZEFSAII (Michael W. Deem and Ramdas Pophale) SiO2 
 PCOD9334132
Probable space group: I 21 21 21
;
_chemical_formula_sum "Si O2"
_cell_formula_units_Z 56
_cell_length_a 14.511692
_cell_length_b 20.225352
_cell_length_c 8.675763
_cell_angle_alpha 90.000000
_cell_angle_beta 90.000000
_cell_angle_gamma 90.000000
_cell_volume 2546.371827
_symmetry_space_group_name_H-M "I 21 21 21"
_symmetry_group_IT_number 24
_symmetry_cell_setting 'orthorhombic'
loop_
_space_group_symop_operation_xyz
x,y,z
-x,1/2-y,z
x,-y,1/2-z
1/2-x,y,-z
1/2+x,1/2+y,1/2+z
1/2-x,-y,1/2+z
1/2+x,1/2-y,-z
-x,1/2+y,1/2-z
loop_
_atom_site_type_symbol
_atom_site_label
_atom_site_fract_x
_atom_site_fract_y
_atom_site_fract_z
Si Si1 0.392475 0.386455 0.549874
Si Si2 0.716102 0.712693 0.658697
Si Si3 0.895515 0.760609 0.841444
Si Si4 0.331535 0.355613 0.875709
Si Si5 0.544657 0.024387 0.929900
Si Si6 0.844286 0.498148 0.435011
Si Si7 0.602399 0.354984 0.589589
O O1 0.381544 0.333336 0.414022
O O2 0.323170 0.377058 0.694295
O O3 0.400537 0.462495 0.495289
O O4 0.494660 0.368774 0.617357
O O5 0.750000 0.683118 0.500000
O O6 0.808751 0.742002 0.736917
O O7 0.651824 0.777092 0.630901
O O8 0.661202 0.661441 0.760961
O O9 0.000000 0.750000 0.776849
O O10 0.890513 0.708615 0.981983
O O11 0.407784 0.405435 0.939314
O O12 0.250000 0.363359 0.000000
O O13 0.542967 0.000000 0.750000
O O14 0.440092 0.030374 0.985326
O O15 0.840762 0.500000 0.250000
O O16 0.750000 0.524941 0.500000
O O17 0.857064 0.421358 0.484337
#
# Coordination Sequence:
#
# PCOD9334132 Si02
#       7
#     8   8   8   8   8   8   8
#     4   9  18  36  62  88 114 161 208 247 304 352
#     4  11  23  38  58  92 127 159 199 242 309 365
#     4  10  20  38  62  90 118 153 204 255 297 353
#     4  10  20  36  55  87 125 163 204 244 290 357
#     4   8  17  36  57  84 119 161 207 244 297 361
#     4  10  20  36  64  89 120 154 199 254 306 361
#     4  10  20  38  66  89 117 160 204 254 299 364
#
# _framework density 21.992073999999999
#
# number of rings (size 3 to 8) (size 9 to 14) (size 15 to 20)
#    0.000    2.286    1.429    2.143    0.000    0.571 
#   12.857    0.000   18.857    0.000    0.000    0.000 
#    0.000    0.000    0.000    0.000    0.000    0.000 
#
# Total GULP energy -156275.711958 kJ/mol
# GULP energy per Si atom -5581.275427 kJ/mol
# Density = 2.194202 g / cm^3
# Si number density = 21.992074 Si / 1000 Ang^3
#
#
#
# Elastic Constant Matrix: (Units=GPa)
#
#
# Indices 1 2 3 4 5 6 
#
# 1 81.9528 34.5824 23.1640 0.0000 0.0000 0.0000
# 2 34.5824 96.7488 0.9508 0.0000 0.0000 0.0000
# 3 23.1640 0.9508 30.5050 0.0000 0.0000 0.0000
# 4 0.0000 0.0000 0.0000 0.6412 0.0000 0.0000
# 5 0.0000 0.0000 0.0000 0.0000 18.2709 0.0000
# 6 0.0000 0.0000 0.0000 0.0000 0.0000 13.2851
#
#
#
# Elastic Compliance Matrix: (Units=1/GPa)
#
#
# Indices 1 2 3 4 5 6 
#
# 1 0.019044 -0.006667 -0.014254 0.000000 0.000000 0.000000
# 2 -0.006667 0.012673 0.004668 0.000000 0.000000 0.000000
# 3 -0.014254 0.004668 0.043459 0.000000 0.000000 0.000000
# 4 0.000000 0.000000 0.000000 1.559559 0.000000 0.000000
# 5 0.000000 0.000000 0.000000 0.000000 0.054732 0.000000
# 6 0.000000 0.000000 0.000000 0.000000 0.000000 0.075272
#
#
# Mechanical properties :
#
#
# Convention : Reuss Voigt Hill
#
# Bulk Modulus (GPa) = 23.43505 36.28900 29.86202
# Shear Modulus (GPa) = 2.76019 16.47340 9.61680
#
# Velocity S-wave (km/s) = 1.12152 2.73987 2.09340
# Velocity P-wave (km/s) = 3.51516 5.15227 4.41034
#
# Compressibility (1/GPa) = 0.04267112
#
# Stress axis : x y z
#
# Youngs Moduli (GPa) = 52.50902 78.90579 23.00996
#
# Poissons Ratio (x) = 0.52608 0.32797
# Poissons Ratio (y) = 0.35009 -0.10740
# Poissons Ratio (z) = 0.74844 -0.36831
#
# Static dielectric constant tensor:
#      x y z
#    x 1.854190 0.000000 0.000000 
#    y 0.000000 1.817850 0.000000 
#    z 0.000000 0.000000 1.821560 
# 
# From -- ./inp_files/13120.got.cif
#   From: 2010.05.17/outbox.cif.g08.bks.cpg/sg24_7_cif.got.tgz:13120.got - 2010.06.04 00:33:39.
