data_PCOD9334265
_publ_section_title
;
Structure prediction by ZEFSAII (Michael W. Deem and Ramdas Pophale) SiO2 
 PCOD9334265
Probable space group: I 21 21 21
;
_chemical_formula_sum "Si O2"
_cell_formula_units_Z 40
_cell_length_a 35.490238
_cell_length_b 5.254299
_cell_length_c 10.569679
_cell_angle_alpha 90.000000
_cell_angle_beta 90.000000
_cell_angle_gamma 90.000000
_cell_volume 1970.994865
_symmetry_space_group_name_H-M "I 21 21 21"
_symmetry_group_IT_number 24
_symmetry_cell_setting 'orthorhombic'
loop_
_space_group_symop_operation_xyz
x,y,z
-x,1/2-y,z
x,-y,1/2-z
1/2-x,y,-z
1/2+x,1/2+y,1/2+z
1/2-x,-y,1/2+z
1/2+x,1/2-y,-z
-x,1/2+y,1/2-z
loop_
_atom_site_type_symbol
_atom_site_label
_atom_site_fract_x
_atom_site_fract_y
_atom_site_fract_z
Si Si1 0.475285 0.000000 0.750000
Si Si2 0.912988 0.137582 0.616547
Si Si3 0.833115 0.000000 0.250000
Si Si4 0.279324 0.115410 0.888123
Si Si5 0.424774 0.136331 0.987667
Si Si6 0.647226 0.648028 0.957084
O O1 0.500000 0.750000 0.774309
O O2 0.449354 0.942126 0.630115
O O3 0.931196 0.926255 0.525417
O O4 0.914157 0.000000 0.750000
O O5 0.930861 0.417245 0.595630
O O6 0.869777 0.187675 0.571742
O O7 0.805254 0.851418 0.345156
O O8 0.858167 0.804620 0.171569
O O9 0.265916 0.000000 0.750000
O O10 0.309270 0.922779 0.952671
O O11 0.250000 0.174876 0.000000
O O12 0.380357 0.094814 0.957769
#
# Coordination Sequence:
#
# PCOD9334265 Si02
#       6
#     4   8   4   8   8   8
#     4  12  26  43  68 106 138 168 220 282 344 398
#     4  10  21  39  65  97 130 169 221 269 317 392
#     4  10  20  37  60  90 126 166 228 270 350 388
#     4  10  22  42  59  89 130 174 229 279 344 406
#     4  10  23  39  67  95 134 169 213 272 329 391
#     4   9  22  35  67  90 128 169 223 271 333 391
#
# _framework density 20.294321
#
# number of rings (size 3 to 8) (size 9 to 14) (size 15 to 20)
#    1.200    0.800    0.000    3.000    7.000    3.200 
#    7.200    0.000    0.000   12.000    0.000    0.000 
#    0.000    0.000    0.000    0.000    0.000    0.000 
#
# Total GULP energy -111338.562332 kJ/mol
# GULP energy per Si atom -5566.928117 kJ/mol
# Density = 2.024813 g / cm^3
# Si number density = 20.294321 Si / 1000 Ang^3
#
#
#
# Elastic Constant Matrix: (Units=GPa)
#
#
# Indices 1 2 3 4 5 6 
#
# 1 28.1312 -3.3656 27.9102 0.0000 0.0000 0.0000
# 2 -3.3656 71.2132 -4.9596 0.0000 0.0000 0.0000
# 3 27.9102 -4.9596 79.2621 0.0000 0.0000 0.0000
# 4 0.0000 0.0000 0.0000 33.6816 0.0000 0.0000
# 5 0.0000 0.0000 0.0000 0.0000 -16.1380 0.0000
# 6 0.0000 0.0000 0.0000 0.0000 0.0000 14.9903
#
#
#
# Elastic Compliance Matrix: (Units=1/GPa)
#
#
# Indices 1 2 3 4 5 6 
#
# 1 0.054745 0.001250 -0.019199 0.000000 0.000000 0.000000
# 2 0.001250 0.014132 0.000444 0.000000 0.000000 0.000000
# 3 -0.019199 0.000444 0.019405 0.000000 0.000000 0.000000
# 4 0.000000 0.000000 0.000000 0.029690 0.000000 0.000000
# 5 0.000000 0.000000 0.000000 0.000000 -0.061965 0.000000
# 6 0.000000 0.000000 0.000000 0.000000 0.000000 0.066710
#
#
# Mechanical properties :
#
#
# Convention : Reuss Voigt Hill
#
# Bulk Modulus (GPa) = 18.77126 24.19738 21.48432
# Shear Modulus (GPa) = 28.49270 17.10821 22.80045
#
# Velocity S-wave (km/s) = 3.75103 2.90660 3.35549
# Velocity P-wave (km/s) = 5.29433 4.81805 5.06179
#
# Compressibility (1/GPa) = 0.05327292
#
# Stress axis : x y z
#
# Youngs Moduli (GPa) = 18.26638 70.75963 51.53414
#
# Poissons Ratio (x) = -0.08847 0.98940
# Poissons Ratio (y) = -0.02284 -0.02288
# Poissons Ratio (z) = 0.35070 -0.03142
#
# Static dielectric constant tensor:
#      x y z
#    x 1.703060 0.000000 0.000000 
#    y 0.000000 1.789910 0.000000 
#    z 0.000000 0.000000 1.734260 
# 
# From -- ./inp_files/22827.got.cif
#   From: 2010.05.17/outbox.cif.g08.bks.cpg/sg24_12_cif.got.tgz:22827.got - 2010.06.04 00:33:39.
