data_PCOD9334364
_publ_section_title
;
Structure prediction by ZEFSAII (Michael W. Deem and Ramdas Pophale) SiO2 
 PCOD9334364
Probable space group: I 21 21 21
;
_chemical_formula_sum "Si O2"
_cell_formula_units_Z 60
_cell_length_a 24.313366
_cell_length_b 14.708202
_cell_length_c 7.227325
_cell_angle_alpha 90.000000
_cell_angle_beta 90.000000
_cell_angle_gamma 90.000000
_cell_volume 2584.534050
_symmetry_space_group_name_H-M "I 21 21 21"
_symmetry_group_IT_number 24
_symmetry_cell_setting 'orthorhombic'
loop_
_space_group_symop_operation_xyz
x,y,z
-x,1/2-y,z
x,-y,1/2-z
1/2-x,y,-z
1/2+x,1/2+y,1/2+z
1/2-x,-y,1/2+z
1/2+x,1/2-y,-z
-x,1/2+y,1/2-z
loop_
_atom_site_type_symbol
_atom_site_label
_atom_site_fract_x
_atom_site_fract_y
_atom_site_fract_z
Si Si1 0.067896 0.063847 0.576120
Si Si2 0.250000 0.364882 0.000000
Si Si3 0.952431 0.949614 0.945744
Si Si4 0.691247 0.777803 0.928012
Si Si5 0.813847 0.511735 0.465324
Si Si6 0.332232 0.225708 0.001934
Si Si7 0.332913 0.514528 0.022880
Si Si8 0.409378 0.744432 0.187347
O O1 0.057373 0.165768 0.644350
O O2 0.012251 0.043608 0.458040
O O3 0.062997 0.000000 0.750000
O O4 0.131393 0.043694 0.524157
O O5 0.288043 0.291543 0.105356
O O6 0.204056 0.435925 0.066592
O O7 0.896793 0.990524 0.033379
O O8 0.935744 0.846953 0.889166
O O9 0.955607 0.000000 0.750000
O O10 0.675617 0.750430 0.715998
O O11 0.750000 0.743708 0.000000
O O12 0.688787 0.886674 0.964911
O O13 0.644684 0.741143 0.062855
O O14 0.818048 0.500000 0.250000
O O15 0.750000 0.484641 0.500000
O O16 0.821258 0.618044 0.525947
O O17 0.389389 0.253526 0.099174
O O18 0.328730 0.500000 0.250000
#
# Coordination Sequence:
#
# PCOD9334364 Si02
#       8
#     8   4   8   8   8   8   8   8
#     4  11  22  43  73  94 133 185 240 303 376 439
#     4  12  22  34  64  92 144 182 220 298 364 424
#     4   9  20  40  69  99 132 184 238 291 362 451
#     4  11  23  38  62  99 145 190 231 285 369 435
#     4  12  27  45  69 104 142 187 249 315 381 448
#     4  12  24  40  64 102 140 184 241 300 363 445
#     4  10  20  38  61  99 140 181 234 288 350 445
#     4  11  23  42  69  99 137 180 241 304 363 437
#
# _framework density 23.215017
#
# number of rings (size 3 to 8) (size 9 to 14) (size 15 to 20)
#    0.000    1.067    2.667    5.600    0.000    1.067 
#    0.000    0.000   17.600    3.200    0.000    0.000 
#    0.000    0.000    0.000    0.000    0.000    0.000 
#
# Total GULP energy -167110.890553 kJ/mol
# GULP energy per Si atom -5570.363018 kJ/mol
# Density = 2.316218 g / cm^3
# Si number density = 23.215017 Si / 1000 Ang^3
#
#
#
# Elastic Constant Matrix: (Units=GPa)
#
#
# Indices 1 2 3 4 5 6 
#
# 1 197.0386 44.3552 29.6382 0.0000 0.0000 0.0000
# 2 44.3552 132.5515 7.2370 0.0000 0.0000 0.0000
# 3 29.6382 7.2370 106.9457 0.0000 0.0000 0.0000
# 4 0.0000 0.0000 0.0000 22.3859 0.0000 0.0000
# 5 0.0000 0.0000 0.0000 0.0000 -15.2180 0.0000
# 6 0.0000 0.0000 0.0000 0.0000 0.0000 27.7485
#
#
#
# Elastic Compliance Matrix: (Units=1/GPa)
#
#
# Indices 1 2 3 4 5 6 
#
# 1 0.005706 -0.001830 -0.001458 0.000000 0.000000 0.000000
# 2 -0.001830 0.008159 -0.000045 0.000000 0.000000 0.000000
# 3 -0.001458 -0.000045 0.009758 0.000000 0.000000 0.000000
# 4 0.000000 0.000000 0.000000 0.044671 0.000000 0.000000
# 5 0.000000 0.000000 0.000000 0.000000 -0.065712 0.000000
# 6 0.000000 0.000000 0.000000 0.000000 0.000000 0.036038
#
#
# Mechanical properties :
#
#
# Convention : Reuss Voigt Hill
#
# Bulk Modulus (GPa) = 58.96949 66.55517 62.76233
# Shear Modulus (GPa) = 98.15881 30.67030 64.41456
#
# Velocity S-wave (km/s) = 6.50955 3.63869 5.27325
# Velocity P-wave (km/s) = 9.05293 6.81063 8.01063
#
# Compressibility (1/GPa) = 0.01695792
#
# Stress axis : x y z
#
# Youngs Moduli (GPa) = 175.24420 122.56364 102.48501
#
# Poissons Ratio (x) = 0.22428 0.14938
# Poissons Ratio (y) = 0.32068 0.00461
# Poissons Ratio (z) = 0.25543 0.00551
#
# Static dielectric constant tensor:
#      x y z
#    x 1.661910 0.000000 0.000000 
#    y 0.000000 1.904220 0.000000 
#    z 0.000000 0.000000 1.922970 
# 
# From -- ./inp_files/16001.got.cif
#   From: 2010.05.17/outbox.cif.g08.bks.cpg/sg24_9_cif.got.tgz:16001.got - 2010.06.04 00:33:39.
