data_PCOD9334489
_publ_section_title
;
Structure prediction by ZEFSAII (Michael W. Deem and Ramdas Pophale) SiO2 
 PCOD9334489
Probable space group: I 21 21 21
;
_chemical_formula_sum "Si O2"
_cell_formula_units_Z 56
_cell_length_a 13.879607
_cell_length_b 30.573118
_cell_length_c 6.258949
_cell_angle_alpha 90.000000
_cell_angle_beta 90.000000
_cell_angle_gamma 90.000000
_cell_volume 2655.940336
_symmetry_space_group_name_H-M "I 21 21 21"
_symmetry_group_IT_number 24
_symmetry_cell_setting 'orthorhombic'
loop_
_space_group_symop_operation_xyz
x,y,z
-x,1/2-y,z
x,-y,1/2-z
1/2-x,y,-z
1/2+x,1/2+y,1/2+z
1/2-x,-y,1/2+z
1/2+x,1/2-y,-z
-x,1/2+y,1/2-z
loop_
_atom_site_type_symbol
_atom_site_label
_atom_site_fract_x
_atom_site_fract_y
_atom_site_fract_z
Si Si1 0.000000 0.250000 0.497312
Si Si2 0.654549 0.045077 0.873004
Si Si3 0.816347 0.704889 0.200233
Si Si4 0.465205 0.952756 0.325863
Si Si5 0.943484 0.895935 0.043565
Si Si6 0.421585 0.674849 0.289078
Si Si7 0.083266 0.869402 0.424271
Si Si8 0.750000 0.781056 0.500000
O O1 0.922647 0.277794 0.364523
O O2 0.944535 0.217231 0.651573
O O3 0.631998 0.080771 0.695337
O O4 0.670417 0.000000 0.750000
O O5 0.750000 0.056622 0.000000
O O6 0.561016 0.040690 0.026850
O O7 0.832128 0.663081 0.352562
O O8 0.768201 0.747313 0.307647
O O9 0.750000 0.692267 0.000000
O O10 0.402324 0.916934 0.460748
O O11 0.425183 0.000000 0.250000
O O12 0.501496 0.929755 0.109841
O O13 0.022103 0.876589 0.207075
O O14 0.894959 0.861699 0.883947
O O15 0.515416 0.657011 0.410763
O O16 0.340565 0.688155 0.455993
#
# Coordination Sequence:
#
# PCOD9334489 Si02
#       8
#     4   8   8   8   8   8   8   4
#     4  12  22  46  68  88 138 180 222 282 334 398
#     4  11  22  36  56  87 125 176 223 277 327 398
#     4  12  25  43  69  99 133 178 232 280 343 400
#     4  10  20  39  63  90 124 168 221 272 341 415
#     4  10  22  42  59  86 129 171 220 274 340 390
#     4  11  23  43  63  91 133 182 224 283 335 390
#     4  10  23  41  64  94 135 172 219 285 337 404
#     4  12  26  42  64 100 128 178 244 274 326 414
#
# _framework density 21.084810000000001
#
# number of rings (size 3 to 8) (size 9 to 14) (size 15 to 20)
#    0.000    1.143    4.286    2.143    0.000    0.000 
#   14.143    0.000    0.000    0.000    0.000    0.000 
#   21.429    0.000    0.000    0.000    0.000    0.000 
#
# Total GULP energy -156486.910069 kJ/mol
# GULP energy per Si atom -5588.818217 kJ/mol
# Density = 2.103682 g / cm^3
# Si number density = 21.084810 Si / 1000 Ang^3
#
#
#
# Elastic Constant Matrix: (Units=GPa)
#
#
# Indices 1 2 3 4 5 6 
#
# 1 59.4141 34.0088 30.8416 -0.0321 -0.0052 0.0009
# 2 34.0088 138.5052 50.3356 -0.0391 -0.0110 0.0060
# 3 30.8416 50.3356 108.0084 0.1796 -0.0104 0.0055
# 4 -0.0321 -0.0391 0.1796 12.8433 0.0521 0.0120
# 5 -0.0052 -0.0110 -0.0104 0.0521 24.9048 0.0047
# 6 0.0009 0.0060 0.0055 0.0120 0.0047 8.3916
#
#
#
# Elastic Compliance Matrix: (Units=1/GPa)
#
#
# Indices 1 2 3 4 5 6 
#
# 1 0.021161 -0.003612 -0.004360 0.000103 0.000001 0.000003
# 2 -0.003612 0.009309 -0.003307 0.000066 0.000002 -0.000004
# 3 -0.004360 -0.003307 0.012045 -0.000189 0.000003 -0.000005
# 4 0.000103 0.000066 -0.000189 0.077865 -0.000163 -0.000111
# 5 0.000001 0.000002 0.000003 -0.000163 0.040153 -0.000022
# 6 0.000003 -0.000004 -0.000005 -0.000111 -0.000022 0.119167
#
#
# Mechanical properties :
#
#
# Convention : Reuss Voigt Hill
#
# Bulk Modulus (GPa) = 50.10388 59.58884 54.84636
# Shear Modulus (GPa) = 16.18598 21.94407 19.06503
#
# Velocity S-wave (km/s) = 2.77367 3.22957 3.01027
# Velocity P-wave (km/s) = 5.83715 6.49844 6.17665
#
# Compressibility (1/GPa) = 0.01995853
#
# Stress axis : x y z
#
# Youngs Moduli (GPa) = 47.25575 107.42790 83.02272
#
# Poissons Ratio (x) = 0.38799 0.36195
# Poissons Ratio (y) = 0.17067 0.27455
# Poissons Ratio (z) = 0.20602 0.35526
#
# Static dielectric constant tensor:
#      x y z
#    x 1.877560 -0.000010 0.000350 
#    y -0.000010 1.778490 -0.000020 
#    z 0.000350 -0.000020 1.754250 
# 
# From -- ./inp_files/4010.got.cif
#   From: 2010.05.17/outbox.cif.g08.bks.cpg/sg24_3_cif.got.tgz:4010.got - 2010.06.04 00:33:39.
