data_PCOD9334068
_publ_section_title
;
Structure prediction by ZEFSAII (Michael W. Deem and Ramdas Pophale) SiO2 
 PCOD9334068
Probable space group: I 21 21 21
;
_chemical_formula_sum "Si O2"
_cell_formula_units_Z 56
_cell_length_a 23.257459
_cell_length_b 14.706491
_cell_length_c 8.086933
_cell_angle_alpha 90.000000
_cell_angle_beta 90.000000
_cell_angle_gamma 90.000000
_cell_volume 2766.019074
_symmetry_space_group_name_H-M "I 21 21 21"
_symmetry_group_IT_number 24
_symmetry_cell_setting 'orthorhombic'
loop_
_space_group_symop_operation_xyz
x,y,z
-x,1/2-y,z
x,-y,1/2-z
1/2-x,y,-z
1/2+x,1/2+y,1/2+z
1/2-x,-y,1/2+z
1/2+x,1/2-y,-z
-x,1/2+y,1/2-z
loop_
_atom_site_type_symbol
_atom_site_label
_atom_site_fract_x
_atom_site_fract_y
_atom_site_fract_z
Si Si1 0.768266 0.602475 0.808214
Si Si2 0.943324 0.283914 0.082795
Si Si3 0.596063 0.121806 0.153600
Si Si4 0.311699 0.565381 0.590075
Si Si5 0.829888 0.264675 0.249572
Si Si6 0.871332 0.722551 0.877671
Si Si7 0.967590 0.397173 0.761726
O O1 0.767431 0.500000 0.750000
O O2 0.722620 0.667739 0.720285
O O3 0.830107 0.648615 0.792680
O O4 0.750000 0.602858 0.000000
O O5 0.888062 0.310146 0.183305
O O6 0.000000 0.250000 0.179095
O O7 0.925656 0.194201 0.981771
O O8 0.956563 0.358905 0.945556
O O9 0.632078 0.183509 0.278666
O O10 0.537235 0.097459 0.251181
O O11 0.637316 0.054588 0.049110
O O12 0.317763 0.500000 0.750000
O O13 0.250000 0.553247 0.500000
O O14 0.317068 0.668206 0.663198
O O15 0.845158 0.256305 0.443310
O O16 0.934436 0.674631 0.858337
O O17 0.945348 0.500000 0.750000
#
# Coordination Sequence:
#
# PCOD9334068 Si02
#       7
#     8   8   8   8   8   8   8
#     4  10  22  36  55  85 118 153 196 246 301 366
#     4   8  17  35  55  77 111 154 197 244 302 371
#     4   9  20  39  59  83 118 159 203 251 313 382
#     4  11  25  43  65  92 122 163 212 268 331 394
#     4  10  22  39  61  88 121 159 203 259 323 380
#     4  10  20  37  61  87 119 159 206 254 312 385
#     4  10  20  35  57  86 120 161 207 254 309 378
#
# _framework density 20.245702000000001
#
# number of rings (size 3 to 8) (size 9 to 14) (size 15 to 20)
#    0.000    2.286    0.000    2.571    0.000   12.000 
#    0.000    2.857    0.000    0.857    0.000    0.000 
#    0.000    0.000    0.000    0.000    0.000    0.000 
#
# Total GULP energy -155973.979696 kJ/mol
# GULP energy per Si atom -5570.499275 kJ/mol
# Density = 2.019962 g / cm^3
# Si number density = 20.245702 Si / 1000 Ang^3
#
#
#
# Elastic Constant Matrix: (Units=GPa)
#
#
# Indices 1 2 3 4 5 6 
#
# 1 116.3306 24.6407 30.0945 0.0000 0.0000 0.0000
# 2 24.6407 61.3564 -3.5303 0.0000 0.0000 0.0000
# 3 30.0945 -3.5303 24.2524 0.0000 0.0000 0.0000
# 4 0.0000 0.0000 0.0000 25.7470 0.0000 0.0000
# 5 0.0000 0.0000 0.0000 0.0000 28.7827 0.0000
# 6 0.0000 0.0000 0.0000 0.0000 0.0000 -46.0400
#
#
#
# Elastic Compliance Matrix: (Units=1/GPa)
#
#
# Indices 1 2 3 4 5 6 
#
# 1 0.015351 -0.007322 -0.020114 0.000000 0.000000 0.000000
# 2 -0.007322 0.019928 0.011987 0.000000 0.000000 0.000000
# 3 -0.020114 0.011987 0.067938 0.000000 0.000000 0.000000
# 4 0.000000 0.000000 0.000000 0.038839 0.000000 0.000000
# 5 0.000000 0.000000 0.000000 0.000000 0.034743 0.000000
# 6 0.000000 0.000000 0.000000 0.000000 0.000000 -0.021720
#
#
# Mechanical properties :
#
#
# Convention : Reuss Voigt Hill
#
# Bulk Modulus (GPa) = 13.82789 33.81657 23.82223
# Shear Modulus (GPa) = 23.79997 11.74691 17.77344
#
# Velocity S-wave (km/s) = 3.43236 2.41138 2.96613
# Velocity P-wave (km/s) = 4.74900 4.94898 4.85002
#
# Compressibility (1/GPa) = 0.07231761
#
# Stress axis : x y z
#
# Youngs Moduli (GPa) = 65.14363 50.17941 14.71937
#
# Poissons Ratio (x) = 0.36742 0.29607
# Poissons Ratio (y) = 0.47699 -0.17644
# Poissons Ratio (z) = 1.31032 -0.60150
#
# Static dielectric constant tensor:
#      x y z
#    x 1.784570 0.000000 0.000000 
#    y 0.000000 1.704690 0.000000 
#    z 0.000000 0.000000 2.040550 
# 
# From -- ./inp_files/15270.got.cif
#   From: 2010.05.17/outbox.cif.g08.bks.cpg/sg24_8_cif.got.tgz:15270.got - 2010.06.04 00:33:39.
