data_PCOD9334404
_publ_section_title
;
Structure prediction by ZEFSAII (Michael W. Deem and Ramdas Pophale) SiO2 
 PCOD9334404
Probable space group: I 21 21 21
;
_chemical_formula_sum "Si O2"
_cell_formula_units_Z 48
_cell_length_a 5.358180
_cell_length_b 16.937965
_cell_length_c 24.021028
_cell_angle_alpha 90.000000
_cell_angle_beta 90.000000
_cell_angle_gamma 90.000000
_cell_volume 2180.068398
_symmetry_space_group_name_H-M "I 21 21 21"
_symmetry_group_IT_number 24
_symmetry_cell_setting 'orthorhombic'
loop_
_space_group_symop_operation_xyz
x,y,z
-x,1/2-y,z
x,-y,1/2-z
1/2-x,y,-z
1/2+x,1/2+y,1/2+z
1/2-x,-y,1/2+z
1/2+x,1/2-y,-z
-x,1/2+y,1/2-z
loop_
_atom_site_type_symbol
_atom_site_label
_atom_site_fract_x
_atom_site_fract_y
_atom_site_fract_z
Si Si1 0.197014 0.435718 0.346489
Si Si2 0.007329 0.383284 0.980611
Si Si3 0.197335 0.017275 0.812464
Si Si4 0.253456 0.697538 0.754366
Si Si5 0.971300 0.157481 0.855379
Si Si6 0.993284 0.063469 0.471903
O O1 0.472876 0.476018 0.348366
O O2 0.233865 0.359906 0.307289
O O3 0.068407 0.424549 0.407091
O O4 0.975389 0.485548 0.318316
O O5 0.045672 0.385415 0.914672
O O6 0.750000 0.346597 0.000000
O O7 0.250000 0.338081 0.000000
O O8 0.006336 0.469172 0.012011
O O9 0.196073 0.109635 0.826894
O O10 0.112925 0.000000 0.750000
O O11 0.500000 0.750000 0.754561
O O12 0.230312 0.653780 0.694395
O O13 0.000000 0.750000 0.757852
O O14 0.000000 0.250000 0.867252
O O15 0.750000 0.099778 0.500000
O O16 0.250000 0.092999 0.500000
#
# Coordination Sequence:
#
# PCOD9334404 Si02
#       6
#     8   8   8   8   8   8
#     4  12  24  44  73 101 143 185 242 312 365 436
#     4  10  21  40  62  90 131 180 235 284 336 411
#     4  12  24  41  66 102 137 186 241 300 357 438
#     4  11  26  46  70 105 148 192 238 295 383 455
#     4  11  26  44  66  99 147 189 233 294 358 436
#     4  10  20  38  64  98 130 175 231 298 356 418
#
# _framework density 22.017657
#
# number of rings (size 3 to 8) (size 9 to 14) (size 15 to 20)
#    0.000    1.000    1.667    6.500    2.333    3.333 
#    0.000    0.000    0.000    2.000    0.000    0.000 
#    0.000    0.000    0.000    0.000    0.000    0.000 
#
# Total GULP energy -133772.687061 kJ/mol
# GULP energy per Si atom -5573.861961 kJ/mol
# Density = 2.196754 g / cm^3
# Si number density = 22.017657 Si / 1000 Ang^3
#
#
#
# Elastic Constant Matrix: (Units=GPa)
#
#
# Indices 1 2 3 4 5 6 
#
# 1 186.6947 42.1591 25.7017 0.0000 0.0000 0.0000
# 2 42.1591 64.6813 46.6745 0.0000 0.0000 0.0000
# 3 25.7017 46.6745 175.1651 0.0000 0.0000 0.0000
# 4 0.0000 0.0000 0.0000 31.6767 0.0000 0.0000
# 5 0.0000 0.0000 0.0000 0.0000 20.8730 0.0000
# 6 0.0000 0.0000 0.0000 0.0000 0.0000 45.4583
#
#
#
# Elastic Compliance Matrix: (Units=1/GPa)
#
#
# Indices 1 2 3 4 5 6 
#
# 1 0.006287 -0.004249 0.000210 0.000000 0.000000 0.000000
# 2 -0.004249 0.022013 -0.005242 0.000000 0.000000 0.000000
# 3 0.000210 -0.005242 0.007075 0.000000 0.000000 0.000000
# 4 0.000000 0.000000 0.000000 0.031569 0.000000 0.000000
# 5 0.000000 0.000000 0.000000 0.000000 0.047909 0.000000
# 6 0.000000 0.000000 0.000000 0.000000 0.000000 0.021998
#
#
# Mechanical properties :
#
#
# Convention : Reuss Voigt Hill
#
# Bulk Modulus (GPa) = 59.48249 72.84577 66.16413
# Shear Modulus (GPa) = 31.05253 40.40199 35.72726
#
# Velocity S-wave (km/s) = 3.75953 4.28832 4.03260
# Velocity P-wave (km/s) = 6.77642 7.59451 7.19710
#
# Compressibility (1/GPa) = 0.01681167
#
# Stress axis : x y z
#
# Youngs Moduli (GPa) = 159.05794 45.42823 141.34446
#
# Poissons Ratio (x) = 0.19304 -0.02965
# Poissons Ratio (y) = 0.67587 0.74093
# Poissons Ratio (z) = -0.03336 0.23814
#
# Static dielectric constant tensor:
#      x y z
#    x 1.826320 0.000000 0.000000 
#    y 0.000000 1.884210 0.000000 
#    z 0.000000 0.000000 1.493070 
# 
# From -- ./inp_files/34702.got.cif
#   From: 2010.05.17/outbox.cif.g08.bks.cpg/sg24_18_cif.got.tgz:34702.got - 2010.06.04 00:33:39.
