data_PCOD9334605
_publ_section_title
;
Structure prediction by ZEFSAII (Michael W. Deem and Ramdas Pophale) SiO2 
 PCOD9334605
Probable space group: I 21 21 21
;
_chemical_formula_sum "Si O2"
_cell_formula_units_Z 48
_cell_length_a 8.280151
_cell_length_b 29.971512
_cell_length_c 9.043613
_cell_angle_alpha 90.000000
_cell_angle_beta 90.000000
_cell_angle_gamma 90.000000
_cell_volume 2244.341185
_symmetry_space_group_name_H-M "I 21 21 21"
_symmetry_group_IT_number 24
_symmetry_cell_setting 'orthorhombic'
loop_
_space_group_symop_operation_xyz
x,y,z
-x,1/2-y,z
x,-y,1/2-z
1/2-x,y,-z
1/2+x,1/2+y,1/2+z
1/2-x,-y,1/2+z
1/2+x,1/2-y,-z
-x,1/2+y,1/2-z
loop_
_atom_site_type_symbol
_atom_site_label
_atom_site_fract_x
_atom_site_fract_y
_atom_site_fract_z
Si Si1 0.035721 0.952118 0.710439
Si Si2 0.097525 0.288496 0.597228
Si Si3 0.466841 0.370129 0.802370
Si Si4 0.250000 0.563656 0.500000
Si Si5 0.250000 0.890144 0.500000
Si Si6 0.826747 0.226218 0.160061
Si Si7 0.058407 0.385149 0.531673
O O1 0.152752 0.921731 0.612198
O O2 0.876389 0.960763 0.608123
O O3 0.994412 0.924068 0.857660
O O4 0.107839 0.000000 0.750000
O O5 0.250000 0.300170 0.500000
O O6 0.177537 0.261983 0.733194
O O7 0.018585 0.337271 0.611504
O O8 0.000000 0.250000 0.514447
O O9 0.358175 0.406362 0.888561
O O10 0.362579 0.325333 0.800451
O O11 0.512445 0.383810 0.635109
O O12 0.623515 0.362321 0.903578
O O13 0.000000 0.250000 0.171390
O O14 0.750000 0.230338 0.000000
O O15 0.250000 0.391001 0.500000
#
# Coordination Sequence:
#
# PCOD9334605 Si02
#       7
#     8   8   8   4   4   8   8
#     4  11  25  44  70 102 138 173 225 279 345 407
#     4  11  23  42  65  96 136 174 227 281 342 400
#     4  11  22  43  67  92 136 173 232 270 339 407
#     4  10  20  40  69  94 126 174 217 272 320 404
#     4  10  28  44  65  98 132 184 207 282 344 414
#     4  12  25  40  61  95 133 181 227 288 339 404
#     4  11  22  42  69 100 129 179 224 286 331 398
#
# _framework density 21.387122999999999
#
# number of rings (size 3 to 8) (size 9 to 14) (size 15 to 20)
#    0.000    1.000    5.833    1.000    4.667    3.333 
#    0.000    3.333    0.000    0.000    0.000    0.000 
#    0.000    0.000    0.000    0.000    0.000    0.000 
#
# Total GULP energy -133895.594376 kJ/mol
# GULP energy per Si atom -5578.983099 kJ/mol
# Density = 2.133844 g / cm^3
# Si number density = 21.387123 Si / 1000 Ang^3
#
#
#
# Elastic Constant Matrix: (Units=GPa)
#
#
# Indices 1 2 3 4 5 6 
#
# 1 52.1628 -8.8312 15.9174 0.0000 0.0000 0.0000
# 2 -8.8312 67.6949 7.3687 0.0000 0.0000 0.0000
# 3 15.9174 7.3687 132.3800 0.0001 0.0002 -0.0001
# 4 0.0000 0.0000 0.0001 22.6069 0.0000 0.0000
# 5 0.0000 0.0000 0.0002 0.0000 29.7269 0.0000
# 6 0.0000 0.0000 -0.0001 0.0000 0.0000 10.4250
#
#
#
# Elastic Compliance Matrix: (Units=1/GPa)
#
#
# Indices 1 2 3 4 5 6 
#
# 1 0.020473 0.002957 -0.002626 0.000000 0.000000 0.000000
# 2 0.002957 0.015289 -0.001207 0.000000 0.000000 0.000000
# 3 -0.002626 -0.001207 0.007937 0.000000 0.000000 0.000000
# 4 0.000000 0.000000 0.000000 0.044234 0.000000 0.000000
# 5 0.000000 0.000000 0.000000 0.000000 0.033640 0.000000
# 6 0.000000 0.000000 0.000000 0.000000 0.000000 0.095924
#
#
# Mechanical properties :
#
#
# Convention : Reuss Voigt Hill
#
# Bulk Modulus (GPa) = 23.83984 31.23861 27.53923
# Shear Modulus (GPa) = 21.43799 28.40392 24.92096
#
# Velocity S-wave (km/s) = 3.16947 3.64824 3.41725
# Velocity P-wave (km/s) = 4.95632 5.69071 5.33616
#
# Compressibility (1/GPa) = 0.04194659
#
# Stress axis : x y z
#
# Youngs Moduli (GPa) = 48.84555 65.40566 125.99297
#
# Poissons Ratio (x) = -0.19338 0.33088
# Poissons Ratio (y) = -0.14442 0.15202
# Poissons Ratio (z) = 0.12828 0.07892
#
# Static dielectric constant tensor:
#      x y z
#    x 1.857660 0.000000 0.000000 
#    y 0.000000 1.749440 0.000000 
#    z 0.000000 0.000000 1.858460 
# 
# From -- ./inp_files/9794.got.cif
#   From: 2010.05.17/outbox.cif.g08.bks.cpg/sg24_5_cif.got.tgz:9794.got - 2010.06.04 00:33:39.
