data_PCOD9334573
_publ_section_title
;
Structure prediction by ZEFSAII (Michael W. Deem and Ramdas Pophale) SiO2 
 PCOD9334573
Probable space group: I 21 21 21
;
_chemical_formula_sum "Si O2"
_cell_formula_units_Z 56
_cell_length_a 11.816444
_cell_length_b 15.471804
_cell_length_c 13.269498
_cell_angle_alpha 90.000000
_cell_angle_beta 90.000000
_cell_angle_gamma 90.000000
_cell_volume 2425.952256
_symmetry_space_group_name_H-M "I 21 21 21"
_symmetry_group_IT_number 24
_symmetry_cell_setting 'orthorhombic'
loop_
_space_group_symop_operation_xyz
x,y,z
-x,1/2-y,z
x,-y,1/2-z
1/2-x,y,-z
1/2+x,1/2+y,1/2+z
1/2-x,-y,1/2+z
1/2+x,1/2-y,-z
-x,1/2+y,1/2-z
loop_
_atom_site_type_symbol
_atom_site_label
_atom_site_fract_x
_atom_site_fract_y
_atom_site_fract_z
Si Si1 0.986544 0.350430 0.000463
Si Si2 0.653849 0.971615 0.863989
Si Si3 0.702111 0.610464 0.142763
Si Si4 0.294960 0.304863 0.316467
Si Si5 0.595761 0.520231 0.947909
Si Si6 0.506264 0.095421 0.226054
Si Si7 0.792931 0.846680 0.395314
O O1 0.000000 0.250000 0.975962
O O2 0.021081 0.389026 0.892130
O O3 0.889243 0.416525 0.036262
O O4 0.073007 0.352967 0.094102
O O5 0.722304 0.882252 0.865052
O O6 0.537061 0.964992 0.925497
O O7 0.622518 0.000000 0.750000
O O8 0.736095 0.051426 0.892950
O O9 0.715090 0.713478 0.129498
O O10 0.822256 0.561757 0.136147
O O11 0.625099 0.600522 0.242032
O O12 0.631350 0.567992 0.051099
O O13 0.421761 0.338336 0.294012
O O14 0.245975 0.297220 0.202392
O O15 0.548569 0.000000 0.250000
O O16 0.750000 0.807422 0.500000
#
# Coordination Sequence:
#
# PCOD9334573 Si02
#       7
#     8   8   8   8   8   8   8
#     4  11  23  45  71 101 134 184 244 301 362 442
#     4   9  21  42  71  99 132 186 237 307 369 420
#     4  11  25  47  66 101 150 194 233 290 365 445
#     4  11  23  43  70 104 140 186 244 293 367 447
#     4  10  24  50  66 100 144 187 244 292 371 437
#     4  12  23  43  71 105 145 184 239 301 370 422
#     4  10  20  40  66 103 136 168 236 317 365 411
#
# _framework density 23.083718999999999
#
# number of rings (size 3 to 8) (size 9 to 14) (size 15 to 20)
#    0.000    1.429    2.857    2.571    0.000    1.143 
#   25.714    0.000    0.000    0.000    0.000    0.000 
#    0.000    0.000    0.000    0.000    0.000    0.000 
#
# Total GULP energy -156218.762120 kJ/mol
# GULP energy per Si atom -5579.241504 kJ/mol
# Density = 2.303118 g / cm^3
# Si number density = 23.083719 Si / 1000 Ang^3
#
#
#
# Elastic Constant Matrix: (Units=GPa)
#
#
# Indices 1 2 3 4 5 6 
#
# 1 94.7628 37.2402 12.5272 0.0000 0.0000 0.0000
# 2 37.2402 164.6416 31.2069 -0.0001 0.0000 0.0000
# 3 12.5272 31.2069 54.0539 0.0000 0.0000 0.0000
# 4 0.0000 -0.0001 0.0000 24.0585 0.0000 0.0000
# 5 0.0000 0.0000 0.0000 0.0000 45.4624 0.0000
# 6 0.0000 0.0000 0.0000 0.0000 0.0000 28.9833
#
#
#
# Elastic Compliance Matrix: (Units=1/GPa)
#
#
# Indices 1 2 3 4 5 6 
#
# 1 0.011666 -0.002388 -0.001325 0.000000 0.000000 0.000000
# 2 -0.002388 0.007309 -0.003666 0.000000 0.000000 0.000000
# 3 -0.001325 -0.003666 0.020924 0.000000 0.000000 0.000000
# 4 0.000000 0.000000 0.000000 0.041565 0.000000 0.000000
# 5 0.000000 0.000000 0.000000 0.000000 0.021996 0.000000
# 6 0.000000 0.000000 0.000000 0.000000 0.000000 0.034503
#
#
# Mechanical properties :
#
#
# Convention : Reuss Voigt Hill
#
# Bulk Modulus (GPa) = 39.77631 52.82299 46.29965
# Shear Modulus (GPa) = 31.03638 35.19976 33.11807
#
# Velocity S-wave (km/s) = 3.67074 3.90920 3.79184
# Velocity P-wave (km/s) = 5.93587 6.58093 6.26671
#
# Compressibility (1/GPa) = 0.02514059
#
# Stress axis : x y z
#
# Youngs Moduli (GPa) = 85.71822 136.82219 47.79246
#
# Poissons Ratio (x) = 0.32667 0.06334
# Poissons Ratio (y) = 0.20466 0.17522
# Poissons Ratio (z) = 0.11360 0.50162
#
# Static dielectric constant tensor:
#      x y z
#    x 1.935590 0.000000 0.000000 
#    y 0.000000 1.957540 0.000000 
#    z 0.000000 0.000000 1.917560 
# 
# From -- ./inp_files/25814.got.cif
#   From: 2010.05.17/outbox.cif.g08.bks.cpg/sg24_13_cif.got.tgz:25814.got - 2010.06.04 00:33:39.
