data_PCOD9334957
_publ_section_title
;
Structure prediction by ZEFSAII (Michael W. Deem and Ramdas Pophale) SiO2 
 PCOD9334957
Probable space group: I 21 21 21
;
_chemical_formula_sum "Si O2"
_cell_formula_units_Z 60
_cell_length_a 17.906801
_cell_length_b 5.538028
_cell_length_c 27.609319
_cell_angle_alpha 90.000000
_cell_angle_beta 90.000000
_cell_angle_gamma 90.000000
_cell_volume 2737.971033
_symmetry_space_group_name_H-M "I 21 21 21"
_symmetry_group_IT_number 24
_symmetry_cell_setting 'orthorhombic'
loop_
_space_group_symop_operation_xyz
x,y,z
-x,1/2-y,z
x,-y,1/2-z
1/2-x,y,-z
1/2+x,1/2+y,1/2+z
1/2-x,-y,1/2+z
1/2+x,1/2-y,-z
-x,1/2+y,1/2-z
loop_
_atom_site_type_symbol
_atom_site_label
_atom_site_fract_x
_atom_site_fract_y
_atom_site_fract_z
Si Si1 0.545185 0.501531 0.808053
Si Si2 0.670977 0.140070 0.128014
Si Si3 0.737399 0.761037 0.053281
Si Si4 0.180874 0.092505 0.122424
Si Si5 0.897523 0.607245 0.542676
Si Si6 0.000000 0.750000 0.003985
Si Si7 0.541871 0.001176 0.308078
Si Si8 0.580812 0.121371 0.945958
O O1 0.500000 0.250000 0.818841
O O2 0.558120 0.500000 0.750000
O O3 0.622666 0.500724 0.837662
O O4 0.500000 0.750000 0.819797
O O5 0.738632 0.319082 0.142540
O O6 0.609143 0.266963 0.093969
O O7 0.709624 0.953968 0.091661
O O8 0.624916 0.012764 0.170015
O O9 0.799946 0.601182 0.080439
O O10 0.669982 0.578609 0.043232
O O11 0.750000 0.869355 0.000000
O O12 0.137307 0.312775 0.096055
O O13 0.972392 0.461939 0.530548
O O14 0.887860 0.775266 0.496262
O O15 0.062674 0.652466 0.040333
O O16 0.500000 0.250000 0.323438
O O17 0.500000 0.750000 0.320921
O O18 0.545823 0.000000 0.250000
O O19 0.500000 0.250000 0.936515
#
# Coordination Sequence:
#
# PCOD9334957 Si02
#       8
#     8   8   8   8   8   4   8   8
#     4  10  24  51  81 110 146 190 246 313 381 445
#     4  11  27  41  70 106 139 188 244 304 364 449
#     4  11  24  42  65  90 142 197 232 288 358 427
#     4  11  25  44  67 106 141 195 242 303 363 443
#     4  10  22  41  57  93 133 182 238 290 347 422
#     4  10  22  38  64  92 134 196 236 314 344 416
#     4  10  25  53  82 107 143 185 237 313 389 458
#     4  10  21  39  59  93 137 184 246 291 349 423
#
# _framework density 21.914038000000001
#
# number of rings (size 3 to 8) (size 9 to 14) (size 15 to 20)
#    0.000    1.600    1.333    1.200    9.333    2.667 
#    9.600    0.000    0.000    0.000    0.000    0.000 
#    0.000    0.000    0.000    0.000    0.000    0.000 
#
# Total GULP energy -167623.382520 kJ/mol
# GULP energy per Si atom -5587.446084 kJ/mol
# Density = 2.186416 g / cm^3
# Si number density = 21.914038 Si / 1000 Ang^3
#
#
#
# Elastic Constant Matrix: (Units=GPa)
#
#
# Indices 1 2 3 4 5 6 
#
# 1 125.0176 50.8628 62.1122 0.0000 0.0000 0.0000
# 2 50.8628 108.8942 34.7717 0.0000 0.0000 0.0000
# 3 62.1122 34.7717 75.4641 0.0000 0.0000 0.0000
# 4 0.0000 0.0000 0.0000 -7.6416 0.0000 0.0000
# 5 0.0000 0.0000 0.0000 0.0000 32.1296 0.0000
# 6 0.0000 0.0000 0.0000 0.0000 0.0000 42.2378
#
#
#
# Elastic Compliance Matrix: (Units=1/GPa)
#
#
# Indices 1 2 3 4 5 6 
#
# 1 0.014584 -0.003493 -0.010394 0.000000 0.000000 0.000000
# 2 -0.003493 0.011604 -0.002472 0.000000 0.000000 0.000000
# 3 -0.010394 -0.002472 0.022946 0.000000 0.000000 0.000000
# 4 0.000000 0.000000 0.000000 -0.130863 0.000000 0.000000
# 5 0.000000 0.000000 0.000000 0.000000 0.031124 0.000000
# 6 0.000000 0.000000 0.000000 0.000000 0.000000 0.023675
#
#
# Mechanical properties :
#
#
# Convention : Reuss Voigt Hill
#
# Bulk Modulus (GPa) = 60.91819 67.20771 64.06295
# Shear Modulus (GPa) = 444.04600 24.12045 234.08322
#
# Velocity S-wave (km/s) = 14.25029 3.32126 10.34653
# Velocity P-wave (km/s) = 17.28063 6.74114 13.11608
#
# Compressibility (1/GPa) = 0.01641546
#
# Stress axis : x y z
#
# Youngs Moduli (GPa) = 68.56758 86.17690 43.58148
#
# Poissons Ratio (x) = 0.30101 0.45300
# Poissons Ratio (y) = 0.23950 0.10773
# Poissons Ratio (z) = 0.71271 0.21302
#
# Static dielectric constant tensor:
#      x y z
#    x 1.851670 0.000000 0.000000 
#    y 0.000000 1.896930 0.000000 
#    z 0.000000 0.000000 1.780310 
# 
# From -- ./inp_files/37545.got.cif
#   From: 2010.05.17/outbox.cif.g08.bks.cpg/sg24_19_cif.got.tgz:37545.got - 2010.06.04 00:33:39.
