data_PCOD9334037
_publ_section_title
;
Structure prediction by ZEFSAII (Michael W. Deem and Ramdas Pophale) SiO2 
 PCOD9334037
Probable space group: I 21 21 21
;
_chemical_formula_sum "Si O2"
_cell_formula_units_Z 36
_cell_length_a 15.425770
_cell_length_b 5.438847
_cell_length_c 22.173596
_cell_angle_alpha 90.000000
_cell_angle_beta 90.000000
_cell_angle_gamma 90.000000
_cell_volume 1860.329291
_symmetry_space_group_name_H-M "I 21 21 21"
_symmetry_group_IT_number 24
_symmetry_cell_setting 'orthorhombic'
loop_
_space_group_symop_operation_xyz
x,y,z
-x,1/2-y,z
x,-y,1/2-z
1/2-x,y,-z
1/2+x,1/2+y,1/2+z
1/2-x,-y,1/2+z
1/2+x,1/2-y,-z
-x,1/2+y,1/2-z
loop_
_atom_site_type_symbol
_atom_site_label
_atom_site_fract_x
_atom_site_fract_y
_atom_site_fract_z
Si Si1 0.748192 0.226885 0.073133
Si Si2 0.682631 0.267499 0.443159
Si Si3 0.000000 0.250000 0.494788
Si Si4 0.070282 0.066953 0.110374
Si Si5 0.102866 0.247247 0.280101
O O1 0.690302 0.466003 0.087274
O O2 0.844207 0.281170 0.095704
O O3 0.713891 0.965198 0.095163
O O4 0.750000 0.206523 0.000000
O O5 0.750000 0.287954 0.500000
O O6 0.586746 0.210360 0.467072
O O7 0.974964 0.471538 0.450155
O O8 0.101060 0.828813 0.149005
O O9 0.000000 0.750000 0.232098
O O10 0.137199 0.500000 0.250000
O O11 0.000000 0.250000 0.140510
O O12 0.141079 0.000000 0.250000
#
# Coordination Sequence:
#
# PCOD9334037 Si02
#       5
#     8   8   4   8   8
#     4  10  20  35  47  72 109 131 179 244 270 304
#     4  10  20  35  46  71 109 136 183 239 267 307
#     4  12  22  32  56  76 104 158 204 222 272 354
#     4  12  22  33  57  78 101 150 205 229 278 352
#     4  10  21  35  47  69 102 133 179 243 278 310
#
# _framework density 19.351413000000001
#
# number of rings (size 3 to 8) (size 9 to 14) (size 15 to 20)
#    0.000    1.333    5.556    4.667    0.000    0.000 
#    0.000    0.000    0.000    0.000    0.000    0.000 
#    0.000    0.000    0.000    6.000    0.222   38.889 
#
# Total GULP energy -100342.854373 kJ/mol
# GULP energy per Si atom -5574.603021 kJ/mol
# Density = 1.930737 g / cm^3
# Si number density = 19.351413 Si / 1000 Ang^3
#
#
#
# Elastic Constant Matrix: (Units=GPa)
#
#
# Indices 1 2 3 4 5 6 
#
# 1 89.0627 4.3098 17.6871 0.0000 0.0000 0.0000
# 2 4.3098 148.7385 9.1331 0.0000 0.0000 0.0000
# 3 17.6871 9.1331 29.4285 0.0000 0.0000 0.0000
# 4 0.0000 0.0000 0.0000 16.3990 0.0000 0.0000
# 5 0.0000 0.0000 0.0000 0.0000 -3.2902 0.0000
# 6 0.0000 0.0000 0.0000 0.0000 0.0000 11.8190
#
#
#
# Elastic Compliance Matrix: (Units=1/GPa)
#
#
# Indices 1 2 3 4 5 6 
#
# 1 0.012751 0.000103 -0.007696 0.000000 0.000000 0.000000
# 2 0.000103 0.006855 -0.002189 0.000000 0.000000 0.000000
# 3 -0.007696 -0.002189 0.039285 0.000000 0.000000 0.000000
# 4 0.000000 0.000000 0.000000 0.060979 0.000000 0.000000
# 5 0.000000 0.000000 0.000000 0.000000 -0.303931 0.000000
# 6 0.000000 0.000000 0.000000 0.000000 0.000000 0.084609
#
#
# Mechanical properties :
#
#
# Convention : Reuss Voigt Hill
#
# Bulk Modulus (GPa) = 25.42754 36.60994 31.01874
# Shear Modulus (GPa) = -74.87466 20.72554 -27.07456
#
# Velocity S-wave (km/s) = -6.22704 3.27618 -3.74451
# Velocity P-wave (km/s) = 6.20750 5.76807 1.62209
#
# Compressibility (1/GPa) = 0.03932744
#
# Stress axis : x y z
#
# Youngs Moduli (GPa) = 78.42288 145.88633 25.45474
#
# Poissons Ratio (x) = -0.01504 0.19589
# Poissons Ratio (y) = -0.00808 0.05573
# Poissons Ratio (z) = 0.60353 0.31938
#
# Static dielectric constant tensor:
#      x y z
#    x 1.648280 0.000000 0.000000 
#    y 0.000000 1.828700 0.000000 
#    z 0.000000 0.000000 1.737790 
# 
# From -- ./inp_files/6994.got.cif
#   From: 2010.05.17/outbox.cif.g08.bks.cpg/sg24_4_cif.got.tgz:6994.got - 2010.06.04 00:33:39.
