data_PCOD9334807
_publ_section_title
;
Structure prediction by ZEFSAII (Michael W. Deem and Ramdas Pophale) SiO2 
 PCOD9334807
Probable space group: I 21 21 21
;
_chemical_formula_sum "Si O2"
_cell_formula_units_Z 40
_cell_length_a 28.655709
_cell_length_b 5.013893
_cell_length_c 16.620892
_cell_angle_alpha 90.000000
_cell_angle_beta 90.000000
_cell_angle_gamma 90.000000
_cell_volume 2388.034228
_symmetry_space_group_name_H-M "I 21 21 21"
_symmetry_group_IT_number 24
_symmetry_cell_setting 'orthorhombic'
loop_
_space_group_symop_operation_xyz
x,y,z
-x,1/2-y,z
x,-y,1/2-z
1/2-x,y,-z
1/2+x,1/2+y,1/2+z
1/2-x,-y,1/2+z
1/2+x,1/2-y,-z
-x,1/2+y,1/2-z
loop_
_atom_site_type_symbol
_atom_site_label
_atom_site_fract_x
_atom_site_fract_y
_atom_site_fract_z
Si Si1 0.053518 0.749059 0.190879
Si Si2 0.297586 0.479907 0.447122
Si Si3 0.683863 0.673097 0.673744
Si Si4 0.709374 0.541860 0.338098
Si Si5 0.355443 0.690524 0.906013
O O1 0.059813 0.500000 0.250000
O O2 0.091151 0.731690 0.119881
O O3 0.000000 0.750000 0.161401
O O4 0.060014 0.000000 0.250000
O O5 0.250000 0.526842 0.500000
O O6 0.311947 0.737906 0.396380
O O7 0.339485 0.411829 0.507634
O O8 0.287138 0.234724 0.386628
O O9 0.665986 0.500000 0.750000
O O10 0.739426 0.668860 0.678892
O O11 0.669176 0.477225 0.602134
O O12 0.665152 0.967501 0.656321
O O13 0.687564 0.500000 0.250000
#
# Coordination Sequence:
#
# PCOD9334807 Si02
#       5
#     8   8   8   8   8
#     4  10  21  37  53  73 104 138 173 212 254 302
#     4  12  21  35  49  73 103 131 173 222 255 291
#     4  11  20  30  46  70  98 132 174 207 241 296
#     4  11  22  36  49  67 100 142 173 206 252 302
#     4  12  21  31  51  72  98 132 172 215 253 295
#
# _framework density 16.750178999999999
#
# number of rings (size 3 to 8) (size 9 to 14) (size 15 to 20)
#    0.000    0.800    4.000    6.000    0.000    3.200 
#    0.000    0.000    0.000    0.000    0.000    0.000 
#    0.000    3.200    0.000    0.200    0.000    0.000 
#
# Total GULP energy -111644.433668 kJ/mol
# GULP energy per Si atom -5582.221683 kJ/mol
# Density = 1.671205 g / cm^3
# Si number density = 16.750179 Si / 1000 Ang^3
#
#
#
# Elastic Constant Matrix: (Units=GPa)
#
#
# Indices 1 2 3 4 5 6 
#
# 1 71.4521 -2.1412 23.3010 0.0000 0.0000 0.0000
# 2 -2.1412 99.2411 21.7763 0.0000 0.0000 0.0000
# 3 23.3010 21.7763 98.6290 0.0000 0.0000 0.0000
# 4 0.0000 0.0000 0.0000 28.4837 0.0000 0.0000
# 5 0.0000 0.0000 0.0000 0.0000 19.1303 0.0000
# 6 0.0000 0.0000 0.0000 0.0000 0.0000 7.3241
#
#
#
# Elastic Compliance Matrix: (Units=1/GPa)
#
#
# Indices 1 2 3 4 5 6 
#
# 1 0.015294 0.001180 -0.003874 0.000000 0.000000 0.000000
# 2 0.001180 0.010681 -0.002637 0.000000 0.000000 0.000000
# 3 -0.003874 -0.002637 0.011636 0.000000 0.000000 0.000000
# 4 0.000000 0.000000 0.000000 0.035108 0.000000 0.000000
# 5 0.000000 0.000000 0.000000 0.000000 0.052273 0.000000
# 6 0.000000 0.000000 0.000000 0.000000 0.000000 0.136535
#
#
# Mechanical properties :
#
#
# Convention : Reuss Voigt Hill
#
# Bulk Modulus (GPa) = 37.10630 39.46603 38.28616
# Shear Modulus (GPa) = 17.78273 26.08003 21.93138
#
# Velocity S-wave (km/s) = 3.26182 3.95016 3.62238
# Velocity P-wave (km/s) = 6.03215 6.66467 6.35628
#
# Compressibility (1/GPa) = 0.02694960
#
# Stress axis : x y z
#
# Youngs Moduli (GPa) = 65.38511 93.62817 85.93737
#
# Poissons Ratio (x) = -0.11048 0.33290
# Poissons Ratio (y) = -0.07715 0.22661
# Poissons Ratio (z) = 0.25328 0.24689
#
# Static dielectric constant tensor:
#      x y z
#    x 1.566500 0.000000 0.000000 
#    y 0.000000 1.602800 0.000000 
#    z 0.000000 0.000000 1.656270 
# 
# From -- ./inp_files/3634.got.cif
#   From: 2010.05.17/outbox.cif.g08.bks.cpg/sg24_2_cif.got.tgz:3634.got - 2010.06.04 00:33:39.
