data_PCOD9334537
_publ_section_title
;
Structure prediction by ZEFSAII (Michael W. Deem and Ramdas Pophale) SiO2 
 PCOD9334537
Probable space group: I 21 21 21
;
_chemical_formula_sum "Si O2"
_cell_formula_units_Z 44
_cell_length_a 7.599831
_cell_length_b 15.340822
_cell_length_c 17.745436
_cell_angle_alpha 90.000000
_cell_angle_beta 90.000000
_cell_angle_gamma 90.000000
_cell_volume 2068.898763
_symmetry_space_group_name_H-M "I 21 21 21"
_symmetry_group_IT_number 24
_symmetry_cell_setting 'orthorhombic'
loop_
_space_group_symop_operation_xyz
x,y,z
-x,1/2-y,z
x,-y,1/2-z
1/2-x,y,-z
1/2+x,1/2+y,1/2+z
1/2-x,-y,1/2+z
1/2+x,1/2-y,-z
-x,1/2+y,1/2-z
loop_
_atom_site_type_symbol
_atom_site_label
_atom_site_fract_x
_atom_site_fract_y
_atom_site_fract_z
Si Si1 0.600965 0.131584 0.352518
Si Si2 0.459620 0.909626 0.702165
Si Si3 0.000000 0.250000 0.299636
Si Si4 0.268651 0.815354 0.087780
Si Si5 0.041788 0.092200 0.796240
Si Si6 0.249522 0.457193 0.090395
O O1 0.406906 0.112882 0.385536
O O2 0.664030 0.217903 0.394242
O O3 0.557480 0.151425 0.265755
O O4 0.728375 0.054860 0.376149
O O5 0.554583 0.827800 0.743288
O O6 0.249588 0.889735 0.693511
O O7 0.567489 0.922486 0.625161
O O8 0.473848 0.000000 0.750000
O O9 0.103351 0.187176 0.358132
O O10 0.250000 0.824845 0.000000
O O11 0.920222 0.088707 0.870387
O O12 0.028684 0.000000 0.750000
O O13 0.250000 0.456129 0.000000
#
# Coordination Sequence:
#
# PCOD9334537 Si02
#       6
#     8   8   4   8   8   8
#     4  10  20  40  57  89 134 174 203 259 322 403
#     4  11  23  41  68  95 127 171 227 269 320 405
#     4  12  22  40  66  98 124 176 228 260 324 402
#     4  11  22  34  58  96 140 168 204 254 328 404
#     4   9  19  39  61  89 123 165 214 263 317 387
#     4  11  23  40  64  91 125 168 226 279 335 368
#
# _framework density 21.267351999999999
#
# number of rings (size 3 to 8) (size 9 to 14) (size 15 to 20)
#    0.000    1.455    1.818    5.455    0.000    2.182 
#    0.000    0.000    4.000    0.000    0.000    0.000 
#    0.000    0.000    0.000    0.000    0.000    0.000 
#
# Total GULP energy -122519.889789 kJ/mol
# GULP energy per Si atom -5569.085900 kJ/mol
# Density = 2.121895 g / cm^3
# Si number density = 21.267352 Si / 1000 Ang^3
#
#
#
# Elastic Constant Matrix: (Units=GPa)
#
#
# Indices 1 2 3 4 5 6 
#
# 1 120.3203 0.4685 79.9451 0.0000 0.0000 0.0000
# 2 0.4685 44.8785 30.6514 0.0000 0.0000 0.0000
# 3 79.9451 30.6514 176.4500 0.0000 0.0000 0.0000
# 4 0.0000 0.0000 0.0000 24.6445 0.0000 0.0000
# 5 0.0000 0.0000 0.0000 0.0000 30.0421 0.0000
# 6 0.0000 0.0000 0.0000 0.0000 0.0000 14.9776
#
#
#
# Elastic Compliance Matrix: (Units=1/GPa)
#
#
# Indices 1 2 3 4 5 6 
#
# 1 0.012571 0.004265 -0.006437 0.000000 0.000000 0.000000
# 2 0.004265 0.026729 -0.006575 0.000000 0.000000 0.000000
# 3 -0.006437 -0.006575 0.009726 0.000000 0.000000 0.000000
# 4 0.000000 0.000000 0.000000 0.040577 0.000000 0.000000
# 5 0.000000 0.000000 0.000000 0.000000 0.033287 0.000000
# 6 0.000000 0.000000 0.000000 0.000000 0.000000 0.066766
#
#
# Mechanical properties :
#
#
# Convention : Reuss Voigt Hill
#
# Bulk Modulus (GPa) = 31.71420 62.64209 47.17814
# Shear Modulus (GPa) = 22.97155 29.30510 26.13833
#
# Velocity S-wave (km/s) = 3.29010 3.71609 3.50956
# Velocity P-wave (km/s) = 5.42011 6.92322 6.21725
#
# Compressibility (1/GPa) = 0.03153162
#
# Stress axis : x y z
#
# Youngs Moduli (GPa) = 79.54673 37.41281 102.81927
#
# Poissons Ratio (x) = -0.15956 0.66180
# Poissons Ratio (y) = -0.33926 0.67608
# Poissons Ratio (z) = 0.51201 0.24600
#
# Static dielectric constant tensor:
#      x y z
#    x 1.891900 0.000000 0.000000 
#    y 0.000000 1.836150 0.000000 
#    z 0.000000 0.000000 1.733440 
# 
# From -- ./inp_files/24698.got.cif
#   From: 2010.05.17/outbox.cif.g08.bks.cpg/sg24_13_cif.got.tgz:24698.got - 2010.06.04 00:33:39.
