data_PCOD9334520
_publ_section_title
;
Structure prediction by ZEFSAII (Michael W. Deem and Ramdas Pophale) SiO2 
 PCOD9334520
Probable space group: I 21 21 21
;
_chemical_formula_sum "Si O2"
_cell_formula_units_Z 40
_cell_length_a 13.517308
_cell_length_b 12.400309
_cell_length_c 12.121460
_cell_angle_alpha 90.000000
_cell_angle_beta 90.000000
_cell_angle_gamma 90.000000
_cell_volume 2031.784532
_symmetry_space_group_name_H-M "I 21 21 21"
_symmetry_group_IT_number 24
_symmetry_cell_setting 'orthorhombic'
loop_
_space_group_symop_operation_xyz
x,y,z
-x,1/2-y,z
x,-y,1/2-z
1/2-x,y,-z
1/2+x,1/2+y,1/2+z
1/2-x,-y,1/2+z
1/2+x,1/2-y,-z
-x,1/2+y,1/2-z
loop_
_atom_site_type_symbol
_atom_site_label
_atom_site_fract_x
_atom_site_fract_y
_atom_site_fract_z
Si Si1 0.750000 0.756358 0.500000
Si Si2 0.353407 0.396512 0.374346
Si Si3 0.375128 0.415893 0.617068
Si Si4 0.576443 0.152886 0.855448
Si Si5 0.106996 0.785154 0.689543
Si Si6 0.014275 0.000000 0.750000
O O1 0.672395 0.823498 0.571261
O O2 0.814759 0.697172 0.592877
O O3 0.377545 0.358393 0.498353
O O4 0.242376 0.442369 0.369554
O O5 0.363237 0.304585 0.280544
O O6 0.435824 0.486923 0.349295
O O7 0.402575 0.346838 0.724023
O O8 0.440636 0.525418 0.619091
O O9 0.500000 0.250000 0.878054
O O10 0.082256 0.896339 0.748708
O O11 0.000000 0.750000 0.642078
#
# Coordination Sequence:
#
# PCOD9334520 Si02
#       6
#     4   8   8   8   8   4
#     4  12  22  40  62  88 132 160 202 260 308 368
#     4  10  20  39  68  91 121 160 210 264 303 362
#     4  10  22  40  64  93 121 162 208 262 311 364
#     4  11  24  38  62  95 124 161 206 257 316 372
#     4  10  23  39  65  94 124 165 209 260 310 367
#     4  10  22  38  60  98 126 160 212 248 314 376
#
# _framework density 19.687127
#
# number of rings (size 3 to 8) (size 9 to 14) (size 15 to 20)
#    0.000    1.600    2.000    3.000   11.200    2.400 
#    0.000    4.000    0.000    0.000    0.000    0.000 
#    0.000    0.000    0.000    0.000    0.000    0.000 
#
# Total GULP energy -111413.264872 kJ/mol
# GULP energy per Si atom -5570.663244 kJ/mol
# Density = 1.964232 g / cm^3
# Si number density = 19.687127 Si / 1000 Ang^3
#
#
#
# Elastic Constant Matrix: (Units=GPa)
#
#
# Indices 1 2 3 4 5 6 
#
# 1 75.6587 40.4786 36.1011 0.0000 0.0000 0.0000
# 2 40.4786 84.8336 19.3078 0.0000 0.0000 0.0000
# 3 36.1011 19.3078 132.6203 0.0000 0.0000 0.0000
# 4 0.0000 0.0000 0.0000 4.9036 0.0000 0.0000
# 5 0.0000 0.0000 0.0000 0.0000 4.9083 0.0000
# 6 0.0000 0.0000 0.0000 0.0000 0.0000 25.5619
#
#
#
# Elastic Compliance Matrix: (Units=1/GPa)
#
#
# Indices 1 2 3 4 5 6 
#
# 1 0.019722 -0.008469 -0.004136 0.000000 0.000000 0.000000
# 2 -0.008469 0.015829 0.000001 0.000000 0.000000 0.000000
# 3 -0.004136 0.000001 0.008666 0.000000 0.000000 0.000000
# 4 0.000000 0.000000 0.000000 0.203930 0.000000 0.000000
# 5 0.000000 0.000000 0.000000 0.000000 0.203738 0.000000
# 6 0.000000 0.000000 0.000000 0.000000 0.000000 0.039121
#
#
# Mechanical properties :
#
#
# Convention : Reuss Voigt Hill
#
# Bulk Modulus (GPa) = 52.60676 53.87641 53.24159
# Shear Modulus (GPa) = 9.56850 20.22311 14.89580
#
# Velocity S-wave (km/s) = 2.20700 3.20851 2.75367
# Velocity P-wave (km/s) = 5.76835 6.41497 6.10023
#
# Compressibility (1/GPa) = 0.01900896
#
# Stress axis : x y z
#
# Youngs Moduli (GPa) = 50.70585 63.17694 115.39443
#
# Poissons Ratio (x) = 0.53504 0.47722
# Poissons Ratio (y) = 0.42943 -0.00011
# Poissons Ratio (z) = 0.20969 -0.00006
#
# Static dielectric constant tensor:
#      x y z
#    x 1.698110 0.000000 0.000000 
#    y 0.000000 1.701320 0.000000 
#    z 0.000000 0.000000 1.743810 
# 
# From -- ./inp_files/20538.got.cif
#   From: 2010.05.17/outbox.cif.g08.bks.cpg/sg24_11_cif.got.tgz:20538.got - 2010.06.04 00:33:39.
