data_PCOD9334471
_publ_section_title
;
Structure prediction by ZEFSAII (Michael W. Deem and Ramdas Pophale) SiO2 
 PCOD9334471
Probable space group: I 21 21 21
;
_chemical_formula_sum "Si O2"
_cell_formula_units_Z 40
_cell_length_a 8.432099
_cell_length_b 14.916200
_cell_length_c 14.624182
_cell_angle_alpha 90.000000
_cell_angle_beta 90.000000
_cell_angle_gamma 90.000000
_cell_volume 1839.354665
_symmetry_space_group_name_H-M "I 21 21 21"
_symmetry_group_IT_number 24
_symmetry_cell_setting 'orthorhombic'
loop_
_space_group_symop_operation_xyz
x,y,z
-x,1/2-y,z
x,-y,1/2-z
1/2-x,y,-z
1/2+x,1/2+y,1/2+z
1/2-x,-y,1/2+z
1/2+x,1/2-y,-z
-x,1/2+y,1/2-z
loop_
_atom_site_type_symbol
_atom_site_label
_atom_site_fract_x
_atom_site_fract_y
_atom_site_fract_z
Si Si1 0.712409 0.398745 0.718181
Si Si2 0.816862 0.775793 0.744000
Si Si3 0.114667 0.383919 0.387208
Si Si4 0.846026 0.958540 0.650326
Si Si5 0.914059 0.431346 0.551059
O O1 0.731998 0.500000 0.750000
O O2 0.733312 0.316313 0.786306
O O3 0.538741 0.389719 0.676436
O O4 0.846796 0.382987 0.640771
O O5 0.731855 0.813014 0.837712
O O6 0.804794 0.856724 0.671618
O O7 0.000000 0.750000 0.753537
O O8 0.202272 0.479683 0.384513
O O9 0.036154 0.374160 0.487974
O O10 0.887374 0.000000 0.750000
O O11 0.991215 0.981114 0.584037
O O12 0.750000 0.453484 0.500000
#
# Coordination Sequence:
#
# PCOD9334471 Si02
#       5
#     8   8   8   8   8
#     4  11  21  39  65  92 125 163 206 251 299 361
#     4  11  22  37  61  91 121 161 205 247 299 362
#     4  10  22  39  62  93 126 158 199 254 311 360
#     4  10  20  39  61  86 122 162 202 245 301 365
#     4  10  21  38  63  92 124 162 199 249 310 362
#
# _framework density 21.746758
#
# number of rings (size 3 to 8) (size 9 to 14) (size 15 to 20)
#    0.000    1.600    0.000    7.200    0.000    0.000 
#    0.000   28.000    0.000   26.400    0.000    0.000 
#    0.000    0.000    0.000    0.000    0.000    0.000 
#
# Total GULP energy -111587.999094 kJ/mol
# GULP energy per Si atom -5579.399955 kJ/mol
# Density = 2.169726 g / cm^3
# Si number density = 21.746758 Si / 1000 Ang^3
#
#
#
# Elastic Constant Matrix: (Units=GPa)
#
#
# Indices 1 2 3 4 5 6 
#
# 1 91.7564 24.1149 1.2919 0.0000 0.0000 0.0000
# 2 24.1149 146.6185 -3.4742 0.0000 0.0000 0.0000
# 3 1.2919 -3.4742 17.8349 0.0000 0.0000 0.0000
# 4 0.0000 0.0000 0.0000 14.0576 0.0000 0.0000
# 5 0.0000 0.0000 0.0000 0.0000 19.2210 0.0000
# 6 0.0000 0.0000 0.0000 0.0000 0.0000 26.9237
#
#
#
# Elastic Compliance Matrix: (Units=1/GPa)
#
#
# Indices 1 2 3 4 5 6 
#
# 1 0.011416 -0.001906 -0.001198 0.000000 0.000000 0.000000
# 2 -0.001906 0.007170 0.001535 0.000000 0.000000 0.000000
# 3 -0.001198 0.001535 0.056456 0.000000 0.000000 0.000000
# 4 0.000000 0.000000 0.000000 0.071136 0.000000 0.000000
# 5 0.000000 0.000000 0.000000 0.000000 0.052026 0.000000
# 6 0.000000 0.000000 0.000000 0.000000 0.000000 0.037142
#
#
# Mechanical properties :
#
#
# Convention : Reuss Voigt Hill
#
# Bulk Modulus (GPa) = 13.90757 33.34167 23.62462
# Shear Modulus (GPa) = 19.05099 27.65892 23.35496
#
# Velocity S-wave (km/s) = 2.96301 3.57019 3.28067
# Velocity P-wave (km/s) = 4.25617 5.68859 5.02370
#
# Compressibility (1/GPa) = 0.07190330
#
# Stress axis : x y z
#
# Youngs Moduli (GPa) = 87.59457 139.46437 17.71299
#
# Poissons Ratio (x) = 0.26583 0.02122
# Poissons Ratio (y) = 0.16696 -0.02719
# Poissons Ratio (z) = 0.10496 -0.21405
#
# Static dielectric constant tensor:
#      x y z
#    x 1.821880 0.000000 0.000000 
#    y 0.000000 1.822410 0.000000 
#    z 0.000000 0.000000 1.877310 
# 
# From -- ./inp_files/24536.got.cif
#   From: 2010.05.17/outbox.cif.g08.bks.cpg/sg24_13_cif.got.tgz:24536.got - 2010.06.04 00:33:39.
