data_PCOD9334045
_publ_section_title
;
Structure prediction by ZEFSAII (Michael W. Deem and Ramdas Pophale) SiO2 
 PCOD9334045
Probable space group: I 21 21 21
;
_chemical_formula_sum "Si O2"
_cell_formula_units_Z 64
_cell_length_a 19.962777
_cell_length_b 9.239638
_cell_length_c 19.029189
_cell_angle_alpha 90.000000
_cell_angle_beta 90.000000
_cell_angle_gamma 90.000000
_cell_volume 3509.911703
_symmetry_space_group_name_H-M "I 21 21 21"
_symmetry_group_IT_number 24
_symmetry_cell_setting 'orthorhombic'
loop_
_space_group_symop_operation_xyz
x,y,z
-x,1/2-y,z
x,-y,1/2-z
1/2-x,y,-z
1/2+x,1/2+y,1/2+z
1/2-x,-y,1/2+z
1/2+x,1/2-y,-z
-x,1/2+y,1/2-z
loop_
_atom_site_type_symbol
_atom_site_label
_atom_site_fract_x
_atom_site_fract_y
_atom_site_fract_z
Si Si1 0.803093 0.613501 0.694776
Si Si2 0.124578 0.343022 0.966103
Si Si3 0.199438 0.563911 0.061758
Si Si4 0.203592 0.434597 0.826009
Si Si5 0.684931 0.460854 0.042043
Si Si6 0.399092 0.222542 0.506939
Si Si7 0.990275 0.039955 0.542761
Si Si8 0.537379 0.403712 0.185326
O O1 0.777011 0.500000 0.750000
O O2 0.772408 0.772598 0.693130
O O3 0.792971 0.536971 0.621431
O O4 0.884351 0.628251 0.701446
O O5 0.149514 0.403141 0.889170
O O6 0.133077 0.171652 0.965981
O O7 0.049825 0.397408 0.977943
O O8 0.169847 0.417358 0.026223
O O9 0.240094 0.528371 0.132621
O O10 0.250000 0.616998 0.000000
O O11 0.137743 0.677518 0.064480
O O12 0.182147 0.500000 0.750000
O O13 0.656638 0.614864 0.021527
O O14 0.750000 0.418171 0.000000
O O15 0.460801 0.109938 0.515455
O O16 0.431504 0.337476 0.451805
O O17 0.027532 0.001308 0.615256
O O18 0.500000 0.250000 0.178087
O O19 0.510739 0.500000 0.250000
#
# Coordination Sequence:
#
# PCOD9334045 Si02
#       8
#     8   8   8   8   8   8   8   8
#     4  10  22  35  48  74 109 143 185 233 276 332
#     4   9  19  34  55  76 110 147 185 233 284 341
#     4   9  18  36  53  77 105 143 186 236 287 338
#     4  10  20  35  54  79 109 150 192 233 286 339
#     4  11  20  34  54  77 104 142 188 236 287 328
#     4  10  21  33  53  76 102 140 186 235 281 328
#     4  10  21  36  51  73 109 146 185 237 276 329
#     4  11  23  35  50  71 106 154 199 231 271 327
#
# _framework density 18.234078
#
# number of rings (size 3 to 8) (size 9 to 14) (size 15 to 20)
#    0.000    2.000    1.250    3.750    1.750    6.000 
#    0.000    0.000    0.000    0.000    0.000    0.000 
#    0.000   81.000    0.000    0.000    0.000    0.000 
#
# Total GULP energy -178137.521121 kJ/mol
# GULP energy per Si atom -5566.797535 kJ/mol
# Density = 1.819258 g / cm^3
# Si number density = 18.234078 Si / 1000 Ang^3
#
#
#
# Elastic Constant Matrix: (Units=GPa)
#
#
# Indices 1 2 3 4 5 6 
#
# 1 49.7219 35.5325 13.9785 0.0000 0.0000 0.0000
# 2 35.5325 102.8928 30.0020 0.0000 0.0000 0.0000
# 3 13.9785 30.0020 41.0908 0.0000 0.0000 0.0000
# 4 0.0000 0.0000 0.0000 28.0581 0.0000 0.0000
# 5 0.0000 0.0000 0.0000 0.0000 7.8659 0.0000
# 6 0.0000 0.0000 0.0000 0.0000 0.0000 36.0670
#
#
#
# Elastic Compliance Matrix: (Units=1/GPa)
#
#
# Indices 1 2 3 4 5 6 
#
# 1 0.026993 -0.008441 -0.003019 0.000000 0.000000 0.000000
# 2 -0.008441 0.014987 -0.008071 0.000000 0.000000 0.000000
# 3 -0.003019 -0.008071 0.031257 0.000000 0.000000 0.000000
# 4 0.000000 0.000000 0.000000 0.035640 0.000000 0.000000
# 5 0.000000 0.000000 0.000000 0.000000 0.127131 0.000000
# 6 0.000000 0.000000 0.000000 0.000000 0.000000 0.027726
#
#
# Mechanical properties :
#
#
# Convention : Reuss Voigt Hill
#
# Bulk Modulus (GPa) = 29.26260 39.19239 34.22749
# Shear Modulus (GPa) = 15.91395 22.01103 18.96249
#
# Velocity S-wave (km/s) = 2.95745 3.47816 3.22832
# Velocity P-wave (km/s) = 5.26737 6.13765 5.71909
#
# Compressibility (1/GPa) = 0.03417331
#
# Stress axis : x y z
#
# Youngs Moduli (GPa) = 37.04667 66.72284 31.99314
#
# Poissons Ratio (x) = 0.56322 0.09660
# Poissons Ratio (y) = 0.31272 0.25823
# Poissons Ratio (z) = 0.11186 0.53854
#
# Static dielectric constant tensor:
#      x y z
#    x 1.707510 0.000000 0.000000 
#    y 0.000000 1.679060 0.000000 
#    z 0.000000 0.000000 1.606490 
# 
# From -- ./inp_files/34205.got.cif
#   From: 2010.05.17/outbox.cif.g08.bks.cpg/sg24_18_cif.got.tgz:34205.got - 2010.06.04 00:33:39.
