data_PCOD9334138
_publ_section_title
;
Structure prediction by ZEFSAII (Michael W. Deem and Ramdas Pophale) SiO2 
 PCOD9334138
Probable space group: I 21 21 21
;
_chemical_formula_sum "Si O2"
_cell_formula_units_Z 40
_cell_length_a 11.879365
_cell_length_b 19.653881
_cell_length_c 9.282396
_cell_angle_alpha 90.000000
_cell_angle_beta 90.000000
_cell_angle_gamma 90.000000
_cell_volume 2167.213217
_symmetry_space_group_name_H-M "I 21 21 21"
_symmetry_group_IT_number 24
_symmetry_cell_setting 'orthorhombic'
loop_
_space_group_symop_operation_xyz
x,y,z
-x,1/2-y,z
x,-y,1/2-z
1/2-x,y,-z
1/2+x,1/2+y,1/2+z
1/2-x,-y,1/2+z
1/2+x,1/2-y,-z
-x,1/2+y,1/2-z
loop_
_atom_site_type_symbol
_atom_site_label
_atom_site_fract_x
_atom_site_fract_y
_atom_site_fract_z
Si Si1 0.382080 0.421876 0.773098
Si Si2 0.250000 0.794903 0.500000
Si Si3 0.509640 0.500000 0.250000
Si Si4 0.123609 0.600567 0.962064
Si Si5 0.536727 0.386969 0.033326
Si Si6 0.672824 0.822912 0.301314
O O1 0.350804 0.500000 0.750000
O O2 0.427962 0.392662 0.620631
O O3 0.271883 0.379080 0.818407
O O4 0.475450 0.418804 0.895791
O O5 0.140473 0.841339 0.485600
O O6 0.275562 0.746003 0.363601
O O7 0.435572 0.545423 0.139862
O O8 0.571483 0.445215 0.148454
O O9 0.137296 0.668600 0.865913
O O10 0.250000 0.577242 0.000000
O O11 0.438332 0.342276 0.108957
#
# Coordination Sequence:
#
# PCOD9334138 Si02
#       6
#     8   4   4   8   8   8
#     4  11  20  35  65 100 126 157 201 278 331 368
#     4  12  24  44  64  86 128 192 214 242 320 416
#     4  10  20  36  56  94 122 158 206 264 312 378
#     4   9  20  30  58  93 126 146 191 271 327 351
#     4  11  23  39  66  90 126 168 217 263 316 389
#     4  10  22  36  65  91 123 154 216 268 310 380
#
# _framework density 18.456883000000001
#
# number of rings (size 3 to 8) (size 9 to 14) (size 15 to 20)
#    0.000    1.600    4.000    0.600   12.600    0.000 
#    1.800    0.000   48.400    0.000    0.000    0.000 
#    0.000    0.000    0.000    0.000    0.000    0.000 
#
# Total GULP energy -111494.296250 kJ/mol
# GULP energy per Si atom -5574.714813 kJ/mol
# Density = 1.841487 g / cm^3
# Si number density = 18.456883 Si / 1000 Ang^3
#
#
#
# Elastic Constant Matrix: (Units=GPa)
#
#
# Indices 1 2 3 4 5 6 
#
# 1 63.5096 36.1486 17.3270 0.0000 0.0000 0.0000
# 2 36.1486 65.5267 13.5120 0.0000 0.0000 0.0000
# 3 17.3270 13.5120 108.0720 -0.0001 0.0001 0.0001
# 4 0.0000 0.0000 -0.0001 40.0526 0.0000 0.0001
# 5 0.0000 0.0000 0.0001 0.0000 9.6589 0.0001
# 6 0.0000 0.0000 0.0001 0.0001 0.0001 -16.1011
#
#
#
# Elastic Compliance Matrix: (Units=1/GPa)
#
#
# Indices 1 2 3 4 5 6 
#
# 1 0.023451 -0.012484 -0.002199 0.000000 0.000000 0.000000
# 2 -0.012484 0.022310 -0.000788 0.000000 0.000000 0.000000
# 3 -0.002199 -0.000788 0.009704 0.000000 0.000000 0.000000
# 4 0.000000 0.000000 0.000000 0.024967 0.000000 0.000000
# 5 0.000000 0.000000 0.000000 0.000000 0.103531 0.000000
# 6 0.000000 0.000000 0.000000 0.000000 0.000000 -0.062107
#
#
# Mechanical properties :
#
#
# Convention : Reuss Voigt Hill
#
# Bulk Modulus (GPa) = 40.77603 41.23152 41.00378
# Shear Modulus (GPa) = 31.06126 18.06345 24.56236
#
# Velocity S-wave (km/s) = 4.10678 3.13179 3.65197
# Velocity P-wave (km/s) = 6.68042 5.95528 6.32824
#
# Compressibility (1/GPa) = 0.02452421
#
# Stress axis : x y z
#
# Youngs Moduli (GPa) = 42.64194 44.82260 103.04846
#
# Poissons Ratio (x) = 0.55955 0.22661
# Poissons Ratio (y) = 0.53233 0.08119
# Poissons Ratio (z) = 0.09377 0.03532
#
# Static dielectric constant tensor:
#      x y z
#    x 1.609870 0.000000 0.000000 
#    y 0.000000 1.658100 0.000000 
#    z 0.000000 0.000000 1.750610 
# 
# From -- ./inp_files/11046.got.cif
#   From: 2010.05.17/outbox.cif.g08.bks.cpg/sg24_6_cif.got.tgz:11046.got - 2010.06.04 00:33:39.
