data_PCOD9334183
_publ_section_title
;
Structure prediction by ZEFSAII (Michael W. Deem and Ramdas Pophale) SiO2 
 PCOD9334183
Probable space group: I 21 21 21
;
_chemical_formula_sum "Si O2"
_cell_formula_units_Z 56
_cell_length_a 9.667007
_cell_length_b 18.530630
_cell_length_c 14.628511
_cell_angle_alpha 90.000000
_cell_angle_beta 90.000000
_cell_angle_gamma 90.000000
_cell_volume 2620.488996
_symmetry_space_group_name_H-M "I 21 21 21"
_symmetry_group_IT_number 24
_symmetry_cell_setting 'orthorhombic'
loop_
_space_group_symop_operation_xyz
x,y,z
-x,1/2-y,z
x,-y,1/2-z
1/2-x,y,-z
1/2+x,1/2+y,1/2+z
1/2-x,-y,1/2+z
1/2+x,1/2-y,-z
-x,1/2+y,1/2-z
loop_
_atom_site_type_symbol
_atom_site_label
_atom_site_fract_x
_atom_site_fract_y
_atom_site_fract_z
Si Si1 0.326771 0.165997 0.909797
Si Si2 0.242961 0.516156 0.393013
Si Si3 0.968428 0.911169 0.872517
Si Si4 0.217392 0.301837 0.338263
Si Si5 0.144818 0.671901 0.367910
Si Si6 0.252681 0.134622 0.703571
Si Si7 0.512287 0.907896 0.912881
O O1 0.493319 0.159116 0.910623
O O2 0.298281 0.252264 0.903851
O O3 0.281003 0.134798 0.812064
O O4 0.250000 0.137179 0.000000
O O5 0.250000 0.498490 0.500000
O O6 0.377763 0.481353 0.349987
O O7 0.233614 0.601021 0.383637
O O8 0.106294 0.471064 0.366995
O O9 0.859057 0.845965 0.854435
O O10 0.105052 0.899784 0.815280
O O11 0.011956 0.917877 0.979284
O O12 0.142914 0.318685 0.241253
O O13 0.246850 0.217205 0.334356
O O14 0.105737 0.334934 0.407705
O O15 0.374317 0.097844 0.645855
#
# Coordination Sequence:
#
# PCOD9334183 Si02
#       7
#     8   8   8   8   8   8   8
#     4  10  22  42  66  96 123 158 218 276 326 387
#     4   9  20  40  64  91 123 165 214 251 306 395
#     4  10  22  36  57  97 129 166 213 261 308 374
#     4  10  20  36  60  90 127 169 214 256 305 386
#     4  10  20  41  70  90 121 172 214 259 335 390
#     4  11  21  38  60  92 132 161 206 273 321 367
#     4  10  20  36  61  88 131 172 210 252 310 391
#
# _framework density 21.370056999999999
#
# number of rings (size 3 to 8) (size 9 to 14) (size 15 to 20)
#    0.000    2.000    1.429    3.000    0.000    5.714 
#   12.857    2.857    3.143    0.000    0.000    0.000 
#    0.000    0.000    0.000    0.000    0.000    0.000 
#
# Total GULP energy -156383.946416 kJ/mol
# GULP energy per Si atom -5585.140943 kJ/mol
# Density = 2.132142 g / cm^3
# Si number density = 21.370057 Si / 1000 Ang^3
#
#
#
# Elastic Constant Matrix: (Units=GPa)
#
#
# Indices 1 2 3 4 5 6 
#
# 1 86.2557 -3.6874 27.9355 0.0000 0.0000 0.0059
# 2 -3.6874 10.5857 -4.0322 0.0000 0.0000 -0.0129
# 3 27.9355 -4.0322 108.9859 0.0000 0.0000 -0.0054
# 4 0.0000 0.0000 0.0000 23.6547 0.0000 -0.0099
# 5 0.0000 0.0000 0.0000 0.0000 17.7119 0.0092
# 6 0.0059 -0.0129 -0.0054 -0.0099 0.0092**********
#
#
#
# Elastic Compliance Matrix: (Units=1/GPa)
#
#
# Indices 1 2 3 4 5 6 
#
# 1 0.012752 0.003243 -0.003149 0.000000 0.000000 0.000000
# 2 0.003243 0.096642 0.002744 0.000000 0.000000 0.000000
# 3 -0.003149 0.002744 0.010084 0.000000 0.000000 0.000000
# 4 0.000000 0.000000 0.000000 0.042275 0.000000 0.000000
# 5 0.000000 0.000000 0.000000 0.000000 0.056459 0.000000
# 6 0.000000 0.000000 0.000000 0.000000 0.000000 -0.000027
#
#
# Mechanical properties :
#
#
# Convention : Reuss Voigt Hill
#
# Bulk Modulus (GPa) = 7.99009 27.36211 17.67610
# Shear Modulus (GPa) = 19.66749 -7341.83721 -3661.08486
#
# Velocity S-wave (km/s) = 3.03698 -58.67734 -41.43554
# Velocity P-wave (km/s) = 4.00559 67.66000 47.75893
#
# Compressibility (1/GPa) = 0.12515499
#
# Stress axis : x y z
#
# Youngs Moduli (GPa) = 78.42042 10.34743 99.16616
#
# Poissons Ratio (x) = -0.03355 0.31223
# Poissons Ratio (y) = -0.25429 -0.27215
# Poissons Ratio (z) = 0.24691 -0.02840
#
# Static dielectric constant tensor:
#      x y z
#    x 1.731300 0.000000 0.000000 
#    y 0.000000 1.870560 0.000000 
#    z 0.000000 0.000000 1.828670 
# 
# From -- ./inp_files/25092.got.cif
#   From: 2010.05.17/outbox.cif.g08.bks.cpg/sg24_13_cif.got.tgz:25092.got - 2010.06.04 00:33:39.
