data_PCOD9334750
_publ_section_title
;
Structure prediction by ZEFSAII (Michael W. Deem and Ramdas Pophale) SiO2 
 PCOD9334750
Probable space group: I 21 21 21
;
_chemical_formula_sum "Si O2"
_cell_formula_units_Z 48
_cell_length_a 30.448530
_cell_length_b 16.004742
_cell_length_c 4.996868
_cell_angle_alpha 90.000000
_cell_angle_beta 90.000000
_cell_angle_gamma 90.000000
_cell_volume 2435.078046
_symmetry_space_group_name_H-M "I 21 21 21"
_symmetry_group_IT_number 24
_symmetry_cell_setting 'orthorhombic'
loop_
_space_group_symop_operation_xyz
x,y,z
-x,1/2-y,z
x,-y,1/2-z
1/2-x,y,-z
1/2+x,1/2+y,1/2+z
1/2-x,-y,1/2+z
1/2+x,1/2-y,-z
-x,1/2+y,1/2-z
loop_
_atom_site_type_symbol
_atom_site_label
_atom_site_fract_x
_atom_site_fract_y
_atom_site_fract_z
Si Si1 0.125834 0.230767 0.239282
Si Si2 0.721381 0.219808 0.734585
Si Si3 0.601175 0.833370 0.238602
Si Si4 0.553139 0.400438 0.741176
Si Si5 0.995419 0.899796 0.740192
Si Si6 0.323096 0.554343 0.012230
O O1 0.177945 0.227282 0.198990
O O2 0.115708 0.259407 0.540994
O O3 0.097032 0.149234 0.189371
O O4 0.109576 0.304077 0.040661
O O5 0.750000 0.260783 0.500000
O O6 0.703899 0.133379 0.600928
O O7 0.750000 0.204790 0.000000
O O8 0.550606 0.856453 0.202421
O O9 0.633387 0.908458 0.153178
O O10 0.560318 0.500000 0.750000
O O11 0.532834 0.378303 0.454478
O O12 0.515132 0.378439 0.952626
O O13 0.988402 0.000000 0.750000
O O14 0.333149 0.500000 0.750000
O O15 0.300625 0.500000 0.250000
#
# Coordination Sequence:
#
# PCOD9334750 Si02
#       6
#     8   8   8   8   8   8
#     4  11  23  39  59  81 110 146 184 232 285 334
#     4  11  23  40  58  80 108 142 184 230 283 332
#     4  11  22  36  56  84 117 155 191 223 265 317
#     4  10  22  39  58  83 111 144 184 228 283 335
#     4  10  21  35  55  83 117 153 187 223 262 315
#     4  11  22  37  56  81 115 154 191 226 265 315
#
# _framework density 19.711894999999998
#
# number of rings (size 3 to 8) (size 9 to 14) (size 15 to 20)
#    0.000    1.333    0.000    7.500    0.000    7.333 
#    0.000    1.667    0.000    1.000    0.000    0.000 
#    0.000    0.000    0.000    0.000    0.000    0.000 
#
# Total GULP energy -134162.652717 kJ/mol
# GULP energy per Si atom -5590.110530 kJ/mol
# Density = 1.966703 g / cm^3
# Si number density = 19.711895 Si / 1000 Ang^3
#
#
#
# Elastic Constant Matrix: (Units=GPa)
#
#
# Indices 1 2 3 4 5 6 
#
# 1 134.5481 42.5215 13.1856 0.0000 0.0000 0.0000
# 2 42.5215 21.0522 5.4531 0.0000 0.0000 0.0000
# 3 13.1856 5.4531 74.4128 0.0002 -0.0001 0.0004
# 4 0.0000 0.0000 0.0002 16.3542 0.0000 0.0000
# 5 0.0000 0.0000 -0.0001 0.0000 27.6037 0.0000
# 6 0.0000 0.0000 0.0004 0.0000 0.0000 11.0014
#
#
#
# Elastic Compliance Matrix: (Units=1/GPa)
#
#
# Indices 1 2 3 4 5 6 
#
# 1 0.020577 -0.041403 -0.000612 0.000000 0.000000 0.000000
# 2 -0.041403 0.131728 -0.002317 0.000000 0.000000 0.000000
# 3 -0.000612 -0.002317 0.013717 0.000000 0.000000 0.000000
# 4 0.000000 0.000000 0.000000 0.061146 0.000000 0.000000
# 5 0.000000 0.000000 0.000000 0.000000 0.036227 0.000000
# 6 0.000000 0.000000 0.000000 0.000000 0.000000 0.090898
#
#
# Mechanical properties :
#
#
# Convention : Reuss Voigt Hill
#
# Bulk Modulus (GPa) = 12.92699 39.14816 26.03757
# Shear Modulus (GPa) = 10.66685 22.24872 16.45778
#
# Velocity S-wave (km/s) = 2.32876 3.36325 2.89263
# Velocity P-wave (km/s) = 3.71524 5.91483 4.93904
#
# Compressibility (1/GPa) = 0.07735755
#
# Stress axis : x y z
#
# Youngs Moduli (GPa) = 48.59800 7.59142 72.90339
#
# Poissons Ratio (x) = 0.31431 0.04462
# Poissons Ratio (y) = 2.01211 0.16890
# Poissons Ratio (z) = 0.02975 0.01759
#
# Static dielectric constant tensor:
#      x y z
#    x 1.695210 0.000000 0.000000 
#    y 0.000000 1.703500 0.000000 
#    z 0.000000 0.000000 1.688780 
# 
# From -- ./inp_files/7108.got.cif
#   From: 2010.05.17/outbox.cif.g08.bks.cpg/sg24_4_cif.got.tgz:7108.got - 2010.06.04 00:33:39.
