data_PCOD9334600
_publ_section_title
;
Structure prediction by ZEFSAII (Michael W. Deem and Ramdas Pophale) SiO2 
 PCOD9334600
Probable space group: I 21 21 21
;
_chemical_formula_sum "Si O2"
_cell_formula_units_Z 48
_cell_length_a 15.896789
_cell_length_b 9.038547
_cell_length_c 14.740473
_cell_angle_alpha 90.000000
_cell_angle_beta 90.000000
_cell_angle_gamma 90.000000
_cell_volume 2117.968273
_symmetry_space_group_name_H-M "I 21 21 21"
_symmetry_group_IT_number 24
_symmetry_cell_setting 'orthorhombic'
loop_
_space_group_symop_operation_xyz
x,y,z
-x,1/2-y,z
x,-y,1/2-z
1/2-x,y,-z
1/2+x,1/2+y,1/2+z
1/2-x,-y,1/2+z
1/2+x,1/2-y,-z
-x,1/2+y,1/2-z
loop_
_atom_site_type_symbol
_atom_site_label
_atom_site_fract_x
_atom_site_fract_y
_atom_site_fract_z
Si Si1 0.893858 0.488665 0.351277
Si Si2 0.729102 0.336655 0.101793
Si Si3 0.471689 0.577410 0.988443
Si Si4 0.193408 0.314157 0.414673
Si Si5 0.835060 0.845464 0.773944
Si Si6 0.584082 0.559189 0.149061
O O1 0.927045 0.500000 0.250000
O O2 0.816811 0.600572 0.361114
O O3 0.853813 0.328006 0.373092
O O4 0.969440 0.512906 0.420313
O O5 0.691729 0.229056 0.178524
O O6 0.661589 0.472464 0.100641
O O7 0.750000 0.282101 0.000000
O O8 0.500000 0.750000 0.981364
O O9 0.375825 0.574990 0.956705
O O10 0.502715 0.533546 0.087828
O O11 0.250000 0.266128 0.500000
O O12 0.253157 0.376252 0.336173
O O13 0.888936 0.729065 0.833346
O O14 0.876861 0.000000 0.750000
O O15 0.575415 0.500000 0.250000
#
# Coordination Sequence:
#
# PCOD9334600 Si02
#       6
#     8   8   8   8   8   8
#     4  11  18  34  64  96 127 160 220 284 316 380
#     4  11  19  36  69 101 129 171 228 281 318 387
#     4  10  22  35  61 100 126 166 215 285 333 378
#     4  11  22  40  63  93 133 170 220 267 339 401
#     4  11  23  38  63 102 141 177 209 263 346 416
#     4  10  20  40  68  99 125 171 233 277 316 385
#
# _framework density 22.663229999999999
#
# number of rings (size 3 to 8) (size 9 to 14) (size 15 to 20)
#    0.000    1.333    5.000    3.000    0.000    1.333 
#    0.000    3.333    0.000    1.000   17.333    0.000 
#    0.000    0.000    0.000    0.000    0.000    0.000 
#
# Total GULP energy -134206.365662 kJ/mol
# GULP energy per Si atom -5591.931903 kJ/mol
# Density = 2.261165 g / cm^3
# Si number density = 22.663230 Si / 1000 Ang^3
#
#
#
# Elastic Constant Matrix: (Units=GPa)
#
#
# Indices 1 2 3 4 5 6 
#
# 1 94.4884 21.8146 56.7603 0.0000 0.0000 0.0000
# 2 21.8146 58.0188 22.7338 0.0000 0.0000 0.0000
# 3 56.7603 22.7338 170.3261 0.0000 0.0000 0.0000
# 4 0.0000 0.0000 0.0000 23.1046 0.0000 0.0000
# 5 0.0000 0.0000 0.0000 0.0000 43.2212 0.0000
# 6 0.0000 0.0000 0.0000 0.0000 0.0000 -4.6222
#
#
#
# Elastic Compliance Matrix: (Units=1/GPa)
#
#
# Indices 1 2 3 4 5 6 
#
# 1 0.013911 -0.003602 -0.004155 0.000000 0.000000 0.000000
# 2 -0.003602 0.019120 -0.001352 0.000000 0.000000 0.000000
# 3 -0.004155 -0.001352 0.007436 0.000000 0.000000 0.000000
# 4 0.000000 0.000000 0.000000 0.043281 0.000000 0.000000
# 5 0.000000 0.000000 0.000000 0.000000 0.023137 0.000000
# 6 0.000000 0.000000 0.000000 0.000000 0.000000 -0.216347
#
#
# Mechanical properties :
#
#
# Convention : Reuss Voigt Hill
#
# Bulk Modulus (GPa) = 44.94530 58.38341 51.66435
# Shear Modulus (GPa) = -59.64561 27.10902 -16.26830
#
# Velocity S-wave (km/s) = -5.13570 3.46232 -2.68214
# Velocity P-wave (km/s) = 3.91054 6.46535 3.64064
#
# Compressibility (1/GPa) = 0.02224927
#
# Stress axis : x y z
#
# Youngs Moduli (GPa) = 71.88609 52.30178 134.47935
#
# Poissons Ratio (x) = 0.18841 0.55875
# Poissons Ratio (y) = 0.25896 0.18175
# Poissons Ratio (z) = 0.29868 0.07069
#
# Static dielectric constant tensor:
#      x y z
#    x 1.845680 0.000000 0.000000 
#    y 0.000000 1.863160 0.000000 
#    z 0.000000 0.000000 1.832190 
# 
# From -- ./inp_files/27047.got.cif
#   From: 2010.05.17/outbox.cif.g08.bks.cpg/sg24_14_cif.got.tgz:27047.got - 2010.06.04 00:33:39.
