data_PCOD9334445
_publ_section_title
;
Structure prediction by ZEFSAII (Michael W. Deem and Ramdas Pophale) SiO2 
 PCOD9334445
Probable space group: I 21 21 21
;
_chemical_formula_sum "Si O2"
_cell_formula_units_Z 64
_cell_length_a 15.098528
_cell_length_b 12.030098
_cell_length_c 16.627013
_cell_angle_alpha 90.000000
_cell_angle_beta 90.000000
_cell_angle_gamma 90.000000
_cell_volume 3020.076961
_symmetry_space_group_name_H-M "I 21 21 21"
_symmetry_group_IT_number 24
_symmetry_cell_setting 'orthorhombic'
loop_
_space_group_symop_operation_xyz
x,y,z
-x,1/2-y,z
x,-y,1/2-z
1/2-x,y,-z
1/2+x,1/2+y,1/2+z
1/2-x,-y,1/2+z
1/2+x,1/2-y,-z
-x,1/2+y,1/2-z
loop_
_atom_site_type_symbol
_atom_site_label
_atom_site_fract_x
_atom_site_fract_y
_atom_site_fract_z
Si Si1 0.149681 0.324361 0.930631
Si Si2 0.604818 0.248947 0.774513
Si Si3 0.154476 0.676000 0.100079
Si Si4 0.663903 0.919368 0.600189
Si Si5 0.134344 0.304771 0.576920
Si Si6 0.145474 0.913774 0.829972
Si Si7 0.236433 0.881210 0.657516
Si Si8 0.044770 0.512470 0.659797
O O1 0.230239 0.410015 0.911012
O O2 0.190659 0.206439 0.903478
O O3 0.069541 0.368455 0.876913
O O4 0.129086 0.345381 0.024532
O O5 0.500000 0.250000 0.787884
O O6 0.624773 0.239988 0.679723
O O7 0.640677 0.137462 0.816326
O O8 0.664020 0.343517 0.819045
O O9 0.131391 0.545001 0.100261
O O10 0.260807 0.679537 0.092314
O O11 0.117765 0.721121 0.016265
O O12 0.112897 0.197336 0.628410
O O13 0.084770 0.415034 0.605028
O O14 0.184589 0.878517 0.743325
O O15 0.059402 0.992017 0.834027
O O16 0.222304 0.991053 0.869331
O O17 0.082220 0.500000 0.750000
#
# Coordination Sequence:
#
# PCOD9334445 Si02
#       8
#     8   8   8   8   8   8   8   8
#     4  10  20  38  69  96 127 168 210 277 334 380
#     4  11  25  44  70  96 120 173 228 283 334 392
#     4  11  21  42  68  95 127 168 218 282 340 380
#     4  10  20  43  65  99 126 156 220 285 347 377
#     4  11  22  39  66  98 132 174 218 271 320 399
#     4  11  23  43  59  94 141 186 204 251 326 406
#     4  10  22  45  66  88 139 174 216 263 329 408
#     4  12  22  34  64 101 131 166 225 262 318 390
#
# _framework density 21.191514000000002
#
# number of rings (size 3 to 8) (size 9 to 14) (size 15 to 20)
#    0.000    1.250    5.000    2.250    1.750    1.500 
#    6.750    5.000    0.000    0.000    0.000    0.000 
#    0.000    0.000    0.000    0.000    0.000    0.000 
#
# Total GULP energy -178536.325737 kJ/mol
# GULP energy per Si atom -5579.260179 kJ/mol
# Density = 2.114328 g / cm^3
# Si number density = 21.191514 Si / 1000 Ang^3
#
#
#
# Elastic Constant Matrix: (Units=GPa)
#
#
# Indices 1 2 3 4 5 6 
#
# 1 77.7079 -3.9275 5.2520 0.0000 0.0000 0.0000
# 2 -3.9275 46.2823 -14.4699 0.0000 0.0000 0.0000
# 3 5.2520 -14.4699 55.7485 0.0000 0.0000 0.0000
# 4 0.0000 0.0000 0.0000 11.5023 0.0000 0.0000
# 5 0.0000 0.0000 0.0000 0.0000 2.1644 0.0000
# 6 0.0000 0.0000 0.0000 0.0000 0.0000 19.6156
#
#
#
# Elastic Compliance Matrix: (Units=1/GPa)
#
#
# Indices 1 2 3 4 5 6 
#
# 1 0.012977 0.000782 -0.001019 0.000000 0.000000 0.000000
# 2 0.000782 0.023562 0.006042 0.000000 0.000000 0.000000
# 3 -0.001019 0.006042 0.019602 0.000000 0.000000 0.000000
# 4 0.000000 0.000000 0.000000 0.086939 0.000000 0.000000
# 5 0.000000 0.000000 0.000000 0.000000 0.462020 0.000000
# 6 0.000000 0.000000 0.000000 0.000000 0.000000 0.050980
#
#
# Mechanical properties :
#
#
# Convention : Reuss Voigt Hill
#
# Bulk Modulus (GPa) = 14.75995 17.04979 15.90487
# Shear Modulus (GPa) = 7.49565 19.51540 13.50553
#
# Velocity S-wave (km/s) = 1.88276 3.03794 2.52724
# Velocity P-wave (km/s) = 3.42148 4.51314 4.00468
#
# Compressibility (1/GPa) = 0.06775091
#
# Stress axis : x y z
#
# Youngs Moduli (GPa) = 77.05851 42.44142 51.01526
#
# Poissons Ratio (x) = -0.03321 0.05201
# Poissons Ratio (y) = -0.06030 -0.30823
# Poissons Ratio (z) = 0.07856 -0.25643
#
# Static dielectric constant tensor:
#      x y z
#    x 1.785250 0.000000 0.000000 
#    y 0.000000 1.792590 0.000000 
#    z 0.000000 0.000000 1.803960 
# 
# From -- ./inp_files/30886.got.cif
#   From: 2010.05.17/outbox.cif.g08.bks.cpg/sg24_16_cif.got.tgz:30886.got - 2010.06.04 00:33:39.
