data_PCOD9334477
_publ_section_title
;
Structure prediction by ZEFSAII (Michael W. Deem and Ramdas Pophale) SiO2 
 PCOD9334477
Probable space group: I 21 21 21
;
_chemical_formula_sum "Si O2"
_cell_formula_units_Z 36
_cell_length_a 27.487273
_cell_length_b 5.204292
_cell_length_c 10.638087
_cell_angle_alpha 90.000000
_cell_angle_beta 90.000000
_cell_angle_gamma 90.000000
_cell_volume 1521.797440
_symmetry_space_group_name_H-M "I 21 21 21"
_symmetry_group_IT_number 24
_symmetry_cell_setting 'orthorhombic'
loop_
_space_group_symop_operation_xyz
x,y,z
-x,1/2-y,z
x,-y,1/2-z
1/2-x,y,-z
1/2+x,1/2+y,1/2+z
1/2-x,-y,1/2+z
1/2+x,1/2-y,-z
-x,1/2+y,1/2-z
loop_
_atom_site_type_symbol
_atom_site_label
_atom_site_fract_x
_atom_site_fract_y
_atom_site_fract_z
Si Si1 0.855984 0.012168 0.514050
Si Si2 0.408542 0.992241 0.477286
Si Si3 0.345076 0.500000 0.750000
Si Si4 0.473310 0.000000 0.250000
Si Si5 0.535387 0.500000 0.750000
Si Si6 0.250000 0.242873 0.500000
Si Si7 0.220328 0.000000 0.250000
O O1 0.887481 0.236202 0.576566
O O2 0.875309 0.049469 0.371980
O O3 0.799281 0.090092 0.510448
O O4 0.864948 0.714968 0.536469
O O5 0.445647 0.897054 0.372534
O O6 0.432260 0.988361 0.618632
O O7 0.312415 0.250115 0.773596
O O8 0.500000 0.750000 0.198868
O O9 0.500000 0.750000 0.754515
O O10 0.248679 0.070659 0.375427
#
# Coordination Sequence:
#
# PCOD9334477 Si02
#       7
#     8   8   4   4   4   4   4
#     4  11  23  41  66  97 137 179 227 272 322 383
#     4  12  25  43  69 102 135 171 221 278 329 397
#     4  10  20  39  62  89 128 175 218 276 336 375
#     4  12  26  49  72  96 136 177 212 267 354 417
#     4  12  24  44  74 103 128 163 218 278 342 414
#     4  10  24  44  68  96 138 190 228 270 324 384
#     4  10  22  38  62  90 122 175 238 275 316 374
#
# _framework density 23.656237000000001
#
# number of rings (size 3 to 8) (size 9 to 14) (size 15 to 20)
#    0.000    0.889    0.000    8.000    0.000    9.778 
#    0.000    6.667    0.000    1.333    0.000    0.000 
#    0.000    0.000    0.000    0.000    0.000    0.000 
#
# Total GULP energy -100435.316657 kJ/mol
# GULP energy per Si atom -5579.739814 kJ/mol
# Density = 2.360239 g / cm^3
# Si number density = 23.656237 Si / 1000 Ang^3
#
#
#
# Elastic Constant Matrix: (Units=GPa)
#
#
# Indices 1 2 3 4 5 6 
#
# 1 67.8023 42.7046 8.1607 0.0000 0.0000 0.0000
# 2 42.7046 139.0731 11.4560 0.0000 0.0000 0.0000
# 3 8.1607 11.4560 94.3190 0.0000 0.0000 0.0000
# 4 0.0000 0.0000 0.0000 26.9703 0.0000 0.0000
# 5 0.0000 0.0000 0.0000 0.0000 32.9826 0.0000
# 6 0.0000 0.0000 0.0000 0.0000 0.0000 44.4263
#
#
#
# Elastic Compliance Matrix: (Units=1/GPa)
#
#
# Indices 1 2 3 4 5 6 
#
# 1 0.018363 -0.005563 -0.000913 0.000000 0.000000 0.000000
# 2 -0.005563 0.008949 -0.000606 0.000000 0.000000 0.000000
# 3 -0.000913 -0.000606 0.010755 0.000000 0.000000 0.000000
# 4 0.000000 0.000000 0.000000 0.037078 0.000000 0.000000
# 5 0.000000 0.000000 0.000000 0.000000 0.030319 0.000000
# 6 0.000000 0.000000 0.000000 0.000000 0.000000 0.022509
#
#
# Mechanical properties :
#
#
# Convention : Reuss Voigt Hill
#
# Bulk Modulus (GPa) = 41.83699 47.31524 44.57611
# Shear Modulus (GPa) = 33.31033 36.80071 35.05552
#
# Velocity S-wave (km/s) = 3.75654 3.94845 3.85369
# Velocity P-wave (km/s) = 6.04477 6.38996 6.21976
#
# Compressibility (1/GPa) = 0.02390229
#
# Stress axis : x y z
#
# Youngs Moduli (GPa) = 54.45833 111.74855 92.98117
#
# Poissons Ratio (x) = 0.62170 0.08490
# Poissons Ratio (y) = 0.30297 0.05631
# Poissons Ratio (z) = 0.04972 0.06767
#
# Static dielectric constant tensor:
#      x y z
#    x 1.918220 0.000000 0.000000 
#    y 0.000000 1.936070 0.000000 
#    z 0.000000 0.000000 1.901430 
# 
# From -- ./inp_files/6233.got.cif
#   From: 2010.05.17/outbox.cif.g08.bks.cpg/sg24_4_cif.got.tgz:6233.got - 2010.06.04 00:33:39.
