data_PCOD9334414
_publ_section_title
;
Structure prediction by ZEFSAII (Michael W. Deem and Ramdas Pophale) SiO2 
 PCOD9334414
Probable space group: I 21 21 21
;
_chemical_formula_sum "Si O2"
_cell_formula_units_Z 60
_cell_length_a 8.340656
_cell_length_b 14.411142
_cell_length_c 22.740755
_cell_angle_alpha 90.000000
_cell_angle_beta 90.000000
_cell_angle_gamma 90.000000
_cell_volume 2733.401865
_symmetry_space_group_name_H-M "I 21 21 21"
_symmetry_group_IT_number 24
_symmetry_cell_setting 'orthorhombic'
loop_
_space_group_symop_operation_xyz
x,y,z
-x,1/2-y,z
x,-y,1/2-z
1/2-x,y,-z
1/2+x,1/2+y,1/2+z
1/2-x,-y,1/2+z
1/2+x,1/2-y,-z
-x,1/2+y,1/2-z
loop_
_atom_site_type_symbol
_atom_site_label
_atom_site_fract_x
_atom_site_fract_y
_atom_site_fract_z
Si Si1 0.522436 0.500000 0.250000
Si Si2 0.560077 0.352622 0.511760
Si Si3 0.689120 0.740614 0.190407
Si Si4 0.658028 0.314223 0.188006
Si Si5 0.861833 0.327171 0.942696
Si Si6 0.876555 0.980379 0.546714
Si Si7 0.752724 0.064249 0.660659
Si Si8 0.048467 0.143167 0.349435
O O1 0.614622 0.416210 0.215646
O O2 0.395476 0.545747 0.205150
O O3 0.500000 0.250000 0.496792
O O4 0.750000 0.363173 0.500000
O O5 0.447216 0.423828 0.477769
O O6 0.532221 0.368315 0.581134
O O7 0.500000 0.750000 0.194793
O O8 0.748056 0.739574 0.258716
O O9 0.728959 0.826046 0.147176
O O10 0.763020 0.645968 0.164983
O O11 0.500000 0.250000 0.179675
O O12 0.724244 0.320311 0.121455
O O13 0.000000 0.250000 0.948472
O O14 0.967183 0.420008 0.941775
O O15 0.750000 0.325055 0.000000
O O16 0.750000 0.939817 0.500000
O O17 0.780283 0.998369 0.606236
O O18 0.567090 0.068266 0.681015
O O19 0.000000 0.250000 0.332026
#
# Coordination Sequence:
#
# PCOD9334414 Si02
#       8
#     4   8   8   8   8   8   8   8
#     4  12  20  40  68  98 126 176 224 278 338 412
#     4  11  24  36  58  91 135 177 216 255 316 399
#     4  10  20  38  65  94 131 177 215 265 329 402
#     4  10  21  41  68  99 129 168 231 279 336 414
#     4  11  25  48  73  99 128 174 233 296 345 399
#     4  12  24  43  66  96 136 178 223 275 333 401
#     4  11  22  39  64  95 130 175 216 278 336 403
#     4   9  21  38  56  90 134 169 212 263 320 394
#
# _framework density 21.950668
#
# number of rings (size 3 to 8) (size 9 to 14) (size 15 to 20)
#    0.000    1.333    5.333    1.200    5.600    0.000 
#    2.400    4.000    0.000    0.000    0.000    0.000 
#    0.000    0.000    0.000    0.000    0.000    0.000 
#
# Total GULP energy -167101.294884 kJ/mol
# GULP energy per Si atom -5570.043163 kJ/mol
# Density = 2.190071 g / cm^3
# Si number density = 21.950668 Si / 1000 Ang^3
#
#
#
# Elastic Constant Matrix: (Units=GPa)
#
#
# Indices 1 2 3 4 5 6 
#
# 1 58.5974 0.8934 17.6127 0.0000 0.0000 0.0000
# 2 0.8934 51.8567 18.5921 0.0000 0.0000 0.0000
# 3 17.6127 18.5921 93.9493 0.0000 0.0000 0.0000
# 4 0.0000 0.0000 0.0000 7.7273 0.0000 0.0000
# 5 0.0000 0.0000 0.0000 0.0000 34.4849 0.0000
# 6 0.0000 0.0000 0.0000 0.0000 0.0000 29.8259
#
#
#
# Elastic Compliance Matrix: (Units=1/GPa)
#
#
# Indices 1 2 3 4 5 6 
#
# 1 0.018130 0.000975 -0.003592 0.000000 0.000000 0.000000
# 2 0.000975 0.020809 -0.004301 0.000000 0.000000 0.000000
# 3 -0.003592 -0.004301 0.012169 0.000000 0.000000 0.000000
# 4 0.000000 0.000000 0.000000 0.129412 0.000000 0.000000
# 5 0.000000 0.000000 0.000000 0.000000 0.028998 0.000000
# 6 0.000000 0.000000 0.000000 0.000000 0.000000 0.033528
#
#
# Mechanical properties :
#
#
# Convention : Reuss Voigt Hill
#
# Bulk Modulus (GPa) = 26.82888 30.95554 28.89221
# Shear Modulus (GPa) = 18.56630 25.56131 22.06380
#
# Velocity S-wave (km/s) = 2.91145 3.41616 3.17386
# Velocity P-wave (km/s) = 4.85293 5.44914 5.15966
#
# Compressibility (1/GPa) = 0.03727327
#
# Stress axis : x y z
#
# Youngs Moduli (GPa) = 55.15611 48.05594 82.17912
#
# Poissons Ratio (x) = -0.04688 0.29518
# Poissons Ratio (y) = -0.05380 0.35344
# Poissons Ratio (z) = 0.19812 0.20668
#
# Static dielectric constant tensor:
#      x y z
#    x 2.023360 0.000000 0.000000 
#    y 0.000000 1.860490 0.000000 
#    z 0.000000 0.000000 1.836640 
# 
# From -- ./inp_files/35244.got.cif
#   From: 2010.05.17/outbox.cif.g08.bks.cpg/sg24_18_cif.got.tgz:35244.got - 2010.06.04 00:33:39.
