data_PCOD9334854
_publ_section_title
;
Structure prediction by ZEFSAII (Michael W. Deem and Ramdas Pophale) SiO2 
 PCOD9334854
Probable space group: I 21 21 21
;
_chemical_formula_sum "Si O2"
_cell_formula_units_Z 32
_cell_length_a 17.204520
_cell_length_b 13.987982
_cell_length_c 5.518211
_cell_angle_alpha 90.000000
_cell_angle_beta 90.000000
_cell_angle_gamma 90.000000
_cell_volume 1327.993434
_symmetry_space_group_name_H-M "I 21 21 21"
_symmetry_group_IT_number 24
_symmetry_cell_setting 'orthorhombic'
loop_
_space_group_symop_operation_xyz
x,y,z
-x,1/2-y,z
x,-y,1/2-z
1/2-x,y,-z
1/2+x,1/2+y,1/2+z
1/2-x,-y,1/2+z
1/2+x,1/2-y,-z
-x,1/2+y,1/2-z
loop_
_atom_site_type_symbol
_atom_site_label
_atom_site_fract_x
_atom_site_fract_y
_atom_site_fract_z
Si Si1 0.199573 0.500000 0.750000
Si Si2 0.440678 0.163357 0.362440
Si Si3 0.089042 0.861569 0.370168
Si Si4 0.750000 0.547326 0.500000
Si Si5 0.162599 0.294874 0.895219
O O1 0.250000 0.484975 0.500000
O O2 0.153012 0.402190 0.800321
O O3 0.500000 0.250000 0.379324
O O4 0.441868 0.109378 0.612687
O O5 0.357161 0.217421 0.315878
O O6 0.455020 0.108784 0.112677
O O7 0.176355 0.898151 0.393953
O O8 0.101480 0.745706 0.403857
O O9 0.781239 0.500000 0.750000
O O10 0.250000 0.290632 0.000000
#
# Coordination Sequence:
#
# PCOD9334854 Si02
#       5
#     4   8   8   4   8
#     4  10  22  32  54  90 120 142 186 238 304 352
#     4  10  21  37  63  89 119 166 204 242 302 379
#     4  10  21  38  62  83 122 154 206 246 311 357
#     4  12  24  38  62  94 122 158 210 278 320 352
#     4   9  21  35  62  87 118 151 194 249 298 358
#
# _framework density 24.096503999999999
#
# number of rings (size 3 to 8) (size 9 to 14) (size 15 to 20)
#    1.500    0.500    1.250    2.250    7.000    2.000 
#    0.000    0.000    8.250    0.000    0.000    0.000 
#    0.000    0.000    0.000    0.000    0.000    0.000 
#
# Total GULP energy -89072.136480 kJ/mol
# GULP energy per Si atom -5567.008530 kJ/mol
# Density = 2.404166 g / cm^3
# Si number density = 24.096504 Si / 1000 Ang^3
#
#
#
# Elastic Constant Matrix: (Units=GPa)
#
#
# Indices 1 2 3 4 5 6 
#
# 1 47.2586 -5.2521 30.7766 0.0000 0.0000 0.0000
# 2 -5.2521 82.4113 29.2073 0.0000 0.0000 0.0000
# 3 30.7766 29.2073 222.5675 0.0000 0.0000 0.0000
# 4 0.0000 0.0000 0.0000 34.7677 0.0000 0.0000
# 5 0.0000 0.0000 0.0000 0.0000 27.8420 0.0000
# 6 0.0000 0.0000 0.0000 0.0000 0.0000 -3.5053
#
#
#
# Elastic Compliance Matrix: (Units=1/GPa)
#
#
# Indices 1 2 3 4 5 6 
#
# 1 0.023864 0.002822 -0.003670 0.000000 0.000000 0.000000
# 2 0.002822 0.013060 -0.002104 0.000000 0.000000 0.000000
# 3 -0.003670 -0.002104 0.005277 0.000000 0.000000 0.000000
# 4 0.000000 0.000000 0.000000 0.028762 0.000000 0.000000
# 5 0.000000 0.000000 0.000000 0.000000 0.035917 0.000000
# 6 0.000000 0.000000 0.000000 0.000000 0.000000 -0.285282
#
#
# Mechanical properties :
#
#
# Convention : Reuss Voigt Hill
#
# Bulk Modulus (GPa) = 27.55187 51.30009 39.42598
# Shear Modulus (GPa) = -31.17221 31.65460 0.24119
#
# Velocity S-wave (km/s) = -3.60062 3.62838 0.31672
# Velocity P-wave (km/s) = 2.41396 6.23612 4.06583
#
# Compressibility (1/GPa) = 0.03629517
#
# Stress axis : x y z
#
# Youngs Moduli (GPa) = 41.90428 76.57114 189.51479
#
# Poissons Ratio (x) = -0.21605 0.69555
# Poissons Ratio (y) = -0.11824 0.39874
# Poissons Ratio (z) = 0.15380 0.16110
#
# Static dielectric constant tensor:
#      x y z
#    x 1.903680 0.000000 0.000000 
#    y 0.000000 2.023100 0.000000 
#    z 0.000000 0.000000 2.115510 
# 
# From -- ./inp_files/4629.got.cif
#   From: 2010.05.17/outbox.cif.g08.bks.cpg/sg24_3_cif.got.tgz:4629.got - 2010.06.04 00:33:39.
