data_PCOD9334709
_publ_section_title
;
Structure prediction by ZEFSAII (Michael W. Deem and Ramdas Pophale) SiO2 
 PCOD9334709
Probable space group: I 21 21 21
;
_chemical_formula_sum "Si O2"
_cell_formula_units_Z 56
_cell_length_a 30.438450
_cell_length_b 15.432506
_cell_length_c 5.203235
_cell_angle_alpha 90.000000
_cell_angle_beta 90.000000
_cell_angle_gamma 90.000000
_cell_volume 2444.175738
_symmetry_space_group_name_H-M "I 21 21 21"
_symmetry_group_IT_number 24
_symmetry_cell_setting 'orthorhombic'
loop_
_space_group_symop_operation_xyz
x,y,z
-x,1/2-y,z
x,-y,1/2-z
1/2-x,y,-z
1/2+x,1/2+y,1/2+z
1/2-x,-y,1/2+z
1/2+x,1/2-y,-z
-x,1/2+y,1/2-z
loop_
_atom_site_type_symbol
_atom_site_label
_atom_site_fract_x
_atom_site_fract_y
_atom_site_fract_z
Si Si1 0.114207 0.591923 0.637925
Si Si2 0.024603 0.083948 0.569334
Si Si3 0.202444 0.591586 0.365080
Si Si4 0.952007 0.000000 0.250000
Si Si5 0.723137 0.265812 0.734199
Si Si6 0.399737 0.000000 0.750000
Si Si7 0.130667 0.826492 0.414122
Si Si8 0.584184 0.260762 0.409301
O O1 0.128888 0.500000 0.750000
O O2 0.160606 0.626749 0.527381
O O3 0.078803 0.557846 0.432122
O O4 0.089500 0.659281 0.827904
O O5 0.068999 0.054471 0.432576
O O6 0.039374 0.181956 0.647846
O O7 0.015435 0.000000 0.750000
O O8 0.984388 0.072107 0.375299
O O9 0.188994 0.500000 0.250000
O O10 0.250000 0.577768 0.500000
O O11 0.210207 0.667097 0.159019
O O12 0.750000 0.304994 0.500000
O O13 0.678550 0.311158 0.805951
O O14 0.750000 0.260519 0.000000
O O15 0.374748 0.070662 0.909177
O O16 0.118872 0.798944 0.702057
O O17 0.098639 0.777210 0.205808
#
# Coordination Sequence:
#
# PCOD9334709 Si02
#       8
#     8   8   8   4   8   4   8   8
#     4  12  27  46  69 104 148 196 245 309 374 442
#     4  10  20  45  75 103 135 180 240 298 364 439
#     4  11  23  40  67  98 136 192 250 301 354 427
#     4  11  26  48  72 102 152 194 230 314 384 441
#     4  11  24  41  63  98 145 188 234 297 361 431
#     4   9  20  38  74 104 136 170 242 296 354 433
#     4  11  22  42  71 108 136 186 237 301 364 429
#     4  11  25  43  77 103 139 186 246 297 360 438
#
# _framework density 22.91161
#
# number of rings (size 3 to 8) (size 9 to 14) (size 15 to 20)
#    0.000    1.143    3.571    2.143    6.000    0.000 
#    0.000    5.000    0.000    0.000    0.000    0.000 
#    0.000    0.000    0.000    0.000    0.000    0.000 
#
# Total GULP energy -156104.705876 kJ/mol
# GULP energy per Si atom -5575.168067 kJ/mol
# Density = 2.285946 g / cm^3
# Si number density = 22.911610 Si / 1000 Ang^3
#
#
#
# Elastic Constant Matrix: (Units=GPa)
#
#
# Indices 1 2 3 4 5 6 
#
# 1 118.5617 27.7553 18.2238 0.0003 0.0000 -0.0005
# 2 27.7553 76.5354 -13.8192 0.0003 0.0001 -0.0018
# 3 18.2238 -13.8192 41.5204 0.0014 0.0021 -0.0095
# 4 0.0003 0.0003 0.0014 -3.5383 0.0006 -0.0149
# 5 0.0000 0.0001 0.0021 0.0006 -54.7275 -0.0002
# 6 -0.0005 -0.0018 -0.0095 -0.0149 -0.0002 -789.9812
#
#
#
# Elastic Compliance Matrix: (Units=1/GPa)
#
#
# Indices 1 2 3 4 5 6 
#
# 1 0.010564 -0.004967 -0.006290 -0.000002 0.000000 0.000000
# 2 -0.004967 0.016236 0.007584 0.000004 0.000000 0.000000
# 3 -0.006290 0.007584 0.029369 0.000012 0.000001 0.000000
# 4 -0.000002 0.000004 0.000012 -0.282622 -0.000003 0.000005
# 5 0.000000 0.000000 0.000001 -0.000003 -0.018272 0.000000
# 6 0.000000 0.000000 0.000000 0.000005 0.000000 -0.001266
#
#
# Mechanical properties :
#
#
# Convention : Reuss Voigt Hill
#
# Bulk Modulus (GPa) = 20.48149 33.43747 26.95948
# Shear Modulus (GPa) = -22.48489 -156.01888 -89.25189
#
# Velocity S-wave (km/s) = -3.13609 -8.26098 -6.24815
# Velocity P-wave (km/s) = 2.03830 8.73876 6.34510
#
# Compressibility (1/GPa) = 0.04882456
#
# Stress axis : x y z
#
# Youngs Moduli (GPa) = 94.66230 61.59041 34.04922
#
# Poissons Ratio (x) = 0.30589 0.21416
# Poissons Ratio (y) = 0.47015 -0.25822
# Poissons Ratio (z) = 0.59539 -0.46709
#
# Static dielectric constant tensor:
#      x y z
#    x 2.126230 0.000000 -0.000020 
#    y 0.000000 2.033080 0.000000 
#    z -0.000020 0.000000 2.200190 
# 
# From -- ./inp_files/7757.got.cif
#   From: 2010.05.17/outbox.cif.g08.bks.cpg/sg24_4_cif.got.tgz:7757.got - 2010.06.04 00:33:39.
