data_PCOD9334432
_publ_section_title
;
Structure prediction by ZEFSAII (Michael W. Deem and Ramdas Pophale) SiO2 
 PCOD9334432
Probable space group: I 21 21 21
;
_chemical_formula_sum "Si O2"
_cell_formula_units_Z 60
_cell_length_a 8.661390
_cell_length_b 16.100328
_cell_length_c 19.902656
_cell_angle_alpha 90.000000
_cell_angle_beta 90.000000
_cell_angle_gamma 90.000000
_cell_volume 2775.449659
_symmetry_space_group_name_H-M "I 21 21 21"
_symmetry_group_IT_number 24
_symmetry_cell_setting 'orthorhombic'
loop_
_space_group_symop_operation_xyz
x,y,z
-x,1/2-y,z
x,-y,1/2-z
1/2-x,y,-z
1/2+x,1/2+y,1/2+z
1/2-x,-y,1/2+z
1/2+x,1/2-y,-z
-x,1/2+y,1/2-z
loop_
_atom_site_type_symbol
_atom_site_label
_atom_site_fract_x
_atom_site_fract_y
_atom_site_fract_z
Si Si1 0.705234 0.337293 0.829225
Si Si2 0.315044 0.595738 0.932897
Si Si3 0.500000 0.750000 0.923070
Si Si4 0.567427 0.111277 0.323893
Si Si5 0.779087 0.340614 0.319532
Si Si6 0.830140 0.792705 0.570169
Si Si7 0.049501 0.412718 0.823912
Si Si8 0.014133 0.998890 0.324716
O O1 0.685117 0.303229 0.753814
O O2 0.722587 0.268710 0.885982
O O3 0.577851 0.407915 0.840883
O O4 0.872580 0.382279 0.826505
O O5 0.419272 0.672783 0.959186
O O6 0.186487 0.632188 0.882188
O O7 0.410678 0.535064 0.884232
O O8 0.250000 0.554266 0.000000
O O9 0.373004 0.792748 0.875595
O O10 0.402686 0.155113 0.332437
O O11 0.616010 0.123421 0.246227
O O12 0.548154 0.011485 0.327118
O O13 0.844816 0.435185 0.317137
O O14 0.750000 0.808781 0.500000
O O15 0.859364 0.873988 0.614418
O O16 0.000000 0.750000 0.562098
O O17 0.938041 0.000000 0.250000
#
# Coordination Sequence:
#
# PCOD9334432 Si02
#       8
#     8   8   4   8   8   8   8   8
#     4   9  17  37  66  92 123 169 217 262 322 378
#     4  11  26  43  60  95 130 169 217 266 334 394
#     4  10  24  42  62  90 134 158 208 272 326 400
#     4  10  20  38  67  94 121 164 216 266 323 376
#     4   9  18  37  67  97 121 162 214 269 327 388
#     4  10  22  41  58  90 135 173 216 259 314 388
#     4   9  19  37  67  92 124 162 216 267 309 380
#     4   9  18  39  66  94 130 164 212 272 322 391
#
# _framework density 21.618119
#
# number of rings (size 3 to 8) (size 9 to 14) (size 15 to 20)
#    0.000    2.400    1.333    0.000    3.733    2.133 
#    8.400    2.000    0.000    0.000    0.000    0.000 
#    0.000    0.000    0.000    0.000    0.000    0.000 
#
# Total GULP energy -167665.588404 kJ/mol
# GULP energy per Si atom -5588.852947 kJ/mol
# Density = 2.156892 g / cm^3
# Si number density = 21.618119 Si / 1000 Ang^3
#
#
#
# Elastic Constant Matrix: (Units=GPa)
#
#
# Indices 1 2 3 4 5 6 
#
# 1 74.9406 15.2070 44.4354 0.0000 0.0000 0.0000
# 2 15.2070 53.0325 22.7258 0.0000 0.0000 0.0000
# 3 44.4354 22.7258 126.0485 0.0000 0.0000 0.0000
# 4 0.0000 0.0000 0.0000 18.2021 0.0000 0.0000
# 5 0.0000 0.0000 0.0000 0.0000 31.9585 0.0000
# 6 0.0000 0.0000 0.0000 0.0000 0.0000 24.4609
#
#
#
# Elastic Compliance Matrix: (Units=1/GPa)
#
#
# Indices 1 2 3 4 5 6 
#
# 1 0.017177 -0.002526 -0.005600 0.000000 0.000000 0.000000
# 2 -0.002526 0.020807 -0.002861 0.000000 0.000000 0.000000
# 3 -0.005600 -0.002861 0.010423 0.000000 0.000000 0.000000
# 4 0.000000 0.000000 0.000000 0.054939 0.000000 0.000000
# 5 0.000000 0.000000 0.000000 0.000000 0.031291 0.000000
# 6 0.000000 0.000000 0.000000 0.000000 0.000000 0.040882
#
#
# Mechanical properties :
#
#
# Convention : Reuss Voigt Hill
#
# Bulk Modulus (GPa) = 37.83051 46.52865 42.17958
# Shear Modulus (GPa) = 24.23631 26.36786 25.30208
#
# Velocity S-wave (km/s) = 3.35193 3.49623 3.42484
# Velocity P-wave (km/s) = 5.70246 6.15368 5.93236
#
# Compressibility (1/GPa) = 0.02643369
#
# Stress axis : x y z
#
# Youngs Moduli (GPa) = 58.21796 48.06171 95.93830
#
# Poissons Ratio (x) = 0.12139 0.53725
# Poissons Ratio (y) = 0.14704 0.27447
# Poissons Ratio (z) = 0.32601 0.13750
#
# Static dielectric constant tensor:
#      x y z
#    x 1.809580 0.000000 0.000000 
#    y 0.000000 1.795530 0.000000 
#    z 0.000000 0.000000 1.748060 
# 
# From -- ./inp_files/29691.got.cif
#   From: 2010.05.17/outbox.cif.g08.bks.cpg/sg24_15_cif.got.tgz:29691.got - 2010.06.04 00:33:39.
