data_PCOD9334694
_publ_section_title
;
Structure prediction by ZEFSAII (Michael W. Deem and Ramdas Pophale) SiO2 
 PCOD9334694
Probable space group: I 21 21 21
;
_chemical_formula_sum "Si O2"
_cell_formula_units_Z 48
_cell_length_a 24.702118
_cell_length_b 19.175023
_cell_length_c 5.283630
_cell_angle_alpha 90.000000
_cell_angle_beta 90.000000
_cell_angle_gamma 90.000000
_cell_volume 2502.663634
_symmetry_space_group_name_H-M "I 21 21 21"
_symmetry_group_IT_number 24
_symmetry_cell_setting 'orthorhombic'
loop_
_space_group_symop_operation_xyz
x,y,z
-x,1/2-y,z
x,-y,1/2-z
1/2-x,y,-z
1/2+x,1/2+y,1/2+z
1/2-x,-y,1/2+z
1/2+x,1/2-y,-z
-x,1/2+y,1/2-z
loop_
_atom_site_type_symbol
_atom_site_label
_atom_site_fract_x
_atom_site_fract_y
_atom_site_fract_z
Si Si1 0.133676 0.788670 0.398079
Si Si2 0.000000 0.250000 0.471565
Si Si3 0.285801 0.000000 0.250000
Si Si4 0.517981 0.500000 0.250000
Si Si5 0.188573 0.151741 0.601844
Si Si6 0.963775 0.647486 0.651567
Si Si7 0.427050 0.348091 0.870675
Si Si8 0.943717 0.000000 0.250000
O O1 0.171394 0.811574 0.634422
O O2 0.075211 0.826184 0.432574
O O3 0.121438 0.705742 0.414822
O O4 0.155662 0.815610 0.131456
O O5 0.958528 0.293383 0.641397
O O6 0.965288 0.192687 0.326306
O O7 0.250000 0.979835 0.500000
O O8 0.317419 0.068901 0.341268
O O9 0.551857 0.570272 0.272101
O O10 0.481544 0.492656 0.502184
O O11 0.250000 0.159672 0.500000
O O12 0.028266 0.644611 0.594198
O O13 0.412859 0.426479 0.785396
#
# Coordination Sequence:
#
# PCOD9334694 Si02
#       8
#     8   4   4   4   8   8   8   4
#     4  12  23  37  64  89 118 160 201 251 307 353
#     4  12  16  36  54  80 124 156 200 238 286 340
#     4  10  20  43  70  85 118 164 196 251 314 359
#     4  10  22  35  52  78 120 164 192 238 278 329
#     4  11  25  43  62  90 118 155 205 255 304 360
#     4  11  22  35  55  85 122 159 199 236 289 356
#     4  11  22  36  57  87 121 162 197 245 288 358
#     4  10  22  36  56  79 120 164 202 229 284 348
#
# _framework density 19.179566999999999
#
# number of rings (size 3 to 8) (size 9 to 14) (size 15 to 20)
#    0.000    1.000    5.000    3.500    0.000    0.667 
#    0.000    5.000    0.000    0.000    0.000    2.333 
#    0.000    1.333    0.000    0.000    0.000    0.000 
#
# Total GULP energy -133825.691120 kJ/mol
# GULP energy per Si atom -5576.070463 kJ/mol
# Density = 1.913591 g / cm^3
# Si number density = 19.179567 Si / 1000 Ang^3
#
#
#
# Elastic Constant Matrix: (Units=GPa)
#
#
# Indices 1 2 3 4 5 6 
#
# 1 62.4639 40.0681 28.4682 0.0000 0.0000 0.0000
# 2 40.0681 195.1482 38.9307 0.0000 0.0000 0.0000
# 3 28.4682 38.9307 111.7279 0.0000 0.0000 0.0000
# 4 0.0000 0.0000 0.0000 27.2922 0.0000 0.0000
# 5 0.0000 0.0000 0.0000 0.0000 34.1547 0.0000
# 6 0.0000 0.0000 0.0000 0.0000 0.0000 20.7167
#
#
#
# Elastic Compliance Matrix: (Units=1/GPa)
#
#
# Indices 1 2 3 4 5 6 
#
# 1 0.019919 -0.003307 -0.003923 0.000000 0.000000 0.000000
# 2 -0.003307 0.006056 -0.001268 0.000000 0.000000 0.000000
# 3 -0.003923 -0.001268 0.010392 0.000000 0.000000 0.000000
# 4 0.000000 0.000000 0.000000 0.036640 0.000000 0.000000
# 5 0.000000 0.000000 0.000000 0.000000 0.029279 0.000000
# 6 0.000000 0.000000 0.000000 0.000000 0.000000 0.048270
#
#
# Mechanical properties :
#
#
# Convention : Reuss Voigt Hill
#
# Bulk Modulus (GPa) = 51.62331 64.91934 58.27133
# Shear Modulus (GPa) = 28.73436 33.89091 31.31263
#
# Velocity S-wave (km/s) = 3.87483 4.20817 4.04493
# Velocity P-wave (km/s) = 6.85516 7.58507 7.22933
#
# Compressibility (1/GPa) = 0.01937109
#
# Stress axis : x y z
#
# Youngs Moduli (GPa) = 50.20454 165.11989 96.23200
#
# Poissons Ratio (x) = 0.54607 0.37751
# Poissons Ratio (y) = 0.16603 0.12198
# Poissons Ratio (z) = 0.19695 0.20930
#
# Static dielectric constant tensor:
#      x y z
#    x 1.711940 0.000000 0.000000 
#    y 0.000000 1.731010 0.000000 
#    z 0.000000 0.000000 1.739200 
# 
# From -- ./inp_files/6453.got.cif
#   From: 2010.05.17/outbox.cif.g08.bks.cpg/sg24_4_cif.got.tgz:6453.got - 2010.06.04 00:33:39.
