data_PCOD9334191
_publ_section_title
;
Structure prediction by ZEFSAII (Michael W. Deem and Ramdas Pophale) SiO2 
 PCOD9334191
Probable space group: I 21 21 21
;
_chemical_formula_sum "Si O2"
_cell_formula_units_Z 48
_cell_length_a 28.141776
_cell_length_b 9.953440
_cell_length_c 8.675553
_cell_angle_alpha 90.000000
_cell_angle_beta 90.000000
_cell_angle_gamma 90.000000
_cell_volume 2430.087279
_symmetry_space_group_name_H-M "I 21 21 21"
_symmetry_group_IT_number 24
_symmetry_cell_setting 'orthorhombic'
loop_
_space_group_symop_operation_xyz
x,y,z
-x,1/2-y,z
x,-y,1/2-z
1/2-x,y,-z
1/2+x,1/2+y,1/2+z
1/2-x,-y,1/2+z
1/2+x,1/2-y,-z
-x,1/2+y,1/2-z
loop_
_atom_site_type_symbol
_atom_site_label
_atom_site_fract_x
_atom_site_fract_y
_atom_site_fract_z
Si Si1 0.558619 0.471498 0.928490
Si Si2 0.552010 0.035535 0.572369
Si Si3 0.198853 0.335826 0.431718
Si Si4 0.801240 0.840938 0.432562
Si Si5 0.103207 0.221069 0.568875
Si Si6 0.599929 0.785639 0.426520
O O1 0.569732 0.500000 0.750000
O O2 0.503615 0.509729 0.952741
O O3 0.591039 0.567995 0.031809
O O4 0.568801 0.318908 0.974870
O O5 0.567826 0.185555 0.531899
O O6 0.563376 0.000000 0.750000
O O7 0.581544 0.934262 0.465563
O O8 0.250000 0.297347 0.500000
O O9 0.194031 0.497251 0.452346
O O10 0.196486 0.310406 0.248961
O O11 0.155968 0.262478 0.517350
O O12 0.750000 0.802231 0.500000
O O13 0.845484 0.775818 0.519871
O O14 0.095539 0.253754 0.747234
#
# Coordination Sequence:
#
# PCOD9334191 Si02
#       6
#     8   8   8   8   8   8
#     4  11  25  43  62  85 122 165 205 249 303 363
#     4  11  23  41  64  89 118 161 209 251 299 357
#     4  10  20  36  61  90 122 157 199 247 298 355
#     4  10  20  36  61  90 122 157 199 247 298 355
#     4  12  24  39  62  92 125 159 201 251 304 358
#     4  12  24  39  62  92 125 159 201 251 304 358
#
# _framework density 19.752375000000001
#
# number of rings (size 3 to 8) (size 9 to 14) (size 15 to 20)
#    0.000    1.000    1.667    6.000    0.000    8.000 
#    0.000    0.833    0.000    0.000    0.000    0.000 
#    0.000    0.000    0.000    0.000    0.000    0.000 
#
# Total GULP energy -134308.865899 kJ/mol
# GULP energy per Si atom -5596.202746 kJ/mol
# Density = 1.970742 g / cm^3
# Si number density = 19.752375 Si / 1000 Ang^3
#
#
#
# Elastic Constant Matrix: (Units=GPa)
#
#
# Indices 1 2 3 4 5 6 
#
# 1 70.0880 -12.8366 22.7242 0.0000 0.0000 0.0000
# 2 -12.8366 26.0519 -14.6973 0.0000 0.0000 0.0000
# 3 22.7242 -14.6973 83.3810 0.0000 0.0000 0.0000
# 4 0.0000 0.0000 0.0000 29.1443 0.0000 0.0000
# 5 0.0000 0.0000 0.0000 0.0000 25.7469 0.0000
# 6 0.0000 0.0000 0.0000 0.0000 0.0000 10.6757
#
#
#
# Elastic Compliance Matrix: (Units=1/GPa)
#
#
# Indices 1 2 3 4 5 6 
#
# 1 0.016510 0.006214 -0.003404 0.000000 0.000000 0.000000
# 2 0.006214 0.044963 0.006232 0.000000 0.000000 0.000000
# 3 -0.003404 0.006232 0.014019 0.000000 0.000000 0.000000
# 4 0.000000 0.000000 0.000000 0.034312 0.000000 0.000000
# 5 0.000000 0.000000 0.000000 0.000000 0.038840 0.000000
# 6 0.000000 0.000000 0.000000 0.000000 0.000000 0.093671
#
#
# Mechanical properties :
#
#
# Convention : Reuss Voigt Hill
#
# Bulk Modulus (GPa) = 10.68652 18.87796 14.78224
# Shear Modulus (GPa) = 19.57547 25.40208 22.48877
#
# Velocity S-wave (km/s) = 3.15150 3.59001 3.37788
# Velocity P-wave (km/s) = 4.32025 5.17323 4.76586
#
# Compressibility (1/GPa) = 0.09357587
#
# Stress axis : x y z
#
# Youngs Moduli (GPa) = 60.57077 22.24066 71.33014
#
# Poissons Ratio (x) = -0.13821 0.24281
# Poissons Ratio (y) = -0.37641 -0.44451
# Poissons Ratio (z) = 0.20619 -0.13860
#
# Static dielectric constant tensor:
#      x y z
#    x 1.674480 0.000000 0.000000 
#    y 0.000000 1.648750 0.000000 
#    z 0.000000 0.000000 1.670830 
# 
# From -- ./inp_files/16800.got.cif
#   From: 2010.05.17/outbox.cif.g08.bks.cpg/sg24_9_cif.got.tgz:16800.got - 2010.06.04 00:33:39.
