data_PCOD9334874
_publ_section_title
;
Structure prediction by ZEFSAII (Michael W. Deem and Ramdas Pophale) SiO2 
 PCOD9334874
Probable space group: I 21 21 21
;
_chemical_formula_sum "Si O2"
_cell_formula_units_Z 56
_cell_length_a 9.262109
_cell_length_b 17.374622
_cell_length_c 16.200663
_cell_angle_alpha 90.000000
_cell_angle_beta 90.000000
_cell_angle_gamma 90.000000
_cell_volume 2607.102107
_symmetry_space_group_name_H-M "I 21 21 21"
_symmetry_group_IT_number 24
_symmetry_cell_setting 'orthorhombic'
loop_
_space_group_symop_operation_xyz
x,y,z
-x,1/2-y,z
x,-y,1/2-z
1/2-x,y,-z
1/2+x,1/2+y,1/2+z
1/2-x,-y,1/2+z
1/2+x,1/2-y,-z
-x,1/2+y,1/2-z
loop_
_atom_site_type_symbol
_atom_site_label
_atom_site_fract_x
_atom_site_fract_y
_atom_site_fract_z
Si Si1 0.500000 0.250000 0.664156
Si Si2 0.421524 0.936866 0.313405
Si Si3 0.825136 0.748605 0.417362
Si Si4 0.787321 0.276097 0.754836
Si Si5 0.500000 0.750000 0.118996
Si Si6 0.822975 0.567894 0.417708
Si Si7 0.583498 0.143948 0.514470
Si Si8 0.415192 0.462057 0.013189
O O1 0.624910 0.286407 0.721363
O O2 0.544189 0.180576 0.602422
O O3 0.383581 0.853038 0.273807
O O4 0.262600 0.968000 0.342329
O O5 0.482779 0.000000 0.250000
O O6 0.516004 0.935325 0.398700
O O7 0.750000 0.778249 0.500000
O O8 0.740745 0.776194 0.335740
O O9 0.785521 0.657906 0.413284
O O10 0.000000 0.750000 0.417953
O O11 0.867621 0.235571 0.679523
O O12 0.481657 0.819751 0.055861
O O13 0.750000 0.533868 0.500000
O O14 0.990827 0.567882 0.436038
O O15 0.750000 0.167552 0.500000
O O16 0.573983 0.053637 0.499623
O O17 0.250000 0.441479 0.000000
#
# Coordination Sequence:
#
# PCOD9334874 Si02
#       8
#     4   8   8   8   4   8   8   8
#     4  11  22  40  63  96 132 170 215 260 340 389
#     4  10  21  39  61  91 121 164 216 263 319 383
#     4  10  21  38  57  83 114 156 205 258 318 382
#     4  11  23  40  62  89 128 162 210 274 321 391
#     4  11  22  40  59  94 128 164 207 262 328 385
#     4   8  18  37  55  79 115 150 202 250 301 376
#     4  10  21  38  63  94 131 168 211 263 324 406
#     4  10  21  40  63  88 125 168 209 264 323 391
#
# _framework density 21.479787000000002
#
# number of rings (size 3 to 8) (size 9 to 14) (size 15 to 20)
#    0.000    2.000    2.143    1.714    3.000    0.571 
#    5.143    0.714    0.000    0.000    0.000    0.000 
#    0.000    0.000    0.000    0.000    0.000    0.000 
#
# Total GULP energy -155869.758448 kJ/mol
# GULP energy per Si atom -5566.777087 kJ/mol
# Density = 2.143090 g / cm^3
# Si number density = 21.479787 Si / 1000 Ang^3
#
#
#
# Elastic Constant Matrix: (Units=GPa)
#
#
# Indices 1 2 3 4 5 6 
#
# 1 78.8263 11.7096 22.4047 0.0000 0.0000 0.0000
# 2 11.7096 70.2832 23.9270 0.0000 0.0000 0.0000
# 3 22.4047 23.9270 106.9157 0.0000 0.0000 0.0000
# 4 0.0000 0.0000 0.0000 12.1481 0.0000 0.0000
# 5 0.0000 0.0000 0.0000 0.0000 37.2320 0.0000
# 6 0.0000 0.0000 0.0000 0.0000 0.0000 23.0254
#
#
#
# Elastic Compliance Matrix: (Units=1/GPa)
#
#
# Indices 1 2 3 4 5 6 
#
# 1 0.013616 -0.001404 -0.002539 0.000000 0.000000 0.000000
# 2 -0.001404 0.015546 -0.003185 0.000000 0.000000 0.000000
# 3 -0.002539 -0.003185 0.010598 0.000000 0.000000 0.000000
# 4 0.000000 0.000000 0.000000 0.082317 0.000000 0.000000
# 5 0.000000 0.000000 0.000000 0.000000 0.026859 0.000000
# 6 0.000000 0.000000 0.000000 0.000000 0.000000 0.043430
#
#
# Mechanical properties :
#
#
# Convention : Reuss Voigt Hill
#
# Bulk Modulus (GPa) = 39.20902 41.34532 40.27717
# Shear Modulus (GPa) = 23.24230 27.68002 25.46116
#
# Velocity S-wave (km/s) = 3.29303 3.59368 3.44663
# Velocity P-wave (km/s) = 5.72296 6.04232 5.88481
#
# Compressibility (1/GPa) = 0.02550434
#
# Stress axis : x y z
#
# Youngs Moduli (GPa) = 73.44078 64.32372 94.35731
#
# Poissons Ratio (x) = 0.09032 0.23959
# Poissons Ratio (y) = 0.10312 0.30052
# Poissons Ratio (z) = 0.18648 0.20487
#
# Static dielectric constant tensor:
#      x y z
#    x 1.796260 0.000000 0.000000 
#    y 0.000000 1.886980 0.000000 
#    z 0.000000 0.000000 1.853300 
# 
# From -- ./inp_files/25095.got.cif
#   From: 2010.05.17/outbox.cif.g08.bks.cpg/sg24_13_cif.got.tgz:25095.got - 2010.06.04 00:33:39.
