data_PCOD9334700
_publ_section_title
;
Structure prediction by ZEFSAII (Michael W. Deem and Ramdas Pophale) SiO2 
 PCOD9334700
Probable space group: I 21 21 21
;
_chemical_formula_sum "Si O2"
_cell_formula_units_Z 40
_cell_length_a 12.039383
_cell_length_b 23.456083
_cell_length_c 6.316936
_cell_angle_alpha 90.000000
_cell_angle_beta 90.000000
_cell_angle_gamma 90.000000
_cell_volume 1783.882303
_symmetry_space_group_name_H-M "I 21 21 21"
_symmetry_group_IT_number 24
_symmetry_cell_setting 'orthorhombic'
loop_
_space_group_symop_operation_xyz
x,y,z
-x,1/2-y,z
x,-y,1/2-z
1/2-x,y,-z
1/2+x,1/2+y,1/2+z
1/2-x,-y,1/2+z
1/2+x,1/2-y,-z
-x,1/2+y,1/2-z
loop_
_atom_site_type_symbol
_atom_site_label
_atom_site_fract_x
_atom_site_fract_y
_atom_site_fract_z
Si Si1 0.618868 0.641583 0.958829
Si Si2 0.000000 0.250000 0.340618
Si Si3 0.851666 0.841545 0.381842
Si Si4 0.250000 0.415853 0.500000
Si Si5 0.871079 0.553699 0.402675
Si Si6 0.045168 0.573685 0.730179
O O1 0.582168 0.707626 0.965481
O O2 0.597860 0.609386 0.735046
O O3 0.750000 0.635234 0.000000
O O4 0.541345 0.608444 0.124594
O O5 0.932505 0.206428 0.198455
O O6 0.750000 0.811625 0.500000
O O7 0.809696 0.877246 0.178176
O O8 0.898075 0.884041 0.559690
O O9 0.147929 0.447258 0.621156
O O10 0.861422 0.500000 0.250000
O O11 0.750000 0.563870 0.500000
O O12 0.964391 0.538046 0.575720
#
# Coordination Sequence:
#
# PCOD9334700 Si02
#       6
#     8   4   8   4   8   8
#     4  12  26  44  68 110 152 197 253 312 385 465
#     4  12  24  40  62 106 146 204 246 304 374 452
#     4  10  23  39  64  99 137 192 243 299 361 438
#     4  10  20  44  68 102 136 198 242 298 376 458
#     4  12  26  46  75 116 150 197 251 324 395 458
#     4  11  22  44  72 106 147 191 249 307 379 455
#
# _framework density 22.423005
#
# number of rings (size 3 to 8) (size 9 to 14) (size 15 to 20)
#    0.000    0.800    6.000    0.600    1.400    3.200 
#    0.000    0.000    0.000    0.000  117.000    0.000 
#    0.000    0.000    0.000    0.000    0.000    0.000 
#
# Total GULP energy -111758.717997 kJ/mol
# GULP energy per Si atom -5587.935900 kJ/mol
# Density = 2.237197 g / cm^3
# Si number density = 22.423005 Si / 1000 Ang^3
#
#
#
# Elastic Constant Matrix: (Units=GPa)
#
#
# Indices 1 2 3 4 5 6 
#
# 1 134.7772 20.9041 67.4169 0.0012 0.0006 0.0007
# 2 20.9041 79.4235 34.0573 -0.0009 0.0000 -0.0005
# 3 67.4169 34.0573 130.3028 -0.0034 -0.0013 -0.0039
# 4 0.0012 -0.0009 -0.0034 6.9536 0.0032 -0.0006
# 5 0.0006 0.0000 -0.0013 0.0032 64.1206 0.0002
# 6 0.0007 -0.0005 -0.0039 -0.0006 0.0002 28.3567
#
#
#
# Elastic Compliance Matrix: (Units=1/GPa)
#
#
# Indices 1 2 3 4 5 6 
#
# 1 0.010026 -0.000467 -0.005065 -0.000004 0.000000 -0.000001
# 2 -0.000467 0.014202 -0.003470 0.000000 0.000000 0.000000
# 3 -0.005065 -0.003470 0.011202 0.000006 0.000000 0.000002
# 4 -0.000004 0.000000 0.000006 0.143811 -0.000007 0.000003
# 5 0.000000 0.000000 0.000000 -0.000007 0.015596 0.000000
# 6 -0.000001 0.000000 0.000002 0.000003 0.000000 0.035265
#
#
# Mechanical properties :
#
#
# Convention : Reuss Voigt Hill
#
# Bulk Modulus (GPa) = 57.38920 65.47335 61.43127
# Shear Modulus (GPa) = 19.69172 34.69451 27.19311
#
# Velocity S-wave (km/s) = 2.96665 3.93781 3.48621
# Velocity P-wave (km/s) = 6.11425 7.06666 6.60764
#
# Compressibility (1/GPa) = 0.01742488
#
# Stress axis : x y z
#
# Youngs Moduli (GPa) = 99.74375 70.41398 89.26863
#
# Poissons Ratio (x) = 0.03287 0.45216
# Poissons Ratio (y) = 0.04656 0.30980
# Poissons Ratio (z) = 0.50522 0.24437
#
# Static dielectric constant tensor:
#      x y z
#    x 1.907570 0.000000 0.000010 
#    y 0.000000 1.811210 0.000000 
#    z 0.000010 0.000000 1.824980 
# 
# From -- ./inp_files/2498.got.cif
#   From: 2010.05.17/outbox.cif.g08.bks.cpg/sg24_2_cif.got.tgz:2498.got - 2010.06.04 00:33:39.
