data_PCOD9334734
_publ_section_title
;
Structure prediction by ZEFSAII (Michael W. Deem and Ramdas Pophale) SiO2 
 PCOD9334734
Probable space group: I 21 21 21
;
_chemical_formula_sum "Si O2"
_cell_formula_units_Z 64
_cell_length_a 26.696707
_cell_length_b 23.136026
_cell_length_c 5.173543
_cell_angle_alpha 90.000000
_cell_angle_beta 90.000000
_cell_angle_gamma 90.000000
_cell_volume 3195.468361
_symmetry_space_group_name_H-M "I 21 21 21"
_symmetry_group_IT_number 24
_symmetry_cell_setting 'orthorhombic'
loop_
_space_group_symop_operation_xyz
x,y,z
-x,1/2-y,z
x,-y,1/2-z
1/2-x,y,-z
1/2+x,1/2+y,1/2+z
1/2-x,-y,1/2+z
1/2+x,1/2-y,-z
-x,1/2+y,1/2-z
loop_
_atom_site_type_symbol
_atom_site_label
_atom_site_fract_x
_atom_site_fract_y
_atom_site_fract_z
Si Si1 0.157328 0.151013 0.497641
Si Si2 0.215219 0.937674 0.746538
Si Si3 0.929780 0.667377 0.654512
Si Si4 0.982926 0.935355 0.135834
Si Si5 0.906168 0.567219 0.277507
Si Si6 0.040034 0.635443 0.644232
Si Si7 0.627748 0.777806 0.483578
Si Si8 0.806868 0.769376 0.029494
O O1 0.181816 0.119154 0.740579
O O2 0.102933 0.173590 0.586986
O O3 0.143550 0.099423 0.310321
O O4 0.192091 0.201281 0.394983
O O5 0.250000 0.937229 0.500000
O O6 0.187465 0.000000 0.750000
O O7 0.250000 0.935218 0.000000
O O8 0.921778 0.603114 0.533333
O O9 0.904130 0.718045 0.482154
O O10 0.989147 0.672438 0.691061
O O11 0.965772 0.893536 0.364605
O O12 0.042980 0.927828 0.106862
O O13 0.974647 0.000000 0.250000
O O14 0.958729 0.913645 0.868239
O O15 0.895342 0.500000 0.250000
O O16 0.088268 0.675645 0.623129
O O17 0.657286 0.795112 0.746021
O O18 0.667920 0.770624 0.253055
O O19 0.750000 0.790685 0.000000
#
# Coordination Sequence:
#
# PCOD9334734 Si02
#       8
#     8   8   8   8   8   8   8   8
#     4  11  22  36  56  77 111 151 212 249 326 369
#     4  10  24  39  52  72 101 142 203 273 326 363
#     4  10  22  36  53  86 122 155 211 254 319 364
#     4  10  21  38  58  89 130 169 197 236 288 359
#     4  10  21  34  54  81 119 164 214 258 302 363
#     4  11  21  38  62  89 127 162 201 248 297 370
#     4  11  23  40  63  90 117 159 206 256 318 379
#     4  11  24  42  62  84 117 156 205 269 326 374
#
# _framework density 20.028362000000001
#
# number of rings (size 3 to 8) (size 9 to 14) (size 15 to 20)
#    0.000    1.500    2.500    2.250    3.500    2.500 
#    0.000    2.500    0.000    0.000    0.000    0.000 
#    0.000   28.000    0.000    0.000    0.000    0.000 
#
# Total GULP energy -178479.218130 kJ/mol
# GULP energy per Si atom -5577.475567 kJ/mol
# Density = 1.998278 g / cm^3
# Si number density = 20.028362 Si / 1000 Ang^3
#
#
#
# Elastic Constant Matrix: (Units=GPa)
#
#
# Indices 1 2 3 4 5 6 
#
# 1 90.7930 24.6281 22.3410 0.0000 0.0000 0.0000
# 2 24.6281 37.9662 9.0501 0.0000 0.0000 0.0000
# 3 22.3410 9.0501 92.7004 0.0000 0.0000 0.0000
# 4 0.0000 0.0000 0.0000 30.4357 0.0000 0.0000
# 5 0.0000 0.0000 0.0000 0.0000 29.4667 0.0000
# 6 0.0000 0.0000 0.0000 0.0000 0.0000 22.6358
#
#
#
# Elastic Compliance Matrix: (Units=1/GPa)
#
#
# Indices 1 2 3 4 5 6 
#
# 1 0.013923 -0.008428 -0.002533 0.000000 0.000000 0.000000
# 2 -0.008428 0.032069 -0.001100 0.000000 0.000000 0.000000
# 3 -0.002533 -0.001100 0.011505 0.000000 0.000000 0.000000
# 4 0.000000 0.000000 0.000000 0.032856 0.000000 0.000000
# 5 0.000000 0.000000 0.000000 0.000000 0.033937 0.000000
# 6 0.000000 0.000000 0.000000 0.000000 0.000000 0.044178
#
#
# Mechanical properties :
#
#
# Convention : Reuss Voigt Hill
#
# Bulk Modulus (GPa) = 29.96152 37.05535 33.50843
# Shear Modulus (GPa) = 24.54418 27.53700 26.04059
#
# Velocity S-wave (km/s) = 3.50447 3.71199 3.60972
# Velocity P-wave (km/s) = 5.60063 6.07564 5.84297
#
# Compressibility (1/GPa) = 0.03337615
#
# Stress axis : x y z
#
# Youngs Moduli (GPa) = 71.82110 31.18321 86.91731
#
# Poissons Ratio (x) = 0.26282 0.22014
# Poissons Ratio (y) = 0.60532 0.09557
# Poissons Ratio (z) = 0.18191 0.03429
#
# Static dielectric constant tensor:
#      x y z
#    x 1.731910 0.000000 0.000000 
#    y 0.000000 1.773770 0.000000 
#    z 0.000000 0.000000 1.779260 
# 
# From -- ./inp_files/6619.got.cif
#   From: 2010.05.17/outbox.cif.g08.bks.cpg/sg24_4_cif.got.tgz:6619.got - 2010.06.04 00:33:39.
