data_PCOD9334704
_publ_section_title
;
Structure prediction by ZEFSAII (Michael W. Deem and Ramdas Pophale) SiO2 
 PCOD9334704
Probable space group: I 21 21 21
;
_chemical_formula_sum "Si O2"
_cell_formula_units_Z 32
_cell_length_a 11.496046
_cell_length_b 9.456120
_cell_length_c 12.878344
_cell_angle_alpha 90.000000
_cell_angle_beta 90.000000
_cell_angle_gamma 90.000000
_cell_volume 1399.978897
_symmetry_space_group_name_H-M "I 21 21 21"
_symmetry_group_IT_number 24
_symmetry_cell_setting 'orthorhombic'
loop_
_space_group_symop_operation_xyz
x,y,z
-x,1/2-y,z
x,-y,1/2-z
1/2-x,y,-z
1/2+x,1/2+y,1/2+z
1/2-x,-y,1/2+z
1/2+x,1/2-y,-z
-x,1/2+y,1/2-z
loop_
_atom_site_type_symbol
_atom_site_label
_atom_site_fract_x
_atom_site_fract_y
_atom_site_fract_z
Si Si1 0.130620 0.754837 0.388649
Si Si2 0.750000 0.522973 0.500000
Si Si3 0.367561 0.571537 0.942262
Si Si4 0.251216 0.208295 0.682123
Si Si5 0.500000 0.250000 0.404300
O O1 0.145008 0.863548 0.484688
O O2 0.148554 0.592429 0.420122
O O3 0.219590 0.813362 0.302397
O O4 0.000000 0.750000 0.348528
O O5 0.736796 0.417717 0.598436
O O6 0.348232 0.670379 0.842896
O O7 0.250000 0.618445 0.000000
O O8 0.473995 0.620565 0.015147
O O9 0.115143 0.245422 0.665838
#
# Coordination Sequence:
#
# PCOD9334704 Si02
#       5
#     8   4   8   8   4
#     4  12  27  43  71 108 143 184 245 301 355 434
#     4  12  24  48  66 104 146 188 236 298 364 428
#     4  10  21  44  73  99 138 185 236 292 365 425
#     4  11  24  43  72 102 140 190 240 288 368 432
#     4  10  20  44  78  96 138 190 234 294 364 432
#
# _framework density 22.857489000000001
#
# number of rings (size 3 to 8) (size 9 to 14) (size 15 to 20)
#    0.000    1.000    5.000    3.000    1.750    2.000 
#    2.250    5.000    0.000    0.000    0.000    0.000 
#    0.000    0.000    0.000    0.000    0.000    0.000 
#
# Total GULP energy -89082.847998 kJ/mol
# GULP energy per Si atom -5567.678000 kJ/mol
# Density = 2.280546 g / cm^3
# Si number density = 22.857489 Si / 1000 Ang^3
#
#
#
# Elastic Constant Matrix: (Units=GPa)
#
#
# Indices 1 2 3 4 5 6 
#
# 1 123.0865 30.3046 42.9008 0.0000 0.0000 0.0000
# 2 30.3046 176.8050 44.9124 0.0000 0.0000 0.0000
# 3 42.9008 44.9124 81.9773 0.0000 0.0000 0.0000
# 4 0.0000 0.0000 0.0000 25.3708 0.0000 0.0000
# 5 0.0000 0.0000 0.0000 0.0000 43.5333 0.0000
# 6 0.0000 0.0000 0.0000 0.0000 0.0000 31.9205
#
#
#
# Elastic Compliance Matrix: (Units=1/GPa)
#
#
# Indices 1 2 3 4 5 6 
#
# 1 0.009967 -0.000445 -0.004972 0.000000 0.000000 0.000000
# 2 -0.000445 0.006590 -0.003377 0.000000 0.000000 0.000000
# 3 -0.004972 -0.003377 0.016651 0.000000 0.000000 0.000000
# 4 0.000000 0.000000 0.000000 0.039415 0.000000 0.000000
# 5 0.000000 0.000000 0.000000 0.000000 0.022971 0.000000
# 6 0.000000 0.000000 0.000000 0.000000 0.000000 0.031328
#
#
# Mechanical properties :
#
#
# Convention : Reuss Voigt Hill
#
# Bulk Modulus (GPa) = 64.02692 68.67827 66.35260
# Shear Modulus (GPa) = 33.39614 37.74833 35.57224
#
# Velocity S-wave (km/s) = 3.82653 4.06823 3.94923
# Velocity P-wave (km/s) = 6.89893 7.22349 7.06308
#
# Compressibility (1/GPa) = 0.01561843
#
# Stress axis : x y z
#
# Youngs Moduli (GPa) = 100.33163 151.73951 60.05703
#
# Poissons Ratio (x) = 0.06758 0.29860
# Poissons Ratio (y) = 0.04468 0.20284
# Poissons Ratio (z) = 0.49884 0.51250
#
# Static dielectric constant tensor:
#      x y z
#    x 1.876110 0.000000 0.000000 
#    y 0.000000 1.899580 0.000000 
#    z 0.000000 0.000000 1.979230 
# 
# From -- ./inp_files/10325.got.cif
#   From: 2010.05.17/outbox.cif.g08.bks.cpg/sg24_6_cif.got.tgz:10325.got - 2010.06.04 00:33:39.
