data_PCOD9334524
_publ_section_title
;
Structure prediction by ZEFSAII (Michael W. Deem and Ramdas Pophale) SiO2 
 PCOD9334524
Probable space group: I 21 21 21
;
_chemical_formula_sum "Si O2"
_cell_formula_units_Z 44
_cell_length_a 17.590566
_cell_length_b 13.699841
_cell_length_c 8.933303
_cell_angle_alpha 90.000000
_cell_angle_beta 90.000000
_cell_angle_gamma 90.000000
_cell_volume 2152.818442
_symmetry_space_group_name_H-M "I 21 21 21"
_symmetry_group_IT_number 24
_symmetry_cell_setting 'orthorhombic'
loop_
_space_group_symop_operation_xyz
x,y,z
-x,1/2-y,z
x,-y,1/2-z
1/2-x,y,-z
1/2+x,1/2+y,1/2+z
1/2-x,-y,1/2+z
1/2+x,1/2-y,-z
-x,1/2+y,1/2-z
loop_
_atom_site_type_symbol
_atom_site_label
_atom_site_fract_x
_atom_site_fract_y
_atom_site_fract_z
Si Si1 0.955294 0.095138 0.346150
Si Si2 0.877636 0.355460 0.930268
Si Si3 0.831159 0.750327 0.058709
Si Si4 0.718837 0.395996 0.809748
Si Si5 0.546634 0.648491 0.133750
Si Si6 0.500000 0.750000 0.607914
O O1 0.882370 0.159066 0.391975
O O2 0.003831 0.088376 0.501474
O O3 0.998028 0.160159 0.222153
O O4 0.936361 0.000000 0.250000
O O5 0.793688 0.336532 0.863083
O O6 0.931915 0.393471 0.797110
O O7 0.846274 0.421323 0.067059
O O8 0.925611 0.267288 0.005050
O O9 0.819456 0.674235 0.191617
O O10 0.750000 0.783537 0.000000
O O11 0.874884 0.687406 0.934825
O O12 0.746949 0.500000 0.750000
O O13 0.500000 0.750000 0.155713
#
# Coordination Sequence:
#
# PCOD9334524 Si02
#       6
#     8   8   8   8   8   4
#     4  11  24  45  68  97 134 183 233 275 345 417
#     4  11  23  38  66 100 137 178 226 278 342 411
#     4  11  21  41  67  92 133 183 224 282 340 407
#     4  11  25  40  62 101 142 179 227 283 354 410
#     4  10  20  39  69  95 129 172 227 278 342 402
#     4  12  22  42  66 100 138 184 222 276 358 408
#
# _framework density 20.438324000000001
#
# number of rings (size 3 to 8) (size 9 to 14) (size 15 to 20)
#    0.000    1.091    7.273    0.000    2.545    4.364 
#    0.000    1.818    0.000    0.000    0.000    0.000 
#    0.000    0.000    0.000    0.000    0.000    0.000 
#
# Total GULP energy -122530.998096 kJ/mol
# GULP energy per Si atom -5569.590823 kJ/mol
# Density = 2.039181 g / cm^3
# Si number density = 20.438324 Si / 1000 Ang^3
#
#
#
# Elastic Constant Matrix: (Units=GPa)
#
#
# Indices 1 2 3 4 5 6 
#
# 1 127.0816 18.0458 55.4300 0.0000 0.0000 0.0000
# 2 18.0458 47.9898 33.2379 0.0000 0.0000 0.0000
# 3 55.4300 33.2379 136.6646 0.0000 0.0000 0.0000
# 4 0.0000 0.0000 0.0000 -0.7545 0.0000 0.0000
# 5 0.0000 0.0000 0.0000 0.0000 38.3724 0.0000
# 6 0.0000 0.0000 0.0000 0.0000 0.0000 13.8634
#
#
#
# Elastic Compliance Matrix: (Units=1/GPa)
#
#
# Indices 1 2 3 4 5 6 
#
# 1 0.009608 -0.001099 -0.003630 0.000000 0.000000 0.000000
# 2 -0.001099 0.025185 -0.005679 0.000000 0.000000 0.000000
# 3 -0.003630 -0.005679 0.010171 0.000000 0.000000 0.000000
# 4 0.000000 0.000000 0.000000 -1.325332 0.000000 0.000000
# 5 0.000000 0.000000 0.000000 0.000000 0.026060 0.000000
# 6 0.000000 0.000000 0.000000 0.000000 0.000000 0.072132
#
#
# Mechanical properties :
#
#
# Convention : Reuss Voigt Hill
#
# Bulk Modulus (GPa) = 41.41266 58.35150 49.88208
# Shear Modulus (GPa) = -4.33534 23.96441 9.81453
#
# Velocity S-wave (km/s) = -1.45801 3.42793 2.19373
# Velocity P-wave (km/s) = 4.17994 6.65429 5.55659
#
# Compressibility (1/GPa) = 0.02414720
#
# Stress axis : x y z
#
# Youngs Moduli (GPa) = 104.07750 39.70692 98.32244
#
# Poissons Ratio (x) = 0.04364 0.35688
# Poissons Ratio (y) = 0.11439 0.55840
# Poissons Ratio (z) = 0.37777 0.22551
#
# Static dielectric constant tensor:
#      x y z
#    x 1.728890 0.000000 0.000000 
#    y 0.000000 1.807170 0.000000 
#    z 0.000000 0.000000 1.851490 
# 
# From -- ./inp_files/14094.got.cif
#   From: 2010.05.17/outbox.cif.g08.bks.cpg/sg24_8_cif.got.tgz:14094.got - 2010.06.04 00:33:39.
