data_PCOD9334411
_publ_section_title
;
Structure prediction by ZEFSAII (Michael W. Deem and Ramdas Pophale) SiO2 
 PCOD9334411
Probable space group: I 21 21 21
;
_chemical_formula_sum "Si O2"
_cell_formula_units_Z 40
_cell_length_a 16.235798
_cell_length_b 11.048834
_cell_length_c 8.878990
_cell_angle_alpha 90.000000
_cell_angle_beta 90.000000
_cell_angle_gamma 90.000000
_cell_volume 1592.772156
_symmetry_space_group_name_H-M "I 21 21 21"
_symmetry_group_IT_number 24
_symmetry_cell_setting 'orthorhombic'
loop_
_space_group_symop_operation_xyz
x,y,z
-x,1/2-y,z
x,-y,1/2-z
1/2-x,y,-z
1/2+x,1/2+y,1/2+z
1/2-x,-y,1/2+z
1/2+x,1/2-y,-z
-x,1/2+y,1/2-z
loop_
_atom_site_type_symbol
_atom_site_label
_atom_site_fract_x
_atom_site_fract_y
_atom_site_fract_z
Si Si1 0.909452 0.700556 0.715644
Si Si2 0.154427 0.057777 0.034415
Si Si3 0.653847 0.708305 0.955359
Si Si4 0.908513 0.198590 0.174272
Si Si5 0.333682 0.573419 0.409010
O O1 0.895029 0.579348 0.621174
O O2 0.837576 0.790966 0.657744
O O3 0.000000 0.750000 0.676739
O O4 0.898518 0.706700 0.892607
O O5 0.140919 0.183343 0.118205
O O6 0.134711 0.927707 0.105223
O O7 0.250000 0.047128 0.000000
O O8 0.627458 0.814531 0.841993
O O9 0.750000 0.719340 0.000000
O O10 0.000000 0.250000 0.185275
O O11 0.897959 0.092299 0.050592
O O12 0.347654 0.500000 0.250000
O O13 0.250000 0.543463 0.500000
#
# Coordination Sequence:
#
# PCOD9334411 Si02
#       5
#     8   8   8   8   8
#     4  11  23  40  64  95 134 175 219 279 341 398
#     4  10  20  38  65  93 125 168 219 277 340 405
#     4  11  22  39  68 100 131 173 224 281 343 404
#     4  11  23  42  66  98 139 175 220 286 344 401
#     4  11  25  45  67  92 128 179 231 275 328 402
#
# _framework density 25.113447000000001
#
# number of rings (size 3 to 8) (size 9 to 14) (size 15 to 20)
#    0.000    1.200    0.000    9.000    0.000    8.800 
#    0.000    6.000    0.000    0.000    0.000    0.000 
#    0.000    0.000    0.000    0.000    0.000    0.000 
#
# Total GULP energy -111489.083495 kJ/mol
# GULP energy per Si atom -5574.454175 kJ/mol
# Density = 2.505629 g / cm^3
# Si number density = 25.113447 Si / 1000 Ang^3
#
#
#
# Elastic Constant Matrix: (Units=GPa)
#
#
# Indices 1 2 3 4 5 6 
#
# 1 119.3434 17.1666 43.5669 0.0000 0.0000 0.0000
# 2 17.1666 91.1157 55.5140 0.0000 0.0000 0.0000
# 3 43.5669 55.5140 179.0826 0.0000 0.0000 0.0000
# 4 0.0000 0.0000 0.0000 57.7671 0.0000 0.0000
# 5 0.0000 0.0000 0.0000 0.0000 37.4724 0.0000
# 6 0.0000 0.0000 0.0000 0.0000 0.0000 -32.4422
#
#
#
# Elastic Compliance Matrix: (Units=1/GPa)
#
#
# Indices 1 2 3 4 5 6 
#
# 1 0.009211 -0.000456 -0.002099 0.000000 0.000000 0.000000
# 2 -0.000456 0.013553 -0.004090 0.000000 0.000000 0.000000
# 3 -0.002099 -0.004090 0.007363 0.000000 0.000000 0.000000
# 4 0.000000 0.000000 0.000000 0.017311 0.000000 0.000000
# 5 0.000000 0.000000 0.000000 0.000000 0.026686 0.000000
# 6 0.000000 0.000000 0.000000 0.000000 0.000000 -0.030824
#
#
# Mechanical properties :
#
#
# Convention : Reuss Voigt Hill
#
# Bulk Modulus (GPa) = 59.40036 69.11522 64.25779
# Shear Modulus (GPa) = 80.38055 30.77907 55.57981
#
# Velocity S-wave (km/s) = 5.66361 3.50466 4.70952
# Velocity P-wave (km/s) = 8.15308 6.63007 7.43070
#
# Compressibility (1/GPa) = 0.01683491
#
# Stress axis : x y z
#
# Youngs Moduli (GPa) = 108.56313 73.78356 135.81910
#
# Poissons Ratio (x) = 0.03367 0.28514
# Poissons Ratio (y) = 0.04954 0.55555
# Poissons Ratio (z) = 0.22792 0.30180
#
# Static dielectric constant tensor:
#      x y z
#    x 2.026470 0.000000 0.000000 
#    y 0.000000 1.995250 0.000000 
#    z 0.000000 0.000000 1.823880 
# 
# From -- ./inp_files/13823.got.cif
#   From: 2010.05.17/outbox.cif.g08.bks.cpg/sg24_7_cif.got.tgz:13823.got - 2010.06.04 00:33:39.
