data_PCOD9334446
_publ_section_title
;
Structure prediction by ZEFSAII (Michael W. Deem and Ramdas Pophale) SiO2 
 PCOD9334446
Probable space group: I 21 21 21
;
_chemical_formula_sum "Si O2"
_cell_formula_units_Z 28
_cell_length_a 11.555035
_cell_length_b 12.270457
_cell_length_c 9.748999
_cell_angle_alpha 90.000000
_cell_angle_beta 90.000000
_cell_angle_gamma 90.000000
_cell_volume 1382.267284
_symmetry_space_group_name_H-M "I 21 21 21"
_symmetry_group_IT_number 24
_symmetry_cell_setting 'orthorhombic'
loop_
_space_group_symop_operation_xyz
x,y,z
-x,1/2-y,z
x,-y,1/2-z
1/2-x,y,-z
1/2+x,1/2+y,1/2+z
1/2-x,-y,1/2+z
1/2+x,1/2-y,-z
-x,1/2+y,1/2-z
loop_
_atom_site_type_symbol
_atom_site_label
_atom_site_fract_x
_atom_site_fract_y
_atom_site_fract_z
Si Si1 0.169059 0.937583 0.390103
Si Si2 0.085983 0.415531 0.005152
Si Si3 0.259631 0.293932 0.200603
Si Si4 0.750000 0.881219 0.000000
O O1 0.250000 0.998672 0.500000
O O2 0.238834 0.829073 0.346442
O O3 0.048496 0.911892 0.464333
O O4 0.144245 0.000000 0.250000
O O5 0.128292 0.348421 0.871488
O O6 0.153881 0.360691 0.131963
O O7 0.139480 0.536870 0.996600
O O8 0.255153 0.311596 0.362045
#
# Coordination Sequence:
#
# PCOD9334446 Si02
#       4
#     8   8   8   4
#     4  12  26  42  63  93 134 174 212 266 330 384
#     4  10  20  42  66  94 124 173 209 261 321 386
#     4  10  21  39  70  92 126 165 221 259 319 377
#     4  10  20  38  70 102 118 162 222 274 298 386
#
# _framework density 20.256575000000002
#
# number of rings (size 3 to 8) (size 9 to 14) (size 15 to 20)
#    0.000    1.714    2.857    6.000    2.000    2.286 
#    0.000    0.000    6.286    0.000    0.000    0.000 
#    0.000    0.000    0.000    0.000    0.000    0.000 
#
# Total GULP energy -78209.667909 kJ/mol
# GULP energy per Si atom -5586.404851 kJ/mol
# Density = 2.021047 g / cm^3
# Si number density = 20.256575 Si / 1000 Ang^3
#
#
#
# Elastic Constant Matrix: (Units=GPa)
#
#
# Indices 1 2 3 4 5 6 
#
# 1 114.8671 20.3462 58.8058 0.0000 0.0000 0.0000
# 2 20.3462 43.8724 22.8205 0.0000 0.0000 0.0000
# 3 58.8058 22.8205 170.8917 0.0000 0.0000 0.0000
# 4 0.0000 0.0000 0.0000 19.2881 0.0000 0.0000
# 5 0.0000 0.0000 0.0000 0.0000 9.8499 0.0000
# 6 0.0000 0.0000 0.0000 0.0000 0.0000 4.3136
#
#
#
# Elastic Compliance Matrix: (Units=1/GPa)
#
#
# Indices 1 2 3 4 5 6 
#
# 1 0.011012 -0.003370 -0.003339 0.000000 0.000000 0.000000
# 2 -0.003370 0.025526 -0.002249 0.000000 0.000000 0.000000
# 3 -0.003339 -0.002249 0.007301 0.000000 0.000000 0.000000
# 4 0.000000 0.000000 0.000000 0.051846 0.000000 0.000000
# 5 0.000000 0.000000 0.000000 0.000000 0.101524 0.000000
# 6 0.000000 0.000000 0.000000 0.000000 0.000000 0.231824
#
#
# Mechanical properties :
#
#
# Convention : Reuss Voigt Hill
#
# Bulk Modulus (GPa) = 38.57650 59.28627 48.93138
# Shear Modulus (GPa) = 10.97476 21.86756 16.42116
#
# Velocity S-wave (km/s) = 2.33016 3.28918 2.85029
# Velocity P-wave (km/s) = 5.13077 6.61484 5.91950
#
# Compressibility (1/GPa) = 0.02592252
#
# Stress axis : x y z
#
# Youngs Moduli (GPa) = 90.80807 39.17562 136.96518
#
# Poissons Ratio (x) = 0.13202 0.45738
# Poissons Ratio (y) = 0.30602 0.30804
# Poissons Ratio (z) = 0.30325 0.08811
#
# Static dielectric constant tensor:
#      x y z
#    x 1.706100 0.000000 0.000000 
#    y 0.000000 1.732400 0.000000 
#    z 0.000000 0.000000 1.706170 
# 
# From -- ./inp_files/10101.got.cif
#   From: 2010.05.17/outbox.cif.g08.bks.cpg/sg24_6_cif.got.tgz:10101.got - 2010.06.04 00:33:39.
