data_PCOD9334451
_publ_section_title
;
Structure prediction by ZEFSAII (Michael W. Deem and Ramdas Pophale) SiO2 
 PCOD9334451
Probable space group: I 21 21 21
;
_chemical_formula_sum "Si O2"
_cell_formula_units_Z 52
_cell_length_a 20.042228
_cell_length_b 7.922047
_cell_length_c 14.732941
_cell_angle_alpha 90.000000
_cell_angle_beta 90.000000
_cell_angle_gamma 90.000000
_cell_volume 2339.229664
_symmetry_space_group_name_H-M "I 21 21 21"
_symmetry_group_IT_number 24
_symmetry_cell_setting 'orthorhombic'
loop_
_space_group_symop_operation_xyz
x,y,z
-x,1/2-y,z
x,-y,1/2-z
1/2-x,y,-z
1/2+x,1/2+y,1/2+z
1/2-x,-y,1/2+z
1/2+x,1/2-y,-z
-x,1/2+y,1/2-z
loop_
_atom_site_type_symbol
_atom_site_label
_atom_site_fract_x
_atom_site_fract_y
_atom_site_fract_z
Si Si1 0.390246 0.723616 0.124906
Si Si2 0.794519 0.000000 0.750000
Si Si3 0.317297 0.877949 0.959329
Si Si4 0.567177 0.945075 0.518543
Si Si5 0.709338 0.992986 0.589302
Si Si6 0.543758 0.573092 0.851893
Si Si7 0.958951 0.500000 0.750000
Si Si8 0.000000 0.250000 0.891419
O O1 0.341279 0.610003 0.185297
O O2 0.428377 0.603101 0.052088
O O3 0.423802 0.846774 0.197592
O O4 0.352767 0.841398 0.054446
O O5 0.744557 0.083033 0.822763
O O6 0.291673 0.699433 0.914556
O O7 0.380218 0.925733 0.893101
O O8 0.250000 0.969992 0.000000
O O9 0.562815 0.779641 0.455862
O O10 0.632904 0.943114 0.578533
O O11 0.502500 0.963743 0.580610
O O12 0.750000 0.941565 0.500000
O O13 0.500000 0.750000 0.850426
O O14 0.545542 0.500000 0.750000
O O15 0.999047 0.409283 0.827792
#
# Coordination Sequence:
#
# PCOD9334451 Si02
#       8
#     8   4   8   8   8   8   4   4
#     4  11  22  42  73  99 139 187 232 305 365 434
#     4  12  20  39  76 106 133 190 258 292 368 451
#     4  10  20  46  68  96 144 199 231 290 378 434
#     4  11  24  46  71 100 149 188 233 303 381 437
#     4  10  20  38  71 103 136 185 245 298 365 444
#     4  12  26  45  76 112 146 193 252 309 375 452
#     4  12  26  41  68 106 133 174 244 294 354 451
#     4  12  26  42  66 100 138 180 228 290 370 440
#
# _framework density 22.22954
#
# number of rings (size 3 to 8) (size 9 to 14) (size 15 to 20)
#    0.000    0.923    7.692    2.769    2.154    0.000 
#    1.385    0.000    3.385    0.000    0.000    0.000 
#    0.000    0.000    0.000    0.000    0.000    0.000 
#
# Total GULP energy -144799.975075 kJ/mol
# GULP energy per Si atom -5569.229811 kJ/mol
# Density = 2.217894 g / cm^3
# Si number density = 22.229540 Si / 1000 Ang^3
#
#
#
# Elastic Constant Matrix: (Units=GPa)
#
#
# Indices 1 2 3 4 5 6 
#
# 1 136.7109 29.3756 79.9005 0.0000 0.0000 0.0000
# 2 29.3756 25.3334 30.1135 0.0000 0.0000 0.0000
# 3 79.9005 30.1135 171.1714 0.0000 0.0000 0.0000
# 4 0.0000 0.0000 0.0000 35.1080 0.0000 0.0000
# 5 0.0000 0.0000 0.0000 0.0000 52.2219 0.0000
# 6 0.0000 0.0000 0.0000 0.0000 0.0000 2.4878
#
#
#
# Elastic Compliance Matrix: (Units=1/GPa)
#
#
# Indices 1 2 3 4 5 6 
#
# 1 0.011402 -0.008718 -0.003789 0.000000 0.000000 0.000000
# 2 -0.008718 0.056577 -0.005884 0.000000 0.000000 0.000000
# 3 -0.003789 -0.005884 0.008646 0.000000 0.000000 0.000000
# 4 0.000000 0.000000 0.000000 0.028484 0.000000 0.000000
# 5 0.000000 0.000000 0.000000 0.000000 0.019149 0.000000
# 6 0.000000 0.000000 0.000000 0.000000 0.000000 0.401955
#
#
# Mechanical properties :
#
#
# Convention : Reuss Voigt Hill
#
# Bulk Modulus (GPa) = 25.09818 67.99943 46.54880
# Shear Modulus (GPa) = 8.67642 30.88528 19.78085
#
# Velocity S-wave (km/s) = 1.97777 3.73148 2.98626
# Velocity P-wave (km/s) = 4.06576 7.01579 5.73375
#
# Compressibility (1/GPa) = 0.03984353
#
# Stress axis : x y z
#
# Youngs Moduli (GPa) = 87.70160 17.67512 115.66402
#
# Poissons Ratio (x) = 0.15409 0.43822
# Poissons Ratio (y) = 0.76459 0.68055
# Poissons Ratio (z) = 0.33228 0.10400
#
# Static dielectric constant tensor:
#      x y z
#    x 1.947340 0.000000 0.000000 
#    y 0.000000 1.897320 0.000000 
#    z 0.000000 0.000000 1.779220 
# 
# From -- ./inp_files/27499.got.cif
#   From: 2010.05.17/outbox.cif.g08.bks.cpg/sg24_14_cif.got.tgz:27499.got - 2010.06.04 00:33:39.
