data_PCOD9334593
_publ_section_title
;
Structure prediction by ZEFSAII (Michael W. Deem and Ramdas Pophale) SiO2 
 PCOD9334593
Probable space group: I 21 21 21
;
_chemical_formula_sum "Si O2"
_cell_formula_units_Z 36
_cell_length_a 5.959696
_cell_length_b 12.190876
_cell_length_c 22.557355
_cell_angle_alpha 90.000000
_cell_angle_beta 90.000000
_cell_angle_gamma 90.000000
_cell_volume 1638.880151
_symmetry_space_group_name_H-M "I 21 21 21"
_symmetry_group_IT_number 24
_symmetry_cell_setting 'orthorhombic'
loop_
_space_group_symop_operation_xyz
x,y,z
-x,1/2-y,z
x,-y,1/2-z
1/2-x,y,-z
1/2+x,1/2+y,1/2+z
1/2-x,-y,1/2+z
1/2+x,1/2-y,-z
-x,1/2+y,1/2-z
loop_
_atom_site_type_symbol
_atom_site_label
_atom_site_fract_x
_atom_site_fract_y
_atom_site_fract_z
Si Si1 0.659769 0.513833 0.432924
Si Si2 0.221497 0.548235 0.856667
Si Si3 0.392275 0.000000 0.250000
Si Si4 0.101274 0.869759 0.333849
Si Si5 0.737406 0.730114 0.914315
O O1 0.750000 0.522772 0.500000
O O2 0.396814 0.494376 0.418043
O O3 0.744923 0.613116 0.392241
O O4 0.762956 0.400454 0.406822
O O5 0.410867 0.462128 0.839953
O O6 0.286737 0.675298 0.864681
O O7 0.041712 0.541159 0.804203
O O8 0.243287 0.902215 0.276285
O O9 0.000000 0.750000 0.330655
O O10 0.500000 0.750000 0.948692
O O11 0.000000 0.750000 0.932497
#
# Coordination Sequence:
#
# PCOD9334593 Si02
#       5
#     8   8   4   8   8
#     4  10  23  43  68 103 138 183 234 288 358 431
#     4  10  22  45  65 101 140 180 231 297 361 430
#     4  10  24  46  68 102 136 182 238 296 358 432
#     4  11  24  48  67 100 139 184 238 293 357 434
#     4  10  20  40  68 100 144 180 225 297 360 422
#
# _framework density 21.966217
#
# number of rings (size 3 to 8) (size 9 to 14) (size 15 to 20)
#    0.000    1.778    2.222    0.667    0.000    7.111 
#   40.000    0.000    0.000    0.000    0.000    0.000 
#    0.000    0.000    0.000    0.000    0.000    0.000 
#
# Total GULP energy -100236.135753 kJ/mol
# GULP energy per Si atom -5568.674209 kJ/mol
# Density = 2.191622 g / cm^3
# Si number density = 21.966217 Si / 1000 Ang^3
#
#
#
# Elastic Constant Matrix: (Units=GPa)
#
#
# Indices 1 2 3 4 5 6 
#
# 1 102.2489 13.2329 16.3125 0.0000 0.0000 0.0000
# 2 13.2329 119.6791 32.7028 0.0000 0.0000 0.0000
# 3 16.3125 32.7028 94.5400 0.0000 0.0000 0.0000
# 4 0.0000 0.0000 0.0000 -30.0370 0.0000 0.0000
# 5 0.0000 0.0000 0.0000 0.0000 -108.6103 0.0000
# 6 0.0000 0.0000 0.0000 0.0000 0.0000 22.5137
#
#
#
# Elastic Compliance Matrix: (Units=1/GPa)
#
#
# Indices 1 2 3 4 5 6 
#
# 1 0.010111 -0.000708 -0.001500 0.000000 0.000000 0.000000
# 2 -0.000708 0.009278 -0.003087 0.000000 0.000000 0.000000
# 3 -0.001500 -0.003087 0.011904 0.000000 0.000000 0.000000
# 4 0.000000 0.000000 0.000000 -0.033292 0.000000 0.000000
# 5 0.000000 0.000000 0.000000 0.000000 -0.009207 0.000000
# 6 0.000000 0.000000 0.000000 0.000000 0.000000 0.044417
#
#
# Mechanical properties :
#
#
# Convention : Reuss Voigt Hill
#
# Bulk Modulus (GPa) = 48.30240 48.99605 48.64922
# Shear Modulus (GPa) = 98.61717 -6.27872 46.16923
#
# Velocity S-wave (km/s) = 6.70764 -1.69250 4.58954
# Velocity P-wave (km/s) = 9.05688 4.30514 7.09088
#
# Compressibility (1/GPa) = 0.02070291
#
# Stress axis : x y z
#
# Youngs Moduli (GPa) = 98.90262 107.78731 84.00435
#
# Poissons Ratio (x) = 0.07633 0.12598
# Poissons Ratio (y) = 0.07004 0.25933
# Poissons Ratio (z) = 0.14832 0.33274
#
# Static dielectric constant tensor:
#      x y z
#    x 1.941860 0.000000 0.000000 
#    y 0.000000 1.745810 0.000000 
#    z 0.000000 0.000000 1.797760 
# 
# From -- ./inp_files/34544.got.cif
#   From: 2010.05.17/outbox.cif.g08.bks.cpg/sg24_18_cif.got.tgz:34544.got - 2010.06.04 00:33:39.
