data_PCOD9334850
_publ_section_title
;
Structure prediction by ZEFSAII (Michael W. Deem and Ramdas Pophale) SiO2 
 PCOD9334850
Probable space group: I 21 21 21
;
_chemical_formula_sum "Si O2"
_cell_formula_units_Z 36
_cell_length_a 11.659631
_cell_length_b 29.819568
_cell_length_c 5.039343
_cell_angle_alpha 90.000000
_cell_angle_beta 90.000000
_cell_angle_gamma 90.000000
_cell_volume 1752.104775
_symmetry_space_group_name_H-M "I 21 21 21"
_symmetry_group_IT_number 24
_symmetry_cell_setting 'orthorhombic'
loop_
_space_group_symop_operation_xyz
x,y,z
-x,1/2-y,z
x,-y,1/2-z
1/2-x,y,-z
1/2+x,1/2+y,1/2+z
1/2-x,-y,1/2+z
1/2+x,1/2-y,-z
-x,1/2+y,1/2-z
loop_
_atom_site_type_symbol
_atom_site_label
_atom_site_fract_x
_atom_site_fract_y
_atom_site_fract_z
Si Si1 0.323945 0.688677 0.255302
Si Si2 0.627471 0.339356 0.639252
Si Si3 0.119431 0.467474 0.998881
Si Si4 0.000000 0.750000 0.029977
Si Si5 0.980917 0.619446 0.629478
O O1 0.250000 0.705412 0.500000
O O2 0.405956 0.650602 0.373470
O O3 0.250000 0.672823 0.000000
O O4 0.401753 0.728481 0.148331
O O5 0.750000 0.330748 0.500000
O O6 0.558325 0.292418 0.672279
O O7 0.564277 0.372203 0.427411
O O8 0.614352 0.362748 0.923708
O O9 0.114493 0.500000 0.750000
O O10 0.025492 0.429038 0.958353
O O11 0.103183 0.500000 0.250000
O O12 0.250000 0.448140 0.000000
#
# Coordination Sequence:
#
# PCOD9334850 Si02
#       5
#     8   8   8   4   8
#     4  11  23  37  57  85 120 157 197 245 294 356
#     4  11  24  41  62  86 120 161 205 250 294 352
#     4  10  21  37  62  93 122 151 188 241 303 364
#     4  10  24  38  58  86 116 158 202 246 296 340
#     4  11  23  40  62  88 119 158 197 242 304 361
#
# _framework density 20.546716
#
# number of rings (size 3 to 8) (size 9 to 14) (size 15 to 20)
#    0.000    1.333    0.000    6.000    0.000   14.222 
#    0.000    0.000    0.000   13.333    0.000    0.000 
#    0.000    0.000    0.000    0.000    0.000    0.000 
#
# Total GULP energy -100534.534565 kJ/mol
# GULP energy per Si atom -5585.251920 kJ/mol
# Density = 2.049995 g / cm^3
# Si number density = 20.546716 Si / 1000 Ang^3
#
#
#
# Elastic Constant Matrix: (Units=GPa)
#
#
# Indices 1 2 3 4 5 6 
#
# 1 81.9966 23.2798 11.8437 -0.0165 0.0078 0.0113
# 2 23.2798 66.6458 23.2697 -0.0121 0.0050 0.0029
# 3 11.8437 23.2697 97.4807 -0.1170 0.0195 0.0607
# 4 -0.0165 -0.0121 -0.1170 1.3430 0.0144 0.0106
# 5 0.0078 0.0050 0.0195 0.0144 28.3464 -0.0189
# 6 0.0113 0.0029 0.0607 0.0106 -0.0189 17.4177
#
#
#
# Elastic Compliance Matrix: (Units=1/GPa)
#
#
# Indices 1 2 3 4 5 6 
#
# 1 0.013567 -0.004542 -0.000564 0.000076 -0.000003 -0.000006
# 2 -0.004542 0.017890 -0.003719 -0.000218 0.000001 0.000013
# 3 -0.000564 -0.003719 0.011216 0.000937 -0.000007 -0.000039
# 4 0.000076 -0.000218 0.000937 0.744713 -0.000379 -0.000459
# 5 -0.000003 0.000001 -0.000007 -0.000379 0.035278 0.000038
# 6 -0.000006 0.000013 -0.000039 -0.000459 0.000038 0.057413
#
#
# Mechanical properties :
#
#
# Convention : Reuss Voigt Hill
#
# Bulk Modulus (GPa) = 39.96414 40.32326 40.14370
# Shear Modulus (GPa) = 5.51836 21.93676 13.72756
#
# Velocity S-wave (km/s) = 1.64061 3.27104 2.58760
# Velocity P-wave (km/s) = 4.80431 5.82529 5.33926
#
# Compressibility (1/GPa) = 0.02502244
#
# Stress axis : x y z
#
# Youngs Moduli (GPa) = 73.71035 55.89823 89.15956
#
# Poissons Ratio (x) = 0.25389 0.05029
# Poissons Ratio (y) = 0.33479 0.33157
# Poissons Ratio (z) = 0.04157 0.20788
#
# Static dielectric constant tensor:
#      x y z
#    x 1.851650 -0.000020 -0.000080 
#    y -0.000020 1.700070 0.000000 
#    z -0.000080 0.000000 1.700310 
# 
# From -- ./inp_files/2287.got.cif
#   From: 2010.05.17/outbox.cif.g08.bks.cpg/sg24_2_cif.got.tgz:2287.got - 2010.06.04 00:33:39.
