data_PCOD9334759
_publ_section_title
;
Structure prediction by ZEFSAII (Michael W. Deem and Ramdas Pophale) SiO2 
 PCOD9334759
Probable space group: I 21 21 21
;
_chemical_formula_sum "Si O2"
_cell_formula_units_Z 36
_cell_length_a 5.878184
_cell_length_b 14.049325
_cell_length_c 21.887655
_cell_angle_alpha 90.000000
_cell_angle_beta 90.000000
_cell_angle_gamma 90.000000
_cell_volume 1807.581426
_symmetry_space_group_name_H-M "I 21 21 21"
_symmetry_group_IT_number 24
_symmetry_cell_setting 'orthorhombic'
loop_
_space_group_symop_operation_xyz
x,y,z
-x,1/2-y,z
x,-y,1/2-z
1/2-x,y,-z
1/2+x,1/2+y,1/2+z
1/2-x,-y,1/2+z
1/2+x,1/2-y,-z
-x,1/2+y,1/2-z
loop_
_atom_site_type_symbol
_atom_site_label
_atom_site_fract_x
_atom_site_fract_y
_atom_site_fract_z
Si Si1 0.000000 0.250000 0.298784
Si Si2 0.348871 0.104397 0.149314
Si Si3 0.771090 0.068761 0.933987
Si Si4 0.528868 0.032023 0.681181
Si Si5 0.500000 0.750000 0.264213
Si Si6 0.500000 0.750000 0.597522
O O1 0.026060 0.354916 0.327492
O O2 0.254578 0.239918 0.268481
O O3 0.469435 0.085184 0.085277
O O4 0.522526 0.154561 0.195060
O O5 0.164020 0.186600 0.138841
O O6 0.223550 0.012685 0.174750
O O7 0.643658 0.170765 0.938034
O O8 0.666347 0.013346 0.875744
O O9 0.750000 0.021195 0.000000
O O10 0.604776 0.000000 0.750000
#
# Coordination Sequence:
#
# PCOD9334759 Si02
#       6
#     4   8   8   8   4   4
#     4  12  27  44  72 104 146 185 242 300 366 417
#     4  11  22  39  64 100 141 183 224 287 350 428
#     4  11  25  40  66  98 144 184 231 286 355 434
#     4  11  25  43  69 103 136 185 236 297 352 427
#     4  12  22  41  70 106 146 183 230 294 364 429
#     4  10  21  35  60 100 138 184 224 264 352 422
#
# _framework density 19.916117
#
# number of rings (size 3 to 8) (size 9 to 14) (size 15 to 20)
#    0.000    0.889    4.444    2.000    6.222    3.556 
#    0.000    0.000    4.889    0.000    0.000    0.000 
#    0.000    0.000    0.000    0.000    0.000    0.000 
#
# Total GULP energy -100292.005319 kJ/mol
# GULP energy per Si atom -5571.778073 kJ/mol
# Density = 1.987079 g / cm^3
# Si number density = 19.916117 Si / 1000 Ang^3
#
#
#
# Elastic Constant Matrix: (Units=GPa)
#
#
# Indices 1 2 3 4 5 6 
#
# 1 76.5988 24.8937 40.7577 0.0000 0.0000 0.0000
# 2 24.8937 139.3144 54.1455 0.0000 0.0000 0.0000
# 3 40.7577 54.1455 115.2295 0.0000 0.0000 0.0000
# 4 0.0000 0.0000 0.0000 -1.0820 0.0000 0.0000
# 5 0.0000 0.0000 0.0000 0.0000 3.7874 0.0000
# 6 0.0000 0.0000 0.0000 0.0000 0.0000 38.2567
#
#
#
# Elastic Compliance Matrix: (Units=1/GPa)
#
#
# Indices 1 2 3 4 5 6 
#
# 1 0.016157 -0.000815 -0.005332 0.000000 0.000000 0.000000
# 2 -0.000815 0.008823 -0.003858 0.000000 0.000000 0.000000
# 3 -0.005332 -0.003858 0.012377 0.000000 0.000000 0.000000
# 4 0.000000 0.000000 0.000000 -0.924233 0.000000 0.000000
# 5 0.000000 0.000000 0.000000 0.000000 0.264031 0.000000
# 6 0.000000 0.000000 0.000000 0.000000 0.000000 0.026139
#
#
# Mechanical properties :
#
#
# Convention : Reuss Voigt Hill
#
# Bulk Modulus (GPa) = 57.64332 63.41518 60.52925
# Shear Modulus (GPa) = -8.75788 22.28213 6.76212
#
# Velocity S-wave (km/s) = -2.09927 3.34847 1.84463
# Velocity P-wave (km/s) = 4.80936 6.84543 5.91565
#
# Compressibility (1/GPa) = 0.01734806
#
# Stress axis : x y z
#
# Youngs Moduli (GPa) = 61.89288 113.34157 80.79502
#
# Poissons Ratio (x) = 0.09234 0.43080
# Poissons Ratio (y) = 0.05042 0.31168
# Poissons Ratio (z) = 0.33002 0.43723
#
# Static dielectric constant tensor:
#      x y z
#    x 1.811460 0.000000 0.000000 
#    y 0.000000 1.710390 0.000000 
#    z 0.000000 0.000000 1.741410 
# 
# From -- ./inp_files/2336.got.cif
#   From: 2010.05.17/outbox.cif.g08.bks.cpg/sg24_2_cif.got.tgz:2336.got - 2010.06.04 00:33:39.
