data_PCOD9334328
_publ_section_title
;
Structure prediction by ZEFSAII (Michael W. Deem and Ramdas Pophale) SiO2 
 PCOD9334328
Probable space group: I 21 21 21
;
_chemical_formula_sum "Si O2"
_cell_formula_units_Z 48
_cell_length_a 16.504744
_cell_length_b 5.839427
_cell_length_c 25.494305
_cell_angle_alpha 90.000000
_cell_angle_beta 90.000000
_cell_angle_gamma 90.000000
_cell_volume 2457.096443
_symmetry_space_group_name_H-M "I 21 21 21"
_symmetry_group_IT_number 24
_symmetry_cell_setting 'orthorhombic'
loop_
_space_group_symop_operation_xyz
x,y,z
-x,1/2-y,z
x,-y,1/2-z
1/2-x,y,-z
1/2+x,1/2+y,1/2+z
1/2-x,-y,1/2+z
1/2+x,1/2-y,-z
-x,1/2+y,1/2-z
loop_
_atom_site_type_symbol
_atom_site_label
_atom_site_fract_x
_atom_site_fract_y
_atom_site_fract_z
Si Si1 0.323066 0.500000 0.250000
Si Si2 0.250000 0.616917 0.000000
Si Si3 0.544552 0.500804 0.990395
Si Si4 0.904915 0.291014 0.833704
Si Si5 0.735752 0.613511 0.192546
Si Si6 0.167381 0.253006 0.941626
Si Si7 0.816624 0.536680 0.085356
O O1 0.379032 0.677543 0.279456
O O2 0.270193 0.620570 0.205874
O O3 0.325226 0.462633 0.019010
O O4 0.220782 0.759184 0.050241
O O5 0.500000 0.750000 0.998074
O O6 0.592437 0.510431 0.935082
O O7 0.500000 0.250000 0.992976
O O8 0.614626 0.455109 0.034367
O O9 0.852493 0.527266 0.829476
O O10 0.869848 0.178097 0.886283
O O11 0.000000 0.250000 0.837801
O O12 0.751957 0.500000 0.250000
O O13 0.799797 0.565567 0.146941
O O14 0.259395 0.173749 0.931935
#
# Coordination Sequence:
#
# PCOD9334328 Si02
#       7
#     4   4   8   8   8   8   8
#     4  10  20  38  56  86 112 164 208 264 306 364
#     4  12  18  36  66  88 124 168 218 268 310 380
#     4  12  25  42  63  98 141 168 209 269 338 401
#     4  10  22  35  55  83 121 162 204 257 315 369
#     4   9  21  40  60  85 115 156 222 258 306 375
#     4  11  22  40  59  90 122 174 217 255 316 391
#     4  11  22  39  64  92 123 169 214 266 316 389
#
# _framework density 19.535250999999999
#
# number of rings (size 3 to 8) (size 9 to 14) (size 15 to 20)
#    0.000    1.333    3.333    2.500    3.500    0.000 
#    6.000    0.000    0.000    1.000    0.000    0.000 
#    0.000    0.000    0.000    0.000    0.000    0.000 
#
# Total GULP energy -133611.905631 kJ/mol
# GULP energy per Si atom -5567.162735 kJ/mol
# Density = 1.949079 g / cm^3
# Si number density = 19.535251 Si / 1000 Ang^3
#
#
#
# Elastic Constant Matrix: (Units=GPa)
#
#
# Indices 1 2 3 4 5 6 
#
# 1 33.6703 15.6204 13.4685 0.0000 0.0000 0.0000
# 2 15.6204 56.5028 11.5773 0.0000 0.0000 0.0000
# 3 13.4685 11.5773 109.7777 0.0000 0.0000 0.0000
# 4 0.0000 0.0000 0.0000 28.5748 0.0000 0.0000
# 5 0.0000 0.0000 0.0000 0.0000 27.6120 0.0000
# 6 0.0000 0.0000 0.0000 0.0000 0.0000 27.2418
#
#
#
# Elastic Compliance Matrix: (Units=1/GPa)
#
#
# Indices 1 2 3 4 5 6 
#
# 1 0.035248 -0.009054 -0.003370 0.000000 0.000000 0.000000
# 2 -0.009054 0.020415 -0.001042 0.000000 0.000000 0.000000
# 3 -0.003370 -0.001042 0.009633 0.000000 0.000000 0.000000
# 4 0.000000 0.000000 0.000000 0.034996 0.000000 0.000000
# 5 0.000000 0.000000 0.000000 0.000000 0.036216 0.000000
# 6 0.000000 0.000000 0.000000 0.000000 0.000000 0.036708
#
#
# Mechanical properties :
#
#
# Convention : Reuss Voigt Hill
#
# Bulk Modulus (GPa) = 26.06627 31.25372 28.65999
# Shear Modulus (GPa) = 23.48130 27.30469 25.39300
#
# Velocity S-wave (km/s) = 3.47074 3.74266 3.60926
# Velocity P-wave (km/s) = 5.42527 5.89152 5.66320
#
# Compressibility (1/GPa) = 0.03836375
#
# Stress axis : x y z
#
# Youngs Moduli (GPa) = 28.37037 48.98412 103.81361
#
# Poissons Ratio (x) = 0.44350 0.34982
# Poissons Ratio (y) = 0.25687 0.10819
# Poissons Ratio (z) = 0.09560 0.05105
#
# Static dielectric constant tensor:
#      x y z
#    x 1.728110 0.000000 0.000000 
#    y 0.000000 1.802050 0.000000 
#    z 0.000000 0.000000 1.696670 
# 
# From -- ./inp_files/23942.got.cif
#   From: 2010.05.17/outbox.cif.g08.bks.cpg/sg24_12_cif.got.tgz:23942.got - 2010.06.04 00:33:39.
