data_PCOD9334381
_publ_section_title
;
Structure prediction by ZEFSAII (Michael W. Deem and Ramdas Pophale) SiO2 
 PCOD9334381
Probable space group: I 21 21 21
;
_chemical_formula_sum "Si O2"
_cell_formula_units_Z 44
_cell_length_a 16.519637
_cell_length_b 11.587325
_cell_length_c 12.353029
_cell_angle_alpha 90.000000
_cell_angle_beta 90.000000
_cell_angle_gamma 90.000000
_cell_volume 2364.597081
_symmetry_space_group_name_H-M "I 21 21 21"
_symmetry_group_IT_number 24
_symmetry_cell_setting 'orthorhombic'
loop_
_space_group_symop_operation_xyz
x,y,z
-x,1/2-y,z
x,-y,1/2-z
1/2-x,y,-z
1/2+x,1/2+y,1/2+z
1/2-x,-y,1/2+z
1/2+x,1/2-y,-z
-x,1/2+y,1/2-z
loop_
_atom_site_type_symbol
_atom_site_label
_atom_site_fract_x
_atom_site_fract_y
_atom_site_fract_z
Si Si1 0.799869 0.873390 0.841864
Si Si2 0.020924 0.617098 0.416619
Si Si3 0.131739 0.387066 0.889818
Si Si4 0.750000 0.706574 0.500000
Si Si5 0.853137 0.000000 0.250000
Si Si6 0.750000 0.678022 0.000000
Si Si7 0.652222 0.484939 0.876949
O O1 0.860338 0.865474 0.738861
O O2 0.829277 0.986400 0.906452
O O3 0.709862 0.905878 0.798548
O O4 0.794252 0.761081 0.914377
O O5 0.049710 0.615578 0.541723
O O6 0.090974 0.562419 0.340093
O O7 0.000000 0.750000 0.386425
O O8 0.940858 0.541518 0.402338
O O9 0.186300 0.288667 0.942467
O O10 0.703944 0.624479 0.583423
O O11 0.813388 0.595614 0.060620
O O12 0.662389 0.500000 0.750000
#
# Coordination Sequence:
#
# PCOD9334381 Si02
#       7
#     8   8   8   4   4   4   8
#     4  10  22  40  67  92 121 164 213 266 300 376
#     4  12  23  38  61  93 128 167 203 264 320 381
#     4  10  20  38  63  91 121 163 213 248 311 369
#     4  11  19  38  64  84 121 163 206 260 296 381
#     4  10  22  36  64  96 120 164 212 264 318 360
#     4  11  23  42  66  92 125 163 212 266 318 377
#     4  11  25  40  60  93 128 164 209 258 324 376
#
# _framework density 18.607823
#
# number of rings (size 3 to 8) (size 9 to 14) (size 15 to 20)
#    0.000    1.455    2.727    4.909    2.545    0.000 
#    0.000    6.364    4.000    0.000    0.000    0.000 
#    0.000    0.000    0.000    0.000    0.000    0.000 
#
# Total GULP energy -122844.850351 kJ/mol
# GULP energy per Si atom -5583.856834 kJ/mol
# Density = 1.856547 g / cm^3
# Si number density = 18.607823 Si / 1000 Ang^3
#
#
#
# Elastic Constant Matrix: (Units=GPa)
#
#
# Indices 1 2 3 4 5 6 
#
# 1 65.1269 28.0249 52.3581 0.0000 0.0000 0.0000
# 2 28.0249 127.5099 68.0610 0.0000 0.0000 0.0000
# 3 52.3581 68.0610 127.7937 0.0000 0.0000 0.0000
# 4 0.0000 0.0000 0.0000 19.8524 0.0000 0.0000
# 5 0.0000 0.0000 0.0000 0.0000 36.5181 0.0000
# 6 0.0000 0.0000 0.0000 0.0000 0.0000 8.3432
#
#
#
# Elastic Compliance Matrix: (Units=1/GPa)
#
#
# Indices 1 2 3 4 5 6 
#
# 1 0.022896 -0.000035 -0.009362 0.000000 0.000000 0.000000
# 2 -0.000035 0.010958 -0.005821 0.000000 0.000000 0.000000
# 3 -0.009362 -0.005821 0.014761 0.000000 0.000000 0.000000
# 4 0.000000 0.000000 0.000000 0.050372 0.000000 0.000000
# 5 0.000000 0.000000 0.000000 0.000000 0.027384 0.000000
# 6 0.000000 0.000000 0.000000 0.000000 0.000000 0.119858
#
#
# Mechanical properties :
#
#
# Convention : Reuss Voigt Hill
#
# Bulk Modulus (GPa) = 55.01208 68.59095 61.80152
# Shear Modulus (GPa) = 17.68503 24.40852 21.04677
#
# Velocity S-wave (km/s) = 3.08621 3.62572 3.36679
# Velocity P-wave (km/s) = 6.50598 7.38032 6.95690
#
# Compressibility (1/GPa) = 0.01817782
#
# Stress axis : x y z
#
# Youngs Moduli (GPa) = 43.67515 91.26125 67.74482
#
# Poissons Ratio (x) = 0.00320 0.63424
# Poissons Ratio (y) = 0.00153 0.39437
# Poissons Ratio (z) = 0.40889 0.53127
#
# Static dielectric constant tensor:
#      x y z
#    x 1.622210 0.000000 0.000000 
#    y 0.000000 1.626660 0.000000 
#    z 0.000000 0.000000 1.662730 
# 
# From -- ./inp_files/21507.got.cif
#   From: 2010.05.17/outbox.cif.g08.bks.cpg/sg24_11_cif.got.tgz:21507.got - 2010.06.04 00:33:39.
