data_PCOD9334892
_publ_section_title
;
Structure prediction by ZEFSAII (Michael W. Deem and Ramdas Pophale) SiO2 
 PCOD9334892
Probable space group: I 21 21 21
;
_chemical_formula_sum "Si O2"
_cell_formula_units_Z 44
_cell_length_a 5.721189
_cell_length_b 27.060110
_cell_length_c 14.955028
_cell_angle_alpha 90.000000
_cell_angle_beta 90.000000
_cell_angle_gamma 90.000000
_cell_volume 2315.277670
_symmetry_space_group_name_H-M "I 21 21 21"
_symmetry_group_IT_number 24
_symmetry_cell_setting 'orthorhombic'
loop_
_space_group_symop_operation_xyz
x,y,z
-x,1/2-y,z
x,-y,1/2-z
1/2-x,y,-z
1/2+x,1/2+y,1/2+z
1/2-x,-y,1/2+z
1/2+x,1/2-y,-z
-x,1/2+y,1/2-z
loop_
_atom_site_type_symbol
_atom_site_label
_atom_site_fract_x
_atom_site_fract_y
_atom_site_fract_z
Si Si1 0.108124 0.969669 0.668491
Si Si2 0.173443 0.392564 0.729070
Si Si3 0.063086 0.120904 0.153940
Si Si4 0.250000 0.653263 0.500000
Si Si5 0.501508 0.562591 0.050387
Si Si6 0.049440 0.805805 0.654013
O O1 0.261920 0.923840 0.636700
O O2 0.891540 0.942233 0.715925
O O3 0.227972 0.000000 0.750000
O O4 0.043887 0.008387 0.592892
O O5 0.448074 0.386195 0.748273
O O6 0.058552 0.400820 0.633103
O O7 0.064381 0.344577 0.776575
O O8 0.187034 0.174221 0.148895
O O9 0.877394 0.120703 0.074403
O O10 0.430918 0.685308 0.442460
O O11 0.750000 0.574745 0.000000
O O12 0.250000 0.561367 0.000000
O O13 0.000000 0.750000 0.680966
#
# Coordination Sequence:
#
# PCOD9334892 Si02
#       6
#     8   8   8   4   8   8
#     4   9  21  39  58  84 121 169 209 255 303 378
#     4   9  22  41  61  88 123 169 207 260 320 383
#     4  10  21  38  60  81 132 165 206 254 315 372
#     4  10  22  34  54  94 118 166 200 258 314 374
#     4  11  26  41  65  96 127 167 220 273 320 373
#     4  10  22  38  62  86 120 164 206 255 318 394
#
# _framework density 19.004199
#
# number of rings (size 3 to 8) (size 9 to 14) (size 15 to 20)
#    0.000    2.182    0.000    0.545   12.727    7.273 
#    6.545    0.000    0.000    1.091    0.000    0.000 
#    0.000    0.000    0.000    0.000    0.000    0.000 
#
# Total GULP energy -122534.507774 kJ/mol
# GULP energy per Si atom -5569.750353 kJ/mol
# Density = 1.896094 g / cm^3
# Si number density = 19.004199 Si / 1000 Ang^3
#
#
#
# Elastic Constant Matrix: (Units=GPa)
#
#
# Indices 1 2 3 4 5 6 
#
# 1 97.2987 24.8183 55.1143 0.0000 0.0000 0.0000
# 2 24.8183 103.2435 47.3059 0.0000 0.0000 0.0000
# 3 55.1143 47.3059 100.4164 0.0000 0.0000 0.0000
# 4 0.0000 0.0000 0.0000 20.0724 0.0000 0.0000
# 5 0.0000 0.0000 0.0000 0.0000 32.5231 0.0000
# 6 0.0000 0.0000 0.0000 0.0000 0.0000 3.7217
#
#
#
# Elastic Compliance Matrix: (Units=1/GPa)
#
#
# Indices 1 2 3 4 5 6 
#
# 1 0.014918 0.000211 -0.008287 0.000000 0.000000 0.000000
# 2 0.000211 0.012355 -0.005936 0.000000 0.000000 0.000000
# 3 -0.008287 -0.005936 0.017304 0.000000 0.000000 0.000000
# 4 0.000000 0.000000 0.000000 0.049820 0.000000 0.000000
# 5 0.000000 0.000000 0.000000 0.000000 0.030747 0.000000
# 6 0.000000 0.000000 0.000000 0.000000 0.000000 0.268695
#
#
# Mechanical properties :
#
#
# Convention : Reuss Voigt Hill
#
# Bulk Modulus (GPa) = 60.41652 61.71508 61.06580
# Shear Modulus (GPa) = 11.69917 22.84478 17.27197
#
# Velocity S-wave (km/s) = 2.48384 3.47088 3.01799
# Velocity P-wave (km/s) = 6.33136 6.97192 6.65934
#
# Compressibility (1/GPa) = 0.01655176
#
# Stress axis : x y z
#
# Youngs Moduli (GPa) = 67.03259 80.93825 57.79100
#
# Poissons Ratio (x) = -0.01709 0.47894
# Poissons Ratio (y) = -0.01415 0.34307
# Poissons Ratio (z) = 0.55553 0.48048
#
# Static dielectric constant tensor:
#      x y z
#    x 1.804120 0.000000 0.000000 
#    y 0.000000 1.634750 0.000000 
#    z 0.000000 0.000000 1.702530 
# 
# From -- ./inp_files/3697.got.cif
#   From: 2010.05.17/outbox.cif.g08.bks.cpg/sg24_2_cif.got.tgz:3697.got - 2010.06.04 00:33:39.
