data_PCOD9334655
_publ_section_title
;
Structure prediction by ZEFSAII (Michael W. Deem and Ramdas Pophale) SiO2 
 PCOD9334655
Probable space group: I 21 21 21
;
_chemical_formula_sum "Si O2"
_cell_formula_units_Z 40
_cell_length_a 16.311544
_cell_length_b 16.327196
_cell_length_c 7.349960
_cell_angle_alpha 90.000000
_cell_angle_beta 90.000000
_cell_angle_gamma 90.000000
_cell_volume 1957.454400
_symmetry_space_group_name_H-M "I 21 21 21"
_symmetry_group_IT_number 24
_symmetry_cell_setting 'orthorhombic'
loop_
_space_group_symop_operation_xyz
x,y,z
-x,1/2-y,z
x,-y,1/2-z
1/2-x,y,-z
1/2+x,1/2+y,1/2+z
1/2-x,-y,1/2+z
1/2+x,1/2-y,-z
-x,1/2+y,1/2-z
loop_
_atom_site_type_symbol
_atom_site_label
_atom_site_fract_x
_atom_site_fract_y
_atom_site_fract_z
Si Si1 0.750000 0.464045 0.500000
Si Si2 0.410086 0.067669 0.887472
Si Si3 0.669642 0.000000 0.750000
Si Si4 0.225853 0.170351 0.212802
Si Si5 0.068007 0.567896 0.598235
Si Si6 0.222470 0.346714 0.789300
O O1 0.831522 0.517798 0.467918
O O2 0.735326 0.402973 0.330353
O O3 0.370051 0.145667 0.787066
O O4 0.446356 0.000000 0.750000
O O5 0.479823 0.095178 0.024824
O O6 0.617158 0.971304 0.574514
O O7 0.728644 0.923055 0.795376
O O8 0.251235 0.258787 0.286004
O O9 0.250000 0.170389 0.000000
O O10 0.054060 0.500000 0.750000
O O11 0.126079 0.635129 0.693824
O O12 0.250000 0.346009 0.000000
#
# Coordination Sequence:
#
# PCOD9334655 Si02
#       6
#     4   8   4   8   8   8
#     4  10  22  38  66  86 116 170 206 242 314 358
#     4  10  21  39  63  90 124 161 203 254 303 360
#     4  10  20  42  58  88 126 158 206 248 298 372
#     4  10  21  38  62  89 118 160 206 248 299 364
#     4  11  22  35  65  94 117 161 206 250 301 361
#     4   9  20  39  62  91 119 162 206 241 312 357
#
# _framework density 20.434704
#
# number of rings (size 3 to 8) (size 9 to 14) (size 15 to 20)
#    0.000    2.000    3.000    0.000    2.800    1.600 
#    0.000    9.000    0.000    2.400    0.000    0.000 
#    0.000    0.000    0.000    0.000    0.000    0.000 
#
# Total GULP energy -111473.971217 kJ/mol
# GULP energy per Si atom -5573.698561 kJ/mol
# Density = 2.038819 g / cm^3
# Si number density = 20.434704 Si / 1000 Ang^3
#
#
#
# Elastic Constant Matrix: (Units=GPa)
#
#
# Indices 1 2 3 4 5 6 
#
# 1 109.6073 58.3492 7.0679 0.0000 0.0000 0.0000
# 2 58.3492 134.7051 9.2216 0.0000 0.0000 0.0000
# 3 7.0679 9.2216 68.6969 0.0000 0.0000 0.0000
# 4 0.0000 0.0000 0.0000 18.8650 0.0000 0.0000
# 5 0.0000 0.0000 0.0000 0.0000 22.7255 0.0000
# 6 0.0000 0.0000 0.0000 0.0000 0.0000 -7.8157
#
#
#
# Elastic Compliance Matrix: (Units=1/GPa)
#
#
# Indices 1 2 3 4 5 6 
#
# 1 0.011877 -0.005108 -0.000536 0.000000 0.000000 0.000000
# 2 -0.005108 0.009689 -0.000775 0.000000 0.000000 0.000000
# 3 -0.000536 -0.000775 0.014716 0.000000 0.000000 0.000000
# 4 0.000000 0.000000 0.000000 0.053008 0.000000 0.000000
# 5 0.000000 0.000000 0.000000 0.000000 0.044003 0.000000
# 6 0.000000 0.000000 0.000000 0.000000 0.000000 -0.127947
#
#
# Mechanical properties :
#
#
# Convention : Reuss Voigt Hill
#
# Bulk Modulus (GPa) = 42.65567 51.36519 47.01043
# Shear Modulus (GPa) = 192.30388 22.64634 107.47511
#
# Velocity S-wave (km/s) = 9.71138 3.33262 7.26007
# Velocity P-wave (km/s) = 12.11062 6.32450 9.66091
#
# Compressibility (1/GPa) = 0.02344354
#
# Stress axis : x y z
#
# Youngs Moduli (GPa) = 84.19391 103.20640 67.95364
#
# Poissons Ratio (x) = 0.52719 0.03644
# Poissons Ratio (y) = 0.43007 0.05267
# Poissons Ratio (z) = 0.04515 0.08000
#
# Static dielectric constant tensor:
#      x y z
#    x 1.744330 0.000000 0.000000 
#    y 0.000000 1.781710 0.000000 
#    z 0.000000 0.000000 1.798740 
# 
# From -- ./inp_files/12357.got.cif
#   From: 2010.05.17/outbox.cif.g08.bks.cpg/sg24_7_cif.got.tgz:12357.got - 2010.06.04 00:33:39.
