data_PCOD9334212
_publ_section_title
;
Structure prediction by ZEFSAII (Michael W. Deem and Ramdas Pophale) SiO2 
 PCOD9334212
Probable space group: I 21 21 21
;
_chemical_formula_sum "Si O2"
_cell_formula_units_Z 48
_cell_length_a 5.758142
_cell_length_b 21.546668
_cell_length_c 17.864373
_cell_angle_alpha 90.000000
_cell_angle_beta 90.000000
_cell_angle_gamma 90.000000
_cell_volume 2216.410856
_symmetry_space_group_name_H-M "I 21 21 21"
_symmetry_group_IT_number 24
_symmetry_cell_setting 'orthorhombic'
loop_
_space_group_symop_operation_xyz
x,y,z
-x,1/2-y,z
x,-y,1/2-z
1/2-x,y,-z
1/2+x,1/2+y,1/2+z
1/2-x,-y,1/2+z
1/2+x,1/2-y,-z
-x,1/2+y,1/2-z
loop_
_atom_site_type_symbol
_atom_site_label
_atom_site_fract_x
_atom_site_fract_y
_atom_site_fract_z
Si Si1 0.569500 0.963105 0.872316
Si Si2 0.750000 0.780371 0.000000
Si Si3 0.336226 0.660179 0.157438
Si Si4 0.225941 0.000000 0.750000
Si Si5 0.500000 0.750000 0.747455
Si Si6 0.601604 0.681942 0.303037
Si Si7 0.250000 0.005593 0.500000
Si Si8 0.557586 0.935731 0.378101
O O1 0.754051 0.910331 0.854249
O O2 0.393626 0.961750 0.803655
O O3 0.419896 0.954221 0.947527
O O4 0.692312 0.030740 0.879648
O O5 0.500000 0.750000 0.973391
O O6 0.850210 0.815690 0.927061
O O7 0.547070 0.661764 0.216695
O O8 0.162718 0.707983 0.199456
O O9 0.066135 0.038723 0.804052
O O10 0.626287 0.697644 0.696770
O O11 0.500000 0.750000 0.314094
O O12 0.481111 0.636757 0.362875
O O13 0.410638 0.962861 0.447217
#
# Coordination Sequence:
#
# PCOD9334212 Si02
#       8
#     8   4   8   4   4   8   4   8
#     4  11  23  41  64  96 133 179 226 291 343 434
#     4  12  26  43  60  92 139 192 234 284 348 418
#     4  11  23  38  60  92 130 175 230 280 342 414
#     4  10  20  36  64  96 120 168 216 270 358 396
#     4  10  20  42  60  92 130 164 220 284 342 428
#     4  10  22  39  67  93 120 166 220 285 353 418
#     4  10  26  41  62  92 133 180 226 276 360 418
#     4  11  22  42  63  92 132 167 223 289 345 423
#
# _framework density 21.656634
#
# number of rings (size 3 to 8) (size 9 to 14) (size 15 to 20)
#    0.000    1.333    0.833    5.500    2.333    6.000 
#    0.000    0.000    5.500    0.000    0.000    0.000 
#    0.000    0.000    0.000    0.000    0.000    0.000 
#
# Total GULP energy -133791.669841 kJ/mol
# GULP energy per Si atom -5574.652910 kJ/mol
# Density = 2.160734 g / cm^3
# Si number density = 21.656634 Si / 1000 Ang^3
#
#
#
# Elastic Constant Matrix: (Units=GPa)
#
#
# Indices 1 2 3 4 5 6 
#
# 1 63.6944 6.3192 12.9219 0.0000 0.0000 0.0000
# 2 6.3192 83.4486 5.9487 0.0000 0.0000 0.0000
# 3 12.9219 5.9487 62.4834 0.0000 0.0000 0.0000
# 4 0.0000 0.0000 0.0000 14.8100 0.0000 0.0000
# 5 0.0000 0.0000 0.0000 0.0000 47.2206 0.0000
# 6 0.0000 0.0000 0.0000 0.0000 0.0000 32.8260
#
#
#
# Elastic Compliance Matrix: (Units=1/GPa)
#
#
# Indices 1 2 3 4 5 6 
#
# 1 0.016472 -0.001011 -0.003310 0.000000 0.000000 0.000000
# 2 -0.001011 0.012127 -0.000945 0.000000 0.000000 0.000000
# 3 -0.003310 -0.000945 0.016779 0.000000 0.000000 0.000000
# 4 0.000000 0.000000 0.000000 0.067522 0.000000 0.000000
# 5 0.000000 0.000000 0.000000 0.000000 0.021177 0.000000
# 6 0.000000 0.000000 0.000000 0.000000 0.000000 0.030464
#
#
# Mechanical properties :
#
#
# Convention : Reuss Voigt Hill
#
# Bulk Modulus (GPa) = 28.69924 28.88955 28.79440
# Shear Modulus (GPa) = 26.78240 31.26707 29.02473
#
# Velocity S-wave (km/s) = 3.52047 3.80381 3.66488
# Velocity P-wave (km/s) = 5.45945 5.71496 5.58867
#
# Compressibility (1/GPa) = 0.03484413
#
# Stress axis : x y z
#
# Youngs Moduli (GPa) = 60.70964 82.45781 59.59893
#
# Poissons Ratio (x) = 0.08340 0.19728
# Poissons Ratio (y) = 0.06140 0.05635
# Poissons Ratio (z) = 0.20096 0.07796
#
# Static dielectric constant tensor:
#      x y z
#    x 1.937000 0.000000 0.000000 
#    y 0.000000 1.965370 0.000000 
#    z 0.000000 0.000000 1.747700 
# 
# From -- ./inp_files/28834.got.cif
#   From: 2010.05.17/outbox.cif.g08.bks.cpg/sg24_15_cif.got.tgz:28834.got - 2010.06.04 00:33:39.
