data_PCOD9334453
_publ_section_title
;
Structure prediction by ZEFSAII (Michael W. Deem and Ramdas Pophale) SiO2 
 PCOD9334453
Probable space group: I 21 21 21
;
_chemical_formula_sum "Si O2"
_cell_formula_units_Z 40
_cell_length_a 16.598991
_cell_length_b 13.051581
_cell_length_c 7.912950
_cell_angle_alpha 90.000000
_cell_angle_beta 90.000000
_cell_angle_gamma 90.000000
_cell_volume 1714.285825
_symmetry_space_group_name_H-M "I 21 21 21"
_symmetry_group_IT_number 24
_symmetry_cell_setting 'orthorhombic'
loop_
_space_group_symop_operation_xyz
x,y,z
-x,1/2-y,z
x,-y,1/2-z
1/2-x,y,-z
1/2+x,1/2+y,1/2+z
1/2-x,-y,1/2+z
1/2+x,1/2-y,-z
-x,1/2+y,1/2-z
loop_
_atom_site_type_symbol
_atom_site_label
_atom_site_fract_x
_atom_site_fract_y
_atom_site_fract_z
Si Si1 0.395641 0.374583 0.269175
Si Si2 0.277324 0.686657 0.689165
Si Si3 0.561714 0.117589 0.627422
Si Si4 0.326586 0.918148 0.604469
Si Si5 0.001334 0.107298 0.037921
O O1 0.391895 0.500000 0.250000
O O2 0.305657 0.332321 0.284482
O O3 0.436564 0.335762 0.441178
O O4 0.444452 0.340925 0.101251
O O5 0.250000 0.650583 0.500000
O O6 0.351622 0.630418 0.780169
O O7 0.302296 0.805670 0.672854
O O8 0.498926 0.150134 0.771358
O O9 0.538757 0.002236 0.575192
O O10 0.250000 0.956467 0.500000
O O11 0.405980 0.905199 0.488707
O O12 0.345288 0.000000 0.750000
#
# Coordination Sequence:
#
# PCOD9334453 Si02
#       5
#     8   8   8   8   8
#     4  10  22  37  71 107 137 168 216 279 344 417
#     4  11  23  40  66 104 138 181 219 276 352 405
#     4  10  20  38  71  98 133 174 212 279 340 405
#     4  11  26  48  71  93 134 191 232 289 338 403
#     4  10  21  44  67 100 136 173 224 278 344 398
#
# _framework density 23.333331999999999
#
# number of rings (size 3 to 8) (size 9 to 14) (size 15 to 20)
#    0.000    1.600    4.000    0.600    2.800    4.800 
#    0.000    0.000    8.800    0.000    0.000    0.000 
#    0.000    0.000    0.000    0.000    0.000    0.000 
#
# Total GULP energy -111569.049530 kJ/mol
# GULP energy per Si atom -5578.452477 kJ/mol
# Density = 2.328022 g / cm^3
# Si number density = 23.333332 Si / 1000 Ang^3
#
#
#
# Elastic Constant Matrix: (Units=GPa)
#
#
# Indices 1 2 3 4 5 6 
#
# 1 126.6949 26.1946 26.9123 0.0000 0.0000 0.0000
# 2 26.1946 88.1471 -5.4536 0.0000 0.0000 0.0000
# 3 26.9123 -5.4536 99.0551 0.0000 0.0000 0.0000
# 4 0.0000 0.0000 0.0000 -13.2486 0.0000 0.0000
# 5 0.0000 0.0000 0.0000 0.0000 -74.0199 0.0000
# 6 0.0000 0.0000 0.0000 0.0000 0.0000 22.9321
#
#
#
# Elastic Compliance Matrix: (Units=1/GPa)
#
#
# Indices 1 2 3 4 5 6 
#
# 1 0.009036 -0.002847 -0.002612 0.000000 0.000000 0.000000
# 2 -0.002847 0.012280 0.001450 0.000000 0.000000 0.000000
# 3 -0.002612 0.001450 0.010885 0.000000 0.000000 0.000000
# 4 0.000000 0.000000 0.000000 -0.075480 0.000000 0.000000
# 5 0.000000 0.000000 0.000000 0.000000 -0.013510 0.000000
# 6 0.000000 0.000000 0.000000 0.000000 0.000000 0.043607
#
#
# Mechanical properties :
#
#
# Convention : Reuss Voigt Hill
#
# Bulk Modulus (GPa) = 41.35098 45.46709 43.40904
# Shear Modulus (GPa) = 1725.12595 4.88231 865.00413
#
# Velocity S-wave (km/s) = 27.22030 1.44809 19.27488
# Velocity P-wave (km/s) = 31.71256 4.72484 22.67169
#
# Compressibility (1/GPa) = 0.02418322
#
# Stress axis : x y z
#
# Youngs Moduli (GPa) = 110.66357 81.43069 91.87112
#
# Poissons Ratio (x) = 0.23183 0.23995
# Poissons Ratio (y) = 0.31505 -0.13318
# Poissons Ratio (z) = 0.28904 -0.11804
#
# Static dielectric constant tensor:
#      x y z
#    x 1.869880 0.000000 0.000000 
#    y 0.000000 1.957170 0.000000 
#    z 0.000000 0.000000 1.998400 
# 
# From -- ./inp_files/12311.got.cif
#   From: 2010.05.17/outbox.cif.g08.bks.cpg/sg24_7_cif.got.tgz:12311.got - 2010.06.04 00:33:39.
