data_PCOD9334462
_publ_section_title
;
Structure prediction by ZEFSAII (Michael W. Deem and Ramdas Pophale) SiO2 
 PCOD9334462
Probable space group: I 21 21 21
;
_chemical_formula_sum "Si O2"
_cell_formula_units_Z 32
_cell_length_a 18.004877
_cell_length_b 12.793856
_cell_length_c 7.733550
_cell_angle_alpha 90.000000
_cell_angle_beta 90.000000
_cell_angle_gamma 90.000000
_cell_volume 1781.437191
_symmetry_space_group_name_H-M "I 21 21 21"
_symmetry_group_IT_number 24
_symmetry_cell_setting 'orthorhombic'
loop_
_space_group_symop_operation_xyz
x,y,z
-x,1/2-y,z
x,-y,1/2-z
1/2-x,y,-z
1/2+x,1/2+y,1/2+z
1/2-x,-y,1/2+z
1/2+x,1/2-y,-z
-x,1/2+y,1/2-z
loop_
_atom_site_type_symbol
_atom_site_label
_atom_site_fract_x
_atom_site_fract_y
_atom_site_fract_z
Si Si1 0.500000 0.750000 0.741028
Si Si2 0.419010 0.284489 0.101962
Si Si3 0.934192 0.000000 0.750000
Si Si4 0.330673 0.927325 0.418199
Si Si5 0.035725 0.950769 0.078832
O O1 0.440001 0.704456 0.602505
O O2 0.458516 0.831203 0.864921
O O3 0.500000 0.250000 0.177469
O O4 0.394430 0.393720 0.186228
O O5 0.364821 0.186502 0.122956
O O6 0.986302 0.031897 0.589347
O O7 0.250000 0.917043 0.500000
O O8 0.326966 0.000000 0.250000
O O9 0.388612 0.986356 0.544307
O O10 0.999600 0.000000 0.250000
#
# Coordination Sequence:
#
# PCOD9334462 Si02
#       5
#     4   8   4   8   8
#     4  10  22  32  64  88 134 162 200 262 312 378
#     4  10  20  39  58  92 124 158 214 257 309 375
#     4  12  22  36  64  92 126 164 216 260 310 370
#     4  12  25  40  61  92 131 167 207 260 324 379
#     4  12  20  38  59  94 129 163 203 258 319 371
#
# _framework density 17.963024999999998
#
# number of rings (size 3 to 8) (size 9 to 14) (size 15 to 20)
#    0.750    0.000    8.750    0.750    5.250    0.000 
#    0.000    0.000    0.000    4.500    0.000    0.000 
#    0.000    0.000    0.000    0.000    0.000    0.000 
#
# Total GULP energy -89121.194298 kJ/mol
# GULP energy per Si atom -5570.074644 kJ/mol
# Density = 1.792214 g / cm^3
# Si number density = 17.963025 Si / 1000 Ang^3
#
#
#
# Elastic Constant Matrix: (Units=GPa)
#
#
# Indices 1 2 3 4 5 6 
#
# 1 63.0907 67.7178 33.3564 0.0000 0.0000 0.0000
# 2 67.7178 185.7543 59.6165 0.0000 0.0000 0.0000
# 3 33.3564 59.6165 119.0596 0.0000 0.0000 0.0000
# 4 0.0000 0.0000 0.0000 44.5020 0.0000 0.0000
# 5 0.0000 0.0000 0.0000 0.0000 8.3103 0.0000
# 6 0.0000 0.0000 0.0000 0.0000 0.0000 21.7081
#
#
#
# Elastic Compliance Matrix: (Units=1/GPa)
#
#
# Indices 1 2 3 4 5 6 
#
# 1 0.026989 -0.008832 -0.003139 0.000000 0.000000 0.000000
# 2 -0.008832 0.009304 -0.002185 0.000000 0.000000 0.000000
# 3 -0.003139 -0.002185 0.010373 0.000000 0.000000 0.000000
# 4 0.000000 0.000000 0.000000 0.022471 0.000000 0.000000
# 5 0.000000 0.000000 0.000000 0.000000 0.120332 0.000000
# 6 0.000000 0.000000 0.000000 0.000000 0.000000 0.046066
#
#
# Mechanical properties :
#
#
# Convention : Reuss Voigt Hill
#
# Bulk Modulus (GPa) = 54.48050 76.58732 65.53391
# Shear Modulus (GPa) = 18.52100 28.71834 23.61967
#
# Velocity S-wave (km/s) = 3.21450 4.00277 3.63010
# Velocity P-wave (km/s) = 6.64623 8.00572 7.35744
#
# Compressibility (1/GPa) = 0.01835519
#
# Stress axis : x y z
#
# Youngs Moduli (GPa) = 37.05192 107.47872 96.40847
#
# Poissons Ratio (x) = 0.94920 0.30265
# Poissons Ratio (y) = 0.32723 0.21061
# Poissons Ratio (z) = 0.11631 0.23479
#
# Static dielectric constant tensor:
#      x y z
#    x 1.584930 0.000000 0.000000 
#    y 0.000000 1.701090 0.000000 
#    z 0.000000 0.000000 1.649600 
# 
# From -- ./inp_files/13779.got.cif
#   From: 2010.05.17/outbox.cif.g08.bks.cpg/sg24_7_cif.got.tgz:13779.got - 2010.06.04 00:33:39.
