data_PCOD9334790
_publ_section_title
;
Structure prediction by ZEFSAII (Michael W. Deem and Ramdas Pophale) SiO2 
 PCOD9334790
Probable space group: I 21 21 21
;
_chemical_formula_sum "Si O2"
_cell_formula_units_Z 36
_cell_length_a 11.332734
_cell_length_b 22.894004
_cell_length_c 6.904972
_cell_angle_alpha 90.000000
_cell_angle_beta 90.000000
_cell_angle_gamma 90.000000
_cell_volume 1791.506431
_symmetry_space_group_name_H-M "I 21 21 21"
_symmetry_group_IT_number 24
_symmetry_cell_setting 'orthorhombic'
loop_
_space_group_symop_operation_xyz
x,y,z
-x,1/2-y,z
x,-y,1/2-z
1/2-x,y,-z
1/2+x,1/2+y,1/2+z
1/2-x,-y,1/2+z
1/2+x,1/2-y,-z
-x,1/2+y,1/2-z
loop_
_atom_site_type_symbol
_atom_site_label
_atom_site_fract_x
_atom_site_fract_y
_atom_site_fract_z
Si Si1 0.890399 0.213960 0.310570
Si Si2 0.250000 0.807472 0.000000
Si Si3 0.388163 0.395027 0.969684
Si Si4 0.611099 0.019920 0.473803
Si Si5 0.502296 0.362191 0.379041
O O1 0.790263 0.262413 0.332008
O O2 0.000000 0.250000 0.230974
O O3 0.924635 0.189113 0.523205
O O4 0.880485 0.156879 0.182770
O O5 0.362427 0.844462 0.074815
O O6 0.428629 0.460794 0.915302
O O7 0.460637 0.372593 0.157634
O O8 0.250000 0.407367 0.000000
O O9 0.750000 0.035711 0.500000
O O10 0.532334 0.077577 0.487155
O O11 0.602268 0.000000 0.250000
#
# Coordination Sequence:
#
# PCOD9334790 Si02
#       5
#     8   4   8   8   8
#     4  10  22  36  57  86 115 162 209 247 310 377
#     4  10  22  42  60  88 132 178 206 252 330 398
#     4  10  21  36  60  92 118 152 206 268 316 362
#     4   9  20  34  60  91 115 152 203 269 326 364
#     4  10  22  39  62  84 128 164 205 262 313 386
#
# _framework density 20.094819999999999
#
# number of rings (size 3 to 8) (size 9 to 14) (size 15 to 20)
#    0.000    2.222    0.000    1.333   10.889    4.444 
#    0.000    3.333   29.333    0.000    0.000    0.000 
#    0.000    0.000    0.000    0.000    0.000    0.000 
#
# Total GULP energy -100257.427965 kJ/mol
# GULP energy per Si atom -5569.857109 kJ/mol
# Density = 2.004908 g / cm^3
# Si number density = 20.094820 Si / 1000 Ang^3
#
#
#
# Elastic Constant Matrix: (Units=GPa)
#
#
# Indices 1 2 3 4 5 6 
#
# 1 115.2219 84.5222 34.4589 -0.0001 -0.0006 -0.0004
# 2 84.5222 172.9348 40.6274 -0.0003 -0.0003 -0.0005
# 3 34.4589 40.6274 60.5581 0.0062 0.0042 0.0012
# 4 -0.0001 -0.0003 0.0062 18.4920 -0.0028 -0.0020
# 5 -0.0006 -0.0003 0.0042 -0.0028 5.9782 0.0002
# 6 -0.0004 -0.0005 0.0012 -0.0020 0.0002 43.6068
#
#
#
# Elastic Compliance Matrix: (Units=1/GPa)
#
#
# Indices 1 2 3 4 5 6 
#
# 1 0.014341 -0.006045 -0.004105 0.000001 0.000004 0.000000
# 2 -0.006045 0.009412 -0.002875 0.000001 0.000002 0.000000
# 3 -0.004105 -0.002875 0.020778 -0.000007 -0.000015 -0.000001
# 4 0.000001 0.000001 -0.000007 0.054078 0.000025 0.000003
# 5 0.000004 0.000002 -0.000015 0.000025 0.167273 -0.000001
# 6 0.000000 0.000000 -0.000001 0.000003 -0.000001 0.022932
#
#
# Mechanical properties :
#
#
# Convention : Reuss Voigt Hill
#
# Bulk Modulus (GPa) = 54.10823 74.21464 64.16143
# Shear Modulus (GPa) = 15.57520 26.22249 20.89885
#
# Velocity S-wave (km/s) = 2.78706 3.61631 3.22842
# Velocity P-wave (km/s) = 6.11080 7.37898 6.77463
#
# Compressibility (1/GPa) = 0.01848148
#
# Stress axis : x y z
#
# Youngs Moduli (GPa) = 69.73175 106.24400 48.12872
#
# Poissons Ratio (x) = 0.64221 0.19756
# Poissons Ratio (y) = 0.42151 0.13837
# Poissons Ratio (z) = 0.28624 0.30545
#
# Static dielectric constant tensor:
#      x y z
#    x 1.699350 0.000000 -0.000010 
#    y 0.000000 1.804760 0.000000 
#    z -0.000010 0.000000 1.932430 
# 
# From -- ./inp_files/10950.got.cif
#   From: 2010.05.17/outbox.cif.g08.bks.cpg/sg24_6_cif.got.tgz:10950.got - 2010.06.04 00:33:39.
