data_PCOD9334763
_publ_section_title
;
Structure prediction by ZEFSAII (Michael W. Deem and Ramdas Pophale) SiO2 
 PCOD9334763
Probable space group: I 21 21 21
;
_chemical_formula_sum "Si O2"
_cell_formula_units_Z 44
_cell_length_a 10.024507
_cell_length_b 17.977249
_cell_length_c 14.154026
_cell_angle_alpha 90.000000
_cell_angle_beta 90.000000
_cell_angle_gamma 90.000000
_cell_volume 2550.740315
_symmetry_space_group_name_H-M "I 21 21 21"
_symmetry_group_IT_number 24
_symmetry_cell_setting 'orthorhombic'
loop_
_space_group_symop_operation_xyz
x,y,z
-x,1/2-y,z
x,-y,1/2-z
1/2-x,y,-z
1/2+x,1/2+y,1/2+z
1/2-x,-y,1/2+z
1/2+x,1/2-y,-z
-x,1/2+y,1/2-z
loop_
_atom_site_type_symbol
_atom_site_label
_atom_site_fract_x
_atom_site_fract_y
_atom_site_fract_z
Si Si1 0.372519 0.799042 0.939807
Si Si2 0.346068 0.950099 0.335335
Si Si3 0.750000 0.557360 0.000000
Si Si4 0.058872 0.667460 0.587815
Si Si5 0.356032 0.678723 0.629900
Si Si6 0.121264 0.835034 0.277986
O O1 0.500000 0.750000 0.960731
O O2 0.355119 0.803460 0.826958
O O3 0.250000 0.766326 0.000000
O O4 0.369039 0.885324 0.972971
O O5 0.452962 0.893362 0.378766
O O6 0.221185 0.901886 0.297470
O O7 0.401394 0.000000 0.250000
O O8 0.292814 0.005921 0.414491
O O9 0.202709 0.654376 0.636529
O O10 0.089636 0.663890 0.475556
O O11 0.000000 0.750000 0.607878
O O12 0.351797 0.767490 0.649325
O O13 0.465416 0.646652 0.702966
#
# Coordination Sequence:
#
# PCOD9334763 Si02
#       6
#     8   8   4   8   8   8
#     4  10  21  42  62  89 118 163 223 264 309 380
#     4  12  23  41  62  92 135 169 212 265 332 397
#     4  10  24  38  64  92 122 174 212 264 328 388
#     4  11  21  36  61  98 128 161 207 268 326 391
#     4  10  21  35  62  95 118 157 210 269 326 361
#     4  11  19  37  64  91 120 159 210 268 321 386
#
# _framework density 17.249894000000001
#
# number of rings (size 3 to 8) (size 9 to 14) (size 15 to 20)
#    0.545    0.727    7.273    1.091    0.000    0.000 
#    6.545    0.909   12.000    0.000    0.000    0.000 
#    0.000    0.000    0.000    0.000    0.000    0.000 
#
# Total GULP energy -122574.267640 kJ/mol
# GULP energy per Si atom -5571.557620 kJ/mol
# Density = 1.721063 g / cm^3
# Si number density = 17.249894 Si / 1000 Ang^3
#
#
#
# Elastic Constant Matrix: (Units=GPa)
#
#
# Indices 1 2 3 4 5 6 
#
# 1 136.2297 64.9529 54.5922 0.0000 0.0000 0.0000
# 2 64.9529 106.7730 43.6090 0.0002 0.0000 0.0000
# 3 54.5922 43.6090 98.9264 0.0001 0.0000 0.0000
# 4 0.0000 0.0002 0.0001 609.1029 0.0000 0.0000
# 5 0.0000 0.0000 0.0000 0.0000 27.0843 0.0000
# 6 0.0000 0.0000 0.0000 0.0000 0.0000 13.8952
#
#
#
# Elastic Compliance Matrix: (Units=1/GPa)
#
#
# Indices 1 2 3 4 5 6 
#
# 1 0.011493 -0.005368 -0.003976 0.000000 0.000000 0.000000
# 2 -0.005368 0.013929 -0.003178 0.000000 0.000000 0.000000
# 3 -0.003976 -0.003178 0.013704 0.000000 0.000000 0.000000
# 4 0.000000 0.000000 0.000000 0.001642 0.000000 0.000000
# 5 0.000000 0.000000 0.000000 0.000000 0.036922 0.000000
# 6 0.000000 0.000000 0.000000 0.000000 0.000000 0.071967
#
#
# Mechanical properties :
#
#
# Convention : Reuss Voigt Hill
#
# Bulk Modulus (GPa) = 71.01304 74.24860 72.63082
# Shear Modulus (GPa) = 27.87148 141.93481 84.90315
#
# Velocity S-wave (km/s) = 4.02400 9.08076 7.02327
# Velocity P-wave (km/s) = 7.92759 12.37268 10.39062
#
# Compressibility (1/GPa) = 0.01408192
#
# Stress axis : x y z
#
# Youngs Moduli (GPa) = 87.00783 71.79303 72.97225
#
# Poissons Ratio (x) = 0.38536 0.29016
# Poissons Ratio (y) = 0.46702 0.23191
# Poissons Ratio (z) = 0.34597 0.22817
#
# Static dielectric constant tensor:
#      x y z
#    x 1.295390 0.000000 0.000000 
#    y 0.000000 1.569570 0.000000 
#    z 0.000000 0.000000 1.607700 
# 
# From -- ./inp_files/12663.got.cif
#   From: 2010.05.17/outbox.cif.g08.bks.cpg/sg24_7_cif.got.tgz:12663.got - 2010.06.04 00:33:39.
