data_PCOD9334948
_publ_section_title
;
Structure prediction by ZEFSAII (Michael W. Deem and Ramdas Pophale) SiO2 
 PCOD9334948
Probable space group: I 21 21 21
;
_chemical_formula_sum "Si O2"
_cell_formula_units_Z 36
_cell_length_a 15.231935
_cell_length_b 14.835770
_cell_length_c 7.377451
_cell_angle_alpha 90.000000
_cell_angle_beta 90.000000
_cell_angle_gamma 90.000000
_cell_volume 1667.137818
_symmetry_space_group_name_H-M "I 21 21 21"
_symmetry_group_IT_number 24
_symmetry_cell_setting 'orthorhombic'
loop_
_space_group_symop_operation_xyz
x,y,z
-x,1/2-y,z
x,-y,1/2-z
1/2-x,y,-z
1/2+x,1/2+y,1/2+z
1/2-x,-y,1/2+z
1/2+x,1/2-y,-z
-x,1/2+y,1/2-z
loop_
_atom_site_type_symbol
_atom_site_label
_atom_site_fract_x
_atom_site_fract_y
_atom_site_fract_z
Si Si1 0.341164 0.335687 0.436994
Si Si2 0.199281 0.000000 0.250000
Si Si3 0.055047 0.096567 0.025945
Si Si4 0.500000 0.250000 0.684067
Si Si5 0.934655 0.000000 0.750000
Si Si6 0.697686 0.673513 0.312464
O O1 0.250000 0.382031 0.500000
O O2 0.416105 0.289013 0.567939
O O3 0.386062 0.410361 0.313092
O O4 0.300402 0.255973 0.318608
O O5 0.134054 0.032270 0.092958
O O6 0.259983 0.086138 0.279753
O O7 0.027814 0.165100 0.186538
O O8 0.097525 0.155954 0.867078
O O9 0.985889 0.032269 0.930739
O O10 0.750000 0.690852 0.500000
#
# Coordination Sequence:
#
# PCOD9334948 Si02
#       6
#     8   4   8   4   4   8
#     4  12  27  45  69 100 138 186 242 297 362 435
#     4  10  21  38  69 104 136 172 226 304 376 434
#     4  11  23  42  67  98 139 182 233 292 363 445
#     4  12  26  46  72 102 142 190 238 304 376 438
#     4  12  27  44  67  96 138 194 240 284 352 448
#     4  10  22  41  68 100 135 176 230 302 370 429
#
# _framework density 21.593895
#
# number of rings (size 3 to 8) (size 9 to 14) (size 15 to 20)
#    0.000    0.889    0.000    7.333    0.000   12.444 
#    0.000    0.000    0.000    0.000    0.000    0.000 
#    0.000    0.000    0.000    0.000    0.000    0.000 
#
# Total GULP energy -100449.965293 kJ/mol
# GULP energy per Si atom -5580.553627 kJ/mol
# Density = 2.154475 g / cm^3
# Si number density = 21.593895 Si / 1000 Ang^3
#
#
#
# Elastic Constant Matrix: (Units=GPa)
#
#
# Indices 1 2 3 4 5 6 
#
# 1 92.4968 41.2195 32.4802 0.0000 0.0000 0.0000
# 2 41.2195 127.1026 51.3063 0.0000 0.0000 0.0000
# 3 32.4802 51.3063 76.2384 0.0000 0.0000 0.0000
# 4 0.0000 0.0000 0.0000 32.2576 0.0000 0.0000
# 5 0.0000 0.0000 0.0000 0.0000 32.3275 0.0000
# 6 0.0000 0.0000 0.0000 0.0000 0.0000 44.8905
#
#
#
# Elastic Compliance Matrix: (Units=1/GPa)
#
#
# Indices 1 2 3 4 5 6 
#
# 1 0.013403 -0.002803 -0.003824 0.000000 0.000000 0.000000
# 2 -0.002803 0.011388 -0.006470 0.000000 0.000000 0.000000
# 3 -0.003824 -0.006470 0.019100 0.000000 0.000000 0.000000
# 4 0.000000 0.000000 0.000000 0.031000 0.000000 0.000000
# 5 0.000000 0.000000 0.000000 0.000000 0.030933 0.000000
# 6 0.000000 0.000000 0.000000 0.000000 0.000000 0.022276
#
#
# Mechanical properties :
#
#
# Convention : Reuss Voigt Hill
#
# Bulk Modulus (GPa) = 56.50409 60.65000 58.57704
# Shear Modulus (GPa) = 31.21213 33.28389 32.24801
#
# Velocity S-wave (km/s) = 3.80599 3.93027 3.86863
# Velocity P-wave (km/s) = 6.74815 6.98167 6.86590
#
# Compressibility (1/GPa) = 0.01769783
#
# Stress axis : x y z
#
# Youngs Moduli (GPa) = 74.60980 87.80926 52.35660
#
# Poissons Ratio (x) = 0.24614 0.20020
# Poissons Ratio (y) = 0.20914 0.33874
# Poissons Ratio (z) = 0.28529 0.56811
#
# Static dielectric constant tensor:
#      x y z
#    x 1.940210 0.000000 0.000000 
#    y 0.000000 1.908320 0.000000 
#    z 0.000000 0.000000 1.757840 
# 
# From -- ./inp_files/12265.got.cif
#   From: 2010.05.17/outbox.cif.g08.bks.cpg/sg24_7_cif.got.tgz:12265.got - 2010.06.04 00:33:39.
