data_PCOD9334026
_publ_section_title
;
Structure prediction by ZEFSAII (Michael W. Deem and Ramdas Pophale) SiO2 
 PCOD9334026
Probable space group: I 21 21 21
;
_chemical_formula_sum "Si O2"
_cell_formula_units_Z 48
_cell_length_a 8.807437
_cell_length_b 12.020473
_cell_length_c 21.192738
_cell_angle_alpha 90.000000
_cell_angle_beta 90.000000
_cell_angle_gamma 90.000000
_cell_volume 2243.665819
_symmetry_space_group_name_H-M "I 21 21 21"
_symmetry_group_IT_number 24
_symmetry_cell_setting 'orthorhombic'
loop_
_space_group_symop_operation_xyz
x,y,z
-x,1/2-y,z
x,-y,1/2-z
1/2-x,y,-z
1/2+x,1/2+y,1/2+z
1/2-x,-y,1/2+z
1/2+x,1/2-y,-z
-x,1/2+y,1/2-z
loop_
_atom_site_type_symbol
_atom_site_label
_atom_site_fract_x
_atom_site_fract_y
_atom_site_fract_z
Si Si1 0.750000 0.923180 0.000000
Si Si2 0.750000 0.585954 0.000000
Si Si3 0.209409 0.466802 0.365913
Si Si4 0.867420 0.320861 0.805942
Si Si5 0.355363 0.002888 0.871038
Si Si6 0.425468 0.500000 0.250000
Si Si7 0.500000 0.750000 0.014264
Si Si8 0.324366 0.234551 0.693812
O O1 0.726334 0.989947 0.064267
O O2 0.608307 0.842864 0.983463
O O3 0.830278 0.515557 0.054355
O O4 0.630760 0.665629 0.037962
O O5 0.320638 0.505935 0.311358
O O6 0.213456 0.332849 0.354766
O O7 0.037271 0.512363 0.358949
O O8 0.753587 0.398561 0.846111
O O9 0.764949 0.249311 0.758610
O O10 0.000000 0.250000 0.840177
O O11 0.961881 0.396774 0.756963
O O12 0.308826 0.888218 0.835535
O O13 0.500000 0.250000 0.708871
#
# Coordination Sequence:
#
# PCOD9334026 Si02
#       8
#     4   4   8   8   8   4   4   8
#     4  11  22  38  58  99 144 176 215 266 346 411
#     4  11  22  40  62 103 136 182 221 278 350 417
#     4  11  25  41  64  99 140 182 220 271 348 425
#     4  12  25  44  64 100 132 180 231 292 336 397
#     4  11  24  41  67  94 139 185 223 271 354 415
#     4  12  26  40  66 100 132 176 236 284 336 396
#     4  10  20  34  62 100 146 174 212 274 346 426
#     4  10  21  38  65  97 137 177 217 269 345 421
#
# _framework density 21.393560999999998
#
# number of rings (size 3 to 8) (size 9 to 14) (size 15 to 20)
#    0.000    1.000    5.000    2.000    9.333    1.333 
#    1.500    0.000    0.000    4.000    0.000    0.000 
#    0.000    0.000    0.000    0.000    0.000    0.000 
#
# Total GULP energy -133713.332396 kJ/mol
# GULP energy per Si atom -5571.388850 kJ/mol
# Density = 2.134487 g / cm^3
# Si number density = 21.393561 Si / 1000 Ang^3
#
#
#
# Elastic Constant Matrix: (Units=GPa)
#
#
# Indices 1 2 3 4 5 6 
#
# 1 71.5494 32.7544 61.6877 0.0000 0.0000 0.0000
# 2 32.7544 57.5155 22.2765 0.0000 0.0000 0.0000
# 3 61.6877 22.2765 123.8551 0.0000 0.0000 0.0000
# 4 0.0000 0.0000 0.0000 21.3162 0.0000 0.0000
# 5 0.0000 0.0000 0.0000 0.0000 26.2730 0.0000
# 6 0.0000 0.0000 0.0000 0.0000 0.0000 37.5122
#
#
#
# Elastic Compliance Matrix: (Units=1/GPa)
#
#
# Indices 1 2 3 4 5 6 
#
# 1 0.031194 -0.012627 -0.013265 0.000000 0.000000 0.000000
# 2 -0.012627 0.023799 0.002008 0.000000 0.000000 0.000000
# 3 -0.013265 0.002008 0.014320 0.000000 0.000000 0.000000
# 4 0.000000 0.000000 0.000000 0.046913 0.000000 0.000000
# 5 0.000000 0.000000 0.000000 0.000000 0.038062 0.000000
# 6 0.000000 0.000000 0.000000 0.000000 0.000000 0.026658
#
#
# Mechanical properties :
#
#
# Convention : Reuss Voigt Hill
#
# Bulk Modulus (GPa) = 46.41344 54.03968 50.22656
# Shear Modulus (GPa) = 21.19590 26.10037 23.64813
#
# Velocity S-wave (km/s) = 3.15105 3.49665 3.32834
# Velocity P-wave (km/s) = 5.91447 6.45110 6.18861
#
# Compressibility (1/GPa) = 0.02154548
#
# Stress axis : x y z
#
# Youngs Moduli (GPa) = 32.05780 42.01777 69.83360
#
# Poissons Ratio (x) = 0.53054 0.92637
# Poissons Ratio (y) = 0.40478 -0.14024
# Poissons Ratio (z) = 0.42526 -0.08438
#
# Static dielectric constant tensor:
#      x y z
#    x 1.806480 0.000000 0.000000 
#    y 0.000000 1.833760 0.000000 
#    z 0.000000 0.000000 1.774360 
# 
# From -- ./inp_files/35192.got.cif
#   From: 2010.05.17/outbox.cif.g08.bks.cpg/sg24_18_cif.got.tgz:35192.got - 2010.06.04 00:33:39.
