data_PCOD9334687
_publ_section_title
;
Structure prediction by ZEFSAII (Michael W. Deem and Ramdas Pophale) SiO2 
 PCOD9334687
Probable space group: I 21 21 21
;
_chemical_formula_sum "Si O2"
_cell_formula_units_Z 48
_cell_length_a 25.721362
_cell_length_b 9.725342
_cell_length_c 8.813581
_cell_angle_alpha 90.000000
_cell_angle_beta 90.000000
_cell_angle_gamma 90.000000
_cell_volume 2204.708845
_symmetry_space_group_name_H-M "I 21 21 21"
_symmetry_group_IT_number 24
_symmetry_cell_setting 'orthorhombic'
loop_
_space_group_symop_operation_xyz
x,y,z
-x,1/2-y,z
x,-y,1/2-z
1/2-x,y,-z
1/2+x,1/2+y,1/2+z
1/2-x,-y,1/2+z
1/2+x,1/2-y,-z
-x,1/2+y,1/2-z
loop_
_atom_site_type_symbol
_atom_site_label
_atom_site_fract_x
_atom_site_fract_y
_atom_site_fract_z
Si Si1 0.640754 0.799022 0.493289
Si Si2 0.127348 0.500000 0.250000
Si Si3 0.750000 0.362696 0.500000
Si Si4 0.542150 0.146423 0.203670
Si Si5 0.289302 0.344411 0.284911
Si Si6 0.851901 0.505493 0.074900
Si Si7 0.892011 0.204982 0.507706
O O1 0.591256 0.867454 0.408719
O O2 0.686756 0.792373 0.371875
O O3 0.626256 0.642835 0.532787
O O4 0.655491 0.892491 0.637124
O O5 0.098308 0.397224 0.367033
O O6 0.752368 0.258680 0.356858
O O7 0.800001 0.457215 0.517419
O O8 0.500000 0.250000 0.139792
O O9 0.565735 0.202520 0.360525
O O10 0.519160 0.000000 0.250000
O O11 0.272651 0.500000 0.250000
O O12 0.337466 0.340657 0.407993
O O13 0.836696 0.500000 0.250000
O O14 0.887151 0.638779 0.048651
#
# Coordination Sequence:
#
# PCOD9334687 Si02
#       7
#     8   4   4   8   8   8   8
#     4  11  23  41  74  91 130 180 223 269 340 407
#     4  12  18  40  68  94 120 168 220 270 320 392
#     4  10  26  40  58  92 138 162 230 286 320 396
#     4  11  24  43  69 102 131 172 226 275 332 403
#     4  10  20  43  63  92 121 171 223 273 330 388
#     4  11  24  40  62  96 129 175 215 271 339 397
#     4  10  21  40  67  91 129 166 219 265 325 406
#
# _framework density 21.771581000000001
#
# number of rings (size 3 to 8) (size 9 to 14) (size 15 to 20)
#    0.000    1.333    5.000    1.000    4.667    4.667 
#    9.000    0.833    3.667    0.000    0.000    0.000 
#    0.000    0.000    0.000    0.000    0.000    0.000 
#
# Total GULP energy -134032.794049 kJ/mol
# GULP energy per Si atom -5584.699752 kJ/mol
# Density = 2.172203 g / cm^3
# Si number density = 21.771581 Si / 1000 Ang^3
#
#
#
# Elastic Constant Matrix: (Units=GPa)
#
#
# Indices 1 2 3 4 5 6 
#
# 1 27.8622 5.3648 4.8142 0.0000 0.0000 0.0000
# 2 5.3648 152.5144 39.7964 0.0000 0.0000 0.0000
# 3 4.8142 39.7964 105.8248 0.0000 0.0000 0.0000
# 4 0.0000 0.0000 0.0000 43.4613 0.0000 0.0000
# 5 0.0000 0.0000 0.0000 0.0000 8.1485 0.0000
# 6 0.0000 0.0000 0.0000 0.0000 0.0000 21.5446
#
#
#
# Elastic Compliance Matrix: (Units=1/GPa)
#
#
# Indices 1 2 3 4 5 6 
#
# 1 0.036296 -0.000938 -0.001298 0.000000 0.000000 0.000000
# 2 -0.000938 0.007294 -0.002700 0.000000 0.000000 0.000000
# 3 -0.001298 -0.002700 0.010524 0.000000 0.000000 0.000000
# 4 0.000000 0.000000 0.000000 0.023009 0.000000 0.000000
# 5 0.000000 0.000000 0.000000 0.000000 0.122723 0.000000
# 6 0.000000 0.000000 0.000000 0.000000 0.000000 0.046415
#
#
# Mechanical properties :
#
#
# Convention : Reuss Voigt Hill
#
# Bulk Modulus (GPa) = 22.60361 42.90582 32.75471
# Shear Modulus (GPa) = 18.45824 30.37928 24.41876
#
# Velocity S-wave (km/s) = 2.91488 3.73951 3.35265
# Velocity P-wave (km/s) = 4.66191 6.19639 5.48310
#
# Compressibility (1/GPa) = 0.04424072
#
# Stress axis : x y z
#
# Youngs Moduli (GPa) = 27.55137 137.09150 95.01922
#
# Poissons Ratio (x) = 0.12858 0.12338
# Poissons Ratio (y) = 0.02584 0.25660
# Poissons Ratio (z) = 0.03577 0.37021
#
# Static dielectric constant tensor:
#      x y z
#    x 1.781720 0.000000 0.000000 
#    y 0.000000 1.811470 0.000000 
#    z 0.000000 0.000000 1.777470 
# 
# From -- ./inp_files/9796.got.cif
#   From: 2010.05.17/outbox.cif.g08.bks.cpg/sg24_5_cif.got.tgz:9796.got - 2010.06.04 00:33:39.
