data_PCOD9334607
_publ_section_title
;
Structure prediction by ZEFSAII (Michael W. Deem and Ramdas Pophale) SiO2 
 PCOD9334607
Probable space group: I 21 21 21
;
_chemical_formula_sum "Si O2"
_cell_formula_units_Z 64
_cell_length_a 23.093007
_cell_length_b 8.983173
_cell_length_c 14.825681
_cell_angle_alpha 90.000000
_cell_angle_beta 90.000000
_cell_angle_gamma 90.000000
_cell_volume 3075.564944
_symmetry_space_group_name_H-M "I 21 21 21"
_symmetry_group_IT_number 24
_symmetry_cell_setting 'orthorhombic'
loop_
_space_group_symop_operation_xyz
x,y,z
-x,1/2-y,z
x,-y,1/2-z
1/2-x,y,-z
1/2+x,1/2+y,1/2+z
1/2-x,-y,1/2+z
1/2+x,1/2-y,-z
-x,1/2+y,1/2-z
loop_
_atom_site_type_symbol
_atom_site_label
_atom_site_fract_x
_atom_site_fract_y
_atom_site_fract_z
Si Si1 0.978136 0.081804 0.987389
Si Si2 0.358526 0.317717 0.347812
Si Si3 0.550809 0.128228 0.818834
Si Si4 0.249051 0.884281 0.830845
Si Si5 0.121394 0.838457 0.202260
Si Si6 0.407380 0.107009 0.508230
Si Si7 0.692686 0.616180 0.462558
Si Si8 0.620067 0.856818 0.350491
O O1 0.937375 0.088683 0.901497
O O2 0.000000 0.250000 0.994119
O O3 0.943022 0.061384 0.081079
O O4 0.032235 0.970712 0.981058
O O5 0.298868 0.239432 0.322489
O O6 0.387218 0.227900 0.432242
O O7 0.344065 0.490838 0.360722
O O8 0.393489 0.314171 0.253002
O O9 0.500000 0.250000 0.819938
O O10 0.604873 0.215203 0.775896
O O11 0.533927 0.000000 0.750000
O O12 0.313056 0.820532 0.832065
O O13 0.247570 0.000000 0.750000
O O14 0.227530 0.985427 0.912302
O O15 0.085004 0.830532 0.109585
O O16 0.115037 0.000000 0.250000
O O17 0.357600 0.976277 0.516222
O O18 0.750000 0.702500 0.500000
O O19 0.654296 0.723835 0.399457
#
# Coordination Sequence:
#
# PCOD9334607 Si02
#       8
#     8   8   8   8   8   8   8   8
#     4  11  23  43  67  97 135 175 226 282 333 414
#     4  10  25  45  66  98 137 176 224 295 352 406
#     4  11  24  43  67  96 140 179 225 280 345 408
#     4  10  20  40  69  96 132 173 226 275 340 413
#     4  11  23  41  69 104 135 178 227 280 340 423
#     4  11  23  43  72  99 137 176 231 284 346 417
#     4  11  21  40  68 100 131 180 226 279 341 415
#     4  11  24  46  64  96 139 177 228 284 352 409
#
# _framework density 20.809183999999998
#
# number of rings (size 3 to 8) (size 9 to 14) (size 15 to 20)
#    0.000    1.250    3.750    2.625    1.750    0.500 
#    9.000    0.000    0.000    0.000    0.000    0.000 
#    0.000    0.000    0.000    0.000    0.000    0.000 
#
# Total GULP energy -178377.678086 kJ/mol
# GULP energy per Si atom -5574.302440 kJ/mol
# Density = 2.076182 g / cm^3
# Si number density = 20.809184 Si / 1000 Ang^3
#
#
#
# Elastic Constant Matrix: (Units=GPa)
#
#
# Indices 1 2 3 4 5 6 
#
# 1 94.9693 12.7070 26.6831 0.0000 0.0000 0.0000
# 2 12.7070 65.4482 16.3687 0.0000 0.0000 0.0000
# 3 26.6831 16.3687 93.5294 0.0000 0.0000 0.0000
# 4 0.0000 0.0000 0.0000 54.8888 0.0000 0.0000
# 5 0.0000 0.0000 0.0000 0.0000 22.3547 0.0000
# 6 0.0000 0.0000 0.0000 0.0000 0.0000 12.1693
#
#
#
# Elastic Compliance Matrix: (Units=1/GPa)
#
#
# Indices 1 2 3 4 5 6 
#
# 1 0.011584 -0.001488 -0.003044 0.000000 0.000000 0.000000
# 2 -0.001488 0.016170 -0.002405 0.000000 0.000000 0.000000
# 3 -0.003044 -0.002405 0.011981 0.000000 0.000000 0.000000
# 4 0.000000 0.000000 0.000000 0.018219 0.000000 0.000000
# 5 0.000000 0.000000 0.000000 0.000000 0.044733 0.000000
# 6 0.000000 0.000000 0.000000 0.000000 0.000000 0.082174
#
#
# Mechanical properties :
#
#
# Convention : Reuss Voigt Hill
#
# Bulk Modulus (GPa) = 38.66978 40.60716 39.63847
# Shear Modulus (GPa) = 24.11306 31.09510 27.60408
#
# Velocity S-wave (km/s) = 3.40776 3.86981 3.64611
# Velocity P-wave (km/s) = 5.84014 6.28678 6.06757
#
# Compressibility (1/GPa) = 0.02585999
#
# Stress axis : x y z
#
# Youngs Moduli (GPa) = 86.32465 61.84405 83.46291
#
# Poissons Ratio (x) = 0.09200 0.25410
# Poissons Ratio (y) = 0.12842 0.20077
# Poissons Ratio (z) = 0.26282 0.14876
#
# Static dielectric constant tensor:
#      x y z
#    x 1.700660 0.000000 0.000000 
#    y 0.000000 1.855740 0.000000 
#    z 0.000000 0.000000 1.882590 
# 
# From -- ./inp_files/27868.got.cif
#   From: 2010.05.17/outbox.cif.g08.bks.cpg/sg24_14_cif.got.tgz:27868.got - 2010.06.04 00:33:39.
