data_PCOD9334865
_publ_section_title
;
Structure prediction by ZEFSAII (Michael W. Deem and Ramdas Pophale) SiO2 
 PCOD9334865
Probable space group: I 21 21 21
;
_chemical_formula_sum "Si O2"
_cell_formula_units_Z 60
_cell_length_a 9.717366
_cell_length_b 17.596653
_cell_length_c 17.301687
_cell_angle_alpha 90.000000
_cell_angle_beta 90.000000
_cell_angle_gamma 90.000000
_cell_volume 2958.469399
_symmetry_space_group_name_H-M "I 21 21 21"
_symmetry_group_IT_number 24
_symmetry_cell_setting 'orthorhombic'
loop_
_space_group_symop_operation_xyz
x,y,z
-x,1/2-y,z
x,-y,1/2-z
1/2-x,y,-z
1/2+x,1/2+y,1/2+z
1/2-x,-y,1/2+z
1/2+x,1/2-y,-z
-x,1/2+y,1/2-z
loop_
_atom_site_type_symbol
_atom_site_label
_atom_site_fract_x
_atom_site_fract_y
_atom_site_fract_z
Si Si1 0.116636 0.091713 0.458247
Si Si2 0.904806 0.816956 0.471842
Si Si3 0.241213 0.496029 0.334147
Si Si4 0.258740 0.028014 0.837630
Si Si5 0.334931 0.662369 0.919241
Si Si6 0.014096 0.373400 0.183955
Si Si7 0.992803 0.039779 0.936376
Si Si8 0.500000 0.750000 0.816629
O O1 0.250000 0.125877 0.500000
O O2 0.995400 0.148094 0.437931
O O3 0.173691 0.040157 0.388151
O O4 0.040724 0.034140 0.517110
O O5 0.750000 0.809798 0.500000
O O6 0.913657 0.820627 0.379516
O O7 0.000000 0.750000 0.501767
O O8 0.972939 0.893853 0.502591
O O9 0.311763 0.500000 0.250000
O O10 0.210229 0.412228 0.369055
O O11 0.108412 0.549953 0.318861
O O12 0.346125 0.530906 0.395530
O O13 0.364043 0.097969 0.840125
O O14 0.114298 0.051740 0.875089
O O15 0.244056 0.000000 0.750000
O O16 0.355834 0.735382 0.863772
O O17 0.250000 0.668353 0.000000
O O18 0.997965 0.325075 0.261957
#
# Coordination Sequence:
#
# PCOD9334865 Si02
#       8
#     8   8   8   8   8   8   8   4
#     4  10  21  37  67  99 129 167 218 288 342 396
#     4  12  26  40  63  95 136 185 226 276 346 424
#     4  12  22  41  72 102 129 170 229 300 344 400
#     4  11  22  38  63  98 134 173 210 281 348 406
#     4  12  24  44  72 100 134 180 239 291 346 418
#     4  12  23  41  68  97 139 177 229 283 345 416
#     4  11  23  40  64 101 136 164 229 287 350 403
#     4  12  28  44  64 104 138 188 236 284 352 432
#
# _framework density 20.280757999999999
#
# number of rings (size 3 to 8) (size 9 to 14) (size 15 to 20)
#    0.000    0.533    7.333    1.600    1.867    0.533 
#    0.000    0.000    0.000    0.000    0.000    0.000 
#    0.000    0.000    0.000    0.000    0.000    0.000 
#
# Total GULP energy -167442.745399 kJ/mol
# GULP energy per Si atom -5581.424847 kJ/mol
# Density = 2.023460 g / cm^3
# Si number density = 20.280758 Si / 1000 Ang^3
#
#
#
# Elastic Constant Matrix: (Units=GPa)
#
#
# Indices 1 2 3 4 5 6 
#
# 1 89.4273 28.7987 25.7012 0.0000 0.0000 0.0000
# 2 28.7987 50.8109 25.6616 0.0000 0.0000 0.0000
# 3 25.7012 25.6616 113.1923 0.0000 0.0000 0.0000
# 4 0.0000 0.0000 0.0000 28.4728 0.0000 0.0000
# 5 0.0000 0.0000 0.0000 0.0000 28.2488 0.0000
# 6 0.0000 0.0000 0.0000 0.0000 0.0000 26.0011
#
#
#
# Elastic Compliance Matrix: (Units=1/GPa)
#
#
# Indices 1 2 3 4 5 6 
#
# 1 0.013915 -0.007105 -0.001549 0.000000 0.000000 0.000000
# 2 -0.007105 0.025853 -0.004248 0.000000 0.000000 0.000000
# 3 -0.001549 -0.004248 0.010149 0.000000 0.000000 0.000000
# 4 0.000000 0.000000 0.000000 0.035121 0.000000 0.000000
# 5 0.000000 0.000000 0.000000 0.000000 0.035400 0.000000
# 6 0.000000 0.000000 0.000000 0.000000 0.000000 0.038460
#
#
# Mechanical properties :
#
#
# Convention : Reuss Voigt Hill
#
# Bulk Modulus (GPa) = 41.46869 45.97262 43.72066
# Shear Modulus (GPa) = 25.94170 28.09579 27.01875
#
# Velocity S-wave (km/s) = 3.58037 3.72606 3.65394
# Velocity P-wave (km/s) = 6.13056 6.42095 6.27744
#
# Compressibility (1/GPa) = 0.02411458
#
# Stress axis : x y z
#
# Youngs Moduli (GPa) = 71.86287 38.68021 98.52947
#
# Poissons Ratio (x) = 0.27481 0.15261
# Poissons Ratio (y) = 0.51057 0.41854
# Poissons Ratio (z) = 0.11131 0.16431
#
# Static dielectric constant tensor:
#      x y z
#    x 1.693880 0.000000 0.000000 
#    y 0.000000 1.741550 0.000000 
#    z 0.000000 0.000000 1.826660 
# 
# From -- ./inp_files/29681.got.cif
#   From: 2010.05.17/outbox.cif.g08.bks.cpg/sg24_15_cif.got.tgz:29681.got - 2010.06.04 00:33:39.
