data_PCOD9334903
_publ_section_title
;
Structure prediction by ZEFSAII (Michael W. Deem and Ramdas Pophale) SiO2 
 PCOD9334903
Probable space group: I 21 21 21
;
_chemical_formula_sum "Si O2"
_cell_formula_units_Z 64
_cell_length_a 9.585778
_cell_length_b 23.705487
_cell_length_c 14.084369
_cell_angle_alpha 90.000000
_cell_angle_beta 90.000000
_cell_angle_gamma 90.000000
_cell_volume 3200.469136
_symmetry_space_group_name_H-M "I 21 21 21"
_symmetry_group_IT_number 24
_symmetry_cell_setting 'orthorhombic'
loop_
_space_group_symop_operation_xyz
x,y,z
-x,1/2-y,z
x,-y,1/2-z
1/2-x,y,-z
1/2+x,1/2+y,1/2+z
1/2-x,-y,1/2+z
1/2+x,1/2-y,-z
-x,1/2+y,1/2-z
loop_
_atom_site_type_symbol
_atom_site_label
_atom_site_fract_x
_atom_site_fract_y
_atom_site_fract_z
Si Si1 0.882309 0.794401 0.432513
Si Si2 0.348542 0.724104 0.790185
Si Si3 0.486171 0.588192 0.632620
Si Si4 0.007157 0.035079 0.444246
Si Si5 0.133175 0.788070 0.918776
Si Si6 0.702271 0.905395 0.811423
Si Si7 0.520461 0.590823 0.145523
Si Si8 0.803890 0.563804 0.220974
O O1 0.750000 0.792287 0.500000
O O2 0.840767 0.779557 0.323941
O O3 0.000000 0.750000 0.462606
O O4 0.944254 0.857640 0.427448
O O5 0.500000 0.750000 0.814091
O O6 0.220817 0.759189 0.833577
O O7 0.339194 0.659946 0.827397
O O8 0.514965 0.531962 0.572916
O O9 0.365884 0.576398 0.711296
O O10 0.618169 0.601651 0.701342
O O11 0.127063 0.067706 0.383212
O O12 0.865987 0.057803 0.394942
O O13 0.018103 0.051229 0.553078
O O14 0.000000 0.750000 0.946924
O O15 0.068554 0.847544 0.888809
O O16 0.250000 0.793973 0.000000
O O17 0.867659 0.908961 0.810633
O O18 0.640630 0.571646 0.216763
O O19 0.839342 0.500000 0.250000
#
# Coordination Sequence:
#
# PCOD9334903 Si02
#       8
#     8   8   8   8   8   8   8   8
#     4  10  23  44  69  98 124 162 216 274 334 392
#     4  10  23  42  66  88 127 176 217 265 327 393
#     4   9  21  44  67  86 121 175 213 257 329 397
#     4  10  21  39  62  86 126 169 210 259 320 383
#     4  12  26  39  59  93 136 178 220 263 326 396
#     4  10  21  38  60  92 124 164 216 262 318 384
#     4  12  24  36  59  98 129 160 212 275 319 379
#     4   9  20  39  62  88 123 165 212 250 316 394
#
# _framework density 19.997067999999999
#
# number of rings (size 3 to 8) (size 9 to 14) (size 15 to 20)
#    0.000    1.750    1.250    3.000   10.500    2.500 
#    0.000    3.750    0.000    0.000    0.000    0.000 
#    0.000    0.000    0.000    0.000    0.000    0.000 
#
# Total GULP energy -178813.063857 kJ/mol
# GULP energy per Si atom -5587.908246 kJ/mol
# Density = 1.995155 g / cm^3
# Si number density = 19.997068 Si / 1000 Ang^3
#
#
#
# Elastic Constant Matrix: (Units=GPa)
#
#
# Indices 1 2 3 4 5 6 
#
# 1 132.0752 22.9433 20.9212 0.0000 0.0000 0.0000
# 2 22.9433 74.7359 30.9920 -0.0001 0.0000 0.0000
# 3 20.9212 30.9920 37.0596 0.0000 -0.0001 0.0000
# 4 0.0000 -0.0001 0.0000 18.4334 0.0000 0.0000
# 5 0.0000 0.0000 -0.0001 0.0000 15.0698 0.0000
# 6 0.0000 0.0000 0.0000 0.0000 0.0000 27.3404
#
#
#
# Elastic Compliance Matrix: (Units=1/GPa)
#
#
# Indices 1 2 3 4 5 6 
#
# 1 0.008357 -0.000933 -0.003938 0.000000 0.000000 0.000000
# 2 -0.000933 0.020588 -0.016691 0.000000 0.000000 0.000000
# 3 -0.003938 -0.016691 0.043165 0.000000 0.000000 0.000000
# 4 0.000000 0.000000 0.000000 0.054249 0.000000 0.000000
# 5 0.000000 0.000000 0.000000 0.000000 0.066358 0.000000
# 6 0.000000 0.000000 0.000000 0.000000 0.000000 0.036576
#
#
# Mechanical properties :
#
#
# Convention : Reuss Voigt Hill
#
# Bulk Modulus (GPa) = 34.49782 43.73150 39.11466
# Shear Modulus (GPa) = 17.72554 23.43635 20.58095
#
# Velocity S-wave (km/s) = 2.98049 3.42715 3.21159
# Velocity P-wave (km/s) = 5.39753 6.13000 5.77539
#
# Compressibility (1/GPa) = 0.02898734
#
# Stress axis : x y z
#
# Youngs Moduli (GPa) = 119.65675 48.57136 23.16695
#
# Poissons Ratio (x) = 0.04530 0.09123
# Poissons Ratio (y) = 0.11159 0.38668
# Poissons Ratio (z) = 0.47121 0.81070
#
# Static dielectric constant tensor:
#      x y z
#    x 1.698390 0.000000 0.000000 
#    y 0.000000 1.733160 0.000000 
#    z 0.000000 0.000000 1.695180 
# 
# From -- ./inp_files/25225.got.cif
#   From: 2010.05.17/outbox.cif.g08.bks.cpg/sg24_13_cif.got.tgz:25225.got - 2010.06.04 00:33:39.
