data_PCOD9334124
_publ_section_title
;
Structure prediction by ZEFSAII (Michael W. Deem and Ramdas Pophale) SiO2 
 PCOD9334124
Probable space group: I 21 21 21
;
_chemical_formula_sum "Si O2"
_cell_formula_units_Z 40
_cell_length_a 25.012317
_cell_length_b 6.054680
_cell_length_c 12.389889
_cell_angle_alpha 90.000000
_cell_angle_beta 90.000000
_cell_angle_gamma 90.000000
_cell_volume 1876.344310
_symmetry_space_group_name_H-M "I 21 21 21"
_symmetry_group_IT_number 24
_symmetry_cell_setting 'orthorhombic'
loop_
_space_group_symop_operation_xyz
x,y,z
-x,1/2-y,z
x,-y,1/2-z
1/2-x,y,-z
1/2+x,1/2+y,1/2+z
1/2-x,-y,1/2+z
1/2+x,1/2-y,-z
-x,1/2+y,1/2-z
loop_
_atom_site_type_symbol
_atom_site_label
_atom_site_fract_x
_atom_site_fract_y
_atom_site_fract_z
Si Si1 0.204302 0.772324 0.420437
Si Si2 0.500000 0.250000 0.578007
Si Si3 0.650438 0.091973 0.421893
Si Si4 0.231552 0.500000 0.750000
Si Si5 0.548986 0.138724 0.069610
Si Si6 0.897977 0.527705 0.070036
O O1 0.250000 0.874597 0.500000
O O2 0.178137 0.572706 0.491177
O O3 0.233373 0.664623 0.319753
O O4 0.156164 0.928192 0.381375
O O5 0.476354 0.443520 0.502534
O O6 0.446285 0.151698 0.633938
O O7 0.625718 0.301588 0.481910
O O8 0.693975 0.136442 0.331441
O O9 0.600198 0.959584 0.372376
O O10 0.500000 0.250000 0.133378
O O11 0.573059 0.324404 0.990001
#
# Coordination Sequence:
#
# PCOD9334124 Si02
#       6
#     8   4   8   4   8   8
#     4   9  19  34  50  75 110 151 192 236 276 346
#     4   8  14  26  52  82 106 136 182 234 286 336
#     4   9  18  33  52  74 111 148 185 233 283 336
#     4  10  20  36  54  74 116 160 190 230 290 346
#     4   8  14  27  50  75 106 136 182 227 278 338
#     4   9  16  30  52  79 110 141 187 233 283 339
#
# _framework density 21.318052000000002
#
# number of rings (size 3 to 8) (size 9 to 14) (size 15 to 20)
#    0.000    3.200    0.000    0.000    0.000    2.400 
#    0.000   16.000   13.200    0.000    0.000    0.000 
#  471.000    0.000    0.000    0.000    0.000    2.500 
#
# Total GULP energy -111337.208574 kJ/mol
# GULP energy per Si atom -5566.860429 kJ/mol
# Density = 2.126953 g / cm^3
# Si number density = 21.318052 Si / 1000 Ang^3
#
#
#
# Elastic Constant Matrix: (Units=GPa)
#
#
# Indices 1 2 3 4 5 6 
#
# 1 200.0490 52.0744 48.1040 0.0000 0.0000 0.0000
# 2 52.0744 72.1380 12.0362 0.0000 0.0000 0.0000
# 3 48.1040 12.0362 48.8265 0.0000 0.0000 0.0000
# 4 0.0000 0.0000 0.0000 6.8465 0.0000 0.0000
# 5 0.0000 0.0000 0.0000 0.0000 -6.9356 0.0000
# 6 0.0000 0.0000 0.0000 0.0000 0.0000 55.4803
#
#
#
# Elastic Compliance Matrix: (Units=1/GPa)
#
#
# Indices 1 2 3 4 5 6 
#
# 1 0.007735 -0.004497 -0.006512 0.000000 0.000000 0.000000
# 2 -0.004497 0.017072 0.000223 0.000000 0.000000 0.000000
# 3 -0.006512 0.000223 0.026842 0.000000 0.000000 0.000000
# 4 0.000000 0.000000 0.000000 0.146059 0.000000 0.000000
# 5 0.000000 0.000000 0.000000 0.000000 -0.144184 0.000000
# 6 0.000000 0.000000 0.000000 0.000000 0.000000 0.018024
#
#
# Mechanical properties :
#
#
# Convention : Reuss Voigt Hill
#
# Bulk Modulus (GPa) = 33.25072 60.60473 46.92773
# Shear Modulus (GPa) = 48.47394 24.99819 36.73606
#
# Velocity S-wave (km/s) = 4.77366 3.42808 4.15569
# Velocity P-wave (km/s) = 6.78344 6.64527 6.71471
#
# Compressibility (1/GPa) = 0.03007453
#
# Stress axis : x y z
#
# Youngs Moduli (GPa) = 129.27494 58.57629 37.25538
#
# Poissons Ratio (x) = 0.26344 0.24262
# Poissons Ratio (y) = 0.58140 -0.00829
# Poissons Ratio (z) = 0.84188 -0.01304
#
# Static dielectric constant tensor:
#      x y z
#    x 1.841780 0.000000 0.000000 
#    y 0.000000 1.787190 0.000000 
#    z 0.000000 0.000000 1.754100 
# 
# From -- ./inp_files/27964.got.cif
#   From: 2010.05.17/outbox.cif.g08.bks.cpg/sg24_14_cif.got.tgz:27964.got - 2010.06.04 00:33:39.
