data_PCOD9334617
_publ_section_title
;
Structure prediction by ZEFSAII (Michael W. Deem and Ramdas Pophale) SiO2 
 PCOD9334617
Probable space group: I 21 21 21
;
_chemical_formula_sum "Si O2"
_cell_formula_units_Z 40
_cell_length_a 13.091572
_cell_length_b 15.351561
_cell_length_c 8.752450
_cell_angle_alpha 90.000000
_cell_angle_beta 90.000000
_cell_angle_gamma 90.000000
_cell_volume 1759.032970
_symmetry_space_group_name_H-M "I 21 21 21"
_symmetry_group_IT_number 24
_symmetry_cell_setting 'orthorhombic'
loop_
_space_group_symop_operation_xyz
x,y,z
-x,1/2-y,z
x,-y,1/2-z
1/2-x,y,-z
1/2+x,1/2+y,1/2+z
1/2-x,-y,1/2+z
1/2+x,1/2-y,-z
-x,1/2+y,1/2-z
loop_
_atom_site_type_symbol
_atom_site_label
_atom_site_fract_x
_atom_site_fract_y
_atom_site_fract_z
Si Si1 0.055646 0.000000 0.750000
Si Si2 0.250000 0.396018 0.000000
Si Si3 0.857077 0.582466 0.479997
Si Si4 0.615432 0.057191 0.456829
Si Si5 0.250000 0.288048 0.500000
Si Si6 0.479643 0.500000 0.750000
Si Si7 0.626239 0.244384 0.798619
O O1 0.107845 0.924204 0.653446
O O2 0.989422 0.947772 0.870813
O O3 0.174505 0.466938 0.920763
O O4 0.322719 0.337893 0.890099
O O5 0.750000 0.531710 0.500000
O O6 0.943884 0.545306 0.368491
O O7 0.841206 0.675781 0.406525
O O8 0.675548 0.143461 0.414732
O O9 0.591520 0.057151 0.638755
O O10 0.319073 0.243917 0.632095
O O11 0.500000 0.250000 0.787765
#
# Coordination Sequence:
#
# PCOD9334617 Si02
#       7
#     4   4   8   8   4   4   8
#     4  10  21  39  70  96 126 174 240 286 342 412
#     4  11  22  42  74 105 146 178 234 293 356 420
#     4  11  23  44  63  98 133 183 232 282 344 421
#     4  10  20  40  71 104 130 177 234 297 341 402
#     4  11  24  42  64 101 142 182 238 285 344 412
#     4  10  21  41  72  96 134 178 236 290 348 408
#     4  12  25  45  66 100 148 191 227 290 363 418
#
# _framework density 22.739768000000002
#
# number of rings (size 3 to 8) (size 9 to 14) (size 15 to 20)
#    0.000    1.200    1.000    6.600    0.000    3.200 
#   12.600    1.000    0.000    0.000    0.000    0.000 
#    0.000    0.000    0.000    0.000    0.000    0.000 
#
# Total GULP energy -111410.924911 kJ/mol
# GULP energy per Si atom -5570.546246 kJ/mol
# Density = 2.268801 g / cm^3
# Si number density = 22.739768 Si / 1000 Ang^3
#
#
#
# Elastic Constant Matrix: (Units=GPa)
#
#
# Indices 1 2 3 4 5 6 
#
# 1 118.9198 20.2828 64.4881 0.0000 0.0000 0.0000
# 2 20.2828 66.4401 46.6528 0.0000 0.0000 0.0000
# 3 64.4881 46.6528 148.1403 0.0000 0.0000 0.0000
# 4 0.0000 0.0000 0.0000 25.4621 0.0000 0.0000
# 5 0.0000 0.0000 0.0000 0.0000 55.7116 0.0000
# 6 0.0000 0.0000 0.0000 0.0000 0.0000 10.9679
#
#
#
# Elastic Compliance Matrix: (Units=1/GPa)
#
#
# Indices 1 2 3 4 5 6 
#
# 1 0.011008 0.000006 -0.004794 0.000000 0.000000 0.000000
# 2 0.000006 0.019324 -0.006088 0.000000 0.000000 0.000000
# 3 -0.004794 -0.006088 0.010754 0.000000 0.000000 0.000000
# 4 0.000000 0.000000 0.000000 0.039274 0.000000 0.000000
# 5 0.000000 0.000000 0.000000 0.000000 0.017950 0.000000
# 6 0.000000 0.000000 0.000000 0.000000 0.000000 0.091175
#
#
# Mechanical properties :
#
#
# Convention : Reuss Voigt Hill
#
# Bulk Modulus (GPa) = 51.72209 66.26085 58.99147
# Shear Modulus (GPa) = 22.96932 31.90010 27.43471
#
# Velocity S-wave (km/s) = 3.18165 3.74950 3.47719
# Velocity P-wave (km/s) = 6.02426 6.92438 6.48995
#
# Compressibility (1/GPa) = 0.01933410
#
# Stress axis : x y z
#
# Youngs Moduli (GPa) = 90.84695 51.74800 92.98555
#
# Poissons Ratio (x) = -0.00029 0.44573
# Poissons Ratio (y) = -0.00050 0.56611
# Poissons Ratio (z) = 0.43548 0.31505
#
# Static dielectric constant tensor:
#      x y z
#    x 1.971730 0.000000 0.000000 
#    y 0.000000 1.889610 0.000000 
#    z 0.000000 0.000000 1.970160 
# 
# From -- ./inp_files/12419.got.cif
#   From: 2010.05.17/outbox.cif.g08.bks.cpg/sg24_7_cif.got.tgz:12419.got - 2010.06.04 00:33:39.
