data_PCOD9334740
_publ_section_title
;
Structure prediction by ZEFSAII (Michael W. Deem and Ramdas Pophale) SiO2 
 PCOD9334740
Probable space group: I 21 21 21
;
_chemical_formula_sum "Si O2"
_cell_formula_units_Z 60
_cell_length_a 8.686536
_cell_length_b 11.346202
_cell_length_c 29.679947
_cell_angle_alpha 90.000000
_cell_angle_beta 90.000000
_cell_angle_gamma 90.000000
_cell_volume 2925.231599
_symmetry_space_group_name_H-M "I 21 21 21"
_symmetry_group_IT_number 24
_symmetry_cell_setting 'orthorhombic'
loop_
_space_group_symop_operation_xyz
x,y,z
-x,1/2-y,z
x,-y,1/2-z
1/2-x,y,-z
1/2+x,1/2+y,1/2+z
1/2-x,-y,1/2+z
1/2+x,1/2-y,-z
-x,1/2+y,1/2-z
loop_
_atom_site_type_symbol
_atom_site_label
_atom_site_fract_x
_atom_site_fract_y
_atom_site_fract_z
Si Si1 0.094354 0.139216 0.203281
Si Si2 0.337183 0.184356 0.637044
Si Si3 0.128082 0.083635 0.104587
Si Si4 0.649555 0.000000 0.750000
Si Si5 0.892657 0.951816 0.472980
Si Si6 0.822144 0.213419 0.453445
Si Si7 0.183787 0.248068 0.731093
Si Si8 0.116806 0.140288 0.963916
O O1 0.121250 0.155240 0.150624
O O2 0.248777 0.154197 0.232217
O O3 0.000000 0.250000 0.221828
O O4 0.975769 0.031470 0.210935
O O5 0.500000 0.250000 0.644117
O O6 0.254272 0.241162 0.593311
O O7 0.242136 0.201683 0.682569
O O8 0.371500 0.051581 0.621137
O O9 0.289856 0.108410 0.080334
O O10 0.987789 0.104664 0.068842
O O11 0.750001 0.882497 0.760406
O O12 0.750000 0.895606 0.500000
O O13 0.019356 0.964092 0.512492
O O14 0.824528 0.072687 0.454603
O O15 0.750000 0.257661 0.500000
O O16 0.000000 0.250000 0.453331
O O17 0.000000 0.250000 0.733193
O O18 0.000000 0.250000 0.958799
O O19 0.250000 0.163060 0.000000
#
# Coordination Sequence:
#
# PCOD9334740 Si02
#       8
#     8   8   8   4   8   8   8   8
#     4  10  22  41  66  93 123 173 224 272 326 414
#     4  11  21  40  65  94 133 175 225 266 337 433
#     4  11  22  38  64  95 124 173 224 273 328 408
#     4  10  22  44  74  90 126 180 224 266 344 426
#     4  10  21  39  59  89 126 173 213 272 328 385
#     4  10  21  34  60  88 129 167 213 265 319 396
#     4  11  25  44  68 102 138 170 225 296 361 401
#     4  10  23  40  62  85 125 172 222 271 330 388
#
# _framework density 20.511196000000002
#
# number of rings (size 3 to 8) (size 9 to 14) (size 15 to 20)
#    0.000    1.600    2.667    3.200    1.867    5.867 
#    2.400    2.667    0.000    0.000    0.000    0.000 
#    0.000    0.000    0.000    0.000    0.000    0.000 
#
# Total GULP energy -167128.887279 kJ/mol
# GULP energy per Si atom -5570.962909 kJ/mol
# Density = 2.046451 g / cm^3
# Si number density = 20.511196 Si / 1000 Ang^3
#
#
#
# Elastic Constant Matrix: (Units=GPa)
#
#
# Indices 1 2 3 4 5 6 
#
# 1 140.3818 31.7344 73.1071 0.0000 0.0000 0.0000
# 2 31.7344 70.7744 11.2854 0.0000 0.0000 0.0000
# 3 73.1071 11.2854 158.8457 0.0000 0.0000 0.0000
# 4 0.0000 0.0000 0.0000 -48.7221 0.0000 0.0000
# 5 0.0000 0.0000 0.0000 0.0000 23.4355 0.0000
# 6 0.0000 0.0000 0.0000 0.0000 0.0000 21.7809
#
#
#
# Elastic Compliance Matrix: (Units=1/GPa)
#
#
# Indices 1 2 3 4 5 6 
#
# 1 0.010345 -0.003924 -0.004482 0.000000 0.000000 0.000000
# 2 -0.003924 0.015780 0.000685 0.000000 0.000000 0.000000
# 3 -0.004482 0.000685 0.008310 0.000000 0.000000 0.000000
# 4 0.000000 0.000000 0.000000 -0.020525 0.000000 0.000000
# 5 0.000000 0.000000 0.000000 0.000000 0.042670 0.000000
# 6 0.000000 0.000000 0.000000 0.000000 0.000000 0.045912
#
#
# Mechanical properties :
#
#
# Convention : Reuss Voigt Hill
#
# Bulk Modulus (GPa) = 52.65511 66.91730 59.78621
# Shear Modulus (GPa) = 40.23686 16.22388 28.23037
#
# Velocity S-wave (km/s) = 4.43392 2.81548 3.71393
# Velocity P-wave (km/s) = 7.20694 6.57760 6.89945
#
# Compressibility (1/GPa) = 0.01899151
#
# Stress axis : x y z
#
# Youngs Moduli (GPa) = 96.66823 63.37309 120.34157
#
# Poissons Ratio (x) = 0.24866 0.53940
# Poissons Ratio (y) = 0.37930 -0.08241
# Poissons Ratio (z) = 0.43329 -0.04340
#
# Static dielectric constant tensor:
#      x y z
#    x 1.833970 0.000000 0.000000 
#    y 0.000000 1.835440 0.000000 
#    z 0.000000 0.000000 1.751210 
# 
# From -- ./inp_files/36931.got.cif
#   From: 2010.05.17/outbox.cif.g08.bks.cpg/sg24_19_cif.got.tgz:36931.got - 2010.06.04 00:33:39.
