data_PCOD9334665
_publ_section_title
;
Structure prediction by ZEFSAII (Michael W. Deem and Ramdas Pophale) SiO2 
 PCOD9334665
Probable space group: I 21 21 21
;
_chemical_formula_sum "Si O2"
_cell_formula_units_Z 60
_cell_length_a 29.267557
_cell_length_b 12.468141
_cell_length_c 7.507142
_cell_angle_alpha 90.000000
_cell_angle_beta 90.000000
_cell_angle_gamma 90.000000
_cell_volume 2739.446407
_symmetry_space_group_name_H-M "I 21 21 21"
_symmetry_group_IT_number 24
_symmetry_cell_setting 'orthorhombic'
loop_
_space_group_symop_operation_xyz
x,y,z
-x,1/2-y,z
x,-y,1/2-z
1/2-x,y,-z
1/2+x,1/2+y,1/2+z
1/2-x,-y,1/2+z
1/2+x,1/2-y,-z
-x,1/2+y,1/2-z
loop_
_atom_site_type_symbol
_atom_site_label
_atom_site_fract_x
_atom_site_fract_y
_atom_site_fract_z
Si Si1 0.750000 0.226264 0.000000
Si Si2 0.381066 0.165438 0.564936
Si Si3 0.581351 0.761507 0.599644
Si Si4 0.124399 0.394849 0.570977
Si Si5 0.068370 0.024354 0.045533
Si Si6 0.659569 0.103248 0.033653
Si Si7 0.964865 0.023299 0.960555
Si Si8 0.721172 0.381291 0.680250
O O1 0.708400 0.152294 0.061911
O O2 0.765463 0.298814 0.165058
O O3 0.419815 0.214817 0.700103
O O4 0.367569 0.271803 0.462069
O O5 0.333407 0.125545 0.648494
O O6 0.403270 0.069530 0.450631
O O7 0.577504 0.648191 0.494630
O O8 0.630582 0.819477 0.592673
O O9 0.548236 0.855683 0.527450
O O10 0.160565 0.477762 0.485986
O O11 0.129191 0.398769 0.785620
O O12 0.076606 0.442123 0.493305
O O13 0.083747 0.000000 0.250000
O O14 0.014707 0.001670 0.036741
O O15 0.969490 0.000000 0.750000
O O16 0.732546 0.500000 0.750000
O O17 0.750000 0.360556 0.500000
#
# Coordination Sequence:
#
# PCOD9334665 Si02
#       8
#     4   8   8   8   8   8   8   8
#     4  12  24  44  74 104 140 184 240 286 348 422
#     4  11  24  43  67  98 137 176 227 287 344 423
#     4  10  20  42  66  89 135 176 216 278 353 394
#     4  10  22  44  65  94 138 174 226 279 345 412
#     4  10  24  40  64  98 129 174 230 280 336 416
#     4  10  21  43  66  96 133 181 219 281 346 406
#     4  11  22  41  66  95 131 181 230 282 341 417
#     4  12  25  45  72 105 138 184 235 287 355 425
#
# _framework density 21.902232999999999
#
# number of rings (size 3 to 8) (size 9 to 14) (size 15 to 20)
#    0.000    1.333    4.667    2.400    1.867    3.200 
#    8.400    0.667    0.000    0.000    0.000    0.000 
#    0.000    0.000    0.000    0.000    0.000    0.000 
#
# Total GULP energy -167172.039855 kJ/mol
# GULP energy per Si atom -5572.401328 kJ/mol
# Density = 2.185238 g / cm^3
# Si number density = 21.902233 Si / 1000 Ang^3
#
#
#
# Elastic Constant Matrix: (Units=GPa)
#
#
# Indices 1 2 3 4 5 6 
#
# 1 118.4104 54.9209 8.0373 0.0000 0.0000 0.0000
# 2 54.9209 138.6899 19.5851 0.0000 0.0000 0.0000
# 3 8.0373 19.5851 52.1101 0.0000 0.0001 0.0000
# 4 0.0000 0.0000 0.0000 20.8642 0.0000 0.0000
# 5 0.0000 0.0000 0.0001 0.0000 107.9546 0.0000
# 6 0.0000 0.0000 0.0000 0.0000 0.0000 20.8796
#
#
#
# Elastic Compliance Matrix: (Units=1/GPa)
#
#
# Indices 1 2 3 4 5 6 
#
# 1 0.010346 -0.004088 -0.000059 0.000000 0.000000 0.000000
# 2 -0.004088 0.009230 -0.002838 0.000000 0.000000 0.000000
# 3 -0.000059 -0.002838 0.020266 0.000000 0.000000 0.000000
# 4 0.000000 0.000000 0.000000 0.047929 0.000000 0.000000
# 5 0.000000 0.000000 0.000000 0.000000 0.009263 0.000000
# 6 0.000000 0.000000 0.000000 0.000000 0.000000 0.047894
#
#
# Mechanical properties :
#
#
# Convention : Reuss Voigt Hill
#
# Bulk Modulus (GPa) = 38.65513 52.69965 45.67739
# Shear Modulus (GPa) = 29.84670 45.05082 37.44876
#
# Velocity S-wave (km/s) = 3.69551 4.54023 4.13948
# Velocity P-wave (km/s) = 5.99136 7.18321 6.61418
#
# Compressibility (1/GPa) = 0.02586978
#
# Stress axis : x y z
#
# Youngs Moduli (GPa) = 96.66019 108.34011 49.34352
#
# Poissons Ratio (x) = 0.44294 0.00291
# Poissons Ratio (y) = 0.39519 0.14006
# Poissons Ratio (z) = 0.00571 0.30752
#
# Static dielectric constant tensor:
#      x y z
#    x 1.776440 0.000000 0.000000 
#    y 0.000000 1.827170 0.000000 
#    z 0.000000 0.000000 1.918460 
# 
# From -- ./inp_files/16448.got.cif
#   From: 2010.05.17/outbox.cif.g08.bks.cpg/sg24_9_cif.got.tgz:16448.got - 2010.06.04 00:33:39.
