data_PCOD9334859
_publ_section_title
;
Structure prediction by ZEFSAII (Michael W. Deem and Ramdas Pophale) SiO2 
 PCOD9334859
Probable space group: I 21 21 21
;
_chemical_formula_sum "Si O2"
_cell_formula_units_Z 40
_cell_length_a 11.001848
_cell_length_b 5.710303
_cell_length_c 25.660984
_cell_angle_alpha 90.000000
_cell_angle_beta 90.000000
_cell_angle_gamma 90.000000
_cell_volume 1612.122724
_symmetry_space_group_name_H-M "I 21 21 21"
_symmetry_group_IT_number 24
_symmetry_cell_setting 'orthorhombic'
loop_
_space_group_symop_operation_xyz
x,y,z
-x,1/2-y,z
x,-y,1/2-z
1/2-x,y,-z
1/2+x,1/2+y,1/2+z
1/2-x,-y,1/2+z
1/2+x,1/2-y,-z
-x,1/2+y,1/2-z
loop_
_atom_site_type_symbol
_atom_site_label
_atom_site_fract_x
_atom_site_fract_y
_atom_site_fract_z
Si Si1 0.197090 0.297561 0.657162
Si Si2 0.000000 0.750000 0.013584
Si Si3 0.183685 0.000000 0.750000
Si Si4 0.175352 0.066948 0.082683
Si Si5 0.628522 0.817179 0.688226
Si Si6 0.117300 0.588902 0.564984
O O1 0.241085 0.124664 0.611611
O O2 0.319281 0.420901 0.680972
O O3 0.124692 0.491315 0.624335
O O4 0.129664 0.159344 0.703508
O O5 0.924946 0.564111 0.048296
O O6 0.095167 0.616452 0.976409
O O7 0.266547 0.820857 0.717834
O O8 0.120579 0.208231 0.130856
O O9 0.263706 0.254484 0.055938
O O10 0.500000 0.750000 0.713805
O O11 0.000000 0.750000 0.560413
#
# Coordination Sequence:
#
# PCOD9334859 Si02
#       6
#     8   4   4   8   8   8
#     4  10  22  43  65 101 139 187 237 306 371 454
#     4  12  26  46  74 110 154 204 254 316 380 454
#     4  10  22  36  66 102 134 180 230 298 372 434
#     4  10  24  45  68 103 146 187 249 299 372 451
#     4  10  21  37  64 101 141 180 222 291 362 448
#     4  11  26  45  70 105 141 206 251 313 381 457
#
# _framework density 24.812007000000001
#
# number of rings (size 3 to 8) (size 9 to 14) (size 15 to 20)
#    0.000    1.600    0.000    3.000    2.800   10.400 
#    0.000    2.000    0.000    0.000  353.600    0.000 
#    0.000    0.000    0.000    0.000    0.000    0.000 
#
# Total GULP energy -111879.991284 kJ/mol
# GULP energy per Si atom -5593.999564 kJ/mol
# Density = 2.475553 g / cm^3
# Si number density = 24.812007 Si / 1000 Ang^3
#
#
#
# Elastic Constant Matrix: (Units=GPa)
#
#
# Indices 1 2 3 4 5 6 
#
# 1 66.1690 32.2374 56.4758 0.0000 0.0000 0.0000
# 2 32.2374 112.8889 70.2132 0.0000 0.0000 0.0000
# 3 56.4758 70.2132 162.7688 0.0000 0.0000 0.0000
# 4 0.0000 0.0000 0.0000 47.7524 0.0000 0.0000
# 5 0.0000 0.0000 0.0000 0.0000 16.8245 0.0000
# 6 0.0000 0.0000 0.0000 0.0000 0.0000 24.4744
#
#
#
# Elastic Compliance Matrix: (Units=1/GPa)
#
#
# Indices 1 2 3 4 5 6 
#
# 1 0.021823 -0.002081 -0.006674 0.000000 0.000000 0.000000
# 2 -0.002081 0.012305 -0.004586 0.000000 0.000000 0.000000
# 3 -0.006674 -0.004586 0.010438 0.000000 0.000000 0.000000
# 4 0.000000 0.000000 0.000000 0.020941 0.000000 0.000000
# 5 0.000000 0.000000 0.000000 0.000000 0.059437 0.000000
# 6 0.000000 0.000000 0.000000 0.000000 0.000000 0.040859
#
#
# Mechanical properties :
#
#
# Convention : Reuss Voigt Hill
#
# Bulk Modulus (GPa) = 55.91736 73.29772 64.60754
# Shear Modulus (GPa) = 25.19572 30.00362 27.59967
#
# Velocity S-wave (km/s) = 3.19009 3.48118 3.33881
# Velocity P-wave (km/s) = 6.01284 6.76488 6.39991
#
# Compressibility (1/GPa) = 0.01788353
#
# Stress axis : x y z
#
# Youngs Moduli (GPa) = 45.82277 81.26946 95.80629
#
# Poissons Ratio (x) = 0.16910 0.63945
# Poissons Ratio (y) = 0.09534 0.43936
# Poissons Ratio (z) = 0.30584 0.37270
#
# Static dielectric constant tensor:
#      x y z
#    x 1.960140 0.000000 0.000000 
#    y 0.000000 1.804940 0.000000 
#    z 0.000000 0.000000 1.962880 
# 
# From -- ./inp_files/37081.got.cif
#   From: 2010.05.17/outbox.cif.g08.bks.cpg/sg24_19_cif.got.tgz:37081.got - 2010.06.04 00:33:39.
