data_PCOD9334354
_publ_section_title
;
Structure prediction by ZEFSAII (Michael W. Deem and Ramdas Pophale) SiO2 
 PCOD9334354
Probable space group: I 21 21 21
;
_chemical_formula_sum "Si O2"
_cell_formula_units_Z 60
_cell_length_a 11.905096
_cell_length_b 11.900240
_cell_length_c 21.561813
_cell_angle_alpha 90.000000
_cell_angle_beta 90.000000
_cell_angle_gamma 90.000000
_cell_volume 3054.737506
_symmetry_space_group_name_H-M "I 21 21 21"
_symmetry_group_IT_number 24
_symmetry_cell_setting 'orthorhombic'
loop_
_space_group_symop_operation_xyz
x,y,z
-x,1/2-y,z
x,-y,1/2-z
1/2-x,y,-z
1/2+x,1/2+y,1/2+z
1/2-x,-y,1/2+z
1/2+x,1/2-y,-z
-x,1/2+y,1/2-z
loop_
_atom_site_type_symbol
_atom_site_label
_atom_site_fract_x
_atom_site_fract_y
_atom_site_fract_z
Si Si1 0.328235 0.034961 0.181796
Si Si2 0.890317 0.181450 0.581460
Si Si3 0.270454 0.106282 0.570018
Si Si4 0.800992 0.760881 0.621030
Si Si5 0.646104 0.911430 0.547079
Si Si6 0.525662 0.877360 0.941551
Si Si7 0.500000 0.250000 0.027904
Si Si8 0.902215 0.016056 0.820948
O O1 0.286065 0.159548 0.167482
O O2 0.463178 0.027860 0.180382
O O3 0.290009 0.000000 0.250000
O O4 0.287529 0.956952 0.126102
O O5 0.784268 0.266487 0.572938
O O6 0.933088 0.137189 0.513754
O O7 0.000000 0.250000 0.604999
O O8 0.870180 0.082567 0.630688
O O9 0.250000 0.067595 0.500000
O O10 0.401882 0.079740 0.573112
O O11 0.690334 0.809799 0.589212
O O12 0.891769 0.721078 0.569707
O O13 0.855411 0.867811 0.653696
O O14 0.750000 0.934921 0.500000
O O15 0.540832 0.859074 0.510052
O O16 0.611386 0.026655 0.580919
O O17 0.500000 0.750000 0.919478
O O18 0.863997 0.000000 0.750000
#
# Coordination Sequence:
#
# PCOD9334354 Si02
#       8
#     8   8   8   8   8   8   4   8
#     4  11  25  42  64  96 136 175 221 278 336 405
#     4  11  21  38  61  96 136 170 214 277 343 395
#     4  12  24  38  66  99 130 171 219 279 334 402
#     4  11  23  40  62  92 132 173 219 267 330 405
#     4  10  24  38  63  92 137 176 214 276 336 402
#     4  11  24  38  62  95 134 168 217 273 341 396
#     4  10  20  38  60  94 128 172 218 262 324 404
#     4  11  23  38  65  91 131 177 220 270 334 414
#
# _framework density 19.641621000000001
#
# number of rings (size 3 to 8) (size 9 to 14) (size 15 to 20)
#    0.000    1.067    5.333    1.600    9.333    0.533 
#    0.000    0.000    0.000    2.400    0.000    0.000 
#    0.000    0.000    0.000    0.000    0.000    0.000 
#
# Total GULP energy -167268.946140 kJ/mol
# GULP energy per Si atom -5575.631538 kJ/mol
# Density = 1.959692 g / cm^3
# Si number density = 19.641621 Si / 1000 Ang^3
#
#
#
# Elastic Constant Matrix: (Units=GPa)
#
#
# Indices 1 2 3 4 5 6 
#
# 1 95.7570 39.1524 36.9001 0.0000 0.0000 0.0000
# 2 39.1524 122.2303 53.3676 0.0000 0.0000 0.0000
# 3 36.9001 53.3676 96.8368 0.0000 0.0000 0.0000
# 4 0.0000 0.0000 0.0000 -31.3043 0.0000 0.0000
# 5 0.0000 0.0000 0.0000 0.0000 -14.1287 0.0000
# 6 0.0000 0.0000 0.0000 0.0000 0.0000 50.7933
#
#
#
# Elastic Compliance Matrix: (Units=1/GPa)
#
#
# Indices 1 2 3 4 5 6 
#
# 1 0.012840 -0.002603 -0.003458 0.000000 0.000000 0.000000
# 2 -0.002603 0.011301 -0.005236 0.000000 0.000000 0.000000
# 3 -0.003458 -0.005236 0.014530 0.000000 0.000000 0.000000
# 4 0.000000 0.000000 0.000000 -0.031945 0.000000 0.000000
# 5 0.000000 0.000000 0.000000 0.000000 -0.070778 0.000000
# 6 0.000000 0.000000 0.000000 0.000000 0.000000 0.019688
#
#
# Mechanical properties :
#
#
# Convention : Reuss Voigt Hill
#
# Bulk Modulus (GPa) = 62.20285 63.74047 62.97166
# Shear Modulus (GPa) = -304.70567 13.43233 -145.63667
#
# Velocity S-wave (km/s) = -12.46874 2.61793 -8.62021
# Velocity P-wave (km/s) = 13.24971 6.45448 8.18213
#
# Compressibility (1/GPa) = 0.01607643
#
# Stress axis : x y z
#
# Youngs Moduli (GPa) = 77.88156 88.48506 68.82198
#
# Poissons Ratio (x) = 0.23032 0.23800
# Poissons Ratio (y) = 0.20272 0.36038
# Poissons Ratio (z) = 0.26933 0.46334
#
# Static dielectric constant tensor:
#      x y z
#    x 1.867050 0.000000 0.000000 
#    y 0.000000 1.774310 0.000000 
#    z 0.000000 0.000000 1.675380 
# 
# From -- ./inp_files/33434.got.cif
#   From: 2010.05.17/outbox.cif.g08.bks.cpg/sg24_17_cif.got.tgz:33434.got - 2010.06.04 00:33:39.
