data_PCOD9334980
_publ_section_title
;
Structure prediction by ZEFSAII (Michael W. Deem and Ramdas Pophale) SiO2 
 PCOD9334980
Probable space group: I 21 21 21
;
_chemical_formula_sum "Si O2"
_cell_formula_units_Z 40
_cell_length_a 8.219214
_cell_length_b 26.208115
_cell_length_c 8.730452
_cell_angle_alpha 90.000000
_cell_angle_beta 90.000000
_cell_angle_gamma 90.000000
_cell_volume 1880.627588
_symmetry_space_group_name_H-M "I 21 21 21"
_symmetry_group_IT_number 24
_symmetry_cell_setting 'orthorhombic'
loop_
_space_group_symop_operation_xyz
x,y,z
-x,1/2-y,z
x,-y,1/2-z
1/2-x,y,-z
1/2+x,1/2+y,1/2+z
1/2-x,-y,1/2+z
1/2+x,1/2-y,-z
-x,1/2+y,1/2-z
loop_
_atom_site_type_symbol
_atom_site_label
_atom_site_fract_x
_atom_site_fract_y
_atom_site_fract_z
Si Si1 0.364583 0.468226 0.883469
Si Si2 0.119920 0.110674 0.110867
Si Si3 0.914018 0.465705 0.597311
Si Si4 0.571018 0.805842 0.417516
Si Si5 0.865323 0.651522 0.852069
O O1 0.281413 0.500000 0.750000
O O2 0.500236 0.430632 0.817633
O O3 0.250000 0.437879 0.000000
O O4 0.449428 0.508903 0.993218
O O5 0.222308 0.142533 0.229928
O O6 0.250000 0.083292 0.000000
O O7 0.021211 0.149588 0.007463
O O8 0.896879 0.500000 0.750000
O O9 0.750000 0.467328 0.500000
O O10 0.940330 0.405328 0.624311
O O11 0.500000 0.750000 0.449914
O O12 0.750000 0.806004 0.500000
O O13 0.510412 0.817013 0.237717
O O14 0.750000 0.667889 0.000000
#
# Coordination Sequence:
#
# PCOD9334980 Si02
#       5
#     8   8   8   8   8
#     4  12  24  36  53  83 121 161 203 251 306 368
#     4  10  21  39  63  86 116 161 211 253 301 375
#     4  11  20  35  58  84 118 161 203 244 299 368
#     4  11  23  43  69  92 120 162 212 259 310 379
#     4  10  21  39  63  93 125 157 202 261 320 372
#
# _framework density 21.269496
#
# number of rings (size 3 to 8) (size 9 to 14) (size 15 to 20)
#    0.000    1.200    0.000   10.200    0.000    1.600 
#    0.000    4.000    0.000    0.000    0.000    0.000 
#    0.000    0.000    0.000    0.000    0.000    0.000 
#
# Total GULP energy -111359.850085 kJ/mol
# GULP energy per Si atom -5567.992504 kJ/mol
# Density = 2.122109 g / cm^3
# Si number density = 21.269496 Si / 1000 Ang^3
#
#
#
# Elastic Constant Matrix: (Units=GPa)
#
#
# Indices 1 2 3 4 5 6 
#
# 1 98.1776 30.0133 46.0715 0.0001 0.0000 0.0000
# 2 30.0133 92.9338 11.5820 0.0001 0.0000 -0.0001
# 3 46.0715 11.5820 111.0055 0.0033 -0.0003 -0.0011
# 4 0.0001 0.0001 0.0033 -41.0520 0.0008 0.0002
# 5 0.0000 0.0000 -0.0003 0.0008 33.9548 -0.0001
# 6 0.0000 -0.0001 -0.0011 0.0002 -0.0001 24.6332
#
#
#
# Elastic Compliance Matrix: (Units=1/GPa)
#
#
# Indices 1 2 3 4 5 6 
#
# 1 0.013864 -0.003810 -0.005357 0.000000 0.000000 0.000000
# 2 -0.003810 0.011949 0.000335 0.000000 0.000000 0.000000
# 3 -0.005357 0.000335 0.011197 0.000001 0.000000 0.000000
# 4 0.000000 0.000000 0.000001 -0.024359 0.000001 0.000000
# 5 0.000000 0.000000 0.000000 0.000001 0.029451 0.000000
# 6 0.000000 0.000000 0.000000 0.000000 0.000000 0.040596
#
#
# Mechanical properties :
#
#
# Convention : Reuss Voigt Hill
#
# Bulk Modulus (GPa) = 51.69016 53.05006 52.37011
# Shear Modulus (GPa) = 46.81227 17.80387 32.30807
#
# Velocity S-wave (km/s) = 4.69648 2.89634 3.90165
# Velocity P-wave (km/s) = 7.33242 6.01507 6.70617
#
# Compressibility (1/GPa) = 0.01934604
#
# Stress axis : x y z
#
# Youngs Moduli (GPa) = 72.12940 83.68856 89.31090
#
# Poissons Ratio (x) = 0.31884 0.47840
# Poissons Ratio (y) = 0.27480 -0.02987
# Poissons Ratio (z) = 0.38637 -0.02799
#
# Static dielectric constant tensor:
#      x y z
#    x 2.070240 0.000000 0.000000 
#    y 0.000000 1.733130 0.000000 
#    z 0.000000 0.000000 1.858140 
# 
# From -- ./inp_files/9226.got.cif
#   From: 2010.05.17/outbox.cif.g08.bks.cpg/sg24_5_cif.got.tgz:9226.got - 2010.06.04 00:33:39.
