data_PCOD9334799
_publ_section_title
;
Structure prediction by ZEFSAII (Michael W. Deem and Ramdas Pophale) SiO2 
 PCOD9334799
Probable space group: I 21 21 21
;
_chemical_formula_sum "Si O2"
_cell_formula_units_Z 32
_cell_length_a 5.516109
_cell_length_b 23.580401
_cell_length_c 10.851404
_cell_angle_alpha 90.000000
_cell_angle_beta 90.000000
_cell_angle_gamma 90.000000
_cell_volume 1411.464496
_symmetry_space_group_name_H-M "I 21 21 21"
_symmetry_group_IT_number 24
_symmetry_cell_setting 'orthorhombic'
loop_
_space_group_symop_operation_xyz
x,y,z
-x,1/2-y,z
x,-y,1/2-z
1/2-x,y,-z
1/2+x,1/2+y,1/2+z
1/2-x,-y,1/2+z
1/2+x,1/2-y,-z
-x,1/2+y,1/2-z
loop_
_atom_site_type_symbol
_atom_site_label
_atom_site_fract_x
_atom_site_fract_y
_atom_site_fract_z
Si Si1 0.514267 0.500000 0.250000
Si Si2 0.604096 0.685585 0.748940
Si Si3 0.334032 0.591473 0.626235
Si Si4 0.750000 0.715112 0.500000
Si Si5 0.750000 0.512919 0.500000
Si Si6 0.250000 0.786327 0.000000
O O1 0.353054 0.550348 0.306128
O O2 0.652251 0.480795 0.376706
O O3 0.500000 0.750000 0.753179
O O4 0.405744 0.638506 0.724501
O O5 0.764744 0.680818 0.626583
O O6 0.737641 0.677633 0.876271
O O7 0.250000 0.621788 0.500000
O O8 0.547609 0.552147 0.568122
O O9 0.500000 0.750000 0.504346
O O10 0.500000 0.750000 0.008813
#
# Coordination Sequence:
#
# PCOD9334799 Si02
#       6
#     4   8   8   4   4   4
#     4  10  22  44  76  98 150 180 242 306 374 424
#     4  10  22  40  70  99 143 189 241 299 359 434
#     4  10  22  42  71 107 140 188 237 308 360 435
#     4  10  21  36  62 103 136 189 246 293 354 426
#     4  10  21  44  71 104 142 182 239 303 366 438
#     4  10  22  46  67  93 146 197 239 296 354 434
#
# _framework density 22.671486000000002
#
# number of rings (size 3 to 8) (size 9 to 14) (size 15 to 20)
#    0.000    2.000    0.000    2.250    7.000    0.000 
#   18.000   10.000   19.250    0.000    0.000    0.000 
#    0.000    0.000    0.000    0.000    0.000    0.000 
#
# Total GULP energy -89190.290012 kJ/mol
# GULP energy per Si atom -5574.393126 kJ/mol
# Density = 2.261989 g / cm^3
# Si number density = 22.671486 Si / 1000 Ang^3
#
#
#
# Elastic Constant Matrix: (Units=GPa)
#
#
# Indices 1 2 3 4 5 6 
#
# 1 84.1400 24.0916 50.0320 0.0000 0.0000 0.0000
# 2 24.0916 64.6288 52.0056 0.0000 0.0000 0.0000
# 3 50.0320 52.0056 249.0349 0.0001 0.0000 -0.0001
# 4 0.0000 0.0000 0.0001 22.2233 0.0000 0.0000
# 5 0.0000 0.0000 0.0000 0.0000 51.8474 0.0000
# 6 0.0000 0.0000 -0.0001 0.0000 0.0000 12.7939
#
#
#
# Elastic Compliance Matrix: (Units=1/GPa)
#
#
# Indices 1 2 3 4 5 6 
#
# 1 0.014159 -0.003593 -0.002094 0.000000 0.000000 0.000000
# 2 -0.003593 0.019510 -0.003352 0.000000 0.000000 0.000000
# 3 -0.002094 -0.003352 0.005136 0.000000 0.000000 0.000000
# 4 0.000000 0.000000 0.000000 0.044998 0.000000 0.000000
# 5 0.000000 0.000000 0.000000 0.000000 0.019287 0.000000
# 6 0.000000 0.000000 0.000000 0.000000 0.000000 0.078162
#
#
# Mechanical properties :
#
#
# Convention : Reuss Voigt Hill
#
# Bulk Modulus (GPa) = 48.24810 72.22912 60.23861
# Shear Modulus (GPa) = 24.24355 35.48455 29.86405
#
# Velocity S-wave (km/s) = 3.27363 3.96050 3.63333
# Velocity P-wave (km/s) = 5.96795 7.26927 6.65052
#
# Compressibility (1/GPa) = 0.02072620
#
# Stress axis : x y z
#
# Youngs Moduli (GPa) = 70.62642 51.25609 194.69121
#
# Poissons Ratio (x) = 0.18415 0.40775
# Poissons Ratio (y) = 0.25374 0.65269
# Poissons Ratio (z) = 0.14791 0.17183
#
# Static dielectric constant tensor:
#      x y z
#    x 1.978270 0.000000 0.000000 
#    y 0.000000 1.994260 0.000000 
#    z 0.000000 0.000000 1.881380 
# 
# From -- ./inp_files/17611.got.cif
#   From: 2010.05.17/outbox.cif.g08.bks.cpg/sg24_9_cif.got.tgz:17611.got - 2010.06.04 00:33:39.
