data_PCOD9334234
_publ_section_title
;
Structure prediction by ZEFSAII (Michael W. Deem and Ramdas Pophale) SiO2 
 PCOD9334234
Probable space group: I 21 21 21
;
_chemical_formula_sum "Si O2"
_cell_formula_units_Z 64
_cell_length_a 9.163839
_cell_length_b 11.559245
_cell_length_c 28.908359
_cell_angle_alpha 90.000000
_cell_angle_beta 90.000000
_cell_angle_gamma 90.000000
_cell_volume 3062.177482
_symmetry_space_group_name_H-M "I 21 21 21"
_symmetry_group_IT_number 24
_symmetry_cell_setting 'orthorhombic'
loop_
_space_group_symop_operation_xyz
x,y,z
-x,1/2-y,z
x,-y,1/2-z
1/2-x,y,-z
1/2+x,1/2+y,1/2+z
1/2-x,-y,1/2+z
1/2+x,1/2-y,-z
-x,1/2+y,1/2-z
loop_
_atom_site_type_symbol
_atom_site_label
_atom_site_fract_x
_atom_site_fract_y
_atom_site_fract_z
Si Si1 0.534541 0.952205 0.069574
Si Si2 0.433367 0.490004 0.195643
Si Si3 0.006157 0.530769 0.106502
Si Si4 0.721693 0.179449 0.363840
Si Si5 0.856366 0.822158 0.454496
Si Si6 0.645103 0.175995 0.118705
Si Si7 0.713583 0.549627 0.144069
Si Si8 0.085576 0.865566 0.015751
O O1 0.632613 0.844549 0.087994
O O2 0.382563 0.955525 0.097157
O O3 0.617576 0.064908 0.086258
O O4 0.500190 0.956706 0.015930
O O5 0.415427 0.500000 0.250000
O O6 0.373947 0.607663 0.172623
O O7 0.346601 0.385101 0.169465
O O8 0.604396 0.488736 0.180644
O O9 0.127210 0.610176 0.130818
O O10 0.080434 0.432376 0.074860
O O11 0.873443 0.493760 0.139641
O O12 0.925783 0.611356 0.069320
O O13 0.733110 0.312031 0.349003
O O14 0.750000 0.835189 0.500000
O O15 0.768365 0.759653 0.411551
O O16 0.000000 0.750000 0.469022
O O17 0.500000 0.250000 0.120031
O O18 0.000000 0.750000 0.005258
O O19 0.250000 0.859522 0.000000
#
# Coordination Sequence:
#
# PCOD9334234 Si02
#       8
#     8   8   8   8   8   8   8   8
#     4  10  20  37  55  84 128 167 210 262 306 376
#     4  10  22  42  70  99 127 164 216 276 334 410
#     4  12  24  39  61  91 131 169 214 266 324 380
#     4  10  20  39  63  90 131 166 206 254 337 396
#     4  12  27  45  67  93 131 182 234 275 326 386
#     4  10  22  42  67  94 125 171 218 276 331 388
#     4  10  20  37  63  94 127 169 203 258 333 398
#     4  12  25  34  53  86 127 171 215 256 303 366
#
# _framework density 20.90016
#
# number of rings (size 3 to 8) (size 9 to 14) (size 15 to 20)
#    0.000    1.500    3.750    4.500    5.250    1.500 
#    0.000    0.625    0.000    0.000    0.000    0.000 
#    0.000    0.000    0.000    0.000    0.000    0.000 
#
# Total GULP energy -178404.307196 kJ/mol
# GULP energy per Si atom -5575.134600 kJ/mol
# Density = 2.085259 g / cm^3
# Si number density = 20.900160 Si / 1000 Ang^3
#
#
#
# Elastic Constant Matrix: (Units=GPa)
#
#
# Indices 1 2 3 4 5 6 
#
# 1 125.3925 11.7681 30.9686 0.0000 0.0000 0.0000
# 2 11.7681 43.5480 -4.2353 0.0000 0.0000 0.0000
# 3 30.9686 -4.2353 109.5562 0.0000 0.0000 0.0000
# 4 0.0000 0.0000 0.0000 8.1077 0.0000 0.0000
# 5 0.0000 0.0000 0.0000 0.0000 18.5600 0.0000
# 6 0.0000 0.0000 0.0000 0.0000 0.0000 30.2508
#
#
#
# Elastic Compliance Matrix: (Units=1/GPa)
#
#
# Indices 1 2 3 4 5 6 
#
# 1 0.008868 -0.002650 -0.002609 0.000000 0.000000 0.000000
# 2 -0.002650 0.023842 0.001671 0.000000 0.000000 0.000000
# 3 -0.002609 0.001671 0.009930 0.000000 0.000000 0.000000
# 4 0.000000 0.000000 0.000000 0.123339 0.000000 0.000000
# 5 0.000000 0.000000 0.000000 0.000000 0.053879 0.000000
# 6 0.000000 0.000000 0.000000 0.000000 0.000000 0.033057
#
#
# Mechanical properties :
#
#
# Convention : Reuss Voigt Hill
#
# Bulk Modulus (GPa) = 28.19870 39.49993 33.84931
# Shear Modulus (GPa) = 18.38823 27.38340 22.88581
#
# Velocity S-wave (km/s) = 2.96938 3.62360 3.31268
# Velocity P-wave (km/s) = 5.02769 6.03719 5.55542
#
# Compressibility (1/GPa) = 0.03546263
#
# Stress axis : x y z
#
# Youngs Moduli (GPa) = 112.76391 41.94305 100.70609
#
# Poissons Ratio (x) = 0.11116 0.26276
# Poissons Ratio (y) = 0.29885 -0.16826
# Poissons Ratio (z) = 0.29423 -0.07008
#
# Static dielectric constant tensor:
#      x y z
#    x 1.857270 0.000000 0.000000 
#    y 0.000000 1.823430 0.000000 
#    z 0.000000 0.000000 1.766640 
# 
# From -- ./inp_files/38429.got.cif
#   From: 2010.05.17/outbox.cif.g08.bks.cpg/sg24_20_cif.got.tgz:38429.got - 2010.06.04 00:33:39.
