data_PCOD9334418
_publ_section_title
;
Structure prediction by ZEFSAII (Michael W. Deem and Ramdas Pophale) SiO2 
 PCOD9334418
Probable space group: I 21 21 21
;
_chemical_formula_sum "Si O2"
_cell_formula_units_Z 48
_cell_length_a 4.963457
_cell_length_b 14.223312
_cell_length_c 30.522861
_cell_angle_alpha 90.000000
_cell_angle_beta 90.000000
_cell_angle_gamma 90.000000
_cell_volume 2154.816237
_symmetry_space_group_name_H-M "I 21 21 21"
_symmetry_group_IT_number 24
_symmetry_cell_setting 'orthorhombic'
loop_
_space_group_symop_operation_xyz
x,y,z
-x,1/2-y,z
x,-y,1/2-z
1/2-x,y,-z
1/2+x,1/2+y,1/2+z
1/2-x,-y,1/2+z
1/2+x,1/2-y,-z
-x,1/2+y,1/2-z
loop_
_atom_site_type_symbol
_atom_site_label
_atom_site_fract_x
_atom_site_fract_y
_atom_site_fract_z
Si Si1 0.307058 0.895129 0.615211
Si Si2 0.000000 0.250000 0.940642
Si Si3 0.250000 0.587699 0.500000
Si Si4 0.301443 0.500913 0.087757
Si Si5 0.743141 0.181943 0.646443
Si Si6 0.571684 0.897131 0.759760
Si Si7 0.595188 0.349663 0.207257
O O1 0.220013 0.900005 0.665625
O O2 0.226253 0.797553 0.590847
O O3 0.618251 0.924270 0.613539
O O4 0.113429 0.971054 0.591430
O O5 0.928283 0.163771 0.973094
O O6 0.180632 0.516557 0.460637
O O7 0.277249 0.601956 0.109762
O O8 0.500000 0.250000 0.634246
O O9 0.662642 0.128860 0.691586
O O10 0.000000 0.250000 0.652777
O O11 0.325336 0.832883 0.743477
O O12 0.835351 0.894146 0.729405
O O13 0.452018 0.000000 0.750000
O O14 0.500000 0.250000 0.189618
#
# Coordination Sequence:
#
# PCOD9334418 Si02
#       7
#     8   4   4   8   8   8   8
#     4  11  22  40  63 100 143 178 220 261 339 405
#     4  10  20  38  66 104 140 190 210 278 330 438
#     4  10  22  42  70 100 138 172 230 266 350 414
#     4  11  25  43  68  96 131 175 223 288 336 402
#     4  12  25  46  69  95 130 180 233 286 344 398
#     4  12  25  41  64  92 130 174 224 279 336 394
#     4  12  23  39  60  94 131 173 217 265 313 395
#
# _framework density 22.275683000000001
#
# number of rings (size 3 to 8) (size 9 to 14) (size 15 to 20)
#    0.000    0.667    0.833    8.500    0.000    4.000 
#    0.000    0.833    0.000    0.000    0.000    0.000 
#    0.000    0.000    0.000    0.000    0.000    0.000 
#
# Total GULP energy -134043.326916 kJ/mol
# GULP energy per Si atom -5585.138621 kJ/mol
# Density = 2.222498 g / cm^3
# Si number density = 22.275683 Si / 1000 Ang^3
#
#
#
# Elastic Constant Matrix: (Units=GPa)
#
#
# Indices 1 2 3 4 5 6 
#
# 1 84.5636 6.5693 11.4149 0.0000 0.0000 0.0000
# 2 6.5693 96.9495 40.9503 0.0000 0.0000 0.0000
# 3 11.4149 40.9503 126.5915 0.0000 0.0000 0.0000
# 4 0.0000 0.0000 0.0000 31.5952 0.0000 0.0000
# 5 0.0000 0.0000 0.0000 0.0000 67.9993 0.0000
# 6 0.0000 0.0000 0.0000 0.0000 0.0000 32.7788
#
#
#
# Elastic Compliance Matrix: (Units=1/GPa)
#
#
# Indices 1 2 3 4 5 6 
#
# 1 0.011985 -0.000412 -0.000947 0.000000 0.000000 0.000000
# 2 -0.000412 0.011961 -0.003832 0.000000 0.000000 0.000000
# 3 -0.000947 -0.003832 0.009224 0.000000 0.000000 0.000000
# 4 0.000000 0.000000 0.000000 0.031650 0.000000 0.000000
# 5 0.000000 0.000000 0.000000 0.000000 0.014706 0.000000
# 6 0.000000 0.000000 0.000000 0.000000 0.000000 0.030508
#
#
# Mechanical properties :
#
#
# Convention : Reuss Voigt Hill
#
# Bulk Modulus (GPa) = 43.88280 47.33041 45.60660
# Shear Modulus (GPa) = 39.05822 43.08599 41.07210
#
# Velocity S-wave (km/s) = 4.19191 4.40274 4.29862
# Velocity P-wave (km/s) = 6.57055 6.86580 6.71980
#
# Compressibility (1/GPa) = 0.02278797
#
# Stress axis : x y z
#
# Youngs Moduli (GPa) = 83.43546 83.60367 108.40716
#
# Poissons Ratio (x) = 0.03444 0.10271
# Poissons Ratio (y) = 0.03437 0.41543
# Poissons Ratio (z) = 0.07905 0.32038
#
# Static dielectric constant tensor:
#      x y z
#    x 1.856510 0.000000 0.000000 
#    y 0.000000 0.417880 0.000000 
#    z 0.000000 0.000000 1.831490 
# 
# From -- ./inp_files/36487.got.cif
#   From: 2010.05.17/outbox.cif.g08.bks.cpg/sg24_19_cif.got.tgz:36487.got - 2010.06.04 00:33:39.
