data_PCOD9334558
_publ_section_title
;
Structure prediction by ZEFSAII (Michael W. Deem and Ramdas Pophale) SiO2 
 PCOD9334558
Probable space group: I 21 21 21
;
_chemical_formula_sum "Si O2"
_cell_formula_units_Z 52
_cell_length_a 8.825098
_cell_length_b 16.560462
_cell_length_c 19.703526
_cell_angle_alpha 90.000000
_cell_angle_beta 90.000000
_cell_angle_gamma 90.000000
_cell_volume 2879.625008
_symmetry_space_group_name_H-M "I 21 21 21"
_symmetry_group_IT_number 24
_symmetry_cell_setting 'orthorhombic'
loop_
_space_group_symop_operation_xyz
x,y,z
-x,1/2-y,z
x,-y,1/2-z
1/2-x,y,-z
1/2+x,1/2+y,1/2+z
1/2-x,-y,1/2+z
1/2+x,1/2-y,-z
-x,1/2+y,1/2-z
loop_
_atom_site_type_symbol
_atom_site_label
_atom_site_fract_x
_atom_site_fract_y
_atom_site_fract_z
Si Si1 0.251846 0.298003 0.792335
Si Si2 0.570720 0.354551 0.824258
Si Si3 0.921488 0.421764 0.631474
Si Si4 0.227601 0.000000 0.250000
Si Si5 0.653575 0.933114 0.398457
Si Si6 0.250000 0.970238 0.000000
Si Si7 0.000000 0.750000 0.816085
Si Si8 0.531277 0.079219 0.958421
O O1 0.421907 0.332617 0.779595
O O2 0.295952 0.210890 0.822867
O O3 0.173463 0.364673 0.841030
O O4 0.141828 0.276068 0.731025
O O5 0.630808 0.439403 0.796663
O O6 0.513942 0.356485 0.901746
O O7 0.828763 0.447918 0.698358
O O8 0.820489 0.424732 0.563814
O O9 0.052772 0.490107 0.623106
O O10 0.971482 0.330273 0.641207
O O11 0.579488 0.894292 0.466229
O O12 0.820396 0.961059 0.423694
O O13 0.113478 0.023389 0.030363
#
# Coordination Sequence:
#
# PCOD9334558 Si02
#       8
#     8   8   8   4   8   4   4   8
#     4  10  22  38  58  89 131 155 201 258 305 368
#     4  10  21  38  60  92 124 161 204 253 309 370
#     4  11  23  39  65  90 119 164 210 254 317 369
#     4  12  20  38  70  90 114 166 214 248 318 384
#     4   9  20  38  60  88 124 165 205 243 310 373
#     4  10  20  40  64  88 118 158 214 252 308 368
#     4  12  24  42  60  90 128 156 208 270 302 366
#     4   9  18  36  61  90 123 162 200 251 299 377
#
# _framework density 18.057905999999999
#
# number of rings (size 3 to 8) (size 9 to 14) (size 15 to 20)
#    0.000    1.846    3.077    0.923    0.000    2.462 
#    0.000   15.385    0.000    0.000    0.000    0.000 
#    0.000    0.000    0.000    0.000    0.000    0.000 
#
# Total GULP energy -144795.966763 kJ/mol
# GULP energy per Si atom -5569.075645 kJ/mol
# Density = 1.801681 g / cm^3
# Si number density = 18.057906 Si / 1000 Ang^3
#
#
#
# Elastic Constant Matrix: (Units=GPa)
#
#
# Indices 1 2 3 4 5 6 
#
# 1 77.8127 32.5591 39.3711 0.0000 0.0000 0.0000
# 2 32.5591 95.8913 31.9299 0.0000 0.0000 0.0000
# 3 39.3711 31.9299 69.4398 0.0000 0.0000 0.0000
# 4 0.0000 0.0000 0.0000 17.6772 0.0000 0.0000
# 5 0.0000 0.0000 0.0000 0.0000 13.0114 0.0000
# 6 0.0000 0.0000 0.0000 0.0000 0.0000 13.2916
#
#
#
# Elastic Compliance Matrix: (Units=1/GPa)
#
#
# Indices 1 2 3 4 5 6 
#
# 1 0.018898 -0.003364 -0.009168 0.000000 0.000000 0.000000
# 2 -0.003364 0.012913 -0.004030 0.000000 0.000000 0.000000
# 3 -0.009168 -0.004030 0.021452 0.000000 0.000000 0.000000
# 4 0.000000 0.000000 0.000000 0.056570 0.000000 0.000000
# 5 0.000000 0.000000 0.000000 0.000000 0.076855 0.000000
# 6 0.000000 0.000000 0.000000 0.000000 0.000000 0.075236
#
#
# Mechanical properties :
#
#
# Convention : Reuss Voigt Hill
#
# Bulk Modulus (GPa) = 49.65607 50.09600 49.87604
# Shear Modulus (GPa) = 16.56946 18.08163 17.32554
#
# Velocity S-wave (km/s) = 3.03243 3.16779 3.10085
# Velocity P-wave (km/s) = 6.31022 6.41731 6.36399
#
# Compressibility (1/GPa) = 0.02013852
#
# Stress axis : x y z
#
# Youngs Moduli (GPa) = 52.91698 77.44357 46.61540
#
# Poissons Ratio (x) = 0.26050 0.42736
# Poissons Ratio (y) = 0.17800 0.18787
# Poissons Ratio (z) = 0.48513 0.31212
#
# Static dielectric constant tensor:
#      x y z
#    x 1.659920 0.000000 0.000000 
#    y 0.000000 1.603850 0.000000 
#    z 0.000000 0.000000 1.626340 
# 
# From -- ./inp_files/29674.got.cif
#   From: 2010.05.17/outbox.cif.g08.bks.cpg/sg24_15_cif.got.tgz:29674.got - 2010.06.04 00:33:39.
