data_PCOD9334053
_publ_section_title
;
Structure prediction by ZEFSAII (Michael W. Deem and Ramdas Pophale) SiO2 
 PCOD9334053
Probable space group: I 21 21 21
;
_chemical_formula_sum "Si O2"
_cell_formula_units_Z 48
_cell_length_a 12.672995
_cell_length_b 5.246449
_cell_length_c 30.813868
_cell_angle_alpha 90.000000
_cell_angle_beta 90.000000
_cell_angle_gamma 90.000000
_cell_volume 2048.759295
_symmetry_space_group_name_H-M "I 21 21 21"
_symmetry_group_IT_number 24
_symmetry_cell_setting 'orthorhombic'
loop_
_space_group_symop_operation_xyz
x,y,z
-x,1/2-y,z
x,-y,1/2-z
1/2-x,y,-z
1/2+x,1/2+y,1/2+z
1/2-x,-y,1/2+z
1/2+x,1/2-y,-z
-x,1/2+y,1/2-z
loop_
_atom_site_type_symbol
_atom_site_label
_atom_site_fract_x
_atom_site_fract_y
_atom_site_fract_z
Si Si1 0.381384 0.795192 0.784797
Si Si2 0.660934 0.367802 0.153053
Si Si3 0.928338 0.500282 0.938967
Si Si4 0.573397 0.501614 0.967518
Si Si5 0.158357 0.394842 0.703905
Si Si6 0.390968 0.092482 0.871528
O O1 0.500000 0.750000 0.767538
O O2 0.286667 0.596374 0.790590
O O3 0.337697 0.000000 0.750000
O O4 0.401363 0.885702 0.833840
O O5 0.629096 0.475854 0.106520
O O6 0.643642 0.602818 0.187027
O O7 0.782633 0.284837 0.144593
O O8 0.613784 0.100690 0.169530
O O9 0.000000 0.250000 0.940918
O O10 0.869075 0.505379 0.985670
O O11 0.000000 0.750000 0.937742
O O12 0.500000 0.750000 0.966948
O O13 0.628633 0.500042 0.920741
O O14 0.500000 0.250000 0.967272
O O15 0.116351 0.500000 0.750000
O O16 0.500000 0.250000 0.870966
#
# Coordination Sequence:
#
# PCOD9334053 Si02
#       6
#     8   8   8   8   8   8
#     4  11  20  31  52  82 118 166 210 244 279 334
#     4  11  23  37  63  89 113 157 197 237 298 350
#     4  10  21  41  64  87 114 147 195 249 298 354
#     4   9  19  35  57  82 115 156 189 235 295 340
#     4  11  22  39  57  83 119 153 192 240 294 353
#     4  10  20  35  55  86 126 160 197 241 287 348
#
# _framework density 23.428813000000002
#
# number of rings (size 3 to 8) (size 9 to 14) (size 15 to 20)
#    0.000    1.667    0.000    6.000    0.000    4.667 
#    0.000    0.000    0.000   24.000    0.000    0.000 
#    0.000    0.000    0.000    0.000    0.000    0.000 
#
# Total GULP energy -133671.638058 kJ/mol
# GULP energy per Si atom -5569.651586 kJ/mol
# Density = 2.337549 g / cm^3
# Si number density = 23.428813 Si / 1000 Ang^3
#
#
#
# Elastic Constant Matrix: (Units=GPa)
#
#
# Indices 1 2 3 4 5 6 
#
# 1 33.4217 22.8209 11.1851 0.0000 0.0000 0.0000
# 2 22.8209 122.5964 56.2961 0.0000 0.0000 0.0000
# 3 11.1851 56.2961 191.7577 0.0000 0.0000 0.0000
# 4 0.0000 0.0000 0.0000 35.7590 0.0000 0.0000
# 5 0.0000 0.0000 0.0000 0.0000 738.3504 0.0000
# 6 0.0000 0.0000 0.0000 0.0000 0.0000 19.9415
#
#
#
# Elastic Compliance Matrix: (Units=1/GPa)
#
#
# Indices 1 2 3 4 5 6 
#
# 1 0.034281 -0.006314 -0.000146 0.000000 0.000000 0.000000
# 2 -0.006314 0.010591 -0.002741 0.000000 0.000000 0.000000
# 3 -0.000146 -0.002741 0.006028 0.000000 0.000000 0.000000
# 4 0.000000 0.000000 0.000000 0.027965 0.000000 0.000000
# 5 0.000000 0.000000 0.000000 0.000000 0.001354 0.000000
# 6 0.000000 0.000000 0.000000 0.000000 0.000000 0.050147
#
#
# Mechanical properties :
#
#
# Convention : Reuss Voigt Hill
#
# Bulk Modulus (GPa) = 30.77136 58.70890 44.74013
# Shear Modulus (GPa) = 31.32819 175.97511 103.65165
#
# Velocity S-wave (km/s) = 3.66069 8.67604 6.65861
# Velocity P-wave (km/s) = 5.57046 11.20168 8.84612
#
# Compressibility (1/GPa) = 0.03249775
#
# Stress axis : x y z
#
# Youngs Moduli (GPa) = 29.17071 94.42096 165.88947
#
# Poissons Ratio (x) = 0.59620 0.02419
# Poissons Ratio (y) = 0.18419 0.45470
# Poissons Ratio (z) = 0.00425 0.25880
#
# Static dielectric constant tensor:
#      x y z
#    x 1.960000 0.000000 0.000000 
#    y 0.000000 1.704400 0.000000 
#    z 0.000000 0.000000 1.933880 
# 
# From -- ./inp_files/37358.got.cif
#   From: 2010.05.17/outbox.cif.g08.bks.cpg/sg24_19_cif.got.tgz:37358.got - 2010.06.04 00:33:39.
