data_PCOD9334887
_publ_section_title
;
Structure prediction by ZEFSAII (Michael W. Deem and Ramdas Pophale) SiO2 
 PCOD9334887
Probable space group: I 21 21 21
;
_chemical_formula_sum "Si O2"
_cell_formula_units_Z 48
_cell_length_a 10.224907
_cell_length_b 23.450713
_cell_length_c 9.446345
_cell_angle_alpha 90.000000
_cell_angle_beta 90.000000
_cell_angle_gamma 90.000000
_cell_volume 2265.057446
_symmetry_space_group_name_H-M "I 21 21 21"
_symmetry_group_IT_number 24
_symmetry_cell_setting 'orthorhombic'
loop_
_space_group_symop_operation_xyz
x,y,z
-x,1/2-y,z
x,-y,1/2-z
1/2-x,y,-z
1/2+x,1/2+y,1/2+z
1/2-x,-y,1/2+z
1/2+x,1/2-y,-z
-x,1/2+y,1/2-z
loop_
_atom_site_type_symbol
_atom_site_label
_atom_site_fract_x
_atom_site_fract_y
_atom_site_fract_z
Si Si1 0.639866 0.466115 0.891686
Si Si2 0.984076 0.317994 0.802761
Si Si3 0.757928 0.147117 0.667768
Si Si4 0.338853 0.451412 0.861673
Si Si5 0.727595 0.283128 0.665256
Si Si6 0.373435 0.166782 0.910972
O O1 0.664521 0.500000 0.750000
O O2 0.483464 0.469640 0.915641
O O3 0.658742 0.398470 0.880776
O O4 0.750000 0.486936 0.000000
O O5 0.841935 0.322718 0.732905
O O6 0.000000 0.250000 0.784144
O O7 0.092293 0.355081 0.723798
O O8 0.985245 0.330417 0.970087
O O9 0.750000 0.132982 0.500000
O O10 0.670277 0.106551 0.767332
O O11 0.730577 0.214793 0.684579
O O12 0.294513 0.500000 0.750000
O O13 0.250000 0.446280 0.000000
O O14 0.750000 0.292086 0.500000
O O15 0.606198 0.303459 0.760734
O O16 0.250000 0.193983 0.000000
#
# Coordination Sequence:
#
# PCOD9334887 Si02
#       6
#     8   8   8   8   8   8
#     4  10  23  42  62  88 119 157 206 258 316 382
#     4   9  18  34  56  84 122 164 203 248 310 379
#     4  10  21  38  59  87 126 168 209 258 320 384
#     4  11  24  42  64  91 123 162 212 265 324 390
#     4   9  19  34  56  89 122 158 206 259 314 375
#     4   9  18  34  55  81 113 147 194 248 301 368
#
# _framework density 21.191514999999999
#
# number of rings (size 3 to 8) (size 9 to 14) (size 15 to 20)
#    0.000    2.333    0.000    1.500    0.000    7.333 
#    0.000   12.500    0.000    0.000    0.000    0.000 
#    0.000    0.000    0.000    0.000    0.000    0.000 
#
# Total GULP energy -133614.768430 kJ/mol
# GULP energy per Si atom -5567.282018 kJ/mol
# Density = 2.114328 g / cm^3
# Si number density = 21.191515 Si / 1000 Ang^3
#
#
#
# Elastic Constant Matrix: (Units=GPa)
#
#
# Indices 1 2 3 4 5 6 
#
# 1 83.3534 7.3393 68.2693 0.0001 0.0000 0.0000
# 2 7.3393 10.9305 26.4697 0.0000 0.0000 0.0000
# 3 68.2693 26.4697 162.6890 0.0006 0.0001 0.0001
# 4 0.0001 0.0000 0.0006 33.8687 -0.0002 0.0000
# 5 0.0000 0.0000 0.0001 -0.0002 32.5435 0.0000
# 6 0.0000 0.0000 0.0001 0.0000 0.0000 20.3673
#
#
#
# Elastic Compliance Matrix: (Units=1/GPa)
#
#
# Indices 1 2 3 4 5 6 
#
# 1 0.019025 0.010823 -0.009745 0.000000 0.000000 0.000000
# 2 0.010823 0.157127 -0.030107 0.000001 0.000000 0.000000
# 3 -0.009745 -0.030107 0.015134 0.000000 0.000000 0.000000
# 4 0.000000 0.000001 0.000000 0.029526 0.000000 0.000000
# 5 0.000000 0.000000 0.000000 0.000000 0.030728 0.000000
# 6 0.000000 0.000000 0.000000 0.000000 0.000000 0.049098
#
#
# Mechanical properties :
#
#
# Convention : Reuss Voigt Hill
#
# Bulk Modulus (GPa) = 7.50576 51.23662 29.37119
# Shear Modulus (GPa) = 12.40371 27.68221 20.04296
#
# Velocity S-wave (km/s) = 2.42195 3.61818 3.07872
# Velocity P-wave (km/s) = 3.37205 6.45642 5.15054
#
# Compressibility (1/GPa) = 0.13323097
#
# Stress axis : x y z
#
# Youngs Moduli (GPa) = 52.56180 6.36426 66.07567
#
# Poissons Ratio (x) = -0.06888 0.64387
# Poissons Ratio (y) = -0.56888 1.98931
# Poissons Ratio (z) = 0.51219 0.19161
#
# Static dielectric constant tensor:
#      x y z
#    x 1.956040 0.000000 0.000000 
#    y 0.000000 1.731010 0.000000 
#    z 0.000000 0.000000 1.806570 
# 
# From -- ./inp_files/11279.got.cif
#   From: 2010.05.17/outbox.cif.g08.bks.cpg/sg24_6_cif.got.tgz:11279.got - 2010.06.04 00:33:39.
