data_PCOD9334991
_publ_section_title
;
Structure prediction by ZEFSAII (Michael W. Deem and Ramdas Pophale) SiO2 
 PCOD9334991
Probable space group: I 21 21 21
;
_chemical_formula_sum "Si O2"
_cell_formula_units_Z 48
_cell_length_a 16.690407
_cell_length_b 9.362517
_cell_length_c 13.479090
_cell_angle_alpha 90.000000
_cell_angle_beta 90.000000
_cell_angle_gamma 90.000000
_cell_volume 2106.299475
_symmetry_space_group_name_H-M "I 21 21 21"
_symmetry_group_IT_number 24
_symmetry_cell_setting 'orthorhombic'
loop_
_space_group_symop_operation_xyz
x,y,z
-x,1/2-y,z
x,-y,1/2-z
1/2-x,y,-z
1/2+x,1/2+y,1/2+z
1/2-x,-y,1/2+z
1/2+x,1/2-y,-z
-x,1/2+y,1/2-z
loop_
_atom_site_type_symbol
_atom_site_label
_atom_site_fract_x
_atom_site_fract_y
_atom_site_fract_z
Si Si1 0.061022 0.639910 0.309761
Si Si2 0.592239 0.216017 0.128240
Si Si3 0.141758 0.783311 0.123883
Si Si4 0.654363 0.996043 0.986750
Si Si5 0.812704 0.645600 0.804792
Si Si6 0.846694 0.521620 0.512378
O O1 0.029737 0.500000 0.250000
O O2 0.098757 0.736570 0.223169
O O3 0.124822 0.582447 0.389216
O O4 0.000000 0.750000 0.360531
O O5 0.500000 0.250000 0.147286
O O6 0.642708 0.256279 0.225848
O O7 0.621776 0.325497 0.042666
O O8 0.611004 0.061460 0.082964
O O9 0.129003 0.665239 0.038978
O O10 0.236252 0.779459 0.147909
O O11 0.120639 0.939948 0.083398
O O12 0.750000 0.007969 0.000000
O O13 0.783510 0.500000 0.750000
O O14 0.864931 0.580951 0.893833
O O15 0.750000 0.529129 0.500000
#
# Coordination Sequence:
#
# PCOD9334991 Si02
#       6
#     8   8   8   8   8   8
#     4  10  23  39  57  86 123 160 196 239 298 362
#     4  11  23  39  61  91 126 161 196 242 304 367
#     4  10  21  39  64  89 116 156 204 254 299 347
#     4  11  22  39  61  90 122 154 198 250 303 354
#     4   9  19  39  63  89 117 157 211 253 291 349
#     4   9  19  39  64  87 115 156 210 254 288 347
#
# _framework density 22.788782999999999
#
# number of rings (size 3 to 8) (size 9 to 14) (size 15 to 20)
#    0.000    2.000    0.000    3.500    0.000    7.333 
#    0.000   13.333    0.000    0.000    0.000    0.000 
#    0.000    0.000    0.000    0.000    0.000    0.000 
#
# Total GULP energy -134159.834102 kJ/mol
# GULP energy per Si atom -5589.993088 kJ/mol
# Density = 2.273691 g / cm^3
# Si number density = 22.788783 Si / 1000 Ang^3
#
#
#
# Elastic Constant Matrix: (Units=GPa)
#
#
# Indices 1 2 3 4 5 6 
#
# 1 29.2438 11.2393 3.3869 0.0000 0.0000 0.0000
# 2 11.2393 55.7649 26.9933 0.0000 0.0000 0.0000
# 3 3.3869 26.9933 68.0032 0.0000 0.0000 0.0000
# 4 0.0000 0.0000 0.0000 29.5738 0.0000 0.0000
# 5 0.0000 0.0000 0.0000 0.0000 24.6985 0.0000
# 6 0.0000 0.0000 0.0000 0.0000 0.0000 7.9500
#
#
#
# Elastic Compliance Matrix: (Units=1/GPa)
#
#
# Indices 1 2 3 4 5 6 
#
# 1 0.037172 -0.008165 0.001390 0.000000 0.000000 0.000000
# 2 -0.008165 0.023991 -0.009116 0.000000 0.000000 0.000000
# 3 0.001390 -0.009116 0.018255 0.000000 0.000000 0.000000
# 4 0.000000 0.000000 0.000000 0.033814 0.000000 0.000000
# 5 0.000000 0.000000 0.000000 0.000000 0.040488 0.000000
# 6 0.000000 0.000000 0.000000 0.000000 0.000000 0.125786
#
#
# Mechanical properties :
#
#
# Convention : Reuss Voigt Hill
#
# Bulk Modulus (GPa) = 20.99300 26.25009 23.62154
# Shear Modulus (GPa) = 15.28276 19.87065 17.57670
#
# Velocity S-wave (km/s) = 2.59245 2.95608 2.78022
# Velocity P-wave (km/s) = 4.26533 4.81613 4.54908
#
# Compressibility (1/GPa) = 0.04763493
#
# Stress axis : x y z
#
# Youngs Moduli (GPa) = 26.90177 41.68271 54.78067
#
# Poissons Ratio (x) = 0.34032 -0.07612
# Poissons Ratio (y) = 0.21964 0.49940
# Poissons Ratio (z) = -0.03738 0.37999
#
# Static dielectric constant tensor:
#      x y z
#    x 1.877100 0.000000 0.000000 
#    y 0.000000 1.890750 0.000000 
#    z 0.000000 0.000000 1.896460 
# 
# From -- ./inp_files/12792.got.cif
#   From: 2010.05.17/outbox.cif.g08.bks.cpg/sg24_7_cif.got.tgz:12792.got - 2010.06.04 00:33:39.
