data_PCOD9334355
_publ_section_title
;
Structure prediction by ZEFSAII (Michael W. Deem and Ramdas Pophale) SiO2 
 PCOD9334355
Probable space group: I 21 21 21
;
_chemical_formula_sum "Si O2"
_cell_formula_units_Z 32
_cell_length_a 7.372751
_cell_length_b 34.274357
_cell_length_c 5.231117
_cell_angle_alpha 90.000000
_cell_angle_beta 90.000000
_cell_angle_gamma 90.000000
_cell_volume 1321.883910
_symmetry_space_group_name_H-M "I 21 21 21"
_symmetry_group_IT_number 24
_symmetry_cell_setting 'orthorhombic'
loop_
_space_group_symop_operation_xyz
x,y,z
-x,1/2-y,z
x,-y,1/2-z
1/2-x,y,-z
1/2+x,1/2+y,1/2+z
1/2-x,-y,1/2+z
1/2+x,1/2-y,-z
-x,1/2+y,1/2-z
loop_
_atom_site_type_symbol
_atom_site_label
_atom_site_fract_x
_atom_site_fract_y
_atom_site_fract_z
Si Si1 0.500000 0.750000 0.612657
Si Si2 0.538878 0.417808 0.084903
Si Si3 0.250000 0.787385 0.000000
Si Si4 0.550778 0.330248 0.137193
Si Si5 0.053181 0.463468 0.398949
O O1 0.324824 0.759953 0.781970
O O2 0.464474 0.708828 0.475342
O O3 0.474812 0.373434 0.132169
O O4 0.528706 0.443407 0.346233
O O5 0.750000 0.417771 0.000000
O O6 0.432885 0.433487 0.836275
O O7 0.089718 0.816475 0.924658
O O8 0.750000 0.332925 0.000000
O O9 0.960514 0.500000 0.250000
O O10 0.250000 0.476859 0.500000
#
# Coordination Sequence:
#
# PCOD9334355 Si02
#       5
#     4   8   4   8   8
#     4  10  20  38  60  98 128 180 232 264 344 394
#     4  11  25  44  76 107 140 179 239 294 340 410
#     4  10  20  38  66  86 134 186 218 288 332 398
#     4   9  21  38  63  94 133 180 224 281 343 386
#     4  12  26  49  73 101 142 187 221 281 364 428
#
# _framework density 24.207875000000001
#
# number of rings (size 3 to 8) (size 9 to 14) (size 15 to 20)
#    0.000    1.500    0.000    4.500   10.500    2.000 
#    2.250    8.750    0.000    0.000    0.000    0.000 
#    0.000    0.000    0.000    0.000    0.000    0.000 
#
# Total GULP energy -89264.316189 kJ/mol
# GULP energy per Si atom -5579.019762 kJ/mol
# Density = 2.415278 g / cm^3
# Si number density = 24.207875 Si / 1000 Ang^3
#
#
#
# Elastic Constant Matrix: (Units=GPa)
#
#
# Indices 1 2 3 4 5 6 
#
# 1 34.1811 23.7550 20.9844 -0.0032 0.0015 -0.0013
# 2 23.7550 207.9002 97.8673 -0.0733 -0.0094 -0.0003
# 3 20.9844 97.8673 173.7646 -0.1140 -0.0159 0.0001
# 4 -0.0032 -0.0733 -0.1140 0.9566 0.0102 0.0004
# 5 0.0015 -0.0094 -0.0159 0.0102 40.3960 0.0002
# 6 -0.0013 -0.0003 0.0001 0.0004 0.0002 29.8780
#
#
#
# Elastic Compliance Matrix: (Units=1/GPa)
#
#
# Indices 1 2 3 4 5 6 
#
# 1 0.032558 -0.002544 -0.002499 -0.000382 -0.000003 0.000001
# 2 -0.002544 0.006744 -0.003491 0.000093 0.000000 0.000000
# 3 -0.002499 -0.003491 0.008023 0.000680 0.000002 0.000000
# 4 -0.000382 0.000093 0.000680 1.045440 -0.000263 -0.000013
# 5 -0.000003 0.000000 0.000002 -0.000263 0.024755 0.000000
# 6 0.000001 0.000000 0.000000 -0.000013 0.000000 0.033469
#
#
# Mechanical properties :
#
#
# Convention : Reuss Voigt Hill
#
# Bulk Modulus (GPa) = 33.05005 77.89550 55.47277
# Shear Modulus (GPa) = 4.24396 32.46207 18.35302
#
# Velocity S-wave (km/s) = 1.32550 3.66590 2.75643
# Velocity P-wave (km/s) = 4.00310 7.08280 5.75286
#
# Compressibility (1/GPa) = 0.03025714
#
# Stress axis : x y z
#
# Youngs Moduli (GPa) = 30.71432 148.27739 124.63417
#
# Poissons Ratio (x) = 0.37717 0.31151
# Poissons Ratio (y) = 0.07813 0.43512
# Poissons Ratio (z) = 0.07677 0.51766
#
# Static dielectric constant tensor:
#      x y z
#    x 2.038410 0.000000 0.000000 
#    y 0.000000 1.933390 0.000000 
#    z 0.000000 0.000000 2.012850 
# 
# From -- ./inp_files/1178.got.cif
#   From: 2010.05.17/outbox.cif.g08.bks.cpg/sg24_1_cif.got.tgz:1178.got - 2010.06.04 00:33:39.
