data_PCOD9334674
_publ_section_title
;
Structure prediction by ZEFSAII (Michael W. Deem and Ramdas Pophale) SiO2 
 PCOD9334674
Probable space group: I 21 21 21
;
_chemical_formula_sum "Si O2"
_cell_formula_units_Z 40
_cell_length_a 13.932174
_cell_length_b 5.290071
_cell_length_c 25.865737
_cell_angle_alpha 90.000000
_cell_angle_beta 90.000000
_cell_angle_gamma 90.000000
_cell_volume 1906.361454
_symmetry_space_group_name_H-M "I 21 21 21"
_symmetry_group_IT_number 24
_symmetry_cell_setting 'orthorhombic'
loop_
_space_group_symop_operation_xyz
x,y,z
-x,1/2-y,z
x,-y,1/2-z
1/2-x,y,-z
1/2+x,1/2+y,1/2+z
1/2-x,-y,1/2+z
1/2+x,1/2-y,-z
-x,1/2+y,1/2-z
loop_
_atom_site_type_symbol
_atom_site_label
_atom_site_fract_x
_atom_site_fract_y
_atom_site_fract_z
Si Si1 0.744698 0.920324 0.632494
Si Si2 0.598593 0.878490 0.944454
Si Si3 0.500000 0.250000 0.716993
Si Si4 0.601414 0.837732 0.448094
Si Si5 0.750000 0.538443 0.000000
Si Si6 0.705295 0.411801 0.691222
O O1 0.834801 0.970995 0.595000
O O2 0.742930 0.640301 0.656035
O O3 0.646987 0.945426 0.598470
O O4 0.746583 0.140682 0.675128
O O5 0.500000 0.750000 0.927705
O O6 0.685271 0.692053 0.959796
O O7 0.578036 0.010822 0.999474
O O8 0.466288 0.500000 0.750000
O O9 0.590508 0.362789 0.686646
O O10 0.500000 0.750000 0.426472
O O11 0.673570 0.622923 0.468164
O O12 0.721196 0.500000 0.750000
#
# Coordination Sequence:
#
# PCOD9334674 Si02
#       6
#     8   8   4   8   4   8
#     4  12  25  44  70 103 135 180 243 272 338 426
#     4  12  25  40  66  98 142 186 220 282 333 413
#     4  10  20  42  68  94 132 176 218 268 358 418
#     4  12  25  42  69  96 142 188 227 286 339 406
#     4  12  20  44  62  94 138 186 228 268 342 396
#     4  11  25  46  69  96 139 180 225 296 350 400
#
# _framework density 20.982378000000001
#
# number of rings (size 3 to 8) (size 9 to 14) (size 15 to 20)
#    0.000    0.400    6.000    4.200    1.400    0.000 
#    3.600    0.000    0.000    2.400    0.000    1.400 
#    0.000    0.000    0.000    0.000    0.000    0.000 
#
# Total GULP energy -111783.588166 kJ/mol
# GULP energy per Si atom -5589.179408 kJ/mol
# Density = 2.093462 g / cm^3
# Si number density = 20.982378 Si / 1000 Ang^3
#
#
#
# Elastic Constant Matrix: (Units=GPa)
#
#
# Indices 1 2 3 4 5 6 
#
# 1 117.1466 16.5805 15.6312 0.0000 0.0000 0.0000
# 2 16.5805 82.2575 11.5546 0.0000 0.0000 0.0000
# 3 15.6312 11.5546 71.0845 0.0000 0.0000 0.0000
# 4 0.0000 0.0000 0.0000 53.3829 0.0000 0.0000
# 5 0.0000 0.0000 0.0000 0.0000 -16.3937 0.0000
# 6 0.0000 0.0000 0.0000 0.0000 0.0000 33.0759
#
#
#
# Elastic Compliance Matrix: (Units=1/GPa)
#
#
# Indices 1 2 3 4 5 6 
#
# 1 0.008988 -0.001570 -0.001721 0.000000 0.000000 0.000000
# 2 -0.001570 0.012715 -0.001722 0.000000 0.000000 0.000000
# 3 -0.001721 -0.001722 0.014726 0.000000 0.000000 0.000000
# 4 0.000000 0.000000 0.000000 0.018733 0.000000 0.000000
# 5 0.000000 0.000000 0.000000 0.000000 -0.060999 0.000000
# 6 0.000000 0.000000 0.000000 0.000000 0.000000 0.030234
#
#
# Mechanical properties :
#
#
# Convention : Reuss Voigt Hill
#
# Bulk Modulus (GPa) = 37.87324 39.78015 38.82670
# Shear Modulus (GPa) = 115.67823 29.12785 72.40304
#
# Velocity S-wave (km/s) = 7.43309 3.72990 5.88060
# Velocity P-wave (km/s) = 9.57899 6.12777 8.04073
#
# Compressibility (1/GPa) = 0.02640386
#
# Stress axis : x y z
#
# Youngs Moduli (GPa) = 111.25710 78.64583 67.90664
#
# Poissons Ratio (x) = 0.12347 0.11689
# Poissons Ratio (y) = 0.17467 0.11691
# Poissons Ratio (z) = 0.19150 0.13540
#
# Static dielectric constant tensor:
#      x y z
#    x 1.673840 0.000000 0.000000 
#    y 0.000000 1.822470 0.000000 
#    z 0.000000 0.000000 1.815580 
# 
# From -- ./inp_files/35759.got.cif
#   From: 2010.05.17/outbox.cif.g08.bks.cpg/sg24_18_cif.got.tgz:35759.got - 2010.06.04 00:33:39.
