data_PCOD9334074
_publ_section_title
;
Structure prediction by ZEFSAII (Michael W. Deem and Ramdas Pophale) SiO2 
 PCOD9334074
Probable space group: I 21 21 21
;
_chemical_formula_sum "Si O2"
_cell_formula_units_Z 36
_cell_length_a 13.958939
_cell_length_b 7.803164
_cell_length_c 17.757312
_cell_angle_alpha 90.000000
_cell_angle_beta 90.000000
_cell_angle_gamma 90.000000
_cell_volume 1934.195504
_symmetry_space_group_name_H-M "I 21 21 21"
_symmetry_group_IT_number 24
_symmetry_cell_setting 'orthorhombic'
loop_
_space_group_symop_operation_xyz
x,y,z
-x,1/2-y,z
x,-y,1/2-z
1/2-x,y,-z
1/2+x,1/2+y,1/2+z
1/2-x,-y,1/2+z
1/2+x,1/2-y,-z
-x,1/2+y,1/2-z
loop_
_atom_site_type_symbol
_atom_site_label
_atom_site_fract_x
_atom_site_fract_y
_atom_site_fract_z
Si Si1 0.482387 0.562328 0.061519
Si Si2 0.790956 0.792144 0.413417
Si Si3 0.329911 0.002647 0.338996
Si Si4 0.000000 0.250000 0.051663
Si Si5 0.729727 0.843961 0.088462
O O1 0.500000 0.750000 0.026384
O O2 0.567370 0.524883 0.120062
O O3 0.377833 0.580804 0.097183
O O4 0.482462 0.413800 0.001018
O O5 0.750000 0.787483 0.500000
O O6 0.720366 0.670713 0.367065
O O7 0.899066 0.723091 0.407470
O O8 0.793013 0.992062 0.390181
O O9 0.267796 0.167457 0.366086
O O10 0.341345 0.000000 0.250000
O O11 0.750000 0.805520 0.000000
#
# Coordination Sequence:
#
# PCOD9334074 Si02
#       5
#     8   8   8   4   8
#     4  10  20  35  57  91 120 150 196 246 300 351
#     4  11  21  37  63  88 116 159 207 260 293 353
#     4  11  24  40  59  89 130 164 193 239 314 376
#     4  12  20  36  62  92 112 146 214 260 296 330
#     4  10  20  39  61  90 120 157 206 248 300 355
#
# _framework density 18.612387999999999
#
# number of rings (size 3 to 8) (size 9 to 14) (size 15 to 20)
#    0.000    1.333    6.667    0.667    3.111    0.889 
#   18.000    0.000    4.889    0.000    0.000    0.000 
#    0.000    0.000    0.000    0.000    0.000    0.000 
#
# Total GULP energy -100413.629209 kJ/mol
# GULP energy per Si atom -5578.534956 kJ/mol
# Density = 1.857003 g / cm^3
# Si number density = 18.612388 Si / 1000 Ang^3
#
#
#
# Elastic Constant Matrix: (Units=GPa)
#
#
# Indices 1 2 3 4 5 6 
#
# 1 70.6667 -4.4281 15.6509 0.0000 0.0000 0.0000
# 2 -4.4281 87.8797 28.7193 0.0000 0.0000 0.0000
# 3 15.6509 28.7193 59.4632 0.0000 0.0000 0.0000
# 4 0.0000 0.0000 0.0000 11.6775 0.0000 0.0000
# 5 0.0000 0.0000 0.0000 0.0000 -3.9520 0.0000
# 6 0.0000 0.0000 0.0000 0.0000 0.0000 22.3512
#
#
#
# Elastic Compliance Matrix: (Units=1/GPa)
#
#
# Indices 1 2 3 4 5 6 
#
# 1 0.015478 0.002507 -0.005285 0.000000 0.000000 0.000000
# 2 0.002507 0.013918 -0.007382 0.000000 0.000000 0.000000
# 3 -0.005285 -0.007382 0.021773 0.000000 0.000000 0.000000
# 4 0.000000 0.000000 0.000000 0.085635 0.000000 0.000000
# 5 0.000000 0.000000 0.000000 0.000000 -0.253035 0.000000
# 6 0.000000 0.000000 0.000000 0.000000 0.000000 0.044740
#
#
# Mechanical properties :
#
#
# Convention : Reuss Voigt Hill
#
# Bulk Modulus (GPa) = 32.41446 33.09932 32.75689
# Shear Modulus (GPa) = -122.28885 17.88649 -52.20118
#
# Velocity S-wave (km/s) = -8.11453 3.10336 -5.30164
# Velocity P-wave (km/s) = 8.38694 5.53744 4.45407
#
# Compressibility (1/GPa) = 0.03085043
#
# Stress axis : x y z
#
# Youngs Moduli (GPa) = 64.60581 71.84973 45.92768
#
# Poissons Ratio (x) = -0.18013 0.24272
# Poissons Ratio (y) = -0.16197 0.33903
# Poissons Ratio (z) = 0.34143 0.53039
#
# Static dielectric constant tensor:
#      x y z
#    x 1.719320 0.000000 0.000000 
#    y 0.000000 1.678910 0.000000 
#    z 0.000000 0.000000 1.615380 
# 
# From -- ./inp_files/26252.got.cif
#   From: 2010.05.17/outbox.cif.g08.bks.cpg/sg24_14_cif.got.tgz:26252.got - 2010.06.04 00:33:39.
