data_PCOD9334632
_publ_section_title
;
Structure prediction by ZEFSAII (Michael W. Deem and Ramdas Pophale) SiO2 
 PCOD9334632
Probable space group: I 21 21 21
;
_chemical_formula_sum "Si O2"
_cell_formula_units_Z 64
_cell_length_a 12.133962
_cell_length_b 10.577809
_cell_length_c 27.092603
_cell_angle_alpha 90.000000
_cell_angle_beta 90.000000
_cell_angle_gamma 90.000000
_cell_volume 3477.355439
_symmetry_space_group_name_H-M "I 21 21 21"
_symmetry_group_IT_number 24
_symmetry_cell_setting 'orthorhombic'
loop_
_space_group_symop_operation_xyz
x,y,z
-x,1/2-y,z
x,-y,1/2-z
1/2-x,y,-z
1/2+x,1/2+y,1/2+z
1/2-x,-y,1/2+z
1/2+x,1/2-y,-z
-x,1/2+y,1/2-z
loop_
_atom_site_type_symbol
_atom_site_label
_atom_site_fract_x
_atom_site_fract_y
_atom_site_fract_z
Si Si1 0.168529 0.479935 0.623095
Si Si2 0.134239 0.904943 0.107774
Si Si3 0.782650 0.496728 0.691878
Si Si4 0.872064 0.733565 0.638494
Si Si5 0.016894 0.392859 0.708105
Si Si6 0.477118 0.398731 0.469487
Si Si7 0.894888 0.888869 0.079487
Si Si8 0.311429 0.932120 0.453624
O O1 0.171249 0.625541 0.638012
O O2 0.115347 0.402523 0.668634
O O3 0.089196 0.454652 0.576498
O O4 0.288894 0.446439 0.604721
O O5 0.123901 0.760894 0.089108
O O6 0.218804 0.983711 0.073942
O O7 0.006672 0.943974 0.103712
O O8 0.187687 0.926151 0.161460
O O9 0.762703 0.500000 0.750000
O O10 0.804496 0.639319 0.673452
O O11 0.900850 0.429521 0.682172
O O12 0.860947 0.667865 0.584823
O O13 0.000000 0.750000 0.652149
O O14 0.032728 0.500000 0.750000
O O15 0.000000 0.250000 0.727090
O O16 0.500000 0.250000 0.461418
O O17 0.410944 0.409619 0.520931
O O18 0.591729 0.474937 0.471718
O O19 0.250000 0.870374 0.500000
#
# Coordination Sequence:
#
# PCOD9334632 Si02
#       8
#     8   8   8   8   8   8   8   8
#     4  12  24  39  60  92 132 158 215 252 328 369
#     4  10  20  41  60  89 123 158 210 257 317 369
#     4  10  22  39  71  89 118 162 217 256 329 379
#     4  11  22  42  58  90 126 167 196 270 312 386
#     4  11  24  40  66  98 124 159 207 266 331 384
#     4  12  21  36  62  91 122 164 212 263 314 377
#     4  11  22  38  61  88 128 166 201 260 313 375
#     4  11  20  36  60  85 119 163 213 250 310 374
#
# _framework density 18.404792
#
# number of rings (size 3 to 8) (size 9 to 14) (size 15 to 20)
#    0.000    1.000    5.000    3.000    3.500    1.000 
#    0.000    3.125    2.750    0.000    0.000    0.000 
#    0.000    0.000    0.000    0.000    0.000    0.000 
#
# Total GULP energy -178654.960854 kJ/mol
# GULP energy per Si atom -5582.967527 kJ/mol
# Density = 1.836290 g / cm^3
# Si number density = 18.404792 Si / 1000 Ang^3
#
#
#
# Elastic Constant Matrix: (Units=GPa)
#
#
# Indices 1 2 3 4 5 6 
#
# 1 97.4008 14.0788 34.7065 0.0000 0.0000 0.0000
# 2 14.0788 81.1460 28.0288 0.0000 0.0000 0.0000
# 3 34.7065 28.0288 113.4436 0.0000 0.0000 0.0000
# 4 0.0000 0.0000 0.0000 18.1904 0.0000 0.0000
# 5 0.0000 0.0000 0.0000 0.0000 41.8342 0.0000
# 6 0.0000 0.0000 0.0000 0.0000 0.0000 21.7589
#
#
#
# Elastic Compliance Matrix: (Units=1/GPa)
#
#
# Indices 1 2 3 4 5 6 
#
# 1 0.011577 -0.000859 -0.003330 0.000000 0.000000 0.000000
# 2 -0.000859 0.013537 -0.003082 0.000000 0.000000 0.000000
# 3 -0.003330 -0.003082 0.010595 0.000000 0.000000 0.000000
# 4 0.000000 0.000000 0.000000 0.054974 0.000000 0.000000
# 5 0.000000 0.000000 0.000000 0.000000 0.023904 0.000000
# 6 0.000000 0.000000 0.000000 0.000000 0.000000 0.045958
#
#
# Mechanical properties :
#
#
# Convention : Reuss Voigt Hill
#
# Bulk Modulus (GPa) = 47.23906 49.51317 48.37612
# Shear Modulus (GPa) = 27.45100 30.70178 29.07639
#
# Velocity S-wave (km/s) = 3.86620 4.08872 3.97902
# Velocity P-wave (km/s) = 6.75666 7.01790 6.88852
#
# Compressibility (1/GPa) = 0.02116892
#
# Stress axis : x y z
#
# Youngs Moduli (GPa) = 86.37477 73.87181 94.38285
#
# Poissons Ratio (x) = 0.06342 0.31428
# Poissons Ratio (y) = 0.07415 0.29088
# Poissons Ratio (z) = 0.28761 0.22767
#
# Static dielectric constant tensor:
#      x y z
#    x 1.615500 0.000000 0.000000 
#    y 0.000000 1.590640 0.000000 
#    z 0.000000 0.000000 1.664680 
# 
# From -- ./inp_files/38617.got.cif
#   From: 2010.05.17/outbox.cif.g08.bks.cpg/sg24_20_cif.got.tgz:38617.got - 2010.06.04 00:33:39.
