data_PCOD9334650
_publ_section_title
;
Structure prediction by ZEFSAII (Michael W. Deem and Ramdas Pophale) SiO2 
 PCOD9334650
Probable space group: I 21 21 21
;
_chemical_formula_sum "Si O2"
_cell_formula_units_Z 60
_cell_length_a 18.501552
_cell_length_b 18.856538
_cell_length_c 8.457949
_cell_angle_alpha 90.000000
_cell_angle_beta 90.000000
_cell_angle_gamma 90.000000
_cell_volume 2950.768804
_symmetry_space_group_name_H-M "I 21 21 21"
_symmetry_group_IT_number 24
_symmetry_cell_setting 'orthorhombic'
loop_
_space_group_symop_operation_xyz
x,y,z
-x,1/2-y,z
x,-y,1/2-z
1/2-x,y,-z
1/2+x,1/2+y,1/2+z
1/2-x,-y,1/2+z
1/2+x,1/2-y,-z
-x,1/2+y,1/2-z
loop_
_atom_site_type_symbol
_atom_site_label
_atom_site_fract_x
_atom_site_fract_y
_atom_site_fract_z
Si Si1 0.666684 0.833924 0.547894
Si Si2 0.569404 0.211514 0.350576
Si Si3 0.078387 0.568843 0.657769
Si Si4 0.336395 0.197476 0.159636
Si Si5 0.795807 0.651869 0.164252
Si Si6 0.909879 0.546708 0.592932
Si Si7 0.420883 0.262022 0.701935
Si Si8 0.850707 0.500000 0.250000
O O1 0.750000 0.842084 0.500000
O O2 0.626181 0.903328 0.485783
O O3 0.644638 0.760458 0.459799
O O4 0.635975 0.815964 0.719098
O O5 0.500000 0.250000 0.276589
O O6 0.580518 0.135721 0.275247
O O7 0.632225 0.267956 0.319793
O O8 0.558239 0.203535 0.535304
O O9 0.105268 0.500000 0.750000
O O10 0.996127 0.555665 0.605620
O O11 0.252465 0.186214 0.196025
O O12 0.372114 0.123329 0.113478
O O13 0.873979 0.690504 0.171067
O O14 0.805255 0.569900 0.208928
O O15 0.750000 0.657084 0.000000
O O16 0.888678 0.500000 0.750000
O O17 0.891317 0.516057 0.418230
O O18 0.500000 0.250000 0.783690
#
# Coordination Sequence:
#
# PCOD9334650 Si02
#       8
#     8   8   8   8   8   8   8   4
#     4  11  24  43  68  99 133 175 235 297 360 419
#     4  10  20  41  70  98 131 177 234 283 350 422
#     4  10  24  46  71  96 135 183 234 287 371 434
#     4  11  22  40  66  92 138 185 231 276 346 423
#     4  12  25  44  66 104 147 192 238 293 351 432
#     4  11  25  45  68 100 145 193 236 290 356 425
#     4  11  25  40  69 104 134 176 240 305 349 416
#     4  12  30  40  68 106 150 196 244 278 352 442
#
# _framework density 20.333682
#
# number of rings (size 3 to 8) (size 9 to 14) (size 15 to 20)
#    0.000    1.067    4.000    1.600    6.533    1.067 
#    0.000    1.333    0.000    0.000    0.000    0.000 
#    0.000    0.000    0.000    0.000    0.000    0.000 
#
# Total GULP energy -167280.579216 kJ/mol
# GULP energy per Si atom -5576.019307 kJ/mol
# Density = 2.028740 g / cm^3
# Si number density = 20.333682 Si / 1000 Ang^3
#
#
#
# Elastic Constant Matrix: (Units=GPa)
#
#
# Indices 1 2 3 4 5 6 
#
# 1 90.9241 32.6272 16.4406 0.0000 0.0000 0.0000
# 2 32.6272 117.4357 24.5406 0.0000 0.0000 0.0000
# 3 16.4406 24.5406 85.1640 0.0000 0.0000 0.0000
# 4 0.0000 0.0000 0.0000 11.3118 0.0000 0.0000
# 5 0.0000 0.0000 0.0000 0.0000 26.8088 0.0000
# 6 0.0000 0.0000 0.0000 0.0000 0.0000 32.5289
#
#
#
# Elastic Compliance Matrix: (Units=1/GPa)
#
#
# Indices 1 2 3 4 5 6 
#
# 1 0.012391 -0.003131 -0.001490 0.000000 0.000000 0.000000
# 2 -0.003131 0.009852 -0.002234 0.000000 0.000000 0.000000
# 3 -0.001490 -0.002234 0.012674 0.000000 0.000000 0.000000
# 4 0.000000 0.000000 0.000000 0.088403 0.000000 0.000000
# 5 0.000000 0.000000 0.000000 0.000000 0.037301 0.000000
# 6 0.000000 0.000000 0.000000 0.000000 0.000000 0.030742
#
#
# Mechanical properties :
#
#
# Convention : Reuss Voigt Hill
#
# Bulk Modulus (GPa) = 47.15695 48.97116 48.06405
# Shear Modulus (GPa) = 23.56904 28.79094 26.17999
#
# Velocity S-wave (km/s) = 3.40827 3.76696 3.59209
# Velocity P-wave (km/s) = 6.22337 6.56171 6.39477
#
# Compressibility (1/GPa) = 0.02120578
#
# Stress axis : x y z
#
# Youngs Moduli (GPa) = 80.70236 101.50000 78.90463
#
# Poissons Ratio (x) = 0.31783 0.11755
# Poissons Ratio (y) = 0.25271 0.17631
# Poissons Ratio (z) = 0.12023 0.22680
#
# Static dielectric constant tensor:
#      x y z
#    x 1.767800 0.000000 0.000000 
#    y 0.000000 1.688330 0.000000 
#    z 0.000000 0.000000 1.863240 
# 
# From -- ./inp_files/14455.got.cif
#   From: 2010.05.17/outbox.cif.g08.bks.cpg/sg24_8_cif.got.tgz:14455.got - 2010.06.04 00:33:39.
