data_PCOD9334923
_publ_section_title
;
Structure prediction by ZEFSAII (Michael W. Deem and Ramdas Pophale) SiO2 
 PCOD9334923
Probable space group: I 21 21 21
;
_chemical_formula_sum "Si O2"
_cell_formula_units_Z 32
_cell_length_a 8.549579
_cell_length_b 34.365493
_cell_length_c 4.962077
_cell_angle_alpha 90.000000
_cell_angle_beta 90.000000
_cell_angle_gamma 90.000000
_cell_volume 1457.910311
_symmetry_space_group_name_H-M "I 21 21 21"
_symmetry_group_IT_number 24
_symmetry_cell_setting 'orthorhombic'
loop_
_space_group_symop_operation_xyz
x,y,z
-x,1/2-y,z
x,-y,1/2-z
1/2-x,y,-z
1/2+x,1/2+y,1/2+z
1/2-x,-y,1/2+z
1/2+x,1/2-y,-z
-x,1/2+y,1/2-z
loop_
_atom_site_type_symbol
_atom_site_label
_atom_site_fract_x
_atom_site_fract_y
_atom_site_fract_z
Si Si1 0.437933 0.158674 0.002522
Si Si2 0.148295 0.592329 0.242489
Si Si3 0.436992 0.792234 0.995559
Si Si4 0.421826 0.028809 0.502439
O O1 0.527860 0.121676 0.886371
O O2 0.480026 0.194045 0.802379
O O3 0.250000 0.152044 0.000000
O O4 0.483358 0.173778 0.296950
O O5 0.250000 0.577578 0.500000
O O6 0.055254 0.559085 0.079407
O O7 0.250000 0.611039 0.000000
O O8 0.500000 0.750000 0.067020
O O9 0.250000 0.790030 0.000000
O O10 0.250000 0.048961 0.500000
O O11 0.408556 0.000000 0.750000
O O12 0.450203 0.000000 0.250000
#
# Coordination Sequence:
#
# PCOD9334923 Si02
#       4
#     8   8   8   8
#     4  10  23  42  63  90 128 176 221 258 314 393
#     4  12  26  42  66 101 134 167 211 272 333 375
#     4  10  21  38  62  91 124 168 217 267 320 377
#     4  10  23  44  70  96 125 169 217 257 313 393
#
# _framework density 21.949227
#
# number of rings (size 3 to 8) (size 9 to 14) (size 15 to 20)
#    0.000    1.500    0.000    3.750    0.000   13.000 
#    0.000    0.000    0.000    0.000    0.000    0.000 
#    0.000    0.000    0.000    0.000    0.000    0.000 
#
# Total GULP energy -89356.491511 kJ/mol
# GULP energy per Si atom -5584.780719 kJ/mol
# Density = 2.189927 g / cm^3
# Si number density = 21.949227 Si / 1000 Ang^3
#
#
#
# Elastic Constant Matrix: (Units=GPa)
#
#
# Indices 1 2 3 4 5 6 
#
# 1 85.7369 65.0010 60.3725 -0.1093 -0.0424 -0.0412
# 2 65.0010 81.6487 29.8004 0.0495 -0.0224 -0.0040
# 3 60.3725 29.8004 145.3462 0.0486 -0.1498 -0.0312
# 4 -0.1093 0.0495 0.0486 10.3260 -0.0175 -0.0164
# 5 -0.0424 -0.0224 -0.1498 -0.0175 33.0762 -0.0257
# 6 -0.0412 -0.0040 -0.0312 -0.0164 -0.0257 39.2185
#
#
#
# Elastic Compliance Matrix: (Units=1/GPa)
#
#
# Indices 1 2 3 4 5 6 
#
# 1 0.041669 -0.029028 -0.011357 0.000634 -0.000017 0.000032
# 2 -0.029028 0.033461 0.005197 -0.000492 0.000009 -0.000023
# 3 -0.011357 0.005197 0.010532 -0.000195 0.000037 -0.000003
# 4 0.000634 -0.000492 -0.000195 0.096853 0.000051 0.000041
# 5 -0.000017 0.000009 0.000037 0.000051 0.030233 0.000020
# 6 0.000032 -0.000023 -0.000003 0.000041 0.000020 0.025498
#
#
# Mechanical properties :
#
#
# Convention : Reuss Voigt Hill
#
# Bulk Modulus (GPa) = 65.41917 69.23106 67.32512
# Shear Modulus (GPa) = 15.93797 27.02800 21.48298
#
# Velocity S-wave (km/s) = 2.69760 3.51292 3.13190
# Velocity P-wave (km/s) = 6.29064 6.93283 6.61953
#
# Compressibility (1/GPa) = 0.01528604
#
# Stress axis : x y z
#
# Youngs Moduli (GPa) = 23.99874 29.88597 94.95024
#
# Poissons Ratio (x) = 0.86754 1.07831
# Poissons Ratio (y) = 0.69664 -0.49348
# Poissons Ratio (z) = 0.27254 -0.15532
#
# Static dielectric constant tensor:
#      x y z
#    x 1.912950 0.000040 0.000080 
#    y 0.000040 1.742240 0.000040 
#    z 0.000080 0.000040 1.784380 
# 
# From -- ./inp_files/1290.got.cif
#   From: 2010.05.17/outbox.cif.g08.bks.cpg/sg24_1_cif.got.tgz:1290.got - 2010.06.04 00:33:39.
