data_PCOD9334463
_publ_section_title
;
Structure prediction by ZEFSAII (Michael W. Deem and Ramdas Pophale) SiO2 
 PCOD9334463
Probable space group: I 21 21 21
;
_chemical_formula_sum "Si O2"
_cell_formula_units_Z 40
_cell_length_a 7.737026
_cell_length_b 8.881192
_cell_length_c 27.530321
_cell_angle_alpha 90.000000
_cell_angle_beta 90.000000
_cell_angle_gamma 90.000000
_cell_volume 1891.718847
_symmetry_space_group_name_H-M "I 21 21 21"
_symmetry_group_IT_number 24
_symmetry_cell_setting 'orthorhombic'
loop_
_space_group_symop_operation_xyz
x,y,z
-x,1/2-y,z
x,-y,1/2-z
1/2-x,y,-z
1/2+x,1/2+y,1/2+z
1/2-x,-y,1/2+z
1/2+x,1/2-y,-z
-x,1/2+y,1/2-z
loop_
_atom_site_type_symbol
_atom_site_label
_atom_site_fract_x
_atom_site_fract_y
_atom_site_fract_z
Si Si1 0.775039 0.364873 0.946106
Si Si2 0.609122 0.055225 0.094740
Si Si3 0.018114 0.572735 0.097978
Si Si4 0.551919 0.077165 0.201440
Si Si5 0.465028 0.572625 0.700707
O O1 0.812293 0.226181 0.909240
O O2 0.613191 0.468431 0.932516
O O3 0.955350 0.456037 0.943838
O O4 0.750000 0.301075 0.000000
O O5 0.517181 0.021407 0.146614
O O6 0.780508 0.959992 0.087551
O O7 0.000000 0.750000 0.091940
O O8 0.979800 0.519812 0.153398
O O9 0.500000 0.250000 0.203350
O O10 0.758254 0.060791 0.203077
O O11 0.479003 0.000000 0.250000
O O12 0.500000 0.750000 0.696401
O O13 0.538068 0.500000 0.750000
#
# Coordination Sequence:
#
# PCOD9334463 Si02
#       5
#     8   8   8   8   8
#     4  11  24  43  72  98 124 180 232 285 346 390
#     4  10  23  44  68 100 134 163 239 285 324 415
#     4  11  24  43  64  96 141 176 215 277 343 409
#     4  10  20  39  58  93 128 169 209 267 330 395
#     4  10  21  38  63  93 129 170 225 271 332 402
#
# _framework density 21.144791000000001
#
# number of rings (size 3 to 8) (size 9 to 14) (size 15 to 20)
#    0.000    1.600    2.000    3.600    5.600    1.600 
#   14.400    0.000    0.000    0.000    0.000    0.000 
#    0.000    0.000    0.000    0.000    0.000    0.000 
#
# Total GULP energy -111584.698576 kJ/mol
# GULP energy per Si atom -5579.234929 kJ/mol
# Density = 2.109666 g / cm^3
# Si number density = 21.144791 Si / 1000 Ang^3
#
#
#
# Elastic Constant Matrix: (Units=GPa)
#
#
# Indices 1 2 3 4 5 6 
#
# 1 64.3145 3.4625 23.0144 0.0000 0.0000 0.0000
# 2 3.4625 51.1098 4.8678 0.0000 0.0000 0.0000
# 3 23.0144 4.8678 79.4036 0.0000 0.0000 0.0000
# 4 0.0000 0.0000 0.0000 19.9916 0.0000 0.0000
# 5 0.0000 0.0000 0.0000 0.0000 21.9198 0.0000
# 6 0.0000 0.0000 0.0000 0.0000 0.0000 18.6569
#
#
#
# Elastic Compliance Matrix: (Units=1/GPa)
#
#
# Indices 1 2 3 4 5 6 
#
# 1 0.017373 -0.000701 -0.004992 0.000000 0.000000 0.000000
# 2 -0.000701 0.019709 -0.001005 0.000000 0.000000 0.000000
# 3 -0.004992 -0.001005 0.014102 0.000000 0.000000 0.000000
# 4 0.000000 0.000000 0.000000 0.050021 0.000000 0.000000
# 5 0.000000 0.000000 0.000000 0.000000 0.045621 0.000000
# 6 0.000000 0.000000 0.000000 0.000000 0.000000 0.053599
#
#
# Mechanical properties :
#
#
# Convention : Reuss Voigt Hill
#
# Bulk Modulus (GPa) = 26.46429 28.61304 27.53866
# Shear Modulus (GPa) = 22.08299 23.01255 22.54777
#
# Velocity S-wave (km/s) = 3.23518 3.30257 3.26905
# Velocity P-wave (km/s) = 5.14763 5.30131 5.22504
#
# Compressibility (1/GPa) = 0.03778677
#
# Stress axis : x y z
#
# Youngs Moduli (GPa) = 57.56115 50.73832 70.90951
#
# Poissons Ratio (x) = 0.03559 0.35401
# Poissons Ratio (y) = 0.04038 0.07126
# Poissons Ratio (z) = 0.28737 0.05099
#
# Static dielectric constant tensor:
#      x y z
#    x 1.765440 0.000000 0.000000 
#    y 0.000000 1.737650 0.000000 
#    z 0.000000 0.000000 1.834240 
# 
# From -- ./inp_files/36764.got.cif
#   From: 2010.05.17/outbox.cif.g08.bks.cpg/sg24_19_cif.got.tgz:36764.got - 2010.06.04 00:33:39.
