data_PCOD9334812
_publ_section_title
;
Structure prediction by ZEFSAII (Michael W. Deem and Ramdas Pophale) SiO2 
 PCOD9334812
Probable space group: I 21 21 21
;
_chemical_formula_sum "Si O2"
_cell_formula_units_Z 48
_cell_length_a 28.070662
_cell_length_b 16.447216
_cell_length_c 5.236965
_cell_angle_alpha 90.000000
_cell_angle_beta 90.000000
_cell_angle_gamma 90.000000
_cell_volume 2417.824212
_symmetry_space_group_name_H-M "I 21 21 21"
_symmetry_group_IT_number 24
_symmetry_cell_setting 'orthorhombic'
loop_
_space_group_symop_operation_xyz
x,y,z
-x,1/2-y,z
x,-y,1/2-z
1/2-x,y,-z
1/2+x,1/2+y,1/2+z
1/2-x,-y,1/2+z
1/2+x,1/2-y,-z
-x,1/2+y,1/2-z
loop_
_atom_site_type_symbol
_atom_site_label
_atom_site_fract_x
_atom_site_fract_y
_atom_site_fract_z
Si Si1 0.426357 0.389874 0.639342
Si Si2 0.629590 0.797129 0.479013
Si Si3 0.280017 0.694484 0.760188
Si Si4 0.530581 0.550147 0.986256
Si Si5 0.553167 0.273805 0.325967
Si Si6 0.330063 0.575861 0.088556
O O1 0.475832 0.432935 0.593388
O O2 0.432720 0.301435 0.507209
O O3 0.382839 0.439610 0.519040
O O4 0.407726 0.364908 0.917754
O O5 0.667922 0.769503 0.690172
O O6 0.595423 0.726830 0.379168
O O7 0.660642 0.845065 0.267481
O O8 0.250000 0.694894 0.500000
O O9 0.250000 0.729498 0.000000
O O10 0.296022 0.604961 0.860505
O O11 0.532463 0.500000 0.250000
O O12 0.550830 0.640148 0.034823
O O13 0.552342 0.500000 0.750000
O O14 0.500000 0.250000 0.224499
O O15 0.312876 0.500000 0.250000
#
# Coordination Sequence:
#
# PCOD9334812 Si02
#       6
#     8   8   8   8   8   8
#     4   9  21  34  59  81 117 159 209 251 293 352
#     4  10  21  38  62  81 114 163 206 253 301 357
#     4  11  22  42  58  82 116 156 204 260 311 362
#     4  11  25  38  57  89 121 159 201 259 303 354
#     4   9  21  39  58  85 116 163 208 249 299 363
#     4  10  21  37  55  85 112 157 205 256 301 354
#
# _framework density 19.85256
#
# number of rings (size 3 to 8) (size 9 to 14) (size 15 to 20)
#    0.000    2.000    1.667    0.500   11.667    2.667 
#    3.000    0.000    0.000    0.000    0.000    0.000 
#    0.000    0.000   17.000    4.000    0.667    0.000 
#
# Total GULP energy -133842.678510 kJ/mol
# GULP energy per Si atom -5576.778271 kJ/mol
# Density = 1.980737 g / cm^3
# Si number density = 19.852560 Si / 1000 Ang^3
#
#
#
# Elastic Constant Matrix: (Units=GPa)
#
#
# Indices 1 2 3 4 5 6 
#
# 1 86.7684 26.4908 43.8627 0.0000 0.0000 0.0000
# 2 26.4908 78.4860 37.4867 0.0000 0.0000 0.0000
# 3 43.8627 37.4867 113.1051 0.0000 0.0000 0.0000
# 4 0.0000 0.0000 0.0000 27.5676 0.0000 0.0000
# 5 0.0000 0.0000 0.0000 0.0000 24.3862 0.0000
# 6 0.0000 0.0000 0.0000 0.0000 0.0000 8.1844
#
#
#
# Elastic Compliance Matrix: (Units=1/GPa)
#
#
# Indices 1 2 3 4 5 6 
#
# 1 0.014794 -0.002677 -0.004850 0.000000 0.000000 0.000000
# 2 -0.002677 0.015622 -0.004139 0.000000 0.000000 0.000000
# 3 -0.004850 -0.004139 0.012094 0.000000 0.000000 0.000000
# 4 0.000000 0.000000 0.000000 0.036275 0.000000 0.000000
# 5 0.000000 0.000000 0.000000 0.000000 0.041007 0.000000
# 6 0.000000 0.000000 0.000000 0.000000 0.000000 0.122184
#
#
# Mechanical properties :
#
#
# Convention : Reuss Voigt Hill
#
# Bulk Modulus (GPa) = 52.14509 54.89331 53.51920
# Shear Modulus (GPa) = 18.40269 23.39559 20.89914
#
# Velocity S-wave (km/s) = 3.04792 3.43661 3.24808
# Velocity P-wave (km/s) = 6.22170 6.59223 6.40965
#
# Compressibility (1/GPa) = 0.01917726
#
# Stress axis : x y z
#
# Youngs Moduli (GPa) = 67.59542 64.01343 82.68484
#
# Poissons Ratio (x) = 0.17135 0.40102
# Poissons Ratio (y) = 0.18094 0.34227
# Poissons Ratio (z) = 0.32783 0.26498
#
# Static dielectric constant tensor:
#      x y z
#    x 1.748240 0.000000 0.000000 
#    y 0.000000 1.682230 0.000000 
#    z 0.000000 0.000000 1.834980 
# 
# From -- ./inp_files/7103.got.cif
#   From: 2010.05.17/outbox.cif.g08.bks.cpg/sg24_4_cif.got.tgz:7103.got - 2010.06.04 00:33:39.
