data_PCOD9334853
_publ_section_title
;
Structure prediction by ZEFSAII (Michael W. Deem and Ramdas Pophale) SiO2 
 PCOD9334853
Probable space group: I 21 21 21
;
_chemical_formula_sum "Si O2"
_cell_formula_units_Z 60
_cell_length_a 22.775693
_cell_length_b 16.352665
_cell_length_c 8.910345
_cell_angle_alpha 90.000000
_cell_angle_beta 90.000000
_cell_angle_gamma 90.000000
_cell_volume 3318.598098
_symmetry_space_group_name_H-M "I 21 21 21"
_symmetry_group_IT_number 24
_symmetry_cell_setting 'orthorhombic'
loop_
_space_group_symop_operation_xyz
x,y,z
-x,1/2-y,z
x,-y,1/2-z
1/2-x,y,-z
1/2+x,1/2+y,1/2+z
1/2-x,-y,1/2+z
1/2+x,1/2-y,-z
-x,1/2+y,1/2-z
loop_
_atom_site_type_symbol
_atom_site_label
_atom_site_fract_x
_atom_site_fract_y
_atom_site_fract_z
Si Si1 0.932483 0.997280 0.428170
Si Si2 0.785709 0.772754 0.265368
Si Si3 0.146878 0.908274 0.807872
Si Si4 0.041264 0.677087 0.579921
Si Si5 0.984469 0.583819 0.847350
Si Si6 0.304159 0.559468 0.885723
Si Si7 0.250000 0.153701 0.500000
Si Si8 0.666220 0.258372 0.088660
O O1 0.864220 0.022858 0.456763
O O2 0.975140 0.061107 0.511992
O O3 0.939665 0.000000 0.250000
O O4 0.949680 0.906275 0.484781
O O5 0.814642 0.853224 0.194591
O O6 0.719739 0.788542 0.328773
O O7 0.818915 0.738246 0.411682
O O8 0.777471 0.709351 0.130951
O O9 0.082634 0.891616 0.877270
O O10 0.159443 0.845379 0.671467
O O11 0.147380 0.000000 0.750000
O O12 0.198019 0.897202 0.927317
O O13 0.105464 0.712425 0.606645
O O14 0.000000 0.750000 0.515182
O O15 0.012880 0.649902 0.737298
O O16 0.982393 0.500000 0.750000
O O17 0.286820 0.500000 0.750000
O O18 0.250000 0.567185 0.000000
#
# Coordination Sequence:
#
# PCOD9334853 Si02
#       8
#     8   8   8   8   8   8   4   8
#     4  10  23  41  59  89 132 163 204 261 321 384
#     4  10  22  40  59  88 125 162 199 256 310 374
#     4  10  21  40  61  88 117 154 208 263 314 385
#     4  11  21  39  64  92 116 164 216 258 303 376
#     4   9  20  39  62  84 115 158 207 254 306 373
#     4  11  24  37  60  92 128 166 207 249 310 385
#     4  10  22  40  60  88 122 154 200 258 320 380
#     4  10  21  37  63  86 123 158 210 255 314 365
#
# _framework density 18.079924999999999
#
# number of rings (size 3 to 8) (size 9 to 14) (size 15 to 20)
#    0.000    1.867    2.000    1.600    5.600    2.667 
#    2.400    1.333    0.000    0.000    0.000    0.000 
#    0.000    0.000    0.000    0.000    0.000    0.000 
#
# Total GULP energy -167310.692829 kJ/mol
# GULP energy per Si atom -5577.023094 kJ/mol
# Density = 1.803877 g / cm^3
# Si number density = 18.079925 Si / 1000 Ang^3
#
#
#
# Elastic Constant Matrix: (Units=GPa)
#
#
# Indices 1 2 3 4 5 6 
#
# 1 133.1417 53.8051 67.5260 0.0000 0.0000 0.0000
# 2 53.8051 83.9408 35.7886 0.0000 0.0000 0.0000
# 3 67.5260 35.7886 95.9729 0.0000 0.0000 0.0000
# 4 0.0000 0.0000 0.0000 18.4084 0.0000 0.0000
# 5 0.0000 0.0000 0.0000 0.0000 23.9394 0.0000
# 6 0.0000 0.0000 0.0000 0.0000 0.0000 129.2853
#
#
#
# Elastic Compliance Matrix: (Units=1/GPa)
#
#
# Indices 1 2 3 4 5 6 
#
# 1 0.013509 -0.005478 -0.007462 0.000000 0.000000 0.000000
# 2 -0.005478 0.016386 -0.002257 0.000000 0.000000 0.000000
# 3 -0.007462 -0.002257 0.016511 0.000000 0.000000 0.000000
# 4 0.000000 0.000000 0.000000 0.054323 0.000000 0.000000
# 5 0.000000 0.000000 0.000000 0.000000 0.041772 0.000000
# 6 0.000000 0.000000 0.000000 0.000000 0.000000 0.007735
#
#
# Mechanical properties :
#
#
# Convention : Reuss Voigt Hill
#
# Bulk Modulus (GPa) = 62.44502 69.69945 66.07223
# Shear Modulus (GPa) = 26.88641 44.72234 35.80437
#
# Velocity S-wave (km/s) = 3.86046 4.97892 4.45493
# Velocity P-wave (km/s) = 7.38134 8.46683 7.94265
#
# Compressibility (1/GPa) = 0.01601409
#
# Stress axis : x y z
#
# Youngs Moduli (GPa) = 74.02431 61.02658 60.56387
#
# Poissons Ratio (x) = 0.33428 0.45195
# Poissons Ratio (y) = 0.40547 0.13666
# Poissons Ratio (z) = 0.55239 0.13771
#
# Static dielectric constant tensor:
#      x y z
#    x 1.632560 0.000000 0.000000 
#    y 0.000000 1.631850 0.000000 
#    z 0.000000 0.000000 1.531400 
# 
# From -- ./inp_files/16006.got.cif
#   From: 2010.05.17/outbox.cif.g08.bks.cpg/sg24_9_cif.got.tgz:16006.got - 2010.06.04 00:33:39.
