data_PCOD9334511
_publ_section_title
;
Structure prediction by ZEFSAII (Michael W. Deem and Ramdas Pophale) SiO2 
 PCOD9334511
Probable space group: I 21 21 21
;
_chemical_formula_sum "Si O2"
_cell_formula_units_Z 40
_cell_length_a 21.904306
_cell_length_b 15.058943
_cell_length_c 5.560656
_cell_angle_alpha 90.000000
_cell_angle_beta 90.000000
_cell_angle_gamma 90.000000
_cell_volume 1834.214052
_symmetry_space_group_name_H-M "I 21 21 21"
_symmetry_group_IT_number 24
_symmetry_cell_setting 'orthorhombic'
loop_
_space_group_symop_operation_xyz
x,y,z
-x,1/2-y,z
x,-y,1/2-z
1/2-x,y,-z
1/2+x,1/2+y,1/2+z
1/2-x,-y,1/2+z
1/2+x,1/2-y,-z
-x,1/2+y,1/2-z
loop_
_atom_site_type_symbol
_atom_site_label
_atom_site_fract_x
_atom_site_fract_y
_atom_site_fract_z
Si Si1 0.750000 0.946084 0.500000
Si Si2 0.613339 0.645734 0.373399
Si Si3 0.130720 0.337087 0.125592
Si Si4 0.438505 0.264768 0.488905
Si Si5 0.786740 0.500000 0.750000
Si Si6 0.983776 0.090856 0.894618
O O1 0.690958 0.886048 0.548134
O O2 0.740792 0.000000 0.250000
O O3 0.627684 0.739387 0.501848
O O4 0.669506 0.580441 0.338089
O O5 0.552634 0.602861 0.491182
O O6 0.588596 0.673710 0.110381
O O7 0.119456 0.314674 0.402604
O O8 0.072103 0.399583 0.075933
O O9 0.500000 0.250000 0.649735
O O10 0.466275 0.327848 0.283447
O O11 0.750000 0.476767 0.500000
O O12 0.981290 0.000000 0.750000
#
# Coordination Sequence:
#
# PCOD9334511 Si02
#       6
#     4   8   8   8   4   8
#     4  12  32  50  70 106 144 188 246 296 356 428
#     4  10  23  44  69 103 138 189 235 294 356 426
#     4  11  24  42  71  96 144 185 238 291 365 422
#     4   9  20  38  67 104 135 180 235 294 355 428
#     4  12  30  50  72 104 148 186 246 292 352 430
#     4  10  20  39  67 104 142 175 238 296 359 416
#
# _framework density 21.807706
#
# number of rings (size 3 to 8) (size 9 to 14) (size 15 to 20)
#    0.000    1.600    1.000    3.600   12.600    0.000 
#    0.000    0.000    0.000    0.000    0.000    0.000 
#    0.000    0.000    0.000    0.000    0.000    0.000 
#
# Total GULP energy -111444.972313 kJ/mol
# GULP energy per Si atom -5572.248616 kJ/mol
# Density = 2.175807 g / cm^3
# Si number density = 21.807706 Si / 1000 Ang^3
#
#
#
# Elastic Constant Matrix: (Units=GPa)
#
#
# Indices 1 2 3 4 5 6 
#
# 1 127.4090 23.8720 16.7812 0.0000 0.0000 0.0000
# 2 23.8720 75.8616 -9.7573 0.0000 0.0000 0.0000
# 3 16.7812 -9.7573 36.9339 0.0000 0.0000 0.0000
# 4 0.0000 0.0000 0.0000 13.6735 0.0000 0.0000
# 5 0.0000 0.0000 0.0000 0.0000 17.2212 0.0000
# 6 0.0000 0.0000 0.0000 0.0000 0.0000 48.1625
#
#
#
# Elastic Compliance Matrix: (Units=1/GPa)
#
#
# Indices 1 2 3 4 5 6 
#
# 1 0.009187 -0.003548 -0.005111 0.000000 0.000000 0.000000
# 2 -0.003548 0.015016 0.005579 0.000000 0.000000 0.000000
# 3 -0.005111 0.005579 0.030872 0.000000 0.000000 0.000000
# 4 0.000000 0.000000 0.000000 0.073134 0.000000 0.000000
# 5 0.000000 0.000000 0.000000 0.000000 0.058068 0.000000
# 6 0.000000 0.000000 0.000000 0.000000 0.000000 0.020763
#
#
# Mechanical properties :
#
#
# Convention : Reuss Voigt Hill
#
# Bulk Modulus (GPa) = 20.44430 33.55514 26.99972
# Shear Modulus (GPa) = 21.78593 29.76533 25.77563
#
# Velocity S-wave (km/s) = 3.16413 3.69846 3.44168
# Velocity P-wave (km/s) = 4.76908 5.80159 5.31048
#
# Compressibility (1/GPa) = 0.04891338
#
# Stress axis : x y z
#
# Youngs Moduli (GPa) = 108.85171 66.59534 32.39203
#
# Poissons Ratio (x) = 0.23630 0.16557
# Poissons Ratio (y) = 0.38624 -0.18072
# Poissons Ratio (z) = 0.55640 -0.37155
#
# Static dielectric constant tensor:
#      x y z
#    x 1.860160 0.000000 0.000000 
#    y 0.000000 1.784490 0.000000 
#    z 0.000000 0.000000 2.040810 
# 
# From -- ./inp_files/6315.got.cif
#   From: 2010.05.17/outbox.cif.g08.bks.cpg/sg24_4_cif.got.tgz:6315.got - 2010.06.04 00:33:39.
