data_PCOD9334505
_publ_section_title
;
Structure prediction by ZEFSAII (Michael W. Deem and Ramdas Pophale) SiO2 
 PCOD9334505
Probable space group: I 21 21 21
;
_chemical_formula_sum "Si O2"
_cell_formula_units_Z 52
_cell_length_a 16.957895
_cell_length_b 16.907295
_cell_length_c 8.449008
_cell_angle_alpha 90.000000
_cell_angle_beta 90.000000
_cell_angle_gamma 90.000000
_cell_volume 2422.433108
_symmetry_space_group_name_H-M "I 21 21 21"
_symmetry_group_IT_number 24
_symmetry_cell_setting 'orthorhombic'
loop_
_space_group_symop_operation_xyz
x,y,z
-x,1/2-y,z
x,-y,1/2-z
1/2-x,y,-z
1/2+x,1/2+y,1/2+z
1/2-x,-y,1/2+z
1/2+x,1/2-y,-z
-x,1/2+y,1/2-z
loop_
_atom_site_type_symbol
_atom_site_label
_atom_site_fract_x
_atom_site_fract_y
_atom_site_fract_z
Si Si1 0.378498 0.918800 0.914507
Si Si2 0.055293 0.409487 0.269395
Si Si3 0.172130 0.100245 0.088495
Si Si4 0.422576 0.500000 0.250000
Si Si5 0.339901 0.639517 0.057096
Si Si6 0.071324 0.211836 0.642692
Si Si7 0.507617 0.373344 0.053461
O O1 0.466400 0.920567 0.838189
O O2 0.324144 0.884360 0.775070
O O3 0.345547 0.006576 0.940533
O O4 0.386788 0.863472 0.064673
O O5 0.085380 0.500000 0.250000
O O6 0.108919 0.366370 0.396604
O O7 0.048653 0.364644 0.100110
O O8 0.250000 0.124669 0.000000
O O9 0.093944 0.137606 0.018793
O O10 0.368806 0.434080 0.334827
O O11 0.479490 0.457973 0.122170
O O12 0.250000 0.636704 0.000000
O O13 0.363852 0.719212 0.151838
O O14 0.019303 0.177353 0.788018
O O15 0.000000 0.250000 0.538538
#
# Coordination Sequence:
#
# PCOD9334505 Si02
#       7
#     8   8   8   4   8   8   8
#     4  10  20  39  66  94 134 185 229 282 346 431
#     4  11  19  43  71 102 128 177 241 297 354 427
#     4  10  21  37  62 105 137 174 228 283 353 418
#     4  12  22  42  70 100 130 182 254 306 354 438
#     4  12  28  45  70 105 148 191 242 314 384 434
#     4  12  24  44  66  99 135 183 236 289 370 441
#     4  11  22  39  73  97 134 177 242 297 352 446
#
# _framework density 21.466021999999999
#
# number of rings (size 3 to 8) (size 9 to 14) (size 15 to 20)
#    0.000    0.923    7.692    0.923    1.077    5.538 
#    5.538    0.000    0.000    0.000    0.000    0.000 
#    0.000    0.000    0.000    0.000    0.000    0.000 
#
# Total GULP energy -144953.363779 kJ/mol
# GULP energy per Si atom -5575.129376 kJ/mol
# Density = 2.141716 g / cm^3
# Si number density = 21.466022 Si / 1000 Ang^3
#
#
#
# Elastic Constant Matrix: (Units=GPa)
#
#
# Indices 1 2 3 4 5 6 
#
# 1 70.5378 -0.4618 26.3202 0.0000 0.0000 0.0000
# 2 -0.4618 68.8935 30.2569 0.0000 0.0000 0.0000
# 3 26.3202 30.2569 99.1470 0.0000 0.0000 0.0000
# 4 0.0000 0.0000 0.0000 -3.3631 0.0000 0.0000
# 5 0.0000 0.0000 0.0000 0.0000 23.8622 0.0000
# 6 0.0000 0.0000 0.0000 0.0000 0.0000 14.1308
#
#
#
# Elastic Compliance Matrix: (Units=1/GPa)
#
#
# Indices 1 2 3 4 5 6 
#
# 1 0.016041 0.002284 -0.004955 0.000000 0.000000 0.000000
# 2 0.002284 0.017087 -0.005821 0.000000 0.000000 0.000000
# 3 -0.004955 -0.005821 0.013178 0.000000 0.000000 0.000000
# 4 0.000000 0.000000 0.000000 -0.297344 0.000000 0.000000
# 5 0.000000 0.000000 0.000000 0.000000 0.041907 0.000000
# 6 0.000000 0.000000 0.000000 0.000000 0.000000 0.070767
#
#
# Mechanical properties :
#
#
# Convention : Reuss Voigt Hill
#
# Bulk Modulus (GPa) = 34.10520 38.97878 36.54199
# Shear Modulus (GPa) = -44.80039 19.09018 -12.85511
#
# Velocity S-wave (km/s) = -4.57337 2.98538 -2.44981
# Velocity P-wave (km/s) = 3.45906 5.48463 3.00965
#
# Compressibility (1/GPa) = 0.02932104
#
# Stress axis : x y z
#
# Youngs Moduli (GPa) = 62.34134 58.52470 75.88526
#
# Poissons Ratio (x) = -0.13366 0.37603
# Poissons Ratio (y) = -0.14237 0.44170
# Poissons Ratio (z) = 0.30891 0.34065
#
# Static dielectric constant tensor:
#      x y z
#    x 1.770450 0.000000 0.000000 
#    y 0.000000 1.844490 0.000000 
#    z 0.000000 0.000000 1.929340 
# 
# From -- ./inp_files/14420.got.cif
#   From: 2010.05.17/outbox.cif.g08.bks.cpg/sg24_8_cif.got.tgz:14420.got - 2010.06.04 00:33:39.
