data_PCOD9334987
_publ_section_title
;
Structure prediction by ZEFSAII (Michael W. Deem and Ramdas Pophale) SiO2 
 PCOD9334987
Probable space group: I 21 21 21
;
_chemical_formula_sum "Si O2"
_cell_formula_units_Z 60
_cell_length_a 13.542632
_cell_length_b 7.491823
_cell_length_c 25.759522
_cell_angle_alpha 90.000000
_cell_angle_beta 90.000000
_cell_angle_gamma 90.000000
_cell_volume 2613.535391
_symmetry_space_group_name_H-M "I 21 21 21"
_symmetry_group_IT_number 24
_symmetry_cell_setting 'orthorhombic'
loop_
_space_group_symop_operation_xyz
x,y,z
-x,1/2-y,z
x,-y,1/2-z
1/2-x,y,-z
1/2+x,1/2+y,1/2+z
1/2-x,-y,1/2+z
1/2+x,1/2-y,-z
-x,1/2+y,1/2-z
loop_
_atom_site_type_symbol
_atom_site_label
_atom_site_fract_x
_atom_site_fract_y
_atom_site_fract_z
Si Si1 0.422659 0.380761 0.625923
Si Si2 0.286130 0.846808 0.558432
Si Si3 0.612503 0.292257 0.134362
Si Si4 0.500000 0.250000 0.897020
Si Si5 0.613468 0.717082 0.148983
Si Si6 0.610402 0.794166 0.759225
Si Si7 0.749786 0.225075 0.560376
Si Si8 0.682923 0.299158 0.241987
O O1 0.500000 0.250000 0.598641
O O2 0.471552 0.572416 0.635031
O O3 0.391667 0.277581 0.678320
O O4 0.330635 0.394184 0.588823
O O5 0.250000 0.808593 0.500000
O O6 0.204314 0.755342 0.596147
O O7 0.399624 0.794104 0.570839
O O8 0.279165 0.063840 0.564981
O O9 0.500000 0.250000 0.117209
O O10 0.623429 0.504800 0.142329
O O11 0.631139 0.213630 0.192189
O O12 0.500000 0.750000 0.157595
O O13 0.652515 0.798670 0.095167
O O14 0.668803 0.783888 0.200974
O O15 0.500000 0.750000 0.742003
O O16 0.699393 0.691087 0.732204
O O17 0.632019 0.000000 0.750000
O O18 0.750000 0.182288 0.500000
O O19 0.643806 0.500000 0.250000
#
# Coordination Sequence:
#
# PCOD9334987 Si02
#       8
#     8   8   8   4   8   8   8   8
#     4  11  24  44  67  99 136 178 222 285 341 408
#     4  10  24  44  68 101 140 181 228 293 346 411
#     4  10  23  40  65  95 133 175 223 283 337 409
#     4  12  26  42  76 102 138 186 236 280 354 420
#     4  10  21  39  63  94 131 170 220 280 340 407
#     4  11  25  39  62  94 132 170 220 278 340 410
#     4  10  21  44  68  97 134 178 231 281 349 410
#     4  10  21  40  65  91 128 174 218 276 340 407
#
# _framework density 22.957408999999998
#
# number of rings (size 3 to 8) (size 9 to 14) (size 15 to 20)
#    0.000    1.600    2.667    0.800    3.733    3.200 
#    2.400    0.000    0.000    0.000    0.000    0.000 
#    0.000    0.000    0.000    0.000    0.000    0.000 
#
# Total GULP energy -167522.283894 kJ/mol
# GULP energy per Si atom -5584.076130 kJ/mol
# Density = 2.290516 g / cm^3
# Si number density = 22.957409 Si / 1000 Ang^3
#
#
#
# Elastic Constant Matrix: (Units=GPa)
#
#
# Indices 1 2 3 4 5 6 
#
# 1 157.1263 -4.4067 56.0728 0.0000 0.0000 0.0000
# 2 -4.4067 58.1787 -0.6653 0.0000 0.0000 0.0000
# 3 56.0728 -0.6653 115.3154 0.0000 0.0000 0.0000
# 4 0.0000 0.0000 0.0000 9.4848 0.0000 0.0000
# 5 0.0000 0.0000 0.0000 0.0000 14.8366 0.0000
# 6 0.0000 0.0000 0.0000 0.0000 0.0000 37.0674
#
#
#
# Elastic Compliance Matrix: (Units=1/GPa)
#
#
# Indices 1 2 3 4 5 6 
#
# 1 0.007718 0.000542 -0.003750 0.000000 0.000000 0.000000
# 2 0.000542 0.017228 -0.000164 0.000000 0.000000 0.000000
# 3 -0.003750 -0.000164 0.010494 0.000000 0.000000 0.000000
# 4 0.000000 0.000000 0.000000 0.105432 0.000000 0.000000
# 5 0.000000 0.000000 0.000000 0.000000 0.067401 0.000000
# 6 0.000000 0.000000 0.000000 0.000000 0.000000 0.026978
#
#
# Mechanical properties :
#
#
# Convention : Reuss Voigt Hill
#
# Bulk Modulus (GPa) = 34.84865 48.06911 41.45888
# Shear Modulus (GPa) = 19.87605 30.91906 25.39756
#
# Velocity S-wave (km/s) = 2.94561 3.67386 3.32970
# Velocity P-wave (km/s) = 5.17508 6.24341 5.73418
#
# Compressibility (1/GPa) = 0.02869552
#
# Stress axis : x y z
#
# Youngs Moduli (GPa) = 129.57395 58.04645 95.29082
#
# Poissons Ratio (x) = -0.03144 0.35730
# Poissons Ratio (y) = -0.07019 0.01563
# Poissons Ratio (z) = 0.48585 0.00952
#
# Static dielectric constant tensor:
#      x y z
#    x 1.887490 0.000000 0.000000 
#    y 0.000000 1.926960 0.000000 
#    z 0.000000 0.000000 1.872720 
# 
# From -- ./inp_files/37227.got.cif
#   From: 2010.05.17/outbox.cif.g08.bks.cpg/sg24_19_cif.got.tgz:37227.got - 2010.06.04 00:33:39.
