data_PCOD9334652
_publ_section_title
;
Structure prediction by ZEFSAII (Michael W. Deem and Ramdas Pophale) SiO2 
 PCOD9334652
Probable space group: I 21 21 21
;
_chemical_formula_sum "Si O2"
_cell_formula_units_Z 40
_cell_length_a 5.905603
_cell_length_b 24.512904
_cell_length_c 12.501534
_cell_angle_alpha 90.000000
_cell_angle_beta 90.000000
_cell_angle_gamma 90.000000
_cell_volume 1809.765560
_symmetry_space_group_name_H-M "I 21 21 21"
_symmetry_group_IT_number 24
_symmetry_cell_setting 'orthorhombic'
loop_
_space_group_symop_operation_xyz
x,y,z
-x,1/2-y,z
x,-y,1/2-z
1/2-x,y,-z
1/2+x,1/2+y,1/2+z
1/2-x,-y,1/2+z
1/2+x,1/2-y,-z
-x,1/2+y,1/2-z
loop_
_atom_site_type_symbol
_atom_site_label
_atom_site_fract_x
_atom_site_fract_y
_atom_site_fract_z
Si Si1 0.250000 0.014197 0.500000
Si Si2 0.448592 0.545075 0.326712
Si Si3 0.250000 0.274656 0.000000
Si Si4 0.209797 0.898421 0.162768
Si Si5 0.431937 0.687653 0.090589
Si Si6 0.683109 0.152620 0.799316
O O1 0.122142 0.055041 0.417924
O O2 0.366215 0.144243 0.401069
O O3 0.331573 0.500000 0.250000
O O4 0.642150 0.568565 0.248658
O O5 0.569317 0.520374 0.431334
O O6 0.288982 0.596479 0.344157
O O7 0.500000 0.250000 0.036957
O O8 0.159466 0.308728 0.100636
O O9 0.034082 0.864547 0.231610
O O10 0.500000 0.750000 0.067808
O O11 0.331546 0.682985 0.209686
O O12 0.250000 0.671172 0.000000
#
# Coordination Sequence:
#
# PCOD9334652 Si02
#       6
#     4   8   4   8   8   8
#     4  10  20  41  74  98 148 191 248 316 382 464
#     4   9  22  42  65 103 143 190 247 304 385 452
#     4  12  32  51  82 114 152 213 266 334 388 458
#     4  10  23  43  67 104 146 194 242 313 377 459
#     4  11  26  42  71 106 144 191 246 312 386 459
#     4  11  26  46  71 103 151 198 259 314 378 466
#
# _framework density 22.102309999999999
#
# number of rings (size 3 to 8) (size 9 to 14) (size 15 to 20)
#    0.000    1.600    0.000    1.800   15.400    2.400 
#    0.000    4.000    0.000    0.000    0.000    0.000 
#    0.000    0.000    0.000    0.000    0.000    0.000 
#
# Total GULP energy -111630.663053 kJ/mol
# GULP energy per Si atom -5581.533153 kJ/mol
# Density = 2.205200 g / cm^3
# Si number density = 22.102310 Si / 1000 Ang^3
#
#
#
# Elastic Constant Matrix: (Units=GPa)
#
#
# Indices 1 2 3 4 5 6 
#
# 1 76.9910 49.2976 47.0005 0.0000 0.0000 0.0000
# 2 49.2976 101.1967 57.4296 0.0000 0.0000 0.0001
# 3 47.0005 57.4296 138.1179 0.0000 0.0000 0.0001
# 4 0.0000 0.0000 0.0000 47.5894 0.0000 0.0001
# 5 0.0000 0.0000 0.0000 0.0000 11.4088 0.0000
# 6 0.0000 0.0001 0.0001 0.0001 0.0000 -91.3295
#
#
#
# Elastic Compliance Matrix: (Units=1/GPa)
#
#
# Indices 1 2 3 4 5 6 
#
# 1 0.020183 -0.007767 -0.003639 0.000000 0.000000 0.000000
# 2 -0.007767 0.015923 -0.003978 0.000000 0.000000 0.000000
# 3 -0.003639 -0.003978 0.010132 0.000000 0.000000 0.000000
# 4 0.000000 0.000000 0.000000 0.021013 0.000000 0.000000
# 5 0.000000 0.000000 0.000000 0.000000 0.087652 0.000000
# 6 0.000000 0.000000 0.000000 0.000000 0.000000 -0.010949
#
#
# Mechanical properties :
#
#
# Convention : Reuss Voigt Hill
#
# Bulk Modulus (GPa) = 64.63519 69.30677 66.97098
# Shear Modulus (GPa) = 27.79665 4.37226 16.08446
#
# Velocity S-wave (km/s) = 3.55016 1.40801 2.70057
# Velocity P-wave (km/s) = 6.79058 5.83684 6.33169
#
# Compressibility (1/GPa) = 0.01547145
#
# Stress axis : x y z
#
# Youngs Moduli (GPa) = 49.54632 62.80292 98.69476
#
# Poissons Ratio (x) = 0.48781 0.35911
# Poissons Ratio (y) = 0.38484 0.39257
# Poissons Ratio (z) = 0.18028 0.24980
#
# Static dielectric constant tensor:
#      x y z
#    x 1.880690 0.000000 0.000000 
#    y 0.000000 1.854180 0.000000 
#    z 0.000000 0.000000 1.814920 
# 
# From -- ./inp_files/17657.got.cif
#   From: 2010.05.17/outbox.cif.g08.bks.cpg/sg24_9_cif.got.tgz:17657.got - 2010.06.04 00:33:39.
