data_PCOD9334164
_publ_section_title
;
Structure prediction by ZEFSAII (Michael W. Deem and Ramdas Pophale) SiO2 
 PCOD9334164
Probable space group: I 21 21 21
;
_chemical_formula_sum "Si O2"
_cell_formula_units_Z 48
_cell_length_a 18.572712
_cell_length_b 7.555918
_cell_length_c 20.525797
_cell_angle_alpha 90.000000
_cell_angle_beta 90.000000
_cell_angle_gamma 90.000000
_cell_volume 2880.464916
_symmetry_space_group_name_H-M "I 21 21 21"
_symmetry_group_IT_number 24
_symmetry_cell_setting 'orthorhombic'
loop_
_space_group_symop_operation_xyz
x,y,z
-x,1/2-y,z
x,-y,1/2-z
1/2-x,y,-z
1/2+x,1/2+y,1/2+z
1/2-x,-y,1/2+z
1/2+x,1/2-y,-z
-x,1/2+y,1/2-z
loop_
_atom_site_type_symbol
_atom_site_label
_atom_site_fract_x
_atom_site_fract_y
_atom_site_fract_z
Si Si1 0.807367 0.957954 0.675534
Si Si2 0.916489 0.750000 0.871712
Si Si3 0.583649 0.750000 0.971226
Si Si4 0.303063 0.540843 0.560879
Si Si5 0.307367 0.957954 0.324466
Si Si6 0.803064 0.459156 0.060879
O O1 0.742154 0.997748 0.626105
O O2 0.824359 0.750000 0.668888
O O3 0.788177 0.000000 0.750000
O O4 0.874323 0.079634 0.655212
O O5 0.874323 0.579635 0.844788
O O6 0.000000 0.750000 0.852462
O O7 0.912325 0.750000 0.950086
O O8 0.500000 0.750000 0.952534
O O9 0.627076 0.579608 0.945954
O O10 0.627076 0.920392 0.945954
O O11 0.250000 0.501761 0.500000
O O12 0.319842 0.750000 0.558784
O O13 0.242154 0.997748 0.373895
O O14 0.288177 0.000000 0.250000
O O15 0.750000 0.498238 0.000000
#
# Coordination Sequence:
#
# PCOD9334164 Si02
#       6
#     8   8   8   8   8   8
#     4  11  22  37  57  83 109 147 194 233 275 326
#     4  11  23  37  53  81 121 154 182 222 276 339
#     4  11  22  36  60  86 114 150 183 228 285 337
#     4  10  20  36  59  83 111 144 188 241 277 319
#     4  11  22  37  57  83 109 147 194 233 275 326
#     4  10  20  36  59  83 111 144 188 241 277 319
#
# _framework density 16.663976999999999
#
# number of rings (size 3 to 8) (size 9 to 14) (size 15 to 20)
#    0.000    1.333    5.000    1.500    0.000    2.000 
#    0.000    3.333    0.000    1.000    0.000    0.000 
#    0.000    0.000    0.000    0.000    0.000    0.000 
#
# Total GULP energy -134053.673925 kJ/mol
# GULP energy per Si atom -5585.569747 kJ/mol
# Density = 1.662605 g / cm^3
# Si number density = 16.663977 Si / 1000 Ang^3
#
#
#
# Elastic Constant Matrix: (Units=GPa)
#
#
# Indices 1 2 3 4 5 6 
#
# 1 160.6279 91.5270 78.8342 0.0000 0.0000 0.0000
# 2 91.5270 105.4160 50.5617 0.0000 0.0000 0.0000
# 3 78.8342 50.5617 119.2970 0.0000 0.0000 0.0000
# 4 0.0000 0.0000 0.0000 16.9146 0.0000 0.0000
# 5 0.0000 0.0000 0.0000 0.0000 20.4823 0.0000
# 6 0.0000 0.0000 0.0000 0.0000 0.0000 -6.3302
#
#
#
# Elastic Compliance Matrix: (Units=1/GPa)
#
#
# Indices 1 2 3 4 5 6 
#
# 1 0.014637 -0.010128 -0.005380 0.000000 0.000000 0.000000
# 2 -0.010128 0.018915 -0.001324 0.000000 0.000000 0.000000
# 3 -0.005380 -0.001324 0.012499 0.000000 0.000000 0.000000
# 4 0.000000 0.000000 0.000000 0.059120 0.000000 0.000000
# 5 0.000000 0.000000 0.000000 0.000000 0.048823 0.000000
# 6 0.000000 0.000000 0.000000 0.000000 0.000000 -0.157973
#
#
# Mechanical properties :
#
#
# Convention : Reuss Voigt Hill
#
# Bulk Modulus (GPa) = 80.73016 91.90964 86.31990
# Shear Modulus (GPa) = 147.86995 17.17454 82.52225
#
# Velocity S-wave (km/s) = 9.43021 3.21384 7.04477
# Velocity P-wave (km/s) = 12.92761 8.30940 10.86667
#
# Compressibility (1/GPa) = 0.01238694
#
# Stress axis : x y z
#
# Youngs Moduli (GPa) = 68.31985 52.86849 80.00863
#
# Poissons Ratio (x) = 0.53546 0.43044
# Poissons Ratio (y) = 0.69195 0.10591
# Poissons Ratio (z) = 0.36755 0.06999
#
# Static dielectric constant tensor:
#      x y z
#    x 1.519770 0.000000 0.000000 
#    y 0.000000 1.572620 0.000000 
#    z 0.000000 0.000000 1.559030 
# 
# From -- ./inp_files/33658.got.cif
#   From: 2010.05.17/outbox.cif.g08.bks.cpg/sg24_17_cif.got.tgz:33658.got - 2010.06.04 00:33:39.
