data_PCOD9334172
_publ_section_title
;
Structure prediction by ZEFSAII (Michael W. Deem and Ramdas Pophale) SiO2 
 PCOD9334172
Probable space group: I 21 21 21
;
_chemical_formula_sum "Si O2"
_cell_formula_units_Z 60
_cell_length_a 30.389523
_cell_length_b 5.177358
_cell_length_c 17.349143
_cell_angle_alpha 90.000000
_cell_angle_beta 90.000000
_cell_angle_gamma 90.000000
_cell_volume 2729.669746
_symmetry_space_group_name_H-M "I 21 21 21"
_symmetry_group_IT_number 24
_symmetry_cell_setting 'orthorhombic'
loop_
_space_group_symop_operation_xyz
x,y,z
-x,1/2-y,z
x,-y,1/2-z
1/2-x,y,-z
1/2+x,1/2+y,1/2+z
1/2-x,-y,1/2+z
1/2+x,1/2-y,-z
-x,1/2+y,1/2-z
loop_
_atom_site_type_symbol
_atom_site_label
_atom_site_fract_x
_atom_site_fract_y
_atom_site_fract_z
Si Si1 0.153650 0.385016 0.562497
Si Si2 0.029039 0.992733 0.051794
Si Si3 0.528421 0.492531 0.369452
Si Si4 0.337671 0.570136 0.880072
Si Si5 0.805634 0.500000 0.750000
Si Si6 0.610311 0.561346 0.665605
Si Si7 0.237593 0.394659 0.662847
Si Si8 0.876940 0.360439 0.857422
O O1 0.154783 0.413115 0.471415
O O2 0.200728 0.463569 0.600024
O O3 0.119454 0.594164 0.595931
O O4 0.142340 0.096267 0.590856
O O5 0.073192 0.023745 0.100782
O O6 0.000000 0.250000 0.059028
O O7 0.000000 0.750000 0.078869
O O8 0.038351 0.950459 0.961000
O O9 0.500000 0.250000 0.341305
O O10 0.575529 0.542902 0.332564
O O11 0.500000 0.750000 0.362619
O O12 0.366730 0.339389 0.844354
O O13 0.286061 0.538900 0.863993
O O14 0.352840 0.842526 0.845710
O O15 0.774017 0.403980 0.682042
O O16 0.842029 0.312586 0.788895
O O17 0.591017 0.500000 0.750000
O O18 0.232234 0.500000 0.750000
#
# Coordination Sequence:
#
# PCOD9334172 Si02
#       8
#     8   8   8   8   4   8   8   8
#     4  11  23  41  65  95 123 170 221 269 319 377
#     4  10  21  38  64  89 123 164 212 264 316 384
#     4  10  20  36  59  92 123 163 207 260 326 381
#     4  12  26  41  66  92 132 170 213 274 323 384
#     4  10  24  42  66  94 126 178 218 258 330 388
#     4  12  26  44  62  96 129 171 216 260 337 390
#     4  11  23  42  64  93 128 168 218 263 323 385
#     4  11  22  41  66  92 132 165 216 268 315 392
#
# _framework density 21.980681000000001
#
# number of rings (size 3 to 8) (size 9 to 14) (size 15 to 20)
#    0.000    1.067    1.333    5.600    2.800    2.667 
#    0.000    3.333    0.000    0.000    0.000    0.000 
#    0.000    0.000    0.000    0.000    0.000    0.000 
#
# Total GULP energy -167664.609013 kJ/mol
# GULP energy per Si atom -5588.820300 kJ/mol
# Density = 2.193065 g / cm^3
# Si number density = 21.980681 Si / 1000 Ang^3
#
#
#
# Elastic Constant Matrix: (Units=GPa)
#
#
# Indices 1 2 3 4 5 6 
#
# 1 96.1183 5.2322 0.8354 0.0000 0.0000 0.0000
# 2 5.2322 79.4652 -1.1751 0.0000 0.0000 0.0000
# 3 0.8354 -1.1751 79.8237 0.0000 0.0000 0.0000
# 4 0.0000 0.0000 0.0000 10.4514 0.0000 0.0000
# 5 0.0000 0.0000 0.0000 0.0000 267.2809 0.0000
# 6 0.0000 0.0000 0.0000 0.0000 0.0000 29.6324
#
#
#
# Elastic Compliance Matrix: (Units=1/GPa)
#
#
# Indices 1 2 3 4 5 6 
#
# 1 0.010442 -0.000689 -0.000119 0.000000 0.000000 0.000000
# 2 -0.000689 0.012632 0.000193 0.000000 0.000000 0.000000
# 3 -0.000119 0.000193 0.012532 0.000000 0.000000 0.000000
# 4 0.000000 0.000000 0.000000 0.095681 0.000000 0.000000
# 5 0.000000 0.000000 0.000000 0.000000 0.003741 0.000000
# 6 0.000000 0.000000 0.000000 0.000000 0.000000 0.033747
#
#
# Mechanical properties :
#
#
# Convention : Reuss Voigt Hill
#
# Bulk Modulus (GPa) = 29.09064 29.46580 29.27822
# Shear Modulus (GPa) = 27.55345 78.17393 52.86369
#
# Velocity S-wave (km/s) = 3.54436 5.97010 4.90941
# Velocity P-wave (km/s) = 5.47845 7.80751 6.74428
#
# Compressibility (1/GPa) = 0.03437532
#
# Stress axis : x y z
#
# Youngs Moduli (GPa) = 95.76336 79.16170 79.79762
#
# Poissons Ratio (x) = 0.05457 0.00953
# Poissons Ratio (y) = 0.06601 -0.01541
# Poissons Ratio (z) = 0.01144 -0.01529
#
# Static dielectric constant tensor:
#      x y z
#    x 1.769070 0.000000 0.000000 
#    y 0.000000 1.919510 0.000000 
#    z 0.000000 0.000000 1.823750 
# 
# From -- ./inp_files/31678.got.cif
#   From: 2010.05.17/outbox.cif.g08.bks.cpg/sg24_16_cif.got.tgz:31678.got - 2010.06.04 00:33:39.
