data_PCOD9334352
_publ_section_title
;
Structure prediction by ZEFSAII (Michael W. Deem and Ramdas Pophale) SiO2 
 PCOD9334352
Probable space group: I 21 21 21
;
_chemical_formula_sum "Si O2"
_cell_formula_units_Z 52
_cell_length_a 18.993142
_cell_length_b 17.106206
_cell_length_c 8.676796
_cell_angle_alpha 90.000000
_cell_angle_beta 90.000000
_cell_angle_gamma 90.000000
_cell_volume 2819.096223
_symmetry_space_group_name_H-M "I 21 21 21"
_symmetry_group_IT_number 24
_symmetry_cell_setting 'orthorhombic'
loop_
_space_group_symop_operation_xyz
x,y,z
-x,1/2-y,z
x,-y,1/2-z
1/2-x,y,-z
1/2+x,1/2+y,1/2+z
1/2-x,-y,1/2+z
1/2+x,1/2-y,-z
-x,1/2+y,1/2-z
loop_
_atom_site_type_symbol
_atom_site_label
_atom_site_fract_x
_atom_site_fract_y
_atom_site_fract_z
Si Si1 0.150602 0.617850 0.379230
Si Si2 0.500000 0.250000 0.266632
Si Si3 0.022454 0.401796 0.530213
Si Si4 0.250000 0.751514 0.500000
Si Si5 0.572726 0.500000 0.250000
Si Si6 0.004821 0.842635 0.310460
Si Si7 0.672743 0.049630 0.538133
Si Si8 0.886409 0.655412 0.581164
O O1 0.201382 0.691883 0.400193
O O2 0.158855 0.581482 0.209713
O O3 0.171528 0.544095 0.483083
O O4 0.067991 0.637040 0.399660
O O5 0.486105 0.322413 0.376743
O O6 0.435645 0.220739 0.162095
O O7 0.104366 0.421493 0.549160
O O8 0.975710 0.467159 0.612273
O O9 0.999421 0.388773 0.352102
O O10 0.191135 0.808016 0.572682
O O11 0.612822 0.575056 0.320682
O O12 0.073151 0.858201 0.417032
O O13 0.000000 0.750000 0.275878
O O14 0.750000 0.078990 0.500000
#
# Coordination Sequence:
#
# PCOD9334352 Si02
#       8
#     8   4   8   4   4   8   8   8
#     4  10  21  35  56  86 122 156 199 236 292 375
#     4  10  20  38  60  94 118 156 202 256 290 364
#     4  10  22  37  65  88 125 158 203 246 305 360
#     4  12  22  38  62  86 116 162 204 258 310 360
#     4  10  24  44  58  92 116 158 208 264 306 356
#     4  11  19  39  63  91 116 160 203 245 290 376
#     4  10  21  35  52  88 128 158 184 234 303 371
#     4  11  23  39  64  87 120 158 208 257 311 360
#
# _framework density 18.445627000000002
#
# number of rings (size 3 to 8) (size 9 to 14) (size 15 to 20)
#    0.000    1.538    3.846    0.923    2.154    4.308 
#    0.000    1.538    0.000    0.000    0.000    0.000 
#    0.000    0.000    0.000    0.000    0.000    0.000 
#
# Total GULP energy -144916.969391 kJ/mol
# GULP energy per Si atom -5573.729592 kJ/mol
# Density = 1.840364 g / cm^3
# Si number density = 18.445627 Si / 1000 Ang^3
#
#
#
# Elastic Constant Matrix: (Units=GPa)
#
#
# Indices 1 2 3 4 5 6 
#
# 1 109.8712 31.6111 24.1326 0.0000 0.0000 0.0000
# 2 31.6111 65.8487 17.1036 0.0000 0.0000 0.0000
# 3 24.1326 17.1036 54.7458 0.0000 0.0000 0.0000
# 4 0.0000 0.0000 0.0000 19.1595 0.0000 0.0000
# 5 0.0000 0.0000 0.0000 0.0000 16.6323 0.0000
# 6 0.0000 0.0000 0.0000 0.0000 0.0000 17.5507
#
#
#
# Elastic Compliance Matrix: (Units=1/GPa)
#
#
# Indices 1 2 3 4 5 6 
#
# 1 0.011154 -0.004437 -0.003530 0.000000 0.000000 0.000000
# 2 -0.004437 0.018293 -0.003759 0.000000 0.000000 0.000000
# 3 -0.003530 -0.003759 0.020997 0.000000 0.000000 0.000000
# 4 0.000000 0.000000 0.000000 0.052193 0.000000 0.000000
# 5 0.000000 0.000000 0.000000 0.000000 0.060124 0.000000
# 6 0.000000 0.000000 0.000000 0.000000 0.000000 0.056978
#
#
# Mechanical properties :
#
#
# Convention : Reuss Voigt Hill
#
# Bulk Modulus (GPa) = 37.05084 41.79558 39.42321
# Shear Modulus (GPa) = 19.82644 21.17641 20.50143
#
# Velocity S-wave (km/s) = 3.28206 3.39196 3.33746
# Velocity P-wave (km/s) = 5.87305 6.16835 6.02251
#
# Compressibility (1/GPa) = 0.02698994
#
# Stress axis : x y z
#
# Youngs Moduli (GPa) = 89.65655 54.66607 47.62619
#
# Poissons Ratio (x) = 0.24258 0.16814
# Poissons Ratio (y) = 0.39784 0.17903
# Poissons Ratio (z) = 0.31652 0.20549
#
# Static dielectric constant tensor:
#      x y z
#    x 1.648100 0.000000 0.000000 
#    y 0.000000 1.671040 0.000000 
#    z 0.000000 0.000000 1.671020 
# 
# From -- ./inp_files/14439.got.cif
#   From: 2010.05.17/outbox.cif.g08.bks.cpg/sg24_8_cif.got.tgz:14439.got - 2010.06.04 00:33:39.
