data_PCOD9334472
_publ_section_title
;
Structure prediction by ZEFSAII (Michael W. Deem and Ramdas Pophale) SiO2 
 PCOD9334472
Probable space group: I 21 21 21
;
_chemical_formula_sum "Si O2"
_cell_formula_units_Z 40
_cell_length_a 7.388893
_cell_length_b 14.330666
_cell_length_c 17.671684
_cell_angle_alpha 90.000000
_cell_angle_beta 90.000000
_cell_angle_gamma 90.000000
_cell_volume 1871.214993
_symmetry_space_group_name_H-M "I 21 21 21"
_symmetry_group_IT_number 24
_symmetry_cell_setting 'orthorhombic'
loop_
_space_group_symop_operation_xyz
x,y,z
-x,1/2-y,z
x,-y,1/2-z
1/2-x,y,-z
1/2+x,1/2+y,1/2+z
1/2-x,-y,1/2+z
1/2+x,1/2-y,-z
-x,1/2+y,1/2-z
loop_
_atom_site_type_symbol
_atom_site_label
_atom_site_fract_x
_atom_site_fract_y
_atom_site_fract_z
Si Si1 0.750000 0.683123 0.500000
Si Si2 0.578298 0.447940 0.173617
Si Si3 0.806499 0.933023 0.910849
Si Si4 0.500000 0.750000 0.102135
Si Si5 0.942700 0.531375 0.403969
Si Si6 0.250000 0.876486 0.000000
Si Si7 0.000000 0.250000 0.875225
O O1 0.906132 0.616754 0.463037
O O2 0.669397 0.742936 0.432145
O O3 0.531965 0.500000 0.250000
O O4 0.482601 0.502417 0.104280
O O5 0.794523 0.448084 0.160743
O O6 0.507536 0.342992 0.173136
O O7 0.860705 0.833987 0.870089
O O8 0.642665 0.999159 0.880333
O O9 0.750000 0.918196 0.000000
O O10 0.371368 0.812194 0.051465
O O11 0.869199 0.440236 0.446271
#
# Coordination Sequence:
#
# PCOD9334472 Si02
#       7
#     4   8   8   4   8   4   4
#     4   9  20  36  67 106 126 164 235 312 351 404
#     4  11  26  45  63  93 139 183 233 288 353 433
#     4  12  22  37  68  97 134 175 230 290 349 404
#     4  12  20  31  60 102 137 168 216 278 336 413
#     4  10  20  39  61  88 134 177 215 283 351 407
#     4  11  16  34  53  96 124 162 213 262 335 396
#     4  10  22  41  70  98 129 172 230 292 360 407
#
# _framework density 21.376484999999999
#
# number of rings (size 3 to 8) (size 9 to 14) (size 15 to 20)
#    0.000    1.200    5.000    2.400    4.200    1.600 
#    0.000    0.000    0.000    0.000    0.000    0.000 
#    0.000    0.000    0.000    0.000    0.000    0.000 
#
# Total GULP energy -111391.669056 kJ/mol
# GULP energy per Si atom -5569.583453 kJ/mol
# Density = 2.132783 g / cm^3
# Si number density = 21.376485 Si / 1000 Ang^3
#
#
#
# Elastic Constant Matrix: (Units=GPa)
#
#
# Indices 1 2 3 4 5 6 
#
# 1 114.6046 37.9316 15.4100 0.0000 0.0000 0.0000
# 2 37.9316 146.8888 41.4669 0.0000 0.0000 0.0000
# 3 15.4100 41.4669 68.8321 0.0000 0.0000 0.0000
# 4 0.0000 0.0000 0.0000 11.7492 0.0000 0.0000
# 5 0.0000 0.0000 0.0000 0.0000 7.2982 0.0000
# 6 0.0000 0.0000 0.0000 0.0000 0.0000 35.9454
#
#
#
# Elastic Compliance Matrix: (Units=1/GPa)
#
#
# Indices 1 2 3 4 5 6 
#
# 1 0.009576 -0.002250 -0.000788 0.000000 0.000000 0.000000
# 2 -0.002250 0.008732 -0.004756 0.000000 0.000000 0.000000
# 3 -0.000788 -0.004756 0.017570 0.000000 0.000000 0.000000
# 4 0.000000 0.000000 0.000000 0.085112 0.000000 0.000000
# 5 0.000000 0.000000 0.000000 0.000000 0.137020 0.000000
# 6 0.000000 0.000000 0.000000 0.000000 0.000000 0.027820
#
#
# Mechanical properties :
#
#
# Convention : Reuss Voigt Hill
#
# Bulk Modulus (GPa) = 49.29030 57.77139 53.53084
# Shear Modulus (GPa) = 16.22415 26.69971 21.46193
#
# Velocity S-wave (km/s) = 2.75793 3.53799 3.17203
# Velocity P-wave (km/s) = 5.76627 6.61620 6.20580
#
# Compressibility (1/GPa) = 0.02028797
#
# Stress axis : x y z
#
# Youngs Moduli (GPa) = 104.42242 114.52423 56.91508
#
# Poissons Ratio (x) = 0.25773 0.04486
# Poissons Ratio (y) = 0.23500 0.27072
# Poissons Ratio (z) = 0.08231 0.54473
#
# Static dielectric constant tensor:
#      x y z
#    x 1.882400 0.000000 0.000000 
#    y 0.000000 1.803890 0.000000 
#    z 0.000000 0.000000 1.791030 
# 
# From -- ./inp_files/24690.got.cif
#   From: 2010.05.17/outbox.cif.g08.bks.cpg/sg24_13_cif.got.tgz:24690.got - 2010.06.04 00:33:39.
