data_PCOD9334008
_publ_section_title
;
Structure prediction by ZEFSAII (Michael W. Deem and Ramdas Pophale) SiO2 
 PCOD9334008
Probable space group: I 21 21 21
;
_chemical_formula_sum "Si O2"
_cell_formula_units_Z 48
_cell_length_a 20.156897
_cell_length_b 15.952602
_cell_length_c 7.152049
_cell_angle_alpha 90.000000
_cell_angle_beta 90.000000
_cell_angle_gamma 90.000000
_cell_volume 2299.776797
_symmetry_space_group_name_H-M "I 21 21 21"
_symmetry_group_IT_number 24
_symmetry_cell_setting 'orthorhombic'
loop_
_space_group_symop_operation_xyz
x,y,z
-x,1/2-y,z
x,-y,1/2-z
1/2-x,y,-z
1/2+x,1/2+y,1/2+z
1/2-x,-y,1/2+z
1/2+x,1/2-y,-z
-x,1/2+y,1/2-z
loop_
_atom_site_type_symbol
_atom_site_label
_atom_site_fract_x
_atom_site_fract_y
_atom_site_fract_z
Si Si1 0.633741 0.266900 0.147570
Si Si2 0.974925 0.532118 0.446725
Si Si3 0.262523 0.903864 0.279254
Si Si4 0.376536 0.159016 0.759593
Si Si5 0.461659 0.144244 0.414194
Si Si6 0.413615 0.594364 0.272128
O O1 0.686432 0.328000 0.247546
O O2 0.566194 0.305976 0.236179
O O3 0.636870 0.168695 0.190185
O O4 0.637741 0.274565 0.922795
O O5 0.005031 0.500000 0.250000
O O6 0.914573 0.588463 0.378992
O O7 0.943925 0.454270 0.561404
O O8 0.030705 0.579403 0.565779
O O9 0.250000 0.900134 0.500000
O O10 0.192026 0.880841 0.184580
O O11 0.283535 0.000000 0.250000
O O12 0.427241 0.184652 0.596178
O O13 0.540716 0.130570 0.397634
O O14 0.386599 0.500000 0.250000
#
# Coordination Sequence:
#
# PCOD9334008 Si02
#       6
#     8   8   8   8   8   8
#     4  11  23  37  56  87 122 162 197 246 294 355
#     4   9  18  34  58  83 117 156 193 235 295 356
#     4  10  23  36  60  89 123 161 191 233 298 368
#     4  10  21  37  56  90 123 156 195 233 299 367
#     4  10  20  34  58  86 120 154 191 238 296 360
#     4  10  21  40  58  84 120 158 207 251 300 348
#
# _framework density 20.871592
#
# number of rings (size 3 to 8) (size 9 to 14) (size 15 to 20)
#    0.000    2.000    1.667    2.000    7.000    0.000 
#   15.000    0.000    0.000    0.000   13.000    0.000 
#    0.000    0.000    0.000    0.000    0.000    0.000 
#
# Total GULP energy -133666.975616 kJ/mol
# GULP energy per Si atom -5569.457317 kJ/mol
# Density = 2.082409 g / cm^3
# Si number density = 20.871592 Si / 1000 Ang^3
#
#
#
# Elastic Constant Matrix: (Units=GPa)
#
#
# Indices 1 2 3 4 5 6 
#
# 1 41.5095 55.2238 10.7791 0.0000 0.0000 0.0000
# 2 55.2238 156.5072 32.7028 0.0000 0.0000 0.0000
# 3 10.7791 32.7028 65.4328 0.0000 0.0000 0.0000
# 4 0.0000 0.0000 0.0000 23.3300 0.0000 0.0000
# 5 0.0000 0.0000 0.0000 0.0000 15.4693 0.0000
# 6 0.0000 0.0000 0.0000 0.0000 0.0000 19.3670
#
#
#
# Elastic Compliance Matrix: (Units=1/GPa)
#
#
# Indices 1 2 3 4 5 6 
#
# 1 0.045426 -0.016152 0.000589 0.000000 0.000000 0.000000
# 2 -0.016152 0.012878 -0.003775 0.000000 0.000000 0.000000
# 3 0.000589 -0.003775 0.017073 0.000000 0.000000 0.000000
# 4 0.000000 0.000000 0.000000 0.042863 0.000000 0.000000
# 5 0.000000 0.000000 0.000000 0.000000 0.064644 0.000000
# 6 0.000000 0.000000 0.000000 0.000000 0.000000 0.051634
#
#
# Mechanical properties :
#
#
# Convention : Reuss Voigt Hill
#
# Bulk Modulus (GPa) = 27.24759 51.20678 39.22719
# Shear Modulus (GPa) = 17.51762 22.61618 20.06690
#
# Velocity S-wave (km/s) = 2.90022 3.29536 3.10408
# Velocity P-wave (km/s) = 4.92932 6.25033 5.62872
#
# Compressibility (1/GPa) = 0.03670049
#
# Stress axis : x y z
#
# Youngs Moduli (GPa) = 22.01385 77.65466 58.57318
#
# Poissons Ratio (x) = 1.25426 -0.03451
# Poissons Ratio (y) = 0.35556 0.22113
# Poissons Ratio (z) = -0.01297 0.29317
#
# Static dielectric constant tensor:
#      x y z
#    x 1.820940 0.000000 0.000000 
#    y 0.000000 1.825190 0.000000 
#    z 0.000000 0.000000 1.857470 
# 
# From -- ./inp_files/15093.got.cif
#   From: 2010.05.17/outbox.cif.g08.bks.cpg/sg24_8_cif.got.tgz:15093.got - 2010.06.04 00:33:39.
