data_PCOD9334713
_publ_section_title
;
Structure prediction by ZEFSAII (Michael W. Deem and Ramdas Pophale) SiO2 
 PCOD9334713
Probable space group: I 21 21 21
;
_chemical_formula_sum "Si O2"
_cell_formula_units_Z 40
_cell_length_a 10.823150
_cell_length_b 8.572646
_cell_length_c 18.748780
_cell_angle_alpha 90.000000
_cell_angle_beta 90.000000
_cell_angle_gamma 90.000000
_cell_volume 1739.568684
_symmetry_space_group_name_H-M "I 21 21 21"
_symmetry_group_IT_number 24
_symmetry_cell_setting 'orthorhombic'
loop_
_space_group_symop_operation_xyz
x,y,z
-x,1/2-y,z
x,-y,1/2-z
1/2-x,y,-z
1/2+x,1/2+y,1/2+z
1/2-x,-y,1/2+z
1/2+x,1/2-y,-z
-x,1/2+y,1/2-z
loop_
_atom_site_type_symbol
_atom_site_label
_atom_site_fract_x
_atom_site_fract_y
_atom_site_fract_z
Si Si1 0.750000 0.814385 0.000000
Si Si2 0.000000 0.250000 0.700974
Si Si3 0.853573 0.940064 0.391681
Si Si4 0.577651 0.585538 0.825752
Si Si5 0.807793 0.000000 0.750000
Si Si6 0.750000 0.307808 0.000000
Si Si7 0.340867 0.072591 0.404447
O O1 0.649335 0.705129 0.035958
O O2 0.809522 0.917560 0.060070
O O3 0.108752 0.343828 0.740399
O O4 0.056564 0.110068 0.653284
O O5 0.777262 0.958666 0.318071
O O6 0.823122 0.795024 0.442241
O O7 0.994388 0.967892 0.371729
O O8 0.500000 0.750000 0.819025
O O9 0.595365 0.500000 0.750000
O O10 0.709284 0.599027 0.864700
O O11 0.663334 0.414770 0.050370
#
# Coordination Sequence:
#
# PCOD9334713 Si02
#       7
#     4   4   8   8   4   4   8
#     4  10  20  48  70 104 138 196 250 302 378 440
#     4  12  28  48  76 106 158 206 256 314 364 474
#     4  11  24  50  76 109 151 193 254 314 384 438
#     4  12  26  45  80 111 152 196 253 321 377 451
#     4  12  26  48  76 108 152 208 252 310 388 442
#     4  10  28  48  76 116 154 196 256 312 378 458
#     4  11  26  48  72 110 146 205 256 304 382 446
#
# _framework density 22.994205000000001
#
# number of rings (size 3 to 8) (size 9 to 14) (size 15 to 20)
#    0.000    0.800    5.000    0.000    7.000    3.200 
#    3.600    0.000    0.000    0.000    0.000    0.000 
#    0.000    0.000    0.000    0.000    0.000    0.000 
#
# Total GULP energy -111866.506399 kJ/mol
# GULP energy per Si atom -5593.325320 kJ/mol
# Density = 2.294187 g / cm^3
# Si number density = 22.994205 Si / 1000 Ang^3
#
#
#
# Elastic Constant Matrix: (Units=GPa)
#
#
# Indices 1 2 3 4 5 6 
#
# 1 96.1532 28.4892 56.3784 0.0000 0.0000 0.0000
# 2 28.4892 125.6526 60.6485 0.0000 0.0000 0.0000
# 3 56.3784 60.6485 152.0679 0.0000 0.0000 0.0000
# 4 0.0000 0.0000 0.0000 40.5100 0.0000 0.0000
# 5 0.0000 0.0000 0.0000 0.0000 -4.8001 0.0000
# 6 0.0000 0.0000 0.0000 0.0000 0.0000 48.0375
#
#
#
# Elastic Compliance Matrix: (Units=1/GPa)
#
#
# Indices 1 2 3 4 5 6 
#
# 1 0.013352 -0.000790 -0.004635 0.000000 0.000000 0.000000
# 2 -0.000790 0.009902 -0.003656 0.000000 0.000000 0.000000
# 3 -0.004635 -0.003656 0.009753 0.000000 0.000000 0.000000
# 4 0.000000 0.000000 0.000000 0.024685 0.000000 0.000000
# 5 0.000000 0.000000 0.000000 0.000000 -0.208327 0.000000
# 6 0.000000 0.000000 0.000000 0.000000 0.000000 0.020817
#
#
# Mechanical properties :
#
#
# Convention : Reuss Voigt Hill
#
# Bulk Modulus (GPa) = 67.36768 73.87845 70.62307
# Shear Modulus (GPa) = -46.85731 31.97332 -7.44199
#
# Velocity S-wave (km/s) = -4.51908 3.73298 -1.80097
# Velocity P-wave (km/s) = 1.46006 7.12594 5.14349
#
# Compressibility (1/GPa) = 0.01484391
#
# Stress axis : x y z
#
# Youngs Moduli (GPa) = 74.89596 100.98541 102.53584
#
# Poissons Ratio (x) = 0.07979 0.47526
# Poissons Ratio (y) = 0.05917 0.37491
# Poissons Ratio (z) = 0.34714 0.36924
#
# Static dielectric constant tensor:
#      x y z
#    x 2.028990 0.000000 0.000000 
#    y 0.000000 1.921780 0.000000 
#    z 0.000000 0.000000 1.800180 
# 
# From -- ./inp_files/30098.got.cif
#   From: 2010.05.17/outbox.cif.g08.bks.cpg/sg24_16_cif.got.tgz:30098.got - 2010.06.04 00:33:39.
