data_PCOD9334089
_publ_section_title
;
Structure prediction by ZEFSAII (Michael W. Deem and Ramdas Pophale) SiO2 
 PCOD9334089
Probable space group: I 21 21 21
;
_chemical_formula_sum "Si O2"
_cell_formula_units_Z 56
_cell_length_a 14.828758
_cell_length_b 9.605280
_cell_length_c 18.810021
_cell_angle_alpha 90.000000
_cell_angle_beta 90.000000
_cell_angle_gamma 90.000000
_cell_volume 2679.193541
_symmetry_space_group_name_H-M "I 21 21 21"
_symmetry_group_IT_number 24
_symmetry_cell_setting 'orthorhombic'
loop_
_space_group_symop_operation_xyz
x,y,z
-x,1/2-y,z
x,-y,1/2-z
1/2-x,y,-z
1/2+x,1/2+y,1/2+z
1/2-x,-y,1/2+z
1/2+x,1/2-y,-z
-x,1/2+y,1/2-z
loop_
_atom_site_type_symbol
_atom_site_label
_atom_site_fract_x
_atom_site_fract_y
_atom_site_fract_z
Si Si1 0.786260 0.815869 0.645156
Si Si2 0.185520 0.466268 0.430905
Si Si3 0.402380 0.193847 0.565319
Si Si4 0.947202 0.889130 0.535319
Si Si5 0.221451 0.052722 0.081536
Si Si6 0.087901 0.171332 0.745786
Si Si7 0.904018 0.604488 0.906873
O O1 0.730381 0.956799 0.635853
O O2 0.868489 0.838563 0.589004
O O3 0.716440 0.701184 0.616495
O O4 0.829658 0.748032 0.715090
O O5 0.250000 0.470572 0.500000
O O6 0.168034 0.308433 0.409998
O O7 0.095691 0.535184 0.466214
O O8 0.500000 0.250000 0.586505
O O9 0.396624 0.190980 0.479303
O O10 0.366290 0.042933 0.587554
O O11 0.000000 0.750000 0.513921
O O12 0.015741 0.994263 0.576289
O O13 0.311213 0.976706 0.109291
O O14 0.250000 0.073689 0.000000
O O15 0.086644 0.198686 0.661839
O O16 0.000000 0.250000 0.776702
O O17 0.083982 0.000000 0.750000
#
# Coordination Sequence:
#
# PCOD9334089 Si02
#       7
#     8   8   8   8   8   8   8
#     4  11  22  38  55  88 129 182 218 267 320 402
#     4  10  22  35  57  82 125 167 217 273 330 380
#     4  11  22  39  59  92 123 163 210 280 348 403
#     4  11  19  34  60  90 124 170 217 270 330 394
#     4  10  20  35  59  86 122 162 215 266 335 402
#     4  12  24  41  60  93 136 188 229 258 322 430
#     4  11  21  37  64  89 131 170 213 263 339 408
#
# _framework density 20.901813000000001
#
# number of rings (size 3 to 8) (size 9 to 14) (size 15 to 20)
#    0.000    1.143    4.286    4.286    2.000    0.000 
#    2.571    0.000    0.000    0.000    0.000    5.000 
#    0.000    0.000    0.000    1.286    0.000    0.000 
#
# Total GULP energy -156226.581713 kJ/mol
# GULP energy per Si atom -5579.520775 kJ/mol
# Density = 2.085424 g / cm^3
# Si number density = 20.901813 Si / 1000 Ang^3
#
#
#
# Elastic Constant Matrix: (Units=GPa)
#
#
# Indices 1 2 3 4 5 6 
#
# 1 65.3870 31.9730 13.3859 0.0000 0.0000 0.0000
# 2 31.9730 99.7535 29.9663 0.0000 0.0000 0.0000
# 3 13.3859 29.9663 34.6024 0.0000 0.0000 0.0000
# 4 0.0000 0.0000 0.0000 9.6921 0.0000 0.0000
# 5 0.0000 0.0000 0.0000 0.0000 12.7657 0.0000
# 6 0.0000 0.0000 0.0000 0.0000 0.0000 48.3177
#
#
#
# Elastic Compliance Matrix: (Units=1/GPa)
#
#
# Indices 1 2 3 4 5 6 
#
# 1 0.018322 -0.005060 -0.002706 0.000000 0.000000 0.000000
# 2 -0.005060 0.014947 -0.010987 0.000000 0.000000 0.000000
# 3 -0.002706 -0.010987 0.039462 0.000000 0.000000 0.000000
# 4 0.000000 0.000000 0.000000 0.103176 0.000000 0.000000
# 5 0.000000 0.000000 0.000000 0.000000 0.078335 0.000000
# 6 0.000000 0.000000 0.000000 0.000000 0.000000 0.020696
#
#
# Mechanical properties :
#
#
# Convention : Reuss Voigt Hill
#
# Bulk Modulus (GPa) = 28.38907 38.93257 33.66082
# Shear Modulus (GPa) = 15.42331 22.44962 18.93646
#
# Velocity S-wave (km/s) = 2.71937 3.28083 3.01320
# Velocity P-wave (km/s) = 4.84474 5.74618 5.31461
#
# Compressibility (1/GPa) = 0.03522482
#
# Stress axis : x y z
#
# Youngs Moduli (GPa) = 54.58063 66.90333 25.34115
#
# Poissons Ratio (x) = 0.33850 0.06857
# Poissons Ratio (y) = 0.27615 0.27842
# Poissons Ratio (z) = 0.14770 0.73507
#
# Static dielectric constant tensor:
#      x y z
#    x 1.895700 0.000000 0.000000 
#    y 0.000000 1.976670 0.000000 
#    z 0.000000 0.000000 1.765120 
# 
# From -- ./inp_files/33761.got.cif
#   From: 2010.05.17/outbox.cif.g08.bks.cpg/sg24_17_cif.got.tgz:33761.got - 2010.06.04 00:33:39.
