data_PCOD9334606
_publ_section_title
;
Structure prediction by ZEFSAII (Michael W. Deem and Ramdas Pophale) SiO2 
 PCOD9334606
Probable space group: I 21 21 21
;
_chemical_formula_sum "Si O2"
_cell_formula_units_Z 56
_cell_length_a 13.984842
_cell_length_b 16.878330
_cell_length_c 11.647575
_cell_angle_alpha 90.000000
_cell_angle_beta 90.000000
_cell_angle_gamma 90.000000
_cell_volume 2749.302668
_symmetry_space_group_name_H-M "I 21 21 21"
_symmetry_group_IT_number 24
_symmetry_cell_setting 'orthorhombic'
loop_
_space_group_symop_operation_xyz
x,y,z
-x,1/2-y,z
x,-y,1/2-z
1/2-x,y,-z
1/2+x,1/2+y,1/2+z
1/2-x,-y,1/2+z
1/2+x,1/2-y,-z
-x,1/2+y,1/2-z
loop_
_atom_site_type_symbol
_atom_site_label
_atom_site_fract_x
_atom_site_fract_y
_atom_site_fract_z
Si Si1 0.551684 0.106621 0.918937
Si Si2 0.897198 0.594272 0.247450
Si Si3 0.781650 0.153331 0.239282
Si Si4 0.726140 0.310836 0.366587
Si Si5 0.489910 0.839515 0.114826
Si Si6 0.924071 0.077321 0.406118
Si Si7 0.585870 0.916430 0.314403
O O1 0.445574 0.121893 0.867444
O O2 0.633091 0.159714 0.856025
O O3 0.577537 0.016122 0.883850
O O4 0.554211 0.099378 0.055436
O O5 0.881461 0.500000 0.250000
O O6 0.804862 0.634361 0.194244
O O7 0.984297 0.610986 0.160899
O O8 0.731978 0.232827 0.286809
O O9 0.831232 0.115635 0.351404
O O10 0.699611 0.096869 0.190363
O O11 0.750000 0.291887 0.500000
O O12 0.623104 0.353039 0.374063
O O13 0.500000 0.750000 0.069517
O O14 0.535095 0.849466 0.238903
O O15 0.551827 0.897978 0.035085
O O16 0.562764 0.000000 0.250000
#
# Coordination Sequence:
#
# PCOD9334606 Si02
#       7
#     8   8   8   8   8   8   8
#     4  10  22  44  65  94 136 183 225 279 346 429
#     4   9  21  42  66  96 125 168 233 281 342 414
#     4  11  24  39  65 103 134 170 225 279 366 425
#     4  12  24  42  68  99 132 175 227 292 358 424
#     4  12  24  42  62  96 134 167 225 290 351 406
#     4  10  20  40  69  94 131 170 219 289 341 420
#     4  12  24  41  65  95 133 182 230 280 344 427
#
# _framework density 20.3688
#
# number of rings (size 3 to 8) (size 9 to 14) (size 15 to 20)
#    0.000    1.143    4.286    3.429    0.000    2.286 
#    2.571    0.714    0.000    0.000    0.000    0.000 
#    0.000    0.000    0.000    0.000    0.000    0.000 
#
# Total GULP energy -156174.583519 kJ/mol
# GULP energy per Si atom -5577.663697 kJ/mol
# Density = 2.032244 g / cm^3
# Si number density = 20.368800 Si / 1000 Ang^3
#
#
#
# Elastic Constant Matrix: (Units=GPa)
#
#
# Indices 1 2 3 4 5 6 
#
# 1 71.2524 -5.1704 33.1344 0.0000 0.0000 0.0000
# 2 -5.1704 33.7364 14.5632 0.0000 0.0000 0.0000
# 3 33.1344 14.5632 148.5572 0.0000 0.0000 0.0000
# 4 0.0000 0.0000 0.0000 26.8861 0.0000 0.0000
# 5 0.0000 0.0000 0.0000 0.0000 30.7563 0.0000
# 6 0.0000 0.0000 0.0000 0.0000 0.0000 22.8121
#
#
#
# Elastic Compliance Matrix: (Units=1/GPa)
#
#
# Indices 1 2 3 4 5 6 
#
# 1 0.016216 0.004225 -0.004031 0.000000 0.000000 0.000000
# 2 0.004225 0.032052 -0.004085 0.000000 0.000000 0.000000
# 3 -0.004031 -0.004085 0.008031 0.000000 0.000000 0.000000
# 4 0.000000 0.000000 0.000000 0.037194 0.000000 0.000000
# 5 0.000000 0.000000 0.000000 0.000000 0.032514 0.000000
# 6 0.000000 0.000000 0.000000 0.000000 0.000000 0.043836
#
#
# Mechanical properties :
#
#
# Convention : Reuss Voigt Hill
#
# Bulk Modulus (GPa) = 20.61069 37.62225 29.11647
# Shear Modulus (GPa) = 25.80030 30.15883 27.97956
#
# Velocity S-wave (km/s) = 3.56287 3.85208 3.71030
# Velocity P-wave (km/s) = 5.20251 6.18832 5.71671
#
# Compressibility (1/GPa) = 0.04851852
#
# Stress axis : x y z
#
# Youngs Moduli (GPa) = 61.66847 31.19900 124.51912
#
# Poissons Ratio (x) = -0.13183 0.50193
# Poissons Ratio (y) = -0.26057 0.50860
# Poissons Ratio (z) = 0.24858 0.12743
#
# Static dielectric constant tensor:
#      x y z
#    x 1.736440 0.000000 0.000000 
#    y 0.000000 1.771830 0.000000 
#    z 0.000000 0.000000 1.792320 
# 
# From -- ./inp_files/20836.got.cif
#   From: 2010.05.17/outbox.cif.g08.bks.cpg/sg24_11_cif.got.tgz:20836.got - 2010.06.04 00:33:39.
