data_PCOD9334390
_publ_section_title
;
Structure prediction by ZEFSAII (Michael W. Deem and Ramdas Pophale) SiO2 
 PCOD9334390
Probable space group: I 21 21 21
;
_chemical_formula_sum "Si O2"
_cell_formula_units_Z 52
_cell_length_a 18.775098
_cell_length_b 7.400973
_cell_length_c 19.209315
_cell_angle_alpha 90.000000
_cell_angle_beta 90.000000
_cell_angle_gamma 90.000000
_cell_volume 2669.211029
_symmetry_space_group_name_H-M "I 21 21 21"
_symmetry_group_IT_number 24
_symmetry_cell_setting 'orthorhombic'
loop_
_space_group_symop_operation_xyz
x,y,z
-x,1/2-y,z
x,-y,1/2-z
1/2-x,y,-z
1/2+x,1/2+y,1/2+z
1/2-x,-y,1/2+z
1/2+x,1/2-y,-z
-x,1/2+y,1/2-z
loop_
_atom_site_type_symbol
_atom_site_label
_atom_site_fract_x
_atom_site_fract_y
_atom_site_fract_z
Si Si1 0.835898 0.285137 0.734208
Si Si2 0.304242 0.581750 0.599546
Si Si3 0.500000 0.250000 0.512412
Si Si4 0.750000 0.774675 0.000000
Si Si5 0.139475 0.696938 0.616581
Si Si6 0.623731 0.614313 0.085991
Si Si7 0.935263 0.888931 0.483147
Si Si8 0.212820 0.500000 0.250000
O O1 0.823586 0.500000 0.750000
O O2 0.873652 0.190075 0.800500
O O3 0.875114 0.283803 0.660324
O O4 0.763257 0.170245 0.729290
O O5 0.293074 0.403135 0.553002
O O6 0.224099 0.663365 0.604198
O O7 0.366669 0.684968 0.558915
O O8 0.326837 0.548299 0.679030
O O9 0.559540 0.334667 0.463103
O O10 0.462780 0.421465 0.548885
O O11 0.696265 0.661068 0.046171
O O12 0.093875 0.580069 0.562237
O O13 0.121709 0.901984 0.598490
O O14 0.000000 0.750000 0.483873
#
# Coordination Sequence:
#
# PCOD9334390 Si02
#       8
#     8   8   4   4   8   8   8   4
#     4   9  20  36  55  88 125 152 195 239 292 356
#     4  11  21  39  63  89 116 154 204 246 303 353
#     4  12  24  38  56  86 128 166 192 240 300 362
#     4  12  20  32  62  88 116 146 210 244 292 346
#     4  10  21  39  61  88 120 154 201 250 293 347
#     4  11  22  37  56  89 123 162 196 244 294 354
#     4  12  24  41  59  87 122 158 203 249 295 358
#     4  10  20  38  64  88 116 156 184 260 302 346
#
# _framework density 19.481411999999999
#
# number of rings (size 3 to 8) (size 9 to 14) (size 15 to 20)
#    0.000    1.231    6.154    0.000    4.308    0.000 
#    1.385    0.000    1.692    0.000    0.000    0.000 
#    0.000    0.000    0.000    0.000    0.000    0.000 
#
# Total GULP energy -145044.707609 kJ/mol
# GULP energy per Si atom -5578.642600 kJ/mol
# Density = 1.943707 g / cm^3
# Si number density = 19.481412 Si / 1000 Ang^3
#
#
#
# Elastic Constant Matrix: (Units=GPa)
#
#
# Indices 1 2 3 4 5 6 
#
# 1 54.2481 -3.3860 -5.4575 0.0000 0.0000 0.0000
# 2 -3.3860 42.2238 -4.6286 0.0000 0.0000 0.0000
# 3 -5.4575 -4.6286 60.7712 0.0000 0.0000 0.0000
# 4 0.0000 0.0000 0.0000 22.8844 0.0000 0.0000
# 5 0.0000 0.0000 0.0000 0.0000 8.5914 0.0000
# 6 0.0000 0.0000 0.0000 0.0000 0.0000 24.9705
#
#
#
# Elastic Compliance Matrix: (Units=1/GPa)
#
#
# Indices 1 2 3 4 5 6 
#
# 1 0.018722 0.001700 0.001811 0.000000 0.000000 0.000000
# 2 0.001700 0.024037 0.001983 0.000000 0.000000 0.000000
# 3 0.001811 0.001983 0.016769 0.000000 0.000000 0.000000
# 4 0.000000 0.000000 0.000000 0.043698 0.000000 0.000000
# 5 0.000000 0.000000 0.000000 0.000000 0.116395 0.000000
# 6 0.000000 0.000000 0.000000 0.000000 0.000000 0.040047
#
#
# Mechanical properties :
#
#
# Convention : Reuss Voigt Hill
#
# Bulk Modulus (GPa) = 14.18116 14.47766 14.32941
# Shear Modulus (GPa) = 18.36982 22.67028 20.52005
#
# Velocity S-wave (km/s) = 3.07407 3.41499 3.24900
# Velocity P-wave (km/s) = 4.46038 4.79554 4.63099
#
# Compressibility (1/GPa) = 0.07051611
#
# Stress axis : x y z
#
# Youngs Moduli (GPa) = 53.41285 41.60243 59.63443
#
# Poissons Ratio (x) = -0.07072 -0.10799
# Poissons Ratio (y) = -0.09079 -0.11828
# Poissons Ratio (z) = -0.09672 -0.08251
#
# Static dielectric constant tensor:
#      x y z
#    x 1.717100 0.000000 0.000000 
#    y 0.000000 1.726040 0.000000 
#    z 0.000000 0.000000 1.711160 
# 
# From -- ./inp_files/29672.got.cif
#   From: 2010.05.17/outbox.cif.g08.bks.cpg/sg24_15_cif.got.tgz:29672.got - 2010.06.04 00:33:39.
