data_PCOD9334623
_publ_section_title
;
Structure prediction by ZEFSAII (Michael W. Deem and Ramdas Pophale) SiO2 
 PCOD9334623
Probable space group: I 21 21 21
;
_chemical_formula_sum "Si O2"
_cell_formula_units_Z 60
_cell_length_a 8.258484
_cell_length_b 25.397320
_cell_length_c 12.455248
_cell_angle_alpha 90.000000
_cell_angle_beta 90.000000
_cell_angle_gamma 90.000000
_cell_volume 2612.405576
_symmetry_space_group_name_H-M "I 21 21 21"
_symmetry_group_IT_number 24
_symmetry_cell_setting 'orthorhombic'
loop_
_space_group_symop_operation_xyz
x,y,z
-x,1/2-y,z
x,-y,1/2-z
1/2-x,y,-z
1/2+x,1/2+y,1/2+z
1/2-x,-y,1/2+z
1/2+x,1/2-y,-z
-x,1/2+y,1/2-z
loop_
_atom_site_type_symbol
_atom_site_label
_atom_site_fract_x
_atom_site_fract_y
_atom_site_fract_z
Si Si1 0.789611 0.180892 0.239400
Si Si2 0.419643 0.426379 0.710367
Si Si3 0.250000 0.668646 0.500000
Si Si4 0.086692 0.531740 0.861338
Si Si5 0.937992 0.626218 0.776362
Si Si6 0.684448 0.727245 0.119096
Si Si7 0.000282 0.984130 0.416133
Si Si8 0.903844 0.387133 0.967141
O O1 0.921951 0.135703 0.267606
O O2 0.616906 0.151926 0.260970
O O3 0.791964 0.230687 0.316382
O O4 0.781949 0.196834 0.114011
O O5 0.261054 0.440140 0.641201
O O6 0.393475 0.454572 0.825603
O O7 0.551480 0.461861 0.645811
O O8 0.415397 0.635284 0.485216
O O9 0.067828 0.500000 0.750000
O O10 0.956491 0.578489 0.858712
O O11 0.070318 0.498208 0.967968
O O12 0.824791 0.672306 0.818258
O O13 0.893636 0.604181 0.659911
O O14 0.500000 0.750000 0.114954
O O15 0.750000 0.720402 0.000000
O O16 0.113548 0.936078 0.450623
O O17 0.750000 0.351096 0.000000
#
# Coordination Sequence:
#
# PCOD9334623 Si02
#       8
#     8   8   4   8   8   8   8   8
#     4   9  19  37  67  99 127 174 230 289 355 419
#     4  10  21  30  56 101 134 166 230 290 334 423
#     4  10  20  40  72  96 136 180 228 292 364 418
#     4  11  19  31  59  90 124 181 230 269 345 422
#     4   9  21  40  63  93 128 182 229 280 350 420
#     4  10  22  45  70  94 135 178 233 299 360 421
#     4  11  21  34  56  93 139 179 220 283 349 416
#     4  11  23  40  65  97 142 183 229 289 348 415
#
# _framework density 22.967336
#
# number of rings (size 3 to 8) (size 9 to 14) (size 15 to 20)
#    0.000    1.867    4.000    0.400    1.867    3.200 
#    3.600    6.000    0.000    0.000    0.000    0.000 
#    0.000    0.000    0.000    0.000    0.000    0.000 
#
# Total GULP energy -167203.649005 kJ/mol
# GULP energy per Si atom -5573.454967 kJ/mol
# Density = 2.291506 g / cm^3
# Si number density = 22.967336 Si / 1000 Ang^3
#
#
#
# Elastic Constant Matrix: (Units=GPa)
#
#
# Indices 1 2 3 4 5 6 
#
# 1 67.4925 18.1794 21.1484 -0.0001 0.0000 0.0000
# 2 18.1794 89.3985 46.3641 -0.0001 0.0000 0.0000
# 3 21.1484 46.3641 151.9624 -0.0007 0.0001 0.0002
# 4 -0.0001 -0.0001 -0.0007 10.5521 0.0001 0.0001
# 5 0.0000 0.0000 0.0001 0.0001 27.0160 0.0000
# 6 0.0000 0.0000 0.0002 0.0001 0.0000 -5.0633
#
#
#
# Elastic Compliance Matrix: (Units=1/GPa)
#
#
# Indices 1 2 3 4 5 6 
#
# 1 0.015943 -0.002485 -0.001461 0.000000 0.000000 0.000000
# 2 -0.002485 0.013676 -0.003827 0.000000 0.000000 0.000000
# 3 -0.001461 -0.003827 0.007951 0.000001 0.000000 0.000000
# 4 0.000000 0.000000 0.000001 0.094767 0.000000 0.000002
# 5 0.000000 0.000000 0.000000 0.000000 0.037015 0.000000
# 6 0.000000 0.000000 0.000000 0.000002 0.000000 -0.197498
#
#
# Mechanical properties :
#
#
# Convention : Reuss Voigt Hill
#
# Bulk Modulus (GPa) = 45.39994 53.35968 49.37981
# Shear Modulus (GPa) = -950.84438 21.37840 -464.73299
#
# Velocity S-wave (km/s) = -20.36903 3.05424 -14.24024
# Velocity P-wave (km/s) = 23.09516 5.97672 15.77443
#
# Compressibility (1/GPa) = 0.02202646
#
# Stress axis : x y z
#
# Youngs Moduli (GPa) = 62.72190 73.12223 125.76378
#
# Poissons Ratio (x) = 0.18167 0.18371
# Poissons Ratio (y) = 0.15583 0.48126
# Poissons Ratio (z) = 0.09162 0.27982
#
# Static dielectric constant tensor:
#      x y z
#    x 2.009610 0.000000 0.000000 
#    y 0.000000 1.894680 0.000000 
#    z 0.000000 0.000000 1.817720 
# 
# From -- ./inp_files/18811.got.cif
#   From: 2010.05.17/outbox.cif.g08.bks.cpg/sg24_10_cif.got.tgz:18811.got - 2010.06.04 00:33:39.
