data_PCOD9334497
_publ_section_title
;
Structure prediction by ZEFSAII (Michael W. Deem and Ramdas Pophale) SiO2 
 PCOD9334497
Probable space group: I 21 21 21
;
_chemical_formula_sum "Si O2"
_cell_formula_units_Z 28
_cell_length_a 18.193838
_cell_length_b 16.483197
_cell_length_c 5.183298
_cell_angle_alpha 90.000000
_cell_angle_beta 90.000000
_cell_angle_gamma 90.000000
_cell_volume 1554.432796
_symmetry_space_group_name_H-M "I 21 21 21"
_symmetry_group_IT_number 24
_symmetry_cell_setting 'orthorhombic'
loop_
_space_group_symop_operation_xyz
x,y,z
-x,1/2-y,z
x,-y,1/2-z
1/2-x,y,-z
1/2+x,1/2+y,1/2+z
1/2-x,-y,1/2+z
1/2+x,1/2-y,-z
-x,1/2+y,1/2-z
loop_
_atom_site_type_symbol
_atom_site_label
_atom_site_fract_x
_atom_site_fract_y
_atom_site_fract_z
Si Si1 0.858174 0.801033 0.895810
Si Si2 0.500000 0.750000 0.342639
Si Si3 0.250000 0.945969 0.500000
Si Si4 0.750000 0.055124 0.500000
Si Si5 0.356878 0.199239 0.911969
O O1 0.826150 0.757138 0.641089
O O2 0.945121 0.804001 0.830367
O O3 0.818767 0.885266 0.948561
O O4 0.847344 0.742054 0.138355
O O5 0.443651 0.801887 0.515667
O O6 0.317483 0.886455 0.569106
O O7 0.266727 0.000000 0.250000
O O8 0.762407 0.000000 0.250000
#
# Coordination Sequence:
#
# PCOD9334497 Si02
#       5
#     8   4   4   4   8
#     4  10  20  39  65  88 113 157 208 241 285 348
#     4   8  22  36  72  84 110 154 216 248 270 348
#     4  12  24  38  60  94 126 154 190 248 308 352
#     4  12  24  38  60  94 126 154 190 248 308 352
#     4  10  20  39  65  88 113 157 208 241 285 348
#
# _framework density 18.013000000000002
#
# number of rings (size 3 to 8) (size 9 to 14) (size 15 to 20)
#    1.714    0.000    0.000    6.000    0.000    0.000 
#    0.000    1.429    0.000    0.000    0.000    0.000 
#    0.000    0.000    0.000    0.000    0.000    0.000 
#
# Total GULP energy -78004.263554 kJ/mol
# GULP energy per Si atom -5571.733111 kJ/mol
# Density = 1.797200 g / cm^3
# Si number density = 18.013000 Si / 1000 Ang^3
#
#
#
# Elastic Constant Matrix: (Units=GPa)
#
#
# Indices 1 2 3 4 5 6 
#
# 1 101.4762 31.6219 7.1905 0.0000 0.0000 0.0000
# 2 31.6219 85.6555 25.7166 0.0000 0.0000 0.0000
# 3 7.1905 25.7166 112.3206 0.0000 0.0000 0.0000
# 4 0.0000 0.0000 0.0000 53.8607 0.0000 0.0000
# 5 0.0000 0.0000 0.0000 0.0000 19.2912 0.0000
# 6 0.0000 0.0000 0.0000 0.0000 0.0000 -3.3085
#
#
#
# Elastic Compliance Matrix: (Units=1/GPa)
#
#
# Indices 1 2 3 4 5 6 
#
# 1 0.011142 -0.004187 0.000245 0.000000 0.000000 0.000000
# 2 -0.004187 0.014110 -0.002963 0.000000 0.000000 0.000000
# 3 0.000245 -0.002963 0.009566 0.000000 0.000000 0.000000
# 4 0.000000 0.000000 0.000000 0.018566 0.000000 0.000000
# 5 0.000000 0.000000 0.000000 0.000000 0.051837 0.000000
# 6 0.000000 0.000000 0.000000 0.000000 0.000000 -0.302249
#
#
# Mechanical properties :
#
#
# Convention : Reuss Voigt Hill
#
# Bulk Modulus (GPa) = 47.59831 47.61225 47.60528
# Shear Modulus (GPa) = -28.37406 29.63024 0.62809
#
# Velocity S-wave (km/s) = -3.97318 4.06018 0.59114
# Velocity P-wave (km/s) = 2.33100 6.96201 5.19149
#
# Compressibility (1/GPa) = 0.02100915
#
# Stress axis : x y z
#
# Youngs Moduli (GPa) = 89.75147 70.87255 104.54056
#
# Poissons Ratio (x) = 0.29674 -0.02565
# Poissons Ratio (y) = 0.37579 0.30970
# Poissons Ratio (z) = -0.02202 0.20996
#
# Static dielectric constant tensor:
#      x y z
#    x 1.662970 0.000000 0.000000 
#    y 0.000000 1.567390 0.000000 
#    z 0.000000 0.000000 1.634010 
# 
# From -- ./inp_files/5329.got.cif
#   From: 2010.05.17/outbox.cif.g08.bks.cpg/sg24_3_cif.got.tgz:5329.got - 2010.06.04 00:33:39.
