data_PCOD9334294
_publ_section_title
;
Structure prediction by ZEFSAII (Michael W. Deem and Ramdas Pophale) SiO2 
 PCOD9334294
Probable space group: I 21 21 21
;
_chemical_formula_sum "Si O2"
_cell_formula_units_Z 40
_cell_length_a 20.715186
_cell_length_b 5.656582
_cell_length_c 15.036439
_cell_angle_alpha 90.000000
_cell_angle_beta 90.000000
_cell_angle_gamma 90.000000
_cell_volume 1761.927042
_symmetry_space_group_name_H-M "I 21 21 21"
_symmetry_group_IT_number 24
_symmetry_cell_setting 'orthorhombic'
loop_
_space_group_symop_operation_xyz
x,y,z
-x,1/2-y,z
x,-y,1/2-z
1/2-x,y,-z
1/2+x,1/2+y,1/2+z
1/2-x,-y,1/2+z
1/2+x,1/2-y,-z
-x,1/2+y,1/2-z
loop_
_atom_site_type_symbol
_atom_site_label
_atom_site_fract_x
_atom_site_fract_y
_atom_site_fract_z
Si Si1 0.876282 0.506215 0.941836
Si Si2 0.439596 0.639663 0.574785
Si Si3 0.210380 0.630058 0.666293
Si Si4 0.500000 0.250000 0.441543
Si Si5 0.807276 0.500000 0.250000
Si Si6 0.324915 0.679317 0.904840
O O1 0.833649 0.317602 0.886976
O O2 0.937309 0.634729 0.893361
O O3 0.909821 0.345601 0.015745
O O4 0.836283 0.702673 0.998016
O O5 0.500000 0.750000 0.627688
O O6 0.468366 0.446273 0.505999
O O7 0.379271 0.513574 0.618594
O O8 0.175824 0.500000 0.750000
O O9 0.255341 0.446721 0.610299
O O10 0.262590 0.792847 0.713990
O O11 0.839907 0.387573 0.335091
#
# Coordination Sequence:
#
# PCOD9334294 Si02
#       6
#     8   8   8   4   4   8
#     4  10  20  37  63  95 126 164 223 273 328 403
#     4   9  18  34  58  93 115 162 211 276 324 379
#     4  10  23  39  58  95 136 173 210 271 346 404
#     4   8  18  34  58  96 120 158 208 276 322 376
#     4  10  22  38  54  88 126 184 204 262 338 390
#     4  10  21  36  57  89 126 173 219 271 327 402
#
# _framework density 22.702413
#
# number of rings (size 3 to 8) (size 9 to 14) (size 15 to 20)
#    0.000    2.400    0.000    1.200    0.000   11.200 
#    0.000    0.000    0.000    0.000  663.000    0.000 
#    0.000    0.000    0.000    0.000    0.000    0.000 
#
# Total GULP energy -111419.049324 kJ/mol
# GULP energy per Si atom -5570.952466 kJ/mol
# Density = 2.265074 g / cm^3
# Si number density = 22.702413 Si / 1000 Ang^3
#
#
#
# Elastic Constant Matrix: (Units=GPa)
#
#
# Indices 1 2 3 4 5 6 
#
# 1 127.3498 59.5971 67.8878 0.0000 0.0000 0.0000
# 2 59.5971 108.9739 35.8754 0.0000 0.0000 0.0000
# 3 67.8878 35.8754 60.7793 0.0000 0.0000 0.0000
# 4 0.0000 0.0000 0.0000 51.1202 0.0000 0.0000
# 5 0.0000 0.0000 0.0000 0.0000 6.5847 0.0000
# 6 0.0000 0.0000 0.0000 0.0000 0.0000 71.5737
#
#
#
# Elastic Compliance Matrix: (Units=1/GPa)
#
#
# Indices 1 2 3 4 5 6 
#
# 1 0.021196 -0.004714 -0.020892 0.000000 0.000000 0.000000
# 2 -0.004714 0.012438 -0.002077 0.000000 0.000000 0.000000
# 3 -0.020892 -0.002077 0.041014 0.000000 0.000000 0.000000
# 4 0.000000 0.000000 0.000000 0.019562 0.000000 0.000000
# 5 0.000000 0.000000 0.000000 0.000000 0.151867 0.000000
# 6 0.000000 0.000000 0.000000 0.000000 0.000000 0.013972
#
#
# Mechanical properties :
#
#
# Convention : Reuss Voigt Hill
#
# Bulk Modulus (GPa) = 51.85937 69.31370 60.58654
# Shear Modulus (GPa) = 15.53562 34.77191 25.15377
#
# Velocity S-wave (km/s) = 2.61878 3.91786 3.33224
# Velocity P-wave (km/s) = 5.66010 7.14590 6.44595
#
# Compressibility (1/GPa) = 0.01928292
#
# Stress axis : x y z
#
# Youngs Moduli (GPa) = 47.17967 80.39834 24.38172
#
# Poissons Ratio (x) = 0.37898 0.50939
# Poissons Ratio (y) = 0.22239 0.05063
# Poissons Ratio (z) = 0.98569 0.16695
#
# Static dielectric constant tensor:
#      x y z
#    x 1.918710 0.000000 0.000000 
#    y 0.000000 1.946280 0.000000 
#    z 0.000000 0.000000 1.893860 
# 
# From -- ./inp_files/31008.got.cif
#   From: 2010.05.17/outbox.cif.g08.bks.cpg/sg24_16_cif.got.tgz:31008.got - 2010.06.04 00:33:39.
