data_PCOD9334662
_publ_section_title
;
Structure prediction by ZEFSAII (Michael W. Deem and Ramdas Pophale) SiO2 
 PCOD9334662
Probable space group: I 21 21 21
;
_chemical_formula_sum "Si O2"
_cell_formula_units_Z 48
_cell_length_a 16.300927
_cell_length_b 16.848924
_cell_length_c 8.341697
_cell_angle_alpha 90.000000
_cell_angle_beta 90.000000
_cell_angle_gamma 90.000000
_cell_volume 2291.072775
_symmetry_space_group_name_H-M "I 21 21 21"
_symmetry_group_IT_number 24
_symmetry_cell_setting 'orthorhombic'
loop_
_space_group_symop_operation_xyz
x,y,z
-x,1/2-y,z
x,-y,1/2-z
1/2-x,y,-z
1/2+x,1/2+y,1/2+z
1/2-x,-y,1/2+z
1/2+x,1/2-y,-z
-x,1/2+y,1/2-z
loop_
_atom_site_type_symbol
_atom_site_label
_atom_site_fract_x
_atom_site_fract_y
_atom_site_fract_z
Si Si1 0.583064 0.956233 0.578283
Si Si2 0.500000 0.750000 0.180558
Si Si3 0.205304 0.920688 0.833473
Si Si4 0.531722 0.409301 0.488555
Si Si5 0.250000 0.366595 0.000000
Si Si6 0.340202 0.220520 0.113085
Si Si7 0.047528 0.169039 0.173903
O O1 0.672433 0.921428 0.541123
O O2 0.519204 0.883174 0.577574
O O3 0.588125 0.000000 0.750000
O O4 0.537725 0.023792 0.476485
O O5 0.421546 0.760808 0.289548
O O6 0.493470 0.671649 0.075712
O O7 0.204982 0.850673 0.703922
O O8 0.238545 0.000000 0.750000
O O9 0.250000 0.900851 0.000000
O O10 0.110752 0.933466 0.886393
O O11 0.562667 0.385614 0.668897
O O12 0.213868 0.300447 0.878242
O O13 0.375354 0.192686 0.938544
O O14 0.000000 0.250000 0.219349
#
# Coordination Sequence:
#
# PCOD9334662 Si02
#       7
#     8   4   8   8   4   8   8
#     4  10  23  40  63  98 131 179 227 280 341 409
#     4  10  20  42  64  96 130 182 234 280 346 426
#     4  11  27  44  66 102 138 174 232 297 365 420
#     4  10  23  42  69  97 133 180 232 288 351 415
#     4  12  24  40  64 102 140 182 232 278 354 420
#     4  11  24  40  68 100 136 182 230 288 352 427
#     4  11  19  40  71  94 131 183 234 280 338 424
#
# _framework density 20.950883999999999
#
# number of rings (size 3 to 8) (size 9 to 14) (size 15 to 20)
#    0.000    1.333    3.333    1.000    3.500    4.667 
#    3.000    0.000    0.000    0.000    0.000    0.000 
#    0.000    0.000    0.000    0.000    0.000    0.000 
#
# Total GULP energy -133936.685760 kJ/mol
# GULP energy per Si atom -5580.695240 kJ/mol
# Density = 2.090320 g / cm^3
# Si number density = 20.950884 Si / 1000 Ang^3
#
#
#
# Elastic Constant Matrix: (Units=GPa)
#
#
# Indices 1 2 3 4 5 6 
#
# 1 110.2031 61.3283 27.9291 0.0000 0.0000 0.0000
# 2 61.3283 127.8271 26.4494 0.0000 0.0000 0.0000
# 3 27.9291 26.4494 66.3665 0.0000 0.0000 0.0000
# 4 0.0000 0.0000 0.0000 19.2901 0.0000 0.0000
# 5 0.0000 0.0000 0.0000 0.0000 19.9040 0.0000
# 6 0.0000 0.0000 0.0000 0.0000 0.0000 19.6479
#
#
#
# Elastic Compliance Matrix: (Units=1/GPa)
#
#
# Indices 1 2 3 4 5 6 
#
# 1 0.012993 -0.005561 -0.003252 0.000000 0.000000 0.000000
# 2 -0.005561 0.010906 -0.002006 0.000000 0.000000 0.000000
# 3 -0.003252 -0.002006 0.017236 0.000000 0.000000 0.000000
# 4 0.000000 0.000000 0.000000 0.051840 0.000000 0.000000
# 5 0.000000 0.000000 0.000000 0.000000 0.050241 0.000000
# 6 0.000000 0.000000 0.000000 0.000000 0.000000 0.050896
#
#
# Mechanical properties :
#
#
# Convention : Reuss Voigt Hill
#
# Bulk Modulus (GPa) = 51.28917 59.53449 55.41183
# Shear Modulus (GPa) = 22.49734 24.34774 23.42254
#
# Velocity S-wave (km/s) = 3.28046 3.41271 3.34724
# Velocity P-wave (km/s) = 6.23558 6.63375 6.43774
#
# Compressibility (1/GPa) = 0.01949729
#
# Stress axis : x y z
#
# Youngs Moduli (GPa) = 76.96546 91.69127 58.01874
#
# Poissons Ratio (x) = 0.50988 0.18865
# Poissons Ratio (y) = 0.42799 0.11640
# Poissons Ratio (z) = 0.25026 0.18396
#
# Static dielectric constant tensor:
#      x y z
#    x 1.764310 0.000000 0.000000 
#    y 0.000000 1.821260 0.000000 
#    z 0.000000 0.000000 1.803200 
# 
# From -- ./inp_files/12850.got.cif
#   From: 2010.05.17/outbox.cif.g08.bks.cpg/sg24_7_cif.got.tgz:12850.got - 2010.06.04 00:33:39.
