data_PCOD9334712
_publ_section_title
;
Structure prediction by ZEFSAII (Michael W. Deem and Ramdas Pophale) SiO2 
 PCOD9334712
Probable space group: I 21 21 21
;
_chemical_formula_sum "Si O2"
_cell_formula_units_Z 60
_cell_length_a 10.853763
_cell_length_b 9.104638
_cell_length_c 28.987807
_cell_angle_alpha 90.000000
_cell_angle_beta 90.000000
_cell_angle_gamma 90.000000
_cell_volume 2864.563001
_symmetry_space_group_name_H-M "I 21 21 21"
_symmetry_group_IT_number 24
_symmetry_cell_setting 'orthorhombic'
loop_
_space_group_symop_operation_xyz
x,y,z
-x,1/2-y,z
x,-y,1/2-z
1/2-x,y,-z
1/2+x,1/2+y,1/2+z
1/2-x,-y,1/2+z
1/2+x,1/2-y,-z
-x,1/2+y,1/2-z
loop_
_atom_site_type_symbol
_atom_site_label
_atom_site_fract_x
_atom_site_fract_y
_atom_site_fract_z
Si Si1 0.000000 0.250000 0.663736
Si Si2 0.153345 0.173652 0.581157
Si Si3 0.796396 0.021790 0.695055
Si Si4 0.346635 0.012045 0.882365
Si Si5 0.698826 0.808237 0.388999
Si Si6 0.437815 0.484339 0.454534
Si Si7 0.984554 0.078022 0.299285
Si Si8 0.935601 0.106156 0.050609
O O1 0.919586 0.348850 0.629226
O O2 0.899387 0.147637 0.687902
O O3 0.132347 0.340870 0.565805
O O4 0.081662 0.064845 0.546764
O O5 0.289765 0.131411 0.593756
O O6 0.654836 0.059084 0.681928
O O7 0.794765 0.000000 0.750000
O O8 0.823202 0.885130 0.660747
O O9 0.239701 0.137941 0.881858
O O10 0.457812 0.055376 0.915420
O O11 0.410077 0.983275 0.833238
O O12 0.818819 0.864647 0.417277
O O13 0.592942 0.875833 0.422367
O O14 0.401721 0.507718 0.507256
O O15 0.000000 0.250000 0.292753
O O16 0.993548 0.000000 0.250000
O O17 0.000000 0.250000 0.028476
#
# Coordination Sequence:
#
# PCOD9334712 Si02
#       8
#     4   8   8   8   8   8   8   8
#     4  10  20  48  62  94 136 170 222 276 334 414
#     4  10  22  43  65  93 136 181 224 288 338 412
#     4  11  23  43  73  96 136 182 226 273 350 403
#     4  11  25  42  69 104 138 172 237 281 342 414
#     4  11  22  44  69  96 135 180 221 286 344 414
#     4  10  22  44  65  91 133 185 228 279 353 401
#     4  11  26  44  73 104 138 181 224 285 345 414
#     4  10  23  41  67  96 133 176 230 285 333 415
#
# _framework density 20.945603999999999
#
# number of rings (size 3 to 8) (size 9 to 14) (size 15 to 20)
#    0.000    1.600    4.000    1.200    5.600    0.533 
#   14.400    0.667    0.000    0.000    0.000    0.000 
#    0.000    0.000    0.000    0.000    0.000    0.000 
#
# Total GULP energy -167234.496185 kJ/mol
# GULP energy per Si atom -5574.483206 kJ/mol
# Density = 2.089793 g / cm^3
# Si number density = 20.945604 Si / 1000 Ang^3
#
#
#
# Elastic Constant Matrix: (Units=GPa)
#
#
# Indices 1 2 3 4 5 6 
#
# 1 47.2504 45.3690 8.8955 0.0000 0.0000 0.0000
# 2 45.3690 94.4666 54.3451 0.0000 0.0000 0.0000
# 3 8.8955 54.3451 102.8613 0.0000 0.0000 0.0000
# 4 0.0000 0.0000 0.0000 11.4495 0.0000 0.0000
# 5 0.0000 0.0000 0.0000 0.0000 10.6896 0.0000
# 6 0.0000 0.0000 0.0000 0.0000 0.0000 43.5955
#
#
#
# Elastic Compliance Matrix: (Units=1/GPa)
#
#
# Indices 1 2 3 4 5 6 
#
# 1 0.046889 -0.029001 0.011267 0.000000 0.000000 0.000000
# 2 -0.029001 0.033145 -0.015004 0.000000 0.000000 0.000000
# 3 0.011267 -0.015004 0.016674 0.000000 0.000000 0.000000
# 4 0.000000 0.000000 0.000000 0.087340 0.000000 0.000000
# 5 0.000000 0.000000 0.000000 0.000000 0.093549 0.000000
# 6 0.000000 0.000000 0.000000 0.000000 0.000000 0.022938
#
#
# Mechanical properties :
#
#
# Convention : Reuss Voigt Hill
#
# Bulk Modulus (GPa) = 32.01685 51.31085 41.66385
# Shear Modulus (GPa) = 13.28299 22.21150 17.74724
#
# Velocity S-wave (km/s) = 2.52100 3.25997 2.91400
# Velocity P-wave (km/s) = 4.87779 6.22256 5.59075
#
# Compressibility (1/GPa) = 0.03123356
#
# Stress axis : x y z
#
# Youngs Moduli (GPa) = 21.32709 30.17026 59.97211
#
# Poissons Ratio (x) = 0.87496 -0.67571
# Poissons Ratio (y) = 0.61850 0.89981
# Poissons Ratio (z) = -0.24030 0.45267
#
# Static dielectric constant tensor:
#      x y z
#    x 2.320220 0.000000 0.000000 
#    y 0.000000 1.823450 0.000000 
#    z 0.000000 0.000000 1.739460 
# 
# From -- ./inp_files/37216.got.cif
#   From: 2010.05.17/outbox.cif.g08.bks.cpg/sg24_19_cif.got.tgz:37216.got - 2010.06.04 00:33:39.
