data_PCOD9334235
_publ_section_title
;
Structure prediction by ZEFSAII (Michael W. Deem and Ramdas Pophale) SiO2 
 PCOD9334235
Probable space group: I 21 21 21
;
_chemical_formula_sum "Si O2"
_cell_formula_units_Z 28
_cell_length_a 8.326741
_cell_length_b 13.994463
_cell_length_c 12.797121
_cell_angle_alpha 90.000000
_cell_angle_beta 90.000000
_cell_angle_gamma 90.000000
_cell_volume 1491.226356
_symmetry_space_group_name_H-M "I 21 21 21"
_symmetry_group_IT_number 24
_symmetry_cell_setting 'orthorhombic'
loop_
_space_group_symop_operation_xyz
x,y,z
-x,1/2-y,z
x,-y,1/2-z
1/2-x,y,-z
1/2+x,1/2+y,1/2+z
1/2-x,-y,1/2+z
1/2+x,1/2-y,-z
-x,1/2+y,1/2-z
loop_
_atom_site_type_symbol
_atom_site_label
_atom_site_fract_x
_atom_site_fract_y
_atom_site_fract_z
Si Si1 0.922193 0.000000 0.250000
Si Si2 0.715060 0.564253 0.883568
Si Si3 0.658560 0.359601 0.175454
Si Si4 0.216721 0.652030 0.620647
O O1 0.816408 0.920585 0.308174
O O2 0.036361 0.945851 0.165187
O O3 0.773461 0.454534 0.877612
O O4 0.815086 0.624480 0.798818
O O5 0.750000 0.599388 0.000000
O O6 0.750995 0.264229 0.140733
O O7 0.471718 0.355893 0.147078
O O8 0.250000 0.630058 0.500000
#
# Coordination Sequence:
#
# PCOD9334235 Si02
#       4
#     4   8   8   8
#     4  10  22  34  58  86 106 144 194 222 264 340
#     4  10  20  37  56  80 115 149 178 229 278 317
#     4   9  21  36  56  82 112 142 186 228 273 330
#     4  11  21  37  58  82 110 145 184 231 274 322
#
# _framework density 18.776492999999999
#
# number of rings (size 3 to 8) (size 9 to 14) (size 15 to 20)
#    0.000    2.286    0.000    4.286    0.000   11.429 
#    0.000    7.143    0.000    0.000    0.000    0.000 
#    0.000    0.000    0.000    0.000    0.000    0.000 
#
# Total GULP energy -78096.329552 kJ/mol
# GULP energy per Si atom -5578.309254 kJ/mol
# Density = 1.873376 g / cm^3
# Si number density = 18.776493 Si / 1000 Ang^3
#
#
#
# Elastic Constant Matrix: (Units=GPa)
#
#
# Indices 1 2 3 4 5 6 
#
# 1 93.4859 37.8871 56.2914 0.0000 0.0000 0.0000
# 2 37.8871 70.6295 32.0058 0.0000 0.0000 0.0000
# 3 56.2914 32.0058 169.0183 0.0000 0.0000 0.0000
# 4 0.0000 0.0000 0.0000 5.4948 0.0000 0.0000
# 5 0.0000 0.0000 0.0000 0.0000 10.4326 0.0000
# 6 0.0000 0.0000 0.0000 0.0000 0.0000 -37.7908
#
#
#
# Elastic Compliance Matrix: (Units=1/GPa)
#
#
# Indices 1 2 3 4 5 6 
#
# 1 0.015809 -0.006666 -0.004003 0.000000 0.000000 0.000000
# 2 -0.006666 0.018298 -0.001245 0.000000 0.000000 0.000000
# 3 -0.004003 -0.001245 0.007485 0.000000 0.000000 0.000000
# 4 0.000000 0.000000 0.000000 0.181991 0.000000 0.000000
# 5 0.000000 0.000000 0.000000 0.000000 0.095853 0.000000
# 6 0.000000 0.000000 0.000000 0.000000 0.000000 -0.026461
#
#
# Mechanical properties :
#
#
# Convention : Reuss Voigt Hill
#
# Bulk Modulus (GPa) = 56.29120 65.05583 60.67352
# Shear Modulus (GPa) = 15.49310 9.42394 12.45852
#
# Velocity S-wave (km/s) = 2.87563 2.24275 2.57868
# Velocity P-wave (km/s) = 6.40862 6.43656 6.42260
#
# Compressibility (1/GPa) = 0.01776476
#
# Stress axis : x y z
#
# Youngs Moduli (GPa) = 63.25668 54.64958 133.59427
#
# Poissons Ratio (x) = 0.36431 0.53474
# Poissons Ratio (y) = 0.42168 0.16631
# Poissons Ratio (z) = 0.25320 0.06803
#
# Static dielectric constant tensor:
#      x y z
#    x 1.665870 0.000000 0.000000 
#    y 0.000000 1.656370 0.000000 
#    z 0.000000 0.000000 1.684210 
# 
# From -- ./inp_files/12039.got.cif
#   From: 2010.05.17/outbox.cif.g08.bks.cpg/sg24_7_cif.got.tgz:12039.got - 2010.06.04 00:33:39.
