data_PCOD9334438
_publ_section_title
;
Structure prediction by ZEFSAII (Michael W. Deem and Ramdas Pophale) SiO2 
 PCOD9334438
Probable space group: I 21 21 21
;
_chemical_formula_sum "Si O2"
_cell_formula_units_Z 20
_cell_length_a 10.415720
_cell_length_b 4.830306
_cell_length_c 16.327370
_cell_angle_alpha 90.000000
_cell_angle_beta 90.000000
_cell_angle_gamma 90.000000
_cell_volume 821.448187
_symmetry_space_group_name_H-M "I 21 21 21"
_symmetry_group_IT_number 24
_symmetry_cell_setting 'orthorhombic'
loop_
_space_group_symop_operation_xyz
x,y,z
-x,1/2-y,z
x,-y,1/2-z
1/2-x,y,-z
1/2+x,1/2+y,1/2+z
1/2-x,-y,1/2+z
1/2+x,1/2-y,-z
-x,1/2+y,1/2-z
loop_
_atom_site_type_symbol
_atom_site_label
_atom_site_fract_x
_atom_site_fract_y
_atom_site_fract_z
Si Si1 0.576999 0.000000 0.750000
Si Si2 0.865340 0.355086 0.556181
Si Si3 0.322136 0.648255 0.331702
O O1 0.500000 0.750000 0.792641
O O2 0.673156 0.818711 0.693649
O O3 0.750000 0.463353 0.500000
O O4 0.883290 0.577679 0.629751
O O5 0.000000 0.250000 0.517868
O O6 0.817022 0.078573 0.598466
O O7 0.379334 0.500000 0.250000
#
# Coordination Sequence:
#
# PCOD9334438 Si02
#       3
#     4   8   8
#     4  10  20  38  68 104 142 182 234 302 370 432
#     4  12  26  46  71 107 148 203 243 305 375 447
#     4  10  24  44  71 105 144 188 256 307 367 436
#
# _framework density 24.347244
#
# number of rings (size 3 to 8) (size 9 to 14) (size 15 to 20)
#    1.200    0.000    0.000    6.000    0.000    8.000 
#    0.000    0.000    0.000    0.000    0.000    0.000 
#    0.000    0.000    0.000    0.000    0.000    0.000 
#
# Total GULP energy -55715.250925 kJ/mol
# GULP energy per Si atom -5571.525093 kJ/mol
# Density = 2.429183 g / cm^3
# Si number density = 24.347244 Si / 1000 Ang^3
#
#
#
# Elastic Constant Matrix: (Units=GPa)
#
#
# Indices 1 2 3 4 5 6 
#
# 1 123.9972 30.9675 44.2935 0.0000 0.0000 0.0000
# 2 30.9675 130.2376 12.7436 0.0000 0.0000 0.0000
# 3 44.2935 12.7436 69.3792 0.0000 0.0000 0.0000
# 4 0.0000 0.0000 0.0000 25.0350 0.0000 0.0000
# 5 0.0000 0.0000 0.0000 0.0000 29.8202 0.0000
# 6 0.0000 0.0000 0.0000 0.0000 0.0000 31.1158
#
#
#
# Elastic Compliance Matrix: (Units=1/GPa)
#
#
# Indices 1 2 3 4 5 6 
#
# 1 0.010912 -0.001948 -0.006609 0.000000 0.000000 0.000000
# 2 -0.001948 0.008167 -0.000256 0.000000 0.000000 0.000000
# 3 -0.006609 -0.000256 0.018680 0.000000 0.000000 0.000000
# 4 0.000000 0.000000 0.000000 0.039944 0.000000 0.000000
# 5 0.000000 0.000000 0.000000 0.000000 0.033534 0.000000
# 6 0.000000 0.000000 0.000000 0.000000 0.000000 0.032138
#
#
# Mechanical properties :
#
#
# Convention : Reuss Voigt Hill
#
# Bulk Modulus (GPa) = 49.67165 55.51369 52.59267
# Shear Modulus (GPa) = 29.81314 32.90150 31.35732
#
# Velocity S-wave (km/s) = 3.50308 3.68005 3.59265
# Velocity P-wave (km/s) = 6.06694 6.39589 6.23358
#
# Compressibility (1/GPa) = 0.02013221
#
# Stress axis : x y z
#
# Youngs Moduli (GPa) = 91.64325 122.45090 53.53382
#
# Poissons Ratio (x) = 0.23853 0.35379
# Poissons Ratio (y) = 0.17852 0.01373
# Poissons Ratio (z) = 0.60564 0.03140
#
# Static dielectric constant tensor:
#      x y z
#    x 2.227230 0.000000 0.000000 
#    y 0.000000 1.730500 0.000000 
#    z 0.000000 0.000000 1.931030 
# 
# From -- ./inp_files/2768.got.cif
#   From: 2010.05.17/outbox.cif.g08.bks.cpg/sg24_2_cif.got.tgz:2768.got - 2010.06.04 00:33:39.
