data_PCOD9334909
_publ_section_title
;
Structure prediction by ZEFSAII (Michael W. Deem and Ramdas Pophale) SiO2 
 PCOD9334909
Probable space group: I 21 21 21
;
_chemical_formula_sum "Si O2"
_cell_formula_units_Z 64
_cell_length_a 8.720458
_cell_length_b 18.082113
_cell_length_c 20.730273
_cell_angle_alpha 90.000000
_cell_angle_beta 90.000000
_cell_angle_gamma 90.000000
_cell_volume 3268.838731
_symmetry_space_group_name_H-M "I 21 21 21"
_symmetry_group_IT_number 24
_symmetry_cell_setting 'orthorhombic'
loop_
_space_group_symop_operation_xyz
x,y,z
-x,1/2-y,z
x,-y,1/2-z
1/2-x,y,-z
1/2+x,1/2+y,1/2+z
1/2-x,-y,1/2+z
1/2+x,1/2-y,-z
-x,1/2+y,1/2-z
loop_
_atom_site_type_symbol
_atom_site_label
_atom_site_fract_x
_atom_site_fract_y
_atom_site_fract_z
Si Si1 0.046958 0.933857 0.387137
Si Si2 0.566343 0.331737 0.006917
Si Si3 0.431523 0.172734 0.498664
Si Si4 0.589935 0.423082 0.133353
Si Si5 0.420822 0.403927 0.616177
Si Si6 0.140489 0.412281 0.241553
Si Si7 0.445483 0.417911 0.383692
Si Si8 0.967489 0.836887 0.752423
O O1 0.963166 0.907635 0.321808
O O2 0.009783 0.880131 0.446498
O O3 0.229917 0.937391 0.377597
O O4 0.988888 0.016234 0.401136
O O5 0.500000 0.250000 0.006130
O O6 0.532141 0.372852 0.074006
O O7 0.750000 0.327483 0.000000
O O8 0.500000 0.250000 0.474508
O O9 0.250000 0.178154 0.500000
O O10 0.504229 0.154631 0.568251
O O11 0.478311 0.108216 0.449688
O O12 0.494966 0.498992 0.132885
O O13 0.567370 0.380425 0.200081
O O14 0.447249 0.391165 0.692460
O O15 0.237179 0.408534 0.609101
O O16 0.184148 0.500000 0.250000
O O17 0.292084 0.362138 0.237407
O O18 0.497867 0.366285 0.324478
O O19 0.000000 0.750000 0.747794
#
# Coordination Sequence:
#
# PCOD9334909 Si02
#       8
#     8   8   8   8   8   8   8   8
#     4  10  21  38  61  89 120 156 202 252 298 354
#     4  10  23  39  56  84 119 154 194 243 297 354
#     4  12  25  41  62  90 124 159 200 250 303 361
#     4  11  22  38  62  90 119 156 203 250 299 355
#     4  10  21  40  63  88 118 158 202 247 298 356
#     4   9  20  40  62  86 119 157 199 246 296 359
#     4  11  23  41  64  89 120 159 203 248 298 360
#     4  11  23  39  60  88 122 157 198 246 300 361
#
# _framework density 19.578817999999998
#
# number of rings (size 3 to 8) (size 9 to 14) (size 15 to 20)
#    0.000    1.500    0.000    6.000    0.000   10.000 
#    0.000    0.625    0.000    0.000    0.000    0.000 
#    0.000    0.000    0.000    0.000    0.000    0.000 
#
# Total GULP energy -178906.062269 kJ/mol
# GULP energy per Si atom -5590.814446 kJ/mol
# Density = 1.953426 g / cm^3
# Si number density = 19.578818 Si / 1000 Ang^3
#
#
#
# Elastic Constant Matrix: (Units=GPa)
#
#
# Indices 1 2 3 4 5 6 
#
# 1 65.6248 27.6345 36.9057 0.0000 0.0000 0.0000
# 2 27.6345 91.5630 26.0946 0.0000 0.0000 0.0000
# 3 36.9057 26.0946 88.0311 0.0000 0.0000 0.0000
# 4 0.0000 0.0000 0.0000 -6.7835 0.0000 0.0000
# 5 0.0000 0.0000 0.0000 0.0000 17.8594 0.0000
# 6 0.0000 0.0000 0.0000 0.0000 0.0000 29.2586
#
#
#
# Elastic Compliance Matrix: (Units=1/GPa)
#
#
# Indices 1 2 3 4 5 6 
#
# 1 0.021355 -0.004253 -0.007692 0.000000 0.000000 0.000000
# 2 -0.004253 0.012776 -0.002004 0.000000 0.000000 0.000000
# 3 -0.007692 -0.002004 0.015178 0.000000 0.000000 0.000000
# 4 0.000000 0.000000 0.000000 -0.147416 0.000000 0.000000
# 5 0.000000 0.000000 0.000000 0.000000 0.055993 0.000000
# 6 0.000000 0.000000 0.000000 0.000000 0.000000 0.034178
#
#
# Mechanical properties :
#
#
# Convention : Reuss Voigt Hill
#
# Bulk Modulus (GPa) = 46.70448 47.38759 47.04603
# Shear Modulus (GPa) = 184.50409 18.37250 101.43829
#
# Velocity S-wave (km/s) = 9.71808 3.06663 7.20574
# Velocity P-wave (km/s) = 12.24042 6.06589 9.65979
#
# Compressibility (1/GPa) = 0.02141122
#
# Stress axis : x y z
#
# Youngs Moduli (GPa) = 46.82777 78.27056 65.88269
#
# Poissons Ratio (x) = 0.33288 0.50677
# Poissons Ratio (y) = 0.19915 0.13204
# Poissons Ratio (z) = 0.36020 0.15687
#
# Static dielectric constant tensor:
#      x y z
#    x 1.671800 0.000000 0.000000 
#    y 0.000000 1.662040 0.000000 
#    z 0.000000 0.000000 1.681320 
# 
# From -- ./inp_files/32942.got.cif
#   From: 2010.05.17/outbox.cif.g08.bks.cpg/sg24_17_cif.got.tgz:32942.got - 2010.06.04 00:33:39.
