data_PCOD9334361
_publ_section_title
;
Structure prediction by ZEFSAII (Michael W. Deem and Ramdas Pophale) SiO2 
 PCOD9334361
Probable space group: I 21 21 21
;
_chemical_formula_sum "Si O2"
_cell_formula_units_Z 52
_cell_length_a 11.835228
_cell_length_b 8.739103
_cell_length_c 23.162556
_cell_angle_alpha 90.000000
_cell_angle_beta 90.000000
_cell_angle_gamma 90.000000
_cell_volume 2395.686409
_symmetry_space_group_name_H-M "I 21 21 21"
_symmetry_group_IT_number 24
_symmetry_cell_setting 'orthorhombic'
loop_
_space_group_symop_operation_xyz
x,y,z
-x,1/2-y,z
x,-y,1/2-z
1/2-x,y,-z
1/2+x,1/2+y,1/2+z
1/2-x,-y,1/2+z
1/2+x,1/2-y,-z
-x,1/2+y,1/2-z
loop_
_atom_site_type_symbol
_atom_site_label
_atom_site_fract_x
_atom_site_fract_y
_atom_site_fract_z
Si Si1 0.766728 0.648344 0.315006
Si Si2 0.623926 0.809178 0.407937
Si Si3 0.795275 0.605304 0.097645
Si Si4 0.000000 0.250000 0.333630
Si Si5 0.750000 0.614752 0.500000
Si Si6 0.612440 0.163282 0.408913
Si Si7 0.472806 0.000000 0.750000
Si Si8 0.118494 0.675778 0.770425
O O1 0.722335 0.778483 0.359978
O O2 0.733263 0.497007 0.352277
O O3 0.891863 0.602610 0.292194
O O4 0.707895 0.707143 0.256975
O O5 0.500000 0.750000 0.387732
O O6 0.662814 0.714408 0.463409
O O7 0.614446 0.986230 0.423670
O O8 0.817578 0.487109 0.046337
O O9 0.717560 0.736683 0.071727
O O10 0.902005 0.681600 0.127441
O O11 0.040723 0.386485 0.291292
O O12 0.500000 0.250000 0.428161
O O13 0.619719 0.170800 0.339251
O O14 0.130399 0.500000 0.750000
O O15 0.000000 0.750000 0.751752
#
# Coordination Sequence:
#
# PCOD9334361 Si02
#       8
#     8   8   8   4   4   8   4   8
#     4  10  20  38  61  88 135 176 210 261 330 402
#     4  11  23  43  67  93 129 174 222 284 344 404
#     4  10  23  44  68  94 131 177 226 291 331 400
#     4  10  22  44  68 100 140 178 230 268 338 404
#     4  10  24  48  68  90 130 176 232 286 356 384
#     4  11  23  38  64 102 133 167 218 272 336 404
#     4  10  22  38  66  94 136 186 214 270 332 402
#     4  11  22  30  55  96 138 176 206 251 321 410
#
# _framework density 21.705680000000001
#
# number of rings (size 3 to 8) (size 9 to 14) (size 15 to 20)
#    0.000    1.538    1.538    4.154    5.385    1.846 
#    9.692    0.000    3.385    0.000    0.000    0.000 
#    0.000    0.000    0.000    0.000    0.000    0.000 
#
# Total GULP energy -145117.636250 kJ/mol
# GULP energy per Si atom -5581.447548 kJ/mol
# Density = 2.165628 g / cm^3
# Si number density = 21.705680 Si / 1000 Ang^3
#
#
#
# Elastic Constant Matrix: (Units=GPa)
#
#
# Indices 1 2 3 4 5 6 
#
# 1 50.9226 52.7533 29.3289 0.0000 0.0000 0.0000
# 2 52.7533 156.2380 51.3853 0.0000 0.0000 0.0000
# 3 29.3289 51.3853 100.0063 0.0000 0.0000 0.0000
# 4 0.0000 0.0000 0.0000 -11.1139 0.0000 0.0000
# 5 0.0000 0.0000 0.0000 0.0000 26.6819 0.0000
# 6 0.0000 0.0000 0.0000 0.0000 0.0000 39.3891
#
#
#
# Elastic Compliance Matrix: (Units=1/GPa)
#
#
# Indices 1 2 3 4 5 6 
#
# 1 0.031863 -0.009248 -0.004593 0.000000 0.000000 0.000000
# 2 -0.009248 0.010386 -0.002624 0.000000 0.000000 0.000000
# 3 -0.004593 -0.002624 0.012695 0.000000 0.000000 0.000000
# 4 0.000000 0.000000 0.000000 -0.089977 0.000000 0.000000
# 5 0.000000 0.000000 0.000000 0.000000 0.037479 0.000000
# 6 0.000000 0.000000 0.000000 0.000000 0.000000 0.025388
#
#
# Mechanical properties :
#
#
# Convention : Reuss Voigt Hill
#
# Bulk Modulus (GPa) = 45.42595 63.78910 54.60753
# Shear Modulus (GPa) = 73.41933 22.57137 47.99535
#
# Velocity S-wave (km/s) = 5.82223 3.22822 4.70743
# Velocity P-wave (km/s) = 8.13458 6.58386 7.39995
#
# Compressibility (1/GPa) = 0.02201385
#
# Stress axis : x y z
#
# Youngs Moduli (GPa) = 31.38399 96.28127 78.77236
#
# Poissons Ratio (x) = 0.89041 0.36178
# Poissons Ratio (y) = 0.29024 0.20674
# Poissons Ratio (z) = 0.14414 0.25269
#
# Static dielectric constant tensor:
#      x y z
#    x 2.014950 0.000000 0.000000 
#    y 0.000000 1.809400 0.000000 
#    z 0.000000 0.000000 1.818910 
# 
# From -- ./inp_files/37205.got.cif
#   From: 2010.05.17/outbox.cif.g08.bks.cpg/sg24_19_cif.got.tgz:37205.got - 2010.06.04 00:33:39.
