data_PCOD9334975
_publ_section_title
;
Structure prediction by ZEFSAII (Michael W. Deem and Ramdas Pophale) SiO2 
 PCOD9334975
Probable space group: I 21 21 21
;
_chemical_formula_sum "Si O2"
_cell_formula_units_Z 48
_cell_length_a 25.620720
_cell_length_b 7.493950
_cell_length_c 11.956033
_cell_angle_alpha 90.000000
_cell_angle_beta 90.000000
_cell_angle_gamma 90.000000
_cell_volume 2295.563054
_symmetry_space_group_name_H-M "I 21 21 21"
_symmetry_group_IT_number 24
_symmetry_cell_setting 'orthorhombic'
loop_
_space_group_symop_operation_xyz
x,y,z
-x,1/2-y,z
x,-y,1/2-z
1/2-x,y,-z
1/2+x,1/2+y,1/2+z
1/2-x,-y,1/2+z
1/2+x,1/2-y,-z
-x,1/2+y,1/2-z
loop_
_atom_site_type_symbol
_atom_site_label
_atom_site_fract_x
_atom_site_fract_y
_atom_site_fract_z
Si Si1 0.365745 0.152254 0.471252
Si Si2 0.849803 0.756901 0.617195
Si Si3 0.439419 0.792035 0.222194
Si Si4 0.835916 0.676811 0.209073
Si Si5 0.730073 0.769116 0.170040
Si Si6 0.294068 0.612987 0.577415
O O1 0.414021 0.224761 0.399652
O O2 0.366866 0.223267 0.597738
O O3 0.312939 0.227508 0.419393
O O4 0.358632 0.936991 0.444192
O O5 0.901803 0.801984 0.687380
O O6 0.803188 0.761603 0.712856
O O7 0.837693 0.896598 0.519034
O O8 0.500000 0.750000 0.228878
O O9 0.432717 0.000000 0.250000
O O10 0.863389 0.500000 0.250000
O O11 0.777206 0.629252 0.167284
O O12 0.822009 0.798652 0.315508
O O13 0.762048 0.054015 0.370740
O O14 0.250000 0.713205 0.500000
#
# Coordination Sequence:
#
# PCOD9334975 Si02
#       6
#     8   8   8   8   8   8
#     4  10  21  39  62  92 121 169 224 257 318 393
#     4  10  21  41  61  88 130 174 214 264 316 386
#     4   9  20  43  69  94 118 152 213 281 336 383
#     4  12  22  35  57  82 118 175 214 240 305 382
#     4  11  23  35  57  83 129 172 212 253 307 367
#     4  12  24  37  53  86 136 174 209 261 302 373
#
# _framework density 20.909901000000001
#
# number of rings (size 3 to 8) (size 9 to 14) (size 15 to 20)
#    0.000    1.333    3.333    4.500    2.333    0.000 
#    9.000    0.000    0.000    1.000    0.000    0.000 
#    0.000    0.000    0.000    0.000    0.000    0.000 
#
# Total GULP energy -133634.158940 kJ/mol
# GULP energy per Si atom -5568.089956 kJ/mol
# Density = 2.086231 g / cm^3
# Si number density = 20.909901 Si / 1000 Ang^3
#
#
#
# Elastic Constant Matrix: (Units=GPa)
#
#
# Indices 1 2 3 4 5 6 
#
# 1 105.2691 7.7211 55.5780 0.0000 0.0000 0.0000
# 2 7.7211 62.1306 27.3229 0.0000 0.0000 0.0000
# 3 55.5780 27.3229 187.9184 0.0000 0.0000 0.0000
# 4 0.0000 0.0000 0.0000 33.2611 0.0000 0.0000
# 5 0.0000 0.0000 0.0000 0.0000 16.4207 0.0000
# 6 0.0000 0.0000 0.0000 0.0000 0.0000 24.2280
#
#
#
# Elastic Compliance Matrix: (Units=1/GPa)
#
#
# Indices 1 2 3 4 5 6 
#
# 1 0.011258 0.000070 -0.003340 0.000000 0.000000 0.000000
# 2 0.000070 0.017195 -0.002521 0.000000 0.000000 0.000000
# 3 -0.003340 -0.002521 0.006676 0.000000 0.000000 0.000000
# 4 0.000000 0.000000 0.000000 0.030065 0.000000 0.000000
# 5 0.000000 0.000000 0.000000 0.000000 0.060899 0.000000
# 6 0.000000 0.000000 0.000000 0.000000 0.000000 0.041275
#
#
# Mechanical properties :
#
#
# Convention : Reuss Voigt Hill
#
# Bulk Modulus (GPa) = 42.46851 59.61800 51.04326
# Shear Modulus (GPa) = 26.76703 32.42836 29.59770
#
# Velocity S-wave (km/s) = 3.58175 3.94237 3.76638
# Velocity P-wave (km/s) = 6.12042 7.02117 6.58621
#
# Compressibility (1/GPa) = 0.02354686
#
# Stress axis : x y z
#
# Youngs Moduli (GPa) = 88.82933 58.15646 149.79756
#
# Poissons Ratio (x) = -0.00405 0.50027
# Poissons Ratio (y) = -0.00619 0.37760
# Poissons Ratio (z) = 0.29666 0.14660
#
# Static dielectric constant tensor:
#      x y z
#    x 1.749100 0.000000 0.000000 
#    y 0.000000 1.938800 0.000000 
#    z 0.000000 0.000000 1.889780 
# 
# From -- ./inp_files/22653.got.cif
#   From: 2010.05.17/outbox.cif.g08.bks.cpg/sg24_12_cif.got.tgz:22653.got - 2010.06.04 00:33:39.
