data_PCOD9334808
_publ_section_title
;
Structure prediction by ZEFSAII (Michael W. Deem and Ramdas Pophale) SiO2 
 PCOD9334808
Probable space group: I 21 21 21
;
_chemical_formula_sum "Si O2"
_cell_formula_units_Z 44
_cell_length_a 22.957427
_cell_length_b 5.568711
_cell_length_c 14.737668
_cell_angle_alpha 90.000000
_cell_angle_beta 90.000000
_cell_angle_gamma 90.000000
_cell_volume 1884.111762
_symmetry_space_group_name_H-M "I 21 21 21"
_symmetry_group_IT_number 24
_symmetry_cell_setting 'orthorhombic'
loop_
_space_group_symop_operation_xyz
x,y,z
-x,1/2-y,z
x,-y,1/2-z
1/2-x,y,-z
1/2+x,1/2+y,1/2+z
1/2-x,-y,1/2+z
1/2+x,1/2-y,-z
-x,1/2+y,1/2-z
loop_
_atom_site_type_symbol
_atom_site_label
_atom_site_fract_x
_atom_site_fract_y
_atom_site_fract_z
Si Si1 0.801034 0.091567 0.351389
Si Si2 0.613157 0.821263 0.018569
Si Si3 0.750000 0.744323 0.500000
Si Si4 0.687637 0.740920 0.197788
Si Si5 0.435427 0.248336 0.804684
Si Si6 0.884126 0.666340 0.487515
O O1 0.849697 0.173981 0.423571
O O2 0.754803 0.302373 0.331611
O O3 0.816498 0.000000 0.250000
O O4 0.762838 0.904068 0.410735
O O5 0.579527 0.572138 0.008330
O O6 0.589827 0.089542 0.028013
O O7 0.650874 0.783437 0.107875
O O8 0.815329 0.636067 0.513829
O O9 0.667865 0.500000 0.250000
O O10 0.685750 0.000000 0.250000
O O11 0.500000 0.250000 0.848042
O O12 0.433351 0.500000 0.750000
O O13 0.386998 0.220020 0.880670
O O14 0.431806 0.000000 0.750000
#
# Coordination Sequence:
#
# PCOD9334808 Si02
#       6
#     8   8   4   8   8   8
#     4  10  21  37  54  76 112 168 213 251 318 374
#     4  11  23  39  55  83 124 156 215 273 307 386
#     4  10  22  38  54  84 130 164 212 272 308 386
#     4  11  22  35  54  75 106 160 210 252 310 368
#     4  10  22  43  68  96 130 168 220 276 325 393
#     4  11  23  36  61  83 122 169 201 255 327 369
#
# _framework density 23.353179000000001
#
# number of rings (size 3 to 8) (size 9 to 14) (size 15 to 20)
#    0.000    1.455    3.636    2.182    5.091    8.727 
#    0.000    0.000    0.000    0.000    0.000    0.000 
#    0.000   18.909    0.000    0.000    0.000    0.000 
#
# Total GULP energy -122593.164290 kJ/mol
# GULP energy per Si atom -5572.416559 kJ/mol
# Density = 2.330003 g / cm^3
# Si number density = 23.353179 Si / 1000 Ang^3
#
#
#
# Elastic Constant Matrix: (Units=GPa)
#
#
# Indices 1 2 3 4 5 6 
#
# 1 43.2003 10.7877 19.3902 0.0000 0.0000 0.0000
# 2 10.7877 210.4434 33.7973 0.0000 0.0000 0.0000
# 3 19.3902 33.7973 118.1116 0.0000 0.0000 0.0000
# 4 0.0000 0.0000 0.0000 40.3269 0.0000 0.0000
# 5 0.0000 0.0000 0.0000 0.0000 19.9634 0.0000
# 6 0.0000 0.0000 0.0000 0.0000 0.0000 20.3969
#
#
#
# Elastic Compliance Matrix: (Units=1/GPa)
#
#
# Indices 1 2 3 4 5 6 
#
# 1 0.025075 -0.000654 -0.003929 0.000000 0.000000 0.000000
# 2 -0.000654 0.004998 -0.001323 0.000000 0.000000 0.000000
# 3 -0.003929 -0.001323 0.009490 0.000000 0.000000 0.000000
# 4 0.000000 0.000000 0.000000 0.024797 0.000000 0.000000
# 5 0.000000 0.000000 0.000000 0.000000 0.050092 0.000000
# 6 0.000000 0.000000 0.000000 0.000000 0.000000 0.049027
#
#
# Mechanical properties :
#
#
# Convention : Reuss Voigt Hill
#
# Bulk Modulus (GPa) = 36.03561 55.52284 45.77922
# Shear Modulus (GPa) = 27.09414 36.65612 31.87513
#
# Velocity S-wave (km/s) = 3.40985 3.96617 3.69849
# Velocity P-wave (km/s) = 5.56480 6.69335 6.15499
#
# Compressibility (1/GPa) = 0.02775033
#
# Stress axis : x y z
#
# Youngs Moduli (GPa) = 39.88035 200.08646 105.37272
#
# Poissons Ratio (x) = 0.13092 0.41404
# Poissons Ratio (y) = 0.02610 0.13938
# Poissons Ratio (z) = 0.15670 0.26465
#
# Static dielectric constant tensor:
#      x y z
#    x 1.927000 0.000000 0.000000 
#    y 0.000000 1.667910 0.000000 
#    z 0.000000 0.000000 1.876370 
# 
# From -- ./inp_files/27981.got.cif
#   From: 2010.05.17/outbox.cif.g08.bks.cpg/sg24_14_cif.got.tgz:27981.got - 2010.06.04 00:33:39.
