data_PCOD9334437
_publ_section_title
;
Structure prediction by ZEFSAII (Michael W. Deem and Ramdas Pophale) SiO2 
 PCOD9334437
Probable space group: I 21 21 21
;
_chemical_formula_sum "Si O2"
_cell_formula_units_Z 48
_cell_length_a 11.331022
_cell_length_b 17.636372
_cell_length_c 10.169781
_cell_angle_alpha 90.000000
_cell_angle_beta 90.000000
_cell_angle_gamma 90.000000
_cell_volume 2032.309907
_symmetry_space_group_name_H-M "I 21 21 21"
_symmetry_group_IT_number 24
_symmetry_cell_setting 'orthorhombic'
loop_
_space_group_symop_operation_xyz
x,y,z
-x,1/2-y,z
x,-y,1/2-z
1/2-x,y,-z
1/2+x,1/2+y,1/2+z
1/2-x,-y,1/2+z
1/2+x,1/2-y,-z
-x,1/2+y,1/2-z
loop_
_atom_site_type_symbol
_atom_site_label
_atom_site_fract_x
_atom_site_fract_y
_atom_site_fract_z
Si Si1 0.507153 0.170683 0.678880
Si Si2 0.883385 0.536843 0.021012
Si Si3 0.402280 0.537449 0.114213
Si Si4 0.883260 0.643348 0.453205
Si Si5 0.250000 0.576056 0.500000
Si Si6 0.500000 0.250000 0.158656
Si Si7 0.215981 0.668829 0.764871
O O1 0.500000 0.250000 0.600865
O O2 0.454833 0.095914 0.611054
O O3 0.430798 0.176040 0.814794
O O4 0.646314 0.169917 0.703812
O O5 0.883549 0.448212 0.061158
O O6 0.750000 0.561584 0.000000
O O7 0.957921 0.541144 0.887401
O O8 0.361259 0.500000 0.250000
O O9 0.344366 0.618674 0.121560
O O10 0.358547 0.483651 0.996179
O O11 0.750000 0.664600 0.500000
O O12 0.969756 0.678077 0.564427
O O13 0.224378 0.628352 0.622591
O O14 0.620045 0.234991 0.240270
#
# Coordination Sequence:
#
# PCOD9334437 Si02
#       7
#     8   8   8   8   4   4   8
#     4  12  25  45  69 102 140 187 240 292 365 433
#     4  11  26  46  69 100 140 190 240 298 361 446
#     4  10  21  41  67  98 132 176 230 291 355 418
#     4  11  24  43  72 104 146 187 236 297 361 435
#     4  10  20  38  68 102 136 172 234 288 350 426
#     4  12  24  40  66 108 144 182 236 300 366 422
#     4  11  24  39  67 100 139 179 228 298 354 429
#
# _framework density 23.618445999999999
#
# number of rings (size 3 to 8) (size 9 to 14) (size 15 to 20)
#    0.000    1.000    0.833    6.500    1.167    8.000 
#    4.500    0.000    0.000    0.000    0.000    0.000 
#    0.000    0.000    0.000    0.000    0.000    0.000 
#
# Total GULP energy -133877.548734 kJ/mol
# GULP energy per Si atom -5578.231197 kJ/mol
# Density = 2.356469 g / cm^3
# Si number density = 23.618446 Si / 1000 Ang^3
#
#
#
# Elastic Constant Matrix: (Units=GPa)
#
#
# Indices 1 2 3 4 5 6 
#
# 1 184.7259 54.7752 23.9836 0.0000 0.0000 0.0000
# 2 54.7752 113.7971 22.7914 0.0000 0.0000 0.0000
# 3 23.9836 22.7914 37.8407 -0.0002 0.0001 0.0000
# 4 0.0000 0.0000 -0.0002 17.0840 0.0000 0.0000
# 5 0.0000 0.0000 0.0001 0.0000 33.0007 0.0000
# 6 0.0000 0.0000 0.0000 0.0000 0.0000 32.2897
#
#
#
# Elastic Compliance Matrix: (Units=1/GPa)
#
#
# Indices 1 2 3 4 5 6 
#
# 1 0.006524 -0.002629 -0.002551 0.000000 0.000000 0.000000
# 2 -0.002629 0.011053 -0.004990 0.000000 0.000000 0.000000
# 3 -0.002551 -0.004990 0.031049 0.000000 0.000000 0.000000
# 4 0.000000 0.000000 0.000000 0.058534 0.000000 0.000000
# 5 0.000000 0.000000 0.000000 0.000000 0.030302 0.000000
# 6 0.000000 0.000000 0.000000 0.000000 0.000000 0.030970
#
#
# Mechanical properties :
#
#
# Convention : Reuss Voigt Hill
#
# Bulk Modulus (GPa) = 35.35594 59.94044 47.64819
# Shear Modulus (GPa) = 25.22659 32.12913 28.67786
#
# Velocity S-wave (km/s) = 3.27171 3.69228 3.48834
# Velocity P-wave (km/s) = 5.41057 6.60386 6.03677
#
# Compressibility (1/GPa) = 0.02828379
#
# Stress axis : x y z
#
# Youngs Moduli (GPa) = 153.27137 90.47549 32.20666
#
# Poissons Ratio (x) = 0.23790 0.08217
# Poissons Ratio (y) = 0.40302 0.16073
# Poissons Ratio (z) = 0.39107 0.45152
#
# Static dielectric constant tensor:
#      x y z
#    x 1.986200 0.000000 0.000000 
#    y 0.000000 1.974300 0.000000 
#    z 0.000000 0.000000 1.927060 
# 
# From -- ./inp_files/19767.got.cif
#   From: 2010.05.17/outbox.cif.g08.bks.cpg/sg24_10_cif.got.tgz:19767.got - 2010.06.04 00:33:39.
