data_PCOD9334876
_publ_section_title
;
Structure prediction by ZEFSAII (Michael W. Deem and Ramdas Pophale) SiO2 
 PCOD9334876
Probable space group: I 21 21 21
;
_chemical_formula_sum "Si O2"
_cell_formula_units_Z 56
_cell_length_a 18.094840
_cell_length_b 9.305817
_cell_length_c 18.135234
_cell_angle_alpha 90.000000
_cell_angle_beta 90.000000
_cell_angle_gamma 90.000000
_cell_volume 3053.742538
_symmetry_space_group_name_H-M "I 21 21 21"
_symmetry_group_IT_number 24
_symmetry_cell_setting 'orthorhombic'
loop_
_space_group_symop_operation_xyz
x,y,z
-x,1/2-y,z
x,-y,1/2-z
1/2-x,y,-z
1/2+x,1/2+y,1/2+z
1/2-x,-y,1/2+z
1/2+x,1/2-y,-z
-x,1/2+y,1/2-z
loop_
_atom_site_type_symbol
_atom_site_label
_atom_site_fract_x
_atom_site_fract_y
_atom_site_fract_z
Si Si1 0.701817 0.500000 0.750000
Si Si2 0.066216 0.358171 0.521825
Si Si3 0.562582 0.128685 0.310256
Si Si4 0.826383 0.000000 0.250000
Si Si5 0.425555 0.580070 0.610720
Si Si6 0.769238 0.238332 0.677718
Si Si7 0.682653 0.655762 0.958555
Si Si8 0.902629 0.403536 0.124841
O O1 0.754652 0.400259 0.702703
O O2 0.646936 0.409186 0.801835
O O3 0.050716 0.417250 0.603897
O O4 0.076143 0.481334 0.461449
O O5 0.137267 0.255064 0.514646
O O6 0.000000 0.250000 0.501588
O O7 0.500000 0.250000 0.294151
O O8 0.645174 0.195894 0.315540
O O9 0.559894 0.000000 0.250000
O O10 0.875751 0.025774 0.177893
O O11 0.774118 0.133887 0.267230
O O12 0.400507 0.742880 0.592028
O O13 0.510439 0.574981 0.638482
O O14 0.722456 0.240025 0.601230
O O15 0.629547 0.535958 0.922859
O O16 0.750000 0.579211 0.000000
#
# Coordination Sequence:
#
# PCOD9334876 Si02
#       8
#     4   8   8   4   8   8   8   8
#     4  10  21  38  57  92 132 168 208 250 303 376
#     4  11  22  42  66  92 124 164 214 259 315 378
#     4  11  26  47  67  93 119 163 219 277 328 378
#     4  12  21  36  61  96 130 170 210 248 305 380
#     4  11  22  38  61  95 136 172 205 248 312 383
#     4  11  22  38  65  88 130 162 209 260 315 377
#     4  11  21  39  64  94 121 169 210 259 316 377
#     4  10  22  38  56  92 135 169 205 250 309 376
#
# _framework density 18.338152999999998
#
# number of rings (size 3 to 8) (size 9 to 14) (size 15 to 20)
#    0.000    1.143    6.429    0.429    1.000    0.000 
#    5.143    5.000    0.000    0.000    0.000    0.000 
#    0.000    0.000    0.000    0.000    0.000    0.000 
#
# Total GULP energy -155995.618906 kJ/mol
# GULP energy per Si atom -5571.272104 kJ/mol
# Density = 1.829641 g / cm^3
# Si number density = 18.338153 Si / 1000 Ang^3
#
#
#
# Elastic Constant Matrix: (Units=GPa)
#
#
# Indices 1 2 3 4 5 6 
#
# 1 114.2093 56.1794 37.7513 0.0000 0.0000 0.0000
# 2 56.1794 85.4210 48.4631 0.0000 0.0000 0.0000
# 3 37.7513 48.4631 94.0033 0.0000 0.0000 0.0000
# 4 0.0000 0.0000 0.0000 27.5262 0.0000 0.0000
# 5 0.0000 0.0000 0.0000 0.0000 15.8414 0.0000
# 6 0.0000 0.0000 0.0000 0.0000 0.0000 29.1575
#
#
#
# Elastic Compliance Matrix: (Units=1/GPa)
#
#
# Indices 1 2 3 4 5 6 
#
# 1 0.013031 -0.007917 -0.001152 0.000000 0.000000 0.000000
# 2 -0.007917 0.021356 -0.007831 0.000000 0.000000 0.000000
# 3 -0.001152 -0.007831 0.015138 0.000000 0.000000 0.000000
# 4 0.000000 0.000000 0.000000 0.036329 0.000000 0.000000
# 5 0.000000 0.000000 0.000000 0.000000 0.063126 0.000000
# 6 0.000000 0.000000 0.000000 0.000000 0.000000 0.034297
#
#
# Mechanical properties :
#
#
# Convention : Reuss Voigt Hill
#
# Bulk Modulus (GPa) = 63.58818 64.26902 63.92860
# Shear Modulus (GPa) = 22.49056 24.58768 23.53912
#
# Velocity S-wave (km/s) = 3.50585 3.66566 3.58664
# Velocity P-wave (km/s) = 7.15113 7.28277 7.21725
#
# Compressibility (1/GPa) = 0.01572619
#
# Stress axis : x y z
#
# Youngs Moduli (GPa) = 76.74190 46.82531 66.06085
#
# Poissons Ratio (x) = 0.37070 0.07608
# Poissons Ratio (y) = 0.60753 0.51731
# Poissons Ratio (z) = 0.08839 0.36668
#
# Static dielectric constant tensor:
#      x y z
#    x 1.636200 0.000000 0.000000 
#    y 0.000000 1.628340 0.000000 
#    z 0.000000 0.000000 1.659360 
# 
# From -- ./inp_files/33788.got.cif
#   From: 2010.05.17/outbox.cif.g08.bks.cpg/sg24_17_cif.got.tgz:33788.got - 2010.06.04 00:33:39.
