data_PCOD9334126
_publ_section_title
;
Structure prediction by ZEFSAII (Michael W. Deem and Ramdas Pophale) SiO2 
 PCOD9334126
Probable space group: I 21 21 21
;
_chemical_formula_sum "Si O2"
_cell_formula_units_Z 48
_cell_length_a 30.136840
_cell_length_b 9.181761
_cell_length_c 9.767931
_cell_angle_alpha 90.000000
_cell_angle_beta 90.000000
_cell_angle_gamma 90.000000
_cell_volume 2702.876980
_symmetry_space_group_name_H-M "I 21 21 21"
_symmetry_group_IT_number 24
_symmetry_cell_setting 'orthorhombic'
loop_
_space_group_symop_operation_xyz
x,y,z
-x,1/2-y,z
x,-y,1/2-z
1/2-x,y,-z
1/2+x,1/2+y,1/2+z
1/2-x,-y,1/2+z
1/2+x,1/2-y,-z
-x,1/2+y,1/2-z
loop_
_atom_site_type_symbol
_atom_site_label
_atom_site_fract_x
_atom_site_fract_y
_atom_site_fract_z
Si Si1 0.454316 0.320786 0.879007
Si Si2 0.125584 0.397137 0.618424
Si Si3 0.766895 0.856828 0.341878
Si Si4 0.645032 0.815907 0.534637
Si Si5 0.314199 0.828870 0.272147
Si Si6 0.956789 0.836155 0.062374
O O1 0.500000 0.250000 0.929129
O O2 0.448941 0.282492 0.717935
O O3 0.461835 0.491227 0.910824
O O4 0.406378 0.281861 0.939670
O O5 0.113462 0.500000 0.750000
O O6 0.146406 0.515772 0.515874
O O7 0.159476 0.272684 0.664604
O O8 0.083500 0.325909 0.543768
O O9 0.750000 0.881280 0.500000
O O10 0.818565 0.811519 0.345866
O O11 0.735791 0.730410 0.282460
O O12 0.760347 0.000000 0.250000
O O13 0.662879 0.712673 0.415734
O O14 0.316622 0.000000 0.250000
O O15 0.000000 0.750000 0.011825
#
# Coordination Sequence:
#
# PCOD9334126 Si02
#       6
#     8   8   8   8   8   8
#     4   9  18  33  55  78 106 136 172 222 273 310
#     4   9  18  35  55  78 103 142 183 219 260 317
#     4  10  20  36  59  84 108 141 189 231 268 326
#     4   9  19  35  58  79 105 139 187 222 257 324
#     4  10  20  36  54  76 114 145 169 221 279 319
#     4   9  18  32  53  78 107 137 172 222 264 320
#
# _framework density 17.758855000000001
#
# number of rings (size 3 to 8) (size 9 to 14) (size 15 to 20)
#    0.000    2.667    0.000    2.500    4.667    1.333 
#    0.000   15.833    7.333    0.000    0.000    0.000 
#    0.000    0.000    0.000    0.000    0.000    0.000 
#
# Total GULP energy -133619.587834 kJ/mol
# GULP energy per Si atom -5567.482826 kJ/mol
# Density = 1.771844 g / cm^3
# Si number density = 17.758855 Si / 1000 Ang^3
#
#
#
# Elastic Constant Matrix: (Units=GPa)
#
#
# Indices 1 2 3 4 5 6 
#
# 1 157.3664 72.8523 45.7551 0.0000 0.0000 0.0000
# 2 72.8523 91.2798 29.7915 0.0000 0.0000 0.0000
# 3 45.7551 29.7915 33.4284 0.0000 0.0000 0.0000
# 4 0.0000 0.0000 0.0000 11.9554 0.0000 0.0000
# 5 0.0000 0.0000 0.0000 0.0000 24.5947 0.0000
# 6 0.0000 0.0000 0.0000 0.0000 0.0000 25.2119
#
#
#
# Elastic Compliance Matrix: (Units=1/GPa)
#
#
# Indices 1 2 3 4 5 6 
#
# 1 0.012683 -0.006285 -0.011759 0.000000 0.000000 0.000000
# 2 -0.006285 0.018563 -0.007941 0.000000 0.000000 0.000000
# 3 -0.011759 -0.007941 0.053087 0.000000 0.000000 0.000000
# 4 0.000000 0.000000 0.000000 0.083644 0.000000 0.000000
# 5 0.000000 0.000000 0.000000 0.000000 0.040659 0.000000
# 6 0.000000 0.000000 0.000000 0.000000 0.000000 0.039664
#
#
# Mechanical properties :
#
#
# Convention : Reuss Voigt Hill
#
# Bulk Modulus (GPa) = 30.89915 64.31916 47.60915
# Shear Modulus (GPa) = 16.07414 21.26410 18.66912
#
# Velocity S-wave (km/s) = 3.01181 3.46407 3.24583
# Velocity P-wave (km/s) = 5.43431 7.23163 6.39641
#
# Compressibility (1/GPa) = 0.03236335
#
# Stress axis : x y z
#
# Youngs Moduli (GPa) = 78.84493 53.86999 18.83696
#
# Poissons Ratio (x) = 0.33856 0.22150
# Poissons Ratio (y) = 0.49553 0.14959
# Poissons Ratio (z) = 0.92714 0.42779
#
# Static dielectric constant tensor:
#      x y z
#    x 1.642140 0.000000 0.000000 
#    y 0.000000 1.579110 0.000000 
#    z 0.000000 0.000000 1.646850 
# 
# From -- ./inp_files/22882.got.cif
#   From: 2010.05.17/outbox.cif.g08.bks.cpg/sg24_12_cif.got.tgz:22882.got - 2010.06.04 00:33:39.
