data_PCOD9334422
_publ_section_title
;
Structure prediction by ZEFSAII (Michael W. Deem and Ramdas Pophale) SiO2 
 PCOD9334422
Probable space group: I 21 21 21
;
_chemical_formula_sum "Si O2"
_cell_formula_units_Z 56
_cell_length_a 23.482446
_cell_length_b 13.081408
_cell_length_c 7.553544
_cell_angle_alpha 90.000000
_cell_angle_beta 90.000000
_cell_angle_gamma 90.000000
_cell_volume 2320.323758
_symmetry_space_group_name_H-M "I 21 21 21"
_symmetry_group_IT_number 24
_symmetry_cell_setting 'orthorhombic'
loop_
_space_group_symop_operation_xyz
x,y,z
-x,1/2-y,z
x,-y,1/2-z
1/2-x,y,-z
1/2+x,1/2+y,1/2+z
1/2-x,-y,1/2+z
1/2+x,1/2-y,-z
-x,1/2+y,1/2-z
loop_
_atom_site_type_symbol
_atom_site_label
_atom_site_fract_x
_atom_site_fract_y
_atom_site_fract_z
Si Si1 0.891840 0.823237 0.725688
Si Si2 0.440968 0.206659 0.654497
Si Si3 0.059781 0.869391 0.547973
Si Si4 0.643292 0.532822 0.955413
Si Si5 0.250000 0.163437 0.500000
Si Si6 0.529888 0.000000 0.250000
Si Si7 0.667035 0.821645 0.921992
Si Si8 0.689923 0.958515 0.451478
O O1 0.930306 0.730266 0.665379
O O2 0.845384 0.793468 0.871112
O O3 0.860944 0.877475 0.559720
O O4 0.928982 0.911320 0.820395
O O5 0.500000 0.250000 0.578653
O O6 0.408836 0.114952 0.551791
O O7 0.391910 0.292384 0.670097
O O8 0.453179 0.163238 0.848481
O O9 0.118285 0.933630 0.549903
O O10 0.009846 0.942189 0.613108
O O11 0.655463 0.500000 0.750000
O O12 0.698038 0.586049 0.040150
O O13 0.217691 0.244438 0.368642
O O14 0.681799 0.940941 0.926843
O O15 0.750000 0.909842 0.500000
O O16 0.693186 0.000000 0.250000
#
# Coordination Sequence:
#
# PCOD9334422 Si02
#       8
#     8   8   8   8   4   4   8   8
#     4  11  24  44  65 100 133 179 236 278 351 422
#     4  10  22  41  65  96 134 173 223 277 345 414
#     4  11  26  44  64  99 135 172 229 284 341 421
#     4   9  22  42  61  95 135 168 217 275 329 407
#     4  10  20  38  66  90 128 174 220 266 336 406
#     4  12  24  42  72  90 138 176 224 298 342 426
#     4  10  21  39  69  94 131 179 224 280 340 413
#     4  10  21  42  64  98 138 176 234 286 344 418
#
# _framework density 24.134564000000001
#
# number of rings (size 3 to 8) (size 9 to 14) (size 15 to 20)
#    0.000    1.714    2.857    1.286    6.000    2.286 
#    9.000    0.000    0.000    0.000    0.000    0.000 
#    0.000    0.000    0.000    0.000    0.000    0.000 
#
# Total GULP energy -156506.556157 kJ/mol
# GULP energy per Si atom -5589.519863 kJ/mol
# Density = 2.407963 g / cm^3
# Si number density = 24.134564 Si / 1000 Ang^3
#
#
#
# Elastic Constant Matrix: (Units=GPa)
#
#
# Indices 1 2 3 4 5 6 
#
# 1 168.8130 68.1291 22.7649 0.0000 0.0000 0.0000
# 2 68.1291 134.9250 37.0366 0.0000 0.0000 0.0000
# 3 22.7649 37.0366 23.6081 0.0000 0.0000 0.0000
# 4 0.0000 0.0000 0.0000 28.4639 0.0000 0.0000
# 5 0.0000 0.0000 0.0000 0.0000 14.5844 0.0000
# 6 0.0000 0.0000 0.0000 0.0000 0.0000 34.9674
#
#
#
# Elastic Compliance Matrix: (Units=1/GPa)
#
#
# Indices 1 2 3 4 5 6 
#
# 1 0.007508 -0.003168 -0.002270 0.000000 0.000000 0.000000
# 2 -0.003168 0.014354 -0.019464 0.000000 0.000000 0.000000
# 3 -0.002270 -0.019464 0.075082 0.000000 0.000000 0.000000
# 4 0.000000 0.000000 0.000000 0.035132 0.000000 0.000000
# 5 0.000000 0.000000 0.000000 0.000000 0.068566 0.000000
# 6 0.000000 0.000000 0.000000 0.000000 0.000000 0.028598
#
#
# Mechanical properties :
#
#
# Convention : Reuss Voigt Hill
#
# Bulk Modulus (GPa) = 21.21301 64.80082 43.00692
# Shear Modulus (GPa) = 16.96305 28.89752 22.93028
#
# Velocity S-wave (km/s) = 2.65401 3.46403 3.08572
# Velocity P-wave (km/s) = 4.26618 6.55037 5.52755
#
# Compressibility (1/GPa) = 0.04714087
#
# Stress axis : x y z
#
# Youngs Moduli (GPa) = 133.18335 69.66678 13.31876
#
# Poissons Ratio (x) = 0.22072 0.03023
# Poissons Ratio (y) = 0.42196 0.25923
# Poissons Ratio (z) = 0.30231 1.35597
#
# Static dielectric constant tensor:
#      x y z
#    x 1.946120 0.000000 0.000000 
#    y 0.000000 1.940440 0.000000 
#    z 0.000000 0.000000 1.921000 
# 
# From -- ./inp_files/15297.got.cif
#   From: 2010.05.17/outbox.cif.g08.bks.cpg/sg24_8_cif.got.tgz:15297.got - 2010.06.04 00:33:39.
