data_PCOD9334643
_publ_section_title
;
Structure prediction by ZEFSAII (Michael W. Deem and Ramdas Pophale) SiO2 
 PCOD9334643
Probable space group: I 21 21 21
;
_chemical_formula_sum "Si O2"
_cell_formula_units_Z 40
_cell_length_a 12.162459
_cell_length_b 26.260954
_cell_length_c 6.214255
_cell_angle_alpha 90.000000
_cell_angle_beta 90.000000
_cell_angle_gamma 90.000000
_cell_volume 1984.819229
_symmetry_space_group_name_H-M "I 21 21 21"
_symmetry_group_IT_number 24
_symmetry_cell_setting 'orthorhombic'
loop_
_space_group_symop_operation_xyz
x,y,z
-x,1/2-y,z
x,-y,1/2-z
1/2-x,y,-z
1/2+x,1/2+y,1/2+z
1/2-x,-y,1/2+z
1/2+x,1/2-y,-z
-x,1/2+y,1/2-z
loop_
_atom_site_type_symbol
_atom_site_label
_atom_site_fract_x
_atom_site_fract_y
_atom_site_fract_z
Si Si1 0.604402 0.785151 0.791890
Si Si2 0.750000 0.082472 0.000000
Si Si3 0.537569 0.944264 0.735277
Si Si4 0.750000 0.719202 0.500000
Si Si5 0.540146 0.351542 0.017176
Si Si6 0.612112 0.876125 0.116740
O O1 0.500000 0.750000 0.858940
O O2 0.707279 0.753479 0.699696
O O3 0.555185 0.816706 0.589450
O O4 0.628056 0.825388 0.977773
O O5 0.642716 0.052135 0.924972
O O6 0.792446 0.113886 0.792095
O O7 0.457607 0.900735 0.639029
O O8 0.487205 0.000000 0.750000
O O9 0.589147 0.922788 0.956038
O O10 0.647037 0.682529 0.457941
O O11 0.498017 0.369329 0.246116
#
# Coordination Sequence:
#
# PCOD9334643 Si02
#       6
#     8   4   8   4   8   8
#     4   9  20  38  59  86 118 161 202 242 296 353
#     4  10  22  33  58  88 118 160 196 245 300 370
#     4  10  22  38  61  84 121 157 200 249 309 363
#     4  10  20  41  68  86 120 164 208 251 304 362
#     4   9  21  40  59  88 122 155 201 258 297 360
#     4  10  21  39  55  86 126 156 194 244 302 357
#
# _framework density 20.15297
#
# number of rings (size 3 to 8) (size 9 to 14) (size 15 to 20)
#    0.000    2.400    0.000    0.600    2.800   13.600 
#    0.000   23.000    4.400    0.000    0.000    0.000 
#    0.000    0.000    0.000    0.000    0.000    0.000 
#
# Total GULP energy -111656.156864 kJ/mol
# GULP energy per Si atom -5582.807843 kJ/mol
# Density = 2.010710 g / cm^3
# Si number density = 20.152970 Si / 1000 Ang^3
#
#
#
# Elastic Constant Matrix: (Units=GPa)
#
#
# Indices 1 2 3 4 5 6 
#
# 1 66.2568 39.5299 36.2562 -0.0027 -0.0004 0.0005
# 2 39.5299 136.9414 48.2868 -0.0081 0.0010 0.0013
# 3 36.2562 48.2868 99.9045 -0.0165 0.0015 0.0027
# 4 -0.0027 -0.0081 -0.0165 11.7592 0.0009 0.0017
# 5 -0.0004 0.0010 0.0015 0.0009 13.8953 -0.0008
# 6 0.0005 0.0013 0.0027 0.0017 -0.0008 16.8148
#
#
#
# Elastic Compliance Matrix: (Units=1/GPa)
#
#
# Indices 1 2 3 4 5 6 
#
# 1 0.020477 -0.003967 -0.005514 -0.000006 0.000002 0.000001
# 2 -0.003967 0.009571 -0.003186 0.000001 0.000000 0.000000
# 3 -0.005514 -0.003186 0.013551 0.000016 -0.000001 -0.000002
# 4 -0.000006 0.000001 0.000016 0.085040 -0.000006 -0.000009
# 5 0.000002 0.000000 -0.000001 -0.000006 0.071967 0.000004
# 6 0.000001 0.000000 -0.000002 -0.000009 0.000004 0.059471
#
#
# Mechanical properties :
#
#
# Convention : Reuss Voigt Hill
#
# Bulk Modulus (GPa) = 54.75146 61.24983 58.00064
# Shear Modulus (GPa) = 17.15275 20.42918 18.79097
#
# Velocity S-wave (km/s) = 2.92057 3.18733 3.05686
# Velocity P-wave (km/s) = 6.21288 6.63354 6.42665
#
# Compressibility (1/GPa) = 0.01826435
#
# Stress axis : x y z
#
# Youngs Moduli (GPa) = 48.83622 104.48280 73.79678
#
# Poissons Ratio (x) = 0.41444 0.40691
# Poissons Ratio (y) = 0.19371 0.23515
# Poissons Ratio (z) = 0.26928 0.33293
#
# Static dielectric constant tensor:
#      x y z
#    x 1.739180 0.000000 0.000000 
#    y 0.000000 1.744010 0.000000 
#    z 0.000000 0.000000 1.741010 
# 
# From -- ./inp_files/2486.got.cif
#   From: 2010.05.17/outbox.cif.g08.bks.cpg/sg24_2_cif.got.tgz:2486.got - 2010.06.04 00:33:39.
