data_PCOD9334998
_publ_section_title
;
Structure prediction by ZEFSAII (Michael W. Deem and Ramdas Pophale) SiO2 
 PCOD9334998
Probable space group: I 21 21 21
;
_chemical_formula_sum "Si O2"
_cell_formula_units_Z 64
_cell_length_a 9.008420
_cell_length_b 18.015332
_cell_length_c 20.464149
_cell_angle_alpha 90.000000
_cell_angle_beta 90.000000
_cell_angle_gamma 90.000000
_cell_volume 3321.120133
_symmetry_space_group_name_H-M "I 21 21 21"
_symmetry_group_IT_number 24
_symmetry_cell_setting 'orthorhombic'
loop_
_space_group_symop_operation_xyz
x,y,z
-x,1/2-y,z
x,-y,1/2-z
1/2-x,y,-z
1/2+x,1/2+y,1/2+z
1/2-x,-y,1/2+z
1/2+x,1/2-y,-z
-x,1/2+y,1/2-z
loop_
_atom_site_type_symbol
_atom_site_label
_atom_site_fract_x
_atom_site_fract_y
_atom_site_fract_z
Si Si1 0.945942 0.496589 0.822154
Si Si2 0.776249 0.045748 0.315534
Si Si3 0.041928 0.555197 0.404497
Si Si4 0.211180 0.059447 0.425809
Si Si5 0.470521 0.164376 0.669582
Si Si6 0.399438 0.823682 0.685207
Si Si7 0.064828 0.173037 0.860152
Si Si8 0.085300 0.685311 0.497901
O O1 0.872213 0.500000 0.750000
O O2 0.097925 0.544361 0.817975
O O3 0.845119 0.529201 0.880202
O O4 0.978300 0.408581 0.833404
O O5 0.873221 0.120874 0.317935
O O6 0.816196 0.000000 0.250000
O O7 0.833089 0.998521 0.377129
O O8 0.903559 0.508584 0.429882
O O9 0.987018 0.607998 0.346228
O O10 0.095170 0.609072 0.460496
O O11 0.250000 0.081218 0.500000
O O12 0.123615 0.122844 0.385863
O O13 0.500000 0.250000 0.653499
O O14 0.379987 0.161313 0.737656
O O15 0.500000 0.750000 0.682175
O O16 0.241772 0.819317 0.648583
O O17 0.000000 0.250000 0.829853
O O18 0.999959 0.173675 0.933943
O O19 0.250000 0.715441 0.500000
O O20 0.000000 0.750000 0.460136
#
# Coordination Sequence:
#
# PCOD9334998 Si02
#       8
#     8   8   8   8   8   8   8   8
#     4  11  23  40  66  94 132 165 215 275 330 388
#     4  10  21  39  64  97 124 163 212 267 331 395
#     4  11  22  36  63  83 127 166 219 258 314 390
#     4  11  24  42  67  95 126 172 219 268 335 403
#     4  10  23  45  68  95 126 164 216 273 340 411
#     4  11  23  36  64  92 128 168 221 268 332 393
#     4  11  25  40  58  90 133 175 219 267 321 388
#     4  11  26  39  55  83 129 177 222 259 314 385
#
# _framework density 19.270606000000001
#
# number of rings (size 3 to 8) (size 9 to 14) (size 15 to 20)
#    0.000    1.250    2.500    2.625    8.750    1.000 
#    0.000    3.750    0.000    0.000    0.000    0.000 
#    0.000    0.000    0.000    0.000    0.000    0.000 
#
# Total GULP energy -178584.104477 kJ/mol
# GULP energy per Si atom -5580.753265 kJ/mol
# Density = 1.922675 g / cm^3
# Si number density = 19.270606 Si / 1000 Ang^3
#
#
#
# Elastic Constant Matrix: (Units=GPa)
#
#
# Indices 1 2 3 4 5 6 
#
# 1 100.4797 20.2606 28.7590 0.0000 0.0000 0.0000
# 2 20.2606 96.1843 16.8702 0.0000 0.0000 0.0000
# 3 28.7590 16.8702 106.0359 0.0000 0.0000 0.0000
# 4 0.0000 0.0000 0.0000 -402.9150 0.0000 0.0000
# 5 0.0000 0.0000 0.0000 0.0000 22.8383 0.0000
# 6 0.0000 0.0000 0.0000 0.0000 0.0000 19.0918
#
#
#
# Elastic Compliance Matrix: (Units=1/GPa)
#
#
# Indices 1 2 3 4 5 6 
#
# 1 0.011105 -0.001863 -0.002716 0.000000 0.000000 0.000000
# 2 -0.001863 0.011008 -0.001246 0.000000 0.000000 0.000000
# 3 -0.002716 -0.001246 0.010366 0.000000 0.000000 0.000000
# 4 0.000000 0.000000 0.000000 -0.002482 0.000000 0.000000
# 5 0.000000 0.000000 0.000000 0.000000 0.043786 0.000000
# 6 0.000000 0.000000 0.000000 0.000000 0.000000 0.052379
#
#
# Mechanical properties :
#
#
# Convention : Reuss Voigt Hill
#
# Bulk Modulus (GPa) = 48.00933 48.27551 48.14242
# Shear Modulus (GPa) = 34.54152 -56.40966 -10.93407
#
# Velocity S-wave (km/s) = 4.23832 -5.41627 -2.38459
# Velocity P-wave (km/s) = 6.99418 3.74284 4.17790
#
# Compressibility (1/GPa) = 0.02082929
#
# Stress axis : x y z
#
# Youngs Moduli (GPa) = 90.04839 90.84567 96.47363
#
# Poissons Ratio (x) = 0.16924 0.26198
# Poissons Ratio (y) = 0.16775 0.12021
# Poissons Ratio (z) = 0.24453 0.11320
#
# Static dielectric constant tensor:
#      x y z
#    x 1.830920 0.000000 0.000000 
#    y 0.000000 1.678010 0.000000 
#    z 0.000000 0.000000 1.696780 
# 
# From -- ./inp_files/32964.got.cif
#   From: 2010.05.17/outbox.cif.g08.bks.cpg/sg24_17_cif.got.tgz:32964.got - 2010.06.04 00:33:39.
