data_PCOD9334030
_publ_section_title
;
Structure prediction by ZEFSAII (Michael W. Deem and Ramdas Pophale) SiO2 
 PCOD9334030
Probable space group: I 21 21 21
;
_chemical_formula_sum "Si O2"
_cell_formula_units_Z 48
_cell_length_a 8.014995
_cell_length_b 17.682925
_cell_length_c 14.337014
_cell_angle_alpha 90.000000
_cell_angle_beta 90.000000
_cell_angle_gamma 90.000000
_cell_volume 2031.964284
_symmetry_space_group_name_H-M "I 21 21 21"
_symmetry_group_IT_number 24
_symmetry_cell_setting 'orthorhombic'
loop_
_space_group_symop_operation_xyz
x,y,z
-x,1/2-y,z
x,-y,1/2-z
1/2-x,y,-z
1/2+x,1/2+y,1/2+z
1/2-x,-y,1/2+z
1/2+x,1/2-y,-z
-x,1/2+y,1/2-z
loop_
_atom_site_type_symbol
_atom_site_label
_atom_site_fract_x
_atom_site_fract_y
_atom_site_fract_z
Si Si1 0.642349 0.147159 0.341784
Si Si2 0.090962 0.930600 0.687122
Si Si3 0.172500 0.219313 0.295886
Si Si4 0.060623 0.472156 0.522695
Si Si5 0.992130 0.434402 0.325588
Si Si6 0.189135 0.780380 0.603735
O O1 0.528054 0.119063 0.255655
O O2 0.679666 0.236243 0.345899
O O3 0.564413 0.112253 0.434828
O O4 0.824742 0.106227 0.330260
O O5 0.194003 0.869423 0.628090
O O6 0.158700 0.000000 0.750000
O O7 0.993679 0.974157 0.605721
O O8 0.198073 0.249181 0.189255
O O9 0.000000 0.250000 0.334699
O O10 0.146843 0.129672 0.303669
O O11 0.250000 0.494165 0.500000
O O12 0.959341 0.470707 0.426961
O O13 0.006936 0.500000 0.250000
O O14 0.250000 0.763674 0.500000
O O15 0.000000 0.750000 0.612167
#
# Coordination Sequence:
#
# PCOD9334030 Si02
#       6
#     8   8   8   8   8   8
#     4   9  17  38  65  92 128 176 227 267 319 393
#     4  10  21  40  67  91 129 172 220 270 329 396
#     4  10  22  41  67  91 133 173 220 273 324 391
#     4   9  18  34  64  98 130 167 222 272 321 391
#     4  10  20  34  63 102 136 171 213 277 339 388
#     4  12  26  44  65  98 133 174 218 269 341 407
#
# _framework density 23.622461000000001
#
# number of rings (size 3 to 8) (size 9 to 14) (size 15 to 20)
#    0.000    2.000    1.667    3.000    2.333    1.333 
#    0.000    0.000   55.000    0.000    0.000    0.000 
#    0.000    0.000    0.000    0.000    0.000    0.000 
#
# Total GULP energy -134027.538770 kJ/mol
# GULP energy per Si atom -5584.480782 kJ/mol
# Density = 2.356870 g / cm^3
# Si number density = 23.622461 Si / 1000 Ang^3
#
#
#
# Elastic Constant Matrix: (Units=GPa)
#
#
# Indices 1 2 3 4 5 6 
#
# 1 60.5306 6.9464 1.0383 0.0000 0.0000 0.0000
# 2 6.9464 106.5943 13.6229 0.0000 0.0000 0.0000
# 3 1.0383 13.6229 117.4611 0.0000 0.0000 0.0000
# 4 0.0000 0.0000 0.0000 25.8439 0.0000 0.0000
# 5 0.0000 0.0000 0.0000 0.0000 19.7888 0.0000
# 6 0.0000 0.0000 0.0000 0.0000 0.0000 32.9825
#
#
#
# Elastic Compliance Matrix: (Units=1/GPa)
#
#
# Indices 1 2 3 4 5 6 
#
# 1 0.016645 -0.001082 -0.000022 0.000000 0.000000 0.000000
# 2 -0.001082 0.009593 -0.001103 0.000000 0.000000 0.000000
# 3 -0.000022 -0.001103 0.008642 0.000000 0.000000 0.000000
# 4 0.000000 0.000000 0.000000 0.038694 0.000000 0.000000
# 5 0.000000 0.000000 0.000000 0.000000 0.050534 0.000000
# 6 0.000000 0.000000 0.000000 0.000000 0.000000 0.030319
#
#
# Mechanical properties :
#
#
# Convention : Reuss Voigt Hill
#
# Bulk Modulus (GPa) = 32.82311 36.42236 34.62273
# Shear Modulus (GPa) = 29.58671 33.25493 31.42082
#
# Velocity S-wave (km/s) = 3.54288 3.75609 3.65104
# Velocity P-wave (km/s) = 5.53724 5.85346 5.69754
#
# Compressibility (1/GPa) = 0.03046634
#
# Stress axis : x y z
#
# Youngs Moduli (GPa) = 60.07769 104.24449 115.71969
#
# Poissons Ratio (x) = 0.11279 0.00251
# Poissons Ratio (y) = 0.06500 0.12764
# Poissons Ratio (z) = 0.00130 0.11498
#
# Static dielectric constant tensor:
#      x y z
#    x 1.996520 0.000000 0.000000 
#    y 0.000000 1.936810 0.000000 
#    z 0.000000 0.000000 1.892100 
# 
# From -- ./inp_files/24807.got.cif
#   From: 2010.05.17/outbox.cif.g08.bks.cpg/sg24_13_cif.got.tgz:24807.got - 2010.06.04 00:33:39.
