data_PCOD9334564
_publ_section_title
;
Structure prediction by ZEFSAII (Michael W. Deem and Ramdas Pophale) SiO2 
 PCOD9334564
Probable space group: I 21 21 21
;
_chemical_formula_sum "Si O2"
_cell_formula_units_Z 56
_cell_length_a 18.179677
_cell_length_b 9.213317
_cell_length_c 14.413254
_cell_angle_alpha 90.000000
_cell_angle_beta 90.000000
_cell_angle_gamma 90.000000
_cell_volume 2414.149811
_symmetry_space_group_name_H-M "I 21 21 21"
_symmetry_group_IT_number 24
_symmetry_cell_setting 'orthorhombic'
loop_
_space_group_symop_operation_xyz
x,y,z
-x,1/2-y,z
x,-y,1/2-z
1/2-x,y,-z
1/2+x,1/2+y,1/2+z
1/2-x,-y,1/2+z
1/2+x,1/2-y,-z
-x,1/2+y,1/2-z
loop_
_atom_site_type_symbol
_atom_site_label
_atom_site_fract_x
_atom_site_fract_y
_atom_site_fract_z
Si Si1 0.673978 0.367218 0.896278
Si Si2 0.132592 0.500000 0.750000
Si Si3 0.347517 0.333029 0.426142
Si Si4 0.000000 0.750000 0.007740
Si Si5 0.180613 0.001894 0.895602
Si Si6 0.859264 0.920928 0.450919
Si Si7 0.417560 0.745434 0.371825
Si Si8 0.515858 0.485477 0.859012
O O1 0.742843 0.446889 0.850797
O O2 0.689128 0.194667 0.895283
O O3 0.590877 0.392755 0.863279
O O4 0.675181 0.436713 0.999181
O O5 0.173652 0.430269 0.662331
O O6 0.085612 0.635742 0.713560
O O7 0.436173 0.317340 0.443666
O O8 0.322459 0.170006 0.406589
O O9 0.328376 0.421916 0.520631
O O10 0.967945 0.628476 0.078114
O O11 0.115320 0.096394 0.849664
O O12 0.872651 0.835710 0.547364
O O13 0.939087 0.932775 0.403158
O O14 0.500000 0.750000 0.407473
O O15 0.501102 0.500000 0.750000
#
# Coordination Sequence:
#
# PCOD9334564 Si02
#       8
#     8   4   8   4   8   8   8   8
#     4  10  20  40  64  94 120 173 222 263 333 403
#     4  10  24  36  58  88 122 170 212 272 328 398
#     4  10  21  40  61  93 128 163 217 271 334 397
#     4  10  22  38  64  96 134 168 212 286 334 390
#     4  10  21  39  66  90 126 174 225 270 332 411
#     4   9  20  39  66  91 127 163 211 275 329 394
#     4  10  21  37  61  90 122 167 221 271 334 388
#     4  11  22  37  66  98 132 168 220 276 334 391
#
# _framework density 23.196573000000001
#
# number of rings (size 3 to 8) (size 9 to 14) (size 15 to 20)
#    0.000    2.000    1.429    2.143    7.000    0.571 
#    2.571    8.571    1.571    0.000    0.000    0.000 
#    0.000    0.000    0.000    0.000    0.000    0.000 
#
# Total GULP energy -156097.205064 kJ/mol
# GULP energy per Si atom -5574.900181 kJ/mol
# Density = 2.314378 g / cm^3
# Si number density = 23.196573 Si / 1000 Ang^3
#
#
#
# Elastic Constant Matrix: (Units=GPa)
#
#
# Indices 1 2 3 4 5 6 
#
# 1 103.1182 52.8948 15.9956 0.0000 0.0000 0.0000
# 2 52.8948 190.9303 33.5065 0.0000 0.0000 0.0000
# 3 15.9956 33.5065 86.1998 0.0000 0.0000 0.0000
# 4 0.0000 0.0000 0.0000 7.2204 0.0000 0.0000
# 5 0.0000 0.0000 0.0000 0.0000 -32.7675 0.0000
# 6 0.0000 0.0000 0.0000 0.0000 0.0000 24.3273
#
#
#
# Elastic Compliance Matrix: (Units=1/GPa)
#
#
# Indices 1 2 3 4 5 6 
#
# 1 0.011376 -0.002985 -0.000951 0.000000 0.000000 0.000000
# 2 -0.002985 0.006404 -0.001935 0.000000 0.000000 0.000000
# 3 -0.000951 -0.001935 0.012530 0.000000 0.000000 0.000000
# 4 0.000000 0.000000 0.000000 0.138496 0.000000 0.000000
# 5 0.000000 0.000000 0.000000 0.000000 -0.030518 0.000000
# 6 0.000000 0.000000 0.000000 0.000000 0.000000 0.041106
#
#
# Mechanical properties :
#
#
# Convention : Reuss Voigt Hill
#
# Bulk Modulus (GPa) = 53.85639 65.00468 59.43053
# Shear Modulus (GPa) = 25.33888 18.27945 21.80917
#
# Velocity S-wave (km/s) = 3.30866 2.81022 3.06958
# Velocity P-wave (km/s) = 6.15338 6.21402 6.18378
#
# Compressibility (1/GPa) = 0.01856790
#
# Stress axis : x y z
#
# Youngs Moduli (GPa) = 87.90333 156.15105 79.81030
#
# Poissons Ratio (x) = 0.46607 0.07588
# Poissons Ratio (y) = 0.26237 0.15447
# Poissons Ratio (z) = 0.08358 0.30222
#
# Static dielectric constant tensor:
#      x y z
#    x 1.958510 0.000000 0.000000 
#    y 0.000000 1.941530 0.000000 
#    z 0.000000 0.000000 1.933860 
# 
# From -- ./inp_files/27588.got.cif
#   From: 2010.05.17/outbox.cif.g08.bks.cpg/sg24_14_cif.got.tgz:27588.got - 2010.06.04 00:33:39.
