data_PCOD9335627
_publ_section_title
;
Structure prediction by ZEFSAII (Michael W. Deem and Ramdas Pophale) SiO2 
 PCOD9335627
Probable space group: I 21 21 21
;
_chemical_formula_sum "Si O2"
_cell_formula_units_Z 52
_cell_length_a 20.045920
_cell_length_b 15.365890
_cell_length_c 8.230182
_cell_angle_alpha 90.000000
_cell_angle_beta 90.000000
_cell_angle_gamma 90.000000
_cell_volume 2535.088656
_symmetry_space_group_name_H-M "I 21 21 21"
_symmetry_group_IT_number 24
_symmetry_cell_setting 'orthorhombic'
loop_
_space_group_symop_operation_xyz
x,y,z
-x,1/2-y,z
x,-y,1/2-z
1/2-x,y,-z
1/2+x,1/2+y,1/2+z
1/2-x,-y,1/2+z
1/2+x,1/2-y,-z
-x,1/2+y,1/2-z
loop_
_atom_site_type_symbol
_atom_site_label
_atom_site_fract_x
_atom_site_fract_y
_atom_site_fract_z
Si Si1 0.870816 0.734804 0.732892
Si Si2 0.000000 0.250000 0.988380
Si Si3 0.920116 0.736477 0.100467
Si Si4 0.180256 0.062260 0.906384
Si Si5 0.805345 0.909376 0.799624
Si Si6 0.560413 0.587727 0.659816
Si Si7 0.844646 0.909423 0.179789
O O1 0.936264 0.741945 0.624978
O O2 0.823582 0.659368 0.666791
O O3 0.837746 0.827445 0.719618
O O4 0.889995 0.722536 0.921698
O O5 0.993152 0.342683 0.084857
O O6 0.905737 0.651383 0.207449
O O7 0.888502 0.822016 0.186303
O O8 0.000000 0.750000 0.084028
O O9 0.173136 0.000000 0.750000
O O10 0.250000 0.046417 0.000000
O O11 0.116107 0.058221 0.027660
O O12 0.728626 0.904897 0.741406
O O13 0.836061 0.000000 0.750000
O O14 0.821853 0.909324 0.990956
O O15 0.535585 0.500000 0.750000
O O16 0.874325 0.000000 0.250000
#
# Coordination Sequence:
#
# PCOD9335627 Si02
#       7
#     8   4   8   8   8   8   8
#     4  10  22  42  67  94 131 177 221 282 340 404
#     4  10  22  44  62  94 132 174 234 270 344 418
#     4  11  22  41  66  94 132 177 225 272 331 410
#     4  11  25  45  69 100 130 174 227 286 348 418
#     4   9  19  39  59  94 125 163 207 259 328 396
#     4  11  24  44  66  95 133 175 223 282 339 405
#     4   9  20  37  62  90 127 161 207 265 322 386
#
# _framework density 20.512104999999998
#
# number of rings (size 3 to 8) (size 9 to 14) (size 15 to 20)
#    0.000    1.846    1.538    1.385    2.154    3.077 
#   11.077    0.769    0.000    0.000    0.000    0.000 
#    0.000    0.000    0.000    0.000    0.000    0.000 
#
# Total GULP energy -144892.818722 kJ/mol
# GULP energy per Si atom -5572.800720 kJ/mol
# Density = 2.046542 g / cm^3
# Si number density = 20.512105 Si / 1000 Ang^3
#
#
#
# Elastic Constant Matrix: (Units=GPa)
#
#
# Indices 1 2 3 4 5 6 
#
# 1 53.6002 28.7936 31.6482 0.0000 0.0000 0.0000
# 2 28.7936 169.5126 49.7199 0.0000 0.0000 0.0000
# 3 31.6482 49.7199 79.2890 0.0000 0.0000 0.0000
# 4 0.0000 0.0000 0.0000 49.8675 0.0000 0.0000
# 5 0.0000 0.0000 0.0000 0.0000 26.6498 0.0000
# 6 0.0000 0.0000 0.0000 0.0000 0.0000 22.0325
#
#
#
# Elastic Compliance Matrix: (Units=1/GPa)
#
#
# Indices 1 2 3 4 5 6 
#
# 1 0.024759 -0.001602 -0.008878 0.000000 0.000000 0.000000
# 2 -0.001602 0.007332 -0.003959 0.000000 0.000000 0.000000
# 3 -0.008878 -0.003959 0.018638 0.000000 0.000000 0.000000
# 4 0.000000 0.000000 0.000000 0.020053 0.000000 0.000000
# 5 0.000000 0.000000 0.000000 0.000000 0.037524 0.000000
# 6 0.000000 0.000000 0.000000 0.000000 0.000000 0.045387
#
#
# Mechanical properties :
#
#
# Convention : Reuss Voigt Hill
#
# Bulk Modulus (GPa) = 45.76086 58.08057 51.92072
# Shear Modulus (GPa) = 26.33579 32.52597 29.43088
#
# Velocity S-wave (km/s) = 3.58706 3.98640 3.79199
# Velocity P-wave (km/s) = 6.28599 7.04026 6.67379
#
# Compressibility (1/GPa) = 0.02185274
#
# Stress axis : x y z
#
# Youngs Moduli (GPa) = 40.38904 136.38027 53.65299
#
# Poissons Ratio (x) = 0.21841 0.47635
# Poissons Ratio (y) = 0.06468 0.21240
# Poissons Ratio (z) = 0.35859 0.53989
#
# Static dielectric constant tensor:
#      x y z
#    x 1.780710 0.000000 0.000000 
#    y 0.000000 1.729690 0.000000 
#    z 0.000000 0.000000 1.793480 
# 
# From -- ./inp_files/15171.got.cif
#   From: 2010.05.17/outbox.cif.g08.bks.cpg/sg24_8_cif.got.tgz:15171.got - 2010.06.04 00:33:39.
