data_PCOD9335053
_publ_section_title
;
Structure prediction by ZEFSAII (Michael W. Deem and Ramdas Pophale) SiO2 
 PCOD9335053
Probable space group: I 21 21 21
;
_chemical_formula_sum "Si O2"
_cell_formula_units_Z 44
_cell_length_a 5.063498
_cell_length_b 22.890467
_cell_length_c 18.420263
_cell_angle_alpha 90.000000
_cell_angle_beta 90.000000
_cell_angle_gamma 90.000000
_cell_volume 2135.015943
_symmetry_space_group_name_H-M "I 21 21 21"
_symmetry_group_IT_number 24
_symmetry_cell_setting 'orthorhombic'
loop_
_space_group_symop_operation_xyz
x,y,z
-x,1/2-y,z
x,-y,1/2-z
1/2-x,y,-z
1/2+x,1/2+y,1/2+z
1/2-x,-y,1/2+z
1/2+x,1/2-y,-z
-x,1/2+y,1/2-z
loop_
_atom_site_type_symbol
_atom_site_label
_atom_site_fract_x
_atom_site_fract_y
_atom_site_fract_z
Si Si1 0.010709 0.319357 0.303542
Si Si2 0.993119 0.680946 0.706109
Si Si3 0.203332 0.017476 0.172890
Si Si4 0.250000 0.497323 0.000000
Si Si5 0.177117 0.578447 0.625216
Si Si6 0.618728 0.586867 0.922900
O O1 0.295090 0.332292 0.269549
O O2 0.000000 0.250000 0.319812
O O3 0.792555 0.332280 0.241123
O O4 0.958597 0.358179 0.374411
O O5 0.100561 0.645482 0.636688
O O6 0.000000 0.750000 0.691583
O O7 0.479786 0.049957 0.183742
O O8 0.981662 0.059693 0.136337
O O9 0.086281 0.000000 0.250000
O O10 0.273076 0.958388 0.128763
O O11 0.412952 0.452266 0.050041
O O12 0.113412 0.542683 0.054049
O O13 0.750000 0.602783 0.000000
#
# Coordination Sequence:
#
# PCOD9335053 Si02
#       6
#     8   8   8   4   8   8
#     4  10  23  41  61  87 117 154 203 249 293 348
#     4  10  21  40  64  88 115 152 202 253 299 346
#     4  11  22  35  58  87 116 152 205 243 297 347
#     4  10  24  38  56  86 128 154 202 232 306 366
#     4  11  21  37  58  85 118 156 187 248 300 354
#     4  11  22  39  57  84 124 163 193 247 293 361
#
# _framework density 20.608744999999999
#
# number of rings (size 3 to 8) (size 9 to 14) (size 15 to 20)
#    0.000    1.455    1.818    3.818    2.545    1.455 
#    1.636    0.000    0.000    7.636    0.000    0.000 
#    0.000    0.000    0.000    0.000    0.000    0.000 
#
# Total GULP energy -122574.238097 kJ/mol
# GULP energy per Si atom -5571.556277 kJ/mol
# Density = 2.056184 g / cm^3
# Si number density = 20.608745 Si / 1000 Ang^3
#
#
#
# Elastic Constant Matrix: (Units=GPa)
#
#
# Indices 1 2 3 4 5 6 
#
# 1 70.9809 25.7297 4.0367 0.0000 0.0000 0.0000
# 2 25.7297 114.9229 51.6887 0.0000 0.0000 0.0000
# 3 4.0367 51.6887 48.5506 0.0000 0.0000 0.0000
# 4 0.0000 0.0000 0.0000 42.0417 0.0000 0.0000
# 5 0.0000 0.0000 0.0000 0.0000 27.3747 0.0000
# 6 0.0000 0.0000 0.0000 0.0000 0.0000 -7.9097
#
#
#
# Elastic Compliance Matrix: (Units=1/GPa)
#
#
# Indices 1 2 3 4 5 6 
#
# 1 0.015879 -0.005682 0.004729 0.000000 0.000000 0.000000
# 2 -0.005682 0.018730 -0.019468 0.000000 0.000000 0.000000
# 3 0.004729 -0.019468 0.040930 0.000000 0.000000 0.000000
# 4 0.000000 0.000000 0.000000 0.023786 0.000000 0.000000
# 5 0.000000 0.000000 0.000000 0.000000 0.036530 0.000000
# 6 0.000000 0.000000 0.000000 0.000000 0.000000 -0.126426
#
#
# Mechanical properties :
#
#
# Convention : Reuss Voigt Hill
#
# Bulk Modulus (GPa) = 28.82087 44.15163 36.48625
# Shear Modulus (GPa) = 80.85978 22.50129 51.68054
#
# Velocity S-wave (km/s) = 6.27063 3.30787 5.01313
# Velocity P-wave (km/s) = 8.15125 6.00497 7.15900
#
# Compressibility (1/GPa) = 0.03469707
#
# Stress axis : x y z
#
# Youngs Moduli (GPa) = 62.97603 53.39137 24.43202
#
# Poissons Ratio (x) = 0.30338 -0.11554
# Poissons Ratio (y) = 0.35784 0.47564
# Poissons Ratio (z) = -0.29782 1.03941
#
# Static dielectric constant tensor:
#      x y z
#    x 1.801360 0.000000 0.000000 
#    y 0.000000 1.789850 0.000000 
#    z 0.000000 0.000000 1.797320 
# 
# From -- ./inp_files/32106.got.cif
#   From: 2010.05.17/outbox.cif.g08.bks.cpg/sg24_17_cif.got.tgz:32106.got - 2010.06.04 00:33:39.
