data_PCOD9335770
_publ_section_title
;
Structure prediction by ZEFSAII (Michael W. Deem and Ramdas Pophale) SiO2 
 PCOD9335770
Probable space group: I 21 21 21
;
_chemical_formula_sum "Si O2"
_cell_formula_units_Z 36
_cell_length_a 4.861620
_cell_length_b 21.535631
_cell_length_c 12.073709
_cell_angle_alpha 90.000000
_cell_angle_beta 90.000000
_cell_angle_gamma 90.000000
_cell_volume 1264.093841
_symmetry_space_group_name_H-M "I 21 21 21"
_symmetry_group_IT_number 24
_symmetry_cell_setting 'orthorhombic'
loop_
_space_group_symop_operation_xyz
x,y,z
-x,1/2-y,z
x,-y,1/2-z
1/2-x,y,-z
1/2+x,1/2+y,1/2+z
1/2-x,-y,1/2+z
1/2+x,1/2-y,-z
-x,1/2+y,1/2-z
loop_
_atom_site_type_symbol
_atom_site_label
_atom_site_fract_x
_atom_site_fract_y
_atom_site_fract_z
Si Si1 0.997991 0.565542 0.917955
Si Si2 0.919497 0.350003 0.179445
Si Si3 0.196860 0.693715 0.867120
Si Si4 0.886640 0.070449 0.878139
Si Si5 0.750000 0.747180 0.500000
O O1 0.022476 0.629930 0.854388
O O2 0.000501 0.498612 0.862293
O O3 0.750000 0.569866 0.000000
O O4 0.250000 0.564559 0.000000
O O5 0.031991 0.314915 0.290173
O O6 0.118476 0.410220 0.189944
O O7 0.989862 0.303754 0.072881
O O8 0.632443 0.380872 0.141203
O O9 0.000000 0.750000 0.835295
O O10 0.250000 0.700189 0.000000
O O11 0.750000 0.073984 0.000000
O O12 0.500000 0.750000 0.409604
#
# Coordination Sequence:
#
# PCOD9335770 Si02
#       5
#     8   8   8   8   4
#     4  10  22  44  80 120 165 228 285 355 430 510
#     4  12  26  47  83 123 167 223 281 357 445 514
#     4  11  28  54  83 118 176 241 303 355 414 511
#     4  11  21  45  80 125 172 212 276 364 449 521
#     4  12  26  48  78 120 172 212 276 350 434 530
#
# _framework density 28.478898999999998
#
# number of rings (size 3 to 8) (size 9 to 14) (size 15 to 20)
#    0.000    0.889    2.222    4.667    0.000    9.778 
#    0.000    2.222    0.000    0.000    0.000    0.000 
#    0.000    0.000    0.000    0.000    0.000    0.000 
#
# Total GULP energy -100412.548529 kJ/mol
# GULP energy per Si atom -5578.474918 kJ/mol
# Density = 2.841408 g / cm^3
# Si number density = 28.478899 Si / 1000 Ang^3
#
#
#
# Elastic Constant Matrix: (Units=GPa)
#
#
# Indices 1 2 3 4 5 6 
#
# 1 301.6043 92.1240 76.0046 0.0000 0.0000 0.0000
# 2 92.1240 272.7863 64.6449 0.0000 0.0000 0.0000
# 3 76.0046 64.6449 230.1982 0.0000 0.0000 0.0000
# 4 0.0000 0.0000 0.0000 -31.5816 0.0000 0.0000
# 5 0.0000 0.0000 0.0000 0.0000 57.4202 0.0000
# 6 0.0000 0.0000 0.0000 0.0000 0.0000 52.7590
#
#
#
# Elastic Compliance Matrix: (Units=1/GPa)
#
#
# Indices 1 2 3 4 5 6 
#
# 1 0.003894 -0.001082 -0.000982 0.000000 0.000000 0.000000
# 2 -0.001082 0.004228 -0.000830 0.000000 0.000000 0.000000
# 3 -0.000982 -0.000830 0.004901 0.000000 0.000000 0.000000
# 4 0.000000 0.000000 0.000000 -0.031664 0.000000 0.000000
# 5 0.000000 0.000000 0.000000 0.000000 0.017415 0.000000
# 6 0.000000 0.000000 0.000000 0.000000 0.000000 0.018954
#
#
# Mechanical properties :
#
#
# Convention : Reuss Voigt Hill
#
# Bulk Modulus (GPa) = 138.21511 141.12622 139.67067
# Shear Modulus (GPa) = 192.84215 53.84054 123.34135
#
# Velocity S-wave (km/s) = 8.23778 4.35275 6.58815
# Velocity P-wave (km/s) = 11.79488 8.65588 10.34513
#
# Compressibility (1/GPa) = 0.00723510
#
# Stress axis : x y z
#
# Youngs Moduli (GPa) = 256.83512 236.51444 204.02916
#
# Poissons Ratio (x) = 0.25598 0.20028
# Poissons Ratio (y) = 0.27797 0.16934
# Poissons Ratio (z) = 0.25211 0.19631
#
# Static dielectric constant tensor:
#      x y z
#    x 1.525000 0.000000 0.000000 
#    y 0.000000 2.212060 0.000000 
#    z 0.000000 0.000000 2.329370 
# 
# From -- ./inp_files/23635.got.cif
#   From: 2010.05.17/outbox.cif.g08.bks.cpg/sg24_12_cif.got.tgz:23635.got - 2010.06.04 00:33:39.
