data_PCOD9335995
_publ_section_title
;
Structure prediction by ZEFSAII (Michael W. Deem and Ramdas Pophale) SiO2 
 PCOD9335995
Probable space group: I 21 21 21
;
_chemical_formula_sum "Si O2"
_cell_formula_units_Z 40
_cell_length_a 24.067081
_cell_length_b 7.435705
_cell_length_c 9.109478
_cell_angle_alpha 90.000000
_cell_angle_beta 90.000000
_cell_angle_gamma 90.000000
_cell_volume 1630.193144
_symmetry_space_group_name_H-M "I 21 21 21"
_symmetry_group_IT_number 24
_symmetry_cell_setting 'orthorhombic'
loop_
_space_group_symop_operation_xyz
x,y,z
-x,1/2-y,z
x,-y,1/2-z
1/2-x,y,-z
1/2+x,1/2+y,1/2+z
1/2-x,-y,1/2+z
1/2+x,1/2-y,-z
-x,1/2+y,1/2-z
loop_
_atom_site_type_symbol
_atom_site_label
_atom_site_fract_x
_atom_site_fract_y
_atom_site_fract_z
Si Si1 0.194988 0.989429 0.576254
Si Si2 0.926759 0.140242 0.007075
Si Si3 0.505023 0.500000 0.250000
Si Si4 0.579048 0.574534 0.004396
Si Si5 0.307822 0.442249 0.076526
Si Si6 0.500000 0.750000 0.764185
O O1 0.250000 0.057912 0.500000
O O2 0.144248 0.107219 0.515019
O O3 0.193201 0.774478 0.554456
O O4 0.195608 0.000000 0.750000
O O5 0.964191 0.127534 0.151624
O O6 0.965174 0.079104 0.873427
O O7 0.919998 0.356345 0.998438
O O8 0.869293 0.028487 0.996303
O O9 0.547460 0.623210 0.154795
O O10 0.546078 0.659623 0.869982
O O11 0.308918 0.500000 0.250000
O O12 0.250000 0.507523 0.000000
#
# Coordination Sequence:
#
# PCOD9335995 Si02
#       6
#     8   8   4   8   8   4
#     4  10  23  44  72  99 136 185 242 298 357 426
#     4  11  24  45  68 102 141 191 239 297 363 436
#     4  12  22  42  72  92 142 192 240 286 360 436
#     4  11  25  43  68 104 142 190 237 302 358 436
#     4  10  23  46  70  98 137 184 241 302 360 425
#     4  12  26  42  70 108 152 182 238 302 364 428
#
# _framework density 24.536971000000001
#
# number of rings (size 3 to 8) (size 9 to 14) (size 15 to 20)
#    0.000    1.200    4.000    0.600    2.800    5.600 
#    3.600    0.000    0.000    0.000    0.000    0.000 
#    0.000    0.000    0.000    0.000    0.000    0.000 
#
# Total GULP energy -111742.064755 kJ/mol
# GULP energy per Si atom -5587.103238 kJ/mol
# Density = 2.448112 g / cm^3
# Si number density = 24.536971 Si / 1000 Ang^3
#
#
#
# Elastic Constant Matrix: (Units=GPa)
#
#
# Indices 1 2 3 4 5 6 
#
# 1 296.0500 49.5854 134.0709 0.0000 0.0000 0.0000
# 2 49.5854 81.1848 40.9197 0.0000 0.0000 0.0000
# 3 134.0709 40.9197 202.7345 0.0000 0.0000 0.0000
# 4 0.0000 0.0000 0.0000 48.5875 0.0000 0.0000
# 5 0.0000 0.0000 0.0000 0.0000 168.0987 0.0000
# 6 0.0000 0.0000 0.0000 0.0000 0.0000 20.5204
#
#
#
# Elastic Compliance Matrix: (Units=1/GPa)
#
#
# Indices 1 2 3 4 5 6 
#
# 1 0.004989 -0.001541 -0.002988 0.000000 0.000000 0.000000
# 2 -0.001541 0.014189 -0.001845 0.000000 0.000000 0.000000
# 3 -0.002988 -0.001845 0.007281 0.000000 0.000000 0.000000
# 4 0.000000 0.000000 0.000000 0.020581 0.000000 0.000000
# 5 0.000000 0.000000 0.000000 0.000000 0.005949 0.000000
# 6 0.000000 0.000000 0.000000 0.000000 0.000000 0.048732
#
#
# Mechanical properties :
#
#
# Convention : Reuss Voigt Hill
#
# Bulk Modulus (GPa) = 72.93573 114.34680 93.64126
# Shear Modulus (GPa) = 42.00269 71.13422 56.56845
#
# Velocity S-wave (km/s) = 4.14189 5.39014 4.80671
# Velocity P-wave (km/s) = 7.25693 9.24343 8.30976
#
# Compressibility (1/GPa) = 0.01371070
#
# Stress axis : x y z
#
# Youngs Moduli (GPa) = 200.42998 70.47921 137.34047
#
# Poissons Ratio (x) = 0.10861 0.41043
# Poissons Ratio (y) = 0.30887 0.25335
# Poissons Ratio (z) = 0.59897 0.13001
#
# Static dielectric constant tensor:
#      x y z
#    x 2.021100 0.000000 0.000000 
#    y 0.000000 1.931690 0.000000 
#    z 0.000000 0.000000 1.876920 
# 
# From -- ./inp_files/15665.got.cif
#   From: 2010.05.17/outbox.cif.g08.bks.cpg/sg24_8_cif.got.tgz:15665.got - 2010.06.04 00:33:39.
