data_PCOD9335707
_publ_section_title
;
Structure prediction by ZEFSAII (Michael W. Deem and Ramdas Pophale) SiO2 
 PCOD9335707
Probable space group: I 21 21 21
;
_chemical_formula_sum "Si O2"
_cell_formula_units_Z 40
_cell_length_a 5.345049
_cell_length_b 18.241359
_cell_length_c 18.595577
_cell_angle_alpha 90.000000
_cell_angle_beta 90.000000
_cell_angle_gamma 90.000000
_cell_volume 1813.086566
_symmetry_space_group_name_H-M "I 21 21 21"
_symmetry_group_IT_number 24
_symmetry_cell_setting 'orthorhombic'
loop_
_space_group_symop_operation_xyz
x,y,z
-x,1/2-y,z
x,-y,1/2-z
1/2-x,y,-z
1/2+x,1/2+y,1/2+z
1/2-x,-y,1/2+z
1/2+x,1/2-y,-z
-x,1/2+y,1/2-z
loop_
_atom_site_type_symbol
_atom_site_label
_atom_site_fract_x
_atom_site_fract_y
_atom_site_fract_z
Si Si1 0.735833 0.110681 0.581436
Si Si2 0.469045 0.983147 0.664196
Si Si3 0.500000 0.750000 0.451652
Si Si4 0.399318 0.166890 0.307379
Si Si5 0.977492 0.892132 0.650666
Si Si6 0.500000 0.750000 0.868801
O O1 0.750000 0.084333 0.500000
O O2 0.652587 0.195893 0.580086
O O3 0.988282 0.117250 0.629217
O O4 0.549860 0.055900 0.622156
O O5 0.208611 0.947860 0.637542
O O6 0.704508 0.929068 0.650106
O O7 0.448993 0.000000 0.750000
O O8 0.250000 0.752141 0.500000
O O9 0.509355 0.822627 0.402002
O O10 0.500000 0.250000 0.314461
O O11 0.474824 0.134857 0.231923
O O12 0.112016 0.187899 0.316208
#
# Coordination Sequence:
#
# PCOD9335707 Si02
#       6
#     8   8   4   8   8   4
#     4  11  26  44  68 103 148 188 236 298 367 438
#     4  12  26  46  74 110 149 195 249 303 370 450
#     4  12  28  51  77 112 152 196 256 326 386 447
#     4  10  22  43  71 107 134 183 244 300 358 431
#     4  12  26  47  80 106 147 194 249 308 374 444
#     4  10  24  41  71 100 140 182 242 290 360 435
#
# _framework density 22.061824000000001
#
# number of rings (size 3 to 8) (size 9 to 14) (size 15 to 20)
#    0.000    0.800    3.000    3.000    9.800    3.200 
#    0.000    0.000    0.000    0.000    0.000    0.000 
#    0.000    0.000    0.000    0.000    0.000    0.000 
#
# Total GULP energy -111650.476062 kJ/mol
# GULP energy per Si atom -5582.523803 kJ/mol
# Density = 2.201161 g / cm^3
# Si number density = 22.061824 Si / 1000 Ang^3
#
#
#
# Elastic Constant Matrix: (Units=GPa)
#
#
# Indices 1 2 3 4 5 6 
#
# 1 75.0439 34.7792 17.4989 0.0000 0.0000 0.0000
# 2 34.7792 128.6721 40.7719 0.0000 0.0000 0.0000
# 3 17.4989 40.7719 120.3987 0.0000 0.0000 0.0000
# 4 0.0000 0.0000 0.0000 5.8053 0.0000 0.0000
# 5 0.0000 0.0000 0.0000 0.0000 14.0890 0.0000
# 6 0.0000 0.0000 0.0000 0.0000 0.0000 43.4648
#
#
#
# Elastic Compliance Matrix: (Units=1/GPa)
#
#
# Indices 1 2 3 4 5 6 
#
# 1 0.015325 -0.003850 -0.000924 0.000000 0.000000 0.000000
# 2 -0.003850 0.009673 -0.002716 0.000000 0.000000 0.000000
# 3 -0.000924 -0.002716 0.009360 0.000000 0.000000 0.000000
# 4 0.000000 0.000000 0.000000 0.172256 0.000000 0.000000
# 5 0.000000 0.000000 0.000000 0.000000 0.070977 0.000000
# 6 0.000000 0.000000 0.000000 0.000000 0.000000 0.023007
#
#
# Mechanical properties :
#
#
# Convention : Reuss Voigt Hill
#
# Bulk Modulus (GPa) = 51.60271 56.69052 54.14662
# Shear Modulus (GPa) = 15.52622 28.07614 21.80118
#
# Velocity S-wave (km/s) = 2.65572 3.57124 3.14695
# Velocity P-wave (km/s) = 5.73103 6.53888 6.14824
#
# Compressibility (1/GPa) = 0.01937883
#
# Stress axis : x y z
#
# Youngs Moduli (GPa) = 65.25280 103.38221 106.84005
#
# Poissons Ratio (x) = 0.39797 0.09869
# Poissons Ratio (y) = 0.25119 0.29019
# Poissons Ratio (z) = 0.06028 0.28080
#
# Static dielectric constant tensor:
#      x y z
#    x 2.251340 0.000000 0.000000 
#    y 0.000000 1.813300 0.000000 
#    z 0.000000 0.000000 1.839920 
# 
# From -- ./inp_files/28637.got.cif
#   From: 2010.05.17/outbox.cif.g08.bks.cpg/sg24_15_cif.got.tgz:28637.got - 2010.06.04 00:33:39.
