data_PCOD9335019
_publ_section_title
;
Structure prediction by ZEFSAII (Michael W. Deem and Ramdas Pophale) SiO2 
 PCOD9335019
Probable space group: I 21 21 21
;
_chemical_formula_sum "Si O2"
_cell_formula_units_Z 36
_cell_length_a 14.245168
_cell_length_b 16.896805
_cell_length_c 7.467561
_cell_angle_alpha 90.000000
_cell_angle_beta 90.000000
_cell_angle_gamma 90.000000
_cell_volume 1797.425697
_symmetry_space_group_name_H-M "I 21 21 21"
_symmetry_group_IT_number 24
_symmetry_cell_setting 'orthorhombic'
loop_
_space_group_symop_operation_xyz
x,y,z
-x,1/2-y,z
x,-y,1/2-z
1/2-x,y,-z
1/2+x,1/2+y,1/2+z
1/2-x,-y,1/2+z
1/2+x,1/2-y,-z
-x,1/2+y,1/2-z
loop_
_atom_site_type_symbol
_atom_site_label
_atom_site_fract_x
_atom_site_fract_y
_atom_site_fract_z
Si Si1 0.454829 0.500000 0.750000
Si Si2 0.361788 0.790919 0.002046
Si Si3 0.628215 0.840370 0.289654
Si Si4 0.352900 0.661121 0.707444
Si Si5 0.471524 0.946559 0.101107
O O1 0.396611 0.579785 0.775314
O O2 0.509397 0.504463 0.564737
O O3 0.388866 0.738220 0.174092
O O4 0.415594 0.872756 0.019917
O O5 0.250000 0.804714 0.000000
O O6 0.381270 0.735578 0.829696
O O7 0.615267 0.828869 0.501855
O O8 0.740753 0.852473 0.274541
O O9 0.563773 0.908993 0.201598
O O10 0.420999 0.000000 0.250000
#
# Coordination Sequence:
#
# PCOD9335019 Si02
#       5
#     4   8   8   8   8
#     4  12  24  36  60 100 136 168 206 274 326 382
#     4  10  23  46  67  89 129 177 224 269 322 385
#     4  10  21  39  67  96 127 168 213 265 328 399
#     4  10  22  38  65  98 129 169 210 265 333 393
#     4  12  25  42  62  99 133 172 221 271 325 385
#
# _framework density 20.028645000000001
#
# number of rings (size 3 to 8) (size 9 to 14) (size 15 to 20)
#    0.000    1.333    4.444    0.667    1.556    1.778 
#    6.000    0.000    0.000    0.000    0.000    0.000 
#    0.000    0.000    0.000    0.000    0.000    0.000 
#
# Total GULP energy -100472.138615 kJ/mol
# GULP energy per Si atom -5581.785479 kJ/mol
# Density = 1.998306 g / cm^3
# Si number density = 20.028645 Si / 1000 Ang^3
#
#
#
# Elastic Constant Matrix: (Units=GPa)
#
#
# Indices 1 2 3 4 5 6 
#
# 1 56.7334 30.2202 32.7326 0.0000 0.0000 0.0000
# 2 30.2202 101.1254 39.1011 0.0000 0.0000 0.0000
# 3 32.7326 39.1011 138.0063 0.0000 0.0000 0.0000
# 4 0.0000 0.0000 0.0000 33.5061 0.0000 0.0000
# 5 0.0000 0.0000 0.0000 0.0000 -6.6770 0.0000
# 6 0.0000 0.0000 0.0000 0.0000 0.0000 46.5574
#
#
#
# Elastic Compliance Matrix: (Units=1/GPa)
#
#
# Indices 1 2 3 4 5 6 
#
# 1 0.022677 -0.005275 -0.003884 0.000000 0.000000 0.000000
# 2 -0.005275 0.012332 -0.002243 0.000000 0.000000 0.000000
# 3 -0.003884 -0.002243 0.008803 0.000000 0.000000 0.000000
# 4 0.000000 0.000000 0.000000 0.029845 0.000000 0.000000
# 5 0.000000 0.000000 0.000000 0.000000 -0.149768 0.000000
# 6 0.000000 0.000000 0.000000 0.000000 0.000000 0.021479
#
#
# Mechanical properties :
#
#
# Convention : Reuss Voigt Hill
#
# Bulk Modulus (GPa) = 47.60049 55.55252 51.57651
# Shear Modulus (GPa) = -201.40718 27.59805 -86.90456
#
# Velocity S-wave (km/s) = -10.03882 3.71607 -6.59427
# Velocity P-wave (km/s) = 10.51440 6.79772 5.67202
#
# Compressibility (1/GPa) = 0.02100819
#
# Stress axis : x y z
#
# Youngs Moduli (GPa) = 44.09745 81.08753 113.60069
#
# Poissons Ratio (x) = 0.42774 0.44123
# Poissons Ratio (y) = 0.23261 0.25480
# Poissons Ratio (z) = 0.17128 0.18188
#
# Static dielectric constant tensor:
#      x y z
#    x 1.741180 0.000000 0.000000 
#    y 0.000000 1.682170 0.000000 
#    z 0.000000 0.000000 1.720790 
# 
# From -- ./inp_files/12201.got.cif
#   From: 2010.05.17/outbox.cif.g08.bks.cpg/sg24_7_cif.got.tgz:12201.got - 2010.06.04 00:33:39.
