data_PCOD9335103
_publ_section_title
;
Structure prediction by ZEFSAII (Michael W. Deem and Ramdas Pophale) SiO2 
 PCOD9335103
Probable space group: I 21 21 21
;
_chemical_formula_sum "Si O2"
_cell_formula_units_Z 48
_cell_length_a 7.770722
_cell_length_b 10.415489
_cell_length_c 31.150999
_cell_angle_alpha 90.000000
_cell_angle_beta 90.000000
_cell_angle_gamma 90.000000
_cell_volume 2521.233190
_symmetry_space_group_name_H-M "I 21 21 21"
_symmetry_group_IT_number 24
_symmetry_cell_setting 'orthorhombic'
loop_
_space_group_symop_operation_xyz
x,y,z
-x,1/2-y,z
x,-y,1/2-z
1/2-x,y,-z
1/2+x,1/2+y,1/2+z
1/2-x,-y,1/2+z
1/2+x,1/2-y,-z
-x,1/2+y,1/2-z
loop_
_atom_site_type_symbol
_atom_site_label
_atom_site_fract_x
_atom_site_fract_y
_atom_site_fract_z
Si Si1 0.982734 0.107001 0.286343
Si Si2 0.323477 0.524739 0.157886
Si Si3 0.706188 0.484863 0.345989
Si Si4 0.106827 0.365845 0.967024
Si Si5 0.515897 0.391171 0.422537
Si Si6 0.203338 0.265040 0.118784
O O1 0.141887 0.069141 0.317183
O O2 0.000000 0.250000 0.268178
O O3 0.808989 0.103026 0.314140
O O4 0.972350 0.000000 0.250000
O O5 0.517699 0.520644 0.176170
O O6 0.356792 0.585648 0.110762
O O7 0.245976 0.383088 0.150551
O O8 0.677323 0.405171 0.390154
O O9 0.734426 0.631283 0.360992
O O10 0.194404 0.302718 0.924606
O O11 0.000000 0.250000 0.987579
O O12 0.992075 0.487228 0.953557
O O13 0.250000 0.411117 0.000000
O O14 0.500000 0.250000 0.441675
O O15 0.000000 0.250000 0.110989
#
# Coordination Sequence:
#
# PCOD9335103 Si02
#       6
#     8   8   8   8   8   8
#     4  12  27  42  61  93 129 162 204 262 328 379
#     4   9  21  38  64  87 122 159 212 260 301 373
#     4  10  21  40  68  87 121 164 212 259 306 373
#     4  11  21  37  58  94 131 163 205 264 319 375
#     4   9  19  39  67  86 116 168 214 256 303 370
#     4  11  18  36  67  98 117 164 214 258 306 372
#
# _framework density 19.038301000000001
#
# number of rings (size 3 to 8) (size 9 to 14) (size 15 to 20)
#    1.000    0.667    3.333    2.000    2.333    0.667 
#    0.000    0.833    0.000    0.000    0.000    0.000 
#    0.000    0.000    0.000    0.000    0.000    0.000 
#
# Total GULP energy -133767.550316 kJ/mol
# GULP energy per Si atom -5573.647930 kJ/mol
# Density = 1.899497 g / cm^3
# Si number density = 19.038301 Si / 1000 Ang^3
#
#
#
# Elastic Constant Matrix: (Units=GPa)
#
#
# Indices 1 2 3 4 5 6 
#
# 1 74.1356 -6.7914 -8.0052 0.0000 0.0000 0.0000
# 2 -6.7914 118.0531 1.9450 0.0000 0.0000 0.0000
# 3 -8.0052 1.9450 23.2462 0.0000 0.0000 0.0000
# 4 0.0000 0.0000 0.0000 6.2168 0.0000 0.0000
# 5 0.0000 0.0000 0.0000 0.0000 8.5513 0.0000
# 6 0.0000 0.0000 0.0000 0.0000 0.0000 12.0303
#
#
#
# Elastic Compliance Matrix: (Units=1/GPa)
#
#
# Indices 1 2 3 4 5 6 
#
# 1 0.014072 0.000731 0.004785 0.000000 0.000000 0.000000
# 2 0.000731 0.008520 -0.000461 0.000000 0.000000 0.000000
# 3 0.004785 -0.000461 0.044704 0.000000 0.000000 0.000000
# 4 0.000000 0.000000 0.000000 0.160853 0.000000 0.000000
# 5 0.000000 0.000000 0.000000 0.000000 0.116941 0.000000
# 6 0.000000 0.000000 0.000000 0.000000 0.000000 0.083123
#
#
# Mechanical properties :
#
#
# Convention : Reuss Voigt Hill
#
# Bulk Modulus (GPa) = 12.91893 21.08128 17.00011
# Shear Modulus (GPa) = 11.26361 20.57880 15.92121
#
# Velocity S-wave (km/s) = 2.43498 3.29130 2.89497
# Velocity P-wave (km/s) = 3.83484 5.05377 4.48590
#
# Compressibility (1/GPa) = 0.07740577
#
# Stress axis : x y z
#
# Youngs Moduli (GPa) = 71.06099 117.36534 22.36931
#
# Poissons Ratio (x) = -0.08576 -0.10704
# Poissons Ratio (y) = -0.05193 0.01032
# Poissons Ratio (z) = -0.34002 0.05413
#
# Static dielectric constant tensor:
#      x y z
#    x 1.680490 0.000000 0.000000 
#    y 0.000000 1.686330 0.000000 
#    z 0.000000 0.000000 1.646020 
# 
# From -- ./inp_files/38287.got.cif
#   From: 2010.05.17/outbox.cif.g08.bks.cpg/sg24_20_cif.got.tgz:38287.got - 2010.06.04 00:33:39.
