data_PCOD9335530
_publ_section_title
;
Structure prediction by ZEFSAII (Michael W. Deem and Ramdas Pophale) SiO2 
 PCOD9335530
Probable space group: I 21 21 21
;
_chemical_formula_sum "Si O2"
_cell_formula_units_Z 40
_cell_length_a 25.132127
_cell_length_b 8.308361
_cell_length_c 8.553161
_cell_angle_alpha 90.000000
_cell_angle_beta 90.000000
_cell_angle_gamma 90.000000
_cell_volume 1785.958040
_symmetry_space_group_name_H-M "I 21 21 21"
_symmetry_group_IT_number 24
_symmetry_cell_setting 'orthorhombic'
loop_
_space_group_symop_operation_xyz
x,y,z
-x,1/2-y,z
x,-y,1/2-z
1/2-x,y,-z
1/2+x,1/2+y,1/2+z
1/2-x,-y,1/2+z
1/2+x,1/2-y,-z
-x,1/2+y,1/2-z
loop_
_atom_site_type_symbol
_atom_site_label
_atom_site_fract_x
_atom_site_fract_y
_atom_site_fract_z
Si Si1 0.212657 0.840869 0.652283
Si Si2 0.000000 0.250000 0.013170
Si Si3 0.041124 0.000000 0.250000
Si Si4 0.141003 0.828959 0.189029
Si Si5 0.804647 0.108543 0.565245
Si Si6 0.118527 0.685787 0.520039
O O1 0.250000 0.829505 0.500000
O O2 0.214022 0.693100 0.774733
O O3 0.152068 0.831477 0.593549
O O4 0.221978 0.000000 0.750000
O O5 0.008408 0.100025 0.128017
O O6 0.056975 0.288799 0.935766
O O7 0.081015 0.114223 0.349604
O O8 0.130633 0.709028 0.334785
O O9 0.164689 0.000000 0.250000
O O10 0.174516 0.747305 0.053480
O O11 0.750000 0.033760 0.500000
O O12 0.852848 0.980355 0.568822
#
# Coordination Sequence:
#
# PCOD9335530 Si02
#       6
#     8   4   4   8   8   8
#     4  12  27  48  72 101 144 190 247 303 379 448
#     4  10  22  40  70 102 152 186 252 296 354 420
#     4   8  20  36  68 106 138 194 240 296 344 422
#     4   9  20  41  69 102 146 183 240 294 353 426
#     4  12  25  42  71 104 145 192 237 302 373 439
#     4  11  24  43  68 104 148 189 246 303 357 434
#
# _framework density 22.396944000000001
#
# number of rings (size 3 to 8) (size 9 to 14) (size 15 to 20)
#    0.600    0.800    0.000    4.800    5.600    3.200 
#    0.000    4.000    0.000    0.000    0.000    0.000 
#    0.000    0.000    0.000    0.000    0.000    0.000 
#
# Total GULP energy -111604.798745 kJ/mol
# GULP energy per Si atom -5580.239937 kJ/mol
# Density = 2.234597 g / cm^3
# Si number density = 22.396944 Si / 1000 Ang^3
#
#
#
# Elastic Constant Matrix: (Units=GPa)
#
#
# Indices 1 2 3 4 5 6 
#
# 1 191.8213 47.9244 47.4358 0.0000 0.0000 0.0000
# 2 47.9244 126.2785 55.6181 0.0000 0.0000 0.0000
# 3 47.4358 55.6181 113.3905 0.0000 0.0000 0.0000
# 4 0.0000 0.0000 0.0000 42.6636 0.0000 0.0000
# 5 0.0000 0.0000 0.0000 0.0000 29.2710 0.0000
# 6 0.0000 0.0000 0.0000 0.0000 0.0000 24.5386
#
#
#
# Elastic Compliance Matrix: (Units=1/GPa)
#
#
# Indices 1 2 3 4 5 6 
#
# 1 0.006030 -0.001502 -0.001786 0.000000 0.000000 0.000000
# 2 -0.001502 0.010475 -0.004510 0.000000 0.000000 0.000000
# 3 -0.001786 -0.004510 0.011778 0.000000 0.000000 0.000000
# 4 0.000000 0.000000 0.000000 0.023439 0.000000 0.000000
# 5 0.000000 0.000000 0.000000 0.000000 0.034163 0.000000
# 6 0.000000 0.000000 0.000000 0.000000 0.000000 0.040752
#
#
# Mechanical properties :
#
#
# Convention : Reuss Voigt Hill
#
# Bulk Modulus (GPa) = 78.81266 81.49410 80.15338
# Shear Modulus (GPa) = 34.13824 37.99544 36.06684
#
# Velocity S-wave (km/s) = 3.90838 4.12327 4.01727
# Velocity P-wave (km/s) = 7.45873 7.68985 7.57517
#
# Compressibility (1/GPa) = 0.01268832
#
# Stress axis : x y z
#
# Youngs Moduli (GPa) = 165.83577 95.46262 84.90196
#
# Poissons Ratio (x) = 0.14337 0.15163
# Poissons Ratio (y) = 0.24907 0.38289
# Poissons Ratio (z) = 0.29617 0.43052
#
# Static dielectric constant tensor:
#      x y z
#    x 1.851210 0.000000 0.000000 
#    y 0.000000 1.930480 0.000000 
#    z 0.000000 0.000000 1.908560 
# 
# From -- ./inp_files/15655.got.cif
#   From: 2010.05.17/outbox.cif.g08.bks.cpg/sg24_8_cif.got.tgz:15655.got - 2010.06.04 00:33:39.
