data_PCOD9335940
_publ_section_title
;
Structure prediction by ZEFSAII (Michael W. Deem and Ramdas Pophale) SiO2 
 PCOD9335940
Probable space group: I 21 21 21
;
_chemical_formula_sum "Si O2"
_cell_formula_units_Z 56
_cell_length_a 18.257297
_cell_length_b 8.957693
_cell_length_c 14.849225
_cell_angle_alpha 90.000000
_cell_angle_beta 90.000000
_cell_angle_gamma 90.000000
_cell_volume 2428.490688
_symmetry_space_group_name_H-M "I 21 21 21"
_symmetry_group_IT_number 24
_symmetry_cell_setting 'orthorhombic'
loop_
_space_group_symop_operation_xyz
x,y,z
-x,1/2-y,z
x,-y,1/2-z
1/2-x,y,-z
1/2+x,1/2+y,1/2+z
1/2-x,-y,1/2+z
1/2+x,1/2-y,-z
-x,1/2+y,1/2-z
loop_
_atom_site_type_symbol
_atom_site_label
_atom_site_fract_x
_atom_site_fract_y
_atom_site_fract_z
Si Si1 0.316289 0.307705 0.635326
Si Si2 0.067051 0.656646 0.978864
Si Si3 0.575981 0.835644 0.707467
Si Si4 0.175058 0.186195 0.843749
Si Si5 0.329139 0.137687 0.368114
Si Si6 0.047582 0.402507 0.842337
Si Si7 0.706903 0.118253 0.905920
O O1 0.369790 0.351534 0.553353
O O2 0.367597 0.264727 0.719115
O O3 0.253286 0.191620 0.609013
O O4 0.277156 0.467569 0.650967
O O5 0.108018 0.755499 0.904058
O O6 0.000000 0.750000 0.018792
O O7 0.036191 0.511811 0.927400
O O8 0.500000 0.750000 0.698526
O O9 0.620667 0.852145 0.613633
O O10 0.562185 0.000000 0.750000
O O11 0.167962 0.153073 0.739001
O O12 0.256219 0.233447 0.867449
O O13 0.000000 0.250000 0.836006
O O14 0.127241 0.332505 0.860059
O O15 0.344423 0.966482 0.394350
O O16 0.041262 0.500000 0.750000
O O17 0.750000 0.096110 0.000000
#
# Coordination Sequence:
#
# PCOD9335940 Si02
#       7
#     8   8   8   8   8   8   8
#     4  11  23  44  71  99 136 186 242 294 357 432
#     4  12  25  44  67  99 140 190 240 290 357 439
#     4  10  23  43  69 101 136 185 233 288 356 429
#     4  11  24  40  67 103 136 175 232 292 355 422
#     4  11  23  41  68 101 137 180 234 293 356 430
#     4  12  25  41  67  98 142 191 238 298 357 439
#     4  11  23  43  70 103 139 177 234 296 359 431
#
# _framework density 23.059588999999999
#
# number of rings (size 3 to 8) (size 9 to 14) (size 15 to 20)
#    0.000    0.857    2.857    4.714    2.000    2.286 
#    0.000   10.714    0.000    0.000    0.000    0.000 
#    0.000    0.000    0.000    0.000    0.000    0.000 
#
# Total GULP energy -156300.112561 kJ/mol
# GULP energy per Si atom -5582.146877 kJ/mol
# Density = 2.300710 g / cm^3
# Si number density = 23.059589 Si / 1000 Ang^3
#
#
#
# Elastic Constant Matrix: (Units=GPa)
#
#
# Indices 1 2 3 4 5 6 
#
# 1 108.0928 38.0862 22.1860 0.0000 0.0000 0.0000
# 2 38.0862 97.0122 17.2141 0.0000 0.0000 0.0000
# 3 22.1860 17.2141 79.5950 0.0000 0.0000 0.0000
# 4 0.0000 0.0000 0.0000 -8.8721 0.0000 0.0000
# 5 0.0000 0.0000 0.0000 0.0000 157.5170 0.0000
# 6 0.0000 0.0000 0.0000 0.0000 0.0000 19.8871
#
#
#
# Elastic Compliance Matrix: (Units=1/GPa)
#
#
# Indices 1 2 3 4 5 6 
#
# 1 0.011107 -0.003963 -0.002239 0.000000 0.000000 0.000000
# 2 -0.003963 0.012134 -0.001519 0.000000 0.000000 0.000000
# 3 -0.002239 -0.001519 0.013516 0.000000 0.000000 0.000000
# 4 0.000000 0.000000 0.000000 -0.112713 0.000000 0.000000
# 5 0.000000 0.000000 0.000000 0.000000 0.006349 0.000000
# 6 0.000000 0.000000 0.000000 0.000000 0.000000 0.050284
#
#
# Mechanical properties :
#
#
# Convention : Reuss Voigt Hill
#
# Bulk Modulus (GPa) = 46.91775 48.85250 47.88512
# Shear Modulus (GPa) = 1550.70675 47.52065 799.11370
#
# Velocity S-wave (km/s) = 25.96031 4.54450 18.63586
# Velocity P-wave (km/s) = 30.31459 6.98341 21.99707
#
# Compressibility (1/GPa) = 0.02131390
#
# Stress axis : x y z
#
# Youngs Moduli (GPa) = 90.03076 82.41597 73.98506
#
# Poissons Ratio (x) = 0.32665 0.16564
# Poissons Ratio (y) = 0.35683 0.11241
# Poissons Ratio (z) = 0.20156 0.12522
#
# Static dielectric constant tensor:
#      x y z
#    x 1.920720 0.000000 0.000000 
#    y 0.000000 1.919610 0.000000 
#    z 0.000000 0.000000 1.901460 
# 
# From -- ./inp_files/26527.got.cif
#   From: 2010.05.17/outbox.cif.g08.bks.cpg/sg24_14_cif.got.tgz:26527.got - 2010.06.04 00:33:39.
