data_PCOD9335862
_publ_section_title
;
Structure prediction by ZEFSAII (Michael W. Deem and Ramdas Pophale) SiO2 
 PCOD9335862
Probable space group: I 21 21 21
;
_chemical_formula_sum "Si O2"
_cell_formula_units_Z 40
_cell_length_a 27.874375
_cell_length_b 8.388249
_cell_length_c 8.400920
_cell_angle_alpha 90.000000
_cell_angle_beta 90.000000
_cell_angle_gamma 90.000000
_cell_volume 1964.279577
_symmetry_space_group_name_H-M "I 21 21 21"
_symmetry_group_IT_number 24
_symmetry_cell_setting 'orthorhombic'
loop_
_space_group_symop_operation_xyz
x,y,z
-x,1/2-y,z
x,-y,1/2-z
1/2-x,y,-z
1/2+x,1/2+y,1/2+z
1/2-x,-y,1/2+z
1/2+x,1/2-y,-z
-x,1/2+y,1/2-z
loop_
_atom_site_type_symbol
_atom_site_label
_atom_site_fract_x
_atom_site_fract_y
_atom_site_fract_z
Si Si1 0.300357 0.440759 0.569849
Si Si2 0.400290 0.566666 0.565163
Si Si3 0.300537 0.940442 0.928577
Si Si4 0.999700 0.061272 0.569344
Si Si5 0.100023 0.933706 0.565194
O O1 0.300258 0.500000 0.750000
O O2 0.250000 0.500482 0.500000
O O3 0.350284 0.499044 0.493519
O O4 0.300456 0.250332 0.564632
O O5 0.398204 0.500000 0.750000
O O6 0.451062 0.499345 0.508934
O O7 0.400280 0.750409 0.500617
O O8 0.302527 0.000000 0.750000
O O9 0.250000 0.999040 0.000000
O O10 0.348938 0.999884 0.009997
O O11 0.000000 0.250000 0.569015
O O12 0.997777 0.000000 0.750000
O O13 0.049997 0.002327 0.495429
O O14 0.097693 0.000000 0.750000
#
# Coordination Sequence:
#
# PCOD9335862 Si02
#       5
#     8   8   8   8   8
#     4  10  23  40  60  89 123 165 212 264 324 393
#     4  11  24  42  65  96 132 170 219 277 339 405
#     4  11  23  40  64  94 129 170 221 276 340 407
#     4  11  23  41  65  94 129 171 220 272 334 406
#     4  11  24  43  67  97 133 174 223 279 342 409
#
# _framework density 20.363700000000001
#
# number of rings (size 3 to 8) (size 9 to 14) (size 15 to 20)
#    0.000    1.200    0.000    7.200    0.000    9.600 
#    0.000    0.000    0.000    0.000    0.000    0.000 
#    0.000    0.000    0.000    0.000    0.000    0.000 
#
# Total GULP energy -111384.992256 kJ/mol
# GULP energy per Si atom -5569.249613 kJ/mol
# Density = 2.031735 g / cm^3
# Si number density = 20.363700 Si / 1000 Ang^3
#
#
#
# Elastic Constant Matrix: (Units=GPa)
#
#
# Indices 1 2 3 4 5 6 
#
# 1 273.4960 82.0635 69.5161 0.0000 0.0000 0.0000
# 2 82.0635 149.6220 34.3809 0.0000 0.0000 0.0000
# 3 69.5161 34.3809 78.3560 0.0000 0.0000 0.0000
# 4 0.0000 0.0000 0.0000 30.7343 0.0000 0.0000
# 5 0.0000 0.0000 0.0000 0.0000 49.0273 0.0000
# 6 0.0000 0.0000 0.0000 0.0000 0.0000 49.9925
#
#
#
# Elastic Compliance Matrix: (Units=1/GPa)
#
#
# Indices 1 2 3 4 5 6 
#
# 1 0.005207 -0.001995 -0.003744 0.000000 0.000000 0.000000
# 2 -0.001995 0.008198 -0.001827 0.000000 0.000000 0.000000
# 3 -0.003744 -0.001827 0.016885 0.000000 0.000000 0.000000
# 4 0.000000 0.000000 0.000000 0.032537 0.000000 0.000000
# 5 0.000000 0.000000 0.000000 0.000000 0.020397 0.000000
# 6 0.000000 0.000000 0.000000 0.000000 0.000000 0.020003
#
#
# Mechanical properties :
#
#
# Convention : Reuss Voigt Hill
#
# Bulk Modulus (GPa) = 65.97231 97.04389 81.50810
# Shear Modulus (GPa) = 40.51521 46.98504 43.75013
#
# Velocity S-wave (km/s) = 4.46531 4.80864 4.64015
# Velocity P-wave (km/s) = 7.68457 8.86507 8.29585
#
# Compressibility (1/GPa) = 0.01515787
#
# Stress axis : x y z
#
# Youngs Moduli (GPa) = 192.06146 121.98545 59.22380
#
# Poissons Ratio (x) = 0.24342 0.22172
# Poissons Ratio (y) = 0.38325 0.10818
# Poissons Ratio (z) = 0.71902 0.22282
#
# Static dielectric constant tensor:
#      x y z
#    x 1.811640 0.000000 0.000000 
#    y 0.000000 1.706330 0.000000 
#    z 0.000000 0.000000 1.773900 
# 
# From -- ./inp_files/15641.got.cif
#   From: 2010.05.17/outbox.cif.g08.bks.cpg/sg24_8_cif.got.tgz:15641.got - 2010.06.04 00:33:39.
