data_PCOD9335721
_publ_section_title
;
Structure prediction by ZEFSAII (Michael W. Deem and Ramdas Pophale) SiO2 
 PCOD9335721
Probable space group: I 21 21 21
;
_chemical_formula_sum "Si O2"
_cell_formula_units_Z 48
_cell_length_a 24.001359
_cell_length_b 13.683568
_cell_length_c 7.643478
_cell_angle_alpha 90.000000
_cell_angle_beta 90.000000
_cell_angle_gamma 90.000000
_cell_volume 2510.303361
_symmetry_space_group_name_H-M "I 21 21 21"
_symmetry_group_IT_number 24
_symmetry_cell_setting 'orthorhombic'
loop_
_space_group_symop_operation_xyz
x,y,z
-x,1/2-y,z
x,-y,1/2-z
1/2-x,y,-z
1/2+x,1/2+y,1/2+z
1/2-x,-y,1/2+z
1/2+x,1/2-y,-z
-x,1/2+y,1/2-z
loop_
_atom_site_type_symbol
_atom_site_label
_atom_site_fract_x
_atom_site_fract_y
_atom_site_fract_z
Si Si1 0.439560 0.021021 0.943553
Si Si2 0.250000 0.241499 0.500000
Si Si3 0.474043 0.500000 0.250000
Si Si4 0.768457 0.889024 0.697185
Si Si5 0.874861 0.324424 0.511370
Si Si6 0.104317 0.674222 0.694110
Si Si7 0.567195 0.263301 0.841139
O O1 0.418234 0.130969 0.925497
O O2 0.462550 0.000000 0.750000
O O3 0.487360 0.016541 0.084377
O O4 0.395817 0.935697 0.990196
O O5 0.242851 0.312421 0.333126
O O6 0.192251 0.182510 0.513925
O O7 0.437358 0.595906 0.224381
O O8 0.750000 0.870377 0.500000
O O9 0.834367 0.870685 0.707661
O O10 0.754766 0.000000 0.750000
O O11 0.896415 0.272501 0.688731
O O12 0.901661 0.265279 0.346044
O O13 0.088155 0.690001 0.491232
O O14 0.500000 0.250000 0.819669
#
# Coordination Sequence:
#
# PCOD9335721 Si02
#       7
#     8   4   4   8   8   8   8
#     4  10  23  39  61  88 123 160 204 251 309 365
#     4  10  22  44  64  90 120 168 210 268 310 370
#     4  12  22  36  58  92 128 162 198 256 306 376
#     4  11  21  38  61  88 125 160 206 262 313 367
#     4  10  24  41  66  89 124 166 210 258 315 368
#     4  11  24  37  59  93 125 162 211 248 316 380
#     4  11  22  40  63  93 125 163 205 257 314 376
#
# _framework density 19.121196999999999
#
# number of rings (size 3 to 8) (size 9 to 14) (size 15 to 20)
#    0.000    1.333    3.333    2.000    4.667    0.000 
#    0.000    0.833   29.333    0.000    0.000    0.000 
#    0.000    0.000    0.000    0.000    0.000    0.000 
#
# Total GULP energy -133980.189415 kJ/mol
# GULP energy per Si atom -5582.507892 kJ/mol
# Density = 1.907768 g / cm^3
# Si number density = 19.121197 Si / 1000 Ang^3
#
#
#
# Elastic Constant Matrix: (Units=GPa)
#
#
# Indices 1 2 3 4 5 6 
#
# 1 72.3500 15.7256 18.5031 0.0000 0.0000 0.0000
# 2 15.7256 56.9023 12.1964 0.0000 0.0000 0.0000
# 3 18.5031 12.1964 95.9391 0.0000 0.0000 0.0000
# 4 0.0000 0.0000 0.0000 -20.0135 0.0000 0.0000
# 5 0.0000 0.0000 0.0000 0.0000 26.7299 0.0000
# 6 0.0000 0.0000 0.0000 0.0000 0.0000 -8.7666
#
#
#
# Elastic Compliance Matrix: (Units=1/GPa)
#
#
# Indices 1 2 3 4 5 6 
#
# 1 0.015255 -0.003686 -0.002474 0.000000 0.000000 0.000000
# 2 -0.003686 0.018957 -0.001699 0.000000 0.000000 0.000000
# 3 -0.002474 -0.001699 0.011116 0.000000 0.000000 0.000000
# 4 0.000000 0.000000 0.000000 -0.049966 0.000000 0.000000
# 5 0.000000 0.000000 0.000000 0.000000 0.037411 0.000000
# 6 0.000000 0.000000 0.000000 0.000000 0.000000 -0.114069
#
#
# Mechanical properties :
#
#
# Convention : Reuss Voigt Hill
#
# Bulk Modulus (GPa) = 33.77061 35.33794 34.55427
# Shear Modulus (GPa) = -89.75460 11.50769 -39.12345
#
# Velocity S-wave (km/s) = -6.85870 2.45588 -4.52827
# Velocity P-wave (km/s) = 6.70989 5.15393 3.03807
#
# Compressibility (1/GPa) = 0.02961155
#
# Stress axis : x y z
#
# Youngs Moduli (GPa) = 65.55037 52.75159 89.95756
#
# Poissons Ratio (x) = 0.19443 0.22252
# Poissons Ratio (y) = 0.24161 0.15284
# Poissons Ratio (z) = 0.16215 0.08963
#
# Static dielectric constant tensor:
#      x y z
#    x 1.645690 0.000000 0.000000 
#    y 0.000000 1.653940 0.000000 
#    z 0.000000 0.000000 1.683270 
# 
# From -- ./inp_files/15871.got.cif
#   From: 2010.05.17/outbox.cif.g08.bks.cpg/sg24_8_cif.got.tgz:15871.got - 2010.06.04 00:33:39.
