data_PCOD9335357
_publ_section_title
;
Structure prediction by ZEFSAII (Michael W. Deem and Ramdas Pophale) SiO2 
 PCOD9335357
Probable space group: I 21 21 21
;
_chemical_formula_sum "Si O2"
_cell_formula_units_Z 48
_cell_length_a 29.227912
_cell_length_b 5.651725
_cell_length_c 13.540365
_cell_angle_alpha 90.000000
_cell_angle_beta 90.000000
_cell_angle_gamma 90.000000
_cell_volume 2236.707451
_symmetry_space_group_name_H-M "I 21 21 21"
_symmetry_group_IT_number 24
_symmetry_cell_setting 'orthorhombic'
loop_
_space_group_symop_operation_xyz
x,y,z
-x,1/2-y,z
x,-y,1/2-z
1/2-x,y,-z
1/2+x,1/2+y,1/2+z
1/2-x,-y,1/2+z
1/2+x,1/2-y,-z
-x,1/2+y,1/2-z
loop_
_atom_site_type_symbol
_atom_site_label
_atom_site_fract_x
_atom_site_fract_y
_atom_site_fract_z
Si Si1 0.123194 0.938610 0.863098
Si Si2 0.342771 0.750748 0.797322
Si Si3 0.253798 0.500000 0.750000
Si Si4 0.291825 0.240411 0.065297
Si Si5 0.866691 0.061684 0.492337
Si Si6 0.947410 0.219686 0.953211
Si Si7 0.525426 0.000000 0.250000
O O1 0.171006 0.061622 0.891372
O O2 0.080148 0.043148 0.924186
O O3 0.113864 0.000000 0.750000
O O4 0.130595 0.672963 0.898728
O O5 0.360741 0.500000 0.750000
O O6 0.288206 0.706831 0.787403
O O7 0.355308 0.000000 0.750000
O O8 0.358872 0.756236 0.909896
O O9 0.226258 0.396221 0.842723
O O10 0.322247 0.397293 0.990393
O O11 0.250000 0.141905 0.000000
O O12 0.913328 0.919598 0.475408
O O13 0.000000 0.250000 0.984963
O O14 0.950044 0.073332 0.850551
O O15 0.500000 0.750000 0.226707
#
# Coordination Sequence:
#
# PCOD9335357 Si02
#       7
#     8   8   4   8   8   8   4
#     4  11  25  40  63  99 140 180 225 284 342 417
#     4  10  24  43  69  98 130 179 234 287 346 409
#     4  10  22  39  66  90 134 178 236 278 345 402
#     4  11  22  42  59  94 135 179 230 279 343 405
#     4  11  24  41  66  98 139 178 234 291 347 415
#     4  10  24  39  66  96 137 180 231 276 354 418
#     4  10  22  37  62  96 138 180 226 264 331 422
#
# _framework density 21.460114000000001
#
# number of rings (size 3 to 8) (size 9 to 14) (size 15 to 20)
#    0.500    1.000    1.667    2.000   16.333    5.333 
#    0.000    0.000    0.000    0.000    4.333    0.000 
#    0.000    0.000    0.000    0.000    0.000    0.000 
#
# Total GULP energy -133879.884898 kJ/mol
# GULP energy per Si atom -5578.328537 kJ/mol
# Density = 2.141127 g / cm^3
# Si number density = 21.460114 Si / 1000 Ang^3
#
#
#
# Elastic Constant Matrix: (Units=GPa)
#
#
# Indices 1 2 3 4 5 6 
#
# 1 131.0098 26.5666 31.3012 0.0000 0.0000 0.0000
# 2 26.5666 67.4138 3.2410 0.0000 0.0000 0.0000
# 3 31.3012 3.2410 51.9658 0.0000 0.0000 0.0000
# 4 0.0000 0.0000 0.0000 34.9733 0.0000 0.0000
# 5 0.0000 0.0000 0.0000 0.0000 15.9489 0.0000
# 6 0.0000 0.0000 0.0000 0.0000 0.0000 28.8942
#
#
#
# Elastic Compliance Matrix: (Units=1/GPa)
#
#
# Indices 1 2 3 4 5 6 
#
# 1 0.009695 -0.003551 -0.005619 0.000000 0.000000 0.000000
# 2 -0.003551 0.016179 0.001130 0.000000 0.000000 0.000000
# 3 -0.005619 0.001130 0.022557 0.000000 0.000000 0.000000
# 4 0.000000 0.000000 0.000000 0.028593 0.000000 0.000000
# 5 0.000000 0.000000 0.000000 0.000000 0.062700 0.000000
# 6 0.000000 0.000000 0.000000 0.000000 0.000000 0.034609
#
#
# Mechanical properties :
#
#
# Convention : Reuss Voigt Hill
#
# Bulk Modulus (GPa) = 30.90962 41.40078 36.15520
# Shear Modulus (GPa) = 24.85128 28.58200 26.71664
#
# Velocity S-wave (km/s) = 3.40666 3.65343 3.53220
# Velocity P-wave (km/s) = 5.46885 6.09349 5.78960
#
# Compressibility (1/GPa) = 0.03235238
#
# Stress axis : x y z
#
# Youngs Moduli (GPa) = 103.14142 61.80958 44.33166
#
# Poissons Ratio (x) = 0.21947 0.24908
# Poissons Ratio (y) = 0.36622 -0.05008
# Poissons Ratio (z) = 0.57950 -0.06983
#
# Static dielectric constant tensor:
#      x y z
#    x 1.779490 0.000000 0.000000 
#    y 0.000000 1.857650 0.000000 
#    z 0.000000 0.000000 1.687210 
# 
# From -- ./inp_files/28050.got.cif
#   From: 2010.05.17/outbox.cif.g08.bks.cpg/sg24_15_cif.got.tgz:28050.got - 2010.06.04 00:33:39.
