data_PCOD9335511
_publ_section_title
;
Structure prediction by ZEFSAII (Michael W. Deem and Ramdas Pophale) SiO2 
 PCOD9335511
Probable space group: I 21 21 21
;
_chemical_formula_sum "Si O2"
_cell_formula_units_Z 40
_cell_length_a 9.257399
_cell_length_b 9.744660
_cell_length_c 20.021760
_cell_angle_alpha 90.000000
_cell_angle_beta 90.000000
_cell_angle_gamma 90.000000
_cell_volume 1806.167089
_symmetry_space_group_name_H-M "I 21 21 21"
_symmetry_group_IT_number 24
_symmetry_cell_setting 'orthorhombic'
loop_
_space_group_symop_operation_xyz
x,y,z
-x,1/2-y,z
x,-y,1/2-z
1/2-x,y,-z
1/2+x,1/2+y,1/2+z
1/2-x,-y,1/2+z
1/2+x,1/2-y,-z
-x,1/2+y,1/2-z
loop_
_atom_site_type_symbol
_atom_site_label
_atom_site_fract_x
_atom_site_fract_y
_atom_site_fract_z
Si Si1 0.824983 0.988534 0.146140
Si Si2 0.750000 0.076717 0.000000
Si Si3 0.840167 0.707796 0.851017
Si Si4 0.162049 0.244429 0.800740
Si Si5 0.000000 0.750000 0.487169
Si Si6 0.643267 0.538540 0.617620
O O1 0.756965 0.842089 0.157826
O O2 0.996962 0.994622 0.156121
O O3 0.804496 0.003257 0.065743
O O4 0.740418 0.107367 0.187073
O O5 0.879268 0.170532 0.973349
O O6 0.859458 0.675005 0.772602
O O7 0.749923 0.592548 0.891438
O O8 0.000000 0.750000 0.878143
O O9 0.000000 0.250000 0.828249
O O10 0.264335 0.142113 0.839359
O O11 0.915457 0.634885 0.442995
#
# Coordination Sequence:
#
# PCOD9335511 Si02
#       6
#     8   4   8   8   4   8
#     4  11  23  41  63  93 128 166 216 265 324 380
#     4  10  22  40  66  88 126 160 222 262 312 378
#     4  11  25  40  61  96 134 171 209 263 332 386
#     4  11  22  39  64  93 129 171 215 260 316 394
#     4  10  22  42  66 100 118 172 222 268 314 386
#     4  11  21  42  63  94 129 161 220 262 315 389
#
# _framework density 22.146345
#
# number of rings (size 3 to 8) (size 9 to 14) (size 15 to 20)
#    0.000    1.200    4.000    3.000    1.400    9.600 
#    0.000    5.000    0.000    0.000    0.000    0.000 
#    0.000    0.000    0.000    0.000    0.000    0.000 
#
# Total GULP energy -111516.997211 kJ/mol
# GULP energy per Si atom -5575.849861 kJ/mol
# Density = 2.209594 g / cm^3
# Si number density = 22.146345 Si / 1000 Ang^3
#
#
#
# Elastic Constant Matrix: (Units=GPa)
#
#
# Indices 1 2 3 4 5 6 
#
# 1 166.1067 51.9208 10.0341 0.0000 0.0000 0.0000
# 2 51.9208 124.0786 -6.7905 0.0000 0.0000 0.0000
# 3 10.0341 -6.7905 44.2008 0.0000 0.0000 0.0000
# 4 0.0000 0.0000 0.0000 -9.7064 0.0000 0.0000
# 5 0.0000 0.0000 0.0000 0.0000 19.7400 0.0000
# 6 0.0000 0.0000 0.0000 0.0000 0.0000 34.1132
#
#
#
# Elastic Compliance Matrix: (Units=1/GPa)
#
#
# Indices 1 2 3 4 5 6 
#
# 1 0.007112 -0.003091 -0.002089 0.000000 0.000000 0.000000
# 2 -0.003091 0.009471 0.002157 0.000000 0.000000 0.000000
# 3 -0.002089 0.002157 0.023430 0.000000 0.000000 0.000000
# 4 0.000000 0.000000 0.000000 -0.103025 0.000000 0.000000
# 5 0.000000 0.000000 0.000000 0.000000 0.050659 0.000000
# 6 0.000000 0.000000 0.000000 0.000000 0.000000 0.029314
#
#
# Mechanical properties :
#
#
# Convention : Reuss Voigt Hill
#
# Bulk Modulus (GPa) = 29.44124 49.41277 39.42701
# Shear Modulus (GPa) = 145.64672 27.44413 86.54543
#
# Velocity S-wave (km/s) = 8.11840 3.52407 6.25809
# Velocity P-wave (km/s) = 10.05985 6.23852 8.37018
#
# Compressibility (1/GPa) = 0.03396596
#
# Stress axis : x y z
#
# Youngs Moduli (GPa) = 140.59797 105.58898 42.68095
#
# Poissons Ratio (x) = 0.32633 0.08918
# Poissons Ratio (y) = 0.43453 -0.09204
# Poissons Ratio (z) = 0.29377 -0.22771
#
# Static dielectric constant tensor:
#      x y z
#    x 1.857650 0.000000 0.000000 
#    y 0.000000 1.917760 0.000000 
#    z 0.000000 0.000000 1.955870 
# 
# From -- ./inp_files/35046.got.cif
#   From: 2010.05.17/outbox.cif.g08.bks.cpg/sg24_18_cif.got.tgz:35046.got - 2010.06.04 00:33:39.
