data_PCOD9335528
_publ_section_title
;
Structure prediction by ZEFSAII (Michael W. Deem and Ramdas Pophale) SiO2 
 PCOD9335528
Probable space group: I 21 21 21
;
_chemical_formula_sum "Si O2"
_cell_formula_units_Z 48
_cell_length_a 9.166065
_cell_length_b 26.443795
_cell_length_c 8.855457
_cell_angle_alpha 90.000000
_cell_angle_beta 90.000000
_cell_angle_gamma 90.000000
_cell_volume 2146.434761
_symmetry_space_group_name_H-M "I 21 21 21"
_symmetry_group_IT_number 24
_symmetry_cell_setting 'orthorhombic'
loop_
_space_group_symop_operation_xyz
x,y,z
-x,1/2-y,z
x,-y,1/2-z
1/2-x,y,-z
1/2+x,1/2+y,1/2+z
1/2-x,-y,1/2+z
1/2+x,1/2-y,-z
-x,1/2+y,1/2-z
loop_
_atom_site_type_symbol
_atom_site_label
_atom_site_fract_x
_atom_site_fract_y
_atom_site_fract_z
Si Si1 0.630778 0.709321 0.636739
Si Si2 0.863082 0.957538 0.875561
Si Si3 0.422022 0.891329 0.515391
Si Si4 0.672916 0.134776 0.164502
Si Si5 0.590271 0.497891 0.569945
Si Si6 0.671599 0.764118 0.153219
O O1 0.500000 0.750000 0.619630
O O2 0.750000 0.712468 0.500000
O O3 0.559320 0.653454 0.636163
O O4 0.728092 0.719007 0.783294
O O5 0.800250 0.908580 0.788960
O O6 0.891420 0.000000 0.750000
O O7 0.750000 0.976307 0.000000
O O8 0.005865 0.953695 0.981134
O O9 0.250000 0.897139 0.500000
O O10 0.500179 0.870261 0.368106
O O11 0.482752 0.947323 0.537237
O O12 0.695074 0.190437 0.228153
O O13 0.750000 0.127902 0.000000
O O14 0.597523 0.500000 0.750000
O O15 0.750000 0.497217 0.500000
O O16 0.500000 0.750000 0.139638
O O17 0.750000 0.780704 0.000000
#
# Coordination Sequence:
#
# PCOD9335528 Si02
#       6
#     8   8   8   8   8   8
#     4  11  21  41  69 101 134 180 233 287 350 428
#     4  12  25  45  68 101 141 183 237 295 359 428
#     4  10  22  40  69  98 134 177 237 281 353 416
#     4  12  26  45  73 102 139 186 239 297 362 440
#     4  11  25  45  70 102 144 187 237 294 357 426
#     4  12  26  47  69 103 145 185 234 301 367 443
#
# _framework density 22.362663000000001
#
# number of rings (size 3 to 8) (size 9 to 14) (size 15 to 20)
#    0.000    0.667    1.667    7.500    4.667    0.000 
#    6.000    0.000    0.000    0.000    0.000    0.000 
#    0.000    0.000    0.000    0.000    0.000    0.000 
#
# Total GULP energy -133939.115924 kJ/mol
# GULP energy per Si atom -5580.796497 kJ/mol
# Density = 2.231176 g / cm^3
# Si number density = 22.362663 Si / 1000 Ang^3
#
#
#
# Elastic Constant Matrix: (Units=GPa)
#
#
# Indices 1 2 3 4 5 6 
#
# 1 102.3427 10.6922 34.7851 0.0002 -0.0045 0.0004
# 2 10.6922 69.4539 20.3212 0.0002 -0.0016 0.0002
# 3 34.7851 20.3212 128.2240 0.0237 0.0151 -0.0033
# 4 0.0002 0.0002 0.0237 22.1942 0.0056 -0.0003
# 5 -0.0045 -0.0016 0.0151 0.0056 45.5623 0.0026
# 6 0.0004 0.0002 -0.0033 -0.0003 0.0026 75.7706
#
#
#
# Elastic Compliance Matrix: (Units=1/GPa)
#
#
# Indices 1 2 3 4 5 6 
#
# 1 0.010811 -0.000845 -0.002799 0.000003 0.000002 0.000000
# 2 -0.000845 0.015164 -0.002174 0.000002 0.000001 0.000000
# 3 -0.002799 -0.002174 0.008903 -0.000009 -0.000003 0.000000
# 4 0.000003 0.000002 -0.000009 0.045057 -0.000006 0.000000
# 5 0.000002 0.000001 -0.000003 -0.000006 0.021948 -0.000001
# 6 0.000000 0.000000 0.000000 0.000000 -0.000001 0.013198
#
#
# Mechanical properties :
#
#
# Convention : Reuss Voigt Hill
#
# Bulk Modulus (GPa) = 43.02669 47.95752 45.49210
# Shear Modulus (GPa) = 37.18484 44.32022 40.75253
#
# Velocity S-wave (km/s) = 4.08218 4.45667 4.27353
# Velocity P-wave (km/s) = 6.44213 6.92636 6.68863
#
# Compressibility (1/GPa) = 0.02324139
#
# Stress axis : x y z
#
# Youngs Moduli (GPa) = 92.50110 65.94460 112.32614
#
# Poissons Ratio (x) = 0.05575 0.31438
# Poissons Ratio (y) = 0.07820 0.24419
# Poissons Ratio (z) = 0.25889 0.14336
#
# Static dielectric constant tensor:
#      x y z
#    x 1.848030 -0.000010 -0.000010 
#    y -0.000010 1.882420 -0.000010 
#    z -0.000010 -0.000010 1.901650 
# 
# From -- ./inp_files/9765.got.cif
#   From: 2010.05.17/outbox.cif.g08.bks.cpg/sg24_5_cif.got.tgz:9765.got - 2010.06.04 00:33:39.
