data_PCOD9335976
_publ_section_title
;
Structure prediction by ZEFSAII (Michael W. Deem and Ramdas Pophale) SiO2 
 PCOD9335976
Probable space group: I 21 21 21
;
_chemical_formula_sum "Si O2"
_cell_formula_units_Z 40
_cell_length_a 9.772537
_cell_length_b 9.154855
_cell_length_c 18.467127
_cell_angle_alpha 90.000000
_cell_angle_beta 90.000000
_cell_angle_gamma 90.000000
_cell_volume 1652.182924
_symmetry_space_group_name_H-M "I 21 21 21"
_symmetry_group_IT_number 24
_symmetry_cell_setting 'orthorhombic'
loop_
_space_group_symop_operation_xyz
x,y,z
-x,1/2-y,z
x,-y,1/2-z
1/2-x,y,-z
1/2+x,1/2+y,1/2+z
1/2-x,-y,1/2+z
1/2+x,1/2-y,-z
-x,1/2+y,1/2-z
loop_
_atom_site_type_symbol
_atom_site_label
_atom_site_fract_x
_atom_site_fract_y
_atom_site_fract_z
Si Si1 0.711145 0.157410 0.718610
Si Si2 0.500000 0.250000 0.325324
Si Si3 0.954252 0.414228 0.872583
Si Si4 0.095996 0.033740 0.027226
Si Si5 0.500000 0.750000 0.904527
Si Si6 0.641234 0.392670 0.818324
O O1 0.847820 0.250909 0.706787
O O2 0.613264 0.175555 0.648577
O O3 0.637874 0.233838 0.785423
O O4 0.745604 0.000000 0.750000
O O5 0.491010 0.421373 0.353873
O O6 0.796585 0.424495 0.846332
O O7 0.000000 0.250000 0.846099
O O8 0.987407 0.412203 0.958500
O O9 0.075784 0.862721 0.043046
O O10 0.062370 0.094139 0.106259
O O11 0.250000 0.062770 0.000000
O O12 0.607603 0.500000 0.750000
#
# Coordination Sequence:
#
# PCOD9335976 Si02
#       6
#     8   4   8   8   4   8
#     4  12  28  42  73 118 148 199 261 315 396 466
#     4  12  25  48  74 112 153 194 256 328 375 466
#     4  11  24  42  73 106 140 194 252 311 374 447
#     4  10  23  44  69 100 143 202 244 298 385 449
#     4  12  25  46  72 108 159 198 250 330 379 462
#     4  11  21  44  69  94 140 190 241 301 380 440
#
# _framework density 24.210394999999998
#
# number of rings (size 3 to 8) (size 9 to 14) (size 15 to 20)
#    0.000    0.800    4.000    3.000    7.000    1.600 
#    0.000    2.000    0.000    0.000    0.000    0.000 
#    0.000    0.000    0.000    0.000    0.000    0.000 
#
# Total GULP energy -111372.957719 kJ/mol
# GULP energy per Si atom -5568.647886 kJ/mol
# Density = 2.415529 g / cm^3
# Si number density = 24.210395 Si / 1000 Ang^3
#
#
#
# Elastic Constant Matrix: (Units=GPa)
#
#
# Indices 1 2 3 4 5 6 
#
# 1 67.7951 11.4128 45.7028 0.0000 0.0000 0.0000
# 2 11.4128 167.6056 41.8039 0.0000 0.0000 0.0000
# 3 45.7028 41.8039 85.2481 0.0000 0.0000 0.0000
# 4 0.0000 0.0000 0.0000 33.2604 0.0000 0.0000
# 5 0.0000 0.0000 0.0000 0.0000 14.3592 0.0000
# 6 0.0000 0.0000 0.0000 0.0000 0.0000 30.4506
#
#
#
# Elastic Compliance Matrix: (Units=1/GPa)
#
#
# Indices 1 2 3 4 5 6 
#
# 1 0.023546 0.001760 -0.013486 0.000000 0.000000 0.000000
# 2 0.001760 0.006929 -0.004342 0.000000 0.000000 0.000000
# 3 -0.013486 -0.004342 0.021090 0.000000 0.000000 0.000000
# 4 0.000000 0.000000 0.000000 0.030066 0.000000 0.000000
# 5 0.000000 0.000000 0.000000 0.000000 0.069642 0.000000
# 6 0.000000 0.000000 0.000000 0.000000 0.000000 0.032840
#
#
# Mechanical properties :
#
#
# Convention : Reuss Voigt Hill
#
# Bulk Modulus (GPa) = 51.46876 57.60977 54.53927
# Shear Modulus (GPa) = 22.44925 30.39599 26.42262
#
# Velocity S-wave (km/s) = 3.04839 3.54714 3.30718
# Velocity P-wave (km/s) = 5.80477 6.37365 6.09585
#
# Compressibility (1/GPa) = 0.01942926
#
# Stress axis : x y z
#
# Youngs Moduli (GPa) = 42.47076 144.31143 47.41594
#
# Poissons Ratio (x) = -0.25406 0.63947
# Poissons Ratio (y) = -0.07477 0.20587
# Poissons Ratio (z) = 0.57278 0.62658
#
# Static dielectric constant tensor:
#      x y z
#    x 2.018180 0.000000 0.000000 
#    y 0.000000 2.052550 0.000000 
#    z 0.000000 0.000000 1.979640 
# 
# From -- ./inp_files/30091.got.cif
#   From: 2010.05.17/outbox.cif.g08.bks.cpg/sg24_16_cif.got.tgz:30091.got - 2010.06.04 00:33:39.
