data_PCOD9335437
_publ_section_title
;
Structure prediction by ZEFSAII (Michael W. Deem and Ramdas Pophale) SiO2 
 PCOD9335437
Probable space group: I 21 21 21
;
_chemical_formula_sum "Si O2"
_cell_formula_units_Z 40
_cell_length_a 7.697109
_cell_length_b 23.419105
_cell_length_c 10.880819
_cell_angle_alpha 90.000000
_cell_angle_beta 90.000000
_cell_angle_gamma 90.000000
_cell_volume 1961.369947
_symmetry_space_group_name_H-M "I 21 21 21"
_symmetry_group_IT_number 24
_symmetry_cell_setting 'orthorhombic'
loop_
_space_group_symop_operation_xyz
x,y,z
-x,1/2-y,z
x,-y,1/2-z
1/2-x,y,-z
1/2+x,1/2+y,1/2+z
1/2-x,-y,1/2+z
1/2+x,1/2-y,-z
-x,1/2+y,1/2-z
loop_
_atom_site_type_symbol
_atom_site_label
_atom_site_fract_x
_atom_site_fract_y
_atom_site_fract_z
Si Si1 0.790276 0.804431 0.142262
Si Si2 0.303770 0.830287 0.861920
Si Si3 0.248394 0.061589 0.191706
Si Si4 0.043561 0.419615 0.993991
Si Si5 0.122676 0.301116 0.893696
O O1 0.747690 0.736266 0.151590
O O2 0.700047 0.826831 0.266936
O O3 0.990290 0.822207 0.155090
O O4 0.750000 0.820751 0.000000
O O5 0.236703 0.880951 0.774532
O O6 0.250000 0.846566 0.000000
O O7 0.425647 0.054361 0.113631
O O8 0.223483 0.000000 0.250000
O O9 0.072458 0.070047 0.113177
O O10 0.034443 0.352441 0.965876
O O11 0.250000 0.434596 0.000000
O O12 0.000000 0.250000 0.859412
O O13 0.250000 0.277320 0.000000
#
# Coordination Sequence:
#
# PCOD9335437 Si02
#       5
#     8   8   8   8   8
#     4  10  23  39  62  99 136 176 218 271 350 415
#     4  10  22  39  65  91 134 170 218 279 333 407
#     4  11  25  44  70  96 130 178 234 281 342 400
#     4  10  24  45  67  97 136 173 227 286 333 404
#     4  11  24  37  66  98 137 180 220 275 348 410
#
# _framework density 20.393908
#
# number of rings (size 3 to 8) (size 9 to 14) (size 15 to 20)
#    0.000    1.600    0.000    3.600   19.600    0.800 
#    0.000    1.000    0.000    0.000    0.000    0.000 
#    0.000    0.000    0.000    0.000    0.000    0.000 
#
# Total GULP energy -111352.390214 kJ/mol
# GULP energy per Si atom -5567.619511 kJ/mol
# Density = 2.034749 g / cm^3
# Si number density = 20.393908 Si / 1000 Ang^3
#
#
#
# Elastic Constant Matrix: (Units=GPa)
#
#
# Indices 1 2 3 4 5 6 
#
# 1 111.1839 39.8924 63.1366 0.0000 0.0000 0.0000
# 2 39.8924 51.1750 37.0612 0.0000 0.0000 0.0000
# 3 63.1366 37.0612 101.7657 0.0000 -0.0011 -0.0008
# 4 0.0000 0.0000 0.0000 28.9752 0.0001 0.0000
# 5 0.0000 0.0000 -0.0011 0.0001 -149.1524 0.0005
# 6 0.0000 0.0000 -0.0008 0.0000 0.0005 -0.5657
#
#
#
# Elastic Compliance Matrix: (Units=1/GPa)
#
#
# Indices 1 2 3 4 5 6 
#
# 1 0.015520 -0.006961 -0.007094 0.000000 0.000000 0.000009
# 2 -0.006961 0.029663 -0.006484 0.000000 0.000000 0.000011
# 3 -0.007094 -0.006484 0.016589 0.000000 0.000000 -0.000023
# 4 0.000000 0.000000 0.000000 0.034512 0.000000 -0.000001
# 5 0.000000 0.000000 0.000000 0.000000 -0.006705 -0.000006
# 6 0.000009 0.000011 -0.000023 -0.000001 -0.000006 -1.767870
#
#
# Mechanical properties :
#
#
# Convention : Reuss Voigt Hill
#
# Bulk Modulus (GPa) = 48.32244 60.47832 54.40038
# Shear Modulus (GPa) = -3.06689 -15.87962 -9.47325
#
# Velocity S-wave (km/s) = -1.22764 -2.79345 -2.15760
# Velocity P-wave (km/s) = 4.66224 4.39488 4.53054
#
# Compressibility (1/GPa) = 0.02069432
#
# Stress axis : x y z
#
# Youngs Moduli (GPa) = 64.43366 33.71226 60.28154
#
# Poissons Ratio (x) = 0.23467 0.42762
# Poissons Ratio (y) = 0.44852 0.39087
# Poissons Ratio (z) = 0.45707 0.21859
#
# Static dielectric constant tensor:
#      x y z
#    x 1.773070 0.000000 0.000000 
#    y 0.000000 1.713670 0.000000 
#    z 0.000000 0.000000 1.812170 
# 
# From -- ./inp_files/18407.got.cif
#   From: 2010.05.17/outbox.cif.g08.bks.cpg/sg24_10_cif.got.tgz:18407.got - 2010.06.04 00:33:39.
