data_PCOD9335635
_publ_section_title
;
Structure prediction by ZEFSAII (Michael W. Deem and Ramdas Pophale) SiO2 
 PCOD9335635
Probable space group: I 21 21 21
;
_chemical_formula_sum "Si O2"
_cell_formula_units_Z 40
_cell_length_a 27.104257
_cell_length_b 7.607666
_cell_length_c 9.031074
_cell_angle_alpha 90.000000
_cell_angle_beta 90.000000
_cell_angle_gamma 90.000000
_cell_volume 1862.208673
_symmetry_space_group_name_H-M "I 21 21 21"
_symmetry_group_IT_number 24
_symmetry_cell_setting 'orthorhombic'
loop_
_space_group_symop_operation_xyz
x,y,z
-x,1/2-y,z
x,-y,1/2-z
1/2-x,y,-z
1/2+x,1/2+y,1/2+z
1/2-x,-y,1/2+z
1/2+x,1/2-y,-z
-x,1/2+y,1/2-z
loop_
_atom_site_type_symbol
_atom_site_label
_atom_site_fract_x
_atom_site_fract_y
_atom_site_fract_z
Si Si1 0.026714 0.935167 0.913025
Si Si2 0.629938 0.716201 0.180591
Si Si3 0.421729 0.500000 0.750000
Si Si4 0.220530 0.000000 0.750000
Si Si5 0.250000 0.251459 0.000000
Si Si6 0.000000 0.750000 0.357808
Si Si7 0.356913 0.409706 0.032561
O O1 0.084044 0.884153 0.889599
O O2 0.000000 0.750000 0.943483
O O3 0.008460 0.000000 0.750000
O O4 0.016527 0.088210 0.033761
O O5 0.681335 0.615615 0.157399
O O6 0.622922 0.758263 0.356389
O O7 0.636847 0.906018 0.112962
O O8 0.457943 0.668796 0.747550
O O9 0.387136 0.555766 0.614979
O O10 0.250762 0.873417 0.643921
O O11 0.200165 0.363519 0.993323
#
# Coordination Sequence:
#
# PCOD9335635 Si02
#       7
#     8   8   4   4   4   4   8
#     4  12  24  42  75 107 139 188 251 306 356 431
#     4  10  22  43  72  99 134 185 239 302 347 431
#     4  12  28  48  67 102 156 199 236 300 378 444
#     4  10  22  42  69 102 140 173 226 296 376 434
#     4  10  24  44  72 106 138 180 244 304 370 462
#     4  12  30  46  66 108 156 200 248 300 372 454
#     4  10  24  45  71 102 140 187 245 298 371 438
#
# _framework density 21.479869000000001
#
# number of rings (size 3 to 8) (size 9 to 14) (size 15 to 20)
#    0.000    1.200    2.000    2.400    9.800    5.600 
#    0.000    1.000    0.000    0.000    0.000    0.000 
#    0.000    0.000    0.000    0.000    0.000    0.000 
#
# Total GULP energy -111703.163734 kJ/mol
# GULP energy per Si atom -5585.158187 kJ/mol
# Density = 2.143098 g / cm^3
# Si number density = 21.479869 Si / 1000 Ang^3
#
#
#
# Elastic Constant Matrix: (Units=GPa)
#
#
# Indices 1 2 3 4 5 6 
#
# 1 113.0888 63.0523 66.5083 0.0000 0.0000 0.0000
# 2 63.0523 148.8591 46.1271 0.0000 0.0000 0.0000
# 3 66.5083 46.1271 97.1198 0.0000 0.0000 0.0000
# 4 0.0000 0.0000 0.0000 35.0011 0.0000 0.0000
# 5 0.0000 0.0000 0.0000 0.0000 12.1225 0.0000
# 6 0.0000 0.0000 0.0000 0.0000 0.0000 48.6200
#
#
#
# Elastic Compliance Matrix: (Units=1/GPa)
#
#
# Indices 1 2 3 4 5 6 
#
# 1 0.016738 -0.004148 -0.009492 0.000000 0.000000 0.000000
# 2 -0.004148 0.008905 -0.001389 0.000000 0.000000 0.000000
# 3 -0.009492 -0.001389 0.017456 0.000000 0.000000 0.000000
# 4 0.000000 0.000000 0.000000 0.028570 0.000000 0.000000
# 5 0.000000 0.000000 0.000000 0.000000 0.082492 0.000000
# 6 0.000000 0.000000 0.000000 0.000000 0.000000 0.020568
#
#
# Mechanical properties :
#
#
# Convention : Reuss Voigt Hill
#
# Bulk Modulus (GPa) = 76.67937 78.93814 77.80876
# Shear Modulus (GPa) = 23.90814 31.37405 27.64109
#
# Velocity S-wave (km/s) = 3.33986 3.82596 3.59114
# Velocity P-wave (km/s) = 7.11678 7.50646 7.31422
#
# Compressibility (1/GPa) = 0.01304132
#
# Stress axis : x y z
#
# Youngs Moduli (GPa) = 59.74521 112.29390 57.28622
#
# Poissons Ratio (x) = 0.46584 0.54375
# Poissons Ratio (y) = 0.24785 0.07955
# Poissons Ratio (z) = 0.56709 0.15594
#
# Static dielectric constant tensor:
#      x y z
#    x 1.762840 0.000000 0.000000 
#    y 0.000000 1.795730 0.000000 
#    z 0.000000 0.000000 1.807610 
# 
# From -- ./inp_files/15685.got.cif
#   From: 2010.05.17/outbox.cif.g08.bks.cpg/sg24_8_cif.got.tgz:15685.got - 2010.06.04 00:33:39.
