data_PCOD9335816
_publ_section_title
;
Structure prediction by ZEFSAII (Michael W. Deem and Ramdas Pophale) SiO2 
 PCOD9335816
Probable space group: I 21 21 21
;
_chemical_formula_sum "Si O2"
_cell_formula_units_Z 16
_cell_length_a 8.935179
_cell_length_b 7.376505
_cell_length_c 9.493869
_cell_angle_alpha 90.000000
_cell_angle_beta 90.000000
_cell_angle_gamma 90.000000
_cell_volume 625.744633
_symmetry_space_group_name_H-M "I 21 21 21"
_symmetry_group_IT_number 24
_symmetry_cell_setting 'orthorhombic'
loop_
_space_group_symop_operation_xyz
x,y,z
-x,1/2-y,z
x,-y,1/2-z
1/2-x,y,-z
1/2+x,1/2+y,1/2+z
1/2-x,-y,1/2+z
1/2+x,1/2-y,-z
-x,1/2+y,1/2-z
loop_
_atom_site_type_symbol
_atom_site_label
_atom_site_fract_x
_atom_site_fract_y
_atom_site_fract_z
Si Si1 0.162817 0.286591 0.758446
Si Si2 0.000000 0.750000 0.016058
Si Si3 0.906780 0.500000 0.250000
O O1 0.187367 0.500000 0.750000
O O2 0.132313 0.228200 0.596546
O O3 0.298539 0.161426 0.805848
O O4 0.000000 0.250000 0.829610
O O5 0.999004 0.919455 0.121094
#
# Coordination Sequence:
#
# PCOD9335816 Si02
#       3
#     8   4   4
#     4  10  22  47  74 104 150 194 243 306 372 433
#     4  10  26  48  68 110 146 190 254 292 370 450
#     4  12  24  50  70 110 150 188 254 304 364 450
#
# _framework density 25.569537
#
# number of rings (size 3 to 8) (size 9 to 14) (size 15 to 20)
#    1.500    0.000    2.500    1.500    3.500    0.000 
#   22.500    0.000    0.000    0.000    0.000    0.000 
#    0.000    0.000    0.000    0.000    0.000    0.000 
#
# Total GULP energy -44689.026329 kJ/mol
# GULP energy per Si atom -5586.128291 kJ/mol
# Density = 2.551134 g / cm^3
# Si number density = 25.569537 Si / 1000 Ang^3
#
#
#
# Elastic Constant Matrix: (Units=GPa)
#
#
# Indices 1 2 3 4 5 6 
#
# 1 56.3836 1.5898 -8.5217 0.0000 0.0000 0.0000
# 2 1.5898 151.9986 -3.6135 0.0000 0.0000 0.0000
# 3 -8.5217 -3.6135 87.1816 0.0000 0.0000 0.0000
# 4 0.0000 0.0000 0.0000 54.1435 0.0000 0.0000
# 5 0.0000 0.0000 0.0000 0.0000 31.6833 0.0000
# 6 0.0000 0.0000 0.0000 0.0000 0.0000 31.6689
#
#
#
# Elastic Compliance Matrix: (Units=1/GPa)
#
#
# Indices 1 2 3 4 5 6 
#
# 1 0.018005 -0.000147 0.001754 0.000000 0.000000 0.000000
# 2 -0.000147 0.006587 0.000259 0.000000 0.000000 0.000000
# 3 0.001754 0.000259 0.011652 0.000000 0.000000 0.000000
# 4 0.000000 0.000000 0.000000 0.018469 0.000000 0.000000
# 5 0.000000 0.000000 0.000000 0.000000 0.031562 0.000000
# 6 0.000000 0.000000 0.000000 0.000000 0.000000 0.031577
#
#
# Mechanical properties :
#
#
# Convention : Reuss Voigt Hill
#
# Bulk Modulus (GPa) = 25.01514 30.49701 27.75607
# Shear Modulus (GPa) = 39.23232 43.90643 41.56938
#
# Velocity S-wave (km/s) = 3.92131 4.14833 4.03642
# Velocity P-wave (km/s) = 5.50515 5.90744 5.70984
#
# Compressibility (1/GPa) = 0.03997579
#
# Stress axis : x y z
#
# Youngs Moduli (GPa) = 55.54056 151.82131 85.81879
#
# Poissons Ratio (x) = 0.02226 -0.15051
# Poissons Ratio (y) = 0.00814 -0.02220
# Poissons Ratio (z) = -0.09741 -0.03927
#
# Static dielectric constant tensor:
#      x y z
#    x 2.168050 0.000000 0.000000 
#    y 0.000000 1.974820 0.000000 
#    z 0.000000 0.000000 1.943130 
# 
# From -- ./inp_files/1416.got.cif
#   From: 2010.05.17/outbox.cif.g08.bks.cpg/sg24_1_cif.got.tgz:1416.got - 2010.06.04 00:33:39.
