data_PCOD9335485
_publ_section_title
;
Structure prediction by ZEFSAII (Michael W. Deem and Ramdas Pophale) SiO2 
 PCOD9335485
Probable space group: I 21 21 21
;
_chemical_formula_sum "Si O2"
_cell_formula_units_Z 40
_cell_length_a 28.465418
_cell_length_b 8.062803
_cell_length_c 8.849292
_cell_angle_alpha 90.000000
_cell_angle_beta 90.000000
_cell_angle_gamma 90.000000
_cell_volume 2031.010366
_symmetry_space_group_name_H-M "I 21 21 21"
_symmetry_group_IT_number 24
_symmetry_cell_setting 'orthorhombic'
loop_
_space_group_symop_operation_xyz
x,y,z
-x,1/2-y,z
x,-y,1/2-z
1/2-x,y,-z
1/2+x,1/2+y,1/2+z
1/2-x,-y,1/2+z
1/2+x,1/2-y,-z
-x,1/2+y,1/2-z
loop_
_atom_site_type_symbol
_atom_site_label
_atom_site_fract_x
_atom_site_fract_y
_atom_site_fract_z
Si Si1 0.364237 0.692115 0.081211
Si Si2 0.698055 0.502154 0.433811
Si Si3 0.364447 0.313227 0.053706
Si Si4 0.463850 0.617373 0.115627
Si Si5 0.040233 0.373182 0.123136
O O1 0.332050 0.839292 0.022355
O O2 0.348904 0.505977 0.034227
O O3 0.366657 0.707456 0.264094
O O4 0.419132 0.703248 0.038507
O O5 0.700580 0.500000 0.250000
O O6 0.750000 0.495025 0.500000
O O7 0.671278 0.667724 0.490964
O O8 0.414630 0.298867 0.966610
O O9 0.500000 0.750000 0.174539
O O10 0.446775 0.500000 0.250000
O O11 0.486196 0.491781 0.997214
O O12 0.057861 0.500000 0.250000
O O13 0.000000 0.250000 0.180849
#
# Coordination Sequence:
#
# PCOD9335485 Si02
#       5
#     8   8   8   8   8
#     4   9  18  37  61  87 118 151 197 249 295 350
#     4  10  22  40  63  91 117 153 200 251 310 361
#     4   9  19  39  60  84 119 157 197 245 295 357
#     4  11  21  34  60  93 119 156 206 242 295 358
#     4  11  23  40  55  85 127 166 201 243 306 359
#
# _framework density 19.69463
#
# number of rings (size 3 to 8) (size 9 to 14) (size 15 to 20)
#    0.000    2.000    4.000    1.200    2.800    1.600 
#    7.200    0.000    0.000    0.000    0.000    0.000 
#    0.000    0.000    0.000    0.000    0.000    0.000 
#
# Total GULP energy -111361.517077 kJ/mol
# GULP energy per Si atom -5568.075854 kJ/mol
# Density = 1.964980 g / cm^3
# Si number density = 19.694630 Si / 1000 Ang^3
#
#
#
# Elastic Constant Matrix: (Units=GPa)
#
#
# Indices 1 2 3 4 5 6 
#
# 1 138.6803 107.1019 16.7785 0.0000 0.0000 0.0000
# 2 107.1019 128.4467 15.8206 0.0000 0.0000 0.0000
# 3 16.7785 15.8206 29.3984 0.0000 0.0000 0.0000
# 4 0.0000 0.0000 0.0000 19.5593 0.0000 0.0000
# 5 0.0000 0.0000 0.0000 0.0000 25.3380 0.0000
# 6 0.0000 0.0000 0.0000 0.0000 0.0000 35.1237
#
#
#
# Elastic Compliance Matrix: (Units=1/GPa)
#
#
# Indices 1 2 3 4 5 6 
#
# 1 0.020447 -0.016720 -0.002672 0.000000 0.000000 0.000000
# 2 -0.016720 0.022010 -0.002302 0.000000 0.000000 0.000000
# 3 -0.002672 -0.002302 0.036779 0.000000 0.000000 0.000000
# 4 0.000000 0.000000 0.000000 0.051127 0.000000 0.000000
# 5 0.000000 0.000000 0.000000 0.000000 0.039466 0.000000
# 6 0.000000 0.000000 0.000000 0.000000 0.000000 0.028471
#
#
# Mechanical properties :
#
#
# Convention : Reuss Voigt Hill
#
# Bulk Modulus (GPa) = 27.89518 63.99194 45.94356
# Shear Modulus (GPa) = 19.71316 26.45916 23.08616
#
# Velocity S-wave (km/s) = 3.16720 3.66932 3.42746
# Velocity P-wave (km/s) = 5.25066 7.10735 6.24836
#
# Compressibility (1/GPa) = 0.03584849
#
# Stress axis : x y z
#
# Youngs Moduli (GPa) = 48.90746 45.43314 27.18923
#
# Poissons Ratio (x) = 0.75964 0.07265
# Poissons Ratio (y) = 0.81773 0.06259
# Poissons Ratio (z) = 0.13067 0.10460
#
# Static dielectric constant tensor:
#      x y z
#    x 1.654140 0.000000 0.000000 
#    y 0.000000 1.764090 0.000000 
#    z 0.000000 0.000000 1.762240 
# 
# From -- ./inp_files/9256.got.cif
#   From: 2010.05.17/outbox.cif.g08.bks.cpg/sg24_5_cif.got.tgz:9256.got - 2010.06.04 00:33:39.
