data_PCOD9335257
_publ_section_title
;
Structure prediction by ZEFSAII (Michael W. Deem and Ramdas Pophale) SiO2 
 PCOD9335257
Probable space group: I 21 21 21
;
_chemical_formula_sum "Si O2"
_cell_formula_units_Z 60
_cell_length_a 7.646793
_cell_length_b 25.989823
_cell_length_c 13.263926
_cell_angle_alpha 90.000000
_cell_angle_beta 90.000000
_cell_angle_gamma 90.000000
_cell_volume 2636.056691
_symmetry_space_group_name_H-M "I 21 21 21"
_symmetry_group_IT_number 24
_symmetry_cell_setting 'orthorhombic'
loop_
_space_group_symop_operation_xyz
x,y,z
-x,1/2-y,z
x,-y,1/2-z
1/2-x,y,-z
1/2+x,1/2+y,1/2+z
1/2-x,-y,1/2+z
1/2+x,1/2-y,-z
-x,1/2+y,1/2-z
loop_
_atom_site_type_symbol
_atom_site_label
_atom_site_fract_x
_atom_site_fract_y
_atom_site_fract_z
Si Si1 0.579722 0.550124 0.369140
Si Si2 0.973103 0.113104 0.401007
Si Si3 0.066973 0.615350 0.451163
Si Si4 0.941720 0.691734 0.946632
Si Si5 0.291584 0.555752 0.738987
Si Si6 0.154530 0.785531 0.403094
Si Si7 0.750000 0.535265 0.000000
Si Si8 0.216811 0.855305 0.757867
O O1 0.520484 0.574275 0.475366
O O2 0.401576 0.545131 0.304914
O O3 0.682993 0.499394 0.405077
O O4 0.682988 0.593460 0.306816
O O5 0.939233 0.160065 0.475751
O O6 0.091862 0.071235 0.460767
O O7 0.099992 0.136346 0.314561
O O8 0.813190 0.085273 0.344746
O O9 0.250000 0.631997 0.500000
O O10 0.113878 0.589111 0.346165
O O11 0.939768 0.663023 0.441941
O O12 0.920864 0.658293 0.845057
O O13 0.000000 0.750000 0.927955
O O14 0.750000 0.693219 0.000000
O O15 0.379260 0.500000 0.750000
O O16 0.250000 0.761619 0.500000
O O17 0.279120 0.806161 0.315880
O O18 0.000000 0.750000 0.362659
#
# Coordination Sequence:
#
# PCOD9335257 Si02
#       8
#     8   8   8   8   8   8   4   8
#     4  11  25  42  70 102 143 190 231 297 368 441
#     4  11  24  45  70 103 141 189 250 302 355 445
#     4  10  21  44  62  94 143 181 227 286 359 433
#     4  10  24  48  70  98 136 184 242 309 365 426
#     4  11  25  41  67 107 142 183 239 295 356 430
#     4  12  24  42  70 102 138 179 234 302 372 439
#     4  12  24  44  78 102 152 200 238 304 374 450
#     4  11  23  44  69 102 136 183 250 288 362 459
#
# _framework density 22.761268999999999
#
# number of rings (size 3 to 8) (size 9 to 14) (size 15 to 20)
#    0.000    1.067    4.667    2.000    3.733    3.733 
#    4.800    1.333    0.000    0.000    0.000    0.000 
#    0.000    0.000    0.000    0.000    0.000    0.000 
#
# Total GULP energy -167783.440068 kJ/mol
# GULP energy per Si atom -5592.781336 kJ/mol
# Density = 2.270946 g / cm^3
# Si number density = 22.761269 Si / 1000 Ang^3
#
#
#
# Elastic Constant Matrix: (Units=GPa)
#
#
# Indices 1 2 3 4 5 6 
#
# 1 57.5163 18.6437 30.8706 0.0000 0.0000 0.0001
# 2 18.6437 93.3818 37.3045 0.0000 0.0000 0.0000
# 3 30.8706 37.3045 113.1594 0.0001 0.0001 0.0021
# 4 0.0000 0.0000 0.0001 13.8216 0.0000 0.0003
# 5 0.0000 0.0000 0.0001 0.0000 9.1057 -0.0004
# 6 0.0001 0.0000 0.0021 0.0003 -0.0004 553.9733
#
#
#
# Elastic Compliance Matrix: (Units=1/GPa)
#
#
# Indices 1 2 3 4 5 6 
#
# 1 0.020742 -0.002166 -0.004945 0.000000 0.000000 0.000000
# 2 -0.002166 0.012559 -0.003549 0.000000 0.000000 0.000000
# 3 -0.004945 -0.003549 0.011356 0.000000 0.000000 0.000000
# 4 0.000000 0.000000 0.000000 0.072351 0.000000 0.000000
# 5 0.000000 0.000000 0.000000 0.000000 0.109822 0.000000
# 6 0.000000 0.000000 0.000000 0.000000 0.000000 0.001805
#
#
# Mechanical properties :
#
#
# Convention : Reuss Voigt Hill
#
# Bulk Modulus (GPa) = 42.84912 48.63277 45.74095
# Shear Modulus (GPa) = 19.39984 127.19602 73.29793
#
# Velocity S-wave (km/s) = 2.92262 7.48358 5.68092
# Velocity P-wave (km/s) = 5.50048 9.80229 7.94796
#
# Compressibility (1/GPa) = 0.02333770
#
# Stress axis : x y z
#
# Youngs Moduli (GPa) = 48.21047 79.62365 88.05823
#
# Poissons Ratio (x) = 0.17246 0.43541
# Poissons Ratio (y) = 0.10442 0.31255
# Poissons Ratio (z) = 0.23838 0.28262
#
# Static dielectric constant tensor:
#      x y z
#    x 1.900980 0.000000 0.000000 
#    y 0.000000 1.819450 0.000000 
#    z 0.000000 0.000000 1.182870 
# 
# From -- ./inp_files/18813.got.cif
#   From: 2010.05.17/outbox.cif.g08.bks.cpg/sg24_10_cif.got.tgz:18813.got - 2010.06.04 00:33:39.
