data_PCOD9335932
_publ_section_title
;
Structure prediction by ZEFSAII (Michael W. Deem and Ramdas Pophale) SiO2 
 PCOD9335932
Probable space group: I 21 21 21
;
_chemical_formula_sum "Si O2"
_cell_formula_units_Z 48
_cell_length_a 5.351621
_cell_length_b 27.962395
_cell_length_c 14.272141
_cell_angle_alpha 90.000000
_cell_angle_beta 90.000000
_cell_angle_gamma 90.000000
_cell_volume 2135.742270
_symmetry_space_group_name_H-M "I 21 21 21"
_symmetry_group_IT_number 24
_symmetry_cell_setting 'orthorhombic'
loop_
_space_group_symop_operation_xyz
x,y,z
-x,1/2-y,z
x,-y,1/2-z
1/2-x,y,-z
1/2+x,1/2+y,1/2+z
1/2-x,-y,1/2+z
1/2+x,1/2-y,-z
-x,1/2+y,1/2-z
loop_
_atom_site_type_symbol
_atom_site_label
_atom_site_fract_x
_atom_site_fract_y
_atom_site_fract_z
Si Si1 0.902457 0.483132 0.654616
Si Si2 0.369377 0.110539 0.599807
Si Si3 0.884579 0.428156 0.101442
Si Si4 0.250000 0.621615 0.500000
Si Si5 0.599350 0.666178 0.719887
Si Si6 0.250000 0.456316 0.500000
Si Si7 0.926394 0.800518 0.626427
O O1 0.033594 0.500000 0.750000
O O2 0.814160 0.428306 0.649014
O O3 0.676591 0.520967 0.644998
O O4 0.062670 0.487438 0.560681
O O5 0.250000 0.125761 0.500000
O O6 0.436762 0.152103 0.671846
O O7 0.604946 0.078134 0.571310
O O8 0.827431 0.383904 0.169133
O O9 0.168671 0.414259 0.080889
O O10 0.750000 0.425087 0.000000
O O11 0.057624 0.658915 0.546181
O O12 0.349471 0.689629 0.672771
O O13 0.851863 0.695755 0.702725
O O14 0.000000 0.750000 0.580390
#
# Coordination Sequence:
#
# PCOD9335932 Si02
#       7
#     8   8   8   4   8   4   8
#     4  11  23  41  61  93 139 181 239 287 341 395
#     4  10  23  43  66  94 131 182 242 286 355 404
#     4  11  21  39  61  93 139 179 231 274 332 396
#     4  10  24  41  66  98 146 188 226 278 342 427
#     4  11  24  43  72 102 136 184 227 288 352 420
#     4  10  24  43  62  92 128 194 230 294 336 411
#     4  11  25  45  71 106 142 179 229 287 362 435
#
# _framework density 22.474623000000001
#
# number of rings (size 3 to 8) (size 9 to 14) (size 15 to 20)
#    0.000    1.333    3.333    2.000    4.667    6.000 
#    3.000    0.000    0.000    2.000    0.000    0.000 
#    0.000    0.000    0.000    0.000    0.000    0.000 
#
# Total GULP energy -133843.964692 kJ/mol
# GULP energy per Si atom -5576.831862 kJ/mol
# Density = 2.242347 g / cm^3
# Si number density = 22.474623 Si / 1000 Ang^3
#
#
#
# Elastic Constant Matrix: (Units=GPa)
#
#
# Indices 1 2 3 4 5 6 
#
# 1 90.4556 33.6813 24.3689 0.0000 0.0000 0.0000
# 2 33.6813 64.0561 12.3745 0.0000 0.0000 0.0000
# 3 24.3689 12.3745 81.9624 0.0000 0.0000 0.0000
# 4 0.0000 0.0000 0.0000 28.1534 0.0000 0.0000
# 5 0.0000 0.0000 0.0000 0.0000 18.7741 0.0000
# 6 0.0000 0.0000 0.0000 0.0000 0.0000 26.0568
#
#
#
# Elastic Compliance Matrix: (Units=1/GPa)
#
#
# Indices 1 2 3 4 5 6 
#
# 1 0.014548 -0.007019 -0.003266 0.000000 0.000000 0.000000
# 2 -0.007019 0.019466 -0.000852 0.000000 0.000000 0.000000
# 3 -0.003266 -0.000852 0.013300 0.000000 0.000000 0.000000
# 4 0.000000 0.000000 0.000000 0.035520 0.000000 0.000000
# 5 0.000000 0.000000 0.000000 0.000000 0.053265 0.000000
# 6 0.000000 0.000000 0.000000 0.000000 0.000000 0.038378
#
#
# Mechanical properties :
#
#
# Convention : Reuss Voigt Hill
#
# Bulk Modulus (GPa) = 39.93347 41.92485 40.92916
# Shear Modulus (GPa) = 24.37854 25.66682 25.02268
#
# Velocity S-wave (km/s) = 3.29707 3.38307 3.34035
# Velocity P-wave (km/s) = 5.68340 5.82709 5.75570
#
# Compressibility (1/GPa) = 0.02504165
#
# Stress axis : x y z
#
# Youngs Moduli (GPa) = 68.73595 51.37032 75.18593
#
# Poissons Ratio (x) = 0.36056 0.24554
# Poissons Ratio (y) = 0.48244 0.06407
# Poissons Ratio (z) = 0.22448 0.04378
#
# Static dielectric constant tensor:
#      x y z
#    x 1.994090 0.000000 0.000000 
#    y 0.000000 1.825860 0.000000 
#    z 0.000000 0.000000 1.871120 
# 
# From -- ./inp_files/23943.got.cif
#   From: 2010.05.17/outbox.cif.g08.bks.cpg/sg24_12_cif.got.tgz:23943.got - 2010.06.04 00:33:39.
