data_PCOD9335970
_publ_section_title
;
Structure prediction by ZEFSAII (Michael W. Deem and Ramdas Pophale) SiO2 
 PCOD9335970
Probable space group: I 21 21 21
;
_chemical_formula_sum "Si O2"
_cell_formula_units_Z 52
_cell_length_a 14.639294
_cell_length_b 8.662986
_cell_length_c 17.572009
_cell_angle_alpha 90.000000
_cell_angle_beta 90.000000
_cell_angle_gamma 90.000000
_cell_volume 2228.482163
_symmetry_space_group_name_H-M "I 21 21 21"
_symmetry_group_IT_number 24
_symmetry_cell_setting 'orthorhombic'
loop_
_space_group_symop_operation_xyz
x,y,z
-x,1/2-y,z
x,-y,1/2-z
1/2-x,y,-z
1/2+x,1/2+y,1/2+z
1/2-x,-y,1/2+z
1/2+x,1/2-y,-z
-x,1/2+y,1/2-z
loop_
_atom_site_type_symbol
_atom_site_label
_atom_site_fract_x
_atom_site_fract_y
_atom_site_fract_z
Si Si1 0.972953 0.920943 0.912726
Si Si2 0.761917 0.496069 0.081674
Si Si3 0.500000 0.750000 0.340391
Si Si4 0.526415 0.578624 0.911072
Si Si5 0.704200 0.735418 0.295730
Si Si6 0.779889 0.812278 0.880614
Si Si7 0.138706 0.535609 0.339268
O O1 0.864301 0.922059 0.898593
O O2 0.000000 0.750000 0.879682
O O3 0.000887 0.918026 0.000391
O O4 0.011411 0.083693 0.882095
O O5 0.719542 0.419625 0.156695
O O6 0.709200 0.657891 0.071660
O O7 0.867703 0.535336 0.097363
O O8 0.750000 0.411075 0.000000
O O9 0.596854 0.774074 0.299377
O O10 0.500000 0.750000 0.879168
O O11 0.461967 0.449579 0.872456
O O12 0.724487 0.757216 0.207018
O O13 0.780833 0.839067 0.338303
O O14 0.684821 0.900430 0.890146
O O15 0.127422 0.500000 0.250000
#
# Coordination Sequence:
#
# PCOD9335970 Si02
#       7
#     8   8   4   8   8   8   8
#     4  11  25  43  70 106 141 188 247 304 371 450
#     4  12  25  45  71 106 145 184 245 307 367 453
#     4  12  24  46  70 104 146 190 246 312 376 452
#     4  11  23  44  71 101 140 192 242 296 374 452
#     4  11  26  45  69 104 144 185 240 311 373 443
#     4  11  23  46  69  97 145 188 236 295 372 442
#     4  10  23  44  67  98 135 179 232 291 353 442
#
# _framework density 23.334268000000002
#
# number of rings (size 3 to 8) (size 9 to 14) (size 15 to 20)
#    0.000    0.923    3.077    4.154    1.077    4.308 
#    0.000    0.000    0.000    0.000    0.000    0.000 
#    0.000    0.000    0.000    0.000    0.000    0.000 
#
# Total GULP energy -145045.042883 kJ/mol
# GULP energy per Si atom -5578.655496 kJ/mol
# Density = 2.328116 g / cm^3
# Si number density = 23.334268 Si / 1000 Ang^3
#
#
#
# Elastic Constant Matrix: (Units=GPa)
#
#
# Indices 1 2 3 4 5 6 
#
# 1 149.3506 19.2103 8.9105 0.0000 0.0000 0.0000
# 2 19.2103 68.0630 7.5318 0.0000 0.0000 0.0000
# 3 8.9105 7.5318 36.7767 0.0000 0.0000 0.0000
# 4 0.0000 0.0000 0.0000 14.7480 0.0000 0.0000
# 5 0.0000 0.0000 0.0000 0.0000 56.6981 0.0000
# 6 0.0000 0.0000 0.0000 0.0000 0.0000 34.8955
#
#
#
# Elastic Compliance Matrix: (Units=1/GPa)
#
#
# Indices 1 2 3 4 5 6 
#
# 1 0.007010 -0.001832 -0.001323 0.000000 0.000000 0.000000
# 2 -0.001832 0.015512 -0.002733 0.000000 0.000000 0.000000
# 3 -0.001323 -0.002733 0.028071 0.000000 0.000000 0.000000
# 4 0.000000 0.000000 0.000000 0.067806 0.000000 0.000000
# 5 0.000000 0.000000 0.000000 0.000000 0.017637 0.000000
# 6 0.000000 0.000000 0.000000 0.000000 0.000000 0.028657
#
#
# Mechanical properties :
#
#
# Convention : Reuss Voigt Hill
#
# Bulk Modulus (GPa) = 25.76202 36.16618 30.96410
# Shear Modulus (GPa) = 26.39786 35.83750 31.11768
#
# Velocity S-wave (km/s) = 3.36712 3.92322 3.65576
# Velocity P-wave (km/s) = 5.11674 6.00458 5.57835
#
# Compressibility (1/GPa) = 0.03881683
#
# Stress axis : x y z
#
# Youngs Moduli (GPa) = 142.64791 64.46706 35.62341
#
# Poissons Ratio (x) = 0.11811 0.04714
# Poissons Ratio (y) = 0.26135 0.09735
# Poissons Ratio (z) = 0.18876 0.17618
#
# Static dielectric constant tensor:
#      x y z
#    x 1.870670 0.000000 0.000000 
#    y 0.000000 1.872430 0.000000 
#    z 0.000000 0.000000 1.846190 
# 
# From -- ./inp_files/33707.got.cif
#   From: 2010.05.17/outbox.cif.g08.bks.cpg/sg24_17_cif.got.tgz:33707.got - 2010.06.04 00:33:39.
