data_PCOD9335545
_publ_section_title
;
Structure prediction by ZEFSAII (Michael W. Deem and Ramdas Pophale) SiO2 
 PCOD9335545
Probable space group: I 21 21 21
;
_chemical_formula_sum "Si O2"
_cell_formula_units_Z 28
_cell_length_a 14.538268
_cell_length_b 16.592490
_cell_length_c 5.201603
_cell_angle_alpha 90.000000
_cell_angle_beta 90.000000
_cell_angle_gamma 90.000000
_cell_volume 1254.762231
_symmetry_space_group_name_H-M "I 21 21 21"
_symmetry_group_IT_number 24
_symmetry_cell_setting 'orthorhombic'
loop_
_space_group_symop_operation_xyz
x,y,z
-x,1/2-y,z
x,-y,1/2-z
1/2-x,y,-z
1/2+x,1/2+y,1/2+z
1/2-x,-y,1/2+z
1/2+x,1/2-y,-z
-x,1/2+y,1/2-z
loop_
_atom_site_type_symbol
_atom_site_label
_atom_site_fract_x
_atom_site_fract_y
_atom_site_fract_z
Si Si1 0.912596 0.690787 0.935143
Si Si2 0.849001 0.229499 0.068688
Si Si3 0.250000 0.444007 0.500000
Si Si4 0.942280 0.907779 0.164376
O O1 0.848315 0.719627 0.168090
O O2 0.000000 0.750000 0.949069
O O3 0.964615 0.608731 0.008250
O O4 0.871046 0.708180 0.658920
O O5 0.750000 0.192177 0.000000
O O6 0.924629 0.158187 0.108400
O O7 0.246442 0.500000 0.750000
O O8 0.153832 0.603773 0.008358
O O9 0.942800 0.000000 0.250000
#
# Coordination Sequence:
#
# PCOD9335545 Si02
#       4
#     8   8   4   8
#     4  10  22  41  61  91 129 173 217 260 318 394
#     4  11  24  40  65  92 130 171 219 265 323 388
#     4  10  24  38  58  98 138 168 198 258 342 404
#     4  10  24  41  67 100 134 171 216 271 338 395
#
# _framework density 22.314986000000001
#
# number of rings (size 3 to 8) (size 9 to 14) (size 15 to 20)
#    0.000    1.714    0.000    3.429   16.000    4.571 
#    0.000    0.000    0.000    3.429    0.000    0.000 
#    0.000    0.000    0.000    0.000    0.000    0.000 
#
# Total GULP energy -78174.094925 kJ/mol
# GULP energy per Si atom -5583.863923 kJ/mol
# Density = 2.226420 g / cm^3
# Si number density = 22.314986 Si / 1000 Ang^3
#
#
#
# Elastic Constant Matrix: (Units=GPa)
#
#
# Indices 1 2 3 4 5 6 
#
# 1 57.6691 33.2473 38.3052 0.0000 0.0000 0.0000
# 2 33.2473 95.4630 41.8886 0.0000 0.0000 0.0000
# 3 38.3052 41.8886 164.8095 0.0000 0.0000 0.0000
# 4 0.0000 0.0000 0.0000 24.2469 0.0000 0.0000
# 5 0.0000 0.0000 0.0000 0.0000 35.4194 0.0000
# 6 0.0000 0.0000 0.0000 0.0000 0.0000 34.6045
#
#
#
# Elastic Compliance Matrix: (Units=1/GPa)
#
#
# Indices 1 2 3 4 5 6 
#
# 1 0.023669 -0.006561 -0.003834 0.000000 0.000000 0.000000
# 2 -0.006561 0.013609 -0.001934 0.000000 0.000000 0.000000
# 3 -0.003834 -0.001934 0.007450 0.000000 0.000000 0.000000
# 4 0.000000 0.000000 0.000000 0.041242 0.000000 0.000000
# 5 0.000000 0.000000 0.000000 0.000000 0.028233 0.000000
# 6 0.000000 0.000000 0.000000 0.000000 0.000000 0.028898
#
#
# Mechanical properties :
#
#
# Convention : Reuss Voigt Hill
#
# Bulk Modulus (GPa) = 49.82347 60.53601 55.17974
# Shear Modulus (GPa) = 28.66150 32.48751 30.57451
#
# Velocity S-wave (km/s) = 3.58775 3.81971 3.70555
# Velocity P-wave (km/s) = 6.28796 6.82938 6.56426
#
# Compressibility (1/GPa) = 0.02007086
#
# Stress axis : x y z
#
# Youngs Moduli (GPa) = 42.24869 73.48089 134.22520
#
# Poissons Ratio (x) = 0.48213 0.51457
# Poissons Ratio (y) = 0.27720 0.25958
# Poissons Ratio (z) = 0.16197 0.14211
#
# Static dielectric constant tensor:
#      x y z
#    x 1.949480 0.000000 0.000000 
#    y 0.000000 1.921640 0.000000 
#    z 0.000000 0.000000 1.923570 
# 
# From -- ./inp_files/3015.got.cif
#   From: 2010.05.17/outbox.cif.g08.bks.cpg/sg24_2_cif.got.tgz:3015.got - 2010.06.04 00:33:39.
