data_PCOD9335617
_publ_section_title
;
Structure prediction by ZEFSAII (Michael W. Deem and Ramdas Pophale) SiO2 
 PCOD9335617
Probable space group: I 21 21 21
;
_chemical_formula_sum "Si O2"
_cell_formula_units_Z 52
_cell_length_a 14.805276
_cell_length_b 20.061444
_cell_length_c 7.741189
_cell_angle_alpha 90.000000
_cell_angle_beta 90.000000
_cell_angle_gamma 90.000000
_cell_volume 2299.250918
_symmetry_space_group_name_H-M "I 21 21 21"
_symmetry_group_IT_number 24
_symmetry_cell_setting 'orthorhombic'
loop_
_space_group_symop_operation_xyz
x,y,z
-x,1/2-y,z
x,-y,1/2-z
1/2-x,y,-z
1/2+x,1/2+y,1/2+z
1/2-x,-y,1/2+z
1/2+x,1/2-y,-z
-x,1/2+y,1/2-z
loop_
_atom_site_type_symbol
_atom_site_label
_atom_site_fract_x
_atom_site_fract_y
_atom_site_fract_z
Si Si1 0.049877 0.554806 0.006892
Si Si2 0.914464 0.700864 0.473009
Si Si3 0.799623 0.130165 0.318696
Si Si4 0.312474 0.500000 0.250000
Si Si5 0.409118 0.000000 0.750000
Si Si6 0.250000 0.719488 0.500000
Si Si7 0.588179 0.582840 0.262347
Si Si8 0.280099 0.878916 0.702412
O O1 0.100090 0.605300 0.134341
O O2 0.977348 0.507167 0.093094
O O3 0.124242 0.508774 0.915894
O O4 0.996089 0.595054 0.862099
O O5 0.834793 0.739184 0.577730
O O6 0.934612 0.630205 0.569644
O O7 0.851942 0.681745 0.305945
O O8 0.000000 0.750000 0.451113
O O9 0.750000 0.150587 0.500000
O O10 0.747398 0.064968 0.252117
O O11 0.791866 0.179049 0.158669
O O12 0.343457 0.061571 0.742862
O O13 0.598806 0.500000 0.250000
O O14 0.684705 0.613135 0.201487
O O15 0.250000 0.890306 0.500000
#
# Coordination Sequence:
#
# PCOD9335617 Si02
#       8
#     8   8   8   4   4   4   8   8
#     4  11  24  39  67 111 143 194 250 317 395 470
#     4  11  26  46  78 109 148 216 265 307 407 506
#     4  10  26  44  70 106 151 199 258 320 388 479
#     4  10  23  45  66 100 156 198 250 325 401 468
#     4  12  25  35  70 108 150 176 250 323 389 464
#     4  12  26  48  80 104 152 210 258 318 392 480
#     4  11  21  45  76 107 149 192 261 333 399 462
#     4  10  22  42  66 105 142 197 254 319 394 472
#
# _framework density 22.616063
#
# number of rings (size 3 to 8) (size 9 to 14) (size 15 to 20)
#    0.000    1.231    3.846    2.308   11.846    0.000 
#    0.000    1.538    0.000    0.000    0.000    0.000 
#    0.000    0.000    0.000    0.000    0.000    0.000 
#
# Total GULP energy -144835.534615 kJ/mol
# GULP energy per Si atom -5570.597485 kJ/mol
# Density = 2.256459 g / cm^3
# Si number density = 22.616063 Si / 1000 Ang^3
#
#
#
# Elastic Constant Matrix: (Units=GPa)
#
#
# Indices 1 2 3 4 5 6 
#
# 1 152.1394 60.3705 24.2565 0.0000 0.0000 0.0000
# 2 60.3705 121.7267 45.8974 0.0000 0.0000 0.0000
# 3 24.2565 45.8974 64.0133 0.0000 0.0000 0.0000
# 4 0.0000 0.0000 0.0000 22.8046 0.0000 0.0000
# 5 0.0000 0.0000 0.0000 0.0000 -29.9734 0.0000
# 6 0.0000 0.0000 0.0000 0.0000 0.0000 36.2867
#
#
#
# Elastic Compliance Matrix: (Units=1/GPa)
#
#
# Indices 1 2 3 4 5 6 
#
# 1 0.008187 -0.003961 -0.000262 0.000000 0.000000 0.000000
# 2 -0.003961 0.013176 -0.007946 0.000000 0.000000 0.000000
# 3 -0.000262 -0.007946 0.021418 0.000000 0.000000 0.000000
# 4 0.000000 0.000000 0.000000 0.043851 0.000000 0.000000
# 5 0.000000 0.000000 0.000000 0.000000 -0.033363 0.000000
# 6 0.000000 0.000000 0.000000 0.000000 0.000000 0.027558
#
#
# Mechanical properties :
#
#
# Convention : Reuss Voigt Hill
#
# Bulk Modulus (GPa) = 54.22331 66.54758 60.38544
# Shear Modulus (GPa) = 44.91854 19.64724 32.28289
#
# Velocity S-wave (km/s) = 4.46144 2.95062 3.78224
# Velocity P-wave (km/s) = 7.11104 6.41069 6.76993
#
# Compressibility (1/GPa) = 0.01844225
#
# Stress axis : x y z
#
# Youngs Moduli (GPa) = 122.15077 75.89650 46.68936
#
# Poissons Ratio (x) = 0.30066 0.01222
# Poissons Ratio (y) = 0.48389 0.37099
# Poissons Ratio (z) = 0.03198 0.60307
#
# Static dielectric constant tensor:
#      x y z
#    x 1.878000 0.000000 0.000000 
#    y 0.000000 1.957710 0.000000 
#    z 0.000000 0.000000 1.889120 
# 
# From -- ./inp_files/13111.got.cif
#   From: 2010.05.17/outbox.cif.g08.bks.cpg/sg24_7_cif.got.tgz:13111.got - 2010.06.04 00:33:39.
