data_PCOD9335841
_publ_section_title
;
Structure prediction by ZEFSAII (Michael W. Deem and Ramdas Pophale) SiO2 
 PCOD9335841
Probable space group: I 21 21 21
;
_chemical_formula_sum "Si O2"
_cell_formula_units_Z 64
_cell_length_a 14.401848
_cell_length_b 23.305349
_cell_length_c 8.928916
_cell_angle_alpha 90.000000
_cell_angle_beta 90.000000
_cell_angle_gamma 90.000000
_cell_volume 2996.902205
_symmetry_space_group_name_H-M "I 21 21 21"
_symmetry_group_IT_number 24
_symmetry_cell_setting 'orthorhombic'
loop_
_space_group_symop_operation_xyz
x,y,z
-x,1/2-y,z
x,-y,1/2-z
1/2-x,y,-z
1/2+x,1/2+y,1/2+z
1/2-x,-y,1/2+z
1/2+x,1/2-y,-z
-x,1/2+y,1/2-z
loop_
_atom_site_type_symbol
_atom_site_label
_atom_site_fract_x
_atom_site_fract_y
_atom_site_fract_z
Si Si1 0.518692 0.919624 0.575453
Si Si2 0.316020 0.277608 0.788404
Si Si3 0.618670 0.184004 0.088247
Si Si4 0.734820 0.340983 0.324031
Si Si5 0.340256 0.488108 0.576148
Si Si6 0.523121 0.309988 0.359330
Si Si7 0.079877 0.373049 0.394383
Si Si8 0.814843 0.447471 0.135799
O O1 0.582022 0.875113 0.483601
O O2 0.564144 0.980586 0.537284
O O3 0.533671 0.902368 0.749181
O O4 0.408788 0.922849 0.560025
O O5 0.220407 0.310435 0.836280
O O6 0.293377 0.214977 0.726143
O O7 0.367392 0.317165 0.667595
O O8 0.374650 0.274450 0.943200
O O9 0.545060 0.194313 0.217909
O O10 0.750000 0.352305 0.500000
O O11 0.627397 0.321946 0.307713
O O12 0.765115 0.395623 0.226199
O O13 0.326180 0.500000 0.750000
O O14 0.250000 0.513738 0.500000
O O15 0.350596 0.421138 0.544510
O O16 0.500000 0.250000 0.440821
O O17 0.492088 0.357904 0.476770
O O18 0.835550 0.500000 0.250000
O O19 0.750000 0.467846 0.000000
#
# Coordination Sequence:
#
# PCOD9335841 Si02
#       8
#     8   8   8   8   8   8   8   8
#     4  10  23  46  67  95 136 184 235 288 352 429
#     4  10  23  42  67  96 142 184 223 282 364 445
#     4  10  23  40  67  96 136 180 222 286 354 430
#     4  12  26  45  71 104 140 185 247 304 367 438
#     4  10  23  37  63  94 130 171 220 270 338 418
#     4  12  24  41  65  99 136 174 229 297 350 425
#     4  10  23  40  65  96 136 181 220 281 363 426
#     4  12  27  48  76 100 139 191 251 311 367 428
#
# _framework density 21.355385999999999
#
# number of rings (size 3 to 8) (size 9 to 14) (size 15 to 20)
#    0.000    1.250    1.250    3.750    8.750    2.000 
#    0.000    3.125    0.000    0.000    0.000    0.000 
#    0.000    0.000    0.000    0.000    0.000    0.000 
#
# Total GULP energy -178730.097712 kJ/mol
# GULP energy per Si atom -5585.315554 kJ/mol
# Density = 2.130678 g / cm^3
# Si number density = 21.355386 Si / 1000 Ang^3
#
#
#
# Elastic Constant Matrix: (Units=GPa)
#
#
# Indices 1 2 3 4 5 6 
#
# 1 64.6573 -0.8438 7.8733 0.0003 0.0000 0.0002
# 2 -0.8438 75.5849 14.0631 0.0002 -0.0001 0.0003
# 3 7.8733 14.0631 52.0841 0.0015 0.0003 0.0009
# 4 0.0003 0.0002 0.0015 15.2805 0.0000 0.0004
# 5 0.0000 -0.0001 0.0003 0.0000 13.7280 0.0002
# 6 0.0002 0.0003 0.0009 0.0004 0.0002 34.5973
#
#
#
# Elastic Compliance Matrix: (Units=1/GPa)
#
#
# Indices 1 2 3 4 5 6 
#
# 1 0.015787 0.000653 -0.002563 0.000000 0.000000 0.000000
# 2 0.000653 0.013957 -0.003867 0.000000 0.000000 0.000000
# 3 -0.002563 -0.003867 0.020631 -0.000002 0.000000 0.000000
# 4 0.000000 0.000000 -0.000002 0.065443 0.000000 -0.000001
# 5 0.000000 0.000000 0.000000 0.000000 0.072844 0.000000
# 6 0.000000 0.000000 0.000000 -0.000001 0.000000 0.028904
#
#
# Mechanical properties :
#
#
# Convention : Reuss Voigt Hill
#
# Bulk Modulus (GPa) = 25.75911 26.05684 25.90798
# Shear Modulus (GPa) = 20.65607 24.13675 22.39641
#
# Velocity S-wave (km/s) = 3.11344 3.36555 3.24195
# Velocity P-wave (km/s) = 5.00130 5.22787 5.11584
#
# Compressibility (1/GPa) = 0.03882122
#
# Stress axis : x y z
#
# Youngs Moduli (GPa) = 63.34428 71.64884 48.47005
#
# Poissons Ratio (x) = -0.04679 0.12422
# Poissons Ratio (y) = -0.04137 0.18744
# Poissons Ratio (z) = 0.16233 0.27708
#
# Static dielectric constant tensor:
#      x y z
#    x 1.849750 0.000000 0.000000 
#    y 0.000000 1.821700 0.000000 
#    z 0.000000 0.000000 1.761420 
# 
# From -- ./inp_files/13344.got.cif
#   From: 2010.05.17/outbox.cif.g08.bks.cpg/sg24_7_cif.got.tgz:13344.got - 2010.06.04 00:33:39.
