data_PCOD9335713
_publ_section_title
;
Structure prediction by ZEFSAII (Michael W. Deem and Ramdas Pophale) SiO2 
 PCOD9335713
Probable space group: I 21 21 21
;
_chemical_formula_sum "Si O2"
_cell_formula_units_Z 24
_cell_length_a 21.632999
_cell_length_b 8.792598
_cell_length_c 5.025708
_cell_angle_alpha 90.000000
_cell_angle_beta 90.000000
_cell_angle_gamma 90.000000
_cell_volume 955.941244
_symmetry_space_group_name_H-M "I 21 21 21"
_symmetry_group_IT_number 24
_symmetry_cell_setting 'orthorhombic'
loop_
_space_group_symop_operation_xyz
x,y,z
-x,1/2-y,z
x,-y,1/2-z
1/2-x,y,-z
1/2+x,1/2+y,1/2+z
1/2-x,-y,1/2+z
1/2+x,1/2-y,-z
-x,1/2+y,1/2-z
loop_
_atom_site_type_symbol
_atom_site_label
_atom_site_fract_x
_atom_site_fract_y
_atom_site_fract_z
Si Si1 0.804021 0.675781 0.185502
Si Si2 0.942125 0.673521 0.179461
Si Si3 0.373224 0.611199 0.496936
O O1 0.791371 0.500000 0.250000
O O2 0.873167 0.677856 0.050516
O O3 0.816467 0.773551 0.450973
O O4 0.750000 0.736522 0.000000
O O5 0.954931 0.500000 0.250000
O O6 0.930643 0.777333 0.442800
O O7 0.000000 0.750000 0.035879
O O8 0.374057 0.500000 0.250000
O O9 0.371304 0.500000 0.750000
#
# Coordination Sequence:
#
# PCOD9335713 Si02
#       3
#     8   8   8
#     4   9  21  42  72 114 161 212 274 332 404 485
#     4   9  19  41  75 115 164 212 268 335 406 487
#     4  10  22  43  72 111 156 203 261 323 403 474
#
# _framework density 25.106142999999999
#
# number of rings (size 3 to 8) (size 9 to 14) (size 15 to 20)
#    2.000    0.667    0.000    1.000    0.000    2.667 
#    0.000   10.000    0.000    2.000    0.000    0.000 
#    0.000    0.000    0.000    0.000    0.000    0.000 
#
# Total GULP energy -66933.396118 kJ/mol
# GULP energy per Si atom -5577.783010 kJ/mol
# Density = 2.504900 g / cm^3
# Si number density = 25.106143 Si / 1000 Ang^3
#
#
#
# Elastic Constant Matrix: (Units=GPa)
#
#
# Indices 1 2 3 4 5 6 
#
# 1 163.2123 14.4225 35.6123 0.0000 0.0000 0.0000
# 2 14.4225 200.3478 66.3331 0.0000 0.0000 0.0000
# 3 35.6123 66.3331 142.2223 -0.0001 -0.0002 0.0001
# 4 0.0000 0.0000 -0.0001 38.5357 -0.0001 0.0000
# 5 0.0000 0.0000 -0.0002 -0.0001 22.3753 0.0001
# 6 0.0000 0.0000 0.0001 0.0000 0.0001 -70.3784
#
#
#
# Elastic Compliance Matrix: (Units=1/GPa)
#
#
# Indices 1 2 3 4 5 6 
#
# 1 0.006482 0.000084 -0.001662 0.000000 0.000000 0.000000
# 2 0.000084 0.005904 -0.002775 0.000000 0.000000 0.000000
# 3 -0.001662 -0.002775 0.008742 0.000000 0.000000 0.000000
# 4 0.000000 0.000000 0.000000 0.025950 0.000000 0.000000
# 5 0.000000 0.000000 0.000000 0.000000 0.044692 0.000000
# 6 0.000000 0.000000 0.000000 0.000000 0.000000 -0.014209
#
#
# Mechanical properties :
#
#
# Convention : Reuss Voigt Hill
#
# Bulk Modulus (GPa) = 80.50498 82.05758 81.28128
# Shear Modulus (GPa) = 55.30504 24.06749 39.68626
#
# Velocity S-wave (km/s) = 4.69854 3.09953 3.98016
# Velocity P-wave (km/s) = 7.84669 6.75016 7.31899
#
# Compressibility (1/GPa) = 0.01242159
#
# Stress axis : x y z
#
# Youngs Moduli (GPa) = 154.26680 169.37875 114.39644
#
# Poissons Ratio (x) = -0.01418 0.19015
# Poissons Ratio (y) = -0.01291 0.31740
# Poissons Ratio (z) = 0.25642 0.46995
#
# Static dielectric constant tensor:
#      x y z
#    x 2.100610 0.000000 0.000000 
#    y 0.000000 1.964170 0.000000 
#    z 0.000000 0.000000 2.085150 
# 
# From -- ./inp_files/6025.got.cif
#   From: 2010.05.17/outbox.cif.g08.bks.cpg/sg24_4_cif.got.tgz:6025.got - 2010.06.04 00:33:39.
