data_PCOD9335179
_publ_section_title
;
Structure prediction by ZEFSAII (Michael W. Deem and Ramdas Pophale) SiO2 
 PCOD9335179
Probable space group: I 21 21 21
;
_chemical_formula_sum "Si O2"
_cell_formula_units_Z 40
_cell_length_a 5.075304
_cell_length_b 10.623714
_cell_length_c 29.365111
_cell_angle_alpha 90.000000
_cell_angle_beta 90.000000
_cell_angle_gamma 90.000000
_cell_volume 1583.325033
_symmetry_space_group_name_H-M "I 21 21 21"
_symmetry_group_IT_number 24
_symmetry_cell_setting 'orthorhombic'
loop_
_space_group_symop_operation_xyz
x,y,z
-x,1/2-y,z
x,-y,1/2-z
1/2-x,y,-z
1/2+x,1/2+y,1/2+z
1/2-x,-y,1/2+z
1/2+x,1/2-y,-z
-x,1/2+y,1/2-z
loop_
_atom_site_type_symbol
_atom_site_label
_atom_site_fract_x
_atom_site_fract_y
_atom_site_fract_z
Si Si1 0.750000 0.884448 0.000000
Si Si2 0.000000 0.250000 0.834379
Si Si3 0.750000 0.434157 0.000000
Si Si4 0.221987 0.617409 0.900586
Si Si5 0.775677 0.562483 0.401526
Si Si6 0.687308 0.861839 0.247867
Si Si7 0.000000 0.250000 0.322288
O O1 0.748756 0.819451 0.950733
O O2 0.500225 0.975107 0.000354
O O3 0.180111 0.159476 0.864079
O O4 0.199886 0.322462 0.800400
O O5 0.760286 0.369160 0.048980
O O6 0.444332 0.506950 0.896423
O O7 0.279235 0.711764 0.859452
O O8 0.943479 0.547689 0.899517
O O9 0.500000 0.750000 0.228618
O O10 0.944866 0.859894 0.215697
O O11 0.568199 0.000000 0.250000
#
# Coordination Sequence:
#
# PCOD9335179 Si02
#       7
#     4   4   4   8   8   8   4
#     4   8  16  38  58  96 128 182 216 287 353 432
#     4  10  24  40  72  94 140 186 250 304 380 450
#     4   8  16  34  64  88 134 172 224 285 349 434
#     4  10  23  39  70  95 145 177 243 294 371 445
#     4  10  21  42  64 101 135 188 234 298 371 443
#     4  10  26  46  69 102 144 195 256 324 389 461
#     4  12  26  40  74 100 138 194 248 320 376 458
#
# _framework density 25.263289
#
# number of rings (size 3 to 8) (size 9 to 14) (size 15 to 20)
#    0.600    1.600    0.000    1.200    5.600    4.800 
#    0.000   12.000    0.000    0.000    0.000    0.000 
#    0.000    0.000    0.000    0.000    0.000    0.000 
#
# Total GULP energy -111539.042477 kJ/mol
# GULP energy per Si atom -5576.952124 kJ/mol
# Density = 2.520579 g / cm^3
# Si number density = 25.263289 Si / 1000 Ang^3
#
#
#
# Elastic Constant Matrix: (Units=GPa)
#
#
# Indices 1 2 3 4 5 6 
#
# 1 82.8731 17.6734 18.9218 0.0000 0.0000 0.0000
# 2 17.6734 95.9052 64.8862 0.0000 0.0000 0.0000
# 3 18.9218 64.8862 242.8369 0.0000 0.0000 0.0000
# 4 0.0000 0.0000 0.0000 34.2433 0.0000 0.0000
# 5 0.0000 0.0000 0.0000 0.0000 -47.7091 0.0000
# 6 0.0000 0.0000 0.0000 0.0000 0.0000 42.5583
#
#
#
# Elastic Compliance Matrix: (Units=1/GPa)
#
#
# Indices 1 2 3 4 5 6 
#
# 1 0.012599 -0.002023 -0.000441 0.000000 0.000000 0.000000
# 2 -0.002023 0.013053 -0.003330 0.000000 0.000000 0.000000
# 3 -0.000441 -0.003330 0.005042 0.000000 0.000000 0.000000
# 4 0.000000 0.000000 0.000000 0.029203 0.000000 0.000000
# 5 0.000000 0.000000 0.000000 0.000000 -0.020960 0.000000
# 6 0.000000 0.000000 0.000000 0.000000 0.000000 0.023497
#
#
# Mechanical properties :
#
#
# Convention : Reuss Voigt Hill
#
# Bulk Modulus (GPa) = 52.34252 69.39756 60.87004
# Shear Modulus (GPa) = 62.19630 27.16075 44.67852
#
# Velocity S-wave (km/s) = 4.96716 3.28244 4.20993
# Velocity P-wave (km/s) = 7.32535 6.47265 6.91216
#
# Compressibility (1/GPa) = 0.01910493
#
# Stress axis : x y z
#
# Youngs Moduli (GPa) = 79.37245 76.61175 198.32791
#
# Poissons Ratio (x) = 0.15501 0.08748
# Poissons Ratio (y) = 0.16059 0.66045
# Poissons Ratio (z) = 0.03501 0.25512
#
# Static dielectric constant tensor:
#      x y z
#    x 2.079680 0.000000 0.000000 
#    y 0.000000 2.121180 0.000000 
#    z 0.000000 0.000000 2.024340 
# 
# From -- ./inp_files/37855.got.cif
#   From: 2010.05.17/outbox.cif.g08.bks.cpg/sg24_19_cif.got.tgz:37855.got - 2010.06.04 00:33:39.
