data_PCOD9335986
_publ_section_title
;
Structure prediction by ZEFSAII (Michael W. Deem and Ramdas Pophale) SiO2 
 PCOD9335986
Probable space group: I 21 21 21
;
_chemical_formula_sum "Si O2"
_cell_formula_units_Z 40
_cell_length_a 9.282794
_cell_length_b 18.516432
_cell_length_c 10.346878
_cell_angle_alpha 90.000000
_cell_angle_beta 90.000000
_cell_angle_gamma 90.000000
_cell_volume 1778.465095
_symmetry_space_group_name_H-M "I 21 21 21"
_symmetry_group_IT_number 24
_symmetry_cell_setting 'orthorhombic'
loop_
_space_group_symop_operation_xyz
x,y,z
-x,1/2-y,z
x,-y,1/2-z
1/2-x,y,-z
1/2+x,1/2+y,1/2+z
1/2-x,-y,1/2+z
1/2+x,1/2-y,-z
-x,1/2+y,1/2-z
loop_
_atom_site_type_symbol
_atom_site_label
_atom_site_fract_x
_atom_site_fract_y
_atom_site_fract_z
Si Si1 0.213163 0.658963 0.153796
Si Si2 0.942502 0.922197 0.695887
Si Si3 0.902622 0.390173 0.339752
Si Si4 0.628619 0.702622 0.175802
Si Si5 0.590287 0.544545 0.553766
O O1 0.289976 0.593908 0.233413
O O2 0.275374 0.730255 0.223212
O O3 0.042875 0.658404 0.155294
O O4 0.250000 0.656670 0.000000
O O5 0.040323 0.854084 0.738151
O O6 0.965424 0.927744 0.542076
O O7 0.996149 0.000000 0.750000
O O8 0.756591 0.348908 0.372019
O O9 0.926661 0.458502 0.432350
O O10 0.904684 0.420967 0.194688
O O11 0.500000 0.750000 0.106525
O O12 0.750000 0.558987 0.500000
#
# Coordination Sequence:
#
# PCOD9335986 Si02
#       5
#     8   8   8   8   8
#     4  11  26  45  68 108 149 192 245 310 377 456
#     4  11  23  43  71 102 148 190 243 310 376 438
#     4  11  24  44  71 107 142 194 249 301 381 450
#     4  10  23  44  70 106 145 190 247 301 382 448
#     4  11  23  42  73 105 141 188 250 307 366 454
#
# _framework density 22.491304
#
# number of rings (size 3 to 8) (size 9 to 14) (size 15 to 20)
#    0.000    1.200    2.000    3.000    2.800    9.600 
#    0.000   10.000    0.000    0.000    0.000    0.000 
#    0.000    0.000    0.000    0.000    0.000    0.000 
#
# Total GULP energy -111438.106027 kJ/mol
# GULP energy per Si atom -5571.905301 kJ/mol
# Density = 2.244011 g / cm^3
# Si number density = 22.491304 Si / 1000 Ang^3
#
#
#
# Elastic Constant Matrix: (Units=GPa)
#
#
# Indices 1 2 3 4 5 6 
#
# 1 94.2120 29.3457 33.1068 -0.0001 0.0000 0.0000
# 2 29.3457 128.4018 43.8136 0.0001 -0.0001 -0.0001
# 3 33.1068 43.8136 90.8448 0.0002 -0.0001 -0.0001
# 4 -0.0001 0.0001 0.0002 -9.4252 -0.0001 -0.0001
# 5 0.0000 -0.0001 -0.0001 -0.0001 26.3605 0.0000
# 6 0.0000 -0.0001 -0.0001 -0.0001 0.0000 90.0467
#
#
#
# Elastic Compliance Matrix: (Units=1/GPa)
#
#
# Indices 1 2 3 4 5 6 
#
# 1 0.012426 -0.001550 -0.003781 0.000000 0.000000 0.000000
# 2 -0.001550 0.009515 -0.004024 0.000000 0.000000 0.000000
# 3 -0.003781 -0.004024 0.014327 0.000000 0.000000 0.000000
# 4 0.000000 0.000000 0.000000 -0.106098 0.000000 0.000000
# 5 0.000000 0.000000 0.000000 0.000000 0.037936 0.000000
# 6 0.000000 0.000000 0.000000 0.000000 0.000000 0.011105
#
#
# Mechanical properties :
#
#
# Convention : Reuss Voigt Hill
#
# Bulk Modulus (GPa) = 56.95529 58.44344 57.69937
# Shear Modulus (GPa) = 1325.06182 35.20922 680.13552
#
# Velocity S-wave (km/s) = 24.29862 3.96088 17.40850
# Velocity P-wave (km/s) = 28.50630 6.85269 20.73124
#
# Compressibility (1/GPa) = 0.01755763
#
# Stress axis : x y z
#
# Youngs Moduli (GPa) = 80.47826 105.09205 69.80002
#
# Poissons Ratio (x) = 0.16286 0.26391
# Poissons Ratio (y) = 0.12472 0.28091
# Poissons Ratio (z) = 0.30428 0.42294
#
# Static dielectric constant tensor:
#      x y z
#    x 1.872850 0.000000 0.000000 
#    y 0.000000 1.852930 0.000000 
#    z 0.000000 0.000000 1.850190 
# 
# From -- ./inp_files/18232.got.cif
#   From: 2010.05.17/outbox.cif.g08.bks.cpg/sg24_10_cif.got.tgz:18232.got - 2010.06.04 00:33:39.
