data_PCOD9335551
_publ_section_title
;
Structure prediction by ZEFSAII (Michael W. Deem and Ramdas Pophale) SiO2 
 PCOD9335551
Probable space group: I 21 21 21
;
_chemical_formula_sum "Si O2"
_cell_formula_units_Z 48
_cell_length_a 9.740082
_cell_length_b 14.493697
_cell_length_c 17.455915
_cell_angle_alpha 90.000000
_cell_angle_beta 90.000000
_cell_angle_gamma 90.000000
_cell_volume 2464.247982
_symmetry_space_group_name_H-M "I 21 21 21"
_symmetry_group_IT_number 24
_symmetry_cell_setting 'orthorhombic'
loop_
_space_group_symop_operation_xyz
x,y,z
-x,1/2-y,z
x,-y,1/2-z
1/2-x,y,-z
1/2+x,1/2+y,1/2+z
1/2-x,-y,1/2+z
1/2+x,1/2-y,-z
-x,1/2+y,1/2-z
loop_
_atom_site_type_symbol
_atom_site_label
_atom_site_fract_x
_atom_site_fract_y
_atom_site_fract_z
Si Si1 0.750000 0.372312 0.500000
Si Si2 0.897028 0.172274 0.673263
Si Si3 0.159716 0.223739 0.073085
Si Si4 0.234519 0.979422 0.371212
Si Si5 0.463704 0.000000 0.250000
Si Si6 0.994096 0.500000 0.250000
Si Si7 0.000000 0.250000 0.523455
Si Si8 0.363484 0.309065 0.766436
O O1 0.720957 0.440544 0.429287
O O2 0.617548 0.308842 0.517381
O O3 0.746006 0.198918 0.699398
O O4 0.000000 0.250000 0.705400
O O5 0.943420 0.076126 0.708953
O O6 0.920396 0.181098 0.582369
O O7 0.183500 0.114529 0.088468
O O8 0.197685 0.274580 0.152672
O O9 0.000000 0.250000 0.060090
O O10 0.250000 0.250913 0.000000
O O11 0.108475 0.017775 0.320687
O O12 0.360488 0.958331 0.313917
O O13 0.086726 0.413644 0.228976
O O14 0.500000 0.250000 0.752630
#
# Coordination Sequence:
#
# PCOD9335551 Si02
#       8
#     4   8   8   8   4   4   4   8
#     4  12  24  46  70 100 138 188 230 280 354 436
#     4  10  22  41  63  99 130 171 227 280 341 399
#     4  11  23  42  65 100 139 178 232 278 356 420
#     4  11  22  41  69 100 131 185 227 284 347 418
#     4  11  21  40  72  98 138 168 238 290 334 410
#     4  11  23  40  68  98 132 170 238 282 344 412
#     4  10  26  44  64 102 136 176 230 272 358 410
#     4  11  23  41  67 100 133 179 226 292 350 406
#
# _framework density 19.478559000000001
#
# number of rings (size 3 to 8) (size 9 to 14) (size 15 to 20)
#    0.500    0.667    5.833    1.500    4.667    3.333 
#    0.000    0.000    1.833    0.000    0.000    0.000 
#    0.000    0.000    0.000    0.000    0.000    0.000 
#
# Total GULP energy -133940.311208 kJ/mol
# GULP energy per Si atom -5580.846300 kJ/mol
# Density = 1.943422 g / cm^3
# Si number density = 19.478559 Si / 1000 Ang^3
#
#
#
# Elastic Constant Matrix: (Units=GPa)
#
#
# Indices 1 2 3 4 5 6 
#
# 1 66.1193 14.6690 20.0521 0.0000 0.0000 0.0000
# 2 14.6690 101.0132 7.1907 0.0000 0.0000 0.0000
# 3 20.0521 7.1907 38.6315 0.0000 0.0000 0.0000
# 4 0.0000 0.0000 0.0000 26.1767 0.0000 0.0000
# 5 0.0000 0.0000 0.0000 0.0000 22.2881 0.0000
# 6 0.0000 0.0000 0.0000 0.0000 0.0000 27.5363
#
#
#
# Elastic Compliance Matrix: (Units=1/GPa)
#
#
# Indices 1 2 3 4 5 6 
#
# 1 0.018345 -0.002013 -0.009147 0.000000 0.000000 0.000000
# 2 -0.002013 0.010253 -0.000864 0.000000 0.000000 0.000000
# 3 -0.009147 -0.000864 0.030794 0.000000 0.000000 0.000000
# 4 0.000000 0.000000 0.000000 0.038202 0.000000 0.000000
# 5 0.000000 0.000000 0.000000 0.000000 0.044867 0.000000
# 6 0.000000 0.000000 0.000000 0.000000 0.000000 0.036316
#
#
# Mechanical properties :
#
#
# Convention : Reuss Voigt Hill
#
# Bulk Modulus (GPa) = 28.29274 32.17638 30.23456
# Shear Modulus (GPa) = 23.29838 26.12369 24.71103
#
# Velocity S-wave (km/s) = 3.46223 3.66615 3.56564
# Velocity P-wave (km/s) = 5.52623 5.87159 5.70153
#
# Compressibility (1/GPa) = 0.03534475
#
# Stress axis : x y z
#
# Youngs Moduli (GPa) = 54.51103 97.52778 32.47336
#
# Poissons Ratio (x) = 0.19631 0.29705
# Poissons Ratio (y) = 0.10972 0.02805
# Poissons Ratio (z) = 0.49864 0.08424
#
# Static dielectric constant tensor:
#      x y z
#    x 1.672150 0.000000 0.000000 
#    y 0.000000 1.724720 0.000000 
#    z 0.000000 0.000000 1.696790 
# 
# From -- ./inp_files/29550.got.cif
#   From: 2010.05.17/outbox.cif.g08.bks.cpg/sg24_15_cif.got.tgz:29550.got - 2010.06.04 00:33:39.
