data_PCOD9335356
_publ_section_title
;
Structure prediction by ZEFSAII (Michael W. Deem and Ramdas Pophale) SiO2 
 PCOD9335356
Probable space group: I 21 21 21
;
_chemical_formula_sum "Si O2"
_cell_formula_units_Z 64
_cell_length_a 19.027460
_cell_length_b 15.928268
_cell_length_c 8.689533
_cell_angle_alpha 90.000000
_cell_angle_beta 90.000000
_cell_angle_gamma 90.000000
_cell_volume 2633.575715
_symmetry_space_group_name_H-M "I 21 21 21"
_symmetry_group_IT_number 24
_symmetry_cell_setting 'orthorhombic'
loop_
_space_group_symop_operation_xyz
x,y,z
-x,1/2-y,z
x,-y,1/2-z
1/2-x,y,-z
1/2+x,1/2+y,1/2+z
1/2-x,-y,1/2+z
1/2+x,1/2-y,-z
-x,1/2+y,1/2-z
loop_
_atom_site_type_symbol
_atom_site_label
_atom_site_fract_x
_atom_site_fract_y
_atom_site_fract_z
Si Si1 0.721882 0.624240 0.328039
Si Si2 0.197009 0.278568 0.628789
Si Si3 0.347344 0.144876 0.629205
Si Si4 0.421152 0.257031 0.872533
Si Si5 0.518184 0.348511 0.467880
Si Si6 0.063476 0.118295 0.879962
Si Si7 0.386088 0.560076 0.112062
Si Si8 0.435049 0.551409 0.596837
O O1 0.750000 0.615578 0.500000
O O2 0.716052 0.722349 0.275507
O O3 0.779503 0.595175 0.195745
O O4 0.642999 0.585859 0.343315
O O5 0.250000 0.314666 0.500000
O O6 0.165893 0.204122 0.519293
O O7 0.154597 0.360261 0.675254
O O8 0.368212 0.205747 0.768043
O O9 0.421686 0.108696 0.573410
O O10 0.500000 0.250000 0.807191
O O11 0.408200 0.354551 0.873782
O O12 0.424665 0.206959 0.032769
O O13 0.500000 0.250000 0.486906
O O14 0.533615 0.363956 0.288070
O O15 0.446579 0.396885 0.488790
O O16 0.005883 0.068844 0.986823
O O17 0.408897 0.500000 0.250000
O O18 0.366727 0.491860 0.984624
O O19 0.453268 0.500000 0.750000
#
# Coordination Sequence:
#
# PCOD9335356 Si02
#       8
#     8   8   8   8   8   8   8   8
#     4  11  22  39  65  98 130 173 220 279 328 397
#     4  10  23  41  61  94 136 176 220 266 323 400
#     4  11  21  36  66  98 128 165 222 276 338 381
#     4  10  22  37  62  96 131 168 218 270 331 389
#     4  12  22  38  68  97 133 168 223 290 335 385
#     4  11  22  41  63  98 132 174 228 274 333 393
#     4  12  25  41  64  97 135 181 223 268 337 398
#     4  11  25  40  61  95 140 176 216 279 334 397
#
# _framework density 24.301561
#
# number of rings (size 3 to 8) (size 9 to 14) (size 15 to 20)
#    0.000    1.000    5.000    2.250    5.250    0.000 
#    0.000    3.750    0.000    0.000    9.750    0.000 
#    0.000    0.000    0.000    0.000    0.000    0.000 
#
# Total GULP energy -178149.521767 kJ/mol
# GULP energy per Si atom -5567.172555 kJ/mol
# Density = 2.424625 g / cm^3
# Si number density = 24.301561 Si / 1000 Ang^3
#
#
#
# Elastic Constant Matrix: (Units=GPa)
#
#
# Indices 1 2 3 4 5 6 
#
# 1 40.2810 -12.4607 -5.8703 0.0000 0.0000 0.0000
# 2 -12.4607 72.0564 22.5071 0.0000 0.0000 0.0000
# 3 -5.8703 22.5071 94.3573 0.0000 0.0000 0.0000
# 4 0.0000 0.0000 0.0000 -41.4945 0.0000 0.0000
# 5 0.0000 0.0000 0.0000 0.0000 31.9814 0.0000
# 6 0.0000 0.0000 0.0000 0.0000 0.0000 6.5111
#
#
#
# Elastic Compliance Matrix: (Units=1/GPa)
#
#
# Indices 1 2 3 4 5 6 
#
# 1 0.026260 0.004355 0.000595 0.000000 0.000000 0.000000
# 2 0.004355 0.015718 -0.003478 0.000000 0.000000 0.000000
# 3 0.000595 -0.003478 0.011465 0.000000 0.000000 0.000000
# 4 0.000000 0.000000 0.000000 -0.024100 0.000000 0.000000
# 5 0.000000 0.000000 0.000000 0.000000 0.031268 0.000000
# 6 0.000000 0.000000 0.000000 0.000000 0.000000 0.153583
#
#
# Mechanical properties :
#
#
# Convention : Reuss Voigt Hill
#
# Bulk Modulus (GPa) = 17.73499 23.89410 20.81454
# Shear Modulus (GPa) = 21.73487 12.90084 17.31785
#
# Velocity S-wave (km/s) = 2.99387 2.30655 2.67240
# Velocity P-wave (km/s) = 4.38916 4.11670 4.25511
#
# Compressibility (1/GPa) = 0.05638571
#
# Stress axis : x y z
#
# Youngs Moduli (GPa) = 38.08135 63.62295 87.22451
#
# Poissons Ratio (x) = -0.27709 -0.05188
# Poissons Ratio (y) = -0.16585 0.30338
# Poissons Ratio (z) = -0.02265 0.22129
#
# Static dielectric constant tensor:
#      x y z
#    x 2.260840 0.000000 0.000000 
#    y 0.000000 2.130150 0.000000 
#    z 0.000000 0.000000 1.992910 
# 
# From -- ./inp_files/15424.got.cif
#   From: 2010.05.17/outbox.cif.g08.bks.cpg/sg24_8_cif.got.tgz:15424.got - 2010.06.04 00:33:39.
