data_PCOD9335327
_publ_section_title
;
Structure prediction by ZEFSAII (Michael W. Deem and Ramdas Pophale) SiO2 
 PCOD9335327
Probable space group: I 21 21 21
;
_chemical_formula_sum "Si O2"
_cell_formula_units_Z 64
_cell_length_a 12.223649
_cell_length_b 13.663414
_cell_length_c 18.957866
_cell_angle_alpha 90.000000
_cell_angle_beta 90.000000
_cell_angle_gamma 90.000000
_cell_volume 3166.281676
_symmetry_space_group_name_H-M "I 21 21 21"
_symmetry_group_IT_number 24
_symmetry_cell_setting 'orthorhombic'
loop_
_space_group_symop_operation_xyz
x,y,z
-x,1/2-y,z
x,-y,1/2-z
1/2-x,y,-z
1/2+x,1/2+y,1/2+z
1/2-x,-y,1/2+z
1/2+x,1/2-y,-z
-x,1/2+y,1/2-z
loop_
_atom_site_type_symbol
_atom_site_label
_atom_site_fract_x
_atom_site_fract_y
_atom_site_fract_z
Si Si1 0.497514 0.983682 0.580973
Si Si2 0.221716 0.823490 0.202787
Si Si3 0.379437 0.750393 0.323516
Si Si4 0.667853 0.890580 0.846886
Si Si5 0.256384 0.066881 0.572943
Si Si6 0.997206 0.633263 0.274689
Si Si7 0.880440 0.024428 0.829801
Si Si8 0.066336 0.916421 0.567239
O O1 0.503502 0.915834 0.649662
O O2 0.492023 0.919632 0.509251
O O3 0.594132 0.063577 0.590537
O O4 0.382379 0.039846 0.583315
O O5 0.293515 0.797379 0.270526
O O6 0.188830 0.725737 0.158605
O O7 0.284194 0.885987 0.144902
O O8 0.116075 0.880466 0.232569
O O9 0.500000 0.750000 0.288387
O O10 0.343348 0.638450 0.335431
O O11 0.401758 0.814829 0.393865
O O12 0.595186 0.901363 0.775686
O O13 0.780698 0.950937 0.845367
O O14 0.250000 0.127298 0.500000
O O15 0.179409 0.974063 0.560617
O O16 0.000000 0.750000 0.283737
O O17 0.983575 0.024298 0.881850
O O18 0.915143 0.000000 0.750000
#
# Coordination Sequence:
#
# PCOD9335327 Si02
#       8
#     8   8   8   8   8   8   8   8
#     4  11  22  42  64  92 134 175 215 276 338 407
#     4  11  22  39  65  98 127 170 223 279 332 402
#     4  10  23  40  66  97 130 172 224 282 338 405
#     4  11  23  40  66  97 132 169 225 279 340 404
#     4  10  23  42  63  92 126 173 216 271 335 394
#     4  10  22  35  63  97 126 167 215 273 331 391
#     4  11  22  42  66  93 132 173 216 286 334 405
#     4  10  25  42  65  93 134 175 225 268 343 419
#
# _framework density 20.212983999999999
#
# number of rings (size 3 to 8) (size 9 to 14) (size 15 to 20)
#    0.000    1.500    2.500    1.875    5.250    3.000 
#    2.250    0.000   13.750    0.000    0.000    0.000 
#    0.000    0.000    0.000    0.000    0.000    0.000 
#
# Total GULP energy -178443.535083 kJ/mol
# GULP energy per Si atom -5576.360471 kJ/mol
# Density = 2.016698 g / cm^3
# Si number density = 20.212984 Si / 1000 Ang^3
#
#
#
# Elastic Constant Matrix: (Units=GPa)
#
#
# Indices 1 2 3 4 5 6 
#
# 1 73.0158 8.3266 18.9919 0.0000 0.0000 0.0000
# 2 8.3266 70.8439 31.6283 0.0000 0.0000 0.0000
# 3 18.9919 31.6283 119.1774 0.0000 0.0000 0.0000
# 4 0.0000 0.0000 0.0000 62.5130 0.0000 0.0000
# 5 0.0000 0.0000 0.0000 0.0000 28.9803 0.0000
# 6 0.0000 0.0000 0.0000 0.0000 0.0000 22.7570
#
#
#
# Elastic Compliance Matrix: (Units=1/GPa)
#
#
# Indices 1 2 3 4 5 6 
#
# 1 0.014323 -0.000754 -0.002083 0.000000 0.000000 0.000000
# 2 -0.000754 0.016052 -0.004140 0.000000 0.000000 0.000000
# 3 -0.002083 -0.004140 0.009821 0.000000 0.000000 0.000000
# 4 0.000000 0.000000 0.000000 0.015997 0.000000 0.000000
# 5 0.000000 0.000000 0.000000 0.000000 0.034506 0.000000
# 6 0.000000 0.000000 0.000000 0.000000 0.000000 0.043943
#
#
# Mechanical properties :
#
#
# Convention : Reuss Voigt Hill
#
# Bulk Modulus (GPa) = 38.10302 42.32564 40.21433
# Shear Modulus (GPa) = 31.77765 36.45608 34.11686
#
# Velocity S-wave (km/s) = 3.96932 4.25149 4.11282
# Velocity P-wave (km/s) = 6.31657 6.71457 6.51861
#
# Compressibility (1/GPa) = 0.02624464
#
# Stress axis : x y z
#
# Youngs Moduli (GPa) = 69.81630 62.29582 101.81823
#
# Poissons Ratio (x) = 0.04696 0.21204
# Poissons Ratio (y) = 0.05262 0.42153
# Poissons Ratio (z) = 0.14539 0.25791
#
# Static dielectric constant tensor:
#      x y z
#    x 1.647290 0.000000 0.000000 
#    y 0.000000 1.782740 0.000000 
#    z 0.000000 0.000000 1.740620 
# 
# From -- ./inp_files/30367.got.cif
#   From: 2010.05.17/outbox.cif.g08.bks.cpg/sg24_16_cif.got.tgz:30367.got - 2010.06.04 00:33:39.
