data_PCOD9335959
_publ_section_title
;
Structure prediction by ZEFSAII (Michael W. Deem and Ramdas Pophale) SiO2 
 PCOD9335959
Probable space group: I 21 21 21
;
_chemical_formula_sum "Si O2"
_cell_formula_units_Z 28
_cell_length_a 9.842576
_cell_length_b 18.245954
_cell_length_c 7.283879
_cell_angle_alpha 90.000000
_cell_angle_beta 90.000000
_cell_angle_gamma 90.000000
_cell_volume 1308.091354
_symmetry_space_group_name_H-M "I 21 21 21"
_symmetry_group_IT_number 24
_symmetry_cell_setting 'orthorhombic'
loop_
_space_group_symop_operation_xyz
x,y,z
-x,1/2-y,z
x,-y,1/2-z
1/2-x,y,-z
1/2+x,1/2+y,1/2+z
1/2-x,-y,1/2+z
1/2+x,1/2-y,-z
-x,1/2+y,1/2-z
loop_
_atom_site_type_symbol
_atom_site_label
_atom_site_fract_x
_atom_site_fract_y
_atom_site_fract_z
Si Si1 0.250000 0.103360 0.000000
Si Si2 0.543566 0.667305 0.763365
Si Si3 0.957594 0.938060 0.531815
Si Si4 0.108036 0.605152 0.926918
O O1 0.188753 0.150652 0.168670
O O2 0.379243 0.056220 0.060454
O O3 0.500000 0.750000 0.731306
O O4 0.446496 0.611208 0.648967
O O5 0.516658 0.645882 0.973413
O O6 0.900467 0.896078 0.707856
O O7 0.900666 0.019178 0.518081
O O8 0.250000 0.636629 0.000000
#
# Coordination Sequence:
#
# PCOD9335959 Si02
#       4
#     4   8   8   8
#     4   8  22  42  62  94 118 174 198 258 314 358
#     4  10  23  44  63  95 127 170 204 259 318 373
#     4   9  23  40  63  94 124 162 210 261 312 354
#     4  11  24  39  66  99 121 169 211 259 314 372
#
# _framework density 21.405232000000002
#
# number of rings (size 3 to 8) (size 9 to 14) (size 15 to 20)
#    1.714    0.571    0.000    0.857    8.000    9.143 
#    5.143    0.000    0.000    0.000    0.000    0.000 
#    0.000    0.000    0.000    0.000    0.000    0.000 
#
# Total GULP energy -78008.249707 kJ/mol
# GULP energy per Si atom -5572.017836 kJ/mol
# Density = 2.135651 g / cm^3
# Si number density = 21.405232 Si / 1000 Ang^3
#
#
#
# Elastic Constant Matrix: (Units=GPa)
#
#
# Indices 1 2 3 4 5 6 
#
# 1 108.1078 -10.1493 -0.4651 0.0000 0.0000 0.0000
# 2 -10.1493 13.6077 0.5258 0.0004 -0.0001 0.0000
# 3 -0.4651 0.5258 61.4372 0.0020 0.0000 0.0004
# 4 0.0000 0.0004 0.0020 -4.8477 -0.0001 -0.0002
# 5 0.0000 -0.0001 0.0000 -0.0001 32.9365 0.0000
# 6 0.0000 0.0000 0.0004 -0.0002 0.0000 4.1792
#
#
#
# Elastic Compliance Matrix: (Units=1/GPa)
#
#
# Indices 1 2 3 4 5 6 
#
# 1 0.009946 0.007418 0.000012 0.000001 0.000000 0.000000
# 2 0.007418 0.079045 -0.000620 0.000006 0.000000 0.000000
# 3 0.000012 -0.000620 0.016282 0.000007 0.000000 -0.000002
# 4 0.000001 0.000006 0.000007 -0.206283 -0.000001 -0.000012
# 5 0.000000 0.000000 0.000000 -0.000001 0.030361 0.000000
# 6 0.000000 0.000000 -0.000002 -0.000012 0.000000 0.239283
#
#
# Mechanical properties :
#
#
# Convention : Reuss Voigt Hill
#
# Bulk Modulus (GPa) = 8.41097 18.10840 13.25969
# Shear Modulus (GPa) = 25.68767 19.33635 22.51201
#
# Velocity S-wave (km/s) = 3.46795 3.00883 3.24652
# Velocity P-wave (km/s) = 4.46918 4.53309 4.50125
#
# Compressibility (1/GPa) = 0.11889235
#
# Stress axis : x y z
#
# Youngs Moduli (GPa) = 100.53790 12.65110 61.41688
#
# Poissons Ratio (x) = -0.09385 -0.00073
# Poissons Ratio (y) = -0.74580 0.03810
# Poissons Ratio (z) = -0.00119 0.00785
#
# Static dielectric constant tensor:
#      x y z
#    x 1.810980 0.000000 0.000000 
#    y 0.000000 1.721160 0.000000 
#    z 0.000000 0.000000 1.786030 
# 
# From -- ./inp_files/8881.got.cif
#   From: 2010.05.17/outbox.cif.g08.bks.cpg/sg24_5_cif.got.tgz:8881.got - 2010.06.04 00:33:39.
