data_PCOD9335368
_publ_section_title
;
Structure prediction by ZEFSAII (Michael W. Deem and Ramdas Pophale) SiO2 
 PCOD9335368
Probable space group: I 21 21 21
;
_chemical_formula_sum "Si O2"
_cell_formula_units_Z 48
_cell_length_a 17.732626
_cell_length_b 9.122249
_cell_length_c 15.519511
_cell_angle_alpha 90.000000
_cell_angle_beta 90.000000
_cell_angle_gamma 90.000000
_cell_volume 2510.458289
_symmetry_space_group_name_H-M "I 21 21 21"
_symmetry_group_IT_number 24
_symmetry_cell_setting 'orthorhombic'
loop_
_space_group_symop_operation_xyz
x,y,z
-x,1/2-y,z
x,-y,1/2-z
1/2-x,y,-z
1/2+x,1/2+y,1/2+z
1/2-x,-y,1/2+z
1/2+x,1/2-y,-z
-x,1/2+y,1/2-z
loop_
_atom_site_type_symbol
_atom_site_label
_atom_site_fract_x
_atom_site_fract_y
_atom_site_fract_z
Si Si1 0.323165 0.163129 0.737908
Si Si2 0.924169 0.349760 0.431283
Si Si3 0.411115 0.705943 0.098140
Si Si4 0.333155 0.395536 0.044491
Si Si5 0.080506 0.188847 0.090007
Si Si6 0.176952 0.328147 0.762272
O O1 0.376412 0.169847 0.655212
O O2 0.369374 0.187389 0.824737
O O3 0.258534 0.281256 0.730059
O O4 0.289277 0.000000 0.750000
O O5 0.881225 0.299789 0.517502
O O6 0.935425 0.523264 0.440824
O O7 0.000000 0.250000 0.423514
O O8 0.500000 0.750000 0.100361
O O9 0.382252 0.541833 0.069692
O O10 0.380242 0.741428 0.193315
O O11 0.325600 0.306636 0.134927
O O12 0.250000 0.426251 0.000000
O O13 0.379470 0.292850 0.979438
O O14 0.000000 0.250000 0.114539
O O15 0.166249 0.500000 0.750000
#
# Coordination Sequence:
#
# PCOD9335368 Si02
#       6
#     8   8   8   8   8   8
#     4  10  22  38  58  91 129 165 214 267 329 391
#     4  10  22  39  60  91 128 168 213 264 326 389
#     4  10  23  43  64  95 131 170 224 270 329 398
#     4  11  23  43  68  97 131 173 223 277 334 403
#     4  11  22  39  64  92 128 169 215 273 333 395
#     4  10  23  40  64  92 125 170 215 267 328 390
#
# _framework density 19.120016
#
# number of rings (size 3 to 8) (size 9 to 14) (size 15 to 20)
#    0.000    1.667    1.667    2.500    4.667    3.333 
#    0.000    5.833    0.000    0.000    0.000    0.000 
#    0.000    0.000    0.000    0.000    0.000    0.000 
#
# Total GULP energy -133645.891593 kJ/mol
# GULP energy per Si atom -5568.578816 kJ/mol
# Density = 1.907650 g / cm^3
# Si number density = 19.120016 Si / 1000 Ang^3
#
#
#
# Elastic Constant Matrix: (Units=GPa)
#
#
# Indices 1 2 3 4 5 6 
#
# 1 43.1510 11.8347 1.5116 0.0000 0.0000 0.0000
# 2 11.8347 42.3816 14.1988 0.0000 0.0000 0.0000
# 3 1.5116 14.1988 103.5505 0.0000 0.0000 0.0000
# 4 0.0000 0.0000 0.0000 22.4728 0.0000 0.0000
# 5 0.0000 0.0000 0.0000 0.0000 23.5222 0.0000
# 6 0.0000 0.0000 0.0000 0.0000 0.0000 27.8888
#
#
#
# Elastic Compliance Matrix: (Units=1/GPa)
#
#
# Indices 1 2 3 4 5 6 
#
# 1 0.025135 -0.007228 0.000624 0.000000 0.000000 0.000000
# 2 -0.007228 0.026810 -0.003571 0.000000 0.000000 0.000000
# 3 0.000624 -0.003571 0.010138 0.000000 0.000000 0.000000
# 4 0.000000 0.000000 0.000000 0.044498 0.000000 0.000000
# 5 0.000000 0.000000 0.000000 0.000000 0.042513 0.000000
# 6 0.000000 0.000000 0.000000 0.000000 0.000000 0.035857
#
#
# Mechanical properties :
#
#
# Convention : Reuss Voigt Hill
#
# Bulk Modulus (GPa) = 23.96145 27.13035 25.54590
# Shear Modulus (GPa) = 22.80920 25.54597 24.17758
#
# Velocity S-wave (km/s) = 3.45766 3.65922 3.55986
# Velocity P-wave (km/s) = 5.33852 5.66334 5.50333
#
# Compressibility (1/GPa) = 0.04173370
#
# Stress axis : x y z
#
# Youngs Moduli (GPa) = 39.78531 37.29993 98.64257
#
# Poissons Ratio (x) = 0.26960 -0.06157
# Poissons Ratio (y) = 0.28756 0.35221
# Poissons Ratio (z) = -0.02483 0.13318
#
# Static dielectric constant tensor:
#      x y z
#    x 1.670490 0.000000 0.000000 
#    y 0.000000 1.669970 0.000000 
#    z 0.000000 0.000000 1.701400 
# 
# From -- ./inp_files/15108.got.cif
#   From: 2010.05.17/outbox.cif.g08.bks.cpg/sg24_8_cif.got.tgz:15108.got - 2010.06.04 00:33:39.
