data_PCOD9335400
_publ_section_title
;
Structure prediction by ZEFSAII (Michael W. Deem and Ramdas Pophale) SiO2 
 PCOD9335400
Probable space group: I 21 21 21
;
_chemical_formula_sum "Si O2"
_cell_formula_units_Z 40
_cell_length_a 18.443987
_cell_length_b 8.852425
_cell_length_c 10.629645
_cell_angle_alpha 90.000000
_cell_angle_beta 90.000000
_cell_angle_gamma 90.000000
_cell_volume 1735.544781
_symmetry_space_group_name_H-M "I 21 21 21"
_symmetry_group_IT_number 24
_symmetry_cell_setting 'orthorhombic'
loop_
_space_group_symop_operation_xyz
x,y,z
-x,1/2-y,z
x,-y,1/2-z
1/2-x,y,-z
1/2+x,1/2+y,1/2+z
1/2-x,-y,1/2+z
1/2+x,1/2-y,-z
-x,1/2+y,1/2-z
loop_
_atom_site_type_symbol
_atom_site_label
_atom_site_fract_x
_atom_site_fract_y
_atom_site_fract_z
Si Si1 0.184640 0.839362 0.195971
Si Si2 0.929886 0.500000 0.750000
Si Si3 0.207079 0.579978 0.884740
Si Si4 0.930237 0.156425 0.172717
Si Si5 0.913841 0.717928 0.965589
Si Si6 0.000000 0.250000 0.926483
O O1 0.246689 0.733236 0.140211
O O2 0.143802 0.743444 0.302221
O O3 0.207960 0.000000 0.250000
O O4 0.121610 0.854087 0.089988
O O5 0.893054 0.606423 0.852101
O O6 0.971996 0.380990 0.836661
O O7 0.202799 0.500000 0.750000
O O8 0.129003 0.628395 0.936580
O O9 0.250000 0.500071 0.000000
O O10 0.000000 0.250000 0.224012
O O11 0.927854 0.000000 0.250000
O O12 0.945511 0.167147 0.024038
O O13 0.000000 0.750000 0.971013
#
# Coordination Sequence:
#
# PCOD9335400 Si02
#       6
#     8   4   8   8   8   4
#     4  11  23  45  74 105 144 187 241 304 369 429
#     4  12  24  44  60 104 142 194 240 278 372 436
#     4  10  25  52  73 105 143 194 246 297 369 434
#     4  10  22  38  65 104 137 179 243 303 369 418
#     4  11  26  44  72 102 146 186 235 300 358 434
#     4  10  26  38  64 100 146 186 238 292 366 428
#
# _framework density 23.047519999999999
#
# number of rings (size 3 to 8) (size 9 to 14) (size 15 to 20)
#    0.600    0.800    1.000    3.000    8.400    0.000 
#   10.800    1.000    0.000    0.000    0.000    0.000 
#    0.000    0.000    0.000    0.000    0.000    0.000 
#
# Total GULP energy -111709.923463 kJ/mol
# GULP energy per Si atom -5585.496173 kJ/mol
# Density = 2.299506 g / cm^3
# Si number density = 23.047520 Si / 1000 Ang^3
#
#
#
# Elastic Constant Matrix: (Units=GPa)
#
#
# Indices 1 2 3 4 5 6 
#
# 1 101.8372 12.4065 16.5710 0.0000 0.0000 0.0000
# 2 12.4065 96.3981 33.9322 0.0000 0.0000 0.0000
# 3 16.5710 33.9322 157.2122 0.0000 0.0000 0.0000
# 4 0.0000 0.0000 0.0000 67.6424 0.0000 0.0000
# 5 0.0000 0.0000 0.0000 0.0000 0.9379 0.0000
# 6 0.0000 0.0000 0.0000 0.0000 0.0000 11.4409
#
#
#
# Elastic Compliance Matrix: (Units=1/GPa)
#
#
# Indices 1 2 3 4 5 6 
#
# 1 0.010079 -0.000999 -0.000847 0.000000 0.000000 0.000000
# 2 -0.000999 0.011326 -0.002339 0.000000 0.000000 0.000000
# 3 -0.000847 -0.002339 0.006955 0.000000 0.000000 0.000000
# 4 0.000000 0.000000 0.000000 0.014784 0.000000 0.000000
# 5 0.000000 0.000000 0.000000 0.000000 1.066167 0.000000
# 6 0.000000 0.000000 0.000000 0.000000 0.000000 0.087406
#
#
# Mechanical properties :
#
#
# Convention : Reuss Voigt Hill
#
# Bulk Modulus (GPa) = 50.02603 53.47410 51.75007
# Shear Modulus (GPa) = 4.12626 35.50676 19.81651
#
# Velocity S-wave (km/s) = 1.33948 3.92929 2.93543
# Velocity P-wave (km/s) = 4.91376 6.62101 5.83022
#
# Compressibility (1/GPa) = 0.01998959
#
# Stress axis : x y z
#
# Youngs Moduli (GPa) = 99.21524 88.29529 143.78227
#
# Poissons Ratio (x) = 0.08822 0.12175
# Poissons Ratio (y) = 0.09913 0.33633
# Poissons Ratio (z) = 0.08401 0.20654
#
# Static dielectric constant tensor:
#      x y z
#    x 1.834310 0.000000 0.000000 
#    y 0.000000 1.896060 0.000000 
#    z 0.000000 0.000000 1.861020 
# 
# From -- ./inp_files/21381.got.cif
#   From: 2010.05.17/outbox.cif.g08.bks.cpg/sg24_11_cif.got.tgz:21381.got - 2010.06.04 00:33:39.
