data_PCOD9335024
_publ_section_title
;
Structure prediction by ZEFSAII (Michael W. Deem and Ramdas Pophale) SiO2 
 PCOD9335024
Probable space group: I 21 21 21
;
_chemical_formula_sum "Si O2"
_cell_formula_units_Z 40
_cell_length_a 9.433103
_cell_length_b 7.301190
_cell_length_c 24.290037
_cell_angle_alpha 90.000000
_cell_angle_beta 90.000000
_cell_angle_gamma 90.000000
_cell_volume 1672.924738
_symmetry_space_group_name_H-M "I 21 21 21"
_symmetry_group_IT_number 24
_symmetry_cell_setting 'orthorhombic'
loop_
_space_group_symop_operation_xyz
x,y,z
-x,1/2-y,z
x,-y,1/2-z
1/2-x,y,-z
1/2+x,1/2+y,1/2+z
1/2-x,-y,1/2+z
1/2+x,1/2-y,-z
-x,1/2+y,1/2-z
loop_
_atom_site_type_symbol
_atom_site_label
_atom_site_fract_x
_atom_site_fract_y
_atom_site_fract_z
Si Si1 0.415070 0.060591 0.521393
Si Si2 0.496362 0.528224 0.092107
Si Si3 0.652688 0.752342 0.728522
Si Si4 0.758552 0.091007 0.332447
Si Si5 0.805999 0.514459 0.132228
O O1 0.500000 0.250000 0.529753
O O2 0.250000 0.090965 0.500000
O O3 0.499693 0.965458 0.471149
O O4 0.399729 0.958960 0.579691
O O5 0.500000 0.750000 0.088605
O O6 0.366605 0.498404 0.132853
O O7 0.643179 0.466992 0.118562
O O8 0.500000 0.750000 0.757650
O O9 0.771094 0.806950 0.773464
O O10 0.669486 0.575271 0.691236
O O11 0.645771 0.922099 0.685839
O O12 0.816185 0.263820 0.366122
#
# Coordination Sequence:
#
# PCOD9335024 Si02
#       5
#     8   8   8   8   8
#     4   9  18  34  66  97 130 176 226 271 338 411
#     4   8  17  40  64  96 126 167 226 266 340 404
#     4  11  26  40  60  97 130 173 230 265 334 407
#     4  10  23  42  64  91 130 173 220 276 326 403
#     4  10  21  39  68  92 129 172 210 282 333 390
#
# _framework density 23.910222000000001
#
# number of rings (size 3 to 8) (size 9 to 14) (size 15 to 20)
#    0.000    2.400    0.000    1.800    8.400    0.800 
#   21.600    0.000   13.200    0.000    0.000    0.000 
#    0.000    0.000    0.000    0.000    0.000    0.000 
#
# Total GULP energy -111490.736213 kJ/mol
# GULP energy per Si atom -5574.536811 kJ/mol
# Density = 2.385580 g / cm^3
# Si number density = 23.910222 Si / 1000 Ang^3
#
#
#
# Elastic Constant Matrix: (Units=GPa)
#
#
# Indices 1 2 3 4 5 6 
#
# 1 70.8152 13.2860 73.6165 0.0000 0.0000 0.0000
# 2 13.2860 70.8364 1.7875 0.0000 0.0000 0.0000
# 3 73.6165 1.7875 168.7889 0.0000 0.0000 0.0000
# 4 0.0000 0.0000 0.0000 -2.7110 0.0000 0.0000
# 5 0.0000 0.0000 0.0000 0.0000 46.8361 0.0000
# 6 0.0000 0.0000 0.0000 0.0000 0.0000 6.7639
#
#
#
# Elastic Compliance Matrix: (Units=1/GPa)
#
#
# Indices 1 2 3 4 5 6 
#
# 1 0.027398 -0.004838 -0.011898 0.000000 0.000000 0.000000
# 2 -0.004838 0.014975 0.001952 0.000000 0.000000 0.000000
# 3 -0.011898 0.001952 0.011093 0.000000 0.000000 0.000000
# 4 0.000000 0.000000 0.000000 -0.368864 0.000000 0.000000
# 5 0.000000 0.000000 0.000000 0.000000 0.021351 0.000000
# 6 0.000000 0.000000 0.000000 0.000000 0.000000 0.147844
#
#
# Mechanical properties :
#
#
# Convention : Reuss Voigt Hill
#
# Bulk Modulus (GPa) = 41.84727 54.20225 48.02476
# Shear Modulus (GPa) = -46.01234 24.96116 -10.52559
#
# Velocity S-wave (km/s) = -4.39153 3.23453 -2.10040
# Velocity P-wave (km/s) = 2.85907 6.05540 3.77449
#
# Compressibility (1/GPa) = 0.02389642
#
# Stress axis : x y z
#
# Youngs Moduli (GPa) = 36.49903 66.77669 90.14475
#
# Poissons Ratio (x) = 0.32310 1.07257
# Poissons Ratio (y) = 0.17660 -0.17594
# Poissons Ratio (z) = 0.43428 -0.13033
#
# Static dielectric constant tensor:
#      x y z
#    x 1.901500 0.000000 0.000000 
#    y 0.000000 1.990840 0.000000 
#    z 0.000000 0.000000 1.988940 
# 
# From -- ./inp_files/35021.got.cif
#   From: 2010.05.17/outbox.cif.g08.bks.cpg/sg24_18_cif.got.tgz:35021.got - 2010.06.04 00:33:39.
