data_PCOD9335844
_publ_section_title
;
Structure prediction by ZEFSAII (Michael W. Deem and Ramdas Pophale) SiO2 
 PCOD9335844
Probable space group: I 21 21 21
;
_chemical_formula_sum "Si O2"
_cell_formula_units_Z 40
_cell_length_a 11.073985
_cell_length_b 20.207580
_cell_length_c 7.043049
_cell_angle_alpha 90.000000
_cell_angle_beta 90.000000
_cell_angle_gamma 90.000000
_cell_volume 1576.082503
_symmetry_space_group_name_H-M "I 21 21 21"
_symmetry_group_IT_number 24
_symmetry_cell_setting 'orthorhombic'
loop_
_space_group_symop_operation_xyz
x,y,z
-x,1/2-y,z
x,-y,1/2-z
1/2-x,y,-z
1/2+x,1/2+y,1/2+z
1/2-x,-y,1/2+z
1/2+x,1/2-y,-z
-x,1/2+y,1/2-z
loop_
_atom_site_type_symbol
_atom_site_label
_atom_site_fract_x
_atom_site_fract_y
_atom_site_fract_z
Si Si1 0.259870 0.422339 0.274550
Si Si2 0.470383 0.357362 0.647980
Si Si3 0.862431 0.562379 0.865136
Si Si4 0.724436 0.683266 0.772721
Si Si5 0.890880 0.797011 0.764046
O O1 0.277544 0.500000 0.250000
O O2 0.250000 0.413048 0.500000
O O3 0.361596 0.371754 0.201497
O O4 0.127697 0.393840 0.222730
O O5 0.536835 0.409435 0.506592
O O6 0.583639 0.327181 0.761079
O O7 0.413428 0.306252 0.493504
O O8 0.906792 0.500000 0.750000
O O9 0.809361 0.620030 0.725779
O O10 0.750000 0.541820 0.000000
O O11 0.775491 0.753053 0.711382
O O12 0.750000 0.683245 0.000000
O O13 0.000000 0.750000 0.699002
#
# Coordination Sequence:
#
# PCOD9335844 Si02
#       5
#     8   8   8   8   8
#     4  10  23  38  57  86 117 154 188 234 297 353
#     4   9  19  29  52  79 116 140 183 234 293 331
#     4   9  18  31  50  79 113 150 190 232 286 341
#     4   9  16  28  48  78 107 138 181 238 282 320
#     4  11  18  31  53  84 110 143 188 246 286 333
#
# _framework density 25.379382
#
# number of rings (size 3 to 8) (size 9 to 14) (size 15 to 20)
#    0.000    2.800    4.000    1.800    0.000    6.400 
#    0.000    0.000    0.000    1.200    5.200    0.000 
#    0.000    0.000    0.000    0.000    0.000    0.000 
#
# Total GULP energy -111613.667423 kJ/mol
# GULP energy per Si atom -5580.683371 kJ/mol
# Density = 2.532162 g / cm^3
# Si number density = 25.379382 Si / 1000 Ang^3
#
#
#
# Elastic Constant Matrix: (Units=GPa)
#
#
# Indices 1 2 3 4 5 6 
#
# 1 139.8345 89.1899 5.4161 0.0008 0.0002 0.0001
# 2 89.1899 215.9035 19.1177 -0.0003 0.0003 -0.0005
# 3 5.4161 19.1177 70.0730 -0.0127 0.0037 -0.0023
# 4 0.0008 -0.0003 -0.0127 17.8119 0.0011 -0.0004
# 5 0.0002 0.0003 0.0037 0.0011 -8.2630 -0.0003
# 6 0.0001 -0.0005 -0.0023 -0.0004 -0.0003 27.2929
#
#
#
# Elastic Compliance Matrix: (Units=1/GPa)
#
#
# Indices 1 2 3 4 5 6 
#
# 1 0.009718 -0.004046 0.000353 0.000000 0.000000 0.000000
# 2 -0.004046 0.006431 -0.001442 -0.000001 -0.000001 0.000000
# 3 0.000353 -0.001442 0.014637 0.000010 0.000006 0.000001
# 4 0.000000 -0.000001 0.000010 0.056142 0.000008 0.000001
# 5 0.000000 -0.000001 0.000006 0.000008 -0.121021 -0.000001
# 6 0.000000 0.000000 0.000001 0.000001 -0.000001 0.036640
#
#
# Mechanical properties :
#
#
# Convention : Reuss Voigt Hill
#
# Bulk Modulus (GPa) = 48.74248 72.58427 60.66337
# Shear Modulus (GPa) = 254.38770 28.17417 141.28093
#
# Velocity S-wave (km/s) = 10.02255 3.33546 7.46917
# Velocity P-wave (km/s) = 12.37670 6.59511 9.91661
#
# Compressibility (1/GPa) = 0.02051599
#
# Stress axis : x y z
#
# Youngs Moduli (GPa) = 102.89996 155.50420 68.32040
#
# Poissons Ratio (x) = 0.62914 -0.02409
# Poissons Ratio (y) = 0.41631 0.09850
# Poissons Ratio (z) = -0.03629 0.22420
#
# Static dielectric constant tensor:
#      x y z
#    x 2.130510 0.000000 0.000000 
#    y 0.000000 2.059530 0.000000 
#    z 0.000000 0.000000 2.068390 
# 
# From -- ./inp_files/19434.got.cif
#   From: 2010.05.17/outbox.cif.g08.bks.cpg/sg24_10_cif.got.tgz:19434.got - 2010.06.04 00:33:39.
