data_PCOD9335931
_publ_section_title
;
Structure prediction by ZEFSAII (Michael W. Deem and Ramdas Pophale) SiO2 
 PCOD9335931
Probable space group: I 21 21 21
;
_chemical_formula_sum "Si O2"
_cell_formula_units_Z 52
_cell_length_a 17.167841
_cell_length_b 9.133758
_cell_length_c 17.084779
_cell_angle_alpha 90.000000
_cell_angle_beta 90.000000
_cell_angle_gamma 90.000000
_cell_volume 2679.011319
_symmetry_space_group_name_H-M "I 21 21 21"
_symmetry_group_IT_number 24
_symmetry_cell_setting 'orthorhombic'
loop_
_space_group_symop_operation_xyz
x,y,z
-x,1/2-y,z
x,-y,1/2-z
1/2-x,y,-z
1/2+x,1/2+y,1/2+z
1/2-x,-y,1/2+z
1/2+x,1/2-y,-z
-x,1/2+y,1/2-z
loop_
_atom_site_type_symbol
_atom_site_label
_atom_site_fract_x
_atom_site_fract_y
_atom_site_fract_z
Si Si1 0.923270 0.650153 0.700164
Si Si2 0.250676 0.249247 0.802707
Si Si3 0.811268 0.945824 0.444012
Si Si4 0.001261 0.500000 0.250000
Si Si5 0.630245 0.518807 0.631797
Si Si6 0.631446 0.180653 0.669725
Si Si7 0.085906 0.806437 0.515982
O O1 0.929275 0.500000 0.750000
O O2 0.839260 0.723611 0.717916
O O3 0.917677 0.636268 0.605086
O O4 0.000000 0.750000 0.715753
O O5 0.266876 0.353805 0.876757
O O6 0.295057 0.098720 0.829153
O O7 0.296242 0.318423 0.729626
O O8 0.750000 0.023546 0.500000
O O9 0.858998 0.832490 0.497638
O O10 0.861829 0.064165 0.399417
O O11 0.057073 0.625747 0.217486
O O12 0.944223 0.563732 0.316146
O O13 0.630133 0.344786 0.638124
O O14 0.617097 0.572683 0.544097
O O15 0.000000 0.750000 0.495149
#
# Coordination Sequence:
#
# PCOD9335931 Si02
#       7
#     8   8   8   4   8   8   8
#     4  11  25  48  72  92 122 169 230 289 340 386
#     4  11  22  45  66  94 130 176 217 265 333 396
#     4  11  22  41  65  95 130 175 215 269 322 400
#     4  12  22  36  62  98 144 174 210 246 328 398
#     4  11  24  37  65 100 137 175 211 259 323 415
#     4  12  23  39  62 100 138 176 218 263 318 394
#     4  10  23  43  66  91 128 173 214 268 337 398
#
# _framework density 19.410146000000001
#
# number of rings (size 3 to 8) (size 9 to 14) (size 15 to 20)
#    0.000    0.923    4.615    2.308    2.154    1.231 
#    5.538    1.538    0.000    0.000    0.000    0.000 
#    0.000    0.000    0.000    0.000    0.000    0.000 
#
# Total GULP energy -145170.372789 kJ/mol
# GULP energy per Si atom -5583.475876 kJ/mol
# Density = 1.936597 g / cm^3
# Si number density = 19.410146 Si / 1000 Ang^3
#
#
#
# Elastic Constant Matrix: (Units=GPa)
#
#
# Indices 1 2 3 4 5 6 
#
# 1 116.5661 26.9429 27.0524 0.0000 0.0000 0.0000
# 2 26.9429 105.6331 41.3701 0.0000 0.0000 0.0000
# 3 27.0524 41.3701 94.4616 0.0000 0.0000 0.0000
# 4 0.0000 0.0000 0.0000 13.4161 0.0000 0.0000
# 5 0.0000 0.0000 0.0000 0.0000 -64.9225 0.0000
# 6 0.0000 0.0000 0.0000 0.0000 0.0000 26.1173
#
#
#
# Elastic Compliance Matrix: (Units=1/GPa)
#
#
# Indices 1 2 3 4 5 6 
#
# 1 0.009415 -0.001624 -0.001985 0.000000 0.000000 0.000000
# 2 -0.001624 0.011707 -0.004662 0.000000 0.000000 0.000000
# 3 -0.001985 -0.004662 0.013197 0.000000 0.000000 0.000000
# 4 0.000000 0.000000 0.000000 0.074538 0.000000 0.000000
# 5 0.000000 0.000000 0.000000 0.000000 -0.015403 0.000000
# 6 0.000000 0.000000 0.000000 0.000000 0.000000 0.038289
#
#
# Mechanical properties :
#
#
# Convention : Reuss Voigt Hill
#
# Bulk Modulus (GPa) = 56.25498 56.37685 56.31591
# Shear Modulus (GPa) = 32.42354 9.67520 21.04937
#
# Velocity S-wave (km/s) = 4.09154 2.23505 3.29667
# Velocity P-wave (km/s) = 7.16701 5.98069 6.60056
#
# Compressibility (1/GPa) = 0.01777621
#
# Stress axis : x y z
#
# Youngs Moduli (GPa) = 106.21495 85.42085 75.77736
#
# Poissons Ratio (x) = 0.13872 0.15042
# Poissons Ratio (y) = 0.17249 0.35327
# Poissons Ratio (z) = 0.21084 0.39823
#
# Static dielectric constant tensor:
#      x y z
#    x 1.699530 0.000000 0.000000 
#    y 0.000000 1.703480 0.000000 
#    z 0.000000 0.000000 1.696040 
# 
# From -- ./inp_files/29632.got.cif
#   From: 2010.05.17/outbox.cif.g08.bks.cpg/sg24_15_cif.got.tgz:29632.got - 2010.06.04 00:33:39.
