data_PCOD9335922
_publ_section_title
;
Structure prediction by ZEFSAII (Michael W. Deem and Ramdas Pophale) SiO2 
 PCOD9335922
Probable space group: I 21 21 21
;
_chemical_formula_sum "Si O2"
_cell_formula_units_Z 32
_cell_length_a 7.979791
_cell_length_b 22.961379
_cell_length_c 7.576881
_cell_angle_alpha 90.000000
_cell_angle_beta 90.000000
_cell_angle_gamma 90.000000
_cell_volume 1388.289217
_symmetry_space_group_name_H-M "I 21 21 21"
_symmetry_group_IT_number 24
_symmetry_cell_setting 'orthorhombic'
loop_
_space_group_symop_operation_xyz
x,y,z
-x,1/2-y,z
x,-y,1/2-z
1/2-x,y,-z
1/2+x,1/2+y,1/2+z
1/2-x,-y,1/2+z
1/2+x,1/2-y,-z
-x,1/2+y,1/2-z
loop_
_atom_site_type_symbol
_atom_site_label
_atom_site_fract_x
_atom_site_fract_y
_atom_site_fract_z
Si Si1 0.557332 0.596517 0.543490
Si Si2 0.586232 0.858988 0.178408
Si Si3 0.533526 0.185105 0.665956
Si Si4 0.059950 0.025090 0.553205
O O1 0.750000 0.587144 0.500000
O O2 0.474509 0.629553 0.377109
O O3 0.551658 0.636089 0.715137
O O4 0.491827 0.530064 0.558982
O O5 0.770910 0.832167 0.184185
O O6 0.563767 0.920786 0.077005
O O7 0.484141 0.818696 0.041029
O O8 0.500000 0.250000 0.731715
O O9 0.250000 0.043052 0.500000
O O10 0.077627 0.000000 0.750000
#
# Coordination Sequence:
#
# PCOD9335922 Si02
#       4
#     8   8   8   8
#     4  10  23  42  71 105 138 183 226 291 354 417
#     4  10  24  45  66 101 138 182 233 292 347 407
#     4  11  26  45  66  98 139 189 238 283 344 413
#     4   9  20  39  67 104 138 177 226 287 360 415
#
# _framework density 23.049951
#
# number of rings (size 3 to 8) (size 9 to 14) (size 15 to 20)
#    0.000    2.000    0.000    0.750   10.500    7.000 
#   27.000    0.000    0.000    0.000    0.000    0.000 
#    0.000    0.000    0.000    0.000    0.000    0.000 
#
# Total GULP energy -89318.248699 kJ/mol
# GULP energy per Si atom -5582.390544 kJ/mol
# Density = 2.299749 g / cm^3
# Si number density = 23.049951 Si / 1000 Ang^3
#
#
#
# Elastic Constant Matrix: (Units=GPa)
#
#
# Indices 1 2 3 4 5 6 
#
# 1 57.4690 44.3020 8.7936 0.0005 -0.0010 -0.0021
# 2 44.3020 144.7993 31.0246 0.0005 0.0012 0.0032
# 3 8.7936 31.0246 85.5961 0.0004 0.0045 0.0227
# 4 0.0005 0.0005 0.0004 31.3458 0.0002 0.0038
# 5 -0.0010 0.0012 0.0045 0.0002 30.4201 0.0056
# 6 -0.0021 0.0032 0.0227 0.0038 0.0056 105.1472
#
#
#
# Elastic Compliance Matrix: (Units=1/GPa)
#
#
# Indices 1 2 3 4 5 6 
#
# 1 0.022775 -0.007011 0.000202 0.000000 0.000001 0.000001
# 2 -0.007011 0.009646 -0.002776 0.000000 0.000000 0.000000
# 3 0.000202 -0.002776 0.012668 0.000000 -0.000002 -0.000003
# 4 0.000000 0.000000 0.000000 0.031902 0.000000 -0.000001
# 5 0.000001 0.000000 -0.000002 0.000000 0.032873 -0.000002
# 6 0.000001 0.000000 -0.000003 -0.000001 -0.000002 0.009510
#
#
# Mechanical properties :
#
#
# Convention : Reuss Voigt Hill
#
# Bulk Modulus (GPa) = 38.58377 50.67833 44.63105
# Shear Modulus (GPa) = 33.97085 46.96557 40.46821
#
# Velocity S-wave (km/s) = 3.84317 4.51883 4.19462
# Velocity P-wave (km/s) = 6.03894 7.01858 6.54711
#
# Compressibility (1/GPa) = 0.02591763
#
# Stress axis : x y z
#
# Youngs Moduli (GPa) = 43.90842 103.67008 78.93771
#
# Poissons Ratio (x) = 0.72685 -0.01591
# Poissons Ratio (y) = 0.30785 0.21913
# Poissons Ratio (z) = -0.00885 0.28778
#
# Static dielectric constant tensor:
#      x y z
#    x 1.861920 0.000000 0.000000 
#    y 0.000000 1.918110 0.000000 
#    z 0.000000 0.000000 1.860870 
# 
# From -- ./inp_files/8943.got.cif
#   From: 2010.05.17/outbox.cif.g08.bks.cpg/sg24_5_cif.got.tgz:8943.got - 2010.06.04 00:33:39.
