data_PCOD9335070
_publ_section_title
;
Structure prediction by ZEFSAII (Michael W. Deem and Ramdas Pophale) SiO2 
 PCOD9335070
Probable space group: I 21 21 21
;
_chemical_formula_sum "Si O2"
_cell_formula_units_Z 24
_cell_length_a 8.045804
_cell_length_b 5.005587
_cell_length_c 28.241752
_cell_angle_alpha 90.000000
_cell_angle_beta 90.000000
_cell_angle_gamma 90.000000
_cell_volume 1137.407527
_symmetry_space_group_name_H-M "I 21 21 21"
_symmetry_group_IT_number 24
_symmetry_cell_setting 'orthorhombic'
loop_
_space_group_symop_operation_xyz
x,y,z
-x,1/2-y,z
x,-y,1/2-z
1/2-x,y,-z
1/2+x,1/2+y,1/2+z
1/2-x,-y,1/2+z
1/2+x,1/2-y,-z
-x,1/2+y,1/2-z
loop_
_atom_site_type_symbol
_atom_site_label
_atom_site_fract_x
_atom_site_fract_y
_atom_site_fract_z
Si Si1 0.377787 0.000358 0.303136
Si Si2 0.313909 0.634448 0.448325
Si Si3 0.315475 0.134002 0.604536
O O1 0.500000 0.750000 0.310208
O O2 0.500000 0.250000 0.305208
O O3 0.304371 0.000000 0.250000
O O4 0.245052 0.031195 0.344484
O O5 0.500000 0.750000 0.449660
O O6 0.250000 0.551546 0.500000
O O7 0.297883 0.378675 0.414260
O O8 0.202354 0.880578 0.429896
O O9 0.500000 0.250000 0.605719
#
# Coordination Sequence:
#
# PCOD9335070 Si02
#       3
#     8   8   8
#     4  10  21  40  65  91 122 163 208 252 305 367
#     4  12  25  43  65  91 125 165 208 253 306 366
#     4  12  24  41  64  94 128 162 205 255 309 365
#
# _framework density 21.100615999999999
#
# number of rings (size 3 to 8) (size 9 to 14) (size 15 to 20)
#    0.000    0.667    0.000   10.000    0.000    0.000 
#    0.000    8.333    0.000    0.000    0.000    0.000 
#    0.000    0.000    0.000    0.000    0.000    0.000 
#
# Total GULP energy -67198.557195 kJ/mol
# GULP energy per Si atom -5599.879766 kJ/mol
# Density = 2.105259 g / cm^3
# Si number density = 21.100616 Si / 1000 Ang^3
#
#
#
# Elastic Constant Matrix: (Units=GPa)
#
#
# Indices 1 2 3 4 5 6 
#
# 1 89.7557 15.8857 50.0970 0.0000 0.0000 0.0000
# 2 15.8857 135.7725 31.9255 0.0000 0.0000 0.0000
# 3 50.0970 31.9255 139.2206 0.0000 0.0000 0.0000
# 4 0.0000 0.0000 0.0000 37.6870 0.0000 0.0000
# 5 0.0000 0.0000 0.0000 0.0000 22.8061 0.0000
# 6 0.0000 0.0000 0.0000 0.0000 0.0000 28.6993
#
#
#
# Elastic Compliance Matrix: (Units=1/GPa)
#
#
# Indices 1 2 3 4 5 6 
#
# 1 0.013971 -0.000478 -0.004918 0.000000 0.000000 0.000000
# 2 -0.000478 0.007801 -0.001617 0.000000 0.000000 0.000000
# 3 -0.004918 -0.001617 0.009323 0.000000 0.000000 0.000000
# 4 0.000000 0.000000 0.000000 0.026534 0.000000 0.000000
# 5 0.000000 0.000000 0.000000 0.000000 0.043848 0.000000
# 6 0.000000 0.000000 0.000000 0.000000 0.000000 0.034844
#
#
# Mechanical properties :
#
#
# Convention : Reuss Voigt Hill
#
# Bulk Modulus (GPa) = 58.58279 62.28502 60.43390
# Shear Modulus (GPa) = 32.04369 35.62785 33.83577
#
# Velocity S-wave (km/s) = 3.90117 4.11356 4.00877
# Velocity P-wave (km/s) = 6.93657 7.22108 7.08025
#
# Compressibility (1/GPa) = 0.01706986
#
# Stress axis : x y z
#
# Youngs Moduli (GPa) = 71.57830 128.18189 107.26004
#
# Poissons Ratio (x) = 0.06131 0.52745
# Poissons Ratio (y) = 0.03424 0.17343
# Poissons Ratio (z) = 0.35199 0.20725
#
# Static dielectric constant tensor:
#      x y z
#    x 1.729240 0.000000 0.000000 
#    y 0.000000 1.723090 0.000000 
#    z 0.000000 0.000000 1.799750 
# 
# From -- ./inp_files/931.got.cif
#   From: 2010.05.17/outbox.cif.g08.bks.cpg/sg24_1_cif.got.tgz:931.got - 2010.06.04 00:33:39.
