data_PCOD9335762
_publ_section_title
;
Structure prediction by ZEFSAII (Michael W. Deem and Ramdas Pophale) SiO2 
 PCOD9335762
Probable space group: I 21 21 21
;
_chemical_formula_sum "Si O2"
_cell_formula_units_Z 28
_cell_length_a 24.385910
_cell_length_b 4.842233
_cell_length_c 10.598369
_cell_angle_alpha 90.000000
_cell_angle_beta 90.000000
_cell_angle_gamma 90.000000
_cell_volume 1251.479344
_symmetry_space_group_name_H-M "I 21 21 21"
_symmetry_group_IT_number 24
_symmetry_cell_setting 'orthorhombic'
loop_
_space_group_symop_operation_xyz
x,y,z
-x,1/2-y,z
x,-y,1/2-z
1/2-x,y,-z
1/2+x,1/2+y,1/2+z
1/2-x,-y,1/2+z
1/2+x,1/2-y,-z
-x,1/2+y,1/2-z
loop_
_atom_site_type_symbol
_atom_site_label
_atom_site_fract_x
_atom_site_fract_y
_atom_site_fract_z
Si Si1 0.199721 0.500000 0.250000
Si Si2 0.150760 0.267045 0.497913
Si Si3 0.959255 0.495542 0.600597
Si Si4 0.197291 0.194853 0.865242
O O1 0.161632 0.365457 0.356244
O O2 0.243573 0.305694 0.177133
O O3 0.094855 0.097536 0.524732
O O4 0.161901 0.535638 0.589505
O O5 0.194965 0.032517 0.526958
O O6 0.945349 0.500000 0.750000
O O7 0.000000 0.250000 0.580566
O O8 0.000000 0.750000 0.569970
O O9 0.176335 0.000000 0.750000
#
# Coordination Sequence:
#
# PCOD9335762 Si02
#       4
#     4   8   8   8
#     4  12  30  42  72 110 158 208 262 306 378 482
#     4  12  27  45  73 106 153 205 254 321 391 455
#     4  10  22  44  74 110 142 181 250 326 390 450
#     4  12  26  43  67 105 154 205 256 312 370 459
#
# _framework density 22.373522000000001
#
# number of rings (size 3 to 8) (size 9 to 14) (size 15 to 20)
#    0.000    0.571    2.857    3.429    8.000    4.571 
#    0.000    0.000    0.000    5.143    0.000    8.000 
#    0.000    0.000    0.000    0.000    0.000    0.000 
#
# Total GULP energy -78083.735369 kJ/mol
# GULP energy per Si atom -5577.409669 kJ/mol
# Density = 2.232260 g / cm^3
# Si number density = 22.373522 Si / 1000 Ang^3
#
#
#
# Elastic Constant Matrix: (Units=GPa)
#
#
# Indices 1 2 3 4 5 6 
#
# 1 205.3936 78.5556 89.3433 0.0000 0.0000 0.0000
# 2 78.5556 210.9727 81.6332 0.0000 0.0000 0.0000
# 3 89.3433 81.6332 148.8247 0.0000 0.0000 0.0000
# 4 0.0000 0.0000 0.0000 51.0846 0.0000 0.0000
# 5 0.0000 0.0000 0.0000 0.0000 35.8940 0.0000
# 6 0.0000 0.0000 0.0000 0.0000 0.0000 30.0651
#
#
#
# Elastic Compliance Matrix: (Units=1/GPa)
#
#
# Indices 1 2 3 4 5 6 
#
# 1 0.006826 -0.001214 -0.003432 0.000000 0.000000 0.000000
# 2 -0.001214 0.006233 -0.002690 0.000000 0.000000 0.000000
# 3 -0.003432 -0.002690 0.010255 0.000000 0.000000 0.000000
# 4 0.000000 0.000000 0.000000 0.019575 0.000000 0.000000
# 5 0.000000 0.000000 0.000000 0.000000 0.027860 0.000000
# 6 0.000000 0.000000 0.000000 0.000000 0.000000 0.033261
#
#
# Mechanical properties :
#
#
# Convention : Reuss Voigt Hill
#
# Bulk Modulus (GPa) = 115.71213 118.25058 116.98135
# Shear Modulus (GPa) = 41.13110 44.45265 42.79188
#
# Velocity S-wave (km/s) = 4.29229 4.46224 4.37809
# Velocity P-wave (km/s) = 8.74046 8.91720 8.82927
#
# Compressibility (1/GPa) = 0.00864214
#
# Stress axis : x y z
#
# Youngs Moduli (GPa) = 146.50478 160.44173 97.51083
#
# Poissons Ratio (x) = 0.19471 0.33465
# Poissons Ratio (y) = 0.17780 0.26233
# Poissons Ratio (z) = 0.50280 0.43163
#
# Static dielectric constant tensor:
#      x y z
#    x 1.797720 0.000000 0.000000 
#    y 0.000000 1.850980 0.000000 
#    z 0.000000 0.000000 1.980990 
# 
# From -- ./inp_files/22771.got.cif
#   From: 2010.05.17/outbox.cif.g08.bks.cpg/sg24_12_cif.got.tgz:22771.got - 2010.06.04 00:33:39.
