data_PCOD9335607
_publ_section_title
;
Structure prediction by ZEFSAII (Michael W. Deem and Ramdas Pophale) SiO2 
 PCOD9335607
Probable space group: I 21 21 21
;
_chemical_formula_sum "Si O2"
_cell_formula_units_Z 36
_cell_length_a 18.204313
_cell_length_b 5.811914
_cell_length_c 14.020555
_cell_angle_alpha 90.000000
_cell_angle_beta 90.000000
_cell_angle_gamma 90.000000
_cell_volume 1483.401380
_symmetry_space_group_name_H-M "I 21 21 21"
_symmetry_group_IT_number 24
_symmetry_cell_setting 'orthorhombic'
loop_
_space_group_symop_operation_xyz
x,y,z
-x,1/2-y,z
x,-y,1/2-z
1/2-x,y,-z
1/2+x,1/2+y,1/2+z
1/2-x,-y,1/2+z
1/2+x,1/2-y,-z
-x,1/2+y,1/2-z
loop_
_atom_site_type_symbol
_atom_site_label
_atom_site_fract_x
_atom_site_fract_y
_atom_site_fract_z
Si Si1 0.082564 0.274321 0.866724
Si Si2 0.276961 0.258852 0.273954
Si Si3 0.960583 0.000000 0.250000
Si Si4 0.574454 0.895177 0.951381
Si Si5 0.177168 0.918244 0.969734
O O1 0.146411 0.279528 0.787074
O O2 0.000000 0.250000 0.826778
O O3 0.109638 0.056692 0.927287
O O4 0.080292 0.467456 0.949126
O O5 0.237067 0.500000 0.250000
O O6 0.295977 0.246360 0.384981
O O7 0.247062 0.000000 0.250000
O O8 0.924383 0.037849 0.145989
O O9 0.000000 0.750000 0.237019
O O10 0.500000 0.750000 0.957417
O O11 0.643385 0.724930 0.945094
O O12 0.250000 0.057807 0.000000
#
# Coordination Sequence:
#
# PCOD9335607 Si02
#       5
#     8   8   4   8   8
#     4  11  22  40  73 103 141 183 247 305 371 430
#     4  10  22  42  65 101 143 182 234 289 359 435
#     4  10  24  42  68 102 140 176 248 310 356 426
#     4  11  22  42  71  99 135 190 243 304 365 431
#     4  11  25  45  66 105 150 192 236 297 368 451
#
# _framework density 24.268547999999999
#
# number of rings (size 3 to 8) (size 9 to 14) (size 15 to 20)
#    0.000    1.333    4.444    0.667    3.111    4.444 
#    2.000    2.222    0.000    0.000    0.000    0.000 
#    0.000    0.000    0.000    0.000    0.000    0.000 
#
# Total GULP energy -100315.810447 kJ/mol
# GULP energy per Si atom -5573.100580 kJ/mol
# Density = 2.421331 g / cm^3
# Si number density = 24.268548 Si / 1000 Ang^3
#
#
#
# Elastic Constant Matrix: (Units=GPa)
#
#
# Indices 1 2 3 4 5 6 
#
# 1 86.3310 18.1004 24.1824 0.0000 0.0000 0.0000
# 2 18.1004 117.9684 -2.7838 0.0000 0.0000 0.0000
# 3 24.1824 -2.7838 59.5795 0.0000 0.0000 0.0000
# 4 0.0000 0.0000 0.0000 35.7242 0.0000 0.0000
# 5 0.0000 0.0000 0.0000 0.0000 16.8674 0.0000
# 6 0.0000 0.0000 0.0000 0.0000 0.0000 5.4600
#
#
#
# Elastic Compliance Matrix: (Units=1/GPa)
#
#
# Indices 1 2 3 4 5 6 
#
# 1 0.013628 -0.002224 -0.005635 0.000000 0.000000 0.000000
# 2 -0.002224 0.008849 0.001316 0.000000 0.000000 0.000000
# 3 -0.005635 0.001316 0.019133 0.000000 0.000000 0.000000
# 4 0.000000 0.000000 0.000000 0.027992 0.000000 0.000000
# 5 0.000000 0.000000 0.000000 0.000000 0.059286 0.000000
# 6 0.000000 0.000000 0.000000 0.000000 0.000000 0.183151
#
#
# Mechanical properties :
#
#
# Convention : Reuss Voigt Hill
#
# Bulk Modulus (GPa) = 35.05824 38.09743 36.57784
# Shear Modulus (GPa) = 14.94172 26.56899 20.75535
#
# Velocity S-wave (km/s) = 2.48399 3.31235 2.92762
# Velocity P-wave (km/s) = 4.76490 5.51010 5.15099
#
# Compressibility (1/GPa) = 0.02852396
#
# Stress axis : x y z
#
# Youngs Moduli (GPa) = 73.37752 113.00530 52.26541
#
# Poissons Ratio (x) = 0.25132 0.29454
# Poissons Ratio (y) = 0.16319 -0.06879
# Poissons Ratio (z) = 0.41351 -0.14873
#
# Static dielectric constant tensor:
#      x y z
#    x 1.956780 0.000000 0.000000 
#    y 0.000000 1.725520 0.000000 
#    z 0.000000 0.000000 1.933270 
# 
# From -- ./inp_files/3324.got.cif
#   From: 2010.05.17/outbox.cif.g08.bks.cpg/sg24_2_cif.got.tgz:3324.got - 2010.06.04 00:33:39.
