data_PCOD9335144
_publ_section_title
;
Structure prediction by ZEFSAII (Michael W. Deem and Ramdas Pophale) SiO2 
 PCOD9335144
Probable space group: I 21 21 21
;
_chemical_formula_sum "Si O2"
_cell_formula_units_Z 60
_cell_length_a 8.565948
_cell_length_b 28.769322
_cell_length_c 11.791225
_cell_angle_alpha 90.000000
_cell_angle_beta 90.000000
_cell_angle_gamma 90.000000
_cell_volume 2905.788411
_symmetry_space_group_name_H-M "I 21 21 21"
_symmetry_group_IT_number 24
_symmetry_cell_setting 'orthorhombic'
loop_
_space_group_symop_operation_xyz
x,y,z
-x,1/2-y,z
x,-y,1/2-z
1/2-x,y,-z
1/2+x,1/2+y,1/2+z
1/2-x,-y,1/2+z
1/2+x,1/2-y,-z
-x,1/2+y,1/2-z
loop_
_atom_site_type_symbol
_atom_site_label
_atom_site_fract_x
_atom_site_fract_y
_atom_site_fract_z
Si Si1 0.958629 0.304706 0.800221
Si Si2 0.933785 0.012719 0.503469
Si Si3 0.571221 0.198984 0.966617
Si Si4 0.918542 0.801080 0.939443
Si Si5 0.375515 0.851343 0.701305
Si Si6 0.403818 0.000000 0.250000
Si Si7 0.580139 0.389180 0.551893
Si Si8 0.335804 0.948267 0.613724
O O1 0.776935 0.318336 0.781129
O O2 0.000000 0.250000 0.812788
O O3 0.067391 0.316782 0.692885
O O4 0.996413 0.325737 0.923035
O O5 0.750000 0.005620 0.500000
O O6 0.997027 0.006104 0.634175
O O7 0.977258 0.065597 0.471654
O O8 0.008404 0.978412 0.406932
O O9 0.500000 0.250000 0.956533
O O10 0.523163 0.175660 0.849264
O O11 0.750000 0.202364 0.000000
O O12 0.000000 0.750000 0.946709
O O13 0.750000 0.798264 0.000000
O O14 0.014782 0.841556 0.999725
O O15 0.409937 0.877618 0.816625
O O16 0.351441 0.893275 0.613658
O O17 0.278966 0.040319 0.218620
O O18 0.750000 0.398719 0.500000
O O19 0.250000 0.964067 0.500000
#
# Coordination Sequence:
#
# PCOD9335144 Si02
#       8
#     8   8   8   8   8   4   8   8
#     4  10  22  42  65  94 137 182 235 296 359 426
#     4  11  25  45  70 106 144 178 236 303 376 441
#     4  11  24  43  66  95 131 178 234 291 359 426
#     4  11  25  42  67  99 141 189 242 301 361 432
#     4  12  24  41  70  98 135 183 232 295 352 436
#     4  10  22  42  72  96 132 190 222 284 352 442
#     4  12  24  44  68 101 139 186 240 289 367 453
#     4  10  21  41  66  96 128 175 234 275 345 438
#
# _framework density 20.648440999999998
#
# number of rings (size 3 to 8) (size 9 to 14) (size 15 to 20)
#    0.000    1.067    1.333    6.400    3.733    2.667 
#    0.000    0.000    0.000    0.000    0.000    0.000 
#    0.000    0.000    0.000    0.000    0.000    0.000 
#
# Total GULP energy -167191.714866 kJ/mol
# GULP energy per Si atom -5573.057162 kJ/mol
# Density = 2.060144 g / cm^3
# Si number density = 20.648441 Si / 1000 Ang^3
#
#
#
# Elastic Constant Matrix: (Units=GPa)
#
#
# Indices 1 2 3 4 5 6 
#
# 1 115.7966 43.2116 44.3507 0.0001 0.0000 0.0000
# 2 43.2116 82.8478 17.2685 0.0000 0.0000 -0.0001
# 3 44.3507 17.2685 123.2290 0.0000 0.0000 -0.0001
# 4 0.0001 0.0000 0.0000 28.1776 0.0000 -0.0001
# 5 0.0000 0.0000 0.0000 0.0000 30.2323 0.0000
# 6 0.0000 -0.0001 -0.0001 -0.0001 0.0000 22.0835
#
#
#
# Elastic Compliance Matrix: (Units=1/GPa)
#
#
# Indices 1 2 3 4 5 6 
#
# 1 0.012075 -0.005554 -0.003567 0.000000 0.000000 0.000000
# 2 -0.005554 0.014989 -0.000101 0.000000 0.000000 0.000000
# 3 -0.003567 -0.000101 0.009413 0.000000 0.000000 0.000000
# 4 0.000000 0.000000 0.000000 0.035489 0.000000 0.000000
# 5 0.000000 0.000000 0.000000 0.000000 0.033077 0.000000
# 6 0.000000 0.000000 0.000000 0.000000 0.000000 0.045283
#
#
# Mechanical properties :
#
#
# Convention : Reuss Voigt Hill
#
# Bulk Modulus (GPa) = 55.46275 59.05946 57.26111
# Shear Modulus (GPa) = 28.60704 30.56818 29.58761
#
# Velocity S-wave (km/s) = 3.72618 3.85178 3.78950
# Velocity P-wave (km/s) = 6.74028 6.96033 6.85119
#
# Compressibility (1/GPa) = 0.01803012
#
# Stress axis : x y z
#
# Youngs Moduli (GPa) = 82.81627 66.71774 106.23470
#
# Poissons Ratio (x) = 0.37058 0.37899
# Poissons Ratio (y) = 0.46000 0.01076
# Poissons Ratio (z) = 0.29544 0.00676
#
# Static dielectric constant tensor:
#      x y z
#    x 1.751030 0.000000 0.000000 
#    y 0.000000 1.733350 0.000000 
#    z 0.000000 0.000000 1.876270 
# 
# From -- ./inp_files/18792.got.cif
#   From: 2010.05.17/outbox.cif.g08.bks.cpg/sg24_10_cif.got.tgz:18792.got - 2010.06.04 00:33:39.
