data_PCOD9335522
_publ_section_title
;
Structure prediction by ZEFSAII (Michael W. Deem and Ramdas Pophale) SiO2 
 PCOD9335522
Probable space group: I 21 21 21
;
_chemical_formula_sum "Si O2"
_cell_formula_units_Z 48
_cell_length_a 16.602212
_cell_length_b 13.919001
_cell_length_c 8.938483
_cell_angle_alpha 90.000000
_cell_angle_beta 90.000000
_cell_angle_gamma 90.000000
_cell_volume 2065.560119
_symmetry_space_group_name_H-M "I 21 21 21"
_symmetry_group_IT_number 24
_symmetry_cell_setting 'orthorhombic'
loop_
_space_group_symop_operation_xyz
x,y,z
-x,1/2-y,z
x,-y,1/2-z
1/2-x,y,-z
1/2+x,1/2+y,1/2+z
1/2-x,-y,1/2+z
1/2+x,1/2-y,-z
-x,1/2+y,1/2-z
loop_
_atom_site_type_symbol
_atom_site_label
_atom_site_fract_x
_atom_site_fract_y
_atom_site_fract_z
Si Si1 0.897509 0.393087 0.198177
Si Si2 0.155184 0.248781 0.460087
Si Si3 0.637611 0.960121 0.002021
Si Si4 0.883815 0.278117 0.795099
Si Si5 0.750000 0.341641 0.000000
Si Si6 0.257869 0.500000 0.750000
Si Si7 0.489001 0.610892 0.439761
O O1 0.914541 0.500000 0.250000
O O2 0.874984 0.323146 0.333522
O O3 0.819834 0.397157 0.088115
O O4 0.974545 0.362178 0.101095
O O5 0.250000 0.237954 0.500000
O O6 0.134741 0.358844 0.418252
O O7 0.113261 0.232496 0.619086
O O8 0.682435 0.031703 0.884363
O O9 0.555349 0.009115 0.051413
O O10 0.694315 0.940933 0.147397
O O11 0.796313 0.283255 0.870630
O O12 0.933579 0.374574 0.834491
O O13 0.926704 0.188831 0.876568
#
# Coordination Sequence:
#
# PCOD9335522 Si02
#       7
#     8   8   8   8   4   4   8
#     4  11  27  50  75 112 145 208 258 326 389 473
#     4  12  24  49  80 115 145 192 272 331 386 454
#     4  11  24  43  71 111 148 193 242 317 378 470
#     4  10  23  47  74 109 149 211 247 322 381 472
#     4  10  22  44  78 100 148 194 256 312 378 458
#     4  10  22  40  68 110 148 190 244 298 384 450
#     4  10  25  49  69 107 160 200 248 304 415 460
#
# _framework density 23.238251000000002
#
# number of rings (size 3 to 8) (size 9 to 14) (size 15 to 20)
#    0.000    1.333    3.333    1.000    2.333    6.667 
#   15.000    1.667    0.000    0.000    0.000    0.000 
#    0.000    0.000    0.000    0.000    0.000    0.000 
#
# Total GULP energy -133990.698032 kJ/mol
# GULP energy per Si atom -5582.945751 kJ/mol
# Density = 2.318536 g / cm^3
# Si number density = 23.238251 Si / 1000 Ang^3
#
#
#
# Elastic Constant Matrix: (Units=GPa)
#
#
# Indices 1 2 3 4 5 6 
#
# 1 93.1556 32.1175 41.2153 0.0000 0.0000 0.0000
# 2 32.1175 93.7551 53.9109 0.0000 0.0000 0.0000
# 3 41.2153 53.9109 148.8872 0.0000 0.0000 0.0000
# 4 0.0000 0.0000 0.0000 7.7141 0.0000 0.0000
# 5 0.0000 0.0000 0.0000 0.0000 33.8468 0.0000
# 6 0.0000 0.0000 0.0000 0.0000 0.0000 29.5119
#
#
#
# Elastic Compliance Matrix: (Units=1/GPa)
#
#
# Indices 1 2 3 4 5 6 
#
# 1 0.012859 -0.002978 -0.002481 0.000000 0.000000 0.000000
# 2 -0.002978 0.014161 -0.004303 0.000000 0.000000 0.000000
# 3 -0.002481 -0.004303 0.008961 0.000000 0.000000 0.000000
# 4 0.000000 0.000000 0.000000 0.129632 0.000000 0.000000
# 5 0.000000 0.000000 0.000000 0.000000 0.029545 0.000000
# 6 0.000000 0.000000 0.000000 0.000000 0.000000 0.033885
#
#
# Mechanical properties :
#
#
# Convention : Reuss Voigt Hill
#
# Bulk Modulus (GPa) = 60.76762 65.58725 63.17744
# Shear Modulus (GPa) = 19.68086 28.11819 23.89952
#
# Velocity S-wave (km/s) = 2.91334 3.48227 3.21043
# Velocity P-wave (km/s) = 6.12563 6.66734 6.40222
#
# Compressibility (1/GPa) = 0.01645613
#
# Stress axis : x y z
#
# Youngs Moduli (GPa) = 77.76399 70.61800 111.58908
#
# Poissons Ratio (x) = 0.21033 0.27689
# Poissons Ratio (y) = 0.23161 0.48017
# Poissons Ratio (z) = 0.19296 0.30387
#
# Static dielectric constant tensor:
#      x y z
#    x 1.925520 0.000000 0.000000 
#    y 0.000000 1.896440 0.000000 
#    z 0.000000 0.000000 1.880860 
# 
# From -- ./inp_files/14240.got.cif
#   From: 2010.05.17/outbox.cif.g08.bks.cpg/sg24_8_cif.got.tgz:14240.got - 2010.06.04 00:33:39.
