data_PCOD9335994
_publ_section_title
;
Structure prediction by ZEFSAII (Michael W. Deem and Ramdas Pophale) SiO2 
 PCOD9335994
Probable space group: I 21 21 21
;
_chemical_formula_sum "Si O2"
_cell_formula_units_Z 44
_cell_length_a 11.947269
_cell_length_b 16.079569
_cell_length_c 9.954999
_cell_angle_alpha 90.000000
_cell_angle_beta 90.000000
_cell_angle_gamma 90.000000
_cell_volume 1912.424358
_symmetry_space_group_name_H-M "I 21 21 21"
_symmetry_group_IT_number 24
_symmetry_cell_setting 'orthorhombic'
loop_
_space_group_symop_operation_xyz
x,y,z
-x,1/2-y,z
x,-y,1/2-z
1/2-x,y,-z
1/2+x,1/2+y,1/2+z
1/2-x,-y,1/2+z
1/2+x,1/2-y,-z
-x,1/2+y,1/2-z
loop_
_atom_site_type_symbol
_atom_site_label
_atom_site_fract_x
_atom_site_fract_y
_atom_site_fract_z
Si Si1 0.075168 0.330719 0.756455
Si Si2 0.821229 0.849826 0.338273
Si Si3 0.921320 0.828180 0.050221
Si Si4 0.006556 0.989098 0.400872
Si Si5 0.368159 0.928419 0.343010
Si Si6 0.250000 0.792472 0.500000
O O1 0.115413 0.315042 0.603602
O O2 0.000000 0.250000 0.797633
O O3 0.982099 0.401972 0.767749
O O4 0.185688 0.358669 0.838215
O O5 0.846949 0.833065 0.182921
O O6 0.840762 0.767949 0.428864
O O7 0.898824 0.926898 0.385202
O O8 0.000000 0.750000 0.076927
O O9 0.974442 0.919712 0.049043
O O10 0.050744 0.000000 0.250000
O O11 0.094416 0.955537 0.507900
O O12 0.293531 0.848464 0.377101
O O13 0.316580 0.000000 0.250000
#
# Coordination Sequence:
#
# PCOD9335994 Si02
#       6
#     8   8   8   8   8   4
#     4  11  22  46  72 100 147 193 247 303 382 444
#     4  11  24  43  71 110 143 192 247 314 368 454
#     4  10  23  44  72 107 147 196 241 304 379 446
#     4  10  24  44  70 109 145 189 243 308 373 442
#     4  12  26  48  73 103 146 195 249 313 373 454
#     4  12  28  46  72 106 142 202 252 304 386 448
#
# _framework density 23.007446000000002
#
# number of rings (size 3 to 8) (size 9 to 14) (size 15 to 20)
#    0.000    1.091    3.636    1.636    5.091    2.909 
#   16.364    0.000    0.000    0.000    0.000    0.000 
#    0.000    0.000    0.000    0.000    0.000    0.000 
#
# Total GULP energy -122713.605950 kJ/mol
# GULP energy per Si atom -5577.891180 kJ/mol
# Density = 2.295508 g / cm^3
# Si number density = 23.007446 Si / 1000 Ang^3
#
#
#
# Elastic Constant Matrix: (Units=GPa)
#
#
# Indices 1 2 3 4 5 6 
#
# 1 55.5047 51.9404 29.2394 0.0000 0.0000 0.0000
# 2 51.9404 136.4502 9.7635 0.0000 0.0000 0.0000
# 3 29.2394 9.7635 93.6267 0.0000 0.0000 0.0000
# 4 0.0000 0.0000 0.0000 53.2073 0.0000 0.0000
# 5 0.0000 0.0000 0.0000 0.0000 34.9567 0.0000
# 6 0.0000 0.0000 0.0000 0.0000 0.0000 5.4361
#
#
#
# Elastic Compliance Matrix: (Units=1/GPa)
#
#
# Indices 1 2 3 4 5 6 
#
# 1 0.034815 -0.012568 -0.009562 0.000000 0.000000 0.000000
# 2 -0.012568 0.011921 0.002682 0.000000 0.000000 0.000000
# 3 -0.009562 0.002682 0.013387 0.000000 0.000000 0.000000
# 4 0.000000 0.000000 0.000000 0.018794 0.000000 0.000000
# 5 0.000000 0.000000 0.000000 0.000000 0.028607 0.000000
# 6 0.000000 0.000000 0.000000 0.000000 0.000000 0.183956
#
#
# Mechanical properties :
#
#
# Convention : Reuss Voigt Hill
#
# Bulk Modulus (GPa) = 47.11117 51.94092 49.52605
# Shear Modulus (GPa) = 14.81690 31.69589 23.25640
#
# Velocity S-wave (km/s) = 2.54048 3.71568 3.18279
# Velocity P-wave (km/s) = 5.39688 6.40571 5.92281
#
# Compressibility (1/GPa) = 0.02122639
#
# Stress axis : x y z
#
# Youngs Moduli (GPa) = 28.72341 83.88599 74.69807
#
# Poissons Ratio (x) = 1.05430 0.71426
# Poissons Ratio (y) = 0.36100 -0.20033
# Poissons Ratio (z) = 0.27465 -0.22497
#
# Static dielectric constant tensor:
#      x y z
#    x 1.894640 0.000000 0.000000 
#    y 0.000000 1.927970 0.000000 
#    z 0.000000 0.000000 1.902420 
# 
# From -- ./inp_files/12647.got.cif
#   From: 2010.05.17/outbox.cif.g08.bks.cpg/sg24_7_cif.got.tgz:12647.got - 2010.06.04 00:33:39.
