data_PCOD9335958
_publ_section_title
;
Structure prediction by ZEFSAII (Michael W. Deem and Ramdas Pophale) SiO2 
 PCOD9335958
Probable space group: I 21 21 21
;
_chemical_formula_sum "Si O2"
_cell_formula_units_Z 56
_cell_length_a 13.254940
_cell_length_b 7.473084
_cell_length_c 21.871748
_cell_angle_alpha 90.000000
_cell_angle_beta 90.000000
_cell_angle_gamma 90.000000
_cell_volume 2166.512123
_symmetry_space_group_name_H-M "I 21 21 21"
_symmetry_group_IT_number 24
_symmetry_cell_setting 'orthorhombic'
loop_
_space_group_symop_operation_xyz
x,y,z
-x,1/2-y,z
x,-y,1/2-z
1/2-x,y,-z
1/2+x,1/2+y,1/2+z
1/2-x,-y,1/2+z
1/2+x,1/2-y,-z
-x,1/2+y,1/2-z
loop_
_atom_site_type_symbol
_atom_site_label
_atom_site_fract_x
_atom_site_fract_y
_atom_site_fract_z
Si Si1 0.833971 0.451256 0.455207
Si Si2 0.870670 0.950095 0.649486
Si Si3 0.188491 0.044519 0.174483
Si Si4 0.677450 0.955701 0.922604
Si Si5 0.971209 0.043037 0.972931
Si Si6 0.471952 0.458271 0.814690
Si Si7 0.311832 0.761427 0.243699
O O1 0.750000 0.521204 0.500000
O O2 0.827841 0.576709 0.396400
O O3 0.801370 0.255566 0.431142
O O4 0.938519 0.440711 0.491950
O O5 0.956632 0.993834 0.599448
O O6 0.883497 0.782485 0.696543
O O7 0.773095 0.941920 0.605144
O O8 0.843063 0.109187 0.696261
O O9 0.082592 0.948143 0.188493
O O10 0.209758 0.219003 0.215412
O O11 0.285009 0.924958 0.196013
O O12 0.590589 0.975194 0.871761
O O13 0.628980 0.013860 0.986774
O O14 0.000000 0.250000 0.977421
O O15 0.500000 0.250000 0.822749
O O16 0.423290 0.500000 0.750000
#
# Coordination Sequence:
#
# PCOD9335958 Si02
#       7
#     8   8   8   8   8   8   8
#     4  12  28  48  78 106 148 199 253 325 388 464
#     4  11  25  47  76 107 153 200 257 309 392 467
#     4  11  23  45  68 113 157 193 255 315 397 449
#     4  12  26  44  72 111 153 202 250 311 392 475
#     4  12  29  49  74 108 151 203 263 325 384 467
#     4  12  27  39  67 111 158 201 246 315 391 479
#     4  10  23  43  76 110 148 200 250 317 381 465
#
# _framework density 25.847995999999998
#
# number of rings (size 3 to 8) (size 9 to 14) (size 15 to 20)
#    0.000    0.571    4.286    3.000   10.000    0.000 
#    0.000    0.000    6.286    0.000    0.000    0.000 
#    0.000    0.000    0.000    0.000    0.000    0.000 
#
# Total GULP energy -156220.272036 kJ/mol
# GULP energy per Si atom -5579.295430 kJ/mol
# Density = 2.578916 g / cm^3
# Si number density = 25.847996 Si / 1000 Ang^3
#
#
#
# Elastic Constant Matrix: (Units=GPa)
#
#
# Indices 1 2 3 4 5 6 
#
# 1 59.4199 6.3853 50.8567 0.0000 0.0000 0.0000
# 2 6.3853 70.9908 21.1627 0.0000 0.0000 0.0000
# 3 50.8567 21.1627 237.5926 0.0000 0.0000 0.0000
# 4 0.0000 0.0000 0.0000 41.6074 0.0000 0.0000
# 5 0.0000 0.0000 0.0000 0.0000 51.1192 0.0000
# 6 0.0000 0.0000 0.0000 0.0000 0.0000 0.9788
#
#
#
# Elastic Compliance Matrix: (Units=1/GPa)
#
#
# Indices 1 2 3 4 5 6 
#
# 1 0.020625 -0.000554 -0.004366 0.000000 0.000000 0.000000
# 2 -0.000554 0.014485 -0.001172 0.000000 0.000000 0.000000
# 3 -0.004366 -0.001172 0.005248 0.000000 0.000000 0.000000
# 4 0.000000 0.000000 0.000000 0.024034 0.000000 0.000000
# 5 0.000000 0.000000 0.000000 0.000000 0.019562 0.000000
# 6 0.000000 0.000000 0.000000 0.000000 0.000000 1.021710
#
#
# Mechanical properties :
#
#
# Convention : Reuss Voigt Hill
#
# Bulk Modulus (GPa) = 35.49069 58.31254 46.90161
# Shear Modulus (GPa) = 4.43562 38.04765 21.24163
#
# Velocity S-wave (km/s) = 1.31140 3.84080 2.86980
# Velocity P-wave (km/s) = 4.00667 6.50213 5.40051
#
# Compressibility (1/GPa) = 0.02817640
#
# Stress axis : x y z
#
# Youngs Moduli (GPa) = 48.48422 69.03488 190.56007
#
# Poissons Ratio (x) = 0.03823 0.83189
# Poissons Ratio (y) = 0.02685 0.22328
# Poissons Ratio (z) = 0.21166 0.08089
#
# Static dielectric constant tensor:
#      x y z
#    x 2.065720 0.000000 0.000000 
#    y 0.000000 2.196780 0.000000 
#    z 0.000000 0.000000 2.163540 
# 
# From -- ./inp_files/33766.got.cif
#   From: 2010.05.17/outbox.cif.g08.bks.cpg/sg24_17_cif.got.tgz:33766.got - 2010.06.04 00:33:39.
