data_PCOD9335082
_publ_section_title
;
Structure prediction by ZEFSAII (Michael W. Deem and Ramdas Pophale) SiO2 
 PCOD9335082
Probable space group: I 21 21 21
;
_chemical_formula_sum "Si O2"
_cell_formula_units_Z 48
_cell_length_a 32.648565
_cell_length_b 14.675067
_cell_length_c 5.393107
_cell_angle_alpha 90.000000
_cell_angle_beta 90.000000
_cell_angle_gamma 90.000000
_cell_volume 2583.944772
_symmetry_space_group_name_H-M "I 21 21 21"
_symmetry_group_IT_number 24
_symmetry_cell_setting 'orthorhombic'
loop_
_space_group_symop_operation_xyz
x,y,z
-x,1/2-y,z
x,-y,1/2-z
1/2-x,y,-z
1/2+x,1/2+y,1/2+z
1/2-x,-y,1/2+z
1/2+x,1/2-y,-z
-x,1/2+y,1/2-z
loop_
_atom_site_type_symbol
_atom_site_label
_atom_site_fract_x
_atom_site_fract_y
_atom_site_fract_z
Si Si1 0.483455 0.927332 0.044650
Si Si2 0.500000 0.750000 0.353047
Si Si3 0.084073 0.690041 0.411019
Si Si4 0.094227 0.133587 0.339510
Si Si5 0.440018 0.500000 0.750000
Si Si6 0.724640 0.609128 0.251236
Si Si7 0.133647 0.839736 0.659002
O O1 0.484963 0.831733 0.183740
O O2 0.470107 0.000000 0.250000
O O3 0.450838 0.909142 0.826581
O O4 0.528063 0.956383 0.947047
O O5 0.462414 0.711306 0.509483
O O6 0.091224 0.756071 0.176382
O O7 0.086165 0.583219 0.360409
O O8 0.114375 0.739060 0.607704
O O9 0.112429 0.113090 0.606567
O O10 0.121690 0.110002 0.100023
O O11 0.716503 0.500000 0.250000
O O12 0.750000 0.628950 0.500000
O O13 0.681365 0.659301 0.279644
O O14 0.750000 0.630481 0.000000
#
# Coordination Sequence:
#
# PCOD9335082 Si02
#       7
#     8   4   8   8   4   8   8
#     4  12  24  36  57  79 114 167 230 263 324 359
#     4  12  20  46  54  78 122 168 210 286 302 380
#     4  10  23  38  59  82 124 160 218 261 325 355
#     4  10  22  40  57  81 124 160 205 258 307 358
#     4  12  24  36  56  88 110 172 224 274 310 380
#     4  10  21  40  66  95 128 160 199 245 305 390
#     4  10  22  41  61  88 122 165 198 252 319 369
#
# _framework density 18.576246999999999
#
# number of rings (size 3 to 8) (size 9 to 14) (size 15 to 20)
#    1.000    0.333    3.333    3.000    2.333    0.667 
#    0.000    0.000    0.000    0.000    0.000    0.000 
#    5.000    0.000    0.000    0.000    0.000    0.000 
#
# Total GULP energy -133898.875579 kJ/mol
# GULP energy per Si atom -5579.119816 kJ/mol
# Density = 1.853397 g / cm^3
# Si number density = 18.576247 Si / 1000 Ang^3
#
#
#
# Elastic Constant Matrix: (Units=GPa)
#
#
# Indices 1 2 3 4 5 6 
#
# 1 103.4800 22.8964 37.1986 0.0000 0.0000 0.0001
# 2 22.8964 95.9286 29.5487 0.0001 -0.0003 0.0001
# 3 37.1986 29.5487 115.2309 0.0006 -0.0013 0.0005
# 4 0.0000 0.0001 0.0006 19.7665 -0.0005 0.0002
# 5 0.0000 -0.0003 -0.0013 -0.0005 20.8346 0.0001
# 6 0.0001 0.0001 0.0005 0.0002 0.0001 16.4902
#
#
#
# Elastic Compliance Matrix: (Units=1/GPa)
#
#
# Indices 1 2 3 4 5 6 
#
# 1 0.011179 -0.001690 -0.003175 0.000000 0.000000 0.000000
# 2 -0.001690 0.011574 -0.002422 0.000000 0.000000 0.000000
# 3 -0.003175 -0.002422 0.010324 0.000000 0.000001 0.000000
# 4 0.000000 0.000000 0.000000 0.050591 0.000001 -0.000001
# 5 0.000000 0.000000 0.000001 0.000001 0.047997 0.000000
# 6 0.000000 0.000000 0.000000 -0.000001 0.000000 0.060642
#
#
# Mechanical properties :
#
#
# Convention : Reuss Voigt Hill
#
# Bulk Modulus (GPa) = 54.04871 54.88079 54.46475
# Shear Modulus (GPa) = 23.46860 26.41796 24.94328
#
# Velocity S-wave (km/s) = 3.55824 3.77521 3.66833
# Velocity P-wave (km/s) = 6.78529 6.97213 6.87935
#
# Compressibility (1/GPa) = 0.01850183
#
# Stress axis : x y z
#
# Youngs Moduli (GPa) = 89.45216 86.40083 96.85729
#
# Poissons Ratio (x) = 0.14603 0.30756
# Poissons Ratio (y) = 0.15119 0.23462
# Poissons Ratio (z) = 0.28405 0.20929
#
# Static dielectric constant tensor:
#      x y z
#    x 1.657590 0.000000 0.000000 
#    y 0.000000 1.674740 0.000000 
#    z 0.000000 0.000000 1.727330 
# 
# From -- ./inp_files/7713.got.cif
#   From: 2010.05.17/outbox.cif.g08.bks.cpg/sg24_4_cif.got.tgz:7713.got - 2010.06.04 00:33:39.
