data_PCOD9335663
_publ_section_title
;
Structure prediction by ZEFSAII (Michael W. Deem and Ramdas Pophale) SiO2 
 PCOD9335663
Probable space group: I 21 21 21
;
_chemical_formula_sum "Si O2"
_cell_formula_units_Z 40
_cell_length_a 16.379444
_cell_length_b 8.570780
_cell_length_c 12.396073
_cell_angle_alpha 90.000000
_cell_angle_beta 90.000000
_cell_angle_gamma 90.000000
_cell_volume 1740.217887
_symmetry_space_group_name_H-M "I 21 21 21"
_symmetry_group_IT_number 24
_symmetry_cell_setting 'orthorhombic'
loop_
_space_group_symop_operation_xyz
x,y,z
-x,1/2-y,z
x,-y,1/2-z
1/2-x,y,-z
1/2+x,1/2+y,1/2+z
1/2-x,-y,1/2+z
1/2+x,1/2-y,-z
-x,1/2+y,1/2-z
loop_
_atom_site_type_symbol
_atom_site_label
_atom_site_fract_x
_atom_site_fract_y
_atom_site_fract_z
Si Si1 0.717669 0.795494 0.121130
Si Si2 0.250000 0.795569 0.500000
Si Si3 0.500000 0.250000 0.928413
Si Si4 0.395137 0.598880 0.406866
Si Si5 0.927656 0.332376 0.707530
Si Si6 0.660081 0.665996 0.704035
O O1 0.655695 0.653674 0.143191
O O2 0.790333 0.776240 0.210116
O O3 0.653955 0.942741 0.127973
O O4 0.750000 0.795489 0.000000
O O5 0.325613 0.686733 0.473258
O O6 0.276428 0.877453 0.608762
O O7 0.577843 0.268525 0.850248
O O8 0.473805 0.390936 0.012298
O O9 0.412793 0.714345 0.307161
O O10 0.953926 0.500000 0.750000
O O11 0.000000 0.250000 0.641709
O O12 0.635809 0.500000 0.750000
#
# Coordination Sequence:
#
# PCOD9335663 Si02
#       6
#     8   4   4   8   8   8
#     4  12  27  45  74 115 153 205 264 320 389 490
#     4  10  22  42  74  98 144 202 254 306 392 454
#     4  10  26  46  76 110 158 206 258 330 420 464
#     4  11  22  45  75 108 146 203 255 320 389 475
#     4  12  26  46  74 107 146 195 255 326 385 458
#     4  11  26  47  75 112 156 208 257 330 394 487
#
# _framework density 22.985628999999999
#
# number of rings (size 3 to 8) (size 9 to 14) (size 15 to 20)
#    0.000    0.800    4.000    2.400    1.400    3.200 
#    1.800    0.000    0.000    0.000    0.000    0.000 
#    0.000    0.000    0.000    0.000    0.000    0.000 
#
# Total GULP energy -111493.046277 kJ/mol
# GULP energy per Si atom -5574.652314 kJ/mol
# Density = 2.293331 g / cm^3
# Si number density = 22.985629 Si / 1000 Ang^3
#
#
#
# Elastic Constant Matrix: (Units=GPa)
#
#
# Indices 1 2 3 4 5 6 
#
# 1 160.0979 44.5822 68.6849 0.0000 0.0000 0.0000
# 2 44.5822 92.6309 43.1915 0.0000 0.0000 0.0000
# 3 68.6849 43.1915 147.3719 0.0000 0.0000 0.0000
# 4 0.0000 0.0000 0.0000 -28.7626 0.0000 0.0000
# 5 0.0000 0.0000 0.0000 0.0000 43.2658 0.0000
# 6 0.0000 0.0000 0.0000 0.0000 0.0000 45.7445
#
#
#
# Elastic Compliance Matrix: (Units=1/GPa)
#
#
# Indices 1 2 3 4 5 6 
#
# 1 0.008291 -0.002535 -0.003121 0.000000 0.000000 0.000000
# 2 -0.002535 0.013279 -0.002710 0.000000 0.000000 0.000000
# 3 -0.003121 -0.002710 0.009035 0.000000 0.000000 0.000000
# 4 0.000000 0.000000 0.000000 -0.034767 0.000000 0.000000
# 5 0.000000 0.000000 0.000000 0.000000 0.023113 0.000000
# 6 0.000000 0.000000 0.000000 0.000000 0.000000 0.021861
#
#
# Mechanical properties :
#
#
# Convention : Reuss Voigt Hill
#
# Bulk Modulus (GPa) = 72.08892 79.22422 75.65657
# Shear Modulus (GPa) = 80.42623 28.29234 54.35929
#
# Velocity S-wave (km/s) = 5.92163 3.51218 4.86833
# Velocity P-wave (km/s) = 8.84223 7.14065 8.03660
#
# Compressibility (1/GPa) = 0.01387176
#
# Stress axis : x y z
#
# Youngs Moduli (GPa) = 120.60979 75.30441 110.68528
#
# Poissons Ratio (x) = 0.19090 0.34548
# Poissons Ratio (y) = 0.30576 0.30000
# Poissons Ratio (z) = 0.37645 0.20410
#
# Static dielectric constant tensor:
#      x y z
#    x 1.972180 0.000000 0.000000 
#    y 0.000000 1.973250 0.000000 
#    z 0.000000 0.000000 1.872930 
# 
# From -- ./inp_files/21373.got.cif
#   From: 2010.05.17/outbox.cif.g08.bks.cpg/sg24_11_cif.got.tgz:21373.got - 2010.06.04 00:33:39.
