data_PCOD9335636
_publ_section_title
;
Structure prediction by ZEFSAII (Michael W. Deem and Ramdas Pophale) SiO2 
 PCOD9335636
Probable space group: I 21 21 21
;
_chemical_formula_sum "Si O2"
_cell_formula_units_Z 56
_cell_length_a 14.390202
_cell_length_b 11.783633
_cell_length_c 14.598755
_cell_angle_alpha 90.000000
_cell_angle_beta 90.000000
_cell_angle_gamma 90.000000
_cell_volume 2475.494231
_symmetry_space_group_name_H-M "I 21 21 21"
_symmetry_group_IT_number 24
_symmetry_cell_setting 'orthorhombic'
loop_
_space_group_symop_operation_xyz
x,y,z
-x,1/2-y,z
x,-y,1/2-z
1/2-x,y,-z
1/2+x,1/2+y,1/2+z
1/2-x,-y,1/2+z
1/2+x,1/2-y,-z
-x,1/2+y,1/2-z
loop_
_atom_site_type_symbol
_atom_site_label
_atom_site_fract_x
_atom_site_fract_y
_atom_site_fract_z
Si Si1 0.959985 0.369026 0.297214
Si Si2 0.237653 0.133056 0.397024
Si Si3 0.319215 0.619815 0.123208
Si Si4 0.048861 0.449774 0.966137
Si Si5 0.603083 0.791011 0.304269
Si Si6 0.376070 0.515104 0.859799
Si Si7 0.379490 0.954698 0.339051
O O1 0.951220 0.500000 0.250000
O O2 0.862876 0.352308 0.350037
O O3 0.000000 0.250000 0.249292
O O4 0.045306 0.388353 0.366805
O O5 0.250000 0.089372 0.500000
O O6 0.290997 0.252495 0.399574
O O7 0.296223 0.041424 0.342423
O O8 0.400531 0.566179 0.063524
O O9 0.350159 0.631072 0.228751
O O10 0.226637 0.546382 0.109610
O O11 0.091372 0.355785 0.898936
O O12 0.943026 0.457095 0.930420
O O13 0.078010 0.424625 0.070654
O O14 0.500000 0.750000 0.273505
O O15 0.654142 0.672967 0.322509
O O16 0.366867 0.500000 0.750000
O O17 0.437654 0.000000 0.250000
#
# Coordination Sequence:
#
# PCOD9335636 Si02
#       7
#     8   8   8   8   8   8   8
#     4  11  25  48  72 100 137 191 248 300 358 434
#     4  12  25  42  68 103 138 180 237 295 364 434
#     4  12  23  39  68 102 140 179 232 292 356 431
#     4  11  23  41  67 105 143 179 235 300 364 436
#     4  10  22  42  69 105 142 185 229 296 377 443
#     4  11  24  44  67  97 136 189 244 291 350 433
#     4  11  22  43  70 103 142 182 233 299 377 443
#
# _framework density 22.621745000000001
#
# number of rings (size 3 to 8) (size 9 to 14) (size 15 to 20)
#    0.000    0.857    2.857    5.571    0.000    0.000 
#    0.000   14.286    0.000    0.000    0.000    0.000 
#    0.000    0.000    0.000    0.000    0.000    0.000 
#
# Total GULP energy -155973.460724 kJ/mol
# GULP energy per Si atom -5570.480740 kJ/mol
# Density = 2.257026 g / cm^3
# Si number density = 22.621745 Si / 1000 Ang^3
#
#
#
# Elastic Constant Matrix: (Units=GPa)
#
#
# Indices 1 2 3 4 5 6 
#
# 1 72.5692 46.0814 35.2315 0.0000 0.0000 0.0000
# 2 46.0814 104.5626 30.3190 0.0000 0.0000 0.0000
# 3 35.2315 30.3190 123.3717 0.0000 0.0000 0.0000
# 4 0.0000 0.0000 0.0000 22.2900 0.0000 0.0000
# 5 0.0000 0.0000 0.0000 0.0000 18.3492 0.0000
# 6 0.0000 0.0000 0.0000 0.0000 0.0000 -22.5939
#
#
#
# Elastic Compliance Matrix: (Units=1/GPa)
#
#
# Indices 1 2 3 4 5 6 
#
# 1 0.020796 -0.008014 -0.003969 0.000000 0.000000 0.000000
# 2 -0.008014 0.013386 -0.001001 0.000000 0.000000 0.000000
# 3 -0.003969 -0.001001 0.009485 0.000000 0.000000 0.000000
# 4 0.000000 0.000000 0.000000 0.044863 0.000000 0.000000
# 5 0.000000 0.000000 0.000000 0.000000 0.054498 0.000000
# 6 0.000000 0.000000 0.000000 0.000000 0.000000 -0.044260
#
#
# Mechanical properties :
#
#
# Convention : Reuss Voigt Hill
#
# Bulk Modulus (GPa) = 56.50291 58.19637 57.34964
# Shear Modulus (GPa) = 38.27425 16.20050 27.23737
#
# Velocity S-wave (km/s) = 4.11776 2.67900 3.47369
# Velocity P-wave (km/s) = 6.90213 5.94568 6.44168
#
# Compressibility (1/GPa) = 0.01769820
#
# Stress axis : x y z
#
# Youngs Moduli (GPa) = 48.08657 74.70663 105.42850
#
# Poissons Ratio (x) = 0.59869 0.41847
# Poissons Ratio (y) = 0.38536 0.10554
# Poissons Ratio (z) = 0.19087 0.07478
#
# Static dielectric constant tensor:
#      x y z
#    x 1.848630 0.000000 0.000000 
#    y 0.000000 1.921820 0.000000 
#    z 0.000000 0.000000 2.027280 
# 
# From -- ./inp_files/26524.got.cif
#   From: 2010.05.17/outbox.cif.g08.bks.cpg/sg24_14_cif.got.tgz:26524.got - 2010.06.04 00:33:39.
