data_PCOD9335583
_publ_section_title
;
Structure prediction by ZEFSAII (Michael W. Deem and Ramdas Pophale) SiO2 
 PCOD9335583
Probable space group: I 21 21 21
;
_chemical_formula_sum "Si O2"
_cell_formula_units_Z 32
_cell_length_a 7.863378
_cell_length_b 5.467126
_cell_length_c 32.776012
_cell_angle_alpha 90.000000
_cell_angle_beta 90.000000
_cell_angle_gamma 90.000000
_cell_volume 1409.043323
_symmetry_space_group_name_H-M "I 21 21 21"
_symmetry_group_IT_number 24
_symmetry_cell_setting 'orthorhombic'
loop_
_space_group_symop_operation_xyz
x,y,z
-x,1/2-y,z
x,-y,1/2-z
1/2-x,y,-z
1/2+x,1/2+y,1/2+z
1/2-x,-y,1/2+z
1/2+x,1/2-y,-z
-x,1/2+y,1/2-z
loop_
_atom_site_type_symbol
_atom_site_label
_atom_site_fract_x
_atom_site_fract_y
_atom_site_fract_z
Si Si1 0.250000 0.381578 0.500000
Si Si2 0.678008 0.393504 0.671415
Si Si3 0.500000 0.750000 0.223702
Si Si4 0.182774 0.113393 0.581434
Si Si5 0.500000 0.250000 0.033683
Si Si6 0.500000 0.250000 0.776429
O O1 0.268454 0.240566 0.542527
O O2 0.418191 0.542268 0.493465
O O3 0.500000 0.250000 0.674555
O O4 0.723573 0.402681 0.623990
O O5 0.649080 0.656114 0.693570
O O6 0.831637 0.267361 0.695777
O O7 0.494158 0.500000 0.250000
O O8 0.000000 0.250000 0.587568
O O9 0.144279 0.846452 0.563731
O O10 0.466828 0.500000 0.750000
#
# Coordination Sequence:
#
# PCOD9335583 Si02
#       6
#     4   8   4   8   4   4
#     4  10  22  42  74 104 154 206 258 318 386 482
#     4  12  29  50  80 120 159 208 267 337 395 493
#     4  12  32  51  86 116 158 212 264 330 415 480
#     4  10  23  47  71 110 157 202 265 319 397 471
#     4  10  22  41  71 104 152 206 260 318 384 470
#     4  12  28  52  85 116 164 208 270 336 405 486
#
# _framework density 22.710443000000001
#
# number of rings (size 3 to 8) (size 9 to 14) (size 15 to 20)
#    0.000    1.000    2.500    1.500    7.000   10.000 
#    0.000    1.250    0.000    0.000    0.000    0.000 
#    0.000    0.000    0.000    0.000    0.000    0.000 
#
# Total GULP energy -89428.305760 kJ/mol
# GULP energy per Si atom -5589.269110 kJ/mol
# Density = 2.265875 g / cm^3
# Si number density = 22.710443 Si / 1000 Ang^3
#
#
#
# Elastic Constant Matrix: (Units=GPa)
#
#
# Indices 1 2 3 4 5 6 
#
# 1 133.6403 52.0742 93.9483 0.0000 0.0000 0.0000
# 2 52.0742 134.5151 106.6071 0.0000 0.0000 0.0000
# 3 93.9483 106.6071 256.4820 0.0000 0.0000 0.0000
# 4 0.0000 0.0000 0.0000 3.8131 0.0000 0.0000
# 5 0.0000 0.0000 0.0000 0.0000 45.0945 0.0000
# 6 0.0000 0.0000 0.0000 0.0000 0.0000 32.2835
#
#
#
# Elastic Compliance Matrix: (Units=1/GPa)
#
#
# Indices 1 2 3 4 5 6 
#
# 1 0.010273 -0.001483 -0.003146 0.000000 0.000000 0.000000
# 2 -0.001483 0.011300 -0.004154 0.000000 0.000000 0.000000
# 3 -0.003146 -0.004154 0.006778 0.000000 0.000000 0.000000
# 4 0.000000 0.000000 0.000000 0.262254 0.000000 0.000000
# 5 0.000000 0.000000 0.000000 0.000000 0.022176 0.000000
# 6 0.000000 0.000000 0.000000 0.000000 0.000000 0.030976
#
#
# Mechanical properties :
#
#
# Convention : Reuss Voigt Hill
#
# Bulk Modulus (GPa) = 92.72770 114.43296 103.58033
# Shear Modulus (GPa) = 13.70174 34.37208 24.03691
#
# Velocity S-wave (km/s) = 2.45893 3.89458 3.25685
# Velocity P-wave (km/s) = 6.99863 8.40957 7.73633
#
# Compressibility (1/GPa) = 0.01078426
#
# Stress axis : x y z
#
# Youngs Moduli (GPa) = 97.34686 88.49408 147.53955
#
# Poissons Ratio (x) = 0.13126 0.46420
# Poissons Ratio (y) = 0.14439 0.61283
# Poissons Ratio (z) = 0.30628 0.36757
#
# Static dielectric constant tensor:
#      x y z
#    x 1.875370 0.000000 0.000000 
#    y 0.000000 1.930110 0.000000 
#    z 0.000000 0.000000 1.850450 
# 
# From -- ./inp_files/38152.got.cif
#   From: 2010.05.17/outbox.cif.g08.bks.cpg/sg24_20_cif.got.tgz:38152.got - 2010.06.04 00:33:39.
