data_PCOD9335910
_publ_section_title
;
Structure prediction by ZEFSAII (Michael W. Deem and Ramdas Pophale) SiO2 
 PCOD9335910
Probable space group: I 21 21 21
;
_chemical_formula_sum "Si O2"
_cell_formula_units_Z 60
_cell_length_a 29.931454
_cell_length_b 11.544538
_cell_length_c 8.339864
_cell_angle_alpha 90.000000
_cell_angle_beta 90.000000
_cell_angle_gamma 90.000000
_cell_volume 2881.796705
_symmetry_space_group_name_H-M "I 21 21 21"
_symmetry_group_IT_number 24
_symmetry_cell_setting 'orthorhombic'
loop_
_space_group_symop_operation_xyz
x,y,z
-x,1/2-y,z
x,-y,1/2-z
1/2-x,y,-z
1/2+x,1/2+y,1/2+z
1/2-x,-y,1/2+z
1/2+x,1/2-y,-z
-x,1/2+y,1/2-z
loop_
_atom_site_type_symbol
_atom_site_label
_atom_site_fract_x
_atom_site_fract_y
_atom_site_fract_z
Si Si1 0.590302 0.959745 0.007795
Si Si2 0.450816 0.286065 0.992977
Si Si3 0.948521 0.273539 0.373757
Si Si4 0.836139 0.000000 0.250000
Si Si5 0.127599 0.702131 0.722315
Si Si6 0.383900 0.924470 0.096208
Si Si7 0.200681 0.317848 0.042619
Si Si8 0.298734 0.041984 0.930411
O O1 0.571491 0.850768 0.913553
O O2 0.633836 0.989561 0.906585
O O3 0.558167 0.073326 0.994729
O O4 0.604924 0.899692 0.174361
O O5 0.500000 0.250000 0.051587
O O6 0.445735 0.222915 0.820198
O O7 0.411313 0.247040 0.108543
O O8 0.922347 0.374641 0.472846
O O9 0.000000 0.250000 0.419860
O O10 0.810713 0.882892 0.292134
O O11 0.139342 0.806797 0.838755
O O12 0.167550 0.662427 0.608437
O O13 0.400681 0.000000 0.250000
O O14 0.343283 0.995432 0.017454
O O15 0.199763 0.180650 0.065628
O O16 0.250000 0.357750 0.000000
O O17 0.300849 0.000000 0.750000
O O18 0.250000 0.006032 0.000000
#
# Coordination Sequence:
#
# PCOD9335910 Si02
#       8
#     8   8   8   4   8   8   8   8
#     4  11  22  42  69  95 139 193 232 293 366 428
#     4  11  23  43  71 100 137 186 245 297 367 425
#     4  10  23  42  67 101 140 187 243 293 355 435
#     4  12  24  44  74  96 138 188 242 290 358 438
#     4  11  24  42  68 101 145 187 232 300 360 428
#     4  11  24  43  70 101 142 190 238 287 363 440
#     4  11  26  46  71 106 144 183 246 294 355 433
#     4  11  26  46  73 105 147 190 237 303 365 435
#
# _framework density 20.820342
#
# number of rings (size 3 to 8) (size 9 to 14) (size 15 to 20)
#    0.000    1.067    4.000    0.800    7.467    4.267 
#    0.000    2.000    0.000    0.000    0.000    0.000 
#    0.000    0.000    0.000    0.000    0.000    0.000 
#
# Total GULP energy -167187.158323 kJ/mol
# GULP energy per Si atom -5572.905277 kJ/mol
# Density = 2.077295 g / cm^3
# Si number density = 20.820342 Si / 1000 Ang^3
#
#
#
# Elastic Constant Matrix: (Units=GPa)
#
#
# Indices 1 2 3 4 5 6 
#
# 1 130.2870 25.1240 46.9503 0.0000 0.0000 0.0000
# 2 25.1240 62.1986 -1.8780 0.0000 0.0000 0.0000
# 3 46.9503 -1.8780 56.3409 0.0000 0.0000 0.0000
# 4 0.0000 0.0000 0.0000 40.2962 0.0000 0.0000
# 5 0.0000 0.0000 0.0000 0.0000 41.0659 0.0000
# 6 0.0000 0.0000 0.0000 0.0000 0.0000 35.9425
#
#
#
# Elastic Compliance Matrix: (Units=1/GPa)
#
#
# Indices 1 2 3 4 5 6 
#
# 1 0.012547 -0.005389 -0.010636 0.000000 0.000000 0.000000
# 2 -0.005389 0.018409 0.005105 0.000000 0.000000 0.000000
# 3 -0.010636 0.005105 0.026782 0.000000 0.000000 0.000000
# 4 0.000000 0.000000 0.000000 0.024816 0.000000 0.000000
# 5 0.000000 0.000000 0.000000 0.000000 0.024351 0.000000
# 6 0.000000 0.000000 0.000000 0.000000 0.000000 0.027822
#
#
# Mechanical properties :
#
#
# Convention : Reuss Voigt Hill
#
# Bulk Modulus (GPa) = 27.85710 43.24655 35.55182
# Shear Modulus (GPa) = 29.66763 35.36961 32.51862
#
# Velocity S-wave (km/s) = 3.77893 4.12612 3.95633
# Velocity P-wave (km/s) = 5.69642 6.59668 6.16301
#
# Compressibility (1/GPa) = 0.03589749
#
# Stress axis : x y z
#
# Youngs Moduli (GPa) = 79.69869 54.32247 37.33834
#
# Poissons Ratio (x) = 0.29276 0.39711
# Poissons Ratio (y) = 0.42952 -0.19060
# Poissons Ratio (z) = 0.84764 -0.27730
#
# Static dielectric constant tensor:
#      x y z
#    x 1.657390 0.000000 0.000000 
#    y 0.000000 1.844280 0.000000 
#    z 0.000000 0.000000 1.766690 
# 
# From -- ./inp_files/16473.got.cif
#   From: 2010.05.17/outbox.cif.g08.bks.cpg/sg24_9_cif.got.tgz:16473.got - 2010.06.04 00:33:39.
