data_PCOD9335232
_publ_section_title
;
Structure prediction by ZEFSAII (Michael W. Deem and Ramdas Pophale) SiO2 
 PCOD9335232
Probable space group: I 21 21 21
;
_chemical_formula_sum "Si O2"
_cell_formula_units_Z 64
_cell_length_a 10.693628
_cell_length_b 30.849013
_cell_length_c 9.451462
_cell_angle_alpha 90.000000
_cell_angle_beta 90.000000
_cell_angle_gamma 90.000000
_cell_volume 3117.922660
_symmetry_space_group_name_H-M "I 21 21 21"
_symmetry_group_IT_number 24
_symmetry_cell_setting 'orthorhombic'
loop_
_space_group_symop_operation_xyz
x,y,z
-x,1/2-y,z
x,-y,1/2-z
1/2-x,y,-z
1/2+x,1/2+y,1/2+z
1/2-x,-y,1/2+z
1/2+x,1/2-y,-z
-x,1/2+y,1/2-z
loop_
_atom_site_type_symbol
_atom_site_label
_atom_site_fract_x
_atom_site_fract_y
_atom_site_fract_z
Si Si1 0.453659 0.088197 0.963947
Si Si2 0.352482 0.261219 0.874758
Si Si3 0.102593 0.892451 0.784971
Si Si4 0.948766 0.916690 0.035418
Si Si5 0.682533 0.448925 0.725610
Si Si6 0.563446 0.848099 0.760544
Si Si7 0.364663 0.490894 0.917656
Si Si8 0.793653 0.314349 0.344019
O O1 0.330400 0.078043 0.871686
O O2 0.523834 0.126493 0.881216
O O3 0.524287 0.042682 0.941510
O O4 0.440053 0.100716 0.125376
O O5 0.500000 0.250000 0.915576
O O6 0.362599 0.305687 0.785645
O O7 0.303128 0.223492 0.771057
O O8 0.250000 0.264953 0.000000
O O9 0.184325 0.934348 0.832334
O O10 0.193714 0.851338 0.801987
O O11 0.989295 0.892326 0.894400
O O12 0.874503 0.883778 0.137253
O O13 0.070392 0.931370 0.128727
O O14 0.886483 0.962802 0.008662
O O15 0.675470 0.500000 0.750000
O O16 0.434182 0.834167 0.840104
O O17 0.347983 0.500000 0.750000
O O18 0.250000 0.469905 0.000000
O O19 0.750000 0.299686 0.500000
#
# Coordination Sequence:
#
# PCOD9335232 Si02
#       8
#     8   8   8   8   8   8   8   8
#     4  11  23  39  62  95 130 169 220 272 326 391
#     4  10  25  45  74 104 136 175 227 291 356 430
#     4  12  24  32  64 105 131 173 213 266 331 421
#     4  11  21  42  62  90 132 172 219 265 329 395
#     4  11  20  36  57  88 135 173 201 262 327 393
#     4  10  21  43  67  92 132 175 217 272 348 404
#     4  12  26  46  63  84 124 179 229 281 330 383
#     4  11  21  41  67 100 136 178 212 267 354 427
#
# _framework density 20.526488000000001
#
# number of rings (size 3 to 8) (size 9 to 14) (size 15 to 20)
#    0.000    1.000    7.500    0.750    7.000    1.500 
#    0.000    3.750    0.000    0.000    0.000    0.000 
#    0.000    0.000    0.000    0.000    0.000    0.000 
#
# Total GULP energy -178611.287204 kJ/mol
# GULP energy per Si atom -5581.602725 kJ/mol
# Density = 2.047977 g / cm^3
# Si number density = 20.526488 Si / 1000 Ang^3
#
#
#
# Elastic Constant Matrix: (Units=GPa)
#
#
# Indices 1 2 3 4 5 6 
#
# 1 54.1419 15.7787 35.8652 -0.0004 -0.0004 0.0002
# 2 15.7787 106.0612 25.6608 -0.0009 0.0006 0.0010
# 3 35.8652 25.6608 120.8209 -0.0031 -0.0025 0.0023
# 4 -0.0004 -0.0009 -0.0031 15.3443 -0.0009 -0.0003
# 5 -0.0004 0.0006 -0.0025 -0.0009 21.0670 0.0006
# 6 0.0002 0.0010 0.0023 -0.0003 0.0006 12.3604
#
#
#
# Elastic Compliance Matrix: (Units=1/GPa)
#
#
# Indices 1 2 3 4 5 6 
#
# 1 0.023346 -0.001894 -0.006528 -0.000001 0.000000 0.000001
# 2 -0.001894 0.010093 -0.001581 0.000000 -0.000001 0.000000
# 3 -0.006528 -0.001581 0.010550 0.000002 0.000001 -0.000002
# 4 -0.000001 0.000000 0.000002 0.065171 0.000003 0.000001
# 5 0.000000 -0.000001 0.000001 0.000003 0.047468 -0.000002
# 6 0.000001 0.000000 -0.000002 0.000001 -0.000002 0.080904
#
#
# Mechanical properties :
#
#
# Convention : Reuss Voigt Hill
#
# Bulk Modulus (GPa) = 41.69614 48.40370 45.04992
# Shear Modulus (GPa) = 18.83008 23.33562 21.08285
#
# Velocity S-wave (km/s) = 3.03207 3.37538 3.20832
# Velocity P-wave (km/s) = 5.71099 6.23083 5.97656
#
# Compressibility (1/GPa) = 0.02398304
#
# Stress axis : x y z
#
# Youngs Moduli (GPa) = 42.83338 99.07978 94.78304
#
# Poissons Ratio (x) = 0.18764 0.61875
# Poissons Ratio (y) = 0.08112 0.14989
# Poissons Ratio (z) = 0.27962 0.15669
#
# Static dielectric constant tensor:
#      x y z
#    x 1.896580 0.000000 0.000000 
#    y 0.000000 1.716130 0.000000 
#    z 0.000000 0.000000 1.768290 
# 
# From -- ./inp_files/11660.got.cif
#   From: 2010.05.17/outbox.cif.g08.bks.cpg/sg24_6_cif.got.tgz:11660.got - 2010.06.04 00:33:39.
