data_PCOD9335462
_publ_section_title
;
Structure prediction by ZEFSAII (Michael W. Deem and Ramdas Pophale) SiO2 
 PCOD9335462
Probable space group: I 21 21 21
;
_chemical_formula_sum "Si O2"
_cell_formula_units_Z 48
_cell_length_a 21.595264
_cell_length_b 11.925465
_cell_length_c 10.456950
_cell_angle_alpha 90.000000
_cell_angle_beta 90.000000
_cell_angle_gamma 90.000000
_cell_volume 2693.015613
_symmetry_space_group_name_H-M "I 21 21 21"
_symmetry_group_IT_number 24
_symmetry_cell_setting 'orthorhombic'
loop_
_space_group_symop_operation_xyz
x,y,z
-x,1/2-y,z
x,-y,1/2-z
1/2-x,y,-z
1/2+x,1/2+y,1/2+z
1/2-x,-y,1/2+z
1/2+x,1/2-y,-z
-x,1/2+y,1/2-z
loop_
_atom_site_type_symbol
_atom_site_label
_atom_site_fract_x
_atom_site_fract_y
_atom_site_fract_z
Si Si1 0.592751 0.585799 0.486069
Si Si2 0.627656 0.500000 0.750000
Si Si3 0.522796 0.125332 0.181234
Si Si4 0.233415 0.162236 0.350912
Si Si5 0.651074 0.177125 0.041665
Si Si6 0.165450 0.000000 0.750000
Si Si7 0.224388 0.622266 0.304274
O O1 0.589519 0.540809 0.628696
O O2 0.525777 0.617063 0.434128
O O3 0.637520 0.693223 0.487129
O O4 0.623626 0.508414 0.376556
O O5 0.673420 0.592512 0.809686
O O6 0.500000 0.250000 0.242492
O O7 0.591971 0.137221 0.124418
O O8 0.519124 0.000000 0.250000
O O9 0.250000 0.150561 0.500000
O O10 0.219972 0.288276 0.309238
O O11 0.289817 0.106530 0.270765
O O12 0.713324 0.157166 0.121049
O O13 0.666964 0.124763 0.903289
O O14 0.232112 0.500000 0.250000
#
# Coordination Sequence:
#
# PCOD9335462 Si02
#       7
#     8   4   8   8   8   4   8
#     4  11  20  39  63  90 123 155 195 252 306 373
#     4  11  22  36  58  94 124 149 196 240 316 367
#     4  10  22  41  67  91 118 160 209 257 307 364
#     4  11  22  33  56  87 123 152 190 250 297 350
#     4  10  22  40  60  83 117 163 204 241 305 363
#     4  11  20  34  60  92 118 147 194 244 310 353
#     4  11  23  38  57  81 118 162 202 244 296 361
#
# _framework density 17.823886000000002
#
# number of rings (size 3 to 8) (size 9 to 14) (size 15 to 20)
#    0.000    1.333    5.833    0.500    2.333    0.000 
#    1.500    0.000    0.000    0.000    0.000    0.000 
#    0.000    0.000    0.000    0.000    0.000    0.000 
#
# Total GULP energy -133622.125108 kJ/mol
# GULP energy per Si atom -5567.588546 kJ/mol
# Density = 1.778332 g / cm^3
# Si number density = 17.823886 Si / 1000 Ang^3
#
#
#
# Elastic Constant Matrix: (Units=GPa)
#
#
# Indices 1 2 3 4 5 6 
#
# 1 58.8293 13.6850 11.0602 0.0000 0.0000 0.0000
# 2 13.6850 112.4984 36.0699 0.0000 0.0000 0.0000
# 3 11.0602 36.0699 100.1283 0.0000 0.0000 0.0000
# 4 0.0000 0.0000 0.0000 20.8566 0.0000 0.0000
# 5 0.0000 0.0000 0.0000 0.0000 15.5589 0.0000
# 6 0.0000 0.0000 0.0000 0.0000 0.0000 18.8510
#
#
#
# Elastic Compliance Matrix: (Units=1/GPa)
#
#
# Indices 1 2 3 4 5 6 
#
# 1 0.017649 -0.001721 -0.001330 0.000000 0.000000 0.000000
# 2 -0.001721 0.010218 -0.003491 0.000000 0.000000 0.000000
# 3 -0.001330 -0.003491 0.011392 0.000000 0.000000 0.000000
# 4 0.000000 0.000000 0.000000 0.047946 0.000000 0.000000
# 5 0.000000 0.000000 0.000000 0.000000 0.064272 0.000000
# 6 0.000000 0.000000 0.000000 0.000000 0.000000 0.053048
#
#
# Mechanical properties :
#
#
# Convention : Reuss Voigt Hill
#
# Bulk Modulus (GPa) = 38.20319 43.67625 40.93972
# Shear Modulus (GPa) = 22.09158 25.09603 23.59381
#
# Velocity S-wave (km/s) = 3.52438 3.75640 3.64224
# Velocity P-wave (km/s) = 6.16781 6.58571 6.38019
#
# Compressibility (1/GPa) = 0.02617582
#
# Stress axis : x y z
#
# Youngs Moduli (GPa) = 56.66185 97.87118 87.78450
#
# Poissons Ratio (x) = 0.16839 0.11672
# Poissons Ratio (y) = 0.09749 0.30643
# Poissons Ratio (z) = 0.07534 0.34164
#
# Static dielectric constant tensor:
#      x y z
#    x 1.596950 0.000000 0.000000 
#    y 0.000000 1.655720 0.000000 
#    z 0.000000 0.000000 1.558750 
# 
# From -- ./inp_files/15875.got.cif
#   From: 2010.05.17/outbox.cif.g08.bks.cpg/sg24_8_cif.got.tgz:15875.got - 2010.06.04 00:33:39.
