data_PCOD9335601
_publ_section_title
;
Structure prediction by ZEFSAII (Michael W. Deem and Ramdas Pophale) SiO2 
 PCOD9335601
Probable space group: I 21 21 21
;
_chemical_formula_sum "Si O2"
_cell_formula_units_Z 40
_cell_length_a 11.719376
_cell_length_b 5.130344
_cell_length_c 31.826852
_cell_angle_alpha 90.000000
_cell_angle_beta 90.000000
_cell_angle_gamma 90.000000
_cell_volume 1913.571346
_symmetry_space_group_name_H-M "I 21 21 21"
_symmetry_group_IT_number 24
_symmetry_cell_setting 'orthorhombic'
loop_
_space_group_symop_operation_xyz
x,y,z
-x,1/2-y,z
x,-y,1/2-z
1/2-x,y,-z
1/2+x,1/2+y,1/2+z
1/2-x,-y,1/2+z
1/2+x,1/2-y,-z
-x,1/2+y,1/2-z
loop_
_atom_site_type_symbol
_atom_site_label
_atom_site_fract_x
_atom_site_fract_y
_atom_site_fract_z
Si Si1 0.919319 0.497983 0.702192
Si Si2 0.420232 0.494006 0.414438
Si Si3 0.242620 0.854591 0.044759
Si Si4 0.000000 0.250000 0.128766
Si Si5 0.753207 0.328733 0.866982
Si Si6 0.500000 0.750000 0.930096
O O1 0.873654 0.500000 0.750000
O O2 0.820606 0.510287 0.667826
O O3 0.000000 0.750000 0.696999
O O4 0.000000 0.250000 0.697727
O O5 0.500000 0.750000 0.424003
O O6 0.338277 0.370173 0.450182
O O7 0.332209 0.581141 0.378265
O O8 0.500000 0.250000 0.402498
O O9 0.115800 0.741082 0.044392
O O10 0.249009 0.025908 0.087436
O O11 0.250000 0.998642 0.000000
O O12 0.874112 0.263579 0.149067
O O13 0.003313 0.501320 0.099549
#
# Coordination Sequence:
#
# PCOD9335601 Si02
#       6
#     8   8   8   4   8   4
#     4  10  24  42  69 105 140 173 215 280 355 416
#     4  12  25  42  63  99 131 174 226 287 339 398
#     4  11  26  44  64  99 132 180 230 283 337 397
#     4  10  22  42  64  91 120 176 216 263 324 388
#     4  11  24  43  71  95 136 177 229 274 341 406
#     4  10  22  44  58  85 132 172 216 269 324 396
#
# _framework density 20.903323
#
# number of rings (size 3 to 8) (size 9 to 14) (size 15 to 20)
#    0.000    1.200    4.000    0.600    7.000    0.800 
#    1.800    0.000    0.000    8.400    0.000    0.000 
#    0.000    0.000    0.000    0.000    0.000    0.000 
#
# Total GULP energy -111623.915558 kJ/mol
# GULP energy per Si atom -5581.195778 kJ/mol
# Density = 2.085575 g / cm^3
# Si number density = 20.903323 Si / 1000 Ang^3
#
#
#
# Elastic Constant Matrix: (Units=GPa)
#
#
# Indices 1 2 3 4 5 6 
#
# 1 183.7760 47.7909 61.5531 0.0000 0.0000 0.0000
# 2 47.7909 130.1081 29.4792 0.0000 0.0000 0.0000
# 3 61.5531 29.4792 131.6266 0.0000 0.0000 0.0000
# 4 0.0000 0.0000 0.0000 24.8341 0.0000 0.0000
# 5 0.0000 0.0000 0.0000 0.0000 -40.6117 0.0000
# 6 0.0000 0.0000 0.0000 0.0000 0.0000 25.9997
#
#
#
# Elastic Compliance Matrix: (Units=1/GPa)
#
#
# Indices 1 2 3 4 5 6 
#
# 1 0.006867 -0.001891 -0.002788 0.000000 0.000000 0.000000
# 2 -0.001891 0.008617 -0.001046 0.000000 0.000000 0.000000
# 3 -0.002788 -0.001046 0.009135 0.000000 0.000000 0.000000
# 4 0.000000 0.000000 0.000000 0.040267 0.000000 0.000000
# 5 0.000000 0.000000 0.000000 0.000000 -0.024623 0.000000
# 6 0.000000 0.000000 0.000000 0.000000 0.000000 0.038462
#
#
# Mechanical properties :
#
#
# Convention : Reuss Voigt Hill
#
# Bulk Modulus (GPa) = 75.92514 80.35077 78.13796
# Shear Modulus (GPa) = 52.87455 22.49028 37.68241
#
# Velocity S-wave (km/s) = 5.03485 3.28368 4.25043
# Velocity P-wave (km/s) = 8.37858 7.27320 7.84538
#
# Compressibility (1/GPa) = 0.01317087
#
# Stress axis : x y z
#
# Youngs Moduli (GPa) = 145.62885 116.04506 109.46797
#
# Poissons Ratio (x) = 0.21940 0.30516
# Poissons Ratio (y) = 0.27533 0.11448
# Poissons Ratio (z) = 0.40597 0.12136
#
# Static dielectric constant tensor:
#      x y z
#    x 1.818610 0.000000 0.000000 
#    y 0.000000 1.794260 0.000000 
#    z 0.000000 0.000000 1.764140 
# 
# From -- ./inp_files/38528.got.cif
#   From: 2010.05.17/outbox.cif.g08.bks.cpg/sg24_20_cif.got.tgz:38528.got - 2010.06.04 00:33:39.
