data_PCOD9335036
_publ_section_title
;
Structure prediction by ZEFSAII (Michael W. Deem and Ramdas Pophale) SiO2 
 PCOD9335036
Probable space group: I 21 21 21
;
_chemical_formula_sum "Si O2"
_cell_formula_units_Z 24
_cell_length_a 7.210051
_cell_length_b 5.307899
_cell_length_c 24.896440
_cell_angle_alpha 90.000000
_cell_angle_beta 90.000000
_cell_angle_gamma 90.000000
_cell_volume 952.792298
_symmetry_space_group_name_H-M "I 21 21 21"
_symmetry_group_IT_number 24
_symmetry_cell_setting 'orthorhombic'
loop_
_space_group_symop_operation_xyz
x,y,z
-x,1/2-y,z
x,-y,1/2-z
1/2-x,y,-z
1/2+x,1/2+y,1/2+z
1/2-x,-y,1/2+z
1/2+x,1/2-y,-z
-x,1/2+y,1/2-z
loop_
_atom_site_type_symbol
_atom_site_label
_atom_site_fract_x
_atom_site_fract_y
_atom_site_fract_z
Si Si1 0.700847 0.062998 0.100152
Si Si2 0.223798 0.747361 0.282503
Si Si3 0.283149 0.940570 0.060251
O O1 0.700083 0.193795 0.158222
O O2 0.798116 0.278873 0.065183
O O3 0.497562 0.999043 0.075962
O O4 0.787232 0.783044 0.099034
O O5 0.278461 0.500000 0.250000
O O6 0.000000 0.750000 0.287248
O O7 0.277850 0.000000 0.250000
O O8 0.250000 0.848108 0.000000
#
# Coordination Sequence:
#
# PCOD9335036 Si02
#       3
#     8   8   8
#     4  10  21  40  63  93 126 172 222 265 325 397
#     4  10  21  40  65  94 130 170 214 273 337 390
#     4  10  21  40  61  87 135 170 215 267 325 379
#
# _framework density 25.189122000000001
#
# number of rings (size 3 to 8) (size 9 to 14) (size 15 to 20)
#    0.000    2.000    0.000    3.000    0.000    0.000 
#   18.000   13.333    0.000    0.000    0.000    0.000 
#    0.000    0.000    0.000    0.000    0.000    0.000 
#
# Total GULP energy -66983.072393 kJ/mol
# GULP energy per Si atom -5581.922699 kJ/mol
# Density = 2.513179 g / cm^3
# Si number density = 25.189122 Si / 1000 Ang^3
#
#
#
# Elastic Constant Matrix: (Units=GPa)
#
#
# Indices 1 2 3 4 5 6 
#
# 1 138.0501 25.5442 27.8102 0.0000 0.0000 0.0000
# 2 25.5442 273.5371 57.1432 0.0000 0.0000 0.0000
# 3 27.8102 57.1432 165.2243 0.0000 0.0000 0.0000
# 4 0.0000 0.0000 0.0000 45.8297 0.0000 0.0000
# 5 0.0000 0.0000 0.0000 0.0000 -8.5459 0.0000
# 6 0.0000 0.0000 0.0000 0.0000 0.0000 -25.5257
#
#
#
# Elastic Compliance Matrix: (Units=1/GPa)
#
#
# Indices 1 2 3 4 5 6 
#
# 1 0.007555 -0.000474 -0.001108 0.000000 0.000000 0.000000
# 2 -0.000474 0.003970 -0.001293 0.000000 0.000000 0.000000
# 3 -0.001108 -0.001293 0.006686 0.000000 0.000000 0.000000
# 4 0.000000 0.000000 0.000000 0.021820 0.000000 0.000000
# 5 0.000000 0.000000 0.000000 0.000000 -0.117015 0.000000
# 6 0.000000 0.000000 0.000000 0.000000 0.000000 -0.039176
#
#
# Mechanical properties :
#
#
# Convention : Reuss Voigt Hill
#
# Bulk Modulus (GPa) = 80.25095 88.64520 84.44807
# Shear Modulus (GPa) = -47.05582 33.43921 -6.80830
#
# Velocity S-wave (km/s) = -4.32684 3.64748 -1.64583
# Velocity P-wave (km/s) = 2.63940 7.28059 5.47601
#
# Compressibility (1/GPa) = 0.01246091
#
# Stress axis : x y z
#
# Youngs Moduli (GPa) = 132.36965 251.87222 149.56387
#
# Poissons Ratio (x) = 0.11941 0.16566
# Poissons Ratio (y) = 0.06276 0.19343
# Poissons Ratio (z) = 0.14661 0.32575
#
# Static dielectric constant tensor:
#      x y z
#    x 2.421200 0.000000 0.000000 
#    y 0.000000 2.430960 0.000000 
#    z 0.000000 0.000000 2.146270 
# 
# From -- ./inp_files/1692.got.cif
#   From: 2010.05.17/outbox.cif.g08.bks.cpg/sg24_1_cif.got.tgz:1692.got - 2010.06.04 00:33:39.
