data_PCOD9335105
_publ_section_title
;
Structure prediction by ZEFSAII (Michael W. Deem and Ramdas Pophale) SiO2 
 PCOD9335105
Probable space group: I 21 21 21
;
_chemical_formula_sum "Si O2"
_cell_formula_units_Z 60
_cell_length_a 11.088420
_cell_length_b 8.972606
_cell_length_c 26.114450
_cell_angle_alpha 90.000000
_cell_angle_beta 90.000000
_cell_angle_gamma 90.000000
_cell_volume 2598.179482
_symmetry_space_group_name_H-M "I 21 21 21"
_symmetry_group_IT_number 24
_symmetry_cell_setting 'orthorhombic'
loop_
_space_group_symop_operation_xyz
x,y,z
-x,1/2-y,z
x,-y,1/2-z
1/2-x,y,-z
1/2+x,1/2+y,1/2+z
1/2-x,-y,1/2+z
1/2+x,1/2-y,-z
-x,1/2+y,1/2-z
loop_
_atom_site_type_symbol
_atom_site_label
_atom_site_fract_x
_atom_site_fract_y
_atom_site_fract_z
Si Si1 0.576543 0.585261 0.525651
Si Si2 0.989526 0.916937 0.663716
Si Si3 0.250000 0.644200 0.500000
Si Si4 0.231353 0.061841 0.194793
Si Si5 0.850804 0.971402 0.089410
Si Si6 0.032123 0.900770 0.928789
Si Si7 0.726310 0.089739 0.800401
Si Si8 0.199125 0.129754 0.402487
O O1 0.639620 0.742908 0.513173
O O2 0.472971 0.548638 0.568025
O O3 0.535726 0.525868 0.471113
O O4 0.677586 0.479058 0.549861
O O5 0.873215 0.914449 0.699702
O O6 0.000000 0.750000 0.640472
O O7 0.121834 0.945173 0.687536
O O8 0.962271 0.037172 0.620059
O O9 0.250846 0.535522 0.549336
O O10 0.194892 0.235349 0.194698
O O11 0.200011 0.000000 0.250000
O O12 0.173206 0.961817 0.149717
O O13 0.858058 0.791828 0.089257
O O14 0.820814 0.017439 0.147137
O O15 0.157858 0.852775 0.903331
O O16 0.000000 0.750000 0.957523
O O17 0.684216 0.000000 0.750000
#
# Coordination Sequence:
#
# PCOD9335105 Si02
#       8
#     8   8   4   8   8   8   8   8
#     4  12  26  47  68  97 144 187 233 290 368 439
#     4   9  21  36  61  97 139 181 230 288 365 430
#     4  12  28  46  70 102 148 186 236 302 372 442
#     4  10  21  40  68  97 135 191 239 306 374 430
#     4  12  28  43  71 107 137 190 245 297 364 442
#     4  11  22  37  65  99 136 185 229 284 350 430
#     4  11  23  43  68 102 147 186 246 310 364 438
#     4  11  23  45  68  98 145 184 244 293 360 438
#
# _framework density 23.093094000000001
#
# number of rings (size 3 to 8) (size 9 to 14) (size 15 to 20)
#    0.000    1.067    1.333    4.400    9.333    1.067 
#    0.000    1.333    0.000    1.600    0.000    0.000 
#    0.000    0.000    0.000    0.000    0.000    0.000 
#
# Total GULP energy -167440.825447 kJ/mol
# GULP energy per Si atom -5581.360848 kJ/mol
# Density = 2.304053 g / cm^3
# Si number density = 23.093094 Si / 1000 Ang^3
#
#
#
# Elastic Constant Matrix: (Units=GPa)
#
#
# Indices 1 2 3 4 5 6 
#
# 1 46.4307 24.3773 15.3284 0.0000 0.0000 0.0000
# 2 24.3773 174.4716 83.7466 0.0000 0.0000 0.0000
# 3 15.3284 83.7466 161.1662 0.0000 0.0000 0.0000
# 4 0.0000 0.0000 0.0000 45.8171 0.0000 0.0000
# 5 0.0000 0.0000 0.0000 0.0000 18.1029 0.0000
# 6 0.0000 0.0000 0.0000 0.0000 0.0000 1571.9014
#
#
#
# Elastic Compliance Matrix: (Units=1/GPa)
#
#
# Indices 1 2 3 4 5 6 
#
# 1 0.023301 -0.002920 -0.000699 0.000000 0.000000 0.000000
# 2 -0.002920 0.008002 -0.003880 0.000000 0.000000 0.000000
# 3 -0.000699 -0.003880 0.008288 0.000000 0.000000 0.000000
# 4 0.000000 0.000000 0.000000 0.021826 0.000000 0.000000
# 5 0.000000 0.000000 0.000000 0.000000 0.055240 0.000000
# 6 0.000000 0.000000 0.000000 0.000000 0.000000 0.000636
#
#
# Mechanical properties :
#
#
# Convention : Reuss Voigt Hill
#
# Bulk Modulus (GPa) = 40.66306 69.88588 55.27447
# Shear Modulus (GPa) = 35.58989 344.40537 189.99763
#
# Velocity S-wave (km/s) = 3.93001 12.22545 9.08038
# Velocity P-wave (km/s) = 6.18383 15.15290 11.57260
#
# Compressibility (1/GPa) = 0.02459234
#
# Stress axis : x y z
#
# Youngs Moduli (GPa) = 42.91589 124.96508 120.66196
#
# Poissons Ratio (x) = 0.36494 0.08431
# Poissons Ratio (y) = 0.12533 0.46822
# Poissons Ratio (z) = 0.02999 0.48492
#
# Static dielectric constant tensor:
#      x y z
#    x 2.041640 0.000000 0.000000 
#    y 0.000000 1.888820 0.000000 
#    z 0.000000 0.000000 0.909260 
# 
# From -- ./inp_files/37236.got.cif
#   From: 2010.05.17/outbox.cif.g08.bks.cpg/sg24_19_cif.got.tgz:37236.got - 2010.06.04 00:33:39.
