data_PCOD9335395
_publ_section_title
;
Structure prediction by ZEFSAII (Michael W. Deem and Ramdas Pophale) SiO2 
 PCOD9335395
Probable space group: I 21 21 21
;
_chemical_formula_sum "Si O2"
_cell_formula_units_Z 36
_cell_length_a 5.336121
_cell_length_b 14.542921
_cell_length_c 23.949323
_cell_angle_alpha 90.000000
_cell_angle_beta 90.000000
_cell_angle_gamma 90.000000
_cell_volume 1858.534191
_symmetry_space_group_name_H-M "I 21 21 21"
_symmetry_group_IT_number 24
_symmetry_cell_setting 'orthorhombic'
loop_
_space_group_symop_operation_xyz
x,y,z
-x,1/2-y,z
x,-y,1/2-z
1/2-x,y,-z
1/2+x,1/2+y,1/2+z
1/2-x,-y,1/2+z
1/2+x,1/2-y,-z
-x,1/2+y,1/2-z
loop_
_atom_site_type_symbol
_atom_site_label
_atom_site_fract_x
_atom_site_fract_y
_atom_site_fract_z
Si Si1 0.173582 0.110973 0.852814
Si Si2 0.750000 0.309316 0.500000
Si Si3 0.662168 0.039692 0.810841
Si Si4 0.064380 0.035053 0.417319
Si Si5 0.000000 0.750000 0.573116
Si Si6 0.750000 0.093645 0.000000
O O1 0.205248 0.204344 0.886909
O O2 0.402501 0.096391 0.810869
O O3 0.202826 0.025191 0.895452
O O4 0.899303 0.101166 0.827481
O O5 0.500000 0.250000 0.485649
O O6 0.840821 0.374289 0.448532
O O7 0.607374 0.964911 0.860798
O O8 0.707568 0.000000 0.750000
O O9 0.918896 0.971694 0.461759
O O10 0.906080 0.834934 0.537258
#
# Coordination Sequence:
#
# PCOD9335395 Si02
#       6
#     8   4   8   8   4   4
#     4  10  22  38  64  93 129 170 208 257 305 396
#     4  12  27  41  70  94 126 164 222 293 335 378
#     4  10  22  42  67  86 120 176 224 254 312 380
#     4  10  24  42  64  95 128 171 217 251 344 386
#     4  12  20  34  60 104 144 162 208 242 326 382
#     4  12  21  37  64 104 144 182 190 263 317 432
#
# _framework density 19.370104999999999
#
# number of rings (size 3 to 8) (size 9 to 14) (size 15 to 20)
#    1.333    0.000    2.222    4.000    3.111    2.667 
#    0.000    0.000    7.333    0.000    0.000    0.000 
#    0.000    0.000    0.000    0.000    0.000    0.000 
#
# Total GULP energy -100251.313110 kJ/mol
# GULP energy per Si atom -5569.517395 kJ/mol
# Density = 1.932602 g / cm^3
# Si number density = 19.370105 Si / 1000 Ang^3
#
#
#
# Elastic Constant Matrix: (Units=GPa)
#
#
# Indices 1 2 3 4 5 6 
#
# 1 112.8226 41.3310 35.3231 0.0000 0.0000 0.0000
# 2 41.3310 80.8906 47.7220 0.0000 0.0000 0.0000
# 3 35.3231 47.7220 111.1237 0.0000 0.0000 0.0000
# 4 0.0000 0.0000 0.0000 -18.4087 0.0000 0.0000
# 5 0.0000 0.0000 0.0000 0.0000 25.4622 0.0000
# 6 0.0000 0.0000 0.0000 0.0000 0.0000 2.2230
#
#
#
# Elastic Compliance Matrix: (Units=1/GPa)
#
#
# Indices 1 2 3 4 5 6 
#
# 1 0.011079 -0.004799 -0.001461 0.000000 0.000000 0.000000
# 2 -0.004799 0.018636 -0.006478 0.000000 0.000000 0.000000
# 3 -0.001461 -0.006478 0.012245 0.000000 0.000000 0.000000
# 4 0.000000 0.000000 0.000000 -0.054322 0.000000 0.000000
# 5 0.000000 0.000000 0.000000 0.000000 0.039274 0.000000
# 6 0.000000 0.000000 0.000000 0.000000 0.000000 0.449834
#
#
# Mechanical properties :
#
#
# Convention : Reuss Voigt Hill
#
# Bulk Modulus (GPa) = 60.66081 61.50988 61.08534
# Shear Modulus (GPa) = 9.84804 13.88605 11.86704
#
# Velocity S-wave (km/s) = 2.25725 2.68037 2.47786
# Velocity P-wave (km/s) = 6.17886 6.43453 6.30799
#
# Compressibility (1/GPa) = 0.01648511
#
# Stress axis : x y z
#
# Youngs Moduli (GPa) = 90.26222 53.65961 81.66483
#
# Poissons Ratio (x) = 0.25751 0.11929
# Poissons Ratio (y) = 0.43316 0.52900
# Poissons Ratio (z) = 0.13185 0.34759
#
# Static dielectric constant tensor:
#      x y z
#    x 1.715050 0.000000 0.000000 
#    y 0.000000 1.697930 0.000000 
#    z 0.000000 0.000000 1.711770 
# 
# From -- ./inp_files/34603.got.cif
#   From: 2010.05.17/outbox.cif.g08.bks.cpg/sg24_18_cif.got.tgz:34603.got - 2010.06.04 00:33:39.
