data_PCOD9335109
_publ_section_title
;
Structure prediction by ZEFSAII (Michael W. Deem and Ramdas Pophale) SiO2 
 PCOD9335109
Probable space group: I 21 21 21
;
_chemical_formula_sum "Si O2"
_cell_formula_units_Z 36
_cell_length_a 5.103267
_cell_length_b 31.165077
_cell_length_c 10.962644
_cell_angle_alpha 90.000000
_cell_angle_beta 90.000000
_cell_angle_gamma 90.000000
_cell_volume 1743.539562
_symmetry_space_group_name_H-M "I 21 21 21"
_symmetry_group_IT_number 24
_symmetry_cell_setting 'orthorhombic'
loop_
_space_group_symop_operation_xyz
x,y,z
-x,1/2-y,z
x,-y,1/2-z
1/2-x,y,-z
1/2+x,1/2+y,1/2+z
1/2-x,-y,1/2+z
1/2+x,1/2-y,-z
-x,1/2+y,1/2-z
loop_
_atom_site_type_symbol
_atom_site_label
_atom_site_fract_x
_atom_site_fract_y
_atom_site_fract_z
Si Si1 0.644505 0.626955 0.736686
Si Si2 0.149736 0.593511 0.866582
Si Si3 0.250000 0.927457 0.500000
Si Si4 0.750906 0.279242 0.145494
Si Si5 0.583478 0.507812 0.114953
O O1 0.351380 0.617763 0.779920
O O2 0.662605 0.602051 0.609377
O O3 0.721166 0.676211 0.715887
O O4 0.856079 0.606753 0.829713
O O5 0.147622 0.541370 0.859225
O O6 0.250000 0.605023 0.000000
O O7 0.038543 0.960542 0.559086
O O8 0.500000 0.250000 0.173548
O O9 0.000000 0.250000 0.171325
O O10 0.750000 0.288870 0.000000
O O11 0.709454 0.500000 0.250000
O O12 0.750000 0.527217 0.000000
#
# Coordination Sequence:
#
# PCOD9335109 Si02
#       5
#     8   8   4   8   8
#     4  12  24  46  69 101 137 172 227 286 342 411
#     4  12  26  42  68  93 135 188 231 274 329 403
#     4  10  24  42  68 100 136 180 230 284 342 394
#     4  10  21  40  70 103 135 167 211 280 361 422
#     4  10  21  42  63  94 136 185 237 286 336 393
#
# _framework density 20.647652000000001
#
# number of rings (size 3 to 8) (size 9 to 14) (size 15 to 20)
#    0.667    0.444    3.333    3.333    0.000    2.667 
#    0.000    0.000    0.000   13.333    0.000    0.000 
#    0.000    0.000    0.000    0.000    0.000    0.000 
#
# Total GULP energy -100406.713914 kJ/mol
# GULP energy per Si atom -5578.150773 kJ/mol
# Density = 2.060066 g / cm^3
# Si number density = 20.647652 Si / 1000 Ang^3
#
#
#
# Elastic Constant Matrix: (Units=GPa)
#
#
# Indices 1 2 3 4 5 6 
#
# 1 77.2909 25.4701 8.8354 0.0000 0.0000 0.0000
# 2 25.4701 139.9395 36.8054 0.0000 0.0000 0.0000
# 3 8.8354 36.8054 105.7347 0.0000 0.0000 0.0001
# 4 0.0000 0.0000 0.0000 20.2286 0.0000 0.0000
# 5 0.0000 0.0000 0.0000 0.0000 33.3718 0.0000
# 6 0.0000 0.0000 0.0001 0.0000 0.0000 271.6284
#
#
#
# Elastic Compliance Matrix: (Units=1/GPa)
#
#
# Indices 1 2 3 4 5 6 
#
# 1 0.013773 -0.002426 -0.000306 0.000000 0.000000 0.000000
# 2 -0.002426 0.008293 -0.002684 0.000000 0.000000 0.000000
# 3 -0.000306 -0.002684 0.010418 0.000000 0.000000 0.000000
# 4 0.000000 0.000000 0.000000 0.049435 0.000000 0.000000
# 5 0.000000 0.000000 0.000000 0.000000 0.029965 0.000000
# 6 0.000000 0.000000 0.000000 0.000000 0.000000 0.003682
#
#
# Mechanical properties :
#
#
# Convention : Reuss Voigt Hill
#
# Bulk Modulus (GPa) = 46.18855 51.68741 48.93798
# Shear Modulus (GPa) = 37.42077 81.83605 59.62841
#
# Velocity S-wave (km/s) = 4.26179 6.30243 5.37975
# Velocity P-wave (km/s) = 6.82902 8.83449 7.89569
#
# Compressibility (1/GPa) = 0.02165039
#
# Stress axis : x y z
#
# Youngs Moduli (GPa) = 72.60762 120.57657 95.99169
#
# Poissons Ratio (x) = 0.29254 0.02941
# Poissons Ratio (y) = 0.17616 0.25766
# Poissons Ratio (z) = 0.02224 0.32365
#
# Static dielectric constant tensor:
#      x y z
#    x 1.769260 0.000000 0.000000 
#    y 0.000000 1.689850 0.000000 
#    z 0.000000 0.000000 1.549720 
# 
# From -- ./inp_files/17718.got.cif
#   From: 2010.05.17/outbox.cif.g08.bks.cpg/sg24_9_cif.got.tgz:17718.got - 2010.06.04 00:33:39.
