data_PCOD9335433
_publ_section_title
;
Structure prediction by ZEFSAII (Michael W. Deem and Ramdas Pophale) SiO2 
 PCOD9335433
Probable space group: I 21 21 21
;
_chemical_formula_sum "Si O2"
_cell_formula_units_Z 56
_cell_length_a 19.865426
_cell_length_b 15.714844
_cell_length_c 8.447873
_cell_angle_alpha 90.000000
_cell_angle_beta 90.000000
_cell_angle_gamma 90.000000
_cell_volume 2637.274485
_symmetry_space_group_name_H-M "I 21 21 21"
_symmetry_group_IT_number 24
_symmetry_cell_setting 'orthorhombic'
loop_
_space_group_symop_operation_xyz
x,y,z
-x,1/2-y,z
x,-y,1/2-z
1/2-x,y,-z
1/2+x,1/2+y,1/2+z
1/2-x,-y,1/2+z
1/2+x,1/2-y,-z
-x,1/2+y,1/2-z
loop_
_atom_site_type_symbol
_atom_site_label
_atom_site_fract_x
_atom_site_fract_y
_atom_site_fract_z
Si Si1 0.365526 0.085573 0.600849
Si Si2 0.930538 0.718153 0.637088
Si Si3 0.763415 0.912987 0.313476
Si Si4 0.318415 0.277885 0.598414
Si Si5 0.173258 0.088821 0.030589
Si Si6 0.024040 0.073358 0.632646
Si Si7 0.620712 0.874983 0.166937
O O1 0.340786 0.181265 0.575643
O O2 0.349985 0.081351 0.787194
O O3 0.441930 0.072574 0.539499
O O4 0.329533 0.012940 0.492719
O O5 0.878938 0.654950 0.548030
O O6 0.956028 0.662368 0.785943
O O7 0.894446 0.801794 0.703426
O O8 0.000000 0.750000 0.552631
O O9 0.750000 0.916435 0.500000
O O10 0.802548 0.826151 0.263062
O O11 0.691959 0.911831 0.220767
O O12 0.798084 0.000000 0.250000
O O13 0.250000 0.284808 0.500000
O O14 0.371661 0.332904 0.503960
O O15 0.250000 0.117386 0.000000
O O16 0.943970 0.066798 0.641763
O O17 0.051034 0.000000 0.750000
#
# Coordination Sequence:
#
# PCOD9335433 Si02
#       7
#     8   8   8   8   8   8   8
#     4  11  24  41  64 100 135 181 229 287 359 412
#     4  10  22  41  63  95 132 181 233 282 348 419
#     4  11  24  43  68  98 142 178 228 296 359 423
#     4  10  22  39  64  95 135 173 229 291 349 420
#     4  11  26  42  66  99 144 179 232 296 357 423
#     4  11  21  41  69  89 134 185 232 286 341 425
#     4  10  22  39  67 100 126 182 238 281 349 424
#
# _framework density 21.234044000000001
#
# number of rings (size 3 to 8) (size 9 to 14) (size 15 to 20)
#    0.000    1.429    2.857    2.143    6.000    2.286 
#    2.571    0.000    6.286    0.000    0.000    0.000 
#    0.000    0.000    0.000    0.000    0.000    0.000 
#
# Total GULP energy -155898.220705 kJ/mol
# GULP energy per Si atom -5567.793597 kJ/mol
# Density = 2.118571 g / cm^3
# Si number density = 21.234044 Si / 1000 Ang^3
#
#
#
# Elastic Constant Matrix: (Units=GPa)
#
#
# Indices 1 2 3 4 5 6 
#
# 1 105.2541 37.1900 30.3966 0.0000 0.0000 0.0000
# 2 37.1900 101.9123 21.3576 0.0000 0.0000 0.0000
# 3 30.3966 21.3576 86.2557 0.0000 0.0000 0.0000
# 4 0.0000 0.0000 0.0000 19.7309 0.0000 0.0000
# 5 0.0000 0.0000 0.0000 0.0000 6.3226 0.0000
# 6 0.0000 0.0000 0.0000 0.0000 0.0000 28.4021
#
#
#
# Elastic Compliance Matrix: (Units=1/GPa)
#
#
# Indices 1 2 3 4 5 6 
#
# 1 0.011705 -0.003593 -0.003235 0.000000 0.000000 0.000000
# 2 -0.003593 0.011453 -0.001569 0.000000 0.000000 0.000000
# 3 -0.003235 -0.001569 0.013122 0.000000 0.000000 0.000000
# 4 0.000000 0.000000 0.000000 0.050682 0.000000 0.000000
# 5 0.000000 0.000000 0.000000 0.000000 0.158164 0.000000
# 6 0.000000 0.000000 0.000000 0.000000 0.000000 0.035209
#
#
# Mechanical properties :
#
#
# Convention : Reuss Voigt Hill
#
# Bulk Modulus (GPa) = 51.32486 52.36782 51.84634
# Shear Modulus (GPa) = 16.46774 24.52297 20.49535
#
# Velocity S-wave (km/s) = 2.78786 3.40205 3.11016
# Velocity P-wave (km/s) = 5.88102 6.33622 6.11286
#
# Compressibility (1/GPa) = 0.01948373
#
# Stress axis : x y z
#
# Youngs Moduli (GPa) = 85.43553 87.31669 76.20755
#
# Poissons Ratio (x) = 0.31376 0.24653
# Poissons Ratio (y) = 0.30700 0.11960
# Poissons Ratio (z) = 0.27638 0.13704
#
# Static dielectric constant tensor:
#      x y z
#    x 1.827320 0.000000 0.000000 
#    y 0.000000 2.390400 0.000000 
#    z 0.000000 0.000000 1.943120 
# 
# From -- ./inp_files/15266.got.cif
#   From: 2010.05.17/outbox.cif.g08.bks.cpg/sg24_8_cif.got.tgz:15266.got - 2010.06.04 00:33:39.
