data_PCOD9335690
_publ_section_title
;
Structure prediction by ZEFSAII (Michael W. Deem and Ramdas Pophale) SiO2 
 PCOD9335690
Probable space group: I 21 21 21
;
_chemical_formula_sum "Si O2"
_cell_formula_units_Z 40
_cell_length_a 8.304435
_cell_length_b 16.103501
_cell_length_c 13.959360
_cell_angle_alpha 90.000000
_cell_angle_beta 90.000000
_cell_angle_gamma 90.000000
_cell_volume 1866.791876
_symmetry_space_group_name_H-M "I 21 21 21"
_symmetry_group_IT_number 24
_symmetry_cell_setting 'orthorhombic'
loop_
_space_group_symop_operation_xyz
x,y,z
-x,1/2-y,z
x,-y,1/2-z
1/2-x,y,-z
1/2+x,1/2+y,1/2+z
1/2-x,-y,1/2+z
1/2+x,1/2-y,-z
-x,1/2+y,1/2-z
loop_
_atom_site_type_symbol
_atom_site_label
_atom_site_fract_x
_atom_site_fract_y
_atom_site_fract_z
Si Si1 0.389246 0.925412 0.421032
Si Si2 0.420163 0.405097 0.447767
Si Si3 0.763864 0.209231 0.705616
Si Si4 0.000000 0.750000 0.625469
Si Si5 0.929228 0.640570 0.138657
Si Si6 0.776684 0.500000 0.250000
O O1 0.250000 0.934685 0.500000
O O2 0.464339 0.834132 0.432327
O O3 0.322219 0.934192 0.312691
O O4 0.505381 0.005064 0.427675
O O5 0.250000 0.417510 0.500000
O O6 0.383935 0.347855 0.356446
O O7 0.527287 0.359166 0.527285
O O8 0.588151 0.164872 0.700461
O O9 0.715940 0.296245 0.656902
O O10 0.847937 0.227705 0.806155
O O11 0.879155 0.550103 0.172898
#
# Coordination Sequence:
#
# PCOD9335690 Si02
#       6
#     8   8   8   4   8   4
#     4  12  26  47  70 100 135 184 231 280 339 406
#     4  10  23  42  69 104 138 174 222 285 344 406
#     4  10  23  42  66 105 137 175 221 285 345 407
#     4  12  26  46  68  98 136 184 228 278 336 406
#     4  10  22  43  69 101 139 178 224 277 349 403
#     4  12  22  46  74  94 136 182 228 286 334 412
#
# _framework density 21.427133000000001
#
# number of rings (size 3 to 8) (size 9 to 14) (size 15 to 20)
#    0.000    1.200    4.000    1.200    0.000    8.800 
#    7.200    0.000    0.000    0.000    0.000    0.000 
#    0.000    0.000    0.000    0.000    0.000    0.000 
#
# Total GULP energy -111772.748707 kJ/mol
# GULP energy per Si atom -5588.637435 kJ/mol
# Density = 2.137836 g / cm^3
# Si number density = 21.427133 Si / 1000 Ang^3
#
#
#
# Elastic Constant Matrix: (Units=GPa)
#
#
# Indices 1 2 3 4 5 6 
#
# 1 60.0302 35.9509 16.0534 0.0000 0.0000 0.0000
# 2 35.9509 137.9091 18.1974 0.0000 0.0000 0.0000
# 3 16.0534 18.1974 45.3475 0.0000 0.0000 0.0000
# 4 0.0000 0.0000 0.0000 -12.4848 0.0000 0.0000
# 5 0.0000 0.0000 0.0000 0.0000 18.3993 0.0000
# 6 0.0000 0.0000 0.0000 0.0000 0.0000 43.7145
#
#
#
# Elastic Compliance Matrix: (Units=1/GPa)
#
#
# Indices 1 2 3 4 5 6 
#
# 1 0.020973 -0.004739 -0.005523 0.000000 0.000000 0.000000
# 2 -0.004739 0.008727 -0.001825 0.000000 0.000000 0.000000
# 3 -0.005523 -0.001825 0.024739 0.000000 0.000000 0.000000
# 4 0.000000 0.000000 0.000000 -0.080098 0.000000 0.000000
# 5 0.000000 0.000000 0.000000 0.000000 0.054350 0.000000
# 6 0.000000 0.000000 0.000000 0.000000 0.000000 0.022876
#
#
# Mechanical properties :
#
#
# Convention : Reuss Voigt Hill
#
# Bulk Modulus (GPa) = 33.03927 42.63225 37.83576
# Shear Modulus (GPa) = 58.25508 21.46481 39.85995
#
# Velocity S-wave (km/s) = 5.21982 3.16849 4.31775
# Velocity P-wave (km/s) = 7.19594 5.77281 6.52330
#
# Compressibility (1/GPa) = 0.03026701
#
# Stress axis : x y z
#
# Youngs Moduli (GPa) = 47.67999 114.58425 40.42144
#
# Poissons Ratio (x) = 0.54297 0.22325
# Poissons Ratio (y) = 0.22594 0.07375
# Poissons Ratio (z) = 0.26334 0.20907
#
# Static dielectric constant tensor:
#      x y z
#    x 1.829540 0.000000 0.000000 
#    y 0.000000 1.801470 0.000000 
#    z 0.000000 0.000000 1.778000 
# 
# From -- ./inp_files/12356.got.cif
#   From: 2010.05.17/outbox.cif.g08.bks.cpg/sg24_7_cif.got.tgz:12356.got - 2010.06.04 00:33:39.
