data_PCOD9335889
_publ_section_title
;
Structure prediction by ZEFSAII (Michael W. Deem and Ramdas Pophale) SiO2 
 PCOD9335889
Probable space group: I 21 21 21
;
_chemical_formula_sum "Si O2"
_cell_formula_units_Z 40
_cell_length_a 15.474166
_cell_length_b 5.358109
_cell_length_c 19.117394
_cell_angle_alpha 90.000000
_cell_angle_beta 90.000000
_cell_angle_gamma 90.000000
_cell_volume 1585.066497
_symmetry_space_group_name_H-M "I 21 21 21"
_symmetry_group_IT_number 24
_symmetry_cell_setting 'orthorhombic'
loop_
_space_group_symop_operation_xyz
x,y,z
-x,1/2-y,z
x,-y,1/2-z
1/2-x,y,-z
1/2+x,1/2+y,1/2+z
1/2-x,-y,1/2+z
1/2+x,1/2-y,-z
-x,1/2+y,1/2-z
loop_
_atom_site_type_symbol
_atom_site_label
_atom_site_fract_x
_atom_site_fract_y
_atom_site_fract_z
Si Si1 0.722924 0.311494 0.686458
Si Si2 0.666729 0.293954 0.915931
Si Si3 0.091293 0.798515 0.851475
Si Si4 0.141179 0.683677 0.575973
Si Si5 0.050684 0.477990 0.326794
O O1 0.708298 0.500000 0.750000
O O2 0.703944 0.445880 0.612120
O O3 0.822774 0.239030 0.692352
O O4 0.646294 0.121522 0.689713
O O5 0.756371 0.137206 0.908663
O O6 0.583621 0.219391 0.869629
O O7 0.638752 0.272772 0.995844
O O8 0.094117 0.579860 0.910818
O O9 0.000000 0.750000 0.814760
O O10 0.104536 0.083150 0.878628
O O11 0.007517 0.500000 0.250000
O O12 0.000000 0.250000 0.364348
#
# Coordination Sequence:
#
# PCOD9335889 Si02
#       5
#     8   8   8   8   8
#     4  11  23  45  69  96 136 185 227 290 348 414
#     4  10  23  41  68  97 132 184 229 280 346 416
#     4  11  24  45  69 104 138 180 228 289 349 413
#     4  10  23  43  71 100 139 179 229 282 346 416
#     4  12  25  42  65  96 138 177 235 287 350 413
#
# _framework density 25.235534000000001
#
# number of rings (size 3 to 8) (size 9 to 14) (size 15 to 20)
#    0.000    1.200    4.000    1.200    2.800    2.400 
#    3.600    5.000    0.000    0.000    0.000    0.000 
#    0.000    0.000    0.000    0.000    0.000    0.000 
#
# Total GULP energy -111623.185297 kJ/mol
# GULP energy per Si atom -5581.159265 kJ/mol
# Density = 2.517810 g / cm^3
# Si number density = 25.235534 Si / 1000 Ang^3
#
#
#
# Elastic Constant Matrix: (Units=GPa)
#
#
# Indices 1 2 3 4 5 6 
#
# 1 150.5383 4.4344 -11.7676 0.0000 0.0000 0.0000
# 2 4.4344 97.4801 -2.2331 0.0000 0.0000 0.0000
# 3 -11.7676 -2.2331 31.2597 0.0000 0.0000 0.0000
# 4 0.0000 0.0000 0.0000 29.0162 0.0000 0.0000
# 5 0.0000 0.0000 0.0000 0.0000 19.2035 0.0000
# 6 0.0000 0.0000 0.0000 0.0000 0.0000 37.9584
#
#
#
# Elastic Compliance Matrix: (Units=1/GPa)
#
#
# Indices 1 2 3 4 5 6 
#
# 1 0.006850 -0.000253 0.002561 0.000000 0.000000 0.000000
# 2 -0.000253 0.010285 0.000639 0.000000 0.000000 0.000000
# 3 0.002561 0.000639 0.033000 0.000000 0.000000 0.000000
# 4 0.000000 0.000000 0.000000 0.034464 0.000000 0.000000
# 5 0.000000 0.000000 0.000000 0.000000 0.052074 0.000000
# 6 0.000000 0.000000 0.000000 0.000000 0.000000 0.026345
#
#
# Mechanical properties :
#
#
# Convention : Reuss Voigt Hill
#
# Bulk Modulus (GPa) = 17.84779 28.90507 23.37643
# Shear Modulus (GPa) = 28.44161 36.49192 32.46677
#
# Velocity S-wave (km/s) = 3.36079 3.80683 3.59074
# Velocity P-wave (km/s) = 4.70614 5.54991 5.14535
#
# Compressibility (1/GPa) = 0.05602934
#
# Stress axis : x y z
#
# Youngs Moduli (GPa) = 145.97574 97.23219 30.30330
#
# Poissons Ratio (x) = 0.02460 -0.07760
# Poissons Ratio (y) = 0.03693 -0.01938
# Poissons Ratio (z) = -0.37381 -0.06218
#
# Static dielectric constant tensor:
#      x y z
#    x 2.040750 0.000000 0.000000 
#    y 0.000000 2.466760 0.000000 
#    z 0.000000 0.000000 1.989600 
# 
# From -- ./inp_files/35738.got.cif
#   From: 2010.05.17/outbox.cif.g08.bks.cpg/sg24_18_cif.got.tgz:35738.got - 2010.06.04 00:33:39.
