data_PCOD9335234
_publ_section_title
;
Structure prediction by ZEFSAII (Michael W. Deem and Ramdas Pophale) SiO2 
 PCOD9335234
Probable space group: I 21 21 21
;
_chemical_formula_sum "Si O2"
_cell_formula_units_Z 36
_cell_length_a 20.071924
_cell_length_b 4.913554
_cell_length_c 13.421190
_cell_angle_alpha 90.000000
_cell_angle_beta 90.000000
_cell_angle_gamma 90.000000
_cell_volume 1323.657918
_symmetry_space_group_name_H-M "I 21 21 21"
_symmetry_group_IT_number 24
_symmetry_cell_setting 'orthorhombic'
loop_
_space_group_symop_operation_xyz
x,y,z
-x,1/2-y,z
x,-y,1/2-z
1/2-x,y,-z
1/2+x,1/2+y,1/2+z
1/2-x,-y,1/2+z
1/2+x,1/2-y,-z
-x,1/2+y,1/2-z
loop_
_atom_site_type_symbol
_atom_site_label
_atom_site_fract_x
_atom_site_fract_y
_atom_site_fract_z
Si Si1 0.500000 0.750000 0.482492
Si Si2 0.820930 0.844764 0.025765
Si Si3 0.881685 0.162061 0.850517
Si Si4 0.067370 0.627553 0.151057
Si Si5 0.237784 0.760876 0.319744
O O1 0.440905 0.824619 0.405268
O O2 0.463565 0.549586 0.560682
O O3 0.875665 0.700175 0.095358
O O4 0.801468 0.124626 0.087178
O O5 0.750000 0.712411 0.000000
O O6 0.856853 0.928629 0.925830
O O7 0.814366 0.339376 0.843969
O O8 0.901368 0.000000 0.750000
O O9 0.099589 0.500000 0.250000
O O10 0.000000 0.750000 0.194390
O O11 0.247818 0.500000 0.250000
O O12 0.209967 0.000000 0.250000
#
# Coordination Sequence:
#
# PCOD9335234 Si02
#       5
#     4   8   8   8   8
#     4  10  22  44  64 102 136 188 250 300 382 458
#     4   9  20  43  67 101 144 191 250 308 378 455
#     4   9  20  42  64  92 139 182 245 303 370 449
#     4  11  22  43  71 104 145 194 246 313 392 465
#     4  10  21  43  68 103 139 184 238 305 375 441
#
# _framework density 27.197361999999998
#
# number of rings (size 3 to 8) (size 9 to 14) (size 15 to 20)
#    0.000    2.222    1.111    0.667    0.000    1.778 
#   44.000   10.000    0.000    0.000    0.000    0.000 
#    0.000    0.000    0.000    0.000    0.000    0.000 
#
# Total GULP energy -100493.422182 kJ/mol
# GULP energy per Si atom -5582.967899 kJ/mol
# Density = 2.713546 g / cm^3
# Si number density = 27.197362 Si / 1000 Ang^3
#
#
#
# Elastic Constant Matrix: (Units=GPa)
#
#
# Indices 1 2 3 4 5 6 
#
# 1 151.2646 11.7744 56.5183 0.0000 0.0000 0.0000
# 2 11.7744 76.3731 31.1707 0.0000 0.0000 0.0000
# 3 56.5183 31.1707 186.0802 0.0000 0.0000 0.0000
# 4 0.0000 0.0000 0.0000 35.7141 0.0000 0.0000
# 5 0.0000 0.0000 0.0000 0.0000 64.6189 0.0000
# 6 0.0000 0.0000 0.0000 0.0000 0.0000 11.3156
#
#
#
# Elastic Compliance Matrix: (Units=1/GPa)
#
#
# Indices 1 2 3 4 5 6 
#
# 1 0.007461 -0.000242 -0.002226 0.000000 0.000000 0.000000
# 2 -0.000242 0.014062 -0.002282 0.000000 0.000000 0.000000
# 3 -0.002226 -0.002282 0.006432 0.000000 0.000000 0.000000
# 4 0.000000 0.000000 0.000000 0.028000 0.000000 0.000000
# 5 0.000000 0.000000 0.000000 0.000000 0.015475 0.000000
# 6 0.000000 0.000000 0.000000 0.000000 0.000000 0.088373
#
#
# Mechanical properties :
#
#
# Convention : Reuss Voigt Hill
#
# Bulk Modulus (GPa) = 54.18147 68.07164 61.12656
# Shear Modulus (GPa) = 28.49706 43.28003 35.88855
#
# Velocity S-wave (km/s) = 3.24047 3.99348 3.63652
# Velocity P-wave (km/s) = 5.82801 6.80786 6.33690
#
# Compressibility (1/GPa) = 0.01845649
#
# Stress axis : x y z
#
# Youngs Moduli (GPa) = 134.02350 71.11195 155.46450
#
# Poissons Ratio (x) = 0.01720 0.34602
# Poissons Ratio (y) = 0.03242 0.35479
# Poissons Ratio (z) = 0.29830 0.16229
#
# Static dielectric constant tensor:
#      x y z
#    x 2.140270 0.000000 0.000000 
#    y 0.000000 2.324800 0.000000 
#    z 0.000000 0.000000 2.121900 
# 
# From -- ./inp_files/27343.got.cif
#   From: 2010.05.17/outbox.cif.g08.bks.cpg/sg24_14_cif.got.tgz:27343.got - 2010.06.04 00:33:39.
