data_PCOD9335776
_publ_section_title
;
Structure prediction by ZEFSAII (Michael W. Deem and Ramdas Pophale) SiO2 
 PCOD9335776
Probable space group: I 21 21 21
;
_chemical_formula_sum "Si O2"
_cell_formula_units_Z 36
_cell_length_a 10.042830
_cell_length_b 20.284240
_cell_length_c 8.508242
_cell_angle_alpha 90.000000
_cell_angle_beta 90.000000
_cell_angle_gamma 90.000000
_cell_volume 1733.223966
_symmetry_space_group_name_H-M "I 21 21 21"
_symmetry_group_IT_number 24
_symmetry_cell_setting 'orthorhombic'
loop_
_space_group_symop_operation_xyz
x,y,z
-x,1/2-y,z
x,-y,1/2-z
1/2-x,y,-z
1/2+x,1/2+y,1/2+z
1/2-x,-y,1/2+z
1/2+x,1/2-y,-z
-x,1/2+y,1/2-z
loop_
_atom_site_type_symbol
_atom_site_label
_atom_site_fract_x
_atom_site_fract_y
_atom_site_fract_z
Si Si1 0.945040 0.428663 0.833787
Si Si2 0.000000 0.750000 0.837359
Si Si3 0.692330 0.828557 0.324491
Si Si4 0.650708 0.425155 0.803590
Si Si5 0.460340 0.678165 0.852773
O O1 0.967665 0.500000 0.750000
O O2 0.802720 0.402349 0.771286
O O3 0.074800 0.382945 0.818372
O O4 0.905066 0.429558 0.018468
O O5 0.874561 0.759127 0.724821
O O6 0.016585 0.690527 0.962188
O O7 0.750000 0.827223 0.500000
O O8 0.811961 0.839107 0.201786
O O9 0.646817 0.500000 0.750000
O O10 0.555664 0.377737 0.708374
O O11 0.500000 0.750000 0.781289
#
# Coordination Sequence:
#
# PCOD9335776 Si02
#       5
#     8   4   8   8   8
#     4  10  24  43  68 104 140 190 246 295 365 433
#     4  10  28  44  70  98 142 186 238 298 374 454
#     4  12  25  45  68 105 140 189 241 306 374 438
#     4  10  22  45  71  99 145 194 240 299 362 442
#     4  10  25  46  68 106 140 184 243 300 376 441
#
# _framework density 20.77054
#
# number of rings (size 3 to 8) (size 9 to 14) (size 15 to 20)
#    0.667    0.889    2.222    0.667    7.778    0.889 
#    0.000    0.000    0.000    0.000    0.000    0.000 
#    0.000    0.000    0.000    0.000    0.000    0.000 
#
# Total GULP energy -100321.384648 kJ/mol
# GULP energy per Si atom -5573.410258 kJ/mol
# Density = 2.072327 g / cm^3
# Si number density = 20.770540 Si / 1000 Ang^3
#
#
#
# Elastic Constant Matrix: (Units=GPa)
#
#
# Indices 1 2 3 4 5 6 
#
# 1 209.5175 88.7589 72.1827 0.0000 0.0000 0.0000
# 2 88.7589 94.1948 50.0945 0.0001 0.0000 0.0000
# 3 72.1827 50.0945 102.2659 0.0003 -0.0002 0.0000
# 4 0.0000 0.0001 0.0003 27.4671 0.0000 0.0000
# 5 0.0000 0.0000 -0.0002 0.0000 38.5925 0.0000
# 6 0.0000 0.0000 0.0000 0.0000 0.0000 46.8018
#
#
#
# Elastic Compliance Matrix: (Units=1/GPa)
#
#
# Indices 1 2 3 4 5 6 
#
# 1 0.008501 -0.006517 -0.002808 0.000000 0.000000 0.000000
# 2 -0.006517 0.019353 -0.004880 0.000000 0.000000 0.000000
# 3 -0.002808 -0.004880 0.014151 0.000000 0.000000 0.000000
# 4 0.000000 0.000000 0.000000 0.036407 0.000000 0.000000
# 5 0.000000 0.000000 0.000000 0.000000 0.025912 0.000000
# 6 0.000000 0.000000 0.000000 0.000000 0.000000 0.021367
#
#
# Mechanical properties :
#
#
# Convention : Reuss Voigt Hill
#
# Bulk Modulus (GPa) = 73.55854 92.00560 82.78207
# Shear Modulus (GPa) = 31.51960 35.56842 33.54401
#
# Velocity S-wave (km/s) = 3.89976 4.14266 4.02304
# Velocity P-wave (km/s) = 7.46788 8.20211 7.84359
#
# Compressibility (1/GPa) = 0.01359461
#
# Stress axis : x y z
#
# Youngs Moduli (GPa) = 117.63027 51.67278 70.66801
#
# Poissons Ratio (x) = 0.33677 0.19843
# Poissons Ratio (y) = 0.76663 0.34484
# Poissons Ratio (z) = 0.33030 0.25215
#
# Static dielectric constant tensor:
#      x y z
#    x 1.738990 0.000000 0.000000 
#    y 0.000000 1.727080 0.000000 
#    z 0.000000 0.000000 1.784450 
# 
# From -- ./inp_files/9066.got.cif
#   From: 2010.05.17/outbox.cif.g08.bks.cpg/sg24_5_cif.got.tgz:9066.got - 2010.06.04 00:33:39.
