data_PCOD9335906
_publ_section_title
;
Structure prediction by ZEFSAII (Michael W. Deem and Ramdas Pophale) SiO2 
 PCOD9335906
Probable space group: I 21 21 21
;
_chemical_formula_sum "Si O2"
_cell_formula_units_Z 48
_cell_length_a 29.261036
_cell_length_b 9.614307
_cell_length_c 7.743838
_cell_angle_alpha 90.000000
_cell_angle_beta 90.000000
_cell_angle_gamma 90.000000
_cell_volume 2178.531998
_symmetry_space_group_name_H-M "I 21 21 21"
_symmetry_group_IT_number 24
_symmetry_cell_setting 'orthorhombic'
loop_
_space_group_symop_operation_xyz
x,y,z
-x,1/2-y,z
x,-y,1/2-z
1/2-x,y,-z
1/2+x,1/2+y,1/2+z
1/2-x,-y,1/2+z
1/2+x,1/2-y,-z
-x,1/2+y,1/2-z
loop_
_atom_site_type_symbol
_atom_site_label
_atom_site_fract_x
_atom_site_fract_y
_atom_site_fract_z
Si Si1 0.884673 0.039700 0.548413
Si Si2 0.985569 0.088356 0.576605
Si Si3 0.850780 0.759278 0.407626
Si Si4 0.345057 0.177663 0.508611
Si Si5 0.079772 0.979386 0.453462
Si Si6 0.250000 0.214518 0.000000
Si Si7 0.782668 0.500000 0.750000
O O1 0.871949 0.911286 0.426282
O O2 0.886173 0.000000 0.750000
O O3 0.935415 0.088709 0.491349
O O4 0.847576 0.162773 0.545274
O O5 0.000000 0.250000 0.599440
O O6 0.979643 0.000000 0.750000
O O7 0.026560 0.999403 0.490994
O O8 0.888705 0.655812 0.494621
O O9 0.800708 0.778078 0.494074
O O10 0.842450 0.694443 0.216850
O O11 0.310641 0.077434 0.404238
O O12 0.393589 0.107677 0.461296
O O13 0.083521 0.000000 0.250000
O O14 0.247669 0.117567 0.833565
#
# Coordination Sequence:
#
# PCOD9335906 Si02
#       7
#     8   8   8   8   8   4   4
#     4  11  25  44  67 101 139 184 229 286 354 424
#     4  11  25  41  67 101 136 178 232 280 343 421
#     4  11  25  45  68  99 139 180 234 291 356 421
#     4  11  23  44  70 100 136 183 226 294 352 414
#     4  10  23  42  66  95 132 176 226 280 342 415
#     4  12  24  42  68 104 134 180 230 292 342 422
#     4  12  24  40  74 104 138 178 244 292 352 426
#
# _framework density 22.033185
#
# number of rings (size 3 to 8) (size 9 to 14) (size 15 to 20)
#    0.000    1.000    3.333    2.500    7.000    1.333 
#    0.000    5.833    0.000    0.000    0.000    0.000 
#    0.000    0.000    0.000    0.000    0.000    0.000 
#
# Total GULP energy -133678.040965 kJ/mol
# GULP energy per Si atom -5569.918374 kJ/mol
# Density = 2.198304 g / cm^3
# Si number density = 22.033185 Si / 1000 Ang^3
#
#
#
# Elastic Constant Matrix: (Units=GPa)
#
#
# Indices 1 2 3 4 5 6 
#
# 1 122.6071 58.3862 15.3226 0.0000 0.0000 0.0000
# 2 58.3862 139.3239 19.1272 0.0000 0.0000 0.0000
# 3 15.3226 19.1272 54.0216 0.0000 0.0000 0.0000
# 4 0.0000 0.0000 0.0000 30.5889 0.0000 0.0000
# 5 0.0000 0.0000 0.0000 0.0000 170.4707 0.0000
# 6 0.0000 0.0000 0.0000 0.0000 0.0000 -18.7248
#
#
#
# Elastic Compliance Matrix: (Units=1/GPa)
#
#
# Indices 1 2 3 4 5 6 
#
# 1 0.010299 -0.004115 -0.001464 0.000000 0.000000 0.000000
# 2 -0.004115 0.009188 -0.002086 0.000000 0.000000 0.000000
# 3 -0.001464 -0.002086 0.019665 0.000000 0.000000 0.000000
# 4 0.000000 0.000000 0.000000 0.032692 0.000000 0.000000
# 5 0.000000 0.000000 0.000000 0.000000 0.005866 0.000000
# 6 0.000000 0.000000 0.000000 0.000000 0.000000 -0.053405
#
#
# Mechanical properties :
#
#
# Convention : Reuss Voigt Hill
#
# Bulk Modulus (GPa) = 41.97854 55.73608 48.85731
# Shear Modulus (GPa) = 105.09673 51.34141 78.21907
#
# Velocity S-wave (km/s) = 6.91396 4.83244 5.96470
# Velocity P-wave (km/s) = 9.10115 7.51585 8.34622
#
# Compressibility (1/GPa) = 0.02382169
#
# Stress axis : x y z
#
# Youngs Moduli (GPa) = 97.10045 108.83395 50.85170
#
# Poissons Ratio (x) = 0.44783 0.07446
# Poissons Ratio (y) = 0.39955 0.10608
# Poissons Ratio (z) = 0.14217 0.22704
#
# Static dielectric constant tensor:
#      x y z
#    x 1.875900 0.000000 0.000000 
#    y 0.000000 1.754220 0.000000 
#    z 0.000000 0.000000 1.883830 
# 
# From -- ./inp_files/9808.got.cif
#   From: 2010.05.17/outbox.cif.g08.bks.cpg/sg24_5_cif.got.tgz:9808.got - 2010.06.04 00:33:39.
