data_PCOD9335554
_publ_section_title
;
Structure prediction by ZEFSAII (Michael W. Deem and Ramdas Pophale) SiO2 
 PCOD9335554
Probable space group: I 21 21 21
;
_chemical_formula_sum "Si O2"
_cell_formula_units_Z 36
_cell_length_a 16.924948
_cell_length_b 17.070666
_cell_length_c 4.984782
_cell_angle_alpha 90.000000
_cell_angle_beta 90.000000
_cell_angle_gamma 90.000000
_cell_volume 1440.203885
_symmetry_space_group_name_H-M "I 21 21 21"
_symmetry_group_IT_number 24
_symmetry_cell_setting 'orthorhombic'
loop_
_space_group_symop_operation_xyz
x,y,z
-x,1/2-y,z
x,-y,1/2-z
1/2-x,y,-z
1/2+x,1/2+y,1/2+z
1/2-x,-y,1/2+z
1/2+x,1/2-y,-z
-x,1/2+y,1/2-z
loop_
_atom_site_type_symbol
_atom_site_label
_atom_site_fract_x
_atom_site_fract_y
_atom_site_fract_z
Si Si1 0.856811 0.585788 0.708319
Si Si2 0.606925 0.820194 0.559557
Si Si3 0.463432 0.085978 0.712913
Si Si4 0.666931 0.255224 0.448302
Si Si5 0.750000 0.943057 0.500000
O O1 0.819529 0.500000 0.750000
O O2 0.811718 0.663004 0.802993
O O3 0.887035 0.586500 0.405775
O O4 0.933312 0.591809 0.908163
O O5 0.526020 0.853747 0.672461
O O6 0.609368 0.788337 0.257989
O O7 0.674768 0.887131 0.561938
O O8 0.628804 0.749314 0.760500
O O9 0.500517 0.000000 0.750000
O O10 0.750000 0.212466 0.500000
O O11 0.732883 0.000000 0.250000
#
# Coordination Sequence:
#
# PCOD9335554 Si02
#       5
#     8   8   8   8   4
#     4  10  23  43  66  93 125 166 217 276 331 387
#     4  12  24  41  64  94 132 173 213 267 332 386
#     4  10  22  41  64  95 129 164 217 270 322 394
#     4  12  24  43  64  92 134 170 216 274 326 392
#     4  12  24  40  62  92 128 176 220 250 310 388
#
# _framework density 24.996459999999999
#
# number of rings (size 3 to 8) (size 9 to 14) (size 15 to 20)
#    0.000    0.889    2.222    4.667    0.000    8.000 
#    0.000    5.556    0.000    0.000    0.000    0.000 
#    0.000    0.000    0.000    0.000    0.000    0.000 
#
# Total GULP energy -100706.827268 kJ/mol
# GULP energy per Si atom -5594.823737 kJ/mol
# Density = 2.493957 g / cm^3
# Si number density = 24.996460 Si / 1000 Ang^3
#
#
#
# Elastic Constant Matrix: (Units=GPa)
#
#
# Indices 1 2 3 4 5 6 
#
# 1 48.6176 3.3368 11.6631 0.0000 0.0000 0.0000
# 2 3.3368 109.8612 39.5953 0.0000 0.0000 0.0000
# 3 11.6631 39.5953 122.8082 0.0000 0.0000 0.0000
# 4 0.0000 0.0000 0.0000 44.1299 0.0000 0.0000
# 5 0.0000 0.0000 0.0000 0.0000 38.2108 0.0000
# 6 0.0000 0.0000 0.0000 0.0000 0.0000 15.0775
#
#
#
# Elastic Compliance Matrix: (Units=1/GPa)
#
#
# Indices 1 2 3 4 5 6 
#
# 1 0.021049 0.000092 -0.002029 0.000000 0.000000 0.000000
# 2 0.000092 0.010300 -0.003329 0.000000 0.000000 0.000000
# 3 -0.002029 -0.003329 0.009409 0.000000 0.000000 0.000000
# 4 0.000000 0.000000 0.000000 0.022660 0.000000 0.000000
# 5 0.000000 0.000000 0.000000 0.000000 0.026171 0.000000
# 6 0.000000 0.000000 0.000000 0.000000 0.000000 0.066324
#
#
# Mechanical properties :
#
#
# Convention : Reuss Voigt Hill
#
# Bulk Modulus (GPa) = 33.08522 43.38639 38.23580
# Shear Modulus (GPa) = 28.32541 34.59645 31.46093
#
# Velocity S-wave (km/s) = 3.36992 3.72432 3.55155
# Velocity P-wave (km/s) = 5.32978 5.99073 5.66989
#
# Compressibility (1/GPa) = 0.03022497
#
# Stress axis : x y z
#
# Youngs Moduli (GPa) = 47.50811 97.09132 106.28226
#
# Poissons Ratio (x) = -0.00892 0.21561
# Poissons Ratio (y) = -0.00436 0.35386
# Poissons Ratio (z) = 0.09638 0.32326
#
# Static dielectric constant tensor:
#      x y z
#    x 1.962510 0.000000 0.000000 
#    y 0.000000 2.029310 0.000000 
#    z 0.000000 0.000000 1.882410 
# 
# From -- ./inp_files/5387.got.cif
#   From: 2010.05.17/outbox.cif.g08.bks.cpg/sg24_3_cif.got.tgz:5387.got - 2010.06.04 00:33:39.
