data_PCOD9335286
_publ_section_title
;
Structure prediction by ZEFSAII (Michael W. Deem and Ramdas Pophale) SiO2 
 PCOD9335286
Probable space group: I 21 21 21
;
_chemical_formula_sum "Si O2"
_cell_formula_units_Z 28
_cell_length_a 5.814933
_cell_length_b 25.562130
_cell_length_c 8.024378
_cell_angle_alpha 90.000000
_cell_angle_beta 90.000000
_cell_angle_gamma 90.000000
_cell_volume 1192.760183
_symmetry_space_group_name_H-M "I 21 21 21"
_symmetry_group_IT_number 24
_symmetry_cell_setting 'orthorhombic'
loop_
_space_group_symop_operation_xyz
x,y,z
-x,1/2-y,z
x,-y,1/2-z
1/2-x,y,-z
1/2+x,1/2+y,1/2+z
1/2-x,-y,1/2+z
1/2+x,1/2-y,-z
-x,1/2+y,1/2-z
loop_
_atom_site_type_symbol
_atom_site_label
_atom_site_fract_x
_atom_site_fract_y
_atom_site_fract_z
Si Si1 0.369446 0.397950 0.821463
Si Si2 0.250000 0.957464 0.500000
Si Si3 0.750000 0.721496 0.500000
Si Si4 0.594664 0.308654 0.654069
Si Si5 0.904573 0.000000 0.750000
O O1 0.392109 0.348580 0.701735
O O2 0.238587 0.446922 0.742880
O O3 0.250000 0.384300 0.000000
O O4 0.619682 0.420994 0.868195
O O5 0.437796 0.992737 0.410963
O O6 0.500000 0.750000 0.502040
O O7 0.744636 0.692441 0.676284
O O8 0.500000 0.250000 0.622436
O O9 0.750000 0.325395 0.500000
#
# Coordination Sequence:
#
# PCOD9335286 Si02
#       5
#     8   4   4   8   4
#     4  10  23  46  77 111 147 207 253 316 399 474
#     4  10  21  46  72 108 148 192 248 307 398 466
#     4  10  23  44  82 108 156 216 260 329 404 466
#     4  11  25  48  75 116 157 200 268 325 394 477
#     4  10  22  46  78 108 150 188 256 318 386 488
#
# _framework density 23.474964
#
# number of rings (size 3 to 8) (size 9 to 14) (size 15 to 20)
#    0.000    1.714    0.000    2.571    8.000    0.000 
#   30.857    0.000    6.286    0.000    0.000    0.000 
#    0.000    0.000    0.000    0.000    0.000    0.000 
#
# Total GULP energy -78325.661580 kJ/mol
# GULP energy per Si atom -5594.690113 kJ/mol
# Density = 2.342153 g / cm^3
# Si number density = 23.474964 Si / 1000 Ang^3
#
#
#
# Elastic Constant Matrix: (Units=GPa)
#
#
# Indices 1 2 3 4 5 6 
#
# 1 108.5520 74.6020 34.6425 0.0005 -0.0001 -0.0003
# 2 74.6020 176.2514 54.9700 0.0016 0.0000 -0.0006
# 3 34.6425 54.9700 120.0934 0.0031 -0.0002 -0.0014
# 4 0.0005 0.0016 0.0031 -48.0414 0.0001 -0.0014
# 5 -0.0001 0.0000 -0.0002 0.0001 36.3893 0.0002
# 6 -0.0003 -0.0006 -0.0014 -0.0014 0.0002 0.2178
#
#
#
# Elastic Compliance Matrix: (Units=1/GPa)
#
#
# Indices 1 2 3 4 5 6 
#
# 1 0.013207 -0.005135 -0.001459 0.000000 0.000000 -0.000006
# 2 -0.005135 0.008615 -0.002462 0.000000 0.000000 0.000003
# 3 -0.001459 -0.002462 0.009875 0.000001 0.000000 0.000053
# 4 0.000000 0.000000 0.000001 -0.020815 0.000000 -0.000136
# 5 0.000000 0.000000 0.000000 0.000000 0.027481 -0.000029
# 6 -0.000006 0.000003 0.000053 -0.000136 -0.000029 4.590784
#
#
# Mechanical properties :
#
#
# Convention : Reuss Voigt Hill
#
# Bulk Modulus (GPa) = 73.61588 81.48064 77.54826
# Shear Modulus (GPa) = 1.07486 13.75861 7.41674
#
# Velocity S-wave (km/s) = 0.67740 2.42357 1.77941
# Velocity P-wave (km/s) = 5.66032 6.52813 6.10965
#
# Compressibility (1/GPa) = 0.01358403
#
# Stress axis : x y z
#
# Youngs Moduli (GPa) = 75.71820 116.07555 101.26807
#
# Poissons Ratio (x) = 0.59604 0.14778
# Poissons Ratio (y) = 0.38881 0.24933
# Poissons Ratio (z) = 0.11049 0.28579
#
# Static dielectric constant tensor:
#      x y z
#    x 1.954320 0.000000 0.000000 
#    y 0.000000 1.934270 0.000000 
#    z 0.000000 0.000000 1.896250 
# 
# From -- ./inp_files/6802.got.cif
#   From: 2010.05.17/outbox.cif.g08.bks.cpg/sg24_4_cif.got.tgz:6802.got - 2010.06.04 00:33:39.
