data_PCOD9335714
_publ_section_title
;
Structure prediction by ZEFSAII (Michael W. Deem and Ramdas Pophale) SiO2 
 PCOD9335714
Probable space group: I 21 21 21
;
_chemical_formula_sum "Si O2"
_cell_formula_units_Z 32
_cell_length_a 8.025543
_cell_length_b 10.534667
_cell_length_c 17.488874
_cell_angle_alpha 90.000000
_cell_angle_beta 90.000000
_cell_angle_gamma 90.000000
_cell_volume 1478.621739
_symmetry_space_group_name_H-M "I 21 21 21"
_symmetry_group_IT_number 24
_symmetry_cell_setting 'orthorhombic'
loop_
_space_group_symop_operation_xyz
x,y,z
-x,1/2-y,z
x,-y,1/2-z
1/2-x,y,-z
1/2+x,1/2+y,1/2+z
1/2-x,-y,1/2+z
1/2+x,1/2-y,-z
-x,1/2+y,1/2-z
loop_
_atom_site_type_symbol
_atom_site_label
_atom_site_fract_x
_atom_site_fract_y
_atom_site_fract_z
Si Si1 0.712492 0.043596 0.837718
Si Si2 0.547707 0.399637 0.373953
Si Si3 0.190059 0.000000 0.250000
Si Si4 0.000000 0.750000 0.305997
Si Si5 0.563993 0.121168 0.536714
O O1 0.662990 0.189870 0.845707
O O2 0.706760 0.000000 0.750000
O O3 0.584040 0.977693 0.895907
O O4 0.892944 0.994023 0.860925
O O5 0.500000 0.250000 0.355430
O O6 0.693809 0.453790 0.321015
O O7 0.560807 0.402768 0.466124
O O8 0.080055 0.874232 0.266592
O O9 0.500000 0.250000 0.573878
O O10 0.750000 0.136092 0.500000
#
# Coordination Sequence:
#
# PCOD9335714 Si02
#       5
#     8   8   4   4   8
#     4  11  22  41  65 100 140 178 235 292 352 415
#     4  10  22  43  73 103 139 192 241 289 356 433
#     4  12  26  44  72 106 144 194 234 300 354 432
#     4  12  28  42  66 106 144 188 232 298 350 418
#     4   9  21  40  68 103 137 184 241 295 342 424
#
# _framework density 21.641774999999999
#
# number of rings (size 3 to 8) (size 9 to 14) (size 15 to 20)
#    0.000    1.500    2.500    1.500    1.750    6.000 
#    0.000    7.500    0.000    0.000    0.000    0.000 
#    0.000    0.000    0.000    0.000    0.000    0.000 
#
# Total GULP energy -89100.011057 kJ/mol
# GULP energy per Si atom -5568.750691 kJ/mol
# Density = 2.159252 g / cm^3
# Si number density = 21.641775 Si / 1000 Ang^3
#
#
#
# Elastic Constant Matrix: (Units=GPa)
#
#
# Indices 1 2 3 4 5 6 
#
# 1 91.6588 51.2411 21.5802 0.0000 0.0000 0.0000
# 2 51.2411 146.9806 33.9695 0.0000 0.0000 0.0000
# 3 21.5802 33.9695 81.1558 0.0000 0.0000 0.0000
# 4 0.0000 0.0000 0.0000 35.8034 0.0000 0.0000
# 5 0.0000 0.0000 0.0000 0.0000 26.8949 0.0000
# 6 0.0000 0.0000 0.0000 0.0000 0.0000 43.4300
#
#
#
# Elastic Compliance Matrix: (Units=1/GPa)
#
#
# Indices 1 2 3 4 5 6 
#
# 1 0.013793 -0.004385 -0.001832 0.000000 0.000000 0.000000
# 2 -0.004385 0.008926 -0.002570 0.000000 0.000000 0.000000
# 3 -0.001832 -0.002570 0.013885 0.000000 0.000000 0.000000
# 4 0.000000 0.000000 0.000000 0.027930 0.000000 0.000000
# 5 0.000000 0.000000 0.000000 0.000000 0.037182 0.000000
# 6 0.000000 0.000000 0.000000 0.000000 0.000000 0.023026
#
#
# Mechanical properties :
#
#
# Convention : Reuss Voigt Hill
#
# Bulk Modulus (GPa) = 52.55103 59.26410 55.90756
# Shear Modulus (GPa) = 33.63378 35.42596 34.52987
#
# Velocity S-wave (km/s) = 3.94650 4.05028 3.99873
# Velocity P-wave (km/s) = 6.71576 7.02258 6.87088
#
# Compressibility (1/GPa) = 0.01902912
#
# Stress axis : x y z
#
# Youngs Moduli (GPa) = 72.50139 112.02722 72.02003
#
# Poissons Ratio (x) = 0.49125 0.13196
# Poissons Ratio (y) = 0.31792 0.18511
# Poissons Ratio (z) = 0.13284 0.28794
#
# Static dielectric constant tensor:
#      x y z
#    x 1.932370 0.000000 0.000000 
#    y 0.000000 1.780970 0.000000 
#    z 0.000000 0.000000 1.817090 
# 
# From -- ./inp_files/29235.got.cif
#   From: 2010.05.17/outbox.cif.g08.bks.cpg/sg24_15_cif.got.tgz:29235.got - 2010.06.04 00:33:39.
