data_PCOD9335131
_publ_section_title
;
Structure prediction by ZEFSAII (Michael W. Deem and Ramdas Pophale) SiO2 
 PCOD9335131
Probable space group: I 21 21 21
;
_chemical_formula_sum "Si O2"
_cell_formula_units_Z 32
_cell_length_a 11.236437
_cell_length_b 22.068045
_cell_length_c 5.537127
_cell_angle_alpha 90.000000
_cell_angle_beta 90.000000
_cell_angle_gamma 90.000000
_cell_volume 1373.020326
_symmetry_space_group_name_H-M "I 21 21 21"
_symmetry_group_IT_number 24
_symmetry_cell_setting 'orthorhombic'
loop_
_space_group_symop_operation_xyz
x,y,z
-x,1/2-y,z
x,-y,1/2-z
1/2-x,y,-z
1/2+x,1/2+y,1/2+z
1/2-x,-y,1/2+z
1/2+x,1/2-y,-z
-x,1/2+y,1/2-z
loop_
_atom_site_type_symbol
_atom_site_label
_atom_site_fract_x
_atom_site_fract_y
_atom_site_fract_z
Si Si1 0.600716 0.604436 0.703808
Si Si2 0.867234 0.256850 0.155605
Si Si3 0.941567 0.565734 0.798049
Si Si4 0.619209 0.860159 0.945606
O O1 0.644988 0.673264 0.733241
O O2 0.630715 0.580960 0.440408
O O3 0.454770 0.609287 0.725964
O O4 0.625357 0.565946 0.944002
O O5 0.873945 0.210317 0.378684
O O6 0.000000 0.250000 0.037068
O O7 0.750000 0.240810 0.000000
O O8 0.996782 0.500000 0.750000
O O9 0.034582 0.620414 0.835633
O O10 0.750000 0.882982 0.000000
#
# Coordination Sequence:
#
# PCOD9335131 Si02
#       4
#     8   8   8   8
#     4   9  22  40  62  93 135 178 234 277 357 403
#     4  10  22  42  68 106 143 188 227 298 360 434
#     4  10  21  41  64  93 138 185 234 289 341 416
#     4   9  22  36  60  97 137 176 225 282 354 415
#
# _framework density 23.306284000000002
#
# number of rings (size 3 to 8) (size 9 to 14) (size 15 to 20)
#    1.500    1.000    0.000    0.750    7.000    2.000 
#    9.000    0.000    0.000    3.000    0.000    0.000 
#    0.000    2.000    0.000    0.000    0.000    0.000 
#
# Total GULP energy -89070.632534 kJ/mol
# GULP energy per Si atom -5566.914533 kJ/mol
# Density = 2.325324 g / cm^3
# Si number density = 23.306284 Si / 1000 Ang^3
#
#
#
# Elastic Constant Matrix: (Units=GPa)
#
#
# Indices 1 2 3 4 5 6 
#
# 1 132.3311 17.9097 31.0432 0.0093 0.0118 -0.0193
# 2 17.9097 119.0427 56.9818 0.0124 -0.0075 0.0043
# 3 31.0432 56.9818 176.5937 0.0133 -0.0406 0.0264
# 4 0.0093 0.0124 0.0133 24.3643 -0.0129 -0.0038
# 5 0.0118 -0.0075 -0.0406 -0.0129 -21.8466 0.0180
# 6 -0.0193 0.0043 0.0264 -0.0038 0.0180 -16.3018
#
#
#
# Elastic Compliance Matrix: (Units=1/GPa)
#
#
# Indices 1 2 3 4 5 6 
#
# 1 0.007920 -0.000621 -0.001192 -0.000002 0.000007 -0.000011
# 2 -0.000621 0.009984 -0.003112 -0.000003 0.000002 -0.000002
# 3 -0.001192 -0.003112 0.006876 -0.000002 -0.000012 0.000012
# 4 -0.000002 -0.000003 -0.000002 0.041044 -0.000024 -0.000010
# 5 0.000007 0.000002 -0.000012 -0.000024 -0.045774 -0.000050
# 6 -0.000011 -0.000002 0.000012 -0.000010 -0.000050 -0.061343
#
#
# Mechanical properties :
#
#
# Convention : Reuss Voigt Hill
#
# Bulk Modulus (GPa) = 66.97925 71.09300 69.03613
# Shear Modulus (GPa) = -188.92557 18.71203 -85.10677
#
# Velocity S-wave (km/s) = -9.01322 2.83658 -6.04946
# Velocity P-wave (km/s) = 8.91719 6.42637 4.37139
#
# Compressibility (1/GPa) = 0.01493000
#
# Stress axis : x y z
#
# Youngs Moduli (GPa) = 126.25520 100.16525 145.42359
#
# Poissons Ratio (x) = 0.06221 0.17333
# Poissons Ratio (y) = 0.07841 0.45259
# Poissons Ratio (z) = 0.15049 0.31174
#
# Static dielectric constant tensor:
#      x y z
#    x 1.953520 0.000010 0.000010 
#    y 0.000010 1.850180 0.000010 
#    z 0.000010 0.000010 1.908680 
# 
# From -- ./inp_files/2144.got.cif
#   From: 2010.05.17/outbox.cif.g08.bks.cpg/sg24_2_cif.got.tgz:2144.got - 2010.06.04 00:33:39.
