data_PCOD9335829
_publ_section_title
;
Structure prediction by ZEFSAII (Michael W. Deem and Ramdas Pophale) SiO2 
 PCOD9335829
Probable space group: I 21 21 21
;
_chemical_formula_sum "Si O2"
_cell_formula_units_Z 24
_cell_length_a 6.947328
_cell_length_b 10.628457
_cell_length_c 14.467931
_cell_angle_alpha 90.000000
_cell_angle_beta 90.000000
_cell_angle_gamma 90.000000
_cell_volume 1068.303010
_symmetry_space_group_name_H-M "I 21 21 21"
_symmetry_group_IT_number 24
_symmetry_cell_setting 'orthorhombic'
loop_
_space_group_symop_operation_xyz
x,y,z
-x,1/2-y,z
x,-y,1/2-z
1/2-x,y,-z
1/2+x,1/2+y,1/2+z
1/2-x,-y,1/2+z
1/2+x,1/2-y,-z
-x,1/2+y,1/2-z
loop_
_atom_site_type_symbol
_atom_site_label
_atom_site_fract_x
_atom_site_fract_y
_atom_site_fract_z
Si Si1 0.801743 0.106188 0.686954
Si Si2 0.500000 0.750000 0.585239
Si Si3 0.266754 0.142928 0.241781
Si Si4 0.250000 0.538015 0.500000
O O1 0.713674 0.245846 0.686270
O O2 0.004278 0.126531 0.740992
O O3 0.701350 0.000000 0.750000
O O4 0.813441 0.047709 0.585943
O O5 0.678411 0.701461 0.648278
O O6 0.422496 0.631749 0.528173
O O7 0.196450 0.000000 0.250000
#
# Coordination Sequence:
#
# PCOD9335829 Si02
#       4
#     8   4   8   4
#     4  10  22  49  74 103 147 195 245 312 364 448
#     4  12  28  44  76 112 148 208 246 310 378 452
#     4  10  24  46  76  99 147 199 244 301 384 437
#     4  12  28  46  76 118 152 190 262 310 372 448
#
# _framework density 22.465537999999999
#
# number of rings (size 3 to 8) (size 9 to 14) (size 15 to 20)
#    0.000    1.333    3.333    0.000   14.000    0.000 
#   12.000    0.000    0.000    0.000    0.000    0.000 
#    0.000    0.000    0.000    0.000    0.000    0.000 
#
# Total GULP energy -66856.390184 kJ/mol
# GULP energy per Si atom -5571.365849 kJ/mol
# Density = 2.241441 g / cm^3
# Si number density = 22.465538 Si / 1000 Ang^3
#
#
#
# Elastic Constant Matrix: (Units=GPa)
#
#
# Indices 1 2 3 4 5 6 
#
# 1 139.1245 17.9204 23.8181 0.0000 0.0000 0.0000
# 2 17.9204 250.2336 67.2203 0.0000 0.0000 0.0000
# 3 23.8181 67.2203 116.0314 0.0000 0.0000 0.0000
# 4 0.0000 0.0000 0.0000 30.5805 0.0000 0.0000
# 5 0.0000 0.0000 0.0000 0.0000 10.3593 0.0000
# 6 0.0000 0.0000 0.0000 0.0000 0.0000 -13.5792
#
#
#
# Elastic Compliance Matrix: (Units=1/GPa)
#
#
# Indices 1 2 3 4 5 6 
#
# 1 0.007454 -0.000145 -0.001446 0.000000 0.000000 0.000000
# 2 -0.000145 0.004736 -0.002714 0.000000 0.000000 0.000000
# 3 -0.001446 -0.002714 0.010487 0.000000 0.000000 0.000000
# 4 0.000000 0.000000 0.000000 0.032701 0.000000 0.000000
# 5 0.000000 0.000000 0.000000 0.000000 0.096532 0.000000
# 6 0.000000 0.000000 0.000000 0.000000 0.000000 -0.073642
#
#
# Mechanical properties :
#
#
# Convention : Reuss Voigt Hill
#
# Bulk Modulus (GPa) = 71.08791 80.36748 75.72769
# Shear Modulus (GPa) = 54.60562 31.90085 43.25323
#
# Velocity S-wave (km/s) = 4.93550 3.77236 4.39260
# Velocity P-wave (km/s) = 8.01191 7.40443 7.71415
#
# Compressibility (1/GPa) = 0.01406709
#
# Stress axis : x y z
#
# Youngs Moduli (GPa) = 134.15489 211.16443 95.35391
#
# Poissons Ratio (x) = 0.03071 0.13787
# Poissons Ratio (y) = 0.01951 0.25876
# Poissons Ratio (z) = 0.19397 0.57303
#
# Static dielectric constant tensor:
#      x y z
#    x 2.402260 0.000000 0.000000 
#    y 0.000000 1.954580 0.000000 
#    z 0.000000 0.000000 1.805720 
# 
# From -- ./inp_files/8610.got.cif
#   From: 2010.05.17/outbox.cif.g08.bks.cpg/sg24_5_cif.got.tgz:8610.got - 2010.06.04 00:33:39.
