data_PCOD9335213
_publ_section_title
;
Structure prediction by ZEFSAII (Michael W. Deem and Ramdas Pophale) SiO2 
 PCOD9335213
Probable space group: I 21 21 21
;
_chemical_formula_sum "Si O2"
_cell_formula_units_Z 40
_cell_length_a 7.773143
_cell_length_b 8.002957
_cell_length_c 27.190160
_cell_angle_alpha 90.000000
_cell_angle_beta 90.000000
_cell_angle_gamma 90.000000
_cell_volume 1691.448986
_symmetry_space_group_name_H-M "I 21 21 21"
_symmetry_group_IT_number 24
_symmetry_cell_setting 'orthorhombic'
loop_
_space_group_symop_operation_xyz
x,y,z
-x,1/2-y,z
x,-y,1/2-z
1/2-x,y,-z
1/2+x,1/2+y,1/2+z
1/2-x,-y,1/2+z
1/2+x,1/2-y,-z
-x,1/2+y,1/2-z
loop_
_atom_site_type_symbol
_atom_site_label
_atom_site_fract_x
_atom_site_fract_y
_atom_site_fract_z
Si Si1 0.298997 0.214674 0.323059
Si Si2 0.695786 0.815254 0.276576
Si Si3 0.392459 0.416977 0.600224
Si Si4 0.750000 0.011292 0.000000
Si Si5 0.295626 0.864579 0.627122
Si Si6 0.000000 0.750000 0.550331
O O1 0.500000 0.250000 0.319285
O O2 0.225919 0.206318 0.268087
O O3 0.220329 0.371286 0.352390
O O4 0.271055 0.040647 0.350280
O O5 0.500000 0.750000 0.285263
O O6 0.788750 0.766838 0.327486
O O7 0.692147 0.000000 0.250000
O O8 0.500000 0.250000 0.595158
O O9 0.282768 0.421029 0.551016
O O10 0.519453 0.574493 0.605927
O O11 0.580339 0.114971 0.013733
O O12 0.159043 0.806575 0.585430
#
# Coordination Sequence:
#
# PCOD9335213 Si02
#       6
#     8   8   8   4   8   4
#     4  10  21  42  71 103 144 194 249 293 364 447
#     4  11  22  38  69 107 141 197 245 292 363 449
#     4  10  25  45  71 106 147 191 242 312 368 436
#     4  12  26  46  70 104 138 190 254 302 372 432
#     4  11  23  43  69 102 151 186 243 306 373 443
#     4  12  26  42  72 102 140 200 240 312 370 442
#
# _framework density 23.648364000000001
#
# number of rings (size 3 to 8) (size 9 to 14) (size 15 to 20)
#    0.000    1.200    1.000    5.400    2.800    4.000 
#    0.000    6.000    0.000    0.000    0.000    0.000 
#    0.000    0.000    0.000    0.000    0.000    0.000 
#
# Total GULP energy -111724.529287 kJ/mol
# GULP energy per Si atom -5586.226464 kJ/mol
# Density = 2.359454 g / cm^3
# Si number density = 23.648364 Si / 1000 Ang^3
#
#
#
# Elastic Constant Matrix: (Units=GPa)
#
#
# Indices 1 2 3 4 5 6 
#
# 1 62.1093 6.7151 -1.1933 0.0000 0.0000 0.0000
# 2 6.7151 116.8633 13.1357 0.0000 0.0000 0.0000
# 3 -1.1933 13.1357 65.7894 0.0000 0.0000 0.0000
# 4 0.0000 0.0000 0.0000 44.3966 0.0000 0.0000
# 5 0.0000 0.0000 0.0000 0.0000 25.5903 0.0000
# 6 0.0000 0.0000 0.0000 0.0000 0.0000 -53.3879
#
#
#
# Elastic Compliance Matrix: (Units=1/GPa)
#
#
# Indices 1 2 3 4 5 6 
#
# 1 0.016217 -0.000987 0.000491 0.000000 0.000000 0.000000
# 2 -0.000987 0.008814 -0.001778 0.000000 0.000000 0.000000
# 3 0.000491 -0.001778 0.015564 0.000000 0.000000 0.000000
# 4 0.000000 0.000000 0.000000 0.022524 0.000000 0.000000
# 5 0.000000 0.000000 0.000000 0.000000 0.039077 0.000000
# 6 0.000000 0.000000 0.000000 0.000000 0.000000 -0.018731
#
#
# Mechanical properties :
#
#
# Convention : Reuss Voigt Hill
#
# Bulk Modulus (GPa) = 27.74138 31.34191 29.54165
# Shear Modulus (GPa) = 49.98618 18.39342 34.18980
#
# Velocity S-wave (km/s) = 4.60252 2.79191 3.80644
# Velocity P-wave (km/s) = 6.32459 4.86571 5.64250
#
# Compressibility (1/GPa) = 0.03604724
#
# Stress axis : x y z
#
# Youngs Moduli (GPa) = 61.66448 113.46189 64.25143
#
# Poissons Ratio (x) = 0.11199 -0.03156
# Poissons Ratio (y) = 0.06087 0.11422
# Poissons Ratio (z) = -0.03029 0.20169
#
# Static dielectric constant tensor:
#      x y z
#    x 1.942380 0.000000 0.000000 
#    y 0.000000 1.963280 0.000000 
#    z 0.000000 0.000000 2.331560 
# 
# From -- ./inp_files/35041.got.cif
#   From: 2010.05.17/outbox.cif.g08.bks.cpg/sg24_18_cif.got.tgz:35041.got - 2010.06.04 00:33:39.
