data_PCOD9335948
_publ_section_title
;
Structure prediction by ZEFSAII (Michael W. Deem and Ramdas Pophale) SiO2 
 PCOD9335948
Probable space group: I 21 21 21
;
_chemical_formula_sum "Si O2"
_cell_formula_units_Z 48
_cell_length_a 8.955849
_cell_length_b 9.955971
_cell_length_c 28.423039
_cell_angle_alpha 90.000000
_cell_angle_beta 90.000000
_cell_angle_gamma 90.000000
_cell_volume 2534.316764
_symmetry_space_group_name_H-M "I 21 21 21"
_symmetry_group_IT_number 24
_symmetry_cell_setting 'orthorhombic'
loop_
_space_group_symop_operation_xyz
x,y,z
-x,1/2-y,z
x,-y,1/2-z
1/2-x,y,-z
1/2+x,1/2+y,1/2+z
1/2-x,-y,1/2+z
1/2+x,1/2-y,-z
-x,1/2+y,1/2-z
loop_
_atom_site_type_symbol
_atom_site_label
_atom_site_fract_x
_atom_site_fract_y
_atom_site_fract_z
Si Si1 0.095543 0.865854 0.474560
Si Si2 0.567501 0.104912 0.288985
Si Si3 0.970504 0.972787 0.611922
Si Si4 0.749570 0.726478 0.618827
Si Si5 0.000000 0.250000 0.196583
Si Si6 0.364872 0.500000 0.750000
Si Si7 0.425227 0.394219 0.490120
O O1 0.250000 0.897116 0.500000
O O2 0.144978 0.803381 0.425474
O O3 0.000000 0.750000 0.500860
O O4 0.997196 0.998465 0.474088
O O5 0.500000 0.250000 0.277912
O O6 0.504923 0.000000 0.250000
O O7 0.531524 0.067062 0.342450
O O8 0.746320 0.082951 0.282581
O O9 0.831976 0.869422 0.615094
O O10 0.120305 0.884398 0.616464
O O11 0.959623 0.049329 0.562300
O O12 0.645808 0.723528 0.664508
O O13 0.037697 0.385395 0.225208
O O14 0.500000 0.250000 0.495530
O O15 0.250000 0.386787 0.500000
#
# Coordination Sequence:
#
# PCOD9335948 Si02
#       7
#     8   8   8   8   4   4   8
#     4  12  22  40  66 100 131 181 229 278 335 402
#     4  10  23  43  71 100 134 179 233 284 349 415
#     4  11  23  44  68 102 134 179 231 287 335 410
#     4  11  23  39  71  99 135 173 232 284 335 408
#     4  12  24  46  68 106 140 178 224 286 356 418
#     4  10  26  42  70 100 142 176 224 284 352 416
#     4  12  27  44  67  96 143 183 229 285 346 413
#
# _framework density 18.940016
#
# number of rings (size 3 to 8) (size 9 to 14) (size 15 to 20)
#    0.500    0.333    4.167    3.500    4.667    1.333 
#    0.000    0.000    3.667    0.000    0.000    0.000 
#    0.000    0.000    0.000    0.000    0.000    0.000 
#
# Total GULP energy -133996.512156 kJ/mol
# GULP energy per Si atom -5583.188006 kJ/mol
# Density = 1.889691 g / cm^3
# Si number density = 18.940016 Si / 1000 Ang^3
#
#
#
# Elastic Constant Matrix: (Units=GPa)
#
#
# Indices 1 2 3 4 5 6 
#
# 1 130.4104 69.6850 18.4186 0.0000 0.0000 0.0000
# 2 69.6850 147.3986 23.9911 0.0000 0.0000 0.0000
# 3 18.4186 23.9911 53.9914 0.0000 0.0000 0.0000
# 4 0.0000 0.0000 0.0000 18.0486 0.0000 0.0000
# 5 0.0000 0.0000 0.0000 0.0000 10.4648 0.0000
# 6 0.0000 0.0000 0.0000 0.0000 0.0000 37.0588
#
#
#
# Elastic Compliance Matrix: (Units=1/GPa)
#
#
# Indices 1 2 3 4 5 6 
#
# 1 0.010366 -0.004662 -0.001465 0.000000 0.000000 0.000000
# 2 -0.004662 0.009410 -0.002591 0.000000 0.000000 0.000000
# 3 -0.001465 -0.002591 0.020172 0.000000 0.000000 0.000000
# 4 0.000000 0.000000 0.000000 0.055406 0.000000 0.000000
# 5 0.000000 0.000000 0.000000 0.000000 0.095559 0.000000
# 6 0.000000 0.000000 0.000000 0.000000 0.000000 0.026984
#
#
# Mechanical properties :
#
#
# Convention : Reuss Voigt Hill
#
# Bulk Modulus (GPa) = 44.41870 61.77665 53.09768
# Shear Modulus (GPa) = 20.58984 27.76148 24.17566
#
# Velocity S-wave (km/s) = 3.30071 3.83267 3.57660
# Velocity P-wave (km/s) = 6.16680 7.23005 6.71949
#
# Compressibility (1/GPa) = 0.02251304
#
# Stress axis : x y z
#
# Youngs Moduli (GPa) = 96.46594 106.26672 49.57277
#
# Poissons Ratio (x) = 0.49547 0.07260
# Poissons Ratio (y) = 0.44977 0.12844
# Poissons Ratio (z) = 0.14128 0.27533
#
# Static dielectric constant tensor:
#      x y z
#    x 1.671610 0.000000 0.000000 
#    y 0.000000 1.690150 0.000000 
#    z 0.000000 0.000000 1.692870 
# 
# From -- ./inp_files/9788.got.cif
#   From: 2010.05.17/outbox.cif.g08.bks.cpg/sg24_5_cif.got.tgz:9788.got - 2010.06.04 00:33:39.
