data_PCOD9335020
_publ_section_title
;
Structure prediction by ZEFSAII (Michael W. Deem and Ramdas Pophale) SiO2 
 PCOD9335020
Probable space group: I 21 21 21
;
_chemical_formula_sum "Si O2"
_cell_formula_units_Z 48
_cell_length_a 20.336956
_cell_length_b 13.249711
_cell_length_c 7.748337
_cell_angle_alpha 90.000000
_cell_angle_beta 90.000000
_cell_angle_gamma 90.000000
_cell_volume 2087.857510
_symmetry_space_group_name_H-M "I 21 21 21"
_symmetry_group_IT_number 24
_symmetry_cell_setting 'orthorhombic'
loop_
_space_group_symop_operation_xyz
x,y,z
-x,1/2-y,z
x,-y,1/2-z
1/2-x,y,-z
1/2+x,1/2+y,1/2+z
1/2-x,-y,1/2+z
1/2+x,1/2-y,-z
-x,1/2+y,1/2-z
loop_
_atom_site_type_symbol
_atom_site_label
_atom_site_fract_x
_atom_site_fract_y
_atom_site_fract_z
Si Si1 0.142075 0.778036 0.725111
Si Si2 0.397377 0.911525 0.885554
Si Si3 0.665615 0.786126 0.880878
Si Si4 0.467294 0.380880 0.757501
Si Si5 0.358568 0.000000 0.250000
Si Si6 0.281018 0.399503 0.173350
Si Si7 0.000000 0.250000 0.919044
O O1 0.157774 0.728044 0.911930
O O2 0.173734 0.692355 0.607107
O O3 0.064244 0.780271 0.689294
O O4 0.172194 0.890143 0.701365
O O5 0.467638 0.858076 0.856069
O O6 0.394090 0.000000 0.750000
O O7 0.339460 0.833157 0.837425
O O8 0.393814 0.960558 0.075349
O O9 0.774704 0.849082 0.201881
O O10 0.599540 0.835699 0.811994
O O11 0.460108 0.500000 0.750000
O O12 0.482100 0.340412 0.949300
O O13 0.314776 0.500000 0.250000
O O14 0.250000 0.442047 0.000000
#
# Coordination Sequence:
#
# PCOD9335020 Si02
#       7
#     8   8   8   8   4   8   4
#     4  11  26  45  68 104 141 186 238 301 353 428
#     4  10  21  39  67  99 145 182 231 292 353 420
#     4  11  23  43  69  99 142 182 236 291 354 422
#     4  11  22  39  64  99 140 184 235 290 362 412
#     4  10  24  42  68 102 146 180 242 290 364 420
#     4  12  27  49  75 101 141 187 240 296 358 433
#     4  12  24  42  70 102 144 182 252 286 360 436
#
# _framework density 22.990075999999998
#
# number of rings (size 3 to 8) (size 9 to 14) (size 15 to 20)
#    0.000    1.000    1.667    5.000    7.000    1.333 
#    3.000    0.000    0.000    0.000    0.000    0.000 
#    0.000    0.000    0.000    0.000    0.000    0.000 
#
# Total GULP energy -133824.250831 kJ/mol
# GULP energy per Si atom -5576.010451 kJ/mol
# Density = 2.293775 g / cm^3
# Si number density = 22.990076 Si / 1000 Ang^3
#
#
#
# Elastic Constant Matrix: (Units=GPa)
#
#
# Indices 1 2 3 4 5 6 
#
# 1 73.1213 46.9536 13.5918 0.0000 0.0000 0.0000
# 2 46.9536 167.7430 27.2529 0.0000 0.0000 0.0000
# 3 13.5918 27.2529 77.8489 0.0000 0.0000 0.0000
# 4 0.0000 0.0000 0.0000 39.7299 0.0000 0.0000
# 5 0.0000 0.0000 0.0000 0.0000 24.6861 0.0000
# 6 0.0000 0.0000 0.0000 0.0000 0.0000 6.4589
#
#
#
# Elastic Compliance Matrix: (Units=1/GPa)
#
#
# Indices 1 2 3 4 5 6 
#
# 1 0.016808 -0.004483 -0.001365 0.000000 0.000000 0.000000
# 2 -0.004483 0.007517 -0.001849 0.000000 0.000000 0.000000
# 3 -0.001365 -0.001849 0.013731 0.000000 0.000000 0.000000
# 4 0.000000 0.000000 0.000000 0.025170 0.000000 0.000000
# 5 0.000000 0.000000 0.000000 0.000000 0.040509 0.000000
# 6 0.000000 0.000000 0.000000 0.000000 0.000000 0.154824
#
#
# Mechanical properties :
#
#
# Convention : Reuss Voigt Hill
#
# Bulk Modulus (GPa) = 44.12659 54.92332 49.52495
# Shear Modulus (GPa) = 17.76154 29.56931 23.66542
#
# Velocity S-wave (km/s) = 2.78254 3.59022 3.21187
# Velocity P-wave (km/s) = 5.43680 6.41312 5.94504
#
# Compressibility (1/GPa) = 0.02266208
#
# Stress axis : x y z
#
# Youngs Moduli (GPa) = 59.49393 133.03630 72.82829
#
# Poissons Ratio (x) = 0.59642 0.09942
# Poissons Ratio (y) = 0.26672 0.13464
# Poissons Ratio (z) = 0.08122 0.24594
#
# Static dielectric constant tensor:
#      x y z
#    x 1.925330 0.000000 0.000000 
#    y 0.000000 1.921650 0.000000 
#    z 0.000000 0.000000 1.974970 
# 
# From -- ./inp_files/16372.got.cif
#   From: 2010.05.17/outbox.cif.g08.bks.cpg/sg24_9_cif.got.tgz:16372.got - 2010.06.04 00:33:39.
