data_PCOD9335089
_publ_section_title
;
Structure prediction by ZEFSAII (Michael W. Deem and Ramdas Pophale) SiO2 
 PCOD9335089
Probable space group: I 21 21 21
;
_chemical_formula_sum "Si O2"
_cell_formula_units_Z 40
_cell_length_a 5.457548
_cell_length_b 16.165805
_cell_length_c 24.690054
_cell_angle_alpha 90.000000
_cell_angle_beta 90.000000
_cell_angle_gamma 90.000000
_cell_volume 2178.296229
_symmetry_space_group_name_H-M "I 21 21 21"
_symmetry_group_IT_number 24
_symmetry_cell_setting 'orthorhombic'
loop_
_space_group_symop_operation_xyz
x,y,z
-x,1/2-y,z
x,-y,1/2-z
1/2-x,y,-z
1/2+x,1/2+y,1/2+z
1/2-x,-y,1/2+z
1/2+x,1/2-y,-z
-x,1/2+y,1/2-z
loop_
_atom_site_type_symbol
_atom_site_label
_atom_site_fract_x
_atom_site_fract_y
_atom_site_fract_z
Si Si1 0.459969 0.424510 0.594480
Si Si2 0.230782 0.938930 0.357958
Si Si3 0.250000 0.459509 0.000000
Si Si4 0.736907 0.020717 0.187650
Si Si5 0.500000 0.750000 0.963643
Si Si6 0.119844 0.829224 0.553583
O O1 0.706995 0.469247 0.615772
O O2 0.375121 0.480873 0.543949
O O3 0.280992 0.443917 0.645648
O O4 0.485561 0.332028 0.573554
O O5 0.498256 0.930773 0.332851
O O6 0.997679 0.932797 0.318727
O O7 0.197557 0.873471 0.405676
O O8 0.065093 0.399959 0.967369
O O9 0.699186 0.000000 0.250000
O O10 0.250000 0.753472 0.000000
O O11 0.250000 0.796146 0.500000
O O12 0.000000 0.750000 0.580896
#
# Coordination Sequence:
#
# PCOD9335089 Si02
#       6
#     8   8   4   8   4   8
#     4  10  24  38  65  89 127 165 204 256 310 373
#     4  10  22  38  63  86 122 160 203 255 308 364
#     4  12  20  40  56  90 128 166 204 244 310 376
#     4  10  21  40  67  90 114 162 216 259 306 368
#     4  12  28  38  62  98 132 164 206 256 314 380
#     4  12  22  34  56  89 127 164 200 245 299 370
#
# _framework density 18.362974999999999
#
# number of rings (size 3 to 8) (size 9 to 14) (size 15 to 20)
#    1.200    0.000    6.000    0.600    5.600    0.000 
#    0.000    0.000    4.400    0.000    0.000    0.000 
#    0.000    0.000    0.000    0.000    0.000    0.000 
#
# Total GULP energy -111353.785265 kJ/mol
# GULP energy per Si atom -5567.689263 kJ/mol
# Density = 1.832118 g / cm^3
# Si number density = 18.362975 Si / 1000 Ang^3
#
#
#
# Elastic Constant Matrix: (Units=GPa)
#
#
# Indices 1 2 3 4 5 6 
#
# 1 78.2420 10.4019 14.2311 0.0000 0.0000 0.0000
# 2 10.4019 78.8290 12.0838 0.0000 0.0000 0.0000
# 3 14.2311 12.0838 82.2811 0.0000 0.0000 0.0000
# 4 0.0000 0.0000 0.0000 1.8227 0.0000 0.0000
# 5 0.0000 0.0000 0.0000 0.0000 25.6689 0.0000
# 6 0.0000 0.0000 0.0000 0.0000 0.0000 13.2053
#
#
#
# Elastic Compliance Matrix: (Units=1/GPa)
#
#
# Indices 1 2 3 4 5 6 
#
# 1 0.013354 -0.001440 -0.002098 0.000000 0.000000 0.000000
# 2 -0.001440 0.013133 -0.001680 0.000000 0.000000 0.000000
# 3 -0.002098 -0.001680 0.012763 0.000000 0.000000 0.000000
# 4 0.000000 0.000000 0.000000 0.548642 0.000000 0.000000
# 5 0.000000 0.000000 0.000000 0.000000 0.038958 0.000000
# 6 0.000000 0.000000 0.000000 0.000000 0.000000 0.075727
#
#
# Mechanical properties :
#
#
# Convention : Reuss Voigt Hill
#
# Bulk Modulus (GPa) = 34.70561 34.75397 34.72979
# Shear Modulus (GPa) = 6.91929 21.64840 14.28384
#
# Velocity S-wave (km/s) = 1.94326 3.43726 2.79204
# Velocity P-wave (km/s) = 4.89651 5.89238 5.41738
#
# Compressibility (1/GPa) = 0.02881379
#
# Stress axis : x y z
#
# Youngs Moduli (GPa) = 74.88402 76.14266 78.35139
#
# Poissons Ratio (x) = 0.10968 0.16439
# Poissons Ratio (y) = 0.10787 0.13160
# Poissons Ratio (z) = 0.15712 0.12789
#
# Static dielectric constant tensor:
#      x y z
#    x 1.706750 0.000000 0.000000 
#    y 0.000000 1.599830 0.000000 
#    z 0.000000 0.000000 1.626620 
# 
# From -- ./inp_files/34629.got.cif
#   From: 2010.05.17/outbox.cif.g08.bks.cpg/sg24_18_cif.got.tgz:34629.got - 2010.06.04 00:33:39.
