data_PCOD9335194
_publ_section_title
;
Structure prediction by ZEFSAII (Michael W. Deem and Ramdas Pophale) SiO2 
 PCOD9335194
Probable space group: I 21 21 21
;
_chemical_formula_sum "Si O2"
_cell_formula_units_Z 44
_cell_length_a 14.294416
_cell_length_b 5.280165
_cell_length_c 27.454455
_cell_angle_alpha 90.000000
_cell_angle_beta 90.000000
_cell_angle_gamma 90.000000
_cell_volume 2072.176470
_symmetry_space_group_name_H-M "I 21 21 21"
_symmetry_group_IT_number 24
_symmetry_cell_setting 'orthorhombic'
loop_
_space_group_symop_operation_xyz
x,y,z
-x,1/2-y,z
x,-y,1/2-z
1/2-x,y,-z
1/2+x,1/2+y,1/2+z
1/2-x,-y,1/2+z
1/2+x,1/2-y,-z
-x,1/2+y,1/2-z
loop_
_atom_site_type_symbol
_atom_site_label
_atom_site_fract_x
_atom_site_fract_y
_atom_site_fract_z
Si Si1 0.232899 0.500000 0.750000
Si Si2 0.798761 0.676716 0.948439
Si Si3 0.441648 0.997578 0.691350
Si Si4 0.757365 0.695681 0.157762
Si Si5 0.891149 0.307290 0.816253
Si Si6 0.106001 0.657443 0.578505
O O1 0.281458 0.395378 0.701157
O O2 0.166948 0.280260 0.770217
O O3 0.739294 0.749388 0.899874
O O4 0.832229 0.387315 0.942311
O O5 0.879904 0.887764 0.946052
O O6 0.750000 0.704446 0.000000
O O7 0.500000 0.750000 0.678227
O O8 0.500000 0.250000 0.677829
O O9 0.429585 0.000000 0.750000
O O10 0.339319 0.992461 0.667554
O O11 0.653489 0.576557 0.167885
O O12 0.870118 0.137813 0.863997
O O13 0.000000 0.250000 0.806362
O O14 0.000000 0.750000 0.576210
#
# Coordination Sequence:
#
# PCOD9335194 Si02
#       6
#     4   8   8   8   8   8
#     4  12  22  36  64  94 136 174 210 264 320 394
#     4  11  23  43  67  94 126 172 216 270 326 387
#     4  10  23  40  65  91 124 167 215 270 331 386
#     4  11  25  41  63  96 131 171 220 270 330 391
#     4  10  23  37  59  94 138 175 211 255 318 396
#     4  10  21  42  66  95 129 171 215 262 321 389
#
# _framework density 21.233713000000002
#
# number of rings (size 3 to 8) (size 9 to 14) (size 15 to 20)
#    0.000    1.455    1.818    2.727    8.909    0.000 
#    0.000    2.727    0.000    0.000    0.000    0.000 
#    0.000    0.000    0.000    0.000    0.000    0.000 
#
# Total GULP energy -122722.644715 kJ/mol
# GULP energy per Si atom -5578.302033 kJ/mol
# Density = 2.118538 g / cm^3
# Si number density = 21.233713 Si / 1000 Ang^3
#
#
#
# Elastic Constant Matrix: (Units=GPa)
#
#
# Indices 1 2 3 4 5 6 
#
# 1 73.4502 18.1247 34.3465 0.0000 0.0000 0.0000
# 2 18.1247 90.1760 28.0618 0.0000 0.0000 0.0000
# 3 34.3465 28.0618 137.8568 0.0000 0.0000 0.0000
# 4 0.0000 0.0000 0.0000 25.2576 0.0000 0.0000
# 5 0.0000 0.0000 0.0000 0.0000 8.4456 0.0000
# 6 0.0000 0.0000 0.0000 0.0000 0.0000 19.9901
#
#
#
# Elastic Compliance Matrix: (Units=1/GPa)
#
#
# Indices 1 2 3 4 5 6 
#
# 1 0.015767 -0.002078 -0.003505 0.000000 0.000000 0.000000
# 2 -0.002078 0.012113 -0.001948 0.000000 0.000000 0.000000
# 3 -0.003505 -0.001948 0.008524 0.000000 0.000000 0.000000
# 4 0.000000 0.000000 0.000000 0.039592 0.000000 0.000000
# 5 0.000000 0.000000 0.000000 0.000000 0.118405 0.000000
# 6 0.000000 0.000000 0.000000 0.000000 0.000000 0.050025
#
#
# Mechanical properties :
#
#
# Convention : Reuss Voigt Hill
#
# Bulk Modulus (GPa) = 46.85829 51.39435 49.12632
# Shear Modulus (GPa) = 18.75459 25.46867 22.11163
#
# Velocity S-wave (km/s) = 2.97517 3.46706 3.23049
# Velocity P-wave (km/s) = 5.82391 6.34697 6.09106
#
# Compressibility (1/GPa) = 0.02134094
#
# Stress axis : x y z
#
# Youngs Moduli (GPa) = 63.42542 82.55381 117.31961
#
# Poissons Ratio (x) = 0.17156 0.41122
# Poissons Ratio (y) = 0.13181 0.22854
# Poissons Ratio (z) = 0.22232 0.16081
#
# Static dielectric constant tensor:
#      x y z
#    x 1.799670 0.000000 0.000000 
#    y 0.000000 1.851950 0.000000 
#    z 0.000000 0.000000 1.772810 
# 
# From -- ./inp_files/23851.got.cif
#   From: 2010.05.17/outbox.cif.g08.bks.cpg/sg24_12_cif.got.tgz:23851.got - 2010.06.04 00:33:39.
