data_PCOD9335304
_publ_section_title
;
Structure prediction by ZEFSAII (Michael W. Deem and Ramdas Pophale) SiO2 
 PCOD9335304
Probable space group: I 21 21 21
;
_chemical_formula_sum "Si O2"
_cell_formula_units_Z 64
_cell_length_a 21.346512
_cell_length_b 5.789095
_cell_length_c 21.899581
_cell_angle_alpha 90.000000
_cell_angle_beta 90.000000
_cell_angle_gamma 90.000000
_cell_volume 2706.284212
_symmetry_space_group_name_H-M "I 21 21 21"
_symmetry_group_IT_number 24
_symmetry_cell_setting 'orthorhombic'
loop_
_space_group_symop_operation_xyz
x,y,z
-x,1/2-y,z
x,-y,1/2-z
1/2-x,y,-z
1/2+x,1/2+y,1/2+z
1/2-x,-y,1/2+z
1/2+x,1/2-y,-z
-x,1/2+y,1/2-z
loop_
_atom_site_type_symbol
_atom_site_label
_atom_site_fract_x
_atom_site_fract_y
_atom_site_fract_z
Si Si1 0.138301 0.128414 0.392511
Si Si2 0.076209 0.242056 0.921855
Si Si3 0.816119 0.989823 0.315346
Si Si4 0.273656 0.991018 0.068908
Si Si5 0.777606 0.985028 0.569817
Si Si6 0.575152 0.759880 0.013466
Si Si7 0.068076 0.853459 0.311331
Si Si8 0.575628 0.749713 0.277317
O O1 0.146275 0.280505 0.332420
O O2 0.205989 0.009700 0.398009
O O3 0.119083 0.262473 0.453262
O O4 0.079967 0.970416 0.376936
O O5 0.090250 0.494568 0.953281
O O6 0.089695 0.245799 0.849116
O O7 0.000000 0.250000 0.923488
O O8 0.088807 0.989729 0.954034
O O9 0.773240 0.966117 0.375279
O O10 0.870759 0.805769 0.307732
O O11 0.781539 0.000000 0.250000
O O12 0.303485 0.742156 0.082110
O O13 0.309641 0.233108 0.076013
O O14 0.250000 0.985810 0.000000
O O15 0.750000 0.987902 0.500000
O O16 0.500000 0.750000 0.001033
O O17 0.000000 0.750000 0.314356
O O18 0.067036 0.000000 0.250000
O O19 0.500000 0.750000 0.268037
O O20 0.598351 0.500000 0.250000
O O21 0.597929 0.000000 0.250000
#
# Coordination Sequence:
#
# PCOD9335304 Si02
#       8
#     8   8   8   8   8   8   8   8
#     4  11  24  37  56  81 111 157 215 261 320 379
#     4   9  18  33  45  68 103 139 180 234 291 348
#     4  11  22  39  58  83 120 163 212 272 325 379
#     4   9  18  35  58  84 113 141 181 249 313 377
#     4   9  18  34  58  87 117 149 189 251 319 386
#     4  10  22  33  49  68 105 152 196 244 293 351
#     4  12  26  39  55  78 119 171 228 277 320 370
#     4   9  15  24  44  68  93 125 164 214 279 349
#
# _framework density 23.648661000000001
#
# number of rings (size 3 to 8) (size 9 to 14) (size 15 to 20)
#    0.000    2.000    2.500    1.125    3.500    3.500 
#    0.000    0.000    0.000    0.000    0.000    0.000 
#    0.000  103.000    0.000    0.000    0.000    0.000 
#
# Total GULP energy -178278.558625 kJ/mol
# GULP energy per Si atom -5571.204957 kJ/mol
# Density = 2.359484 g / cm^3
# Si number density = 23.648661 Si / 1000 Ang^3
#
#
#
# Elastic Constant Matrix: (Units=GPa)
#
#
# Indices 1 2 3 4 5 6 
#
# 1 49.4001 54.0822 26.6734 0.0000 0.0000 0.0000
# 2 54.0822 197.9421 62.3520 0.0000 0.0000 0.0000
# 3 26.6734 62.3520 142.1146 0.0000 0.0000 0.0000
# 4 0.0000 0.0000 0.0000 27.3251 0.0000 0.0000
# 5 0.0000 0.0000 0.0000 0.0000 37.7297 0.0000
# 6 0.0000 0.0000 0.0000 0.0000 0.0000 51.1602
#
#
#
# Elastic Compliance Matrix: (Units=1/GPa)
#
#
# Indices 1 2 3 4 5 6 
#
# 1 0.029529 -0.007336 -0.002324 0.000000 0.000000 0.000000
# 2 -0.007336 0.007685 -0.001995 0.000000 0.000000 0.000000
# 3 -0.002324 -0.001995 0.008348 0.000000 0.000000 0.000000
# 4 0.000000 0.000000 0.000000 0.036596 0.000000 0.000000
# 5 0.000000 0.000000 0.000000 0.000000 0.026504 0.000000
# 6 0.000000 0.000000 0.000000 0.000000 0.000000 0.019546
#
#
# Mechanical properties :
#
#
# Convention : Reuss Voigt Hill
#
# Bulk Modulus (GPa) = 44.93837 75.07466 60.00652
# Shear Modulus (GPa) = 31.45945 39.66628 35.56286
#
# Velocity S-wave (km/s) = 3.65126 4.09995 3.88209
# Velocity P-wave (km/s) = 6.06790 7.36393 6.74711
#
# Compressibility (1/GPa) = 0.02225270
#
# Stress axis : x y z
#
# Youngs Moduli (GPa) = 33.86524 130.12898 119.79108
#
# Poissons Ratio (x) = 0.95463 0.27835
# Poissons Ratio (y) = 0.24844 0.23895
# Poissons Ratio (z) = 0.07869 0.25957
#
# Static dielectric constant tensor:
#      x y z
#    x 2.140190 0.000000 0.000000 
#    y 0.000000 1.880180 0.000000 
#    z 0.000000 0.000000 1.838470 
# 
# From -- ./inp_files/34363.got.cif
#   From: 2010.05.17/outbox.cif.g08.bks.cpg/sg24_18_cif.got.tgz:34363.got - 2010.06.04 00:33:39.
