data_PCOD9335588
_publ_section_title
;
Structure prediction by ZEFSAII (Michael W. Deem and Ramdas Pophale) SiO2 
 PCOD9335588
Probable space group: I 21 21 21
;
_chemical_formula_sum "Si O2"
_cell_formula_units_Z 40
_cell_length_a 24.044687
_cell_length_b 8.691633
_cell_length_c 8.049284
_cell_angle_alpha 90.000000
_cell_angle_beta 90.000000
_cell_angle_gamma 90.000000
_cell_volume 1682.200505
_symmetry_space_group_name_H-M "I 21 21 21"
_symmetry_group_IT_number 24
_symmetry_cell_setting 'orthorhombic'
loop_
_space_group_symop_operation_xyz
x,y,z
-x,1/2-y,z
x,-y,1/2-z
1/2-x,y,-z
1/2+x,1/2+y,1/2+z
1/2-x,-y,1/2+z
1/2+x,1/2-y,-z
-x,1/2+y,1/2-z
loop_
_atom_site_type_symbol
_atom_site_label
_atom_site_fract_x
_atom_site_fract_y
_atom_site_fract_z
Si Si1 0.754786 0.322489 0.800854
Si Si2 0.850898 0.885157 0.626288
Si Si3 0.940568 0.677682 0.963556
Si Si4 0.340619 0.626719 0.879183
Si Si5 0.942105 0.325555 0.941704
O O1 0.757718 0.500000 0.750000
O O2 0.812104 0.231456 0.773739
O O3 0.705835 0.234788 0.703765
O O4 0.750000 0.316528 0.000000
O O5 0.890880 0.783133 0.513670
O O6 0.884181 0.000000 0.750000
O O7 0.816833 0.007832 0.517989
O O8 0.890330 0.772240 0.044613
O O9 0.000000 0.750000 0.011621
O O10 0.936742 0.497535 0.007389
O O11 0.939193 0.677277 0.761070
O O12 0.362681 0.500000 0.750000
O O13 0.000000 0.250000 0.991979
#
# Coordination Sequence:
#
# PCOD9335588 Si02
#       5
#     8   8   8   8   8
#     4  12  31  50  72 103 147 198 250 308 375 442
#     4  12  26  45  75 109 146 195 248 302 365 436
#     4  10  22  43  75 112 152 196 242 299 364 434
#     4  12  26  50  74 105 151 193 246 304 368 439
#     4  10  22  41  75 115 152 190 247 301 357 434
#
# _framework density 23.778378
#
# number of rings (size 3 to 8) (size 9 to 14) (size 15 to 20)
#    0.000    0.800    4.000    1.800   11.200    0.000 
#    0.000    4.000    0.000    0.000    0.000    0.000 
#    0.000    0.000    0.000    0.000    0.000    0.000 
#
# Total GULP energy -111871.027940 kJ/mol
# GULP energy per Si atom -5593.551397 kJ/mol
# Density = 2.372426 g / cm^3
# Si number density = 23.778378 Si / 1000 Ang^3
#
#
#
# Elastic Constant Matrix: (Units=GPa)
#
#
# Indices 1 2 3 4 5 6 
#
# 1 176.9495 116.8697 26.0722 0.0000 0.0000 0.0000
# 2 116.8697 269.2993 52.9516 0.0000 0.0000 0.0000
# 3 26.0722 52.9516 25.5249 0.0000 0.0000 0.0000
# 4 0.0000 0.0000 0.0000 43.8426 0.0000 0.0000
# 5 0.0000 0.0000 0.0000 0.0000 19.4542 0.0000
# 6 0.0000 0.0000 0.0000 0.0000 0.0000 48.3803
#
#
#
# Elastic Compliance Matrix: (Units=1/GPa)
#
#
# Indices 1 2 3 4 5 6 
#
# 1 0.007962 -0.003135 -0.001629 0.000000 0.000000 0.000000
# 2 -0.003135 0.007506 -0.012369 0.000000 0.000000 0.000000
# 3 -0.001629 -0.012369 0.066501 0.000000 0.000000 0.000000
# 4 0.000000 0.000000 0.000000 0.022809 0.000000 0.000000
# 5 0.000000 0.000000 0.000000 0.000000 0.051403 0.000000
# 6 0.000000 0.000000 0.000000 0.000000 0.000000 0.020670
#
#
# Mechanical properties :
#
#
# Convention : Reuss Voigt Hill
#
# Bulk Modulus (GPa) = 20.96318 95.95120 58.45719
# Shear Modulus (GPa) = 22.02481 40.72743 31.37612
#
# Velocity S-wave (km/s) = 3.04674 4.14308 3.63646
# Velocity P-wave (km/s) = 4.60566 7.95781 6.50149
#
# Compressibility (1/GPa) = 0.04770269
#
# Stress axis : x y z
#
# Youngs Moduli (GPa) = 125.59800 133.22864 15.03741
#
# Poissons Ratio (x) = 0.41767 0.02450
# Poissons Ratio (y) = 0.39374 0.18600
# Poissons Ratio (z) = 0.20462 1.64789
#
# Static dielectric constant tensor:
#      x y z
#    x 1.871190 0.000000 0.000000 
#    y 0.000000 1.843910 0.000000 
#    z 0.000000 0.000000 2.099340 
# 
# From -- ./inp_files/15643.got.cif
#   From: 2010.05.17/outbox.cif.g08.bks.cpg/sg24_8_cif.got.tgz:15643.got - 2010.06.04 00:33:39.
