data_PCOD9335804
_publ_section_title
;
Structure prediction by ZEFSAII (Michael W. Deem and Ramdas Pophale) SiO2 
 PCOD9335804
Probable space group: I 21 21 21
;
_chemical_formula_sum "Si O2"
_cell_formula_units_Z 40
_cell_length_a 8.628574
_cell_length_b 17.732648
_cell_length_c 11.781273
_cell_angle_alpha 90.000000
_cell_angle_beta 90.000000
_cell_angle_gamma 90.000000
_cell_volume 1802.622722
_symmetry_space_group_name_H-M "I 21 21 21"
_symmetry_group_IT_number 24
_symmetry_cell_setting 'orthorhombic'
loop_
_space_group_symop_operation_xyz
x,y,z
-x,1/2-y,z
x,-y,1/2-z
1/2-x,y,-z
1/2+x,1/2+y,1/2+z
1/2-x,-y,1/2+z
1/2+x,1/2-y,-z
-x,1/2+y,1/2-z
loop_
_atom_site_type_symbol
_atom_site_label
_atom_site_fract_x
_atom_site_fract_y
_atom_site_fract_z
Si Si1 0.665533 0.915153 0.239149
Si Si2 0.504135 0.160002 0.703611
Si Si3 0.439115 0.569145 0.002760
Si Si4 0.588783 0.817020 0.441563
Si Si5 0.604165 0.581366 0.585117
O O1 0.816783 0.863944 0.224443
O O2 0.598384 0.886981 0.357224
O O3 0.723316 0.000000 0.250000
O O4 0.540826 0.917207 0.137300
O O5 0.500000 0.250000 0.720215
O O6 0.486309 0.135400 0.572100
O O7 0.393974 0.104983 0.781428
O O8 0.502211 0.492419 0.945282
O O9 0.250000 0.567825 0.000000
O O10 0.500000 0.750000 0.379642
O O11 0.750000 0.796832 0.500000
O O12 0.482007 0.843741 0.542920
O O13 0.750000 0.574044 0.500000
#
# Coordination Sequence:
#
# PCOD9335804 Si02
#       5
#     8   8   8   8   8
#     4  11  22  44  76  99 132 189 246 286 347 431
#     4  11  24  42  70 101 142 182 234 294 354 420
#     4  10  22  46  73  98 132 192 244 288 351 429
#     4  12  25  42  70 103 143 179 236 297 361 420
#     4  12  24  42  70 103 142 181 236 293 359 422
#
# _framework density 22.189892
#
# number of rings (size 3 to 8) (size 9 to 14) (size 15 to 20)
#    0.000    0.800    4.000    4.800    2.800    0.800 
#    7.200    3.000    0.000    0.000    0.000    0.000 
#    0.000    0.000    0.000    0.000    0.000    0.000 
#
# Total GULP energy -111474.024021 kJ/mol
# GULP energy per Si atom -5573.701201 kJ/mol
# Density = 2.213939 g / cm^3
# Si number density = 22.189892 Si / 1000 Ang^3
#
#
#
# Elastic Constant Matrix: (Units=GPa)
#
#
# Indices 1 2 3 4 5 6 
#
# 1 57.5562 31.2426 35.2812 0.0000 0.0000 0.0000
# 2 31.2426 156.4657 47.3610 0.0000 0.0000 0.0000
# 3 35.2812 47.3610 124.0188 0.0001 0.0000 0.0000
# 4 0.0000 0.0000 0.0001 25.2679 0.0000 0.0000
# 5 0.0000 0.0000 0.0000 0.0000 16.5236 0.0000
# 6 0.0000 0.0000 0.0000 0.0000 0.0000 27.2802
#
#
#
# Elastic Compliance Matrix: (Units=1/GPa)
#
#
# Indices 1 2 3 4 5 6 
#
# 1 0.022106 -0.002839 -0.005205 0.000000 0.000000 0.000000
# 2 -0.002839 0.007591 -0.002091 0.000000 0.000000 0.000000
# 3 -0.005205 -0.002091 0.010343 0.000000 0.000000 0.000000
# 4 0.000000 0.000000 0.000000 0.039576 0.000000 0.000000
# 5 0.000000 0.000000 0.000000 0.000000 0.060520 0.000000
# 6 0.000000 0.000000 0.000000 0.000000 0.000000 0.036657
#
#
# Mechanical properties :
#
#
# Convention : Reuss Voigt Hill
#
# Bulk Modulus (GPa) = 50.58172 62.86779 56.72476
# Shear Modulus (GPa) = 24.55187 28.75806 26.65497
#
# Velocity S-wave (km/s) = 3.32993 3.60390 3.46962
# Velocity P-wave (km/s) = 6.13425 6.76097 6.45522
#
# Compressibility (1/GPa) = 0.01976999
#
# Stress axis : x y z
#
# Youngs Moduli (GPa) = 45.23758 131.73473 96.68759
#
# Poissons Ratio (x) = 0.37394 0.50322
# Poissons Ratio (y) = 0.12841 0.20221
# Poissons Ratio (z) = 0.23545 0.27551
#
# Static dielectric constant tensor:
#      x y z
#    x 1.874790 0.000000 0.000000 
#    y 0.000000 1.817770 0.000000 
#    z 0.000000 0.000000 2.021720 
# 
# From -- ./inp_files/18207.got.cif
#   From: 2010.05.17/outbox.cif.g08.bks.cpg/sg24_10_cif.got.tgz:18207.got - 2010.06.04 00:33:39.
