data_PCOD9335337
_publ_section_title
;
Structure prediction by ZEFSAII (Michael W. Deem and Ramdas Pophale) SiO2 
 PCOD9335337
Probable space group: I 21 21 21
;
_chemical_formula_sum "Si O2"
_cell_formula_units_Z 56
_cell_length_a 18.988068
_cell_length_b 14.717942
_cell_length_c 10.227020
_cell_angle_alpha 90.000000
_cell_angle_beta 90.000000
_cell_angle_gamma 90.000000
_cell_volume 2858.097044
_symmetry_space_group_name_H-M "I 21 21 21"
_symmetry_group_IT_number 24
_symmetry_cell_setting 'orthorhombic'
loop_
_space_group_symop_operation_xyz
x,y,z
-x,1/2-y,z
x,-y,1/2-z
1/2-x,y,-z
1/2+x,1/2+y,1/2+z
1/2-x,-y,1/2+z
1/2+x,1/2-y,-z
-x,1/2+y,1/2-z
loop_
_atom_site_type_symbol
_atom_site_label
_atom_site_fract_x
_atom_site_fract_y
_atom_site_fract_z
Si Si1 0.250000 0.040605 0.500000
Si Si2 0.853388 0.864077 0.069316
Si Si3 0.781714 0.732290 0.644640
Si Si4 0.154092 0.173707 0.324760
Si Si5 0.700912 0.100778 0.300461
Si Si6 0.560321 0.000000 0.750000
Si Si7 0.375662 0.930756 0.362387
Si Si8 0.534723 0.353388 0.892569
O O1 0.195419 0.100153 0.412993
O O2 0.304604 0.979741 0.417760
O O3 0.873137 0.758962 0.091298
O O4 0.775139 0.877496 0.129068
O O5 0.897712 0.935035 0.151935
O O6 0.854452 0.884147 0.915943
O O7 0.750000 0.723148 0.500000
O O8 0.715676 0.711020 0.734048
O O9 0.807567 0.832637 0.678095
O O10 0.843031 0.663717 0.687384
O O11 0.092991 0.146379 0.224146
O O12 0.700969 0.000000 0.250000
O O13 0.519820 0.928006 0.658804
O O14 0.428141 0.896454 0.477566
O O15 0.403327 0.000000 0.250000
O O16 0.500000 0.250000 0.907417
#
# Coordination Sequence:
#
# PCOD9335337 Si02
#       8
#     4   8   8   8   8   4   8   8
#     4  12  22  38  74 110 142 160 228 314 376 420
#     4  10  22  39  61  94 136 168 227 279 338 411
#     4  11  21  37  66 101 134 168 217 290 367 413
#     4  11  21  41  67 102 133 174 224 291 363 413
#     4  10  22  36  62 101 130 171 211 284 352 405
#     4  12  24  46  70  96 130 194 244 276 330 442
#     4  12  25  43  67 104 138 178 226 298 370 418
#     4  12  26  45  70  99 142 198 246 282 346 449
#
# _framework density 19.593456
#
# number of rings (size 3 to 8) (size 9 to 14) (size 15 to 20)
#    0.000    0.857    5.714    2.571    2.000    1.143 
#    0.000    2.143    0.000    0.000    0.000    0.000 
#    0.000    0.000    0.000    0.000    0.000    0.000 
#
# Total GULP energy -156046.627028 kJ/mol
# GULP energy per Si atom -5573.093822 kJ/mol
# Density = 1.954886 g / cm^3
# Si number density = 19.593456 Si / 1000 Ang^3
#
#
#
# Elastic Constant Matrix: (Units=GPa)
#
#
# Indices 1 2 3 4 5 6 
#
# 1 63.4957 32.5945 23.3242 0.0000 0.0000 0.0000
# 2 32.5945 137.3511 41.4370 0.0000 0.0000 0.0000
# 3 23.3242 41.4370 74.2758 0.0000 0.0000 0.0000
# 4 0.0000 0.0000 0.0000 99.0824 0.0000 0.0000
# 5 0.0000 0.0000 0.0000 0.0000 13.8809 0.0000
# 6 0.0000 0.0000 0.0000 0.0000 0.0000 26.3807
#
#
#
# Elastic Compliance Matrix: (Units=1/GPa)
#
#
# Indices 1 2 3 4 5 6 
#
# 1 0.018934 -0.003246 -0.004135 0.000000 0.000000 0.000000
# 2 -0.003246 0.009310 -0.004175 0.000000 0.000000 0.000000
# 3 -0.004135 -0.004175 0.017091 0.000000 0.000000 0.000000
# 4 0.000000 0.000000 0.000000 0.010093 0.000000 0.000000
# 5 0.000000 0.000000 0.000000 0.000000 0.072042 0.000000
# 6 0.000000 0.000000 0.000000 0.000000 0.000000 0.037906
#
#
# Mechanical properties :
#
#
# Convention : Reuss Voigt Hill
#
# Bulk Modulus (GPa) = 44.99590 52.20377 48.59984
# Shear Modulus (GPa) = 25.52383 39.71992 32.62187
#
# Velocity S-wave (km/s) = 3.61317 4.50733 4.08479
# Velocity P-wave (km/s) = 6.35777 7.33412 6.86333
#
# Compressibility (1/GPa) = 0.02222425
#
# Stress axis : x y z
#
# Youngs Moduli (GPa) = 52.81452 107.40740 58.51073
#
# Poissons Ratio (x) = 0.34862 0.24194
# Poissons Ratio (y) = 0.17142 0.24427
# Poissons Ratio (z) = 0.21839 0.44841
#
# Static dielectric constant tensor:
#      x y z
#    x 1.781350 0.000000 0.000000 
#    y 0.000000 1.740060 0.000000 
#    z 0.000000 0.000000 1.772420 
# 
# From -- ./inp_files/15289.got.cif
#   From: 2010.05.17/outbox.cif.g08.bks.cpg/sg24_8_cif.got.tgz:15289.got - 2010.06.04 00:33:39.
