data_PCOD9335345
_publ_section_title
;
Structure prediction by ZEFSAII (Michael W. Deem and Ramdas Pophale) SiO2 
 PCOD9335345
Probable space group: I 21 21 21
;
_chemical_formula_sum "Si O2"
_cell_formula_units_Z 40
_cell_length_a 5.026604
_cell_length_b 17.673201
_cell_length_c 19.659221
_cell_angle_alpha 90.000000
_cell_angle_beta 90.000000
_cell_angle_gamma 90.000000
_cell_volume 1746.450151
_symmetry_space_group_name_H-M "I 21 21 21"
_symmetry_group_IT_number 24
_symmetry_cell_setting 'orthorhombic'
loop_
_space_group_symop_operation_xyz
x,y,z
-x,1/2-y,z
x,-y,1/2-z
1/2-x,y,-z
1/2+x,1/2+y,1/2+z
1/2-x,-y,1/2+z
1/2+x,1/2-y,-z
-x,1/2+y,1/2-z
loop_
_atom_site_type_symbol
_atom_site_label
_atom_site_fract_x
_atom_site_fract_y
_atom_site_fract_z
Si Si1 0.389253 0.500000 0.750000
Si Si2 0.498049 0.664060 0.048628
Si Si3 0.259004 0.805030 0.428018
Si Si4 0.284266 0.888856 0.831762
Si Si5 0.930996 0.854217 0.705330
Si Si6 0.500000 0.250000 0.720685
O O1 0.570083 0.536150 0.808939
O O2 0.221560 0.566217 0.714231
O O3 0.500000 0.750000 0.077028
O O4 0.570069 0.607185 0.109108
O O5 0.750000 0.661060 0.000000
O O6 0.250000 0.649106 0.000000
O O7 0.500000 0.750000 0.445382
O O8 0.250000 0.851117 0.500000
O O9 0.610739 0.653124 0.362660
O O10 0.000000 0.750000 0.414508
O O11 0.489435 0.819340 0.835851
O O12 0.139211 0.856521 0.765804
O O13 0.718833 0.788567 0.726743
#
# Coordination Sequence:
#
# PCOD9335345 Si02
#       6
#     4   8   8   8   8   4
#     4  10  26  42  68 106 148 196 242 304 362 428
#     4  10  23  39  66 105 144 176 224 296 368 426
#     4  10  23  41  68 110 149 182 234 306 375 430
#     4  11  23  41  68 104 145 186 243 296 360 434
#     4  11  23  41  71 105 148 184 248 301 362 429
#     4  10  22  36  70 112 138 186 238 306 362 424
#
# _framework density 22.903600999999998
#
# number of rings (size 3 to 8) (size 9 to 14) (size 15 to 20)
#    0.000    1.600    0.000    3.600   18.200    0.000 
#    0.000    0.000    0.000    7.200   10.400    1.400 
#    0.000    0.000    0.000    0.000    0.000    0.000 
#
# Total GULP energy -111350.941051 kJ/mol
# GULP energy per Si atom -5567.547053 kJ/mol
# Density = 2.285147 g / cm^3
# Si number density = 22.903601 Si / 1000 Ang^3
#
#
#
# Elastic Constant Matrix: (Units=GPa)
#
#
# Indices 1 2 3 4 5 6 
#
# 1 100.7056 30.8665 30.2009 0.0000 0.0000 0.0000
# 2 30.8665 110.6136 30.8036 0.0000 0.0000 0.0000
# 3 30.2009 30.8036 126.6829 0.0000 0.0000 0.0000
# 4 0.0000 0.0000 0.0000 6.2991 0.0000 0.0000
# 5 0.0000 0.0000 0.0000 0.0000 79.4814 0.0000
# 6 0.0000 0.0000 0.0000 0.0000 0.0000 48.5690
#
#
#
# Elastic Compliance Matrix: (Units=1/GPa)
#
#
# Indices 1 2 3 4 5 6 
#
# 1 0.011346 -0.002588 -0.002075 0.000000 0.000000 0.000000
# 2 -0.002588 0.010287 -0.001884 0.000000 0.000000 0.000000
# 3 -0.002075 -0.001884 0.008847 0.000000 0.000000 0.000000
# 4 0.000000 0.000000 0.000000 0.158753 0.000000 0.000000
# 5 0.000000 0.000000 0.000000 0.000000 0.012582 0.000000
# 6 0.000000 0.000000 0.000000 0.000000 0.000000 0.020589
#
#
# Mechanical properties :
#
#
# Convention : Reuss Voigt Hill
#
# Bulk Modulus (GPa) = 57.52455 57.97156 57.74806
# Shear Modulus (GPa) = 20.72161 43.27863 32.00012
#
# Velocity S-wave (km/s) = 3.01114 4.35167 3.74192
# Velocity P-wave (km/s) = 6.10408 7.11445 6.62854
#
# Compressibility (1/GPa) = 0.01738388
#
# Stress axis : x y z
#
# Youngs Moduli (GPa) = 88.14009 97.20593 113.03610
#
# Poissons Ratio (x) = 0.25157 0.23460
# Poissons Ratio (y) = 0.22811 0.21301
# Poissons Ratio (z) = 0.18293 0.18318
#
# Static dielectric constant tensor:
#      x y z
#    x 2.351530 0.000000 0.000000 
#    y 0.000000 1.578240 0.000000 
#    z 0.000000 0.000000 1.930870 
# 
# From -- ./inp_files/4545.got.cif
#   From: 2010.05.17/outbox.cif.g08.bks.cpg/sg24_3_cif.got.tgz:4545.got - 2010.06.04 00:33:39.
