data_PCOD9335914
_publ_section_title
;
Structure prediction by ZEFSAII (Michael W. Deem and Ramdas Pophale) SiO2 
 PCOD9335914
Probable space group: I 21 21 21
;
_chemical_formula_sum "Si O2"
_cell_formula_units_Z 48
_cell_length_a 8.571803
_cell_length_b 29.092620
_cell_length_c 8.453151
_cell_angle_alpha 90.000000
_cell_angle_beta 90.000000
_cell_angle_gamma 90.000000
_cell_volume 2108.014737
_symmetry_space_group_name_H-M "I 21 21 21"
_symmetry_group_IT_number 24
_symmetry_cell_setting 'orthorhombic'
loop_
_space_group_symop_operation_xyz
x,y,z
-x,1/2-y,z
x,-y,1/2-z
1/2-x,y,-z
1/2+x,1/2+y,1/2+z
1/2-x,-y,1/2+z
1/2+x,1/2-y,-z
-x,1/2+y,1/2-z
loop_
_atom_site_type_symbol
_atom_site_label
_atom_site_fract_x
_atom_site_fract_y
_atom_site_fract_z
Si Si1 0.542781 0.882483 0.677626
Si Si2 0.750000 0.043573 0.000000
Si Si3 0.468989 0.018231 0.447474
Si Si4 0.750000 0.653728 0.500000
Si Si5 0.750000 0.810305 0.500000
Si Si6 0.799401 0.500000 0.250000
Si Si7 0.985039 0.297876 0.764337
Si Si8 0.934141 0.116861 0.537654
O O1 0.649256 0.925639 0.622288
O O2 0.386231 0.877381 0.575236
O O3 0.653921 0.840914 0.624151
O O4 0.500201 0.877036 0.860657
O O5 0.874801 0.009586 0.925832
O O6 0.336238 0.985748 0.372732
O O7 0.492519 0.070333 0.389596
O O8 0.415477 0.025263 0.630549
O O9 0.667275 0.684675 0.362466
O O10 0.617263 0.787171 0.396819
O O11 0.033382 0.340547 0.652581
O O12 0.000000 0.250000 0.668263
O O13 0.750000 0.110194 0.500000
#
# Coordination Sequence:
#
# PCOD9335914 Si02
#       8
#     8   4   8   4   4   4   8   8
#     4  10  23  42  68 102 141 188 234 291 347 427
#     4  11  24  40  75  98 132 198 261 272 336 441
#     4  11  25  44  68 100 141 192 236 300 349 424
#     4  10  25  48  73 106 146 186 231 296 363 416
#     4   9  19  42  68  96 138 182 236 286 337 423
#     4  10  26  44  64 100 142 176 242 294 356 406
#     4  11  24  46  75 107 138 186 237 290 362 441
#     4  12  25  45  70 105 146 182 230 297 366 416
#
# _framework density 22.770239
#
# number of rings (size 3 to 8) (size 9 to 14) (size 15 to 20)
#    0.000    1.333    2.500    1.500    2.333    8.000 
#    3.000    0.833    0.000    0.000    0.000    0.000 
#    0.000    0.000    0.000    0.000    0.000    0.000 
#
# Total GULP energy -133651.965884 kJ/mol
# GULP energy per Si atom -5568.831912 kJ/mol
# Density = 2.271841 g / cm^3
# Si number density = 22.770239 Si / 1000 Ang^3
#
#
#
# Elastic Constant Matrix: (Units=GPa)
#
#
# Indices 1 2 3 4 5 6 
#
# 1 135.5855 44.9802 36.6119 -0.0006 0.0002 0.0001
# 2 44.9802 127.1259 50.8731 -0.0004 -0.0001 0.0000
# 3 36.6119 50.8731 101.9672 -0.0041 -0.0010 0.0002
# 4 -0.0006 -0.0004 -0.0041 18.0403 -0.0003 -0.0002
# 5 0.0002 -0.0001 -0.0010 -0.0003 29.2905 0.0003
# 6 0.0001 0.0000 0.0002 -0.0002 0.0003 17.8781
#
#
#
# Elastic Compliance Matrix: (Units=1/GPa)
#
#
# Indices 1 2 3 4 5 6 
#
# 1 0.008664 -0.002275 -0.001976 0.000000 0.000000 0.000000
# 2 -0.002275 0.010426 -0.004385 -0.000001 0.000000 0.000000
# 3 -0.001976 -0.004385 0.012704 0.000003 0.000000 0.000000
# 4 0.000000 -0.000001 0.000003 0.055431 0.000001 0.000001
# 5 0.000000 0.000000 0.000000 0.000001 0.034141 -0.000001
# 6 0.000000 0.000000 0.000000 0.000001 -0.000001 0.055934
#
#
# Mechanical properties :
#
#
# Convention : Reuss Voigt Hill
#
# Bulk Modulus (GPa) = 68.85726 69.95655 69.40691
# Shear Modulus (GPa) = 25.07375 28.52267 26.79821
#
# Velocity S-wave (km/s) = 3.32198 3.54309 3.43431
# Velocity P-wave (km/s) = 6.70967 6.89402 6.80247
#
# Compressibility (1/GPa) = 0.01452280
#
# Stress axis : x y z
#
# Youngs Moduli (GPa) = 115.42581 95.91597 78.71424
#
# Poissons Ratio (x) = 0.21818 0.15553
# Poissons Ratio (y) = 0.26256 0.34515
# Poissons Ratio (z) = 0.22806 0.42058
#
# Static dielectric constant tensor:
#      x y z
#    x 1.930060 0.000000 0.000000 
#    y 0.000000 1.912290 0.000000 
#    z 0.000000 0.000000 2.246070 
# 
# From -- ./inp_files/9828.got.cif
#   From: 2010.05.17/outbox.cif.g08.bks.cpg/sg24_5_cif.got.tgz:9828.got - 2010.06.04 00:33:39.
