data_PCOD9335998
_publ_section_title
;
Structure prediction by ZEFSAII (Michael W. Deem and Ramdas Pophale) SiO2 
 PCOD9335998
Probable space group: I 21 21 21
;
_chemical_formula_sum "Si O2"
_cell_formula_units_Z 20
_cell_length_a 4.648472
_cell_length_b 33.236326
_cell_length_c 5.586869
_cell_angle_alpha 90.000000
_cell_angle_beta 90.000000
_cell_angle_gamma 90.000000
_cell_volume 863.160817
_symmetry_space_group_name_H-M "I 21 21 21"
_symmetry_group_IT_number 24
_symmetry_cell_setting 'orthorhombic'
loop_
_space_group_symop_operation_xyz
x,y,z
-x,1/2-y,z
x,-y,1/2-z
1/2-x,y,-z
1/2+x,1/2+y,1/2+z
1/2-x,-y,1/2+z
1/2+x,1/2-y,-z
-x,1/2+y,1/2-z
loop_
_atom_site_type_symbol
_atom_site_label
_atom_site_fract_x
_atom_site_fract_y
_atom_site_fract_z
Si Si1 0.423967 0.000000 0.750000
Si Si2 0.750000 0.932022 0.000000
Si Si3 0.750000 0.817971 0.000000
Si Si4 0.000000 0.750000 0.664769
Si Si5 0.250000 0.874948 0.000000
O O1 0.250000 0.995513 0.500000
O O2 0.617358 0.039191 0.701356
O O3 0.486936 0.905663 0.109985
O O4 0.611441 0.787505 0.186292
O O5 0.490014 0.844729 0.888714
O O6 0.750000 0.734084 0.500000
#
# Coordination Sequence:
#
# PCOD9335998 Si02
#       5
#     4   4   4   4   4
#     4  12  26  50  84 114 148 202 272 330 374 468
#     4  11  24  46  75 112 146 200 258 316 389 454
#     4  11  23  46  72 106 154 194 244 314 368 450
#     4  12  24  42  78 108 138 198 256 300 364 452
#     4  10  23  44  73 104 158 194 238 310 395 444
#
# _framework density 23.170652
#
# number of rings (size 3 to 8) (size 9 to 14) (size 15 to 20)
#    0.000    0.800    2.000    6.000    0.000    0.000 
#    0.000   10.000    8.800    0.000    0.000    0.000 
#    0.000    0.000    0.000    0.000    0.000    0.000 
#
# Total GULP energy -55713.283367 kJ/mol
# GULP energy per Si atom -5571.328337 kJ/mol
# Density = 2.311791 g / cm^3
# Si number density = 23.170652 Si / 1000 Ang^3
#
#
#
# Elastic Constant Matrix: (Units=GPa)
#
#
# Indices 1 2 3 4 5 6 
#
# 1 216.6974 103.2794 74.3172 -0.0001 0.0000 0.0004
# 2 103.2794 164.6573 55.2031 0.0001 0.0001 0.0008
# 3 74.3172 55.2031 111.5579 -0.0010 0.0000 0.0012
# 4 -0.0001 0.0001 -0.0010 -0.9407 -0.0001 -0.0013
# 5 0.0000 0.0001 0.0000 -0.0001 44.9894 0.0000
# 6 0.0004 0.0008 0.0012 -0.0013 0.0000 100.1190
#
#
#
# Elastic Compliance Matrix: (Units=1/GPa)
#
#
# Indices 1 2 3 4 5 6 
#
# 1 0.007408 -0.003587 -0.003160 0.000002 0.000000 0.000000
# 2 -0.003587 0.009018 -0.002073 0.000003 0.000000 0.000000
# 3 -0.003160 -0.002073 0.012095 -0.000013 0.000000 0.000000
# 4 0.000002 0.000003 -0.000013 -1.063077 -0.000002 -0.000014
# 5 0.000000 0.000000 0.000000 -0.000002 0.022227 0.000000
# 6 0.000000 0.000000 0.000000 -0.000014 0.000000 0.009988
#
#
# Mechanical properties :
#
#
# Convention : Reuss Voigt Hill
#
# Bulk Modulus (GPa) = 91.90350 106.50135 99.20243
# Shear Modulus (GPa) = -5.09646 46.17440 20.53897
#
# Velocity S-wave (km/s) = -1.48469 4.46892 2.98051
# Velocity P-wave (km/s) = 6.06719 8.52596 7.39942
#
# Compressibility (1/GPa) = 0.01088098
#
# Stress axis : x y z
#
# Youngs Moduli (GPa) = 134.98562 110.88654 82.68011
#
# Poissons Ratio (x) = 0.39778 0.26127
# Poissons Ratio (y) = 0.48423 0.17138
# Poissons Ratio (z) = 0.42656 0.22985
#
# Static dielectric constant tensor:
#      x y z
#    x 1.910860 0.000000 0.000000 
#    y 0.000000 1.933790 0.000000 
#    z 0.000000 0.000000 1.839780 
# 
# From -- ./inp_files/371.got.cif
#   From: 2010.05.17/outbox.cif.g08.bks.cpg/sg24_1_cif.got.tgz:371.got - 2010.06.04 00:33:39.
