data_PCOD9335178
_publ_section_title
;
Structure prediction by ZEFSAII (Michael W. Deem and Ramdas Pophale) SiO2 
 PCOD9335178
Probable space group: I 21 21 21
;
_chemical_formula_sum "Si O2"
_cell_formula_units_Z 48
_cell_length_a 8.290560
_cell_length_b 9.681076
_cell_length_c 28.981460
_cell_angle_alpha 90.000000
_cell_angle_beta 90.000000
_cell_angle_gamma 90.000000
_cell_volume 2326.096653
_symmetry_space_group_name_H-M "I 21 21 21"
_symmetry_group_IT_number 24
_symmetry_cell_setting 'orthorhombic'
loop_
_space_group_symop_operation_xyz
x,y,z
-x,1/2-y,z
x,-y,1/2-z
1/2-x,y,-z
1/2+x,1/2+y,1/2+z
1/2-x,-y,1/2+z
1/2+x,1/2-y,-z
-x,1/2+y,1/2-z
loop_
_atom_site_type_symbol
_atom_site_label
_atom_site_fract_x
_atom_site_fract_y
_atom_site_fract_z
Si Si1 0.817432 0.088848 0.551792
Si Si2 0.112440 0.130136 0.113928
Si Si3 0.206774 0.900000 0.946254
Si Si4 0.954104 0.906293 0.290800
Si Si5 0.871222 0.151939 0.887128
Si Si6 0.432424 0.597946 0.290219
O O1 0.750000 0.072262 0.500000
O O2 0.760018 0.240378 0.568191
O O3 0.012724 0.084110 0.555066
O O4 0.774156 0.958049 0.582944
O O5 0.252062 0.231995 0.132946
O O6 0.000000 0.250000 0.090812
O O7 0.023090 0.064410 0.158076
O O8 0.192495 0.013830 0.081936
O O9 0.250000 0.911366 0.000000
O O10 0.761126 0.916136 0.289084
O O11 0.000000 0.750000 0.280632
O O12 0.022649 0.000000 0.250000
O O13 0.960633 0.073592 0.845023
O O14 0.000000 0.250000 0.913675
O O15 0.500000 0.750000 0.280881
O O16 0.498844 0.500000 0.250000
#
# Coordination Sequence:
#
# PCOD9335178 Si02
#       6
#     8   8   8   8   8   8
#     4  10  23  43  66  92 129 174 218 277 334 396
#     4  11  22  42  64  95 130 174 219 275 337 395
#     4  10  23  44  64  93 131 169 222 275 335 400
#     4  10  21  42  63  91 128 167 213 265 326 392
#     4  11  21  42  64  90 131 171 220 275 327 392
#     4  10  22  42  64  92 127 166 213 268 327 389
#
# _framework density 20.635425999999999
#
# number of rings (size 3 to 8) (size 9 to 14) (size 15 to 20)
#    0.000    1.667    5.000    0.000    2.333    1.333 
#    9.000    0.000    0.000    0.000    0.000    0.000 
#    0.000    0.000    0.000    0.000    0.000    0.000 
#
# Total GULP energy -133658.612979 kJ/mol
# GULP energy per Si atom -5569.108874 kJ/mol
# Density = 2.058846 g / cm^3
# Si number density = 20.635426 Si / 1000 Ang^3
#
#
#
# Elastic Constant Matrix: (Units=GPa)
#
#
# Indices 1 2 3 4 5 6 
#
# 1 63.3582 34.6852 30.7027 0.0000 0.0000 0.0000
# 2 34.6852 143.3593 101.3977 0.0000 0.0000 0.0000
# 3 30.7027 101.3977 108.2376 0.0000 0.0000 0.0000
# 4 0.0000 0.0000 0.0000 47.0912 0.0000 0.0000
# 5 0.0000 0.0000 0.0000 0.0000 23.5397 0.0000
# 6 0.0000 0.0000 0.0000 0.0000 0.0000 32.9260
#
#
#
# Elastic Compliance Matrix: (Units=1/GPa)
#
#
# Indices 1 2 3 4 5 6 
#
# 1 0.018545 -0.002271 -0.003133 0.000000 0.000000 0.000000
# 2 -0.002271 0.020952 -0.018984 0.000000 0.000000 0.000000
# 3 -0.003133 -0.018984 0.027912 0.000000 0.000000 0.000000
# 4 0.000000 0.000000 0.000000 0.021235 0.000000 0.000000
# 5 0.000000 0.000000 0.000000 0.000000 0.042481 0.000000
# 6 0.000000 0.000000 0.000000 0.000000 0.000000 0.030371
#
#
# Mechanical properties :
#
#
# Convention : Reuss Voigt Hill
#
# Bulk Modulus (GPa) = 53.66798 72.05848 62.86323
# Shear Modulus (GPa) = 23.09640 30.58936 26.84288
#
# Velocity S-wave (km/s) = 3.34916 3.85433 3.61059
# Velocity P-wave (km/s) = 6.40469 7.40294 6.92183
#
# Compressibility (1/GPa) = 0.01863309
#
# Stress axis : x y z
#
# Youngs Moduli (GPa) = 53.92386 47.72749 35.82677
#
# Poissons Ratio (x) = 0.10838 0.11225
# Poissons Ratio (y) = 0.12245 0.68014
# Poissons Ratio (z) = 0.16895 0.90606
#
# Static dielectric constant tensor:
#      x y z
#    x 1.813630 0.000000 0.000000 
#    y 0.000000 1.742890 0.000000 
#    z 0.000000 0.000000 1.764430 
# 
# From -- ./inp_files/16802.got.cif
#   From: 2010.05.17/outbox.cif.g08.bks.cpg/sg24_9_cif.got.tgz:16802.got - 2010.06.04 00:33:39.
