data_PCOD9335441
_publ_section_title
;
Structure prediction by ZEFSAII (Michael W. Deem and Ramdas Pophale) SiO2 
 PCOD9335441
Probable space group: I 21 21 21
;
_chemical_formula_sum "Si O2"
_cell_formula_units_Z 40
_cell_length_a 6.979494
_cell_length_b 12.483410
_cell_length_c 19.674334
_cell_angle_alpha 90.000000
_cell_angle_beta 90.000000
_cell_angle_gamma 90.000000
_cell_volume 1714.183114
_symmetry_space_group_name_H-M "I 21 21 21"
_symmetry_group_IT_number 24
_symmetry_cell_setting 'orthorhombic'
loop_
_space_group_symop_operation_xyz
x,y,z
-x,1/2-y,z
x,-y,1/2-z
1/2-x,y,-z
1/2+x,1/2+y,1/2+z
1/2-x,-y,1/2+z
1/2+x,1/2-y,-z
-x,1/2+y,1/2-z
loop_
_atom_site_type_symbol
_atom_site_label
_atom_site_fract_x
_atom_site_fract_y
_atom_site_fract_z
Si Si1 0.091110 0.499501 0.170629
Si Si2 0.789234 0.769847 0.154820
Si Si3 0.648819 0.346922 0.071501
Si Si4 0.277158 0.930899 0.080405
Si Si5 0.771686 0.230029 0.808319
O O1 0.021311 0.500000 0.250000
O O2 0.231861 0.602066 0.158152
O O3 0.206613 0.387882 0.168920
O O4 0.916408 0.524068 0.118340
O O5 0.666155 0.679143 0.117413
O O6 0.798936 0.739262 0.234164
O O7 0.000000 0.750000 0.123430
O O8 0.500000 0.250000 0.064688
O O9 0.580560 0.467336 0.086850
O O10 0.787908 0.309669 0.132071
O O11 0.750000 0.355335 0.000000
O O12 0.250000 0.909783 0.000000
O O13 0.000000 0.250000 0.802523
#
# Coordination Sequence:
#
# PCOD9335441 Si02
#       5
#     8   8   8   8   8
#     4   9  20  40  72 100 130 176 223 276 341 406
#     4   9  20  41  68  96 130 171 222 275 338 410
#     4  10  24  39  59  92 129 172 223 278 332 398
#     4  10  22  39  67 102 130 175 223 273 335 407
#     4  10  22  40  63  96 130 169 221 277 333 396
#
# _framework density 23.334728999999999
#
# number of rings (size 3 to 8) (size 9 to 14) (size 15 to 20)
#    0.000    2.400    0.000    0.000   14.000    0.000 
#   21.600    4.000   13.200    0.000    0.000    0.000 
#    0.000    0.000    0.000    0.000    0.000    0.000 
#
# Total GULP energy -111392.909300 kJ/mol
# GULP energy per Si atom -5569.645465 kJ/mol
# Density = 2.328162 g / cm^3
# Si number density = 23.334729 Si / 1000 Ang^3
#
#
#
# Elastic Constant Matrix: (Units=GPa)
#
#
# Indices 1 2 3 4 5 6 
#
# 1 81.7131 34.8465 22.6279 0.0000 0.0000 0.0000
# 2 34.8465 233.0542 83.2258 0.0000 0.0000 0.0000
# 3 22.6279 83.2258 161.4662 0.0000 0.0000 0.0000
# 4 0.0000 0.0000 0.0000 29.7563 0.0000 0.0000
# 5 0.0000 0.0000 0.0000 0.0000 15.3121 0.0000
# 6 0.0000 0.0000 0.0000 0.0000 0.0000 38.8295
#
#
#
# Elastic Compliance Matrix: (Units=1/GPa)
#
#
# Indices 1 2 3 4 5 6 
#
# 1 0.013207 -0.001610 -0.001021 0.000000 0.000000 0.000000
# 2 -0.001610 0.005455 -0.002586 0.000000 0.000000 0.000000
# 3 -0.001021 -0.002586 0.007669 0.000000 0.000000 0.000000
# 4 0.000000 0.000000 0.000000 0.033606 0.000000 0.000000
# 5 0.000000 0.000000 0.000000 0.000000 0.065308 0.000000
# 6 0.000000 0.000000 0.000000 0.000000 0.000000 0.025754
#
#
# Mechanical properties :
#
#
# Convention : Reuss Voigt Hill
#
# Bulk Modulus (GPa) = 62.90388 84.18153 73.54271
# Shear Modulus (GPa) = 29.98809 39.14850 34.56830
#
# Velocity S-wave (km/s) = 3.58876 4.10041 3.85308
# Velocity P-wave (km/s) = 6.64740 7.65322 7.16797
#
# Compressibility (1/GPa) = 0.01589727
#
# Stress axis : x y z
#
# Youngs Moduli (GPa) = 75.71566 183.31355 130.38992
#
# Poissons Ratio (x) = 0.29517 0.13312
# Poissons Ratio (y) = 0.12192 0.33721
# Poissons Ratio (z) = 0.07730 0.47407
#
# Static dielectric constant tensor:
#      x y z
#    x 2.095890 0.000000 0.000000 
#    y 0.000000 1.965990 0.000000 
#    z 0.000000 0.000000 1.880270 
# 
# From -- ./inp_files/14976.got.cif
#   From: 2010.05.17/outbox.cif.g08.bks.cpg/sg24_8_cif.got.tgz:14976.got - 2010.06.04 00:33:39.
