data_PCOD9335168
_publ_section_title
;
Structure prediction by ZEFSAII (Michael W. Deem and Ramdas Pophale) SiO2 
 PCOD9335168
Probable space group: I 21 21 21
;
_chemical_formula_sum "Si O2"
_cell_formula_units_Z 32
_cell_length_a 7.430746
_cell_length_b 39.101043
_cell_length_c 5.410330
_cell_angle_alpha 90.000000
_cell_angle_beta 90.000000
_cell_angle_gamma 90.000000
_cell_volume 1571.970943
_symmetry_space_group_name_H-M "I 21 21 21"
_symmetry_group_IT_number 24
_symmetry_cell_setting 'orthorhombic'
loop_
_space_group_symop_operation_xyz
x,y,z
-x,1/2-y,z
x,-y,1/2-z
1/2-x,y,-z
1/2+x,1/2+y,1/2+z
1/2-x,-y,1/2+z
1/2+x,1/2-y,-z
-x,1/2+y,1/2-z
loop_
_atom_site_type_symbol
_atom_site_label
_atom_site_fract_x
_atom_site_fract_y
_atom_site_fract_z
Si Si1 0.250000 0.625009 0.000000
Si Si2 0.750000 0.713577 0.500000
Si Si3 0.035720 0.978761 0.500805
Si Si4 0.250000 0.419270 0.000000
Si Si5 0.500000 0.750000 0.870073
Si Si6 0.550013 0.680091 0.116178
O O1 0.266598 0.602749 0.750526
O O2 0.078199 0.649313 0.952355
O O3 0.667827 0.738408 0.703996
O O4 0.593126 0.688758 0.401151
O O5 0.250000 0.972197 0.500000
O O6 0.922191 0.944223 0.510313
O O7 0.993930 0.000000 0.750000
O O8 0.992643 0.000000 0.250000
O O9 0.466904 0.715655 0.021147
O O10 0.750000 0.675242 0.000000
#
# Coordination Sequence:
#
# PCOD9335168 Si02
#       6
#     4   4   8   4   4   8
#     4  12  30  43  68  94 144 189 232 272 353 428
#     4  10  22  39  66  90 124 159 218 302 363 424
#     4  10  21  41  74 107 140 177 227 280 327 384
#     4  12  26  44  66 104 140 192 222 276 332 414
#     4  10  22  38  66  96 114 160 224 300 372 410
#     4  10  25  43  62  93 125 172 226 293 354 422
#
# _framework density 20.35661
#
# number of rings (size 3 to 8) (size 9 to 14) (size 15 to 20)
#    0.000    1.500    0.000    3.000   15.750    2.000 
#    0.000    0.000    0.000    0.000    0.000    0.000 
#    0.000    0.000    0.000    0.000    0.000    0.000 
#
# Total GULP energy -89374.088841 kJ/mol
# GULP energy per Si atom -5585.880553 kJ/mol
# Density = 2.031028 g / cm^3
# Si number density = 20.356610 Si / 1000 Ang^3
#
#
#
# Elastic Constant Matrix: (Units=GPa)
#
#
# Indices 1 2 3 4 5 6 
#
# 1 116.3367 89.5605 56.3998 -0.0013 -0.0006 0.0039
# 2 89.5605 178.6021 102.9158 -0.0012 0.0026 -0.0202
# 3 56.3998 102.9158 164.3452 0.0025 0.0072 -0.0627
# 4 -0.0013 -0.0012 0.0025 29.4830 -0.0016 0.0486
# 5 -0.0006 0.0026 0.0072 -0.0016 19.3954 -0.0037
# 6 0.0039 -0.0202 -0.0627 0.0486 -0.0037 131.0070
#
#
#
# Elastic Compliance Matrix: (Units=1/GPa)
#
#
# Indices 1 2 3 4 5 6 
#
# 1 0.014043 -0.006673 -0.000641 0.000000 0.000002 -0.000002
# 2 -0.006673 0.011931 -0.005181 0.000001 0.000000 0.000000
# 3 -0.000641 -0.005181 0.009549 -0.000001 -0.000003 0.000004
# 4 0.000000 0.000001 -0.000001 0.033918 0.000003 -0.000013
# 5 0.000002 0.000000 -0.000003 0.000003 0.051559 0.000001
# 6 -0.000002 0.000000 0.000004 -0.000013 0.000001 0.007633
#
#
# Mechanical properties :
#
#
# Convention : Reuss Voigt Hill
#
# Bulk Modulus (GPa) = 94.93374 106.33736 100.63555
# Shear Modulus (GPa) = 31.81995 50.00428 40.91211
#
# Velocity S-wave (km/s) = 3.95793 4.96160 4.48791
# Velocity P-wave (km/s) = 8.22335 9.22897 8.74064
#
# Compressibility (1/GPa) = 0.01053366
#
# Stress axis : x y z
#
# Youngs Moduli (GPa) = 71.20774 83.81682 104.72046
#
# Poissons Ratio (x) = 0.55930 0.06710
# Poissons Ratio (y) = 0.47516 0.54258
# Poissons Ratio (z) = 0.04562 0.43428
#
# Static dielectric constant tensor:
#      x y z
#    x 1.740030 0.000000 0.000000 
#    y 0.000000 1.671520 0.000010 
#    z 0.000000 0.000010 1.815150 
# 
# From -- ./inp_files/1340.got.cif
#   From: 2010.05.17/outbox.cif.g08.bks.cpg/sg24_1_cif.got.tgz:1340.got - 2010.06.04 00:33:39.
