data_PCOD9335025
_publ_section_title
;
Structure prediction by ZEFSAII (Michael W. Deem and Ramdas Pophale) SiO2 
 PCOD9335025
Probable space group: I 21 21 21
;
_chemical_formula_sum "Si O2"
_cell_formula_units_Z 64
_cell_length_a 27.410205
_cell_length_b 12.578300
_cell_length_c 8.479482
_cell_angle_alpha 90.000000
_cell_angle_beta 90.000000
_cell_angle_gamma 90.000000
_cell_volume 2923.503075
_symmetry_space_group_name_H-M "I 21 21 21"
_symmetry_group_IT_number 24
_symmetry_cell_setting 'orthorhombic'
loop_
_space_group_symop_operation_xyz
x,y,z
-x,1/2-y,z
x,-y,1/2-z
1/2-x,y,-z
1/2+x,1/2+y,1/2+z
1/2-x,-y,1/2+z
1/2+x,1/2-y,-z
-x,1/2+y,1/2-z
loop_
_atom_site_type_symbol
_atom_site_label
_atom_site_fract_x
_atom_site_fract_y
_atom_site_fract_z
Si Si1 0.949855 0.688241 0.581748
Si Si2 0.407261 0.762577 0.092570
Si Si3 0.304574 0.990822 0.439179
Si Si4 0.806437 0.260481 0.952086
Si Si5 0.438463 0.425914 0.568006
Si Si6 0.049837 0.035298 0.415012
Si Si7 0.104572 0.355434 0.103812
Si Si8 0.697449 0.268915 0.427707
O O1 0.912431 0.701964 0.726838
O O2 0.953518 0.565329 0.533227
O O3 0.928714 0.754566 0.435779
O O4 0.000000 0.750000 0.622607
O O5 0.354487 0.716184 0.041472
O O6 0.440917 0.661359 0.067022
O O7 0.423868 0.863897 0.991825
O O8 0.250000 0.975317 0.500000
O O9 0.314612 0.111169 0.489801
O O10 0.307846 0.000000 0.250000
O O11 0.327555 0.879504 0.492912
O O12 0.801218 0.261154 0.761984
O O13 0.750000 0.246192 0.000000
O O14 0.842016 0.176321 0.037819
O O15 0.494172 0.433871 0.622426
O O16 0.405525 0.384394 0.714313
O O17 0.416899 0.539663 0.517565
O O18 0.073698 0.000000 0.250000
O O19 0.750000 0.237851 0.500000
#
# Coordination Sequence:
#
# PCOD9335025 Si02
#       8
#     8   8   8   8   8   8   8   8
#     4  12  23  42  69 104 139 179 226 288 357 417
#     4  12  27  41  68 103 138 179 234 291 347 423
#     4   8  16  32  56  84 128 169 209 268 332 398
#     4  10  21  39  69 100 130 181 240 287 343 408
#     4  11  24  47  67  95 140 186 233 281 355 416
#     4  12  24  45  69 102 138 181 229 281 346 430
#     4  11  23  44  72  96 135 188 234 290 344 425
#     4  10  22  42  61  97 144 183 225 286 357 413
#
# _framework density 21.891546000000002
#
# number of rings (size 3 to 8) (size 9 to 14) (size 15 to 20)
#    0.000    1.250    3.750    2.250    3.500    1.500 
#    0.000    1.250    0.000    0.000    0.000    0.000 
#    0.000    0.000    0.000    0.000    0.000    0.000 
#
# Total GULP energy -178328.777971 kJ/mol
# GULP energy per Si atom -5572.774312 kJ/mol
# Density = 2.184172 g / cm^3
# Si number density = 21.891546 Si / 1000 Ang^3
#
#
#
# Elastic Constant Matrix: (Units=GPa)
#
#
# Indices 1 2 3 4 5 6 
#
# 1 116.5891 4.7134 23.2066 0.0000 0.0000 0.0000
# 2 4.7134 49.9336 13.6404 0.0000 0.0000 0.0000
# 3 23.2066 13.6404 45.2306 0.0000 0.0000 0.0000
# 4 0.0000 0.0000 0.0000 26.7542 0.0000 0.0000
# 5 0.0000 0.0000 0.0000 0.0000 28.1699 0.0000
# 6 0.0000 0.0000 0.0000 0.0000 0.0000 -7.6180
#
#
#
# Elastic Compliance Matrix: (Units=1/GPa)
#
#
# Indices 1 2 3 4 5 6 
#
# 1 0.009563 0.000477 -0.005050 0.000000 0.000000 0.000000
# 2 0.000477 0.021848 -0.006834 0.000000 0.000000 0.000000
# 3 -0.005050 -0.006834 0.026761 0.000000 0.000000 0.000000
# 4 0.000000 0.000000 0.000000 0.037377 0.000000 0.000000
# 5 0.000000 0.000000 0.000000 0.000000 0.035499 0.000000
# 6 0.000000 0.000000 0.000000 0.000000 0.000000 -0.131268
#
#
# Mechanical properties :
#
#
# Convention : Reuss Voigt Hill
#
# Bulk Modulus (GPa) = 28.28194 32.76380 30.52287
# Shear Modulus (GPa) = 145.42791 20.80740 83.11766
#
# Velocity S-wave (km/s) = 8.15937 3.08632 6.16850
# Velocity P-wave (km/s) = 10.08535 5.26303 8.04406
#
# Compressibility (1/GPa) = 0.03535825
#
# Stress axis : x y z
#
# Youngs Moduli (GPa) = 104.56851 45.77008 37.36785
#
# Poissons Ratio (x) = -0.02183 0.18872
# Poissons Ratio (y) = -0.04987 0.25536
# Poissons Ratio (z) = 0.52811 0.31278
#
# Static dielectric constant tensor:
#      x y z
#    x 1.828340 0.000000 0.000000 
#    y 0.000000 1.821000 0.000000 
#    z 0.000000 0.000000 1.885690 
# 
# From -- ./inp_files/17000.got.cif
#   From: 2010.05.17/outbox.cif.g08.bks.cpg/sg24_9_cif.got.tgz:17000.got - 2010.06.04 00:33:39.
