data_PCOD9335708
_publ_section_title
;
Structure prediction by ZEFSAII (Michael W. Deem and Ramdas Pophale) SiO2 
 PCOD9335708
Probable space group: I 21 21 21
;
_chemical_formula_sum "Si O2"
_cell_formula_units_Z 32
_cell_length_a 6.025767
_cell_length_b 18.224696
_cell_length_c 11.679076
_cell_angle_alpha 90.000000
_cell_angle_beta 90.000000
_cell_angle_gamma 90.000000
_cell_volume 1282.570102
_symmetry_space_group_name_H-M "I 21 21 21"
_symmetry_group_IT_number 24
_symmetry_cell_setting 'orthorhombic'
loop_
_space_group_symop_operation_xyz
x,y,z
-x,1/2-y,z
x,-y,1/2-z
1/2-x,y,-z
1/2+x,1/2+y,1/2+z
1/2-x,-y,1/2+z
1/2+x,1/2-y,-z
-x,1/2+y,1/2-z
loop_
_atom_site_type_symbol
_atom_site_label
_atom_site_fract_x
_atom_site_fract_y
_atom_site_fract_z
Si Si1 0.987053 0.463773 0.019634
Si Si2 0.341530 0.423652 0.744363
Si Si3 0.531025 0.331200 0.161693
Si Si4 0.866742 0.674017 0.122416
O O1 0.991339 0.440225 0.152247
O O2 0.750000 0.504270 0.000000
O O3 0.250000 0.487048 0.000000
O O4 0.957688 0.392235 0.937444
O O5 0.203211 0.500000 0.750000
O O6 0.192884 0.355348 0.775071
O O7 0.473065 0.397058 0.633993
O O8 0.500000 0.250000 0.112007
O O9 0.708951 0.329388 0.265222
O O10 0.000000 0.750000 0.128435
O O11 0.750000 0.673666 0.000000
#
# Coordination Sequence:
#
# PCOD9335708 Si02
#       4
#     8   8   8   8
#     4  10  22  43  71 109 145 189 249 310 388 453
#     4  11  26  48  72 111 154 199 251 320 398 473
#     4  11  23  45  75 103 147 194 259 325 380 457
#     4  12  26  46  74 108 146 203 264 312 387 475
#
# _framework density 24.949901000000001
#
# number of rings (size 3 to 8) (size 9 to 14) (size 15 to 20)
#    0.000    1.000    5.000    0.750    0.000    6.000 
#   13.500    0.000    0.000    0.000    0.000    0.000 
#    0.000    0.000    0.000    0.000    0.000    0.000 
#
# Total GULP energy -89242.189578 kJ/mol
# GULP energy per Si atom -5577.636849 kJ/mol
# Density = 2.489311 g / cm^3
# Si number density = 24.949901 Si / 1000 Ang^3
#
#
#
# Elastic Constant Matrix: (Units=GPa)
#
#
# Indices 1 2 3 4 5 6 
#
# 1 134.0524 45.0375 18.8626 0.0000 0.0000 0.0000
# 2 45.0375 117.8591 16.8679 0.0000 0.0000 0.0000
# 3 18.8626 16.8679 93.8616 0.0000 0.0000 0.0000
# 4 0.0000 0.0000 0.0000 28.9115 0.0000 0.0000
# 5 0.0000 0.0000 0.0000 0.0000 60.3067 0.0000
# 6 0.0000 0.0000 0.0000 0.0000 0.0000 44.7580
#
#
#
# Elastic Compliance Matrix: (Units=1/GPa)
#
#
# Indices 1 2 3 4 5 6 
#
# 1 0.008684 -0.003150 -0.001179 0.000000 0.000000 0.000000
# 2 -0.003150 0.009851 -0.001137 0.000000 0.000000 0.000000
# 3 -0.001179 -0.001137 0.011095 0.000000 0.000000 0.000000
# 4 0.000000 0.000000 0.000000 0.034588 0.000000 0.000000
# 5 0.000000 0.000000 0.000000 0.000000 0.016582 0.000000
# 6 0.000000 0.000000 0.000000 0.000000 0.000000 0.022342
#
#
# Mechanical properties :
#
#
# Convention : Reuss Voigt Hill
#
# Bulk Modulus (GPa) = 53.48152 56.36768 54.92460
# Shear Modulus (GPa) = 41.56009 44.46224 43.01116
#
# Velocity S-wave (km/s) = 4.08578 4.22603 4.15649
# Velocity P-wave (km/s) = 6.61364 6.81570 6.71543
#
# Compressibility (1/GPa) = 0.01869805
#
# Stress axis : x y z
#
# Youngs Moduli (GPa) = 115.15621 101.51198 90.12791
#
# Poissons Ratio (x) = 0.31972 0.10627
# Poissons Ratio (y) = 0.36270 0.10251
# Poissons Ratio (z) = 0.13578 0.11546
#
# Static dielectric constant tensor:
#      x y z
#    x 2.057540 0.000000 0.000000 
#    y 0.000000 2.013310 0.000000 
#    z 0.000000 0.000000 1.982930 
# 
# From -- ./inp_files/5255.got.cif
#   From: 2010.05.17/outbox.cif.g08.bks.cpg/sg24_3_cif.got.tgz:5255.got - 2010.06.04 00:33:39.
