data_PCOD9335878
_publ_section_title
;
Structure prediction by ZEFSAII (Michael W. Deem and Ramdas Pophale) SiO2 
 PCOD9335878
Probable space group: I 21 21 21
;
_chemical_formula_sum "Si O2"
_cell_formula_units_Z 40
_cell_length_a 5.219346
_cell_length_b 19.316380
_cell_length_c 19.188338
_cell_angle_alpha 90.000000
_cell_angle_beta 90.000000
_cell_angle_gamma 90.000000
_cell_volume 1934.546568
_symmetry_space_group_name_H-M "I 21 21 21"
_symmetry_group_IT_number 24
_symmetry_cell_setting 'orthorhombic'
loop_
_space_group_symop_operation_xyz
x,y,z
-x,1/2-y,z
x,-y,1/2-z
1/2-x,y,-z
1/2+x,1/2+y,1/2+z
1/2-x,-y,1/2+z
1/2+x,1/2-y,-z
-x,1/2+y,1/2-z
loop_
_atom_site_type_symbol
_atom_site_label
_atom_site_fract_x
_atom_site_fract_y
_atom_site_fract_z
Si Si1 0.265031 0.705351 0.383197
Si Si2 0.514391 0.829206 0.230854
Si Si3 0.000000 0.750000 0.048715
Si Si4 0.014651 0.123850 0.341361
Si Si5 0.996542 0.542838 0.032841
Si Si6 0.750000 0.908193 0.500000
O O1 0.500000 0.750000 0.415160
O O2 0.384234 0.679667 0.309820
O O3 0.228628 0.640640 0.433498
O O4 0.000000 0.750000 0.374660
O O5 0.500000 0.750000 0.203683
O O6 0.239904 0.863364 0.214671
O O7 0.736574 0.869754 0.191913
O O8 0.032936 0.815588 0.100603
O O9 0.250000 0.743532 0.000000
O O10 0.025109 0.052880 0.384949
O O11 0.021987 0.464099 0.006023
O O12 0.750000 0.576400 0.000000
O O13 0.250000 0.576488 0.000000
#
# Coordination Sequence:
#
# PCOD9335878 Si02
#       6
#     8   8   4   8   8   4
#     4  11  24  42  72 103 129 163 221 280 352 401
#     4  11  21  39  61  94 130 170 209 274 328 390
#     4  12  22  32  56  92 126 158 226 260 310 366
#     4  12  21  39  61  90 133 173 213 266 319 384
#     4  10  23  41  64  87 132 173 220 259 326 381
#     4  10  26  44  72  94 138 166 222 282 342 394
#
# _framework density 20.676677000000002
#
# number of rings (size 3 to 8) (size 9 to 14) (size 15 to 20)
#    0.600    0.400    2.000    6.600    2.800    0.000 
#    0.000    1.000    0.000    0.000    0.000    0.000 
#    0.000    0.000    0.000    0.000    0.000    0.000 
#
# Total GULP energy -111519.011814 kJ/mol
# GULP energy per Si atom -5575.950591 kJ/mol
# Density = 2.062962 g / cm^3
# Si number density = 20.676677 Si / 1000 Ang^3
#
#
#
# Elastic Constant Matrix: (Units=GPa)
#
#
# Indices 1 2 3 4 5 6 
#
# 1 144.7037 17.0193 16.2666 0.0000 0.0000 0.0000
# 2 17.0193 29.3163 17.2244 0.0000 0.0000 0.0000
# 3 16.2666 17.2244 59.2468 0.0000 0.0000 0.0000
# 4 0.0000 0.0000 0.0000 -4.1291 0.0000 0.0000
# 5 0.0000 0.0000 0.0000 0.0000 -7.2509 0.0000
# 6 0.0000 0.0000 0.0000 0.0000 0.0000 161.6990
#
#
#
# Elastic Compliance Matrix: (Units=1/GPa)
#
#
# Indices 1 2 3 4 5 6 
#
# 1 0.007461 -0.003772 -0.000952 0.000000 0.000000 0.000000
# 2 -0.003772 0.043045 -0.011478 0.000000 0.000000 0.000000
# 3 -0.000952 -0.011478 0.020477 0.000000 0.000000 0.000000
# 4 0.000000 0.000000 0.000000 -0.242182 0.000000 0.000000
# 5 0.000000 0.000000 0.000000 0.000000 -0.137914 0.000000
# 6 0.000000 0.000000 0.000000 0.000000 0.000000 0.006184
#
#
# Mechanical properties :
#
#
# Convention : Reuss Voigt Hill
#
# Bulk Modulus (GPa) = 25.92162 37.14303 31.53232
# Shear Modulus (GPa) = -19.40511 42.24755 11.42122
#
# Velocity S-wave (km/s) = -3.06682 4.52513 2.35281
# Velocity P-wave (km/s) = 0.15275 6.73091 4.76070
#
# Compressibility (1/GPa) = 0.03857784
#
# Stress axis : x y z
#
# Youngs Moduli (GPa) = 134.02377 23.23167 48.83556
#
# Poissons Ratio (x) = 0.08764 0.04648
# Poissons Ratio (y) = 0.50559 0.56055
# Poissons Ratio (z) = 0.12757 0.26666
#
# Static dielectric constant tensor:
#      x y z
#    x 1.757000 0.000000 0.000000 
#    y 0.000000 1.820150 0.000000 
#    z 0.000000 0.000000 1.699330 
# 
# From -- ./inp_files/28633.got.cif
#   From: 2010.05.17/outbox.cif.g08.bks.cpg/sg24_15_cif.got.tgz:28633.got - 2010.06.04 00:33:39.
