data_PCOD9335798
_publ_section_title
;
Structure prediction by ZEFSAII (Michael W. Deem and Ramdas Pophale) SiO2 
 PCOD9335798
Probable space group: I 21 21 21
;
_chemical_formula_sum "Si O2"
_cell_formula_units_Z 52
_cell_length_a 8.185576
_cell_length_b 26.331440
_cell_length_c 11.611983
_cell_angle_alpha 90.000000
_cell_angle_beta 90.000000
_cell_angle_gamma 90.000000
_cell_volume 2502.823630
_symmetry_space_group_name_H-M "I 21 21 21"
_symmetry_group_IT_number 24
_symmetry_cell_setting 'orthorhombic'
loop_
_space_group_symop_operation_xyz
x,y,z
-x,1/2-y,z
x,-y,1/2-z
1/2-x,y,-z
1/2+x,1/2+y,1/2+z
1/2-x,-y,1/2+z
1/2+x,1/2-y,-z
-x,1/2+y,1/2-z
loop_
_atom_site_type_symbol
_atom_site_label
_atom_site_fract_x
_atom_site_fract_y
_atom_site_fract_z
Si Si1 0.180756 0.180688 0.247519
Si Si2 0.842511 0.218885 0.800264
Si Si3 0.750000 0.655217 0.000000
Si Si4 0.391600 0.362172 0.880654
Si Si5 0.827591 0.942223 0.717057
Si Si6 0.112790 0.894001 0.583292
Si Si7 0.893477 0.858112 0.907600
O O1 0.205977 0.237497 0.204934
O O2 0.212107 0.183949 0.382597
O O3 0.305822 0.142967 0.178977
O O4 0.005479 0.156707 0.223223
O O5 0.762516 0.174861 0.875359
O O6 0.893162 0.190627 0.680228
O O7 0.000000 0.250000 0.842819
O O8 0.928228 0.631351 0.965353
O O9 0.319654 0.417933 0.857200
O O10 0.507692 0.362258 0.990736
O O11 0.846182 0.906133 0.828405
O O12 0.994047 0.933279 0.645400
O O13 0.801763 0.000000 0.750000
O O14 0.250000 0.917828 0.500000
O O15 0.750000 0.849967 0.000000
#
# Coordination Sequence:
#
# PCOD9335798 Si02
#       7
#     8   8   4   8   8   8   8
#     4  11  22  41  66  99 138 181 228 274 339 407
#     4  11  21  40  60  98 139 172 230 273 328 409
#     4  12  20  40  68  92 144 184 220 292 336 404
#     4  10  23  42  70  96 133 180 223 280 348 405
#     4  11  23  46  68  98 134 166 228 291 349 420
#     4  10  22  46  69  96 135 174 224 284 343 406
#     4  11  25  41  64  99 139 181 227 282 350 417
#
# _framework density 20.776534000000002
#
# number of rings (size 3 to 8) (size 9 to 14) (size 15 to 20)
#    0.000    1.231    3.077    3.692    1.077    1.231 
#    1.385   24.615    0.000    0.000    0.000    0.000 
#    0.000    0.000    0.000    0.000    0.000    0.000 
#
# Total GULP energy -145056.314078 kJ/mol
# GULP energy per Si atom -5579.089003 kJ/mol
# Density = 2.072925 g / cm^3
# Si number density = 20.776534 Si / 1000 Ang^3
#
#
#
# Elastic Constant Matrix: (Units=GPa)
#
#
# Indices 1 2 3 4 5 6 
#
# 1 124.8161 20.8123 28.6958 -0.0001 0.0001 0.0000
# 2 20.8123 97.2622 2.6331 0.0000 0.0001 0.0001
# 3 28.6958 2.6331 64.2090 -0.0003 0.0002 0.0002
# 4 -0.0001 0.0000 -0.0003 0.5468 0.0001 0.0001
# 5 0.0001 0.0001 0.0002 0.0001 44.7219 -0.0002
# 6 0.0000 0.0001 0.0002 0.0001 -0.0002 7.3179
#
#
#
# Elastic Compliance Matrix: (Units=1/GPa)
#
#
# Indices 1 2 3 4 5 6 
#
# 1 0.009257 -0.001871 -0.004060 -0.000002 0.000000 0.000000
# 2 -0.001871 0.010671 0.000399 0.000000 0.000000 0.000000
# 3 -0.004060 0.000399 0.017372 0.000010 0.000000 -0.000001
# 4 -0.000002 0.000000 0.000010 1.828770 -0.000005 -0.000019
# 5 0.000000 0.000000 0.000000 -0.000005 0.022360 0.000000
# 6 0.000000 0.000000 -0.000001 -0.000019 0.000000 0.136651
#
#
# Mechanical properties :
#
#
# Convention : Reuss Voigt Hill
#
# Bulk Modulus (GPa) = 38.11696 43.39664 40.75680
# Shear Modulus (GPa) = 2.44512 26.12707 14.28610
#
# Velocity S-wave (km/s) = 1.08601 3.55001 2.62507
# Velocity P-wave (km/s) = 4.46750 6.14297 5.37097
#
# Compressibility (1/GPa) = 0.02623504
#
# Stress axis : x y z
#
# Youngs Moduli (GPa) = 108.02317 93.71153 57.56239
#
# Poissons Ratio (x) = 0.17533 0.23373
# Poissons Ratio (y) = 0.20211 -0.02294
# Poissons Ratio (z) = 0.43862 -0.03735
#
# Static dielectric constant tensor:
#      x y z
#    x 1.854490 0.000000 0.000000 
#    y 0.000000 1.683550 0.000000 
#    z 0.000000 0.000000 1.787660 
# 
# From -- ./inp_files/18752.got.cif
#   From: 2010.05.17/outbox.cif.g08.bks.cpg/sg24_10_cif.got.tgz:18752.got - 2010.06.04 00:33:39.
