data_PCOD9335549
_publ_section_title
;
Structure prediction by ZEFSAII (Michael W. Deem and Ramdas Pophale) SiO2 
 PCOD9335549
Probable space group: I 21 21 21
;
_chemical_formula_sum "Si O2"
_cell_formula_units_Z 56
_cell_length_a 15.326461
_cell_length_b 9.325595
_cell_length_c 20.917274
_cell_angle_alpha 90.000000
_cell_angle_beta 90.000000
_cell_angle_gamma 90.000000
_cell_volume 2989.671837
_symmetry_space_group_name_H-M "I 21 21 21"
_symmetry_group_IT_number 24
_symmetry_cell_setting 'orthorhombic'
loop_
_space_group_symop_operation_xyz
x,y,z
-x,1/2-y,z
x,-y,1/2-z
1/2-x,y,-z
1/2+x,1/2+y,1/2+z
1/2-x,-y,1/2+z
1/2+x,1/2-y,-z
-x,1/2+y,1/2-z
loop_
_atom_site_type_symbol
_atom_site_label
_atom_site_fract_x
_atom_site_fract_y
_atom_site_fract_z
Si Si1 0.830320 0.200462 0.908239
Si Si2 0.465956 0.007647 0.591501
Si Si3 0.500000 0.250000 0.006181
Si Si4 0.696772 0.389707 0.838589
Si Si5 0.910808 0.836792 0.731718
Si Si6 0.250000 0.466603 0.500000
Si Si7 0.628733 0.806821 0.907264
Si Si8 0.752062 0.298495 0.295841
O O1 0.752054 0.312850 0.894246
O O2 0.867682 0.166570 0.838310
O O3 0.788437 0.066813 0.944564
O O4 0.912472 0.249377 0.950972
O O5 0.554386 0.082256 0.615606
O O6 0.410428 0.150952 0.574019
O O7 0.492561 0.892719 0.537576
O O8 0.401248 0.925804 0.639920
O O9 0.698812 0.300250 0.772774
O O10 0.746075 0.537874 0.820925
O O11 0.842747 0.763357 0.780511
O O12 0.000000 0.750000 0.730644
O O13 0.926897 0.000000 0.750000
O O14 0.175261 0.371200 0.468841
O O15 0.696676 0.787591 0.849762
#
# Coordination Sequence:
#
# PCOD9335549 Si02
#       8
#     8   8   4   8   8   4   8   8
#     4  11  23  38  63  94 126 163 213 261 315 374
#     4  10  22  41  63  91 126 162 208 261 313 381
#     4  12  22  40  62  96 126 164 212 256 312 378
#     4   9  20  39  67  91 123 164 210 264 320 376
#     4  11  24  40  64  92 127 166 211 263 316 376
#     4  12  22  40  66  88 126 172 202 268 320 374
#     4  10  22  41  65  90 127 163 208 260 317 384
#     4   9  20  41  65  90 125 165 210 261 322 378
#
# _framework density 18.731152999999999
#
# number of rings (size 3 to 8) (size 9 to 14) (size 15 to 20)
#    0.000    1.714    2.143    1.714    4.000    2.286 
#    0.000    7.143    3.143    0.000    0.000    0.000 
#    0.000    0.000    0.000    0.000    0.000    0.000 
#
# Total GULP energy -156207.565643 kJ/mol
# GULP energy per Si atom -5578.841630 kJ/mol
# Density = 1.868852 g / cm^3
# Si number density = 18.731153 Si / 1000 Ang^3
#
#
#
# Elastic Constant Matrix: (Units=GPa)
#
#
# Indices 1 2 3 4 5 6 
#
# 1 95.9859 45.0873 48.3699 0.0000 0.0000 0.0000
# 2 45.0873 66.1579 55.4511 0.0000 0.0000 0.0000
# 3 48.3699 55.4511 78.4216 0.0000 0.0000 0.0000
# 4 0.0000 0.0000 0.0000 39.3925 0.0000 0.0000
# 5 0.0000 0.0000 0.0000 0.0000 13.9999 0.0000
# 6 0.0000 0.0000 0.0000 0.0000 0.0000 24.5271
#
#
#
# Elastic Compliance Matrix: (Units=1/GPa)
#
#
# Indices 1 2 3 4 5 6 
#
# 1 0.016193 -0.006541 -0.005363 0.000000 0.000000 0.000000
# 2 -0.006541 0.039749 -0.024072 0.000000 0.000000 0.000000
# 3 -0.005363 -0.024072 0.033080 0.000000 0.000000 0.000000
# 4 0.000000 0.000000 0.000000 0.025386 0.000000 0.000000
# 5 0.000000 0.000000 0.000000 0.000000 0.071429 0.000000
# 6 0.000000 0.000000 0.000000 0.000000 0.000000 0.040771
#
#
# Mechanical properties :
#
#
# Convention : Reuss Voigt Hill
#
# Bulk Modulus (GPa) = 58.57721 59.82022 59.19871
# Shear Modulus (GPa) = 16.43384 21.69438 19.06411
#
# Velocity S-wave (km/s) = 2.96523 3.40692 3.19372
# Velocity P-wave (km/s) = 6.56231 6.89070 6.72851
#
# Compressibility (1/GPa) = 0.01707149
#
# Stress axis : x y z
#
# Youngs Moduli (GPa) = 61.75480 25.15771 30.22943
#
# Poissons Ratio (x) = 0.16455 0.16211
# Poissons Ratio (y) = 0.40393 0.72768
# Poissons Ratio (z) = 0.33118 0.60559
#
# Static dielectric constant tensor:
#      x y z
#    x 1.648390 0.000000 0.000000 
#    y 0.000000 1.652680 0.000000 
#    z 0.000000 0.000000 1.624890 
# 
# From -- ./inp_files/15287.got.cif
#   From: 2010.05.17/outbox.cif.g08.bks.cpg/sg24_8_cif.got.tgz:15287.got - 2010.06.04 00:33:39.
