data_PCOD9335961
_publ_section_title
;
Structure prediction by ZEFSAII (Michael W. Deem and Ramdas Pophale) SiO2 
 PCOD9335961
Probable space group: I 21 21 21
;
_chemical_formula_sum "Si O2"
_cell_formula_units_Z 56
_cell_length_a 15.226315
_cell_length_b 27.508401
_cell_length_c 6.729763
_cell_angle_alpha 90.000000
_cell_angle_beta 90.000000
_cell_angle_gamma 90.000000
_cell_volume 2818.771857
_symmetry_space_group_name_H-M "I 21 21 21"
_symmetry_group_IT_number 24
_symmetry_cell_setting 'orthorhombic'
loop_
_space_group_symop_operation_xyz
x,y,z
-x,1/2-y,z
x,-y,1/2-z
1/2-x,y,-z
1/2+x,1/2+y,1/2+z
1/2-x,-y,1/2+z
1/2+x,1/2-y,-z
-x,1/2+y,1/2-z
loop_
_atom_site_type_symbol
_atom_site_label
_atom_site_fract_x
_atom_site_fract_y
_atom_site_fract_z
Si Si1 0.974984 0.000000 0.750000
Si Si2 0.500000 0.250000 0.225148
Si Si3 0.913344 0.865321 0.220595
Si Si4 0.540513 0.404678 0.408779
Si Si5 0.152688 0.539737 0.418830
Si Si6 0.073077 0.156586 0.984381
Si Si7 0.666627 0.659457 0.854131
Si Si8 0.645364 0.232233 0.541633
O O1 0.914558 0.968903 0.599699
O O2 0.031428 0.961603 0.873887
O O3 0.576459 0.225743 0.360473
O O4 0.449313 0.209923 0.097242
O O5 0.855030 0.907103 0.320678
O O6 0.995384 0.857844 0.366219
O O7 0.871032 0.812697 0.188139
O O8 0.950264 0.885315 0.009548
O O9 0.613379 0.386083 0.560886
O O10 0.566386 0.378602 0.203727
O O11 0.132417 0.500000 0.250000
O O12 0.250000 0.531483 0.500000
O O13 0.161602 0.154540 0.116058
O O14 0.750000 0.661600 0.000000
O O15 0.622944 0.712969 0.885805
O O16 0.750000 0.231795 0.500000
#
# Coordination Sequence:
#
# PCOD9335961 Si02
#       8
#     4   4   8   8   8   8   8   8
#     4  12  24  42  66  96 126 170 234 278 338 418
#     4  12  20  40  66  92 138 178 236 276 340 426
#     4  11  23  40  62  95 134 169 221 286 332 406
#     4  11  22  40  69  92 123 173 223 271 340 408
#     4  12  25  40  64  92 131 179 221 282 340 399
#     4  11  21  37  68  94 121 182 215 271 343 399
#     4  10  23  44  64  97 138 171 218 282 344 414
#     4  11  23  40  64  97 138 177 224 287 341 410
#
# _framework density 19.866809
#
# number of rings (size 3 to 8) (size 9 to 14) (size 15 to 20)
#    0.000    0.857    6.429    1.714    0.000    3.429 
#    0.000    1.429    3.143    0.000    0.000    0.000 
#    0.000    0.000    0.000    0.000    0.000    0.000 
#
# Total GULP energy -156170.001696 kJ/mol
# GULP energy per Si atom -5577.500061 kJ/mol
# Density = 1.982159 g / cm^3
# Si number density = 19.866809 Si / 1000 Ang^3
#
#
#
# Elastic Constant Matrix: (Units=GPa)
#
#
# Indices 1 2 3 4 5 6 
#
# 1 55.1707 13.2192 29.9407 -0.0023 0.0002 -0.0003
# 2 13.2192 101.1125 18.0779 -0.0032 0.0000 -0.0018
# 3 29.9407 18.0779 100.4583 -0.0069 0.0080 -0.0090
# 4 -0.0023 -0.0032 -0.0069 35.2196 0.0035 -0.0042
# 5 0.0002 0.0000 0.0080 0.0035 27.1682 0.0010
# 6 -0.0003 -0.0018 -0.0090 -0.0042 0.0010 24.8465
#
#
#
# Elastic Compliance Matrix: (Units=1/GPa)
#
#
# Indices 1 2 3 4 5 6 
#
# 1 0.021920 -0.001754 -0.006217 0.000000 0.000002 -0.000002
# 2 -0.001754 0.010359 -0.001341 0.000001 0.000000 0.000000
# 3 -0.006217 -0.001341 0.012049 0.000002 -0.000003 0.000004
# 4 0.000000 0.000001 0.000002 0.028393 -0.000004 0.000005
# 5 0.000002 0.000000 -0.000003 -0.000004 0.036808 -0.000001
# 6 -0.000002 0.000000 0.000004 0.000005 -0.000001 0.040247
#
#
# Mechanical properties :
#
#
# Convention : Reuss Voigt Hill
#
# Bulk Modulus (GPa) = 38.90729 42.13522 40.52125
# Shear Modulus (GPa) = 28.25351 30.48045 29.36698
#
# Velocity S-wave (km/s) = 3.77523 3.92119 3.84890
# Velocity P-wave (km/s) = 6.21528 6.46188 6.33978
#
# Compressibility (1/GPa) = 0.02570212
#
# Stress axis : x y z
#
# Youngs Moduli (GPa) = 45.62042 96.53322 82.99581
#
# Poissons Ratio (x) = 0.16933 0.51602
# Poissons Ratio (y) = 0.08003 0.11133
# Poissons Ratio (z) = 0.28364 0.12949
#
# Static dielectric constant tensor:
#      x y z
#    x 1.746000 0.000010 0.000010 
#    y 0.000010 1.687520 0.000000 
#    z 0.000010 0.000000 1.742590 
# 
# From -- ./inp_files/4020.got.cif
#   From: 2010.05.17/outbox.cif.g08.bks.cpg/sg24_3_cif.got.tgz:4020.got - 2010.06.04 00:33:39.
