data_PCOD9335309
_publ_section_title
;
Structure prediction by ZEFSAII (Michael W. Deem and Ramdas Pophale) SiO2 
 PCOD9335309
Probable space group: I 21 21 21
;
_chemical_formula_sum "Si O2"
_cell_formula_units_Z 64
_cell_length_a 24.239455
_cell_length_b 24.905792
_cell_length_c 5.070563
_cell_angle_alpha 90.000000
_cell_angle_beta 90.000000
_cell_angle_gamma 90.000000
_cell_volume 3061.113205
_symmetry_space_group_name_H-M "I 21 21 21"
_symmetry_group_IT_number 24
_symmetry_cell_setting 'orthorhombic'
loop_
_space_group_symop_operation_xyz
x,y,z
-x,1/2-y,z
x,-y,1/2-z
1/2-x,y,-z
1/2+x,1/2+y,1/2+z
1/2-x,-y,1/2+z
1/2+x,1/2-y,-z
-x,1/2+y,1/2-z
loop_
_atom_site_type_symbol
_atom_site_label
_atom_site_fract_x
_atom_site_fract_y
_atom_site_fract_z
Si Si1 0.967053 0.061936 0.231087
Si Si2 0.831433 0.271763 0.942761
Si Si3 0.785694 0.633794 0.257542
Si Si4 0.959091 0.438386 0.729633
Si Si5 0.689723 0.845207 0.455089
Si Si6 0.116933 0.351773 0.464753
Si Si7 0.883022 0.353513 0.555578
Si Si8 0.563391 0.255339 0.704013
O O1 0.017169 0.067580 0.435917
O O2 0.921687 0.102785 0.337506
O O3 0.947611 0.000000 0.250000
O O4 0.992044 0.071552 0.940848
O O5 0.797382 0.303866 0.163850
O O6 0.891914 0.257693 0.060950
O O7 0.804447 0.216412 0.856621
O O8 0.841604 0.314773 0.714956
O O9 0.750000 0.610623 0.500000
O O10 0.652295 0.617074 0.827706
O O11 0.750000 0.625381 0.000000
O O12 0.940831 0.500000 0.750000
O O13 0.911057 0.395338 0.750336
O O14 0.750000 0.870183 0.500000
O O15 0.663488 0.842604 0.744263
O O16 0.646452 0.867897 0.239267
O O17 0.082144 0.295951 0.473099
O O18 0.927793 0.311989 0.441919
O O19 0.500000 0.250000 0.786747
#
# Coordination Sequence:
#
# PCOD9335309 Si02
#       8
#     8   8   8   8   8   8   8   8
#     4  10  22  42  67  92 122 162 208 257 311 378
#     4  10  22  36  54  85 118 163 215 239 309 367
#     4  11  22  36  57  85 114 156 210 263 304 357
#     4  10  23  40  64  95 123 165 211 257 314 369
#     4  11  23  38  58  83 126 165 208 259 309 371
#     4  11  22  39  58  91 121 163 206 254 309 378
#     4  11  22  37  59  88 127 161 213 254 312 376
#     4  10  22  34  52  86 130 166 196 244 313 384
#
# _framework density 20.907425
#
# number of rings (size 3 to 8) (size 9 to 14) (size 15 to 20)
#    0.000    1.500    2.500    2.250    5.250    0.500 
#    0.000    0.000    0.000    1.500    3.250    0.000 
#    0.000    0.000    0.000    0.000    0.000    0.000 
#
# Total GULP energy -178550.486019 kJ/mol
# GULP energy per Si atom -5579.702688 kJ/mol
# Density = 2.085984 g / cm^3
# Si number density = 20.907425 Si / 1000 Ang^3
#
#
#
# Elastic Constant Matrix: (Units=GPa)
#
#
# Indices 1 2 3 4 5 6 
#
# 1 89.6121 23.7317 20.1153 0.0000 0.0000 0.0000
# 2 23.7317 60.9782 9.0919 0.0000 0.0000 0.0000
# 3 20.1153 9.0919 84.6385 0.0000 0.0000 0.0000
# 4 0.0000 0.0000 0.0000 15.8956 0.0000 0.0000
# 5 0.0000 0.0000 0.0000 0.0000 25.4860 0.0000
# 6 0.0000 0.0000 0.0000 0.0000 0.0000 6.4041
#
#
#
# Elastic Compliance Matrix: (Units=1/GPa)
#
#
# Indices 1 2 3 4 5 6 
#
# 1 0.012974 -0.004664 -0.002582 0.000000 0.000000 0.000000
# 2 -0.004664 0.018343 -0.000862 0.000000 0.000000 0.000000
# 3 -0.002582 -0.000862 0.012521 0.000000 0.000000 0.000000
# 4 0.000000 0.000000 0.000000 0.062910 0.000000 0.000000
# 5 0.000000 0.000000 0.000000 0.000000 0.039237 0.000000
# 6 0.000000 0.000000 0.000000 0.000000 0.000000 0.156150
#
#
# Mechanical properties :
#
#
# Convention : Reuss Voigt Hill
#
# Bulk Modulus (GPa) = 36.20396 37.90075 37.05235
# Shear Modulus (GPa) = 15.26436 21.70981 18.48708
#
# Velocity S-wave (km/s) = 2.70495 3.22588 2.97684
# Velocity P-wave (km/s) = 5.20669 5.66060 5.43838
#
# Compressibility (1/GPa) = 0.02762129
#
# Stress axis : x y z
#
# Youngs Moduli (GPa) = 77.07657 54.51652 79.86409
#
# Poissons Ratio (x) = 0.25428 0.20624
# Poissons Ratio (y) = 0.35951 0.06883
# Poissons Ratio (z) = 0.19904 0.04699
#
# Static dielectric constant tensor:
#      x y z
#    x 1.807570 0.000000 0.000000 
#    y 0.000000 1.765970 0.000000 
#    z 0.000000 0.000000 1.814920 
# 
# From -- ./inp_files/5915.got.cif
#   From: 2010.05.17/outbox.cif.g08.bks.cpg/sg24_3_cif.got.tgz:5915.got - 2010.06.04 00:33:39.
