data_PCOD9335800
_publ_section_title
;
Structure prediction by ZEFSAII (Michael W. Deem and Ramdas Pophale) SiO2 
 PCOD9335800
Probable space group: I 21 21 21
;
_chemical_formula_sum "Si O2"
_cell_formula_units_Z 36
_cell_length_a 11.895544
_cell_length_b 21.832609
_cell_length_c 5.913808
_cell_angle_alpha 90.000000
_cell_angle_beta 90.000000
_cell_angle_gamma 90.000000
_cell_volume 1535.879576
_symmetry_space_group_name_H-M "I 21 21 21"
_symmetry_group_IT_number 24
_symmetry_cell_setting 'orthorhombic'
loop_
_space_group_symop_operation_xyz
x,y,z
-x,1/2-y,z
x,-y,1/2-z
1/2-x,y,-z
1/2+x,1/2+y,1/2+z
1/2-x,-y,1/2+z
1/2+x,1/2-y,-z
-x,1/2+y,1/2-z
loop_
_atom_site_type_symbol
_atom_site_label
_atom_site_fract_x
_atom_site_fract_y
_atom_site_fract_z
Si Si1 0.137088 0.289391 0.128038
Si Si2 0.535597 0.117854 0.240069
Si Si3 0.872840 0.548873 0.422675
Si Si4 0.250000 0.623988 0.000000
Si Si5 0.867623 0.332046 0.382294
O O1 0.178931 0.334309 0.326830
O O2 0.097195 0.226186 0.237786
O O3 0.250000 0.269318 0.000000
O O4 0.069820 0.330661 0.946061
O O5 0.651511 0.092791 0.351247
O O6 0.458692 0.149824 0.429882
O O7 0.457817 0.067161 0.120731
O O8 0.923994 0.500000 0.250000
O O9 0.750000 0.525601 0.500000
O O10 0.850787 0.610527 0.281723
O O11 0.750000 0.317401 0.500000
#
# Coordination Sequence:
#
# PCOD9335800 Si02
#       5
#     8   8   8   4   8
#     4  10  23  44  69 109 151 197 242 293 362 447
#     4  11  26  45  73 110 151 198 248 300 372 452
#     4  12  27  47  74 110 147 191 252 315 381 443
#     4  10  22  46  70 108 146 196 238 296 370 450
#     4  12  24  45  70 111 156 195 237 304 378 441
#
# _framework density 23.439336999999998
#
# number of rings (size 3 to 8) (size 9 to 14) (size 15 to 20)
#    0.000    0.889    3.333    2.667    0.000    5.333 
#    4.000    0.000    0.000    0.000  130.000    0.000 
#    0.000    0.000    0.000    0.000    0.000    0.000 
#
# Total GULP energy -100774.141278 kJ/mol
# GULP energy per Si atom -5598.563404 kJ/mol
# Density = 2.338599 g / cm^3
# Si number density = 23.439337 Si / 1000 Ang^3
#
#
#
# Elastic Constant Matrix: (Units=GPa)
#
#
# Indices 1 2 3 4 5 6 
#
# 1 126.0490 34.3975 57.8143 -0.0023 0.0008 -0.0008
# 2 34.3975 51.2834 17.1753 -0.0005 0.0027 0.0000
# 3 57.8143 17.1753 114.8445 -0.0157 0.0076 -0.0029
# 4 -0.0023 -0.0005 -0.0157 36.5034 0.0054 0.0010
# 5 0.0008 0.0027 0.0076 0.0054 44.6109 -0.0013
# 6 -0.0008 0.0000 -0.0029 0.0010 -0.0013 2.3637
#
#
#
# Elastic Compliance Matrix: (Units=1/GPa)
#
#
# Indices 1 2 3 4 5 6 
#
# 1 0.012000 -0.006343 -0.005092 -0.000002 0.000001 -0.000002
# 2 -0.006343 0.023881 -0.000378 0.000000 -0.000001 -0.000002
# 3 -0.005092 -0.000378 0.011328 0.000005 -0.000002 0.000012
# 4 -0.000002 0.000000 0.000005 0.027395 -0.000003 -0.000012
# 5 0.000001 -0.000001 -0.000002 -0.000003 0.022416 0.000012
# 6 -0.000002 -0.000002 0.000012 -0.000012 0.000012 0.423069
#
#
# Mechanical properties :
#
#
# Convention : Reuss Voigt Hill
#
# Bulk Modulus (GPa) = 42.40733 56.77232 49.58983
# Shear Modulus (GPa) = 9.06492 28.88160 18.97326
#
# Velocity S-wave (km/s) = 1.96870 3.51406 2.84819
# Velocity P-wave (km/s) = 4.82694 6.38266 5.65852
#
# Compressibility (1/GPa) = 0.02358083
#
# Stress axis : x y z
#
# Youngs Moduli (GPa) = 83.33207 41.87449 88.28047
#
# Poissons Ratio (x) = 0.26563 0.44956
# Poissons Ratio (y) = 0.52861 0.03338
# Poissons Ratio (z) = 0.42436 0.01583
#
# Static dielectric constant tensor:
#      x y z
#    x 1.968130 0.000000 -0.000010 
#    y 0.000000 1.827570 0.000000 
#    z -0.000010 0.000000 1.915270 
# 
# From -- ./inp_files/2266.got.cif
#   From: 2010.05.17/outbox.cif.g08.bks.cpg/sg24_2_cif.got.tgz:2266.got - 2010.06.04 00:33:39.
