data_PCOD9335438
_publ_section_title
;
Structure prediction by ZEFSAII (Michael W. Deem and Ramdas Pophale) SiO2 
 PCOD9335438
Probable space group: I 21 21 21
;
_chemical_formula_sum "Si O2"
_cell_formula_units_Z 64
_cell_length_a 11.292659
_cell_length_b 19.706203
_cell_length_c 13.833592
_cell_angle_alpha 90.000000
_cell_angle_beta 90.000000
_cell_angle_gamma 90.000000
_cell_volume 3078.464353
_symmetry_space_group_name_H-M "I 21 21 21"
_symmetry_group_IT_number 24
_symmetry_cell_setting 'orthorhombic'
loop_
_space_group_symop_operation_xyz
x,y,z
-x,1/2-y,z
x,-y,1/2-z
1/2-x,y,-z
1/2+x,1/2+y,1/2+z
1/2-x,-y,1/2+z
1/2+x,1/2-y,-z
-x,1/2+y,1/2-z
loop_
_atom_site_type_symbol
_atom_site_label
_atom_site_fract_x
_atom_site_fract_y
_atom_site_fract_z
Si Si1 0.307476 0.718280 0.397508
Si Si2 0.997781 0.667955 0.829990
Si Si3 0.550259 0.971354 0.501836
Si Si4 0.271871 0.343698 0.696048
Si Si5 0.940066 0.352704 0.880770
Si Si6 0.630160 0.267969 0.564820
Si Si7 0.381670 0.904938 0.987086
Si Si8 0.766545 0.990876 0.140035
O O1 0.250000 0.702900 0.500000
O O2 0.243671 0.679239 0.308353
O O3 0.330324 0.799973 0.390266
O O4 0.438483 0.688008 0.398086
O O5 0.948932 0.631531 0.733451
O O6 0.922758 0.638500 0.918572
O O7 0.000000 0.750000 0.813988
O O8 0.136205 0.653001 0.841940
O O9 0.470209 0.035016 0.527276
O O10 0.650972 0.995637 0.425108
O O11 0.631773 0.959488 0.597210
O O12 0.463800 0.915593 0.453086
O O13 0.346631 0.283616 0.650162
O O14 0.317858 0.414373 0.650410
O O15 0.500000 0.250000 0.522944
O O16 0.750000 0.260726 0.500000
O O17 0.623606 0.346528 0.593710
O O18 0.250000 0.931741 0.000000
O O19 0.728344 0.000000 0.250000
#
# Coordination Sequence:
#
# PCOD9335438 Si02
#       8
#     8   8   8   8   8   8   8   8
#     4  10  22  41  66  98 127 165 229 289 335 391
#     4  11  18  37  64  94 124 162 219 281 327 396
#     4  11  25  41  65  92 137 174 224 272 333 421
#     4  11  21  38  67  93 132 169 222 280 344 404
#     4  10  22  39  65  92 123 172 226 278 332 391
#     4  11  23  37  61  95 134 174 218 277 346 420
#     4  11  23  37  60  92 134 171 216 263 341 411
#     4  11  24  41  65 100 128 175 219 278 348 405
#
# _framework density 20.789586
#
# number of rings (size 3 to 8) (size 9 to 14) (size 15 to 20)
#    0.000    1.250    3.750    4.875    5.250    0.500 
#    2.250    1.250    2.750    0.000    0.000    0.000 
#    0.000    0.000    0.000    0.000    0.000    0.000 
#
# Total GULP energy -178171.602587 kJ/mol
# GULP energy per Si atom -5567.862581 kJ/mol
# Density = 2.074227 g / cm^3
# Si number density = 20.789586 Si / 1000 Ang^3
#
#
#
# Elastic Constant Matrix: (Units=GPa)
#
#
# Indices 1 2 3 4 5 6 
#
# 1 80.2053 4.5368 28.1103 0.0000 0.0000 0.0000
# 2 4.5368 82.1953 12.8406 0.0001 -0.0001 0.0000
# 3 28.1103 12.8406 66.7597 0.0001 -0.0001 -0.0001
# 4 0.0000 0.0001 0.0001 25.9812 -0.0001 0.0000
# 5 0.0000 -0.0001 -0.0001 -0.0001 13.9480 0.0000
# 6 0.0000 0.0000 -0.0001 0.0000 0.0000 21.4478
#
#
#
# Elastic Compliance Matrix: (Units=1/GPa)
#
#
# Indices 1 2 3 4 5 6 
#
# 1 0.014629 0.000160 -0.006190 0.000000 0.000000 0.000000
# 2 0.000160 0.012545 -0.002480 0.000000 0.000000 0.000000
# 3 -0.006190 -0.002480 0.018063 0.000000 0.000000 0.000000
# 4 0.000000 0.000000 0.000000 0.038489 0.000000 0.000000
# 5 0.000000 0.000000 0.000000 0.000000 0.071695 0.000000
# 6 0.000000 0.000000 0.000000 0.000000 0.000000 0.046625
#
#
# Mechanical properties :
#
#
# Convention : Reuss Voigt Hill
#
# Bulk Modulus (GPa) = 35.44281 35.57062 35.50671
# Shear Modulus (GPa) = 21.88459 24.52024 23.20242
#
# Velocity S-wave (km/s) = 3.24801 3.43804 3.34437
# Velocity P-wave (km/s) = 5.58135 5.73647 5.65944
#
# Compressibility (1/GPa) = 0.02821447
#
# Stress axis : x y z
#
# Youngs Moduli (GPa) = 68.35954 79.71446 55.36290
#
# Poissons Ratio (x) = -0.01272 0.34271
# Poissons Ratio (y) = -0.01091 0.13730
# Poissons Ratio (z) = 0.42316 0.19770
#
# Static dielectric constant tensor:
#      x y z
#    x 1.781380 0.000000 0.000000 
#    y 0.000000 1.929820 0.000000 
#    z 0.000000 0.000000 1.816020 
# 
# From -- ./inp_files/26033.got.cif
#   From: 2010.05.17/outbox.cif.g08.bks.cpg/sg24_14_cif.got.tgz:26033.got - 2010.06.04 00:33:39.
