data_PCOD9335224
_publ_section_title
;
Structure prediction by ZEFSAII (Michael W. Deem and Ramdas Pophale) SiO2 
 PCOD9335224
Probable space group: I 21 21 21
;
_chemical_formula_sum "Si O2"
_cell_formula_units_Z 56
_cell_length_a 20.593623
_cell_length_b 7.681306
_cell_length_c 16.676657
_cell_angle_alpha 90.000000
_cell_angle_beta 90.000000
_cell_angle_gamma 90.000000
_cell_volume 2638.012329
_symmetry_space_group_name_H-M "I 21 21 21"
_symmetry_group_IT_number 24
_symmetry_cell_setting 'orthorhombic'
loop_
_space_group_symop_operation_xyz
x,y,z
-x,1/2-y,z
x,-y,1/2-z
1/2-x,y,-z
1/2+x,1/2+y,1/2+z
1/2-x,-y,1/2+z
1/2+x,1/2-y,-z
-x,1/2+y,1/2-z
loop_
_atom_site_type_symbol
_atom_site_label
_atom_site_fract_x
_atom_site_fract_y
_atom_site_fract_z
Si Si1 0.000000 0.250000 0.621843
Si Si2 0.059328 0.508242 0.008990
Si Si3 0.240003 0.391335 0.671203
Si Si4 0.852970 0.308843 0.415370
Si Si5 0.024054 0.052410 0.341854
Si Si6 0.885049 0.787906 0.759290
Si Si7 0.159813 0.696945 0.589745
Si Si8 0.250000 0.952895 0.500000
O O1 0.015950 0.413810 0.563803
O O2 0.060023 0.220000 0.682008
O O3 0.107196 0.358776 0.976854
O O4 0.103602 0.674119 0.034095
O O5 0.016799 0.459623 0.087225
O O6 0.257924 0.500000 0.750000
O O7 0.303690 0.306230 0.636511
O O8 0.184789 0.256916 0.699810
O O9 0.200367 0.522124 0.613230
O O10 0.900506 0.433861 0.364996
O O11 0.807045 0.426506 0.468452
O O12 0.000000 0.250000 0.347173
O O13 0.013459 0.000000 0.250000
O O14 0.878938 0.732398 0.667312
O O15 0.893646 0.000000 0.750000
O O16 0.214762 0.830077 0.563709
#
# Coordination Sequence:
#
# PCOD9335224 Si02
#       8
#     4   8   8   8   8   8   8   4
#     4  12  18  40  70  96 122 166 224 280 318 388
#     4  11  21  42  72  88 124 176 230 261 328 405
#     4   9  19  39  68  88 122 167 226 264 322 396
#     4  11  23  38  62  98 125 173 211 278 326 389
#     4  10  24  42  63  93 125 165 218 271 330 393
#     4   9  20  37  61  94 125 160 218 274 318 396
#     4  10  21  43  61  96 130 176 218 266 326 402
#     4  12  26  38  60  96 144 168 218 264 344 398
#
# _framework density 21.228103000000001
#
# number of rings (size 3 to 8) (size 9 to 14) (size 15 to 20)
#    0.000    2.000    5.000    1.714    0.000    5.714 
#    5.143    0.000    0.000    0.000    0.000    0.000 
#    0.000    0.000    0.000    0.000    0.000    0.000 
#
# Total GULP energy -156327.559595 kJ/mol
# GULP energy per Si atom -5583.127128 kJ/mol
# Density = 2.117979 g / cm^3
# Si number density = 21.228103 Si / 1000 Ang^3
#
#
#
# Elastic Constant Matrix: (Units=GPa)
#
#
# Indices 1 2 3 4 5 6 
#
# 1 117.4972 23.6483 74.3568 0.0000 0.0000 0.0000
# 2 23.6483 24.9978 20.0323 0.0000 0.0000 0.0000
# 3 74.3568 20.0323 134.3601 0.0000 0.0000 0.0000
# 4 0.0000 0.0000 0.0000 16.7693 0.0000 0.0000
# 5 0.0000 0.0000 0.0000 0.0000 47.7847 0.0000
# 6 0.0000 0.0000 0.0000 0.0000 0.0000 -0.6846
#
#
#
# Elastic Compliance Matrix: (Units=1/GPa)
#
#
# Indices 1 2 3 4 5 6 
#
# 1 0.014456 -0.008250 -0.006770 0.000000 0.000000 0.000000
# 2 -0.008250 0.050140 -0.002910 0.000000 0.000000 0.000000
# 3 -0.006770 -0.002910 0.011623 0.000000 0.000000 0.000000
# 4 0.000000 0.000000 0.000000 0.059633 0.000000 0.000000
# 5 0.000000 0.000000 0.000000 0.000000 0.020927 0.000000
# 6 0.000000 0.000000 0.000000 0.000000 0.000000 -1.460776
#
#
# Mechanical properties :
#
#
# Convention : Reuss Voigt Hill
#
# Bulk Modulus (GPa) = 24.77759 56.99221 40.88490
# Shear Modulus (GPa) = -3.98507 23.36172 9.68833
#
# Velocity S-wave (km/s) = -1.37162 3.32099 2.13865
# Velocity P-wave (km/s) = 3.03133 6.45067 5.03985
#
# Compressibility (1/GPa) = 0.04035905
#
# Stress axis : x y z
#
# Youngs Moduli (GPa) = 69.17766 19.94413 86.03571
#
# Poissons Ratio (x) = 0.16454 0.58245
# Poissons Ratio (y) = 0.57072 0.25036
# Poissons Ratio (z) = 0.46832 0.05804
#
# Static dielectric constant tensor:
#      x y z
#    x 1.723150 0.000000 0.000000 
#    y 0.000000 1.617160 0.000000 
#    z 0.000000 0.000000 1.835910 
# 
# From -- ./inp_files/27602.got.cif
#   From: 2010.05.17/outbox.cif.g08.bks.cpg/sg24_14_cif.got.tgz:27602.got - 2010.06.04 00:33:39.
