data_PCOD9335824
_publ_section_title
;
Structure prediction by ZEFSAII (Michael W. Deem and Ramdas Pophale) SiO2 
 PCOD9335824
Probable space group: I 21 21 21
;
_chemical_formula_sum "Si O2"
_cell_formula_units_Z 40
_cell_length_a 5.400671
_cell_length_b 16.473263
_cell_length_c 17.736075
_cell_angle_alpha 90.000000
_cell_angle_beta 90.000000
_cell_angle_gamma 90.000000
_cell_volume 1577.919598
_symmetry_space_group_name_H-M "I 21 21 21"
_symmetry_group_IT_number 24
_symmetry_cell_setting 'orthorhombic'
loop_
_space_group_symop_operation_xyz
x,y,z
-x,1/2-y,z
x,-y,1/2-z
1/2-x,y,-z
1/2+x,1/2+y,1/2+z
1/2-x,-y,1/2+z
1/2+x,1/2-y,-z
-x,1/2+y,1/2-z
loop_
_atom_site_type_symbol
_atom_site_label
_atom_site_fract_x
_atom_site_fract_y
_atom_site_fract_z
Si Si1 0.000000 0.250000 0.712990
Si Si2 0.738811 0.836025 0.668621
Si Si3 0.595564 0.525438 0.939836
Si Si4 0.750000 0.882607 0.500000
Si Si5 0.696483 0.177621 0.589869
Si Si6 0.730244 0.566359 0.311572
O O1 0.777491 0.239858 0.774618
O O2 0.923204 0.183841 0.648884
O O3 0.780205 0.829225 0.577118
O O4 0.477823 0.880119 0.679075
O O5 0.971116 0.889121 0.697463
O O6 0.461345 0.447730 0.976773
O O7 0.414824 0.587847 0.900251
O O8 0.794904 0.486942 0.885851
O O9 0.750000 0.576534 0.000000
O O10 0.500000 0.250000 0.608925
O O11 0.750000 0.185809 0.500000
O O12 0.782283 0.500000 0.250000
#
# Coordination Sequence:
#
# PCOD9335824 Si02
#       6
#     4   8   8   4   8   8
#     4  12  30  48  70 106 152 210 256 318 386 472
#     4  11  26  46  74 104 151 193 253 321 378 465
#     4  11  22  40  72 105 142 189 246 317 373 465
#     4  10  22  48  72 108 138 192 254 320 394 442
#     4  12  26  44  69 102 152 202 249 300 379 469
#     4  11  24  43  71 109 144 191 246 315 381 441
#
# _framework density 25.349833
#
# number of rings (size 3 to 8) (size 9 to 14) (size 15 to 20)
#    0.000    0.800    4.000    2.400    5.600    1.600 
#    0.000    4.000    0.000    0.000    0.000    0.000 
#    0.000    0.000    0.000    0.000    0.000    0.000 
#
# Total GULP energy -111488.703901 kJ/mol
# GULP energy per Si atom -5574.435195 kJ/mol
# Density = 2.529214 g / cm^3
# Si number density = 25.349833 Si / 1000 Ang^3
#
#
#
# Elastic Constant Matrix: (Units=GPa)
#
#
# Indices 1 2 3 4 5 6 
#
# 1 99.7870 49.3959 27.8236 0.0000 0.0000 0.0000
# 2 49.3959 76.4576 53.8247 0.0000 0.0000 0.0000
# 3 27.8236 53.8247 161.8974 0.0000 0.0000 0.0000
# 4 0.0000 0.0000 0.0000 11.3543 0.0000 0.0000
# 5 0.0000 0.0000 0.0000 0.0000 44.1056 0.0000
# 6 0.0000 0.0000 0.0000 0.0000 0.0000 -172.5453
#
#
#
# Elastic Compliance Matrix: (Units=1/GPa)
#
#
# Indices 1 2 3 4 5 6 
#
# 1 0.014818 -0.010158 0.000831 0.000000 0.000000 0.000000
# 2 -0.010158 0.024039 -0.006246 0.000000 0.000000 0.000000
# 3 0.000831 -0.006246 0.008111 0.000000 0.000000 0.000000
# 4 0.000000 0.000000 0.000000 0.088072 0.000000 0.000000
# 5 0.000000 0.000000 0.000000 0.000000 0.022673 0.000000
# 6 0.000000 0.000000 0.000000 0.000000 0.000000 -0.005796
#
#
# Mechanical properties :
#
#
# Convention : Reuss Voigt Hill
#
# Bulk Modulus (GPa) = 63.21010 66.69226 64.95118
# Shear Modulus (GPa) = 26.54794 -9.61057 8.46869
#
# Velocity S-wave (km/s) = 3.23966 -1.94921 1.82975
# Velocity P-wave (km/s) = 6.24364 4.61519 5.49013
#
# Compressibility (1/GPa) = 0.01582026
#
# Stress axis : x y z
#
# Youngs Moduli (GPa) = 67.48499 41.59891 123.29404
#
# Poissons Ratio (x) = 0.42256 -0.10240
# Poissons Ratio (y) = 0.68551 0.77014
# Poissons Ratio (z) = -0.05605 0.25984
#
# Static dielectric constant tensor:
#      x y z
#    x 2.006790 0.000000 0.000000 
#    y 0.000000 2.080820 0.000000 
#    z 0.000000 0.000000 2.909800 
# 
# From -- ./inp_files/28636.got.cif
#   From: 2010.05.17/outbox.cif.g08.bks.cpg/sg24_15_cif.got.tgz:28636.got - 2010.06.04 00:33:39.
