data_PCOD9335069
_publ_section_title
;
Structure prediction by ZEFSAII (Michael W. Deem and Ramdas Pophale) SiO2 
 PCOD9335069
Probable space group: I 21 21 21
;
_chemical_formula_sum "Si O2"
_cell_formula_units_Z 28
_cell_length_a 16.911484
_cell_length_b 12.348068
_cell_length_c 5.051547
_cell_angle_alpha 90.000000
_cell_angle_beta 90.000000
_cell_angle_gamma 90.000000
_cell_volume 1054.885031
_symmetry_space_group_name_H-M "I 21 21 21"
_symmetry_group_IT_number 24
_symmetry_cell_setting 'orthorhombic'
loop_
_space_group_symop_operation_xyz
x,y,z
-x,1/2-y,z
x,-y,1/2-z
1/2-x,y,-z
1/2+x,1/2+y,1/2+z
1/2-x,-y,1/2+z
1/2+x,1/2-y,-z
-x,1/2+y,1/2-z
loop_
_atom_site_type_symbol
_atom_site_label
_atom_site_fract_x
_atom_site_fract_y
_atom_site_fract_z
Si Si1 0.803435 0.000000 0.750000
Si Si2 0.825744 0.381718 0.639055
Si Si3 0.509308 0.573508 0.985171
Si Si4 0.915748 0.199230 0.858595
O O1 0.750000 0.040254 0.500000
O O2 0.858971 0.906507 0.611342
O O3 0.805791 0.500000 0.750000
O O4 0.750000 0.334479 0.500000
O O5 0.900515 0.392915 0.443376
O O6 0.858423 0.301088 0.859137
O O7 0.514923 0.500000 0.250000
O O8 0.448192 0.665177 0.065151
O O9 0.481328 0.500000 0.750000
O O10 0.000000 0.250000 0.977994
#
# Coordination Sequence:
#
# PCOD9335069 Si02
#       4
#     4   8   8   8
#     4  12  28  50  78 114 158 200 260 332 396 456
#     4  10  21  40  65 103 145 188 239 305 371 447
#     4  10  21  41  69  98 133 180 238 293 359 434
#     4  10  23  45  75 107 148 201 258 308 384 465
#
# _framework density 26.543177
#
# number of rings (size 3 to 8) (size 9 to 14) (size 15 to 20)
#    0.000    1.714    1.429    1.714    4.000    1.143 
#    0.000   45.714    0.000    0.000    0.000    0.000 
#    0.000    0.000    0.000    0.000    0.000    0.000 
#
# Total GULP energy -78044.985494 kJ/mol
# GULP energy per Si atom -5574.641821 kJ/mol
# Density = 2.648276 g / cm^3
# Si number density = 26.543177 Si / 1000 Ang^3
#
#
#
# Elastic Constant Matrix: (Units=GPa)
#
#
# Indices 1 2 3 4 5 6 
#
# 1 158.9091 29.9241 34.8228 0.0000 0.0000 0.0000
# 2 29.9241 128.7781 10.3826 0.0000 0.0000 0.0000
# 3 34.8228 10.3826 103.0898 0.0000 0.0000 0.0000
# 4 0.0000 0.0000 0.0000 20.5770 0.0000 0.0000
# 5 0.0000 0.0000 0.0000 0.0000 1.1887 0.0000
# 6 0.0000 0.0000 0.0000 0.0000 0.0000 38.2118
#
#
#
# Elastic Compliance Matrix: (Units=1/GPa)
#
#
# Indices 1 2 3 4 5 6 
#
# 1 0.007058 -0.001460 -0.002237 0.000000 0.000000 0.000000
# 2 -0.001460 0.008131 -0.000326 0.000000 0.000000 0.000000
# 3 -0.002237 -0.000326 0.010489 0.000000 0.000000 0.000000
# 4 0.000000 0.000000 0.000000 0.048598 0.000000 0.000000
# 5 0.000000 0.000000 0.000000 0.000000 0.841268 0.000000
# 6 0.000000 0.000000 0.000000 0.000000 0.000000 0.026170
#
#
# Mechanical properties :
#
#
# Convention : Reuss Voigt Hill
#
# Bulk Modulus (GPa) = 56.71415 60.11510 58.41463
# Shear Modulus (GPa) = 5.23212 33.03866 19.13539
#
# Velocity S-wave (km/s) = 1.40551 3.53188 2.68790
# Velocity P-wave (km/s) = 4.90378 6.27132 5.62923
#
# Compressibility (1/GPa) = 0.01763228
#
# Stress axis : x y z
#
# Youngs Moduli (GPa) = 141.68291 122.98983 95.34008
#
# Poissons Ratio (x) = 0.17953 0.21329
# Poissons Ratio (y) = 0.20681 0.03106
# Poissons Ratio (z) = 0.31696 0.04007
#
# Static dielectric constant tensor:
#      x y z
#    x 2.088180 0.000000 0.000000 
#    y 0.000000 2.257130 0.000000 
#    z 0.000000 0.000000 2.107930 
# 
# From -- ./inp_files/4237.got.cif
#   From: 2010.05.17/outbox.cif.g08.bks.cpg/sg24_3_cif.got.tgz:4237.got - 2010.06.04 00:33:39.
