data_PCOD9335217
_publ_section_title
;
Structure prediction by ZEFSAII (Michael W. Deem and Ramdas Pophale) SiO2 
 PCOD9335217
Probable space group: I 21 21 21
;
_chemical_formula_sum "Si O2"
_cell_formula_units_Z 40
_cell_length_a 26.319417
_cell_length_b 8.972457
_cell_length_c 8.005704
_cell_angle_alpha 90.000000
_cell_angle_beta 90.000000
_cell_angle_gamma 90.000000
_cell_volume 1890.545697
_symmetry_space_group_name_H-M "I 21 21 21"
_symmetry_group_IT_number 24
_symmetry_cell_setting 'orthorhombic'
loop_
_space_group_symop_operation_xyz
x,y,z
-x,1/2-y,z
x,-y,1/2-z
1/2-x,y,-z
1/2+x,1/2+y,1/2+z
1/2-x,-y,1/2+z
1/2+x,1/2-y,-z
-x,1/2+y,1/2-z
loop_
_atom_site_type_symbol
_atom_site_label
_atom_site_fract_x
_atom_site_fract_y
_atom_site_fract_z
Si Si1 0.171612 0.732778 0.599425
Si Si2 0.098629 0.500000 0.750000
Si Si3 0.645723 0.673896 0.769663
Si Si4 0.941619 0.742887 0.987932
Si Si5 0.269131 0.350063 0.676452
Si Si6 0.894493 0.500000 0.750000
O O1 0.135729 0.591923 0.630638
O O2 0.169277 0.764227 0.402699
O O3 0.223930 0.704603 0.700067
O O4 0.142036 0.874980 0.673715
O O5 0.068197 0.620070 0.860196
O O6 0.636306 0.500000 0.750000
O O7 0.693585 0.717137 0.882987
O O8 0.596567 0.747084 0.854282
O O9 0.927806 0.590154 0.886828
O O10 0.000000 0.750000 0.040089
O O11 0.294514 0.500000 0.750000
O O12 0.250000 0.409775 0.500000
#
# Coordination Sequence:
#
# PCOD9335217 Si02
#       6
#     8   4   8   8   8   4
#     4  11  23  44  69 102 141 181 228 290 351 428
#     4  10  23  44  72 104 132 182 237 298 354 418
#     4  12  27  45  66 105 144 187 236 290 358 430
#     4  11  24  47  72 102 141 189 244 303 361 416
#     4  12  26  43  71 104 142 189 235 289 359 430
#     4  10  21  42  72 100 142 176 241 288 352 436
#
# _framework density 21.157910999999999
#
# number of rings (size 3 to 8) (size 9 to 14) (size 15 to 20)
#    0.000    0.800    3.000    4.800    4.200    0.000 
#    3.600    1.000    0.000    0.000    0.000    0.000 
#    0.000    0.000    0.000    0.000    0.000    0.000 
#
# Total GULP energy -111594.179521 kJ/mol
# GULP energy per Si atom -5579.708976 kJ/mol
# Density = 2.110975 g / cm^3
# Si number density = 21.157911 Si / 1000 Ang^3
#
#
#
# Elastic Constant Matrix: (Units=GPa)
#
#
# Indices 1 2 3 4 5 6 
#
# 1 149.8288 33.6636 38.3156 0.0000 0.0000 0.0000
# 2 33.6636 96.7475 22.0582 0.0000 0.0000 0.0000
# 3 38.3156 22.0582 63.5616 0.0000 0.0000 0.0000
# 4 0.0000 0.0000 0.0000 28.4139 0.0000 0.0000
# 5 0.0000 0.0000 0.0000 0.0000 24.2999 0.0000
# 6 0.0000 0.0000 0.0000 0.0000 0.0000 17.0707
#
#
#
# Elastic Compliance Matrix: (Units=1/GPa)
#
#
# Indices 1 2 3 4 5 6 
#
# 1 0.008192 -0.001873 -0.004288 0.000000 0.000000 0.000000
# 2 -0.001873 0.011652 -0.002915 0.000000 0.000000 0.000000
# 3 -0.004288 -0.002915 0.019329 0.000000 0.000000 0.000000
# 4 0.000000 0.000000 0.000000 0.035194 0.000000 0.000000
# 5 0.000000 0.000000 0.000000 0.000000 0.041152 0.000000
# 6 0.000000 0.000000 0.000000 0.000000 0.000000 0.058580
#
#
# Mechanical properties :
#
#
# Convention : Reuss Voigt Hill
#
# Bulk Modulus (GPa) = 47.56947 55.35694 51.46321
# Shear Modulus (GPa) = 25.09302 28.36359 26.72831
#
# Velocity S-wave (km/s) = 3.44755 3.66535 3.55812
# Velocity P-wave (km/s) = 6.19511 6.64331 6.42312
#
# Compressibility (1/GPa) = 0.02102189
#
# Stress axis : x y z
#
# Youngs Moduli (GPa) = 122.07594 85.81940 51.73492
#
# Poissons Ratio (x) = 0.16071 0.22185
# Poissons Ratio (y) = 0.22860 0.15081
# Poissons Ratio (z) = 0.52348 0.25016
#
# Static dielectric constant tensor:
#      x y z
#    x 1.771510 0.000000 0.000000 
#    y 0.000000 1.786920 0.000000 
#    z 0.000000 0.000000 2.107030 
# 
# From -- ./inp_files/15657.got.cif
#   From: 2010.05.17/outbox.cif.g08.bks.cpg/sg24_8_cif.got.tgz:15657.got - 2010.06.04 00:33:39.
