data_PCOD9335264
_publ_section_title
;
Structure prediction by ZEFSAII (Michael W. Deem and Ramdas Pophale) SiO2 
 PCOD9335264
Probable space group: I 21 21 21
;
_chemical_formula_sum "Si O2"
_cell_formula_units_Z 48
_cell_length_a 9.046040
_cell_length_b 17.975683
_cell_length_c 13.192878
_cell_angle_alpha 90.000000
_cell_angle_beta 90.000000
_cell_angle_gamma 90.000000
_cell_volume 2145.277367
_symmetry_space_group_name_H-M "I 21 21 21"
_symmetry_group_IT_number 24
_symmetry_cell_setting 'orthorhombic'
loop_
_space_group_symop_operation_xyz
x,y,z
-x,1/2-y,z
x,-y,1/2-z
1/2-x,y,-z
1/2+x,1/2+y,1/2+z
1/2-x,-y,1/2+z
1/2+x,1/2-y,-z
-x,1/2+y,1/2-z
loop_
_atom_site_type_symbol
_atom_site_label
_atom_site_fract_x
_atom_site_fract_y
_atom_site_fract_z
Si Si1 0.378419 0.359392 0.358760
Si Si2 0.421502 0.920040 0.974993
Si Si3 0.782953 0.179383 0.844558
Si Si4 0.937336 0.832559 0.182227
Si Si5 0.992982 0.574534 0.553817
Si Si6 0.750000 0.310386 0.000000
Si Si7 0.011783 0.500000 0.750000
O O1 0.503548 0.361978 0.444239
O O2 0.387805 0.311353 0.255100
O O3 0.388527 0.442630 0.312409
O O4 0.209799 0.342299 0.387980
O O5 0.444907 0.888513 0.863199
O O6 0.250000 0.928893 0.000000
O O7 0.500707 0.999664 0.988700
O O8 0.628906 0.154002 0.793810
O O9 0.760771 0.255098 0.904662
O O10 0.858390 0.116826 0.913473
O O11 0.000000 0.750000 0.177406
O O12 0.890267 0.635791 0.502815
O O13 0.926458 0.545367 0.662875
#
# Coordination Sequence:
#
# PCOD9335264 Si02
#       7
#     8   8   8   8   8   4   4
#     4   8  19  42  72  99 147 188 244 294 375 445
#     4  11  22  43  76 119 149 192 243 320 378 450
#     4   9  23  45  73  94 148 200 241 309 359 457
#     4  10  23  46  69 111 143 190 257 303 372 457
#     4  10  21  44  70 106 144 193 246 304 372 445
#     4  12  22  44  72 104 142 192 260 296 374 432
#     4   8  16  40  70 102 136 192 246 284 380 436
#
# _framework density 22.374728999999999
#
# number of rings (size 3 to 8) (size 9 to 14) (size 15 to 20)
#    1.000    1.333    0.833    1.000    0.000    2.667 
#   21.000    0.000    0.000    0.000    0.000    0.000 
#    0.000    0.000    0.000    0.000    0.000    0.000 
#
# Total GULP energy -133683.644007 kJ/mol
# GULP energy per Si atom -5570.151834 kJ/mol
# Density = 2.232380 g / cm^3
# Si number density = 22.374729 Si / 1000 Ang^3
#
#
#
# Elastic Constant Matrix: (Units=GPa)
#
#
# Indices 1 2 3 4 5 6 
#
# 1 72.5808 45.2935 31.0759 0.0000 0.0000 0.0000
# 2 45.2935 108.6609 60.3909 0.0000 0.0000 0.0000
# 3 31.0759 60.3909 67.6949 0.0000 0.0000 0.0000
# 4 0.0000 0.0000 0.0000 16.5139 0.0000 0.0000
# 5 0.0000 0.0000 0.0000 0.0000 26.3174 0.0000
# 6 0.0000 0.0000 0.0000 0.0000 0.0000 26.8806
#
#
#
# Elastic Compliance Matrix: (Units=1/GPa)
#
#
# Indices 1 2 3 4 5 6 
#
# 1 0.018983 -0.006088 -0.003283 0.000000 0.000000 0.000000
# 2 -0.006088 0.020205 -0.015231 0.000000 0.000000 0.000000
# 3 -0.003283 -0.015231 0.029867 0.000000 0.000000 0.000000
# 4 0.000000 0.000000 0.000000 0.060555 0.000000 0.000000
# 5 0.000000 0.000000 0.000000 0.000000 0.037998 0.000000
# 6 0.000000 0.000000 0.000000 0.000000 0.000000 0.037202
#
#
# Mechanical properties :
#
#
# Convention : Reuss Voigt Hill
#
# Bulk Modulus (GPa) = 50.37440 58.05082 54.21261
# Shear Modulus (GPa) = 19.18436 21.42080 20.30258
#
# Velocity S-wave (km/s) = 2.93134 3.09749 3.01556
# Velocity P-wave (km/s) = 5.83265 6.22846 6.03380
#
# Compressibility (1/GPa) = 0.01985135
#
# Stress axis : x y z
#
# Youngs Moduli (GPa) = 52.68004 49.49180 33.48229
#
# Poissons Ratio (x) = 0.30130 0.10992
# Poissons Ratio (y) = 0.32071 0.50995
# Poissons Ratio (z) = 0.17295 0.75379
#
# Static dielectric constant tensor:
#      x y z
#    x 1.762720 0.000000 0.000000 
#    y 0.000000 1.802820 0.000000 
#    z 0.000000 0.000000 1.936460 
# 
# From -- ./inp_files/24837.got.cif
#   From: 2010.05.17/outbox.cif.g08.bks.cpg/sg24_13_cif.got.tgz:24837.got - 2010.06.04 00:33:39.
