data_PCOD9335083
_publ_section_title
;
Structure prediction by ZEFSAII (Michael W. Deem and Ramdas Pophale) SiO2 
 PCOD9335083
Probable space group: I 21 21 21
;
_chemical_formula_sum "Si O2"
_cell_formula_units_Z 40
_cell_length_a 5.482374
_cell_length_b 27.224067
_cell_length_c 12.731403
_cell_angle_alpha 90.000000
_cell_angle_beta 90.000000
_cell_angle_gamma 90.000000
_cell_volume 1900.193944
_symmetry_space_group_name_H-M "I 21 21 21"
_symmetry_group_IT_number 24
_symmetry_cell_setting 'orthorhombic'
loop_
_space_group_symop_operation_xyz
x,y,z
-x,1/2-y,z
x,-y,1/2-z
1/2-x,y,-z
1/2+x,1/2+y,1/2+z
1/2-x,-y,1/2+z
1/2+x,1/2-y,-z
-x,1/2+y,1/2-z
loop_
_atom_site_type_symbol
_atom_site_label
_atom_site_fract_x
_atom_site_fract_y
_atom_site_fract_z
Si Si1 0.747263 0.111313 0.120623
Si Si2 0.999691 0.693556 0.066205
Si Si3 0.503171 0.945037 0.207384
Si Si4 0.751140 0.771127 0.623226
Si Si5 0.497007 0.906639 0.817106
O O1 0.526429 0.090667 0.190688
O O2 0.745163 0.170200 0.125125
O O3 0.971133 0.091160 0.190358
O O4 0.750000 0.095944 0.000000
O O5 0.000000 0.750000 0.103264
O O6 0.999276 0.650100 0.150372
O O7 0.250000 0.687448 0.000000
O O8 0.750000 0.687391 0.000000
O O9 0.252502 0.932188 0.150234
O O10 0.752147 0.932346 0.144960
O O11 0.507810 0.000000 0.250000
O O12 0.500000 0.750000 0.667312
O O13 0.750000 0.755366 0.500000
O O14 0.000000 0.750000 0.672144
#
# Coordination Sequence:
#
# PCOD9335083 Si02
#       5
#     8   8   8   8   8
#     4   9  22  39  62  89 125 164 202 247 306 372
#     4  10  21  40  66  96 130 164 206 259 319 381
#     4  10  22  41  62  83 123 161 207 264 312 362
#     4   9  18  31  49  77 115 153 188 226 270 339
#     4  10  22  39  64  89 121 161 202 260 306 379
#
# _framework density 21.050481999999999
#
# number of rings (size 3 to 8) (size 9 to 14) (size 15 to 20)
#    1.200    1.200    0.000    1.800    2.800    1.600 
#    0.000    3.000    4.400    0.000    0.000    0.000 
#    0.000    0.000    0.000    0.000    0.000    0.000 
#
# Total GULP energy -111401.870884 kJ/mol
# GULP energy per Si atom -5570.093544 kJ/mol
# Density = 2.100257 g / cm^3
# Si number density = 21.050482 Si / 1000 Ang^3
#
#
#
# Elastic Constant Matrix: (Units=GPa)
#
#
# Indices 1 2 3 4 5 6 
#
# 1 197.7450 40.9403 16.0970 0.0000 0.0000 0.0000
# 2 40.9403 79.6445 -5.6173 0.0002 0.0000 0.0000
# 3 16.0970 -5.6173 49.4037 0.0002 0.0000 0.0000
# 4 0.0000 0.0002 0.0002 -126.9748 0.0000 0.0000
# 5 0.0000 0.0000 0.0000 0.0000 -4.3177 0.0000
# 6 0.0000 0.0000 0.0000 0.0000 0.0000 25.8819
#
#
#
# Elastic Compliance Matrix: (Units=1/GPa)
#
#
# Indices 1 2 3 4 5 6 
#
# 1 0.005905 -0.003197 -0.002287 0.000000 0.000000 0.000000
# 2 -0.003197 0.014388 0.002678 0.000000 0.000000 0.000000
# 3 -0.002287 0.002678 0.021291 0.000000 0.000000 0.000000
# 4 0.000000 0.000000 0.000000 -0.007876 0.000000 0.000000
# 5 0.000000 0.000000 0.000000 0.000000 -0.231606 0.000000
# 6 0.000000 0.000000 0.000000 0.000000 0.000000 0.038637
#
#
# Mechanical properties :
#
#
# Convention : Reuss Voigt Hill
#
# Bulk Modulus (GPa) = 27.80049 47.73705 37.76877
# Shear Modulus (GPa) = -35.29669 -2.72390 -19.01030
#
# Velocity S-wave (km/s) = -4.09927 -1.13877 -3.00839
# Velocity P-wave (km/s) = 3.02822 4.58231 2.43182
#
# Compressibility (1/GPa) = 0.03597058
#
# Stress axis : x y z
#
# Youngs Moduli (GPa) = 169.34597 69.50288 46.96790
#
# Poissons Ratio (x) = 0.22218 0.10744
# Poissons Ratio (y) = 0.54136 -0.12576
# Poissons Ratio (z) = 0.38738 -0.18609
#
# Static dielectric constant tensor:
#      x y z
#    x 2.639860 0.000000 0.000000 
#    y 0.000000 1.697900 0.000000 
#    z 0.000000 0.000000 1.769040 
# 
# From -- ./inp_files/23801.got.cif
#   From: 2010.05.17/outbox.cif.g08.bks.cpg/sg24_12_cif.got.tgz:23801.got - 2010.06.04 00:33:39.
