data_PCOD9335328
_publ_section_title
;
Structure prediction by ZEFSAII (Michael W. Deem and Ramdas Pophale) SiO2 
 PCOD9335328
Probable space group: I 21 21 21
;
_chemical_formula_sum "Si O2"
_cell_formula_units_Z 44
_cell_length_a 4.988904
_cell_length_b 31.926529
_cell_length_c 15.221919
_cell_angle_alpha 90.000000
_cell_angle_beta 90.000000
_cell_angle_gamma 90.000000
_cell_volume 2424.522724
_symmetry_space_group_name_H-M "I 21 21 21"
_symmetry_group_IT_number 24
_symmetry_cell_setting 'orthorhombic'
loop_
_space_group_symop_operation_xyz
x,y,z
-x,1/2-y,z
x,-y,1/2-z
1/2-x,y,-z
1/2+x,1/2+y,1/2+z
1/2-x,-y,1/2+z
1/2+x,1/2-y,-z
-x,1/2+y,1/2-z
loop_
_atom_site_type_symbol
_atom_site_label
_atom_site_fract_x
_atom_site_fract_y
_atom_site_fract_z
Si Si1 0.678270 0.406788 0.906263
Si Si2 0.224831 0.911259 0.210628
Si Si3 0.459311 0.500000 0.750000
Si Si4 0.174245 0.536775 0.589740
Si Si5 0.286843 0.382810 0.394780
Si Si6 0.502903 0.794766 0.064937
O O1 0.739828 0.390029 0.808207
O O2 0.370812 0.422226 0.907949
O O3 0.871919 0.447710 0.909725
O O4 0.750000 0.384869 0.000000
O O5 0.500361 0.911423 0.156747
O O6 0.997798 0.888611 0.152332
O O7 0.129851 0.958758 0.228458
O O8 0.265531 0.509881 0.669917
O O9 0.250000 0.514146 0.500000
O O10 0.250000 0.389734 0.500000
O O11 0.418234 0.336533 0.383670
O O12 0.500000 0.750000 0.114689
O O13 0.750000 0.788200 0.000000
O O14 0.250000 0.802461 0.000000
#
# Coordination Sequence:
#
# PCOD9335328 Si02
#       6
#     8   8   4   8   8   8
#     4   9  18  34  52  68  86 118 167 222 263 290
#     4  11  22  35  53  72 101 140 178 221 266 310
#     4  10  22  36  50  68  96 136 180 216 262 316
#     4   9  18  32  49  65  85 116 163 216 258 299
#     4  11  22  37  53  79 113 141 171 211 262 321
#     4   9  17  32  55  79 107 145 178 204 246 313
#
# _framework density 18.147902999999999
#
# number of rings (size 3 to 8) (size 9 to 14) (size 15 to 20)
#    0.000    2.182    0.000    4.909    0.000    7.273 
#    0.000   12.727    0.000    0.000    0.000    0.000 
#    0.000    2.909    0.000    5.091    0.000    0.000 
#
# Total GULP energy -122548.944816 kJ/mol
# GULP energy per Si atom -5570.406583 kJ/mol
# Density = 1.810660 g / cm^3
# Si number density = 18.147903 Si / 1000 Ang^3
#
#
#
# Elastic Constant Matrix: (Units=GPa)
#
#
# Indices 1 2 3 4 5 6 
#
# 1 84.5261 -1.9760 26.7801 0.0000 0.0000 0.0000
# 2 -1.9760 51.7886 7.5418 0.0000 0.0000 0.0000
# 3 26.7801 7.5418 154.9223 0.0000 0.0000 0.0000
# 4 0.0000 0.0000 0.0000 12.4502 0.0000 0.0000
# 5 0.0000 0.0000 0.0000 0.0000 37.4206 0.0000
# 6 0.0000 0.0000 0.0000 0.0000 0.0000 16.6800
#
#
#
# Elastic Compliance Matrix: (Units=1/GPa)
#
#
# Indices 1 2 3 4 5 6 
#
# 1 0.012549 0.000800 -0.002208 0.000000 0.000000 0.000000
# 2 0.000800 0.019498 -0.001088 0.000000 0.000000 0.000000
# 3 -0.002208 -0.001088 0.006890 0.000000 0.000000 0.000000
# 4 0.000000 0.000000 0.000000 0.080320 0.000000 0.000000
# 5 0.000000 0.000000 0.000000 0.000000 0.026723 0.000000
# 6 0.000000 0.000000 0.000000 0.000000 0.000000 0.059952
#
#
# Mechanical properties :
#
#
# Convention : Reuss Voigt Hill
#
# Bulk Modulus (GPa) = 29.45859 39.54764 34.50312
# Shear Modulus (GPa) = 22.49842 30.56957 26.53399
#
# Velocity S-wave (km/s) = 3.52479 4.10868 3.82789
# Velocity P-wave (km/s) = 5.73003 6.65939 6.21212
#
# Compressibility (1/GPa) = 0.03394596
#
# Stress axis : x y z
#
# Youngs Moduli (GPa) = 79.68764 51.28678 145.14827
#
# Poissons Ratio (x) = -0.04105 0.32052
# Poissons Ratio (y) = -0.06378 0.15786
# Poissons Ratio (z) = 0.17597 0.05578
#
# Static dielectric constant tensor:
#      x y z
#    x 1.638970 0.000000 0.000000 
#    y 0.000000 1.688360 0.000000 
#    z 0.000000 0.000000 1.690040 
# 
# From -- ./inp_files/24008.got.cif
#   From: 2010.05.17/outbox.cif.g08.bks.cpg/sg24_13_cif.got.tgz:24008.got - 2010.06.04 00:33:39.
