data_PCOD9335243
_publ_section_title
;
Structure prediction by ZEFSAII (Michael W. Deem and Ramdas Pophale) SiO2 
 PCOD9335243
Probable space group: I 21 21 21
;
_chemical_formula_sum "Si O2"
_cell_formula_units_Z 32
_cell_length_a 13.667266
_cell_length_b 5.292783
_cell_length_c 17.778453
_cell_angle_alpha 90.000000
_cell_angle_beta 90.000000
_cell_angle_gamma 90.000000
_cell_volume 1286.055478
_symmetry_space_group_name_H-M "I 21 21 21"
_symmetry_group_IT_number 24
_symmetry_cell_setting 'orthorhombic'
loop_
_space_group_symop_operation_xyz
x,y,z
-x,1/2-y,z
x,-y,1/2-z
1/2-x,y,-z
1/2+x,1/2+y,1/2+z
1/2-x,-y,1/2+z
1/2+x,1/2-y,-z
-x,1/2+y,1/2-z
loop_
_atom_site_type_symbol
_atom_site_label
_atom_site_fract_x
_atom_site_fract_y
_atom_site_fract_z
Si Si1 0.388728 0.437481 0.547095
Si Si2 0.392910 0.937124 0.488256
Si Si3 0.091892 0.917645 0.834534
Si Si4 0.690001 0.749167 0.799106
O O1 0.350542 0.220139 0.491674
O O2 0.499629 0.505311 0.522823
O O3 0.375111 0.312293 0.628183
O O4 0.343797 0.717681 0.537490
O O5 0.396498 0.871678 0.399845
O O6 0.197828 0.790179 0.825053
O O7 0.000000 0.750000 0.860034
O O8 0.066616 0.000000 0.750000
O O9 0.662586 0.500000 0.750000
O O10 0.685064 0.000000 0.750000
#
# Coordination Sequence:
#
# PCOD9335243 Si02
#       4
#     8   8   8   8
#     4  10  21  43  69  97 139 172 232 287 344 421
#     4  10  22  42  68 102 135 179 229 279 356 416
#     4  11  24  42  69 101 147 190 239 289 357 433
#     4  11  25  45  69 103 139 184 236 294 355 418
#
# _framework density 24.882289
#
# number of rings (size 3 to 8) (size 9 to 14) (size 15 to 20)
#    0.000    1.500    2.500    2.250    3.500    5.000 
#    0.000   12.500    0.000    0.000    0.000    0.000 
#    0.000    0.000    0.000    0.000    0.000    0.000 
#
# Total GULP energy -89323.632381 kJ/mol
# GULP energy per Si atom -5582.727024 kJ/mol
# Density = 2.482566 g / cm^3
# Si number density = 24.882289 Si / 1000 Ang^3
#
#
#
# Elastic Constant Matrix: (Units=GPa)
#
#
# Indices 1 2 3 4 5 6 
#
# 1 99.8609 0.9795 30.5241 0.0000 0.0000 0.0000
# 2 0.9795 201.4574 67.4918 0.0000 0.0000 0.0000
# 3 30.5241 67.4918 197.5499 0.0000 0.0000 0.0000
# 4 0.0000 0.0000 0.0000 61.0943 0.0000 0.0000
# 5 0.0000 0.0000 0.0000 0.0000 21.9908 0.0000
# 6 0.0000 0.0000 0.0000 0.0000 0.0000 -4.9285
#
#
#
# Elastic Compliance Matrix: (Units=1/GPa)
#
#
# Indices 1 2 3 4 5 6 
#
# 1 0.010566 0.000560 -0.001824 0.000000 0.000000 0.000000
# 2 0.000560 0.005635 -0.002012 0.000000 0.000000 0.000000
# 3 -0.001824 -0.002012 0.006031 0.000000 0.000000 0.000000
# 4 0.000000 0.000000 0.000000 0.016368 0.000000 0.000000
# 5 0.000000 0.000000 0.000000 0.000000 0.045474 0.000000
# 6 0.000000 0.000000 0.000000 0.000000 0.000000 -0.202901
#
#
# Mechanical properties :
#
#
# Convention : Reuss Voigt Hill
#
# Bulk Modulus (GPa) = 63.77373 77.42880 70.60127
# Shear Modulus (GPa) = -46.70770 42.28949 -2.20911
#
# Velocity S-wave (km/s) = -4.33731 4.12707 -0.94327
# Velocity P-wave (km/s) = 0.77644 7.34138 5.22009
#
# Compressibility (1/GPa) = 0.01568044
#
# Stress axis : x y z
#
# Youngs Moduli (GPa) = 94.64403 177.46084 165.80785
#
# Poissons Ratio (x) = -0.09931 0.30239
# Poissons Ratio (y) = -0.05296 0.33355
# Poissons Ratio (z) = 0.17261 0.35699
#
# Static dielectric constant tensor:
#      x y z
#    x 2.108020 0.000000 0.000000 
#    y 0.000000 2.212520 0.000000 
#    z 0.000000 0.000000 2.041390 
# 
# From -- ./inp_files/23531.got.cif
#   From: 2010.05.17/outbox.cif.g08.bks.cpg/sg24_12_cif.got.tgz:23531.got - 2010.06.04 00:33:39.
