data_PCOD9335871
_publ_section_title
;
Structure prediction by ZEFSAII (Michael W. Deem and Ramdas Pophale) SiO2 
 PCOD9335871
Probable space group: I 21 21 21
;
_chemical_formula_sum "Si O2"
_cell_formula_units_Z 64
_cell_length_a 16.397091
_cell_length_b 19.368724
_cell_length_c 9.092397
_cell_angle_alpha 90.000000
_cell_angle_beta 90.000000
_cell_angle_gamma 90.000000
_cell_volume 2887.661001
_symmetry_space_group_name_H-M "I 21 21 21"
_symmetry_group_IT_number 24
_symmetry_cell_setting 'orthorhombic'
loop_
_space_group_symop_operation_xyz
x,y,z
-x,1/2-y,z
x,-y,1/2-z
1/2-x,y,-z
1/2+x,1/2+y,1/2+z
1/2-x,-y,1/2+z
1/2+x,1/2-y,-z
-x,1/2+y,1/2-z
loop_
_atom_site_type_symbol
_atom_site_label
_atom_site_fract_x
_atom_site_fract_y
_atom_site_fract_z
Si Si1 0.153478 0.251918 0.985576
Si Si2 0.501002 0.027961 0.914673
Si Si3 0.440260 0.659169 0.701929
Si Si4 0.158301 0.311996 0.455340
Si Si5 0.054273 0.062047 0.649059
Si Si6 0.831125 0.401030 0.077667
Si Si7 0.887083 0.654170 0.120746
Si Si8 0.051766 0.681098 0.767998
O O1 0.092260 0.274025 0.116468
O O2 0.149019 0.168853 0.985515
O O3 0.250000 0.267608 0.000000
O O4 0.117436 0.294038 0.850413
O O5 0.547848 0.099717 0.916927
O O6 0.404975 0.045935 0.925865
O O7 0.515322 0.000000 0.750000
O O8 0.513499 0.975999 0.047016
O O9 0.367114 0.645175 0.813140
O O10 0.523116 0.660558 0.800034
O O11 0.250000 0.320619 0.500000
O O12 0.141098 0.230604 0.423703
O O13 0.099760 0.334528 0.584703
O O14 0.104916 0.106168 0.525489
O O15 0.010418 0.117954 0.753784
O O16 0.091309 0.000000 0.750000
O O17 0.828968 0.376622 0.249682
O O18 0.750000 0.428755 0.000000
O O19 0.000000 0.750000 0.794072
#
# Coordination Sequence:
#
# PCOD9335871 Si02
#       8
#     8   8   8   8   8   8   8   8
#     4  11  25  41  66 108 142 173 224 307 373 419
#     4  11  22  42  72  98 131 188 246 281 337 429
#     4  11  21  41  72  97 130 185 242 283 342 423
#     4  12  23  39  67 105 146 183 221 301 372 425
#     4  12  25  45  68 105 142 182 240 302 351 418
#     4  10  23  40  68 100 144 181 231 290 354 429
#     4  11  22  43  69 102 139 185 246 284 354 438
#     4  12  25  42  68 104 141 178 241 300 355 421
#
# _framework density 22.163267000000001
#
# number of rings (size 3 to 8) (size 9 to 14) (size 15 to 20)
#    0.000    0.750    6.250    1.875    8.750    0.000 
#    0.000    1.250    0.000   11.250    0.000    0.000 
#    0.000    0.000    0.000    0.000    0.000    0.000 
#
# Total GULP energy -178682.764583 kJ/mol
# GULP energy per Si atom -5583.836393 kJ/mol
# Density = 2.211282 g / cm^3
# Si number density = 22.163267 Si / 1000 Ang^3
#
#
#
# Elastic Constant Matrix: (Units=GPa)
#
#
# Indices 1 2 3 4 5 6 
#
# 1 90.0110 23.0153 19.3717 0.0000 0.0000 0.0000
# 2 23.0153 61.6888 13.4936 0.0000 0.0000 0.0000
# 3 19.3717 13.4936 94.7889 0.0000 0.0000 0.0000
# 4 0.0000 0.0000 0.0000 47.3336 0.0000 0.0000
# 5 0.0000 0.0000 0.0000 0.0000 41.4341 0.0000
# 6 0.0000 0.0000 0.0000 0.0000 0.0000 18.7504
#
#
#
# Elastic Compliance Matrix: (Units=1/GPa)
#
#
# Indices 1 2 3 4 5 6 
#
# 1 0.012629 -0.004280 -0.001972 0.000000 0.000000 0.000000
# 2 -0.004280 0.018182 -0.001714 0.000000 0.000000 0.000000
# 3 -0.001972 -0.001714 0.011197 0.000000 0.000000 0.000000
# 4 0.000000 0.000000 0.000000 0.021127 0.000000 0.000000
# 5 0.000000 0.000000 0.000000 0.000000 0.024135 0.000000
# 6 0.000000 0.000000 0.000000 0.000000 0.000000 0.053332
#
#
# Mechanical properties :
#
#
# Convention : Reuss Voigt Hill
#
# Bulk Modulus (GPa) = 38.34868 39.80553 39.07711
# Shear Modulus (GPa) = 30.26201 34.21083 32.23642
#
# Velocity S-wave (km/s) = 3.69916 3.93311 3.81793
# Velocity P-wave (km/s) = 5.96535 6.21489 6.09140
#
# Compressibility (1/GPa) = 0.02607651
#
# Stress axis : x y z
#
# Youngs Moduli (GPa) = 79.18594 54.99902 89.31279
#
# Poissons Ratio (x) = 0.23541 0.17608
# Poissons Ratio (y) = 0.33894 0.15304
# Poissons Ratio (z) = 0.15612 0.09424
#
# Static dielectric constant tensor:
#      x y z
#    x 1.727160 0.000000 0.000000 
#    y 0.000000 1.846050 0.000000 
#    z 0.000000 0.000000 1.898590 
# 
# From -- ./inp_files/14585.got.cif
#   From: 2010.05.17/outbox.cif.g08.bks.cpg/sg24_8_cif.got.tgz:14585.got - 2010.06.04 00:33:39.
