data_PCOD9335540
_publ_section_title
;
Structure prediction by ZEFSAII (Michael W. Deem and Ramdas Pophale) SiO2 
 PCOD9335540
Probable space group: I 21 21 21
;
_chemical_formula_sum "Si O2"
_cell_formula_units_Z 32
_cell_length_a 9.844107
_cell_length_b 13.207728
_cell_length_c 9.457805
_cell_angle_alpha 90.000000
_cell_angle_beta 90.000000
_cell_angle_gamma 90.000000
_cell_volume 1229.687611
_symmetry_space_group_name_H-M "I 21 21 21"
_symmetry_group_IT_number 24
_symmetry_cell_setting 'orthorhombic'
loop_
_space_group_symop_operation_xyz
x,y,z
-x,1/2-y,z
x,-y,1/2-z
1/2-x,y,-z
1/2+x,1/2+y,1/2+z
1/2-x,-y,1/2+z
1/2+x,1/2-y,-z
-x,1/2+y,1/2-z
loop_
_atom_site_type_symbol
_atom_site_label
_atom_site_fract_x
_atom_site_fract_y
_atom_site_fract_z
Si Si1 0.500000 0.250000 0.616924
Si Si2 0.750000 0.753065 0.000000
Si Si3 0.289196 0.311634 0.194578
Si Si4 0.478527 0.592652 0.651987
Si Si5 0.079822 0.907636 0.651254
O O1 0.604815 0.296074 0.495732
O O2 0.545703 0.332675 0.736154
O O3 0.771605 0.816283 0.143191
O O4 0.159930 0.350406 0.106258
O O5 0.423828 0.379558 0.192910
O O6 0.335998 0.196754 0.165153
O O7 0.437496 0.500000 0.750000
O O8 0.567097 0.566799 0.515720
O O9 0.128006 0.000000 0.750000
#
# Coordination Sequence:
#
# PCOD9335540 Si02
#       5
#     4   4   8   8   8
#     4  10  22  44  72 104 152 194 238 308 368 442
#     4  10  22  40  74 102 142 190 248 288 378 414
#     4  10  23  42  69 102 149 188 237 304 368 441
#     4  11  25  44  75 105 145 189 247 296 371 440
#     4  11  24  42  74 105 142 186 250 303 369 432
#
# _framework density 26.022870000000001
#
# number of rings (size 3 to 8) (size 9 to 14) (size 15 to 20)
#    0.000    1.500    0.000    4.500   10.500    2.000 
#    0.000    5.000   11.000    0.000    0.000    0.000 
#    0.000    0.000    0.000    0.000    0.000    0.000 
#
# Total GULP energy -89130.989374 kJ/mol
# GULP energy per Si atom -5570.686836 kJ/mol
# Density = 2.596364 g / cm^3
# Si number density = 26.022870 Si / 1000 Ang^3
#
#
#
# Elastic Constant Matrix: (Units=GPa)
#
#
# Indices 1 2 3 4 5 6 
#
# 1 22.8902 18.5658 17.2033 0.0000 0.0000 0.0000
# 2 18.5658 138.6772 40.4812 0.0000 0.0000 0.0000
# 3 17.2033 40.4812 137.3403 0.0001 0.0000 0.0001
# 4 0.0000 0.0000 0.0001 35.5376 0.0000 0.0001
# 5 0.0000 0.0000 0.0000 0.0000 79.2732 0.0001
# 6 0.0000 0.0000 0.0001 0.0001 0.0001 91.1204
#
#
#
# Elastic Compliance Matrix: (Units=1/GPa)
#
#
# Indices 1 2 3 4 5 6 
#
# 1 0.051818 -0.005517 -0.004864 0.000000 0.000000 0.000000
# 2 -0.005517 0.008477 -0.001808 0.000000 0.000000 0.000000
# 3 -0.004864 -0.001808 0.008423 0.000000 0.000000 0.000000
# 4 0.000000 0.000000 0.000000 0.028139 0.000000 0.000000
# 5 0.000000 0.000000 0.000000 0.000000 0.012615 0.000000
# 6 0.000000 0.000000 0.000000 0.000000 0.000000 0.010974
#
#
# Mechanical properties :
#
#
# Convention : Reuss Voigt Hill
#
# Bulk Modulus (GPa) = 22.55324 50.15648 36.35486
# Shear Modulus (GPa) = 31.32738 56.03007 43.67872
#
# Velocity S-wave (km/s) = 3.47340 4.64519 4.10136
# Velocity P-wave (km/s) = 4.97710 6.93443 6.03564
#
# Compressibility (1/GPa) = 0.04433954
#
# Stress axis : x y z
#
# Youngs Moduli (GPa) = 19.29849 117.96236 118.71835
#
# Poissons Ratio (x) = 0.65083 0.57750
# Poissons Ratio (y) = 0.10647 0.21460
# Poissons Ratio (z) = 0.09388 0.21323
#
# Static dielectric constant tensor:
#      x y z
#    x 1.678790 0.000000 0.000000 
#    y 0.000000 1.441590 0.000000 
#    z 0.000000 0.000000 1.032840 
# 
# From -- ./inp_files/10444.got.cif
#   From: 2010.05.17/outbox.cif.g08.bks.cpg/sg24_6_cif.got.tgz:10444.got - 2010.06.04 00:33:39.
