data_PCOD9335254
_publ_section_title
;
Structure prediction by ZEFSAII (Michael W. Deem and Ramdas Pophale) SiO2 
 PCOD9335254
Probable space group: I 21 21 21
;
_chemical_formula_sum "Si O2"
_cell_formula_units_Z 32
_cell_length_a 7.192804
_cell_length_b 20.585013
_cell_length_c 9.820473
_cell_angle_alpha 90.000000
_cell_angle_beta 90.000000
_cell_angle_gamma 90.000000
_cell_volume 1454.058159
_symmetry_space_group_name_H-M "I 21 21 21"
_symmetry_group_IT_number 24
_symmetry_cell_setting 'orthorhombic'
loop_
_space_group_symop_operation_xyz
x,y,z
-x,1/2-y,z
x,-y,1/2-z
1/2-x,y,-z
1/2+x,1/2+y,1/2+z
1/2-x,-y,1/2+z
1/2+x,1/2-y,-z
-x,1/2+y,1/2-z
loop_
_atom_site_type_symbol
_atom_site_label
_atom_site_fract_x
_atom_site_fract_y
_atom_site_fract_z
Si Si1 0.000000 0.750000 0.190672
Si Si2 0.750000 0.083498 0.000000
Si Si3 0.088469 0.999332 0.408387
Si Si4 0.973789 0.140220 0.516431
Si Si5 0.118402 0.692627 0.695679
O O1 0.943304 0.691308 0.090457
O O2 0.177686 0.722276 0.270639
O O3 0.855892 0.130241 0.896594
O O4 0.602510 0.039947 0.920489
O O5 0.250000 0.968267 0.500000
O O6 0.050094 0.069797 0.476397
O O7 0.143506 0.000000 0.250000
O O8 0.750000 0.137423 0.500000
O O9 0.989341 0.168865 0.668137
O O10 0.000000 0.750000 0.629503
#
# Coordination Sequence:
#
# PCOD9335254 Si02
#       5
#     4   4   8   8   8
#     4  10  22  42  70 110 142 180 246 306 362 438
#     4  12  30  50  72 106 162 192 250 312 378 452
#     4  12  29  48  77 113 149 203 250 309 379 452
#     4  10  21  43  75 102 145 187 250 303 363 439
#     4  11  26  44  74 106 144 197 240 307 375 441
#
# _framework density 22.007373000000001
#
# number of rings (size 3 to 8) (size 9 to 14) (size 15 to 20)
#    0.000    1.000    2.500    3.000    8.750    2.000 
#    0.000    0.000    0.000    0.000    0.000    0.000 
#    0.000    0.000    0.000    0.000    0.000    0.000 
#
# Total GULP energy -89507.337355 kJ/mol
# GULP energy per Si atom -5594.208585 kJ/mol
# Density = 2.195728 g / cm^3
# Si number density = 22.007373 Si / 1000 Ang^3
#
#
#
# Elastic Constant Matrix: (Units=GPa)
#
#
# Indices 1 2 3 4 5 6 
#
# 1 67.5568 14.9300 31.3108 -0.0001 0.0000 0.0000
# 2 14.9300 110.1037 9.0193 0.0000 0.0000 0.0001
# 3 31.3108 9.0193 80.5328 -0.0008 0.0000 -0.0009
# 4 -0.0001 0.0000 -0.0008 23.2376 0.0000 -0.0002
# 5 0.0000 0.0000 0.0000 0.0000 26.7634 -0.0002
# 6 0.0000 0.0001 -0.0009 -0.0002 -0.0002 -3.0389
#
#
#
# Elastic Compliance Matrix: (Units=1/GPa)
#
#
# Indices 1 2 3 4 5 6 
#
# 1 0.018455 -0.001932 -0.006959 0.000000 0.000000 0.000002
# 2 -0.001932 0.009369 -0.000298 0.000000 0.000000 0.000000
# 3 -0.006959 -0.000298 0.015156 0.000000 0.000000 -0.000005
# 4 0.000000 0.000000 0.000000 0.043034 0.000000 -0.000003
# 5 0.000000 0.000000 0.000000 0.000000 0.037364 -0.000002
# 6 0.000002 0.000000 -0.000005 -0.000003 -0.000002 -0.329067
#
#
# Mechanical properties :
#
#
# Convention : Reuss Voigt Hill
#
# Bulk Modulus (GPa) = 40.64787 40.96816 40.80801
# Shear Modulus (GPa) = -27.91566 22.92131 -2.49718
#
# Velocity S-wave (km/s) = -3.56542 3.23077 -1.06638
# Velocity P-wave (km/s) = 1.24923 5.70730 4.13121
#
# Compressibility (1/GPa) = 0.02460154
#
# Stress axis : x y z
#
# Youngs Moduli (GPa) = 54.18721 106.73745 65.97986
#
# Poissons Ratio (x) = 0.20626 0.45913
# Poissons Ratio (y) = 0.10471 0.01966
# Poissons Ratio (z) = 0.37707 0.03180
#
# Static dielectric constant tensor:
#      x y z
#    x 1.847930 0.000000 0.000000 
#    y 0.000000 1.784840 0.000000 
#    z 0.000000 0.000000 1.811430 
# 
# From -- ./inp_files/9010.got.cif
#   From: 2010.05.17/outbox.cif.g08.bks.cpg/sg24_5_cif.got.tgz:9010.got - 2010.06.04 00:33:39.
