data_PCOD9335664
_publ_section_title
;
Structure prediction by ZEFSAII (Michael W. Deem and Ramdas Pophale) SiO2 
 PCOD9335664
Probable space group: I 21 21 21
;
_chemical_formula_sum "Si O2"
_cell_formula_units_Z 32
_cell_length_a 5.021479
_cell_length_b 34.106904
_cell_length_c 7.920909
_cell_angle_alpha 90.000000
_cell_angle_beta 90.000000
_cell_angle_gamma 90.000000
_cell_volume 1356.591131
_symmetry_space_group_name_H-M "I 21 21 21"
_symmetry_group_IT_number 24
_symmetry_cell_setting 'orthorhombic'
loop_
_space_group_symop_operation_xyz
x,y,z
-x,1/2-y,z
x,-y,1/2-z
1/2-x,y,-z
1/2+x,1/2+y,1/2+z
1/2-x,-y,1/2+z
1/2+x,1/2-y,-z
-x,1/2+y,1/2-z
loop_
_atom_site_type_symbol
_atom_site_label
_atom_site_fract_x
_atom_site_fract_y
_atom_site_fract_z
Si Si1 0.750000 0.440591 0.500000
Si Si2 0.750000 0.385927 0.000000
Si Si3 0.057673 0.000000 0.750000
Si Si4 0.750000 0.056913 0.000000
Si Si5 0.616256 0.334530 0.688265
Si Si6 0.750000 0.884581 0.000000
Si Si7 0.000000 0.750000 0.122041
O O1 0.750917 0.470083 0.345155
O O2 0.497163 0.413285 0.475433
O O3 0.733750 0.358166 0.165593
O O4 0.497985 0.414092 0.966658
O O5 0.866847 0.972608 0.639282
O O6 0.750000 0.335143 0.500000
O O7 0.337363 0.356736 0.653518
O O8 0.570356 0.288915 0.725972
O O9 0.750000 0.759462 0.000000
#
# Coordination Sequence:
#
# PCOD9335664 Si02
#       7
#     4   4   4   4   8   4   4
#     4  12  27  44  73 100 138 190 240 304 375 446
#     4  12  29  48  75 118 148 192 260 314 375 458
#     4  12  28  52  70 106 148 196 248 318 382 456
#     4  12  29  52  75 108 144 194 252 316 377 464
#     4  11  25  48  76 113 152 204 246 314 374 452
#     4  12  23  44  73 104 134 198 244 298 381 436
#     4  10  22  42  76 110 150 202 252 296 376 460
#
# _framework density 23.588538
#
# number of rings (size 3 to 8) (size 9 to 14) (size 15 to 20)
#    0.000    0.500    2.500    4.500    3.500    7.000 
#    0.000    6.250    0.000    0.000    0.000    0.000 
#    0.000    0.000    0.000    0.000    0.000    0.000 
#
# Total GULP energy -89561.257180 kJ/mol
# GULP energy per Si atom -5597.578574 kJ/mol
# Density = 2.353485 g / cm^3
# Si number density = 23.588538 Si / 1000 Ang^3
#
#
#
# Elastic Constant Matrix: (Units=GPa)
#
#
# Indices 1 2 3 4 5 6 
#
# 1 102.4290 32.9869 9.3723 0.0000 0.0000 0.0000
# 2 32.9869 210.0992 57.5969 0.0000 0.0000 0.0001
# 3 9.3723 57.5969 93.6388 -0.0002 0.0000 0.0003
# 4 0.0000 0.0000 -0.0002 25.5220 0.0000 0.0000
# 5 0.0000 0.0000 0.0000 0.0000 30.3183 0.0000
# 6 0.0000 0.0001 0.0003 0.0000 0.0000 30.5948
#
#
#
# Elastic Compliance Matrix: (Units=1/GPa)
#
#
# Indices 1 2 3 4 5 6 
#
# 1 0.010283 -0.001603 -0.000043 0.000000 0.000000 0.000000
# 2 -0.001603 0.005975 -0.003515 0.000000 0.000000 0.000000
# 3 -0.000043 -0.003515 0.012846 0.000000 0.000000 0.000000
# 4 0.000000 0.000000 0.000000 0.039182 0.000000 0.000000
# 5 0.000000 0.000000 0.000000 0.000000 0.032983 0.000000
# 6 0.000000 0.000000 0.000000 0.000000 0.000000 0.032685
#
#
# Mechanical properties :
#
#
# Convention : Reuss Voigt Hill
#
# Bulk Modulus (GPa) = 53.24294 67.34213 60.29253
# Shear Modulus (GPa) = 33.21468 37.70109 35.45789
#
# Velocity S-wave (km/s) = 3.75652 4.00219 3.88130
# Velocity P-wave (km/s) = 6.43706 7.06876 6.76029
#
# Compressibility (1/GPa) = 0.01878183
#
# Stress axis : x y z
#
# Youngs Moduli (GPa) = 97.24842 167.37006 77.84801
#
# Poissons Ratio (x) = 0.26822 0.00339
# Poissons Ratio (y) = 0.15585 0.27361
# Poissons Ratio (z) = 0.00423 0.58825
#
# Static dielectric constant tensor:
#      x y z
#    x 1.901190 0.000000 0.000000 
#    y 0.000000 1.885050 0.000000 
#    z 0.000000 0.000000 1.945720 
# 
# From -- ./inp_files/1255.got.cif
#   From: 2010.05.17/outbox.cif.g08.bks.cpg/sg24_1_cif.got.tgz:1255.got - 2010.06.04 00:33:39.
