data_PCOD9335919
_publ_section_title
;
Structure prediction by ZEFSAII (Michael W. Deem and Ramdas Pophale) SiO2 
 PCOD9335919
Probable space group: I 21 21 21
;
_chemical_formula_sum "Si O2"
_cell_formula_units_Z 64
_cell_length_a 18.534771
_cell_length_b 11.385260
_cell_length_c 14.993439
_cell_angle_alpha 90.000000
_cell_angle_beta 90.000000
_cell_angle_gamma 90.000000
_cell_volume 3163.963280
_symmetry_space_group_name_H-M "I 21 21 21"
_symmetry_group_IT_number 24
_symmetry_cell_setting 'orthorhombic'
loop_
_space_group_symop_operation_xyz
x,y,z
-x,1/2-y,z
x,-y,1/2-z
1/2-x,y,-z
1/2+x,1/2+y,1/2+z
1/2-x,-y,1/2+z
1/2+x,1/2-y,-z
-x,1/2+y,1/2-z
loop_
_atom_site_type_symbol
_atom_site_label
_atom_site_fract_x
_atom_site_fract_y
_atom_site_fract_z
Si Si1 0.415521 0.773230 0.383761
Si Si2 0.981763 0.879438 0.003254
Si Si3 0.189710 0.367130 0.233405
Si Si4 0.924064 0.469985 0.653770
Si Si5 0.527721 0.875398 0.795354
Si Si6 0.676095 0.918986 0.042732
Si Si7 0.176626 0.324304 0.024012
Si Si8 0.166844 0.738980 0.788462
O O1 0.500000 0.750000 0.372161
O O2 0.392594 0.736220 0.482429
O O3 0.375833 0.708939 0.301846
O O4 0.387667 0.906707 0.370726
O O5 0.005848 0.888026 0.105442
O O6 0.000000 0.750000 0.971033
O O7 0.896611 0.895513 0.010640
O O8 0.019281 0.954840 0.926547
O O9 0.219071 0.500000 0.250000
O O10 0.114724 0.363264 0.287345
O O11 0.172843 0.352735 0.128145
O O12 0.248217 0.269698 0.262935
O O13 0.959465 0.500000 0.750000
O O14 0.870196 0.358918 0.670951
O O15 0.500000 0.750000 0.758038
O O16 0.510258 0.000000 0.750000
O O17 0.660655 0.860640 0.136872
O O18 0.750000 0.869879 0.000000
O O19 0.683597 0.058478 0.036860
O O20 0.250000 0.255319 0.000000
#
# Coordination Sequence:
#
# PCOD9335919 Si02
#       8
#     8   8   8   8   8   8   8   8
#     4  11  25  42  65  97 134 179 225 275 343 410
#     4  11  21  41  65  91 132 174 216 281 333 395
#     4  11  22  42  70  99 140 173 221 290 344 409
#     4  10  24  42  63  95 138 174 226 273 335 409
#     4  10  23  42  70 100 137 177 234 288 349 413
#     4  11  22  36  62  95 125 163 222 268 326 401
#     4  11  22  41  63  95 129 170 220 271 333 395
#     4  11  23  40  64  93 136 176 218 277 337 402
#
# _framework density 20.227793999999999
#
# number of rings (size 3 to 8) (size 9 to 14) (size 15 to 20)
#    0.000    1.250    2.500    4.500    3.500    1.500 
#    0.000    2.500    0.000    0.000    0.000    0.000 
#    0.000    0.000    0.000    0.000    0.000    0.000 
#
# Total GULP energy -178215.946639 kJ/mol
# GULP energy per Si atom -5569.248332 kJ/mol
# Density = 2.018176 g / cm^3
# Si number density = 20.227794 Si / 1000 Ang^3
#
#
#
# Elastic Constant Matrix: (Units=GPa)
#
#
# Indices 1 2 3 4 5 6 
#
# 1 78.4756 32.7105 16.5956 0.0000 0.0000 0.0000
# 2 32.7105 68.2364 34.3400 0.0000 0.0000 0.0000
# 3 16.5956 34.3400 124.9222 0.0000 0.0000 0.0000
# 4 0.0000 0.0000 0.0000 28.1091 0.0000 0.0000
# 5 0.0000 0.0000 0.0000 0.0000 41.6180 0.0000
# 6 0.0000 0.0000 0.0000 0.0000 0.0000 17.9739
#
#
#
# Elastic Compliance Matrix: (Units=1/GPa)
#
#
# Indices 1 2 3 4 5 6 
#
# 1 0.015925 -0.007624 -0.000020 0.000000 0.000000 0.000000
# 2 -0.007624 0.020658 -0.004666 0.000000 0.000000 0.000000
# 3 -0.000020 -0.004666 0.009290 0.000000 0.000000 0.000000
# 4 0.000000 0.000000 0.000000 0.035576 0.000000 0.000000
# 5 0.000000 0.000000 0.000000 0.000000 0.024028 0.000000
# 6 0.000000 0.000000 0.000000 0.000000 0.000000 0.055636
#
#
# Mechanical properties :
#
#
# Convention : Reuss Voigt Hill
#
# Bulk Modulus (GPa) = 47.05077 48.76961 47.91019
# Shear Modulus (GPa) = 25.93141 30.07274 28.00208
#
# Velocity S-wave (km/s) = 3.58434 3.85996 3.72470
# Velocity P-wave (km/s) = 6.35932 6.63538 6.49882
#
# Compressibility (1/GPa) = 0.02125364
#
# Stress axis : x y z
#
# Youngs Moduli (GPa) = 62.79505 48.40819 107.64027
#
# Poissons Ratio (x) = 0.36906 0.00213
# Poissons Ratio (y) = 0.47874 0.50223
# Poissons Ratio (z) = 0.00124 0.22586
#
# Static dielectric constant tensor:
#      x y z
#    x 1.728980 0.000000 0.000000 
#    y 0.000000 1.800410 0.000000 
#    z 0.000000 0.000000 1.769090 
# 
# From -- ./inp_files/27240.got.cif
#   From: 2010.05.17/outbox.cif.g08.bks.cpg/sg24_14_cif.got.tgz:27240.got - 2010.06.04 00:33:39.
