data_PCOD9335428
_publ_section_title
;
Structure prediction by ZEFSAII (Michael W. Deem and Ramdas Pophale) SiO2 
 PCOD9335428
Probable space group: I 21 21 21
;
_chemical_formula_sum "Si O2"
_cell_formula_units_Z 60
_cell_length_a 8.654461
_cell_length_b 21.477329
_cell_length_c 15.362156
_cell_angle_alpha 90.000000
_cell_angle_beta 90.000000
_cell_angle_gamma 90.000000
_cell_volume 2855.436233
_symmetry_space_group_name_H-M "I 21 21 21"
_symmetry_group_IT_number 24
_symmetry_cell_setting 'orthorhombic'
loop_
_space_group_symop_operation_xyz
x,y,z
-x,1/2-y,z
x,-y,1/2-z
1/2-x,y,-z
1/2+x,1/2+y,1/2+z
1/2-x,-y,1/2+z
1/2+x,1/2-y,-z
-x,1/2+y,1/2-z
loop_
_atom_site_type_symbol
_atom_site_label
_atom_site_fract_x
_atom_site_fract_y
_atom_site_fract_z
Si Si1 0.310666 0.004254 0.591942
Si Si2 0.181169 0.242324 0.725661
Si Si3 0.658191 0.788087 0.408310
Si Si4 0.189025 0.153397 0.405969
Si Si5 0.327462 0.508951 0.912220
Si Si6 0.343617 0.645043 0.853550
Si Si7 0.667748 0.911327 0.297601
Si Si8 0.084834 0.000000 0.750000
O O1 0.250000 0.979239 0.500000
O O2 0.299264 0.079142 0.590622
O O3 0.493083 0.991693 0.600175
O O4 0.196974 0.985580 0.669095
O O5 0.241544 0.253533 0.824615
O O6 0.220478 0.179054 0.677290
O O7 0.237620 0.294593 0.656505
O O8 0.000000 0.250000 0.735100
O O9 0.500000 0.750000 0.424683
O O10 0.750000 0.791601 0.500000
O O11 0.626810 0.856975 0.366797
O O12 0.250000 0.176944 0.500000
O O13 0.010594 0.167565 0.384125
O O14 0.309154 0.583645 0.909552
O O15 0.229137 0.473488 0.841413
O O16 0.250000 0.486028 0.000000
O O17 0.311164 0.615487 0.758231
O O18 0.521903 0.937441 0.242534
#
# Coordination Sequence:
#
# PCOD9335428 Si02
#       8
#     8   8   8   8   8   8   8   4
#     4  10  25  40  62 101 136 179 222 288 352 411
#     4  10  23  39  65  94 131 175 229 284 350 416
#     4  10  24  45  67  99 135 179 234 292 350 413
#     4  10  23  41  63  93 135 173 225 282 342 419
#     4  11  22  40  65  93 134 173 232 277 341 430
#     4  10  22  39  63  92 128 173 224 270 343 410
#     4  11  23  42  70  98 130 188 231 286 353 426
#     4  12  24  40  74  96 148 176 232 290 358 422
#
# _framework density 21.012551999999999
#
# number of rings (size 3 to 8) (size 9 to 14) (size 15 to 20)
#    0.000    1.600    1.333    1.600    9.333    5.867 
#    0.000    3.333    0.000    0.000    0.000    0.000 
#    0.000    0.000    0.000    0.000    0.000    0.000 
#
# Total GULP energy -167103.521069 kJ/mol
# GULP energy per Si atom -5570.117369 kJ/mol
# Density = 2.096473 g / cm^3
# Si number density = 21.012552 Si / 1000 Ang^3
#
#
#
# Elastic Constant Matrix: (Units=GPa)
#
#
# Indices 1 2 3 4 5 6 
#
# 1 95.9863 42.1759 68.0973 0.0000 0.0000 0.0000
# 2 42.1759 37.4528 19.1773 0.0000 0.0000 0.0000
# 3 68.0973 19.1773 122.3248 0.0000 0.0000 0.0000
# 4 0.0000 0.0000 0.0000 15.0432 0.0000 0.0000
# 5 0.0000 0.0000 0.0000 0.0000 39.0613 0.0000
# 6 0.0000 0.0000 0.0000 0.0000 0.0000 31.2633
#
#
#
# Elastic Compliance Matrix: (Units=1/GPa)
#
#
# Indices 1 2 3 4 5 6 
#
# 1 0.034163 -0.031241 -0.014121 0.000000 0.000000 0.000000
# 2 -0.031241 0.057600 0.008362 0.000000 0.000000 0.000000
# 3 -0.014121 0.008362 0.014725 0.000000 0.000000 0.000000
# 4 0.000000 0.000000 0.000000 0.066475 0.000000 0.000000
# 5 0.000000 0.000000 0.000000 0.000000 0.025601 0.000000
# 6 0.000000 0.000000 0.000000 0.000000 0.000000 0.031986
#
#
# Mechanical properties :
#
#
# Convention : Reuss Voigt Hill
#
# Bulk Modulus (GPa) = 30.78105 57.18497 43.98301
# Shear Modulus (GPa) = 15.85389 25.49444 20.67416
#
# Velocity S-wave (km/s) = 2.74979 3.48702 3.14011
# Velocity P-wave (km/s) = 4.97619 6.59440 5.84160
#
# Compressibility (1/GPa) = 0.03248752
#
# Stress axis : x y z
#
# Youngs Moduli (GPa) = 29.27124 17.36119 67.91211
#
# Poissons Ratio (x) = 0.54238 0.95896
# Poissons Ratio (y) = 0.91447 -0.56786
# Poissons Ratio (z) = 0.41333 -0.14517
#
# Static dielectric constant tensor:
#      x y z
#    x 1.874840 0.000000 0.000000 
#    y 0.000000 1.824450 0.000000 
#    z 0.000000 0.000000 1.703540 
# 
# From -- ./inp_files/25187.got.cif
#   From: 2010.05.17/outbox.cif.g08.bks.cpg/sg24_13_cif.got.tgz:25187.got - 2010.06.04 00:33:39.
