data_PCOD9335075
_publ_section_title
;
Structure prediction by ZEFSAII (Michael W. Deem and Ramdas Pophale) SiO2 
 PCOD9335075
Probable space group: I 21 21 21
;
_chemical_formula_sum "Si O2"
_cell_formula_units_Z 44
_cell_length_a 13.399114
_cell_length_b 8.585340
_cell_length_c 18.480786
_cell_angle_alpha 90.000000
_cell_angle_beta 90.000000
_cell_angle_gamma 90.000000
_cell_volume 2125.954763
_symmetry_space_group_name_H-M "I 21 21 21"
_symmetry_group_IT_number 24
_symmetry_cell_setting 'orthorhombic'
loop_
_space_group_symop_operation_xyz
x,y,z
-x,1/2-y,z
x,-y,1/2-z
1/2-x,y,-z
1/2+x,1/2+y,1/2+z
1/2-x,-y,1/2+z
1/2+x,1/2-y,-z
-x,1/2+y,1/2-z
loop_
_atom_site_type_symbol
_atom_site_label
_atom_site_fract_x
_atom_site_fract_y
_atom_site_fract_z
Si Si1 0.701477 0.613393 0.683264
Si Si2 0.000000 0.750000 0.360143
Si Si3 0.594492 0.138317 0.405907
Si Si4 0.716714 0.666591 0.916570
Si Si5 0.292130 0.576060 0.325812
Si Si6 0.886295 0.032853 0.428812
O O1 0.710957 0.500000 0.750000
O O2 0.596684 0.705159 0.686307
O O3 0.699655 0.503328 0.613525
O O4 0.788233 0.739746 0.681439
O O5 0.031173 0.593891 0.405050
O O6 0.500000 0.250000 0.408774
O O7 0.686763 0.249731 0.382634
O O8 0.610496 0.058664 0.484810
O O9 0.603035 0.999102 0.348653
O O10 0.623736 0.784769 0.904290
O O11 0.750000 0.660114 0.000000
O O12 0.257914 0.500000 0.250000
O O13 0.213991 0.537595 0.391447
#
# Coordination Sequence:
#
# PCOD9335075 Si02
#       6
#     8   4   8   8   8   8
#     4  11  23  38  60  92 127 170 216 258 326 397
#     4  10  24  34  58  96 132 166 204 276 316 390
#     4  10  21  40  65  93 122 167 216 275 329 382
#     4   9  20  37  62  84 118 168 208 260 319 387
#     4  10  21  42  64  87 127 172 211 266 328 392
#     4   9  20  39  61  92 127 164 211 261 327 387
#
# _framework density 20.696584000000001
#
# number of rings (size 3 to 8) (size 9 to 14) (size 15 to 20)
#    0.000    2.182    0.000    3.818    5.091    7.273 
#    0.000    2.727    0.000    0.000    0.000    0.000 
#    0.000    0.000    0.000    0.000    0.000    0.000 
#
# Total GULP energy -122480.211206 kJ/mol
# GULP energy per Si atom -5567.282328 kJ/mol
# Density = 2.064948 g / cm^3
# Si number density = 20.696584 Si / 1000 Ang^3
#
#
#
# Elastic Constant Matrix: (Units=GPa)
#
#
# Indices 1 2 3 4 5 6 
#
# 1 59.8583 32.0295 37.2948 0.0000 0.0000 0.0000
# 2 32.0295 151.6988 58.7367 0.0000 0.0000 0.0000
# 3 37.2948 58.7367 61.6617 0.0000 0.0000 0.0000
# 4 0.0000 0.0000 0.0000 40.0865 0.0000 0.0000
# 5 0.0000 0.0000 0.0000 0.0000 11.1534 0.0000
# 6 0.0000 0.0000 0.0000 0.0000 0.0000 39.3761
#
#
#
# Elastic Compliance Matrix: (Units=1/GPa)
#
#
# Indices 1 2 3 4 5 6 
#
# 1 0.026901 0.000982 -0.017206 0.000000 0.000000 0.000000
# 2 0.000982 0.010480 -0.010577 0.000000 0.000000 0.000000
# 3 -0.017206 -0.010577 0.036699 0.000000 0.000000 0.000000
# 4 0.000000 0.000000 0.000000 0.024946 0.000000 0.000000
# 5 0.000000 0.000000 0.000000 0.000000 0.089659 0.000000
# 6 0.000000 0.000000 0.000000 0.000000 0.000000 0.025396
#
#
# Mechanical properties :
#
#
# Convention : Reuss Voigt Hill
#
# Bulk Modulus (GPa) = 48.83111 58.81565 53.82338
# Shear Modulus (GPa) = 18.21435 27.80038 23.00737
#
# Velocity S-wave (km/s) = 2.96981 3.66899 3.33776
# Velocity P-wave (km/s) = 5.95019 6.81384 6.39661
#
# Compressibility (1/GPa) = 0.02047875
#
# Stress axis : x y z
#
# Youngs Moduli (GPa) = 37.17362 95.42069 27.24837
#
# Poissons Ratio (x) = -0.09373 0.46884
# Poissons Ratio (y) = -0.03651 0.28820
# Poissons Ratio (z) = 0.63961 1.00925
#
# Static dielectric constant tensor:
#      x y z
#    x 1.788040 0.000000 0.000000 
#    y 0.000000 1.796450 0.000000 
#    z 0.000000 0.000000 1.829960 
# 
# From -- ./inp_files/14087.got.cif
#   From: 2010.05.17/outbox.cif.g08.bks.cpg/sg24_8_cif.got.tgz:14087.got - 2010.06.04 00:33:39.
