data_PCOD9335883
_publ_section_title
;
Structure prediction by ZEFSAII (Michael W. Deem and Ramdas Pophale) SiO2 
 PCOD9335883
Probable space group: I 21 21 21
;
_chemical_formula_sum "Si O2"
_cell_formula_units_Z 56
_cell_length_a 17.596250
_cell_length_b 14.896792
_cell_length_c 9.209718
_cell_angle_alpha 90.000000
_cell_angle_beta 90.000000
_cell_angle_gamma 90.000000
_cell_volume 2414.121978
_symmetry_space_group_name_H-M "I 21 21 21"
_symmetry_group_IT_number 24
_symmetry_cell_setting 'orthorhombic'
loop_
_space_group_symop_operation_xyz
x,y,z
-x,1/2-y,z
x,-y,1/2-z
1/2-x,y,-z
1/2+x,1/2+y,1/2+z
1/2-x,-y,1/2+z
1/2+x,1/2-y,-z
-x,1/2+y,1/2-z
loop_
_atom_site_type_symbol
_atom_site_label
_atom_site_fract_x
_atom_site_fract_y
_atom_site_fract_z
Si Si1 0.704757 0.136622 0.123170
Si Si2 0.391362 0.500546 0.927206
Si Si3 0.687878 0.824391 0.884065
Si Si4 0.578266 0.565379 0.122385
Si Si5 0.417246 0.779352 0.314071
Si Si6 0.064258 0.821435 0.153211
Si Si7 0.558575 0.417158 0.942183
O O1 0.831256 0.054710 0.971588
O O2 0.765119 0.126975 0.253503
O O3 0.635288 0.193801 0.181027
O O4 0.750000 0.191745 0.000000
O O5 0.388329 0.500000 0.750000
O O6 0.370165 0.603890 0.954451
O O7 0.473609 0.458668 0.964752
O O8 0.750000 0.798386 0.000000
O O9 0.640907 0.736632 0.843505
O O10 0.541372 0.500000 0.250000
O O11 0.618904 0.640917 0.218492
O O12 0.543783 0.631548 0.999111
O O13 0.613565 0.489893 0.017686
O O14 0.500000 0.750000 0.258279
O O15 0.432051 0.824484 0.470647
O O16 0.000000 0.750000 0.193544
O O17 0.068057 0.897066 0.274997
#
# Coordination Sequence:
#
# PCOD9335883 Si02
#       7
#     8   8   8   8   8   8   8
#     4  12  25  45  69 102 152 195 239 296 376 459
#     4  12  24  43  68 109 151 189 243 290 371 460
#     4  12  28  46  70 111 153 200 241 304 388 461
#     4  10  23  41  66 104 139 176 236 312 375 420
#     4  11  22  43  71 103 142 191 250 298 369 443
#     4  12  24  45  75 103 147 196 261 313 359 446
#     4  11  23  42  73 109 142 188 252 316 362 432
#
# _framework density 23.196836999999999
#
# number of rings (size 3 to 8) (size 9 to 14) (size 15 to 20)
#    0.000    0.571    2.857    6.000    0.000    1.143 
#    2.571    0.000    0.000   32.571    0.000    0.000 
#    0.000    0.000    0.000    0.000    0.000    0.000 
#
# Total GULP energy -156040.398239 kJ/mol
# GULP energy per Si atom -5572.871366 kJ/mol
# Density = 2.314404 g / cm^3
# Si number density = 23.196837 Si / 1000 Ang^3
#
#
#
# Elastic Constant Matrix: (Units=GPa)
#
#
# Indices 1 2 3 4 5 6 
#
# 1 68.6402 23.4855 19.3256 0.0000 0.0000 0.0000
# 2 23.4855 110.2654 41.2188 0.0000 0.0000 0.0000
# 3 19.3256 41.2188 144.3334 0.0000 0.0000 0.0000
# 4 0.0000 0.0000 0.0000 57.1917 0.0000 0.0000
# 5 0.0000 0.0000 0.0000 0.0000 17.2349 0.0000
# 6 0.0000 0.0000 0.0000 0.0000 0.0000 12.4547
#
#
#
# Elastic Compliance Matrix: (Units=1/GPa)
#
#
# Indices 1 2 3 4 5 6 
#
# 1 0.015930 -0.002906 -0.001303 0.000000 0.000000 0.000000
# 2 -0.002906 0.010683 -0.002662 0.000000 0.000000 0.000000
# 3 -0.001303 -0.002662 0.007863 0.000000 0.000000 0.000000
# 4 0.000000 0.000000 0.000000 0.017485 0.000000 0.000000
# 5 0.000000 0.000000 0.000000 0.000000 0.058022 0.000000
# 6 0.000000 0.000000 0.000000 0.000000 0.000000 0.080291
#
#
# Mechanical properties :
#
#
# Convention : Reuss Voigt Hill
#
# Bulk Modulus (GPa) = 48.22881 54.58878 51.40880
# Shear Modulus (GPa) = 23.70496 33.32354 28.51425
#
# Velocity S-wave (km/s) = 3.20019 3.79430 3.50984
# Velocity P-wave (km/s) = 5.87292 6.54061 6.21574
#
# Compressibility (1/GPa) = 0.02073449
#
# Stress axis : x y z
#
# Youngs Moduli (GPa) = 62.77528 93.60716 127.17742
#
# Poissons Ratio (x) = 0.27200 0.16573
# Poissons Ratio (y) = 0.18241 0.33852
# Poissons Ratio (z) = 0.08180 0.24916
#
# Static dielectric constant tensor:
#      x y z
#    x 1.902690 0.000000 0.000000 
#    y 0.000000 1.907880 0.000000 
#    z 0.000000 0.000000 1.950500 
# 
# From -- ./inp_files/20857.got.cif
#   From: 2010.05.17/outbox.cif.g08.bks.cpg/sg24_11_cif.got.tgz:20857.got - 2010.06.04 00:33:39.
