data_PCOD9335790
_publ_section_title
;
Structure prediction by ZEFSAII (Michael W. Deem and Ramdas Pophale) SiO2 
 PCOD9335790
Probable space group: I 21 21 21
;
_chemical_formula_sum "Si O2"
_cell_formula_units_Z 40
_cell_length_a 13.927436
_cell_length_b 8.111728
_cell_length_c 12.270680
_cell_angle_alpha 90.000000
_cell_angle_beta 90.000000
_cell_angle_gamma 90.000000
_cell_volume 1386.287099
_symmetry_space_group_name_H-M "I 21 21 21"
_symmetry_group_IT_number 24
_symmetry_cell_setting 'orthorhombic'
loop_
_space_group_symop_operation_xyz
x,y,z
-x,1/2-y,z
x,-y,1/2-z
1/2-x,y,-z
1/2+x,1/2+y,1/2+z
1/2-x,-y,1/2+z
1/2+x,1/2-y,-z
-x,1/2+y,1/2-z
loop_
_atom_site_type_symbol
_atom_site_label
_atom_site_fract_x
_atom_site_fract_y
_atom_site_fract_z
Si Si1 0.367501 0.587691 0.983334
Si Si2 0.448137 0.064360 0.373453
Si Si3 0.687467 0.199039 0.249459
Si Si4 0.898551 0.306291 0.270760
Si Si5 0.860423 0.719217 0.516699
O O1 0.446374 0.617062 0.079760
O O2 0.380300 0.392736 0.958240
O O3 0.250000 0.601612 0.000000
O O4 0.393934 0.714739 0.888411
O O5 0.351201 0.168530 0.339183
O O6 0.472835 0.000000 0.250000
O O7 0.417478 0.950386 0.477171
O O8 0.796216 0.250703 0.225487
O O9 0.624715 0.233553 0.143404
O O10 0.692054 0.000000 0.250000
O O11 0.898709 0.500000 0.250000
O O12 0.000000 0.250000 0.222207
O O13 0.750000 0.677522 0.500000
#
# Coordination Sequence:
#
# PCOD9335790 Si02
#       5
#     8   8   8   8   8
#     4  11  26  49  82 122 167 222 290 370 455 547
#     4  10  24  48  84 126 170 223 287 369 459 546
#     4  11  24  50  83 121 169 223 288 361 444 535
#     4  12  29  54  82 117 168 233 296 361 446 542
#     4  10  22  45  81 124 169 217 280 363 452 542
#
# _framework density 28.854050999999998
#
# number of rings (size 3 to 8) (size 9 to 14) (size 15 to 20)
#    0.000    1.200    0.000    5.400    0.000    8.800 
#    0.000   15.000    0.000    0.000    0.000    0.000 
#    0.000    0.000    0.000    0.000    0.000    0.000 
#
# Total GULP energy -111527.089947 kJ/mol
# GULP energy per Si atom -5576.354497 kJ/mol
# Density = 2.878838 g / cm^3
# Si number density = 28.854051 Si / 1000 Ang^3
#
#
#
# Elastic Constant Matrix: (Units=GPa)
#
#
# Indices 1 2 3 4 5 6 
#
# 1 238.5123 93.7811 56.1280 0.0000 0.0000 0.0000
# 2 93.7811 143.7709 68.0112 0.0000 0.0000 0.0000
# 3 56.1280 68.0112 122.5919 0.0000 0.0000 0.0000
# 4 0.0000 0.0000 0.0000 39.7016 0.0000 0.0000
# 5 0.0000 0.0000 0.0000 0.0000 52.6100 0.0000
# 6 0.0000 0.0000 0.0000 0.0000 0.0000 177.4607
#
#
#
# Elastic Compliance Matrix: (Units=1/GPa)
#
#
# Indices 1 2 3 4 5 6 
#
# 1 0.005688 -0.003360 -0.000740 0.000000 0.000000 0.000000
# 2 -0.003360 0.011415 -0.004795 0.000000 0.000000 0.000000
# 3 -0.000740 -0.004795 0.011156 0.000000 0.000000 0.000000
# 4 0.000000 0.000000 0.000000 0.025188 0.000000 0.000000
# 5 0.000000 0.000000 0.000000 0.000000 0.019008 0.000000
# 6 0.000000 0.000000 0.000000 0.000000 0.000000 0.005635
#
#
# Mechanical properties :
#
#
# Convention : Reuss Voigt Hill
#
# Bulk Modulus (GPa) = 95.51387 104.52397 100.01892
# Shear Modulus (GPa) = 50.31719 73.08478 61.70099
#
# Velocity S-wave (km/s) = 4.18048 5.03826 4.62928
# Velocity P-wave (km/s) = 7.51506 8.37551 7.95692
#
# Compressibility (1/GPa) = 0.01046968
#
# Stress axis : x y z
#
# Youngs Moduli (GPa) = 175.80858 87.60078 89.63858
#
# Poissons Ratio (x) = 0.29435 0.06634
# Poissons Ratio (y) = 0.59075 0.42978
# Poissons Ratio (z) = 0.13011 0.42001
#
# Static dielectric constant tensor:
#      x y z
#    x 2.140490 0.000000 0.000000 
#    y 0.000000 2.785830 0.000000 
#    z 0.000000 0.000000 2.396260 
# 
# From -- ./inp_files/26308.got.cif
#   From: 2010.05.17/outbox.cif.g08.bks.cpg/sg24_14_cif.got.tgz:26308.got - 2010.06.04 00:33:39.
