data_PCOD9335519
_publ_section_title
;
Structure prediction by ZEFSAII (Michael W. Deem and Ramdas Pophale) SiO2 
 PCOD9335519
Probable space group: I 21 21 21
;
_chemical_formula_sum "Si O2"
_cell_formula_units_Z 48
_cell_length_a 7.623206
_cell_length_b 22.323406
_cell_length_c 13.090494
_cell_angle_alpha 90.000000
_cell_angle_beta 90.000000
_cell_angle_gamma 90.000000
_cell_volume 2227.686893
_symmetry_space_group_name_H-M "I 21 21 21"
_symmetry_group_IT_number 24
_symmetry_cell_setting 'orthorhombic'
loop_
_space_group_symop_operation_xyz
x,y,z
-x,1/2-y,z
x,-y,1/2-z
1/2-x,y,-z
1/2+x,1/2+y,1/2+z
1/2-x,-y,1/2+z
1/2+x,1/2-y,-z
-x,1/2+y,1/2-z
loop_
_atom_site_type_symbol
_atom_site_label
_atom_site_fract_x
_atom_site_fract_y
_atom_site_fract_z
Si Si1 0.124926 0.120113 0.789944
Si Si2 0.988866 0.679721 0.314990
Si Si3 0.250000 0.011080 0.000000
Si Si4 0.099728 0.587948 0.140921
Si Si5 0.489719 0.585970 0.085884
Si Si6 0.560037 0.897679 0.495477
Si Si7 0.165406 0.000000 0.250000
O O1 0.283438 0.163726 0.813711
O O2 0.210299 0.053475 0.789410
O O3 0.055560 0.129331 0.675375
O O4 0.984430 0.121839 0.880283
O O5 0.000000 0.750000 0.299635
O O6 0.078625 0.639516 0.226013
O O7 0.061118 0.656492 0.423789
O O8 0.136508 0.965062 0.929998
O O9 0.405679 0.057531 0.971079
O O10 0.299162 0.565253 0.127284
O O11 0.969364 0.534995 0.175044
O O12 0.040813 0.610260 0.028476
O O13 0.750000 0.927844 0.500000
#
# Coordination Sequence:
#
# PCOD9335519 Si02
#       7
#     8   8   4   8   8   8   4
#     4  11  22  43  67  98 142 180 231 289 354 414
#     4  11  25  47  73 100 140 188 245 301 345 414
#     4  12  24  42  68 106 146 186 222 288 356 432
#     4  10  24  43  66 102 141 181 241 285 351 430
#     4  11  24  42  68 102 142 181 226 291 360 427
#     4  12  26  43  69 103 146 188 240 283 352 427
#     4  10  22  40  68 100 142 186 226 286 352 424
#
# _framework density 21.547011999999999
#
# number of rings (size 3 to 8) (size 9 to 14) (size 15 to 20)
#    0.000    1.000    1.667    5.000    7.000    3.333 
#    0.000    5.833    0.000    0.000    0.000    0.000 
#    0.000    0.000    0.000    0.000    0.000    0.000 
#
# Total GULP energy -134021.880647 kJ/mol
# GULP energy per Si atom -5584.245027 kJ/mol
# Density = 2.149797 g / cm^3
# Si number density = 21.547012 Si / 1000 Ang^3
#
#
#
# Elastic Constant Matrix: (Units=GPa)
#
#
# Indices 1 2 3 4 5 6 
#
# 1 159.4582 32.2102 38.0897 0.0000 0.0000 0.0000
# 2 32.2102 100.8596 32.6033 0.0000 0.0000 0.0000
# 3 38.0897 32.6033 157.4599 0.0001 -0.0001 0.0000
# 4 0.0000 0.0000 0.0001 11.2367 0.0000 0.0000
# 5 0.0000 0.0000 -0.0001 0.0000 42.2549 0.0000
# 6 0.0000 0.0000 0.0000 0.0000 0.0000 3.8647
#
#
#
# Elastic Compliance Matrix: (Units=1/GPa)
#
#
# Indices 1 2 3 4 5 6 
#
# 1 0.006946 -0.001795 -0.001309 0.000000 0.000000 0.000000
# 2 -0.001795 0.011090 -0.001862 0.000000 0.000000 0.000000
# 3 -0.001309 -0.001862 0.007053 0.000000 0.000000 0.000000
# 4 0.000000 0.000000 0.000000 0.088994 0.000000 0.000000
# 5 0.000000 0.000000 0.000000 0.000000 0.023666 0.000000
# 6 0.000000 0.000000 0.000000 0.000000 0.000000 0.258750
#
#
# Mechanical properties :
#
#
# Convention : Reuss Voigt Hill
#
# Bulk Modulus (GPa) = 65.97404 69.28714 67.63059
# Shear Modulus (GPa) = 12.15114 32.46289 22.30701
#
# Velocity S-wave (km/s) = 2.37731 3.88572 3.22105
# Velocity P-wave (km/s) = 6.18228 7.23587 6.72972
#
# Compressibility (1/GPa) = 0.01515748
#
# Stress axis : x y z
#
# Youngs Moduli (GPa) = 143.95762 90.17107 141.78534
#
# Poissons Ratio (x) = 0.16189 0.18554
# Poissons Ratio (y) = 0.25846 0.26400
# Poissons Ratio (z) = 0.18838 0.16790
#
# Static dielectric constant tensor:
#      x y z
#    x 1.807260 0.000000 0.000000 
#    y 0.000000 1.708730 0.000000 
#    z 0.000000 0.000000 2.086660 
# 
# From -- ./inp_files/18724.got.cif
#   From: 2010.05.17/outbox.cif.g08.bks.cpg/sg24_10_cif.got.tgz:18724.got - 2010.06.04 00:33:39.
