data_PCOD9335030
_publ_section_title
;
Structure prediction by ZEFSAII (Michael W. Deem and Ramdas Pophale) SiO2 
 PCOD9335030
Probable space group: I 21 21 21
;
_chemical_formula_sum "Si O2"
_cell_formula_units_Z 40
_cell_length_a 10.108691
_cell_length_b 12.953588
_cell_length_c 11.592246
_cell_angle_alpha 90.000000
_cell_angle_beta 90.000000
_cell_angle_gamma 90.000000
_cell_volume 1517.932955
_symmetry_space_group_name_H-M "I 21 21 21"
_symmetry_group_IT_number 24
_symmetry_cell_setting 'orthorhombic'
loop_
_space_group_symop_operation_xyz
x,y,z
-x,1/2-y,z
x,-y,1/2-z
1/2-x,y,-z
1/2+x,1/2+y,1/2+z
1/2-x,-y,1/2+z
1/2+x,1/2-y,-z
-x,1/2+y,1/2-z
loop_
_atom_site_type_symbol
_atom_site_label
_atom_site_fract_x
_atom_site_fract_y
_atom_site_fract_z
Si Si1 0.204106 0.405485 0.380104
Si Si2 0.072746 0.935224 0.082959
Si Si3 0.134591 0.901208 0.823756
Si Si4 0.412674 0.375539 0.935668
Si Si5 0.820322 0.797523 0.677653
O O1 0.250000 0.356199 0.500000
O O2 0.306890 0.376472 0.283820
O O3 0.183373 0.527013 0.402339
O O4 0.050771 0.380337 0.353652
O O5 0.099947 0.337690 0.933113
O O6 0.064975 0.900756 0.948970
O O7 0.047198 0.060094 0.083996
O O8 0.127083 0.804610 0.738877
O O9 0.094718 0.000000 0.750000
O O10 0.288843 0.910754 0.860829
O O11 0.334229 0.286681 0.866295
#
# Coordination Sequence:
#
# PCOD9335030 Si02
#       5
#     8   8   8   8   8
#     4  10  21  39  73 105 144 169 245 309 362 408
#     4   9  24  46  65 102 148 189 231 296 376 423
#     4  11  26  47  67  99 156 199 233 295 372 451
#     4   9  21  42  73 111 131 176 248 312 352 410
#     4  11  22  42  76 109 136 187 249 300 356 435
#
# _framework density 26.351624999999999
#
# number of rings (size 3 to 8) (size 9 to 14) (size 15 to 20)
#    1.200    0.800    2.000    0.600    5.600    5.600 
#    0.000    5.000    0.000    0.000    0.000    0.000 
#    0.000    0.000    0.000    0.000    0.000    0.000 
#
# Total GULP energy -111639.948508 kJ/mol
# GULP energy per Si atom -5581.997425 kJ/mol
# Density = 2.629165 g / cm^3
# Si number density = 26.351625 Si / 1000 Ang^3
#
#
#
# Elastic Constant Matrix: (Units=GPa)
#
#
# Indices 1 2 3 4 5 6 
#
# 1 80.2200 24.6235 7.9669 0.0000 0.0000 0.0000
# 2 24.6235 136.8967 54.6955 0.0000 0.0000 0.0000
# 3 7.9669 54.6955 143.8869 0.0001 0.0000 0.0000
# 4 0.0000 0.0000 0.0001 29.4115 0.0000 0.0000
# 5 0.0000 0.0000 0.0000 0.0000 34.7849 0.0000
# 6 0.0000 0.0000 0.0000 0.0000 0.0000 22.8265
#
#
#
# Elastic Compliance Matrix: (Units=1/GPa)
#
#
# Indices 1 2 3 4 5 6 
#
# 1 0.013199 -0.002455 0.000202 0.000000 0.000000 0.000000
# 2 -0.002455 0.009069 -0.003312 0.000000 0.000000 0.000000
# 3 0.000202 -0.003312 0.008198 0.000000 0.000000 0.000000
# 4 0.000000 0.000000 0.000000 0.034000 0.000000 0.000000
# 5 0.000000 0.000000 0.000000 0.000000 0.028748 0.000000
# 6 0.000000 0.000000 0.000000 0.000000 0.000000 0.043809
#
#
# Mechanical properties :
#
#
# Convention : Reuss Voigt Hill
#
# Bulk Modulus (GPa) = 51.71241 59.50839 55.61040
# Shear Modulus (GPa) = 32.34203 35.65245 33.99724
#
# Velocity S-wave (km/s) = 3.50712 3.68224 3.59575
# Velocity P-wave (km/s) = 6.00554 6.38044 6.19582
#
# Compressibility (1/GPa) = 0.01933772
#
# Stress axis : x y z
#
# Youngs Moduli (GPa) = 75.76230 110.25986 121.98777
#
# Poissons Ratio (x) = 0.27069 -0.02469
# Poissons Ratio (y) = 0.18600 0.40398
# Poissons Ratio (z) = -0.01533 0.36514
#
# Static dielectric constant tensor:
#      x y z
#    x 2.195550 0.000000 0.000000 
#    y 0.000000 2.161130 0.000000 
#    z 0.000000 0.000000 2.061190 
# 
# From -- ./inp_files/25634.got.cif
#   From: 2010.05.17/outbox.cif.g08.bks.cpg/sg24_13_cif.got.tgz:25634.got - 2010.06.04 00:33:39.
