data_PCOD9335317
_publ_section_title
;
Structure prediction by ZEFSAII (Michael W. Deem and Ramdas Pophale) SiO2 
 PCOD9335317
Probable space group: I 21 21 21
;
_chemical_formula_sum "Si O2"
_cell_formula_units_Z 48
_cell_length_a 9.379115
_cell_length_b 13.925534
_cell_length_c 18.343005
_cell_angle_alpha 90.000000
_cell_angle_beta 90.000000
_cell_angle_gamma 90.000000
_cell_volume 2395.764930
_symmetry_space_group_name_H-M "I 21 21 21"
_symmetry_group_IT_number 24
_symmetry_cell_setting 'orthorhombic'
loop_
_space_group_symop_operation_xyz
x,y,z
-x,1/2-y,z
x,-y,1/2-z
1/2-x,y,-z
1/2+x,1/2+y,1/2+z
1/2-x,-y,1/2+z
1/2+x,1/2-y,-z
-x,1/2+y,1/2-z
loop_
_atom_site_type_symbol
_atom_site_label
_atom_site_fract_x
_atom_site_fract_y
_atom_site_fract_z
Si Si1 0.410140 0.588677 0.487931
Si Si2 0.701792 0.395852 0.824274
Si Si3 0.973310 0.859855 0.675423
Si Si4 0.504083 0.636837 0.810233
Si Si5 0.742337 0.000000 0.750000
Si Si6 0.376002 0.053156 0.552083
Si Si7 0.500000 0.250000 0.898763
O O1 0.250000 0.555898 0.500000
O O2 0.438375 0.637586 0.410542
O O3 0.513870 0.499581 0.499074
O O4 0.441205 0.665791 0.550715
O O5 0.619548 0.402677 0.747765
O O6 0.670474 0.471517 0.888929
O O7 0.633723 0.295620 0.855322
O O8 0.869676 0.402446 0.812458
O O9 0.000000 0.750000 0.700280
O O10 0.847802 0.923896 0.710558
O O11 0.500000 0.750000 0.793803
O O12 0.364471 0.569209 0.796928
O O13 0.552079 0.627999 0.893813
O O14 0.250000 0.088057 0.500000
#
# Coordination Sequence:
#
# PCOD9335317 Si02
#       7
#     8   8   8   8   4   8   4
#     4  11  22  36  62  97 139 175 220 293 359 432
#     4  11  22  41  68  98 135 185 229 297 363 438
#     4  12  25  41  66 102 145 182 235 300 377 430
#     4  12  25  48  75 101 142 197 247 296 373 456
#     4  12  28  46  68 110 146 188 248 308 366 452
#     4  11  23  42  67  97 134 183 235 293 360 430
#     4  10  22  34  64 100 136 170 234 276 366 446
#
# _framework density 20.035356
#
# number of rings (size 3 to 8) (size 9 to 14) (size 15 to 20)
#    0.000    0.667    5.000    3.000    4.667    0.000 
#    0.000    2.500    0.000    0.000    0.000    0.000 
#    0.000    0.000    0.000    0.000    0.000    0.000 
#
# Total GULP energy -133864.751604 kJ/mol
# GULP energy per Si atom -5577.697983 kJ/mol
# Density = 1.998975 g / cm^3
# Si number density = 20.035356 Si / 1000 Ang^3
#
#
#
# Elastic Constant Matrix: (Units=GPa)
#
#
# Indices 1 2 3 4 5 6 
#
# 1 137.6080 31.6916 36.8497 0.0000 0.0000 0.0000
# 2 31.6916 98.5157 28.2423 0.0000 0.0000 0.0000
# 3 36.8497 28.2423 84.3308 0.0000 0.0000 0.0000
# 4 0.0000 0.0000 0.0000 16.1420 0.0000 0.0000
# 5 0.0000 0.0000 0.0000 0.0000 34.4549 0.0000
# 6 0.0000 0.0000 0.0000 0.0000 0.0000 26.8692
#
#
#
# Elastic Compliance Matrix: (Units=1/GPa)
#
#
# Indices 1 2 3 4 5 6 
#
# 1 0.008525 -0.001852 -0.003105 0.000000 0.000000 0.000000
# 2 -0.001852 0.011631 -0.003086 0.000000 0.000000 0.000000
# 3 -0.003105 -0.003086 0.014248 0.000000 0.000000 0.000000
# 4 0.000000 0.000000 0.000000 0.061950 0.000000 0.000000
# 5 0.000000 0.000000 0.000000 0.000000 0.029023 0.000000
# 6 0.000000 0.000000 0.000000 0.000000 0.000000 0.037217
#
#
# Mechanical properties :
#
#
# Convention : Reuss Voigt Hill
#
# Bulk Modulus (GPa) = 54.58987 57.11353 55.85170
# Shear Modulus (GPa) = 27.05810 30.40462 28.73136
#
# Velocity S-wave (km/s) = 3.67893 3.89980 3.79097
# Velocity P-wave (km/s) = 6.73438 6.98900 6.86287
#
# Compressibility (1/GPa) = 0.01831842
#
# Stress axis : x y z
#
# Youngs Moduli (GPa) = 117.30130 85.97565 70.18421
#
# Poissons Ratio (x) = 0.15926 0.21791
# Poissons Ratio (y) = 0.21728 0.21658
# Poissons Ratio (z) = 0.36420 0.26531
#
# Static dielectric constant tensor:
#      x y z
#    x 1.744020 0.000000 0.000000 
#    y 0.000000 1.795100 0.000000 
#    z 0.000000 0.000000 1.705250 
# 
# From -- ./inp_files/27074.got.cif
#   From: 2010.05.17/outbox.cif.g08.bks.cpg/sg24_14_cif.got.tgz:27074.got - 2010.06.04 00:33:39.
