data_PCOD9335102
_publ_section_title
;
Structure prediction by ZEFSAII (Michael W. Deem and Ramdas Pophale) SiO2 
 PCOD9335102
Probable space group: I 21 21 21
;
_chemical_formula_sum "Si O2"
_cell_formula_units_Z 60
_cell_length_a 5.451748
_cell_length_b 19.400559
_cell_length_c 26.069730
_cell_angle_alpha 90.000000
_cell_angle_beta 90.000000
_cell_angle_gamma 90.000000
_cell_volume 2757.316057
_symmetry_space_group_name_H-M "I 21 21 21"
_symmetry_group_IT_number 24
_symmetry_cell_setting 'orthorhombic'
loop_
_space_group_symop_operation_xyz
x,y,z
-x,1/2-y,z
x,-y,1/2-z
1/2-x,y,-z
1/2+x,1/2+y,1/2+z
1/2-x,-y,1/2+z
1/2+x,1/2-y,-z
-x,1/2+y,1/2-z
loop_
_atom_site_type_symbol
_atom_site_label
_atom_site_fract_x
_atom_site_fract_y
_atom_site_fract_z
Si Si1 0.496492 0.369226 0.514933
Si Si2 0.500000 0.750000 0.165282
Si Si3 0.669215 0.350055 0.721594
Si Si4 0.954452 0.971947 0.800118
Si Si5 0.309649 0.624948 0.871884
Si Si6 0.535687 0.168443 0.834540
Si Si7 0.500910 0.975634 0.473045
Si Si8 0.552722 0.595602 0.364404
O O1 0.750000 0.334927 0.500000
O O2 0.457178 0.383512 0.575259
O O3 0.497016 0.440464 0.480886
O O4 0.250000 0.330260 0.500000
O O5 0.302339 0.779956 0.205052
O O6 0.383862 0.688739 0.130588
O O7 0.493113 0.361099 0.674057
O O8 0.526747 0.347819 0.774902
O O9 0.873545 0.409898 0.718422
O O10 0.815628 0.943759 0.850151
O O11 0.808767 0.000000 0.750000
O O12 0.096851 0.037443 0.821418
O O13 0.500000 0.250000 0.840648
O O14 0.807269 0.139644 0.849202
O O15 0.309216 0.136078 0.866458
O O16 0.750000 0.951843 0.500000
O O17 0.495421 0.944428 0.416954
O O18 0.250000 0.953182 0.500000
#
# Coordination Sequence:
#
# PCOD9335102 Si02
#       8
#     8   4   8   8   8   8   8   8
#     4  10  23  41  68 101 132 178 233 295 359 423
#     4  10  24  44  68 100 140 200 254 290 352 426
#     4  11  25  41  71 101 147 198 238 294 349 439
#     4  11  23  39  63 107 150 184 234 299 372 424
#     4  11  24  41  72  96 144 191 249 295 363 436
#     4  12  27  47  73 102 147 195 245 281 352 439
#     4  10  21  40  68 102 136 175 225 285 364 427
#     4  12  26  44  72 107 146 184 234 306 357 429
#
# _framework density 21.760290000000001
#
# number of rings (size 3 to 8) (size 9 to 14) (size 15 to 20)
#    0.000    1.067    1.333    4.800   13.067    0.533 
#    0.000    0.000    2.933    8.000    0.000    0.000 
#    0.000    0.000    0.000    0.000    0.000    0.000 
#
# Total GULP energy -167466.193660 kJ/mol
# GULP energy per Si atom -5582.206455 kJ/mol
# Density = 2.171076 g / cm^3
# Si number density = 21.760290 Si / 1000 Ang^3
#
#
#
# Elastic Constant Matrix: (Units=GPa)
#
#
# Indices 1 2 3 4 5 6 
#
# 1 102.5707 4.9145 22.0259 0.0000 0.0000 0.0000
# 2 4.9145 74.5020 28.6858 0.0000 0.0000 0.0000
# 3 22.0259 28.6858 110.7604 0.0000 0.0000 0.0000
# 4 0.0000 0.0000 0.0000 28.7649 0.0000 0.0000
# 5 0.0000 0.0000 0.0000 0.0000 39.0101 0.0000
# 6 0.0000 0.0000 0.0000 0.0000 0.0000 -1.3963
#
#
#
# Elastic Compliance Matrix: (Units=1/GPa)
#
#
# Indices 1 2 3 4 5 6 
#
# 1 0.010185 0.000120 -0.002057 0.000000 0.000000 0.000000
# 2 0.000120 0.014911 -0.003886 0.000000 0.000000 0.000000
# 3 -0.002057 -0.003886 0.010444 0.000000 0.000000 0.000000
# 4 0.000000 0.000000 0.000000 0.034765 0.000000 0.000000
# 5 0.000000 0.000000 0.000000 0.000000 0.025634 0.000000
# 6 0.000000 0.000000 0.000000 0.000000 0.000000 -0.716192
#
#
# Mechanical properties :
#
#
# Convention : Reuss Voigt Hill
#
# Bulk Modulus (GPa) = 41.84902 44.34284 43.09593
# Shear Modulus (GPa) = -8.32439 28.75621 10.21591
#
# Velocity S-wave (km/s) = -1.95801 3.63919 2.16909
# Velocity P-wave (km/s) = 3.76322 6.17093 5.11088
#
# Compressibility (1/GPa) = 0.02389542
#
# Stress axis : x y z
#
# Youngs Moduli (GPa) = 98.18134 67.06633 95.75082
#
# Poissons Ratio (x) = -0.00805 0.19691
# Poissons Ratio (y) = -0.01178 0.37204
# Poissons Ratio (z) = 0.20191 0.26059
#
# Static dielectric constant tensor:
#      x y z
#    x 1.879890 0.000000 0.000000 
#    y 0.000000 1.739200 0.000000 
#    z 0.000000 0.000000 1.787100 
# 
# From -- ./inp_files/34792.got.cif
#   From: 2010.05.17/outbox.cif.g08.bks.cpg/sg24_18_cif.got.tgz:34792.got - 2010.06.04 00:33:39.
