data_PCOD9335669
_publ_section_title
;
Structure prediction by ZEFSAII (Michael W. Deem and Ramdas Pophale) SiO2 
 PCOD9335669
Probable space group: I 21 21 21
;
_chemical_formula_sum "Si O2"
_cell_formula_units_Z 48
_cell_length_a 24.676338
_cell_length_b 7.794167
_cell_length_c 13.036106
_cell_angle_alpha 90.000000
_cell_angle_beta 90.000000
_cell_angle_gamma 90.000000
_cell_volume 2507.253812
_symmetry_space_group_name_H-M "I 21 21 21"
_symmetry_group_IT_number 24
_symmetry_cell_setting 'orthorhombic'
loop_
_space_group_symop_operation_xyz
x,y,z
-x,1/2-y,z
x,-y,1/2-z
1/2-x,y,-z
1/2+x,1/2+y,1/2+z
1/2-x,-y,1/2+z
1/2+x,1/2-y,-z
-x,1/2+y,1/2-z
loop_
_atom_site_type_symbol
_atom_site_label
_atom_site_fract_x
_atom_site_fract_y
_atom_site_fract_z
Si Si1 0.296591 0.701180 0.230503
Si Si2 0.675207 0.315783 0.708633
Si Si3 0.601651 0.000000 0.750000
Si Si4 0.500000 0.250000 0.065312
Si Si5 0.460920 0.411654 0.544822
Si Si6 0.892524 0.616913 0.652631
Si Si7 0.139658 0.795964 0.973101
O O1 0.291038 0.500000 0.250000
O O2 0.237915 0.787577 0.236283
O O3 0.339234 0.780404 0.311604
O O4 0.320485 0.735940 0.117165
O O5 0.657232 0.500000 0.750000
O O6 0.665927 0.301161 0.585962
O O7 0.639796 0.165930 0.759416
O O8 0.565092 0.973140 0.849215
O O9 0.444315 0.231231 0.127870
O O10 0.491907 0.426506 0.002963
O O11 0.500000 0.250000 0.561625
O O12 0.411253 0.334579 0.477679
O O13 0.907275 0.500000 0.750000
O O14 0.879368 0.486361 0.560222
#
# Coordination Sequence:
#
# PCOD9335669 Si02
#       7
#     8   8   4   4   8   8   8
#     4  11  22  42  65  98 132 170 219 270 326 392
#     4  11  23  43  69  95 135 171 216 270 326 387
#     4  10  26  42  64 100 128 174 218 264 328 382
#     4  12  24  40  68  94 126 176 216 264 332 382
#     4  11  24  42  65  95 133 168 218 269 319 389
#     4  10  23  40  64  95 131 170 218 263 327 384
#     4  10  22  43  63  94 134 168 217 271 319 389
#
# _framework density 19.144452000000001
#
# number of rings (size 3 to 8) (size 9 to 14) (size 15 to 20)
#    0.000    1.333    2.500    3.000    3.500    3.333 
#    1.500    0.000    0.000    0.000    0.000    0.000 
#    0.000    0.000    0.000    0.000    0.000    0.000 
#
# Total GULP energy -134082.481051 kJ/mol
# GULP energy per Si atom -5586.770044 kJ/mol
# Density = 1.910088 g / cm^3
# Si number density = 19.144452 Si / 1000 Ang^3
#
#
#
# Elastic Constant Matrix: (Units=GPa)
#
#
# Indices 1 2 3 4 5 6 
#
# 1 116.0488 55.0059 37.9246 0.0000 0.0000 0.0000
# 2 55.0059 148.5754 40.6070 0.0000 0.0000 0.0000
# 3 37.9246 40.6070 33.3320 0.0000 0.0000 0.0000
# 4 0.0000 0.0000 0.0000 29.8317 0.0000 0.0000
# 5 0.0000 0.0000 0.0000 0.0000 24.7691 0.0000
# 6 0.0000 0.0000 0.0000 0.0000 0.0000 26.3161
#
#
#
# Elastic Compliance Matrix: (Units=1/GPa)
#
#
# Indices 1 2 3 4 5 6 
#
# 1 0.013866 -0.001232 -0.014276 0.000000 0.000000 0.000000
# 2 -0.001232 0.010200 -0.011024 0.000000 0.000000 0.000000
# 3 -0.014276 -0.011024 0.059675 0.000000 0.000000 0.000000
# 4 0.000000 0.000000 0.000000 0.033521 0.000000 0.000000
# 5 0.000000 0.000000 0.000000 0.000000 0.040373 0.000000
# 6 0.000000 0.000000 0.000000 0.000000 0.000000 0.038000
#
#
# Mechanical properties :
#
#
# Convention : Reuss Voigt Hill
#
# Bulk Modulus (GPa) = 32.59850 62.78124 47.68987
# Shear Modulus (GPa) = 19.31058 27.14462 23.22760
#
# Velocity S-wave (km/s) = 3.17941 3.76957 3.48700
# Velocity P-wave (km/s) = 5.52656 7.19797 6.41692
#
# Compressibility (1/GPa) = 0.03067626
#
# Stress axis : x y z
#
# Youngs Moduli (GPa) = 72.11675 98.04227 16.75741
#
# Poissons Ratio (x) = 0.12077 0.23923
# Poissons Ratio (y) = 0.08883 0.18474
# Poissons Ratio (z) = 1.02956 1.08085
#
# Static dielectric constant tensor:
#      x y z
#    x 1.661750 0.000000 0.000000 
#    y 0.000000 1.655280 0.000000 
#    z 0.000000 0.000000 1.645340 
# 
# From -- ./inp_files/22616.got.cif
#   From: 2010.05.17/outbox.cif.g08.bks.cpg/sg24_12_cif.got.tgz:22616.got - 2010.06.04 00:33:39.
