data_PCOD9335575
_publ_section_title
;
Structure prediction by ZEFSAII (Michael W. Deem and Ramdas Pophale) SiO2 
 PCOD9335575
Probable space group: I 21 21 21
;
_chemical_formula_sum "Si O2"
_cell_formula_units_Z 64
_cell_length_a 9.865418
_cell_length_b 11.231786
_cell_length_c 26.710283
_cell_angle_alpha 90.000000
_cell_angle_beta 90.000000
_cell_angle_gamma 90.000000
_cell_volume 2959.666664
_symmetry_space_group_name_H-M "I 21 21 21"
_symmetry_group_IT_number 24
_symmetry_cell_setting 'orthorhombic'
loop_
_space_group_symop_operation_xyz
x,y,z
-x,1/2-y,z
x,-y,1/2-z
1/2-x,y,-z
1/2+x,1/2+y,1/2+z
1/2-x,-y,1/2+z
1/2+x,1/2-y,-z
-x,1/2+y,1/2-z
loop_
_atom_site_type_symbol
_atom_site_label
_atom_site_fract_x
_atom_site_fract_y
_atom_site_fract_z
Si Si1 0.348781 0.804225 0.048034
Si Si2 0.381755 0.904512 0.706912
Si Si3 0.319619 0.409496 0.823507
Si Si4 0.248647 0.825797 0.381149
Si Si5 0.635558 0.806190 0.467439
Si Si6 0.795450 0.143120 0.642760
Si Si7 0.024114 0.981214 0.604316
Si Si8 0.842373 0.221312 0.752432
O O1 0.500000 0.750000 0.036747
O O2 0.286259 0.724076 0.093281
O O3 0.378059 0.935776 0.070641
O O4 0.250000 0.804763 0.000000
O O5 0.542294 0.882239 0.706127
O O6 0.353483 0.915735 0.646754
O O7 0.265364 0.811612 0.722694
O O8 0.362936 0.000000 0.750000
O O9 0.297489 0.305215 0.863845
O O10 0.315107 0.538999 0.848724
O O11 0.196565 0.396125 0.784192
O O12 0.282881 0.800379 0.439163
O O13 0.392206 0.883297 0.365000
O O14 0.500000 0.750000 0.491857
O O15 0.750000 0.866831 0.500000
O O16 0.576729 0.903114 0.429303
O O17 0.804522 0.215008 0.694129
O O18 0.936971 0.071987 0.636678
O O19 0.000000 0.250000 0.757501
#
# Coordination Sequence:
#
# PCOD9335575 Si02
#       8
#     8   8   8   8   8   8   8   8
#     4  10  24  48  70  98 138 180 231 285 339 406
#     4  11  26  43  67  98 141 184 220 282 345 407
#     4  11  24  45  65  99 140 183 221 281 349 397
#     4  10  22  41  68  96 138 173 222 281 336 400
#     4  10  22  41  69 102 139 177 222 282 349 411
#     4  11  23  42  71  96 139 178 232 279 337 405
#     4  10  22  41  70 101 138 176 227 285 339 395
#     4  11  24  38  67 102 133 175 232 279 333 405
#
# _framework density 21.624056
#
# number of rings (size 3 to 8) (size 9 to 14) (size 15 to 20)
#    0.000    1.500    1.250    3.750    7.000    5.500 
#    2.250    1.250    0.000    0.000    0.000    0.000 
#    0.000    0.000    0.000    0.000    0.000    0.000 
#
# Total GULP energy -178138.699564 kJ/mol
# GULP energy per Si atom -5566.834361 kJ/mol
# Density = 2.157484 g / cm^3
# Si number density = 21.624056 Si / 1000 Ang^3
#
#
#
# Elastic Constant Matrix: (Units=GPa)
#
#
# Indices 1 2 3 4 5 6 
#
# 1 107.2050 39.7403 46.9759 0.0000 0.0000 0.0000
# 2 39.7403 80.8612 23.3214 0.0000 0.0000 0.0000
# 3 46.9759 23.3214 74.8365 0.0000 0.0000 0.0000
# 4 0.0000 0.0000 0.0000 12.3027 0.0000 0.0000
# 5 0.0000 0.0000 0.0000 0.0000 13.5595 0.0000
# 6 0.0000 0.0000 0.0000 0.0000 0.0000 7.2639
#
#
#
# Elastic Compliance Matrix: (Units=1/GPa)
#
#
# Indices 1 2 3 4 5 6 
#
# 1 0.014460 -0.004932 -0.007540 0.000000 0.000000 0.000000
# 2 -0.004932 0.015270 -0.001663 0.000000 0.000000 0.000000
# 3 -0.007540 -0.001663 0.018614 0.000000 0.000000 0.000000
# 4 0.000000 0.000000 0.000000 0.081283 0.000000 0.000000
# 5 0.000000 0.000000 0.000000 0.000000 0.073749 0.000000
# 6 0.000000 0.000000 0.000000 0.000000 0.000000 0.137667
#
#
# Mechanical properties :
#
#
# Convention : Reuss Voigt Hill
#
# Bulk Modulus (GPa) = 49.81416 53.66422 51.73919
# Shear Modulus (GPa) = 13.29776 16.81624 15.05700
#
# Velocity S-wave (km/s) = 2.48251 2.79169 2.64163
# Velocity P-wave (km/s) = 5.59496 5.93819 5.76913
#
# Compressibility (1/GPa) = 0.02007461
#
# Stress axis : x y z
#
# Youngs Moduli (GPa) = 69.15609 65.48639 53.72443
#
# Poissons Ratio (x) = 0.32298 0.40507
# Poissons Ratio (y) = 0.34108 0.08933
# Poissons Ratio (z) = 0.52142 0.10889
#
# Static dielectric constant tensor:
#      x y z
#    x 1.807950 0.000000 0.000000 
#    y 0.000000 1.904180 0.000000 
#    z 0.000000 0.000000 1.885860 
# 
# From -- ./inp_files/38436.got.cif
#   From: 2010.05.17/outbox.cif.g08.bks.cpg/sg24_20_cif.got.tgz:38436.got - 2010.06.04 00:33:39.
