data_PCOD9335267
_publ_section_title
;
Structure prediction by ZEFSAII (Michael W. Deem and Ramdas Pophale) SiO2 
 PCOD9335267
Probable space group: I 21 21 21
;
_chemical_formula_sum "Si O2"
_cell_formula_units_Z 52
_cell_length_a 8.228837
_cell_length_b 14.758122
_cell_length_c 20.495158
_cell_angle_alpha 90.000000
_cell_angle_beta 90.000000
_cell_angle_gamma 90.000000
_cell_volume 2488.976674
_symmetry_space_group_name_H-M "I 21 21 21"
_symmetry_group_IT_number 24
_symmetry_cell_setting 'orthorhombic'
loop_
_space_group_symop_operation_xyz
x,y,z
-x,1/2-y,z
x,-y,1/2-z
1/2-x,y,-z
1/2+x,1/2+y,1/2+z
1/2-x,-y,1/2+z
1/2+x,1/2-y,-z
-x,1/2+y,1/2-z
loop_
_atom_site_type_symbol
_atom_site_label
_atom_site_fract_x
_atom_site_fract_y
_atom_site_fract_z
Si Si1 0.829543 0.705672 0.823111
Si Si2 0.281525 0.870975 0.316793
Si Si3 0.020353 0.000000 0.250000
Si Si4 0.319410 0.387935 0.644660
Si Si5 0.959772 0.534527 0.881185
Si Si6 0.430541 0.506251 0.975242
Si Si7 0.880220 0.669181 0.443347
O O1 0.835490 0.685418 0.746005
O O2 0.697983 0.781083 0.841480
O O3 0.826815 0.608615 0.858535
O O4 0.000000 0.750000 0.843685
O O5 0.211945 0.812090 0.375812
O O6 0.414671 0.939416 0.347352
O O7 0.136349 0.933939 0.290712
O O8 0.913616 0.061432 0.297923
O O9 0.402573 0.412480 0.575636
O O10 0.137401 0.431199 0.641603
O O11 0.969381 0.528153 0.959303
O O12 0.517904 0.423513 0.939236
O O13 0.250000 0.478574 0.000000
O O14 0.750000 0.658024 0.500000
O O15 0.000000 0.750000 0.459877
#
# Coordination Sequence:
#
# PCOD9335267 Si02
#       7
#     8   8   4   8   8   8   8
#     4  10  23  41  67 101 132 169 230 272 333 413
#     4  12  24  42  68  95 137 175 218 277 342 404
#     4  12  24  38  66  96 132 172 212 272 338 396
#     4  10  24  40  70  99 134 176 221 281 338 402
#     4  10  21  44  73  92 132 182 228 271 337 419
#     4  10  21  44  71  93 132 178 225 274 343 404
#     4  12  26  44  65  99 133 173 225 278 336 410
#
# _framework density 20.892120999999999
#
# number of rings (size 3 to 8) (size 9 to 14) (size 15 to 20)
#    0.000    1.231    4.615    0.462    6.462    0.615 
#    2.769    0.000   54.154    0.000    0.000    0.000 
#    0.000    0.000    0.000    0.000    0.000    0.000 
#
# Total GULP energy -145328.608406 kJ/mol
# GULP energy per Si atom -5589.561862 kJ/mol
# Density = 2.084457 g / cm^3
# Si number density = 20.892121 Si / 1000 Ang^3
#
#
#
# Elastic Constant Matrix: (Units=GPa)
#
#
# Indices 1 2 3 4 5 6 
#
# 1 51.7001 25.6845 26.7904 0.0000 0.0000 0.0000
# 2 25.6845 67.0771 21.2069 0.0000 0.0000 0.0000
# 3 26.7904 21.2069 105.3559 0.0000 0.0000 0.0000
# 4 0.0000 0.0000 0.0000 24.8393 0.0000 0.0000
# 5 0.0000 0.0000 0.0000 0.0000 36.2291 0.0000
# 6 0.0000 0.0000 0.0000 0.0000 0.0000 32.8473
#
#
#
# Elastic Compliance Matrix: (Units=1/GPa)
#
#
# Indices 1 2 3 4 5 6 
#
# 1 0.026088 -0.008428 -0.004937 0.000000 0.000000 0.000000
# 2 -0.008428 0.018644 -0.001610 0.000000 0.000000 0.000000
# 3 -0.004937 -0.001610 0.011071 0.000000 0.000000 0.000000
# 4 0.000000 0.000000 0.000000 0.040259 0.000000 0.000000
# 5 0.000000 0.000000 0.000000 0.000000 0.027602 0.000000
# 6 0.000000 0.000000 0.000000 0.000000 0.000000 0.030444
#
#
# Mechanical properties :
#
#
# Convention : Reuss Voigt Hill
#
# Bulk Modulus (GPa) = 38.68045 41.27742 39.97894
# Shear Modulus (GPa) = 25.95023 28.81324 27.38174
#
# Velocity S-wave (km/s) = 3.52818 3.71771 3.62418
# Velocity P-wave (km/s) = 5.92891 6.18295 6.05726
#
# Compressibility (1/GPa) = 0.02585285
#
# Stress axis : x y z
#
# Youngs Moduli (GPa) = 38.33187 53.63525 90.32517
#
# Poissons Ratio (x) = 0.45206 0.44596
# Poissons Ratio (y) = 0.32308 0.14540
# Poissons Ratio (z) = 0.18925 0.08634
#
# Static dielectric constant tensor:
#      x y z
#    x 1.774400 0.000000 0.000000 
#    y 0.000000 1.733190 0.000000 
#    z 0.000000 0.000000 1.739260 
# 
# From -- ./inp_files/32795.got.cif
#   From: 2010.05.17/outbox.cif.g08.bks.cpg/sg24_17_cif.got.tgz:32795.got - 2010.06.04 00:33:39.
