data_PCOD9335975
_publ_section_title
;
Structure prediction by ZEFSAII (Michael W. Deem and Ramdas Pophale) SiO2 
 PCOD9335975
Probable space group: I 21 21 21
;
_chemical_formula_sum "Si O2"
_cell_formula_units_Z 36
_cell_length_a 19.892770
_cell_length_b 9.846765
_cell_length_c 6.939435
_cell_angle_alpha 90.000000
_cell_angle_beta 90.000000
_cell_angle_gamma 90.000000
_cell_volume 1359.292582
_symmetry_space_group_name_H-M "I 21 21 21"
_symmetry_group_IT_number 24
_symmetry_cell_setting 'orthorhombic'
loop_
_space_group_symop_operation_xyz
x,y,z
-x,1/2-y,z
x,-y,1/2-z
1/2-x,y,-z
1/2+x,1/2+y,1/2+z
1/2-x,-y,1/2+z
1/2+x,1/2-y,-z
-x,1/2+y,1/2-z
loop_
_atom_site_type_symbol
_atom_site_label
_atom_site_fract_x
_atom_site_fract_y
_atom_site_fract_z
Si Si1 0.957389 0.000000 0.750000
Si Si2 0.860436 0.000000 0.250000
Si Si3 0.193807 0.140329 0.757472
Si Si4 0.570323 0.484738 0.978775
Si Si5 0.250000 0.622875 0.500000
Si Si6 0.099892 0.274057 0.499351
O O1 0.912073 0.118716 0.665807
O O2 0.002559 0.931654 0.579664
O O3 0.811473 0.033468 0.072652
O O4 0.899702 0.136734 0.306685
O O5 0.229911 0.271271 0.836088
O O6 0.167325 0.189368 0.549676
O O7 0.234743 0.000000 0.750000
O O8 0.131374 0.091252 0.903802
O O9 0.581358 0.500000 0.750000
O O10 0.552508 0.644922 0.017849
#
# Coordination Sequence:
#
# PCOD9335975 Si02
#       6
#     4   4   8   8   4   8
#     4  12  24  45  68 100 140 183 228 286 360 410
#     4  12  26  43  70 106 142 191 240 290 366 426
#     4  10  23  44  68  98 142 177 235 297 345 415
#     4  11  24  45  70 101 140 186 237 287 355 428
#     4  12  24  42  68 104 134 192 232 290 354 422
#     4  11  24  46  66 103 140 185 230 299 348 428
#
# _framework density 26.484363999999999
#
# number of rings (size 3 to 8) (size 9 to 14) (size 15 to 20)
#    0.000    0.889    3.333    4.667    1.556    4.444 
#    4.000    0.000    0.000    0.000    0.000    0.000 
#    0.000    0.000    0.000    0.000    0.000    0.000 
#
# Total GULP energy -100407.332830 kJ/mol
# GULP energy per Si atom -5578.185157 kJ/mol
# Density = 2.642408 g / cm^3
# Si number density = 26.484364 Si / 1000 Ang^3
#
#
#
# Elastic Constant Matrix: (Units=GPa)
#
#
# Indices 1 2 3 4 5 6 
#
# 1 41.0275 18.7243 8.7858 0.0000 0.0000 0.0000
# 2 18.7243 117.1711 13.1142 0.0000 0.0000 0.0000
# 3 8.7858 13.1142 113.5689 0.0000 0.0000 0.0000
# 4 0.0000 0.0000 0.0000 49.7813 0.0000 0.0000
# 5 0.0000 0.0000 0.0000 0.0000 38.6708 0.0000
# 6 0.0000 0.0000 0.0000 0.0000 0.0000 22.1659
#
#
#
# Elastic Compliance Matrix: (Units=1/GPa)
#
#
# Indices 1 2 3 4 5 6 
#
# 1 0.026570 -0.004069 -0.001586 0.000000 0.000000 0.000000
# 2 -0.004069 0.009269 -0.000756 0.000000 0.000000 0.000000
# 3 -0.001586 -0.000756 0.009015 0.000000 0.000000 0.000000
# 4 0.000000 0.000000 0.000000 0.020088 0.000000 0.000000
# 5 0.000000 0.000000 0.000000 0.000000 0.025859 0.000000
# 6 0.000000 0.000000 0.000000 0.000000 0.000000 0.045114
#
#
# Mechanical properties :
#
#
# Convention : Reuss Voigt Hill
#
# Bulk Modulus (GPa) = 31.21586 39.22401 35.21994
# Shear Modulus (GPa) = 31.36486 37.53317 34.44901
#
# Velocity S-wave (km/s) = 3.44507 3.76863 3.61048
# Velocity P-wave (km/s) = 5.25707 5.81199 5.54148
#
# Compressibility (1/GPa) = 0.03203500
#
# Stress axis : x y z
#
# Youngs Moduli (GPa) = 37.63608 107.88354 110.92442
#
# Poissons Ratio (x) = 0.43893 0.17589
# Poissons Ratio (y) = 0.15312 0.08381
# Poissons Ratio (z) = 0.05968 0.08152
#
# Static dielectric constant tensor:
#      x y z
#    x 2.357030 0.000000 0.000000 
#    y 0.000000 2.101310 0.000000 
#    z 0.000000 0.000000 2.192210 
# 
# From -- ./inp_files/14836.got.cif
#   From: 2010.05.17/outbox.cif.g08.bks.cpg/sg24_8_cif.got.tgz:14836.got - 2010.06.04 00:33:39.
