data_PCOD9335649
_publ_section_title
;
Structure prediction by ZEFSAII (Michael W. Deem and Ramdas Pophale) SiO2 
 PCOD9335649
Probable space group: I 21 21 21
;
_chemical_formula_sum "Si O2"
_cell_formula_units_Z 28
_cell_length_a 7.680600
_cell_length_b 25.888225
_cell_length_c 5.276530
_cell_angle_alpha 90.000000
_cell_angle_beta 90.000000
_cell_angle_gamma 90.000000
_cell_volume 1049.169928
_symmetry_space_group_name_H-M "I 21 21 21"
_symmetry_group_IT_number 24
_symmetry_cell_setting 'orthorhombic'
loop_
_space_group_symop_operation_xyz
x,y,z
-x,1/2-y,z
x,-y,1/2-z
1/2-x,y,-z
1/2+x,1/2+y,1/2+z
1/2-x,-y,1/2+z
1/2+x,1/2-y,-z
-x,1/2+y,1/2-z
loop_
_atom_site_type_symbol
_atom_site_label
_atom_site_fract_x
_atom_site_fract_y
_atom_site_fract_z
Si Si1 0.550319 0.855568 0.768274
Si Si2 0.750000 0.238833 0.500000
Si Si3 0.750000 0.059320 0.500000
Si Si4 0.054123 0.000000 0.750000
Si Si5 0.750000 0.417437 0.500000
Si Si6 0.750000 0.307802 0.000000
O O1 0.610168 0.802137 0.891723
O O2 0.428403 0.840612 0.532194
O O3 0.701714 0.899400 0.775511
O O4 0.410947 0.881868 0.947216
O O5 0.718990 0.273406 0.251067
O O6 0.586084 0.021345 0.454830
O O7 0.191682 0.046761 0.733601
#
# Coordination Sequence:
#
# PCOD9335649 Si02
#       6
#     8   4   4   4   4   4
#     4  10  24  45  70 105 149 193 246 306 368 436
#     4  11  27  50  74 106 152 202 250 304 371 443
#     4   9  22  46  70 104 144 192 246 302 366 443
#     4  10  22  42  70  98 138 186 238 294 366 436
#     4  10  23  43  69 106 146 188 239 303 367 438
#     4  12  26  45  77 112 152 198 251 309 370 440
#
# _framework density 26.687763
#
# number of rings (size 3 to 8) (size 9 to 14) (size 15 to 20)
#    0.000    1.714    0.000    1.714    0.000   17.143 
#    0.000   15.714    0.000    0.000    0.000    0.000 
#    0.000    0.000    0.000    0.000    0.000    0.000 
#
# Total GULP energy -78101.465841 kJ/mol
# GULP energy per Si atom -5578.676131 kJ/mol
# Density = 2.662702 g / cm^3
# Si number density = 26.687763 Si / 1000 Ang^3
#
#
#
# Elastic Constant Matrix: (Units=GPa)
#
#
# Indices 1 2 3 4 5 6 
#
# 1 121.3360 44.7571 46.2130 -0.0040 -0.0007 0.0005
# 2 44.7571 168.4701 87.0762 0.0035 0.0002 -0.0026
# 3 46.2130 87.0762 162.3532 -0.0181 0.0016 -0.0156
# 4 -0.0040 0.0035 -0.0181 -9.9181 -0.0066 0.0221
# 5 -0.0007 0.0002 0.0016 -0.0066 36.3885 0.0025
# 6 0.0005 -0.0026 -0.0156 0.0221 0.0025 42.0918
#
#
#
# Elastic Compliance Matrix: (Units=1/GPa)
#
#
# Indices 1 2 3 4 5 6 
#
# 1 0.009532 -0.001563 -0.001875 -0.000001 0.000000 -0.000001
# 2 -0.001563 0.008469 -0.004097 0.000011 0.000000 -0.000001
# 3 -0.001875 -0.004097 0.008890 -0.000017 0.000000 0.000003
# 4 -0.000001 0.000011 -0.000017 -0.100826 -0.000018 0.000053
# 5 0.000000 0.000000 0.000000 -0.000018 0.027481 -0.000002
# 6 -0.000001 -0.000001 0.000003 0.000053 -0.000002 0.023758
#
#
# Mechanical properties :
#
#
# Convention : Reuss Voigt Hill
#
# Bulk Modulus (GPa) = 84.59563 89.80576 87.20069
# Shear Modulus (GPa) = -1356.97008 31.98665 -662.49171
#
# Velocity S-wave (km/s) = -22.57355 3.46577 -15.77266
# Velocity P-wave (km/s) = 25.44903 7.05259 17.29038
#
# Compressibility (1/GPa) = 0.01182094
#
# Stress axis : x y z
#
# Youngs Moduli (GPa) = 104.90617 118.08088 112.47964
#
# Poissons Ratio (x) = 0.18461 0.21088
# Poissons Ratio (y) = 0.16401 0.46084
# Poissons Ratio (z) = 0.19668 0.48379
#
# Static dielectric constant tensor:
#      x y z
#    x 2.249220 0.000000 0.000000 
#    y 0.000000 2.128010 0.000000 
#    z 0.000000 0.000000 2.048460 
# 
# From -- ./inp_files/1052.got.cif
#   From: 2010.05.17/outbox.cif.g08.bks.cpg/sg24_1_cif.got.tgz:1052.got - 2010.06.04 00:33:39.
