data_PCOD9335717
_publ_section_title
;
Structure prediction by ZEFSAII (Michael W. Deem and Ramdas Pophale) SiO2 
 PCOD9335717
Probable space group: I 21 21 21
;
_chemical_formula_sum "Si O2"
_cell_formula_units_Z 56
_cell_length_a 21.823315
_cell_length_b 14.098330
_cell_length_c 9.168044
_cell_angle_alpha 90.000000
_cell_angle_beta 90.000000
_cell_angle_gamma 90.000000
_cell_volume 2820.753152
_symmetry_space_group_name_H-M "I 21 21 21"
_symmetry_group_IT_number 24
_symmetry_cell_setting 'orthorhombic'
loop_
_space_group_symop_operation_xyz
x,y,z
-x,1/2-y,z
x,-y,1/2-z
1/2-x,y,-z
1/2+x,1/2+y,1/2+z
1/2-x,-y,1/2+z
1/2+x,1/2-y,-z
-x,1/2+y,1/2-z
loop_
_atom_site_type_symbol
_atom_site_label
_atom_site_fract_x
_atom_site_fract_y
_atom_site_fract_z
Si Si1 0.392002 0.850057 0.394537
Si Si2 0.827995 0.233160 0.649536
Si Si3 0.571178 0.114537 0.745094
Si Si4 0.520840 0.500000 0.250000
Si Si5 0.306288 0.728949 0.811114
Si Si6 0.457038 0.341002 0.416766
Si Si7 0.500000 0.750000 0.546157
Si Si8 0.301098 0.080123 0.874700
O O1 0.343535 0.810724 0.274909
O O2 0.439073 0.771784 0.454106
O O3 0.361542 0.904919 0.528985
O O4 0.435651 0.923418 0.318785
O O5 0.822743 0.262902 0.477473
O O6 0.762344 0.185329 0.681501
O O7 0.889415 0.171666 0.648902
O O8 0.639700 0.162037 0.751337
O O9 0.547701 0.150893 0.589379
O O10 0.522910 0.160331 0.858311
O O11 0.574171 0.000000 0.750000
O O12 0.481634 0.440804 0.362696
O O13 0.296978 0.820252 0.710076
O O14 0.500000 0.250000 0.379520
O O15 0.301383 0.000000 0.750000
O O16 0.250000 0.063647 0.000000
#
# Coordination Sequence:
#
# PCOD9335717 Si02
#       8
#     8   8   8   4   8   8   4   8
#     4  12  25  40  68 100 137 181 229 288 351 418
#     4  10  22  43  73  92 134 182 231 285 355 413
#     4  11  24  44  72 103 140 184 240 289 356 432
#     4  12  26  40  66 102 140 180 232 284 350 426
#     4  10  23  47  70  96 135 185 230 293 351 415
#     4  11  22  44  68 101 139 184 230 292 360 415
#     4  12  24  44  68 104 140 186 230 294 358 424
#     4  12  28  42  67 104 137 182 236 289 354 423
#
# _framework density 19.852854000000001
#
# number of rings (size 3 to 8) (size 9 to 14) (size 15 to 20)
#    0.000    0.857    5.000    1.714    5.000    1.714 
#    1.286    0.000    9.429    0.000    0.000    0.000 
#    0.000    0.000    0.000    0.000    0.000    0.000 
#
# Total GULP energy -156090.492950 kJ/mol
# GULP energy per Si atom -5574.660462 kJ/mol
# Density = 1.980767 g / cm^3
# Si number density = 19.852854 Si / 1000 Ang^3
#
#
#
# Elastic Constant Matrix: (Units=GPa)
#
#
# Indices 1 2 3 4 5 6 
#
# 1 95.8293 18.1438 33.9740 0.0000 0.0000 0.0000
# 2 18.1438 75.6563 19.6146 0.0000 0.0000 0.0000
# 3 33.9740 19.6146 74.8488 0.0000 0.0000 0.0000
# 4 0.0000 0.0000 0.0000 30.3068 0.0000 0.0000
# 5 0.0000 0.0000 0.0000 0.0000 33.2566 0.0000
# 6 0.0000 0.0000 0.0000 0.0000 0.0000 20.0974
#
#
#
# Elastic Compliance Matrix: (Units=1/GPa)
#
#
# Indices 1 2 3 4 5 6 
#
# 1 0.012627 -0.001655 -0.005298 0.000000 0.000000 0.000000
# 2 -0.001655 0.014398 -0.003022 0.000000 0.000000 0.000000
# 3 -0.005298 -0.003022 0.016557 0.000000 0.000000 0.000000
# 4 0.000000 0.000000 0.000000 0.032996 0.000000 0.000000
# 5 0.000000 0.000000 0.000000 0.000000 0.030069 0.000000
# 6 0.000000 0.000000 0.000000 0.000000 0.000000 0.049758
#
#
# Mechanical properties :
#
#
# Convention : Reuss Voigt Hill
#
# Bulk Modulus (GPa) = 42.31405 43.31100 42.81252
# Shear Modulus (GPa) = 27.13992 28.37230 27.75611
#
# Velocity S-wave (km/s) = 3.70138 3.78448 3.74316
# Velocity P-wave (km/s) = 6.29500 6.39998 6.34771
#
# Compressibility (1/GPa) = 0.02363281
#
# Stress axis : x y z
#
# Youngs Moduli (GPa) = 79.19753 69.45423 60.39807
#
# Poissons Ratio (x) = 0.11492 0.31997
# Poissons Ratio (y) = 0.13104 0.18252
# Poissons Ratio (z) = 0.41956 0.20989
#
# Static dielectric constant tensor:
#      x y z
#    x 1.698200 0.000000 0.000000 
#    y 0.000000 1.649490 0.000000 
#    z 0.000000 0.000000 1.754950 
# 
# From -- ./inp_files/15291.got.cif
#   From: 2010.05.17/outbox.cif.g08.bks.cpg/sg24_8_cif.got.tgz:15291.got - 2010.06.04 00:33:39.
