data_PCOD9335002
_publ_section_title
;
Structure prediction by ZEFSAII (Michael W. Deem and Ramdas Pophale) SiO2 
 PCOD9335002
Probable space group: I 21 21 21
;
_chemical_formula_sum "Si O2"
_cell_formula_units_Z 40
_cell_length_a 15.070174
_cell_length_b 7.940527
_cell_length_c 13.032482
_cell_angle_alpha 90.000000
_cell_angle_beta 90.000000
_cell_angle_gamma 90.000000
_cell_volume 1559.533569
_symmetry_space_group_name_H-M "I 21 21 21"
_symmetry_group_IT_number 24
_symmetry_cell_setting 'orthorhombic'
loop_
_space_group_symop_operation_xyz
x,y,z
-x,1/2-y,z
x,-y,1/2-z
1/2-x,y,-z
1/2+x,1/2+y,1/2+z
1/2-x,-y,1/2+z
1/2+x,1/2-y,-z
-x,1/2+y,1/2-z
loop_
_atom_site_type_symbol
_atom_site_label
_atom_site_fract_x
_atom_site_fract_y
_atom_site_fract_z
Si Si1 0.283566 0.074267 0.391196
Si Si2 0.100461 0.037060 0.146462
Si Si3 0.645961 0.051095 0.418161
Si Si4 0.323550 0.587000 0.642371
Si Si5 0.963291 0.439438 0.919715
O O1 0.250000 0.002094 0.500000
O O2 0.316437 0.263813 0.401028
O O3 0.188662 0.076900 0.337567
O O4 0.369455 0.964714 0.363104
O O5 0.132609 0.229920 0.138609
O O6 0.055576 0.000194 0.037281
O O7 0.045745 0.000000 0.250000
O O8 0.645234 0.010831 0.539941
O O9 0.715897 0.918744 0.370052
O O10 0.546486 0.041996 0.377092
O O11 0.342961 0.500000 0.750000
O O12 0.000000 0.250000 0.922700
#
# Coordination Sequence:
#
# PCOD9335002 Si02
#       5
#     8   8   8   8   8
#     4  10  21  39  65  88 122 171 217 257 322 391
#     4  11  24  41  64  97 133 172 217 271 327 394
#     4  11  22  42  65  96 131 172 220 272 329 386
#     4  11  23  40  67  95 132 172 222 267 324 391
#     4  11  22  39  62  95 129 170 214 263 324 388
#
# _framework density 25.648695
#
# number of rings (size 3 to 8) (size 9 to 14) (size 15 to 20)
#    0.000    1.200    4.000    3.000    8.400    0.800 
#    0.000    1.000    0.000    0.000    0.000    0.000 
#    0.000    0.000    0.000    0.000    0.000    0.000 
#
# Total GULP energy -111895.934883 kJ/mol
# GULP energy per Si atom -5594.796744 kJ/mol
# Density = 2.559032 g / cm^3
# Si number density = 25.648695 Si / 1000 Ang^3
#
#
#
# Elastic Constant Matrix: (Units=GPa)
#
#
# Indices 1 2 3 4 5 6 
#
# 1 175.3126 29.2343 -2.6821 0.0000 0.0000 0.0000
# 2 29.2343 106.5141 6.0372 0.0000 0.0000 0.0000
# 3 -2.6821 6.0372 99.5498 0.0000 0.0000 0.0000
# 4 0.0000 0.0000 0.0000 27.0257 0.0000 0.0000
# 5 0.0000 0.0000 0.0000 0.0000 -6.2713 0.0000
# 6 0.0000 0.0000 0.0000 0.0000 0.0000 17.7166
#
#
#
# Elastic Compliance Matrix: (Units=1/GPa)
#
#
# Indices 1 2 3 4 5 6 
#
# 1 0.005984 -0.001657 0.000262 0.000000 0.000000 0.000000
# 2 -0.001657 0.009880 -0.000644 0.000000 0.000000 0.000000
# 3 0.000262 -0.000644 0.010091 0.000000 0.000000 0.000000
# 4 0.000000 0.000000 0.000000 0.037002 0.000000 0.000000
# 5 0.000000 0.000000 0.000000 0.000000 -0.159457 0.000000
# 6 0.000000 0.000000 0.000000 0.000000 0.000000 0.056444
#
#
# Mechanical properties :
#
#
# Convention : Reuss Voigt Hill
#
# Bulk Modulus (GPa) = 45.71063 49.61725 47.66394
# Shear Modulus (GPa) = -174.31160 30.94666 -71.68247
#
# Velocity S-wave (km/s) = -8.25280 3.47732 -5.29230
# Velocity P-wave (km/s) = 8.54114 5.95897 4.32677
#
# Compressibility (1/GPa) = 0.02187675
#
# Stress axis : x y z
#
# Youngs Moduli (GPa) = 167.09906 101.21661 99.09504
#
# Poissons Ratio (x) = 0.16775 -0.02594
# Poissons Ratio (y) = 0.27694 0.06380
# Poissons Ratio (z) = -0.04374 0.06516
#
# Static dielectric constant tensor:
#      x y z
#    x 2.099050 0.000000 0.000000 
#    y 0.000000 1.976920 0.000000 
#    z 0.000000 0.000000 2.105740 
# 
# From -- ./inp_files/24525.got.cif
#   From: 2010.05.17/outbox.cif.g08.bks.cpg/sg24_13_cif.got.tgz:24525.got - 2010.06.04 00:33:39.
