data_PCOD9335735
_publ_section_title
;
Structure prediction by ZEFSAII (Michael W. Deem and Ramdas Pophale) SiO2 
 PCOD9335735
Probable space group: I 21 21 21
;
_chemical_formula_sum "Si O2"
_cell_formula_units_Z 36
_cell_length_a 14.235047
_cell_length_b 5.078479
_cell_length_c 22.899019
_cell_angle_alpha 90.000000
_cell_angle_beta 90.000000
_cell_angle_gamma 90.000000
_cell_volume 1655.424749
_symmetry_space_group_name_H-M "I 21 21 21"
_symmetry_group_IT_number 24
_symmetry_cell_setting 'orthorhombic'
loop_
_space_group_symop_operation_xyz
x,y,z
-x,1/2-y,z
x,-y,1/2-z
1/2-x,y,-z
1/2+x,1/2+y,1/2+z
1/2-x,-y,1/2+z
1/2+x,1/2-y,-z
-x,1/2+y,1/2-z
loop_
_atom_site_type_symbol
_atom_site_label
_atom_site_fract_x
_atom_site_fract_y
_atom_site_fract_z
Si Si1 0.111410 0.524918 0.317450
Si Si2 0.000000 0.750000 0.092655
Si Si3 0.397195 0.181646 0.091497
Si Si4 0.258657 0.983357 0.817614
Si Si5 0.641022 0.802513 0.012703
O O1 0.081344 0.500000 0.250000
O O2 0.026538 0.474668 0.361042
O O3 0.160021 0.803126 0.325520
O O4 0.193185 0.301344 0.327745
O O5 0.086929 0.716180 0.048517
O O6 0.500000 0.250000 0.116265
O O7 0.323528 0.081862 0.139756
O O8 0.366359 0.428450 0.050527
O O9 0.404785 0.932095 0.049305
O O10 0.227308 0.000000 0.750000
O O11 0.750000 0.749749 0.000000
#
# Coordination Sequence:
#
# PCOD9335735 Si02
#       5
#     8   4   8   8   8
#     4  10  24  42  66  98 133 172 227 288 344 422
#     4  12  24  44  68 100 134 186 234 280 362 426
#     4  12  23  44  64  99 137 176 232 299 336 420
#     4  10  22  44  68  95 133 179 225 282 356 412
#     4  12  26  43  66  97 139 186 232 287 357 422
#
# _framework density 21.746683000000001
#
# number of rings (size 3 to 8) (size 9 to 14) (size 15 to 20)
#    0.000    0.889    2.222    4.667    0.000    7.111 
#    0.000    5.556    0.000    0.000    0.000    0.000 
#    0.000    0.000    0.000    0.000    0.000    0.000 
#
# Total GULP energy -100576.805262 kJ/mol
# GULP energy per Si atom -5587.600292 kJ/mol
# Density = 2.169719 g / cm^3
# Si number density = 21.746683 Si / 1000 Ang^3
#
#
#
# Elastic Constant Matrix: (Units=GPa)
#
#
# Indices 1 2 3 4 5 6 
#
# 1 121.3613 23.9315 72.4005 0.0000 0.0000 0.0000
# 2 23.9315 95.7131 37.8854 0.0000 0.0000 0.0000
# 3 72.4005 37.8854 148.4918 0.0000 0.0000 0.0000
# 4 0.0000 0.0000 0.0000 17.7397 0.0000 0.0000
# 5 0.0000 0.0000 0.0000 0.0000 -12.0476 0.0000
# 6 0.0000 0.0000 0.0000 0.0000 0.0000 37.5633
#
#
#
# Elastic Compliance Matrix: (Units=1/GPa)
#
#
# Indices 1 2 3 4 5 6 
#
# 1 0.011667 -0.000740 -0.005499 0.000000 0.000000 0.000000
# 2 -0.000740 0.011668 -0.002616 0.000000 0.000000 0.000000
# 3 -0.005499 -0.002616 0.010083 0.000000 0.000000 0.000000
# 4 0.000000 0.000000 0.000000 0.056371 0.000000 0.000000
# 5 0.000000 0.000000 0.000000 0.000000 -0.083004 0.000000
# 6 0.000000 0.000000 0.000000 0.000000 0.000000 0.026622
#
#
# Mechanical properties :
#
#
# Convention : Reuss Voigt Hill
#
# Bulk Modulus (GPa) = 63.66704 70.44456 67.05580
# Shear Modulus (GPa) = 88.72444 24.07433 56.39938
#
# Velocity S-wave (km/s) = 6.39434 3.33082 5.09814
# Velocity P-wave (km/s) = 9.15735 6.87430 8.09670
#
# Compressibility (1/GPa) = 0.01570671
#
# Stress axis : x y z
#
# Youngs Moduli (GPa) = 85.71433 85.70083 99.17451
#
# Poissons Ratio (x) = 0.06344 0.54541
# Poissons Ratio (y) = 0.06345 0.25945
# Poissons Ratio (z) = 0.47138 0.22420
#
# Static dielectric constant tensor:
#      x y z
#    x 1.891100 0.000000 0.000000 
#    y 0.000000 1.790190 0.000000 
#    z 0.000000 0.000000 1.854880 
# 
# From -- ./inp_files/33576.got.cif
#   From: 2010.05.17/outbox.cif.g08.bks.cpg/sg24_17_cif.got.tgz:33576.got - 2010.06.04 00:33:39.
