data_PCOD9335150
_publ_section_title
;
Structure prediction by ZEFSAII (Michael W. Deem and Ramdas Pophale) SiO2 
 PCOD9335150
Probable space group: I 21 21 21
;
_chemical_formula_sum "Si O2"
_cell_formula_units_Z 56
_cell_length_a 18.717881
_cell_length_b 17.598953
_cell_length_c 8.347208
_cell_angle_alpha 90.000000
_cell_angle_beta 90.000000
_cell_angle_gamma 90.000000
_cell_volume 2749.696425
_symmetry_space_group_name_H-M "I 21 21 21"
_symmetry_group_IT_number 24
_symmetry_cell_setting 'orthorhombic'
loop_
_space_group_symop_operation_xyz
x,y,z
-x,1/2-y,z
x,-y,1/2-z
1/2-x,y,-z
1/2+x,1/2+y,1/2+z
1/2-x,-y,1/2+z
1/2+x,1/2-y,-z
-x,1/2+y,1/2-z
loop_
_atom_site_type_symbol
_atom_site_label
_atom_site_fract_x
_atom_site_fract_y
_atom_site_fract_z
Si Si1 0.547233 0.463186 0.581796
Si Si2 0.163786 0.786757 0.513528
Si Si3 0.925148 0.292894 0.313217
Si Si4 0.670877 0.874811 0.555323
Si Si5 0.400184 0.519863 0.069195
Si Si6 0.172629 0.331057 0.428769
Si Si7 0.674007 0.549824 0.409229
O O1 0.523302 0.500000 0.750000
O O2 0.561932 0.375203 0.614503
O O3 0.484149 0.468943 0.453855
O O4 0.615878 0.508906 0.520838
O O5 0.250000 0.781403 0.500000
O O6 0.122834 0.803244 0.346738
O O7 0.143914 0.698613 0.547177
O O8 0.151319 0.861867 0.619924
O O9 0.880998 0.239795 0.434829
O O10 0.000000 0.250000 0.275482
O O11 0.750000 0.896398 0.500000
O O12 0.676312 0.849815 0.739570
O O13 0.621804 0.947414 0.536195
O O14 0.380787 0.500000 0.250000
O O15 0.359222 0.595038 0.013997
O O16 0.250000 0.313072 0.500000
O O17 0.680334 0.500000 0.250000
O O18 0.750000 0.551762 0.500000
#
# Coordination Sequence:
#
# PCOD9335150 Si02
#       7
#     8   8   8   8   8   8   8
#     4  12  24  44  70  98 135 181 229 282 352 420
#     4   9  21  40  66  96 136 174 230 279 336 408
#     4  11  23  44  70 103 135 179 232 286 347 414
#     4  10  21  41  67  98 135 178 224 281 346 409
#     4  12  25  42  66  98 139 180 229 284 347 417
#     4  11  23  42  70 103 135 181 231 283 345 413
#     4  11  24  43  66  98 135 182 232 283 341 403
#
# _framework density 20.365884999999999
#
# number of rings (size 3 to 8) (size 9 to 14) (size 15 to 20)
#    0.000    1.143    2.857    3.429    4.000    0.571 
#   10.286    0.000    0.000    0.000    0.000    0.000 
#    0.000    0.000    0.000    0.000    0.000    0.000 
#
# Total GULP energy -156414.299889 kJ/mol
# GULP energy per Si atom -5586.224996 kJ/mol
# Density = 2.031953 g / cm^3
# Si number density = 20.365885 Si / 1000 Ang^3
#
#
#
# Elastic Constant Matrix: (Units=GPa)
#
#
# Indices 1 2 3 4 5 6 
#
# 1 98.6457 47.9612 12.9067 0.0000 0.0000 0.0000
# 2 47.9612 166.5621 23.0515 0.0000 0.0000 0.0000
# 3 12.9067 23.0515 55.4461 0.0000 0.0000 0.0000
# 4 0.0000 0.0000 0.0000 24.1900 0.0000 0.0000
# 5 0.0000 0.0000 0.0000 0.0000 36.2889 0.0000
# 6 0.0000 0.0000 0.0000 0.0000 0.0000 30.3109
#
#
#
# Elastic Compliance Matrix: (Units=1/GPa)
#
#
# Indices 1 2 3 4 5 6 
#
# 1 0.011893 -0.003227 -0.001427 0.000000 0.000000 0.000000
# 2 -0.003227 0.007246 -0.002261 0.000000 0.000000 0.000000
# 3 -0.001427 -0.002261 0.019308 0.000000 0.000000 0.000000
# 4 0.000000 0.000000 0.000000 0.041339 0.000000 0.000000
# 5 0.000000 0.000000 0.000000 0.000000 0.027557 0.000000
# 6 0.000000 0.000000 0.000000 0.000000 0.000000 0.032991
#
#
# Mechanical properties :
#
#
# Convention : Reuss Voigt Hill
#
# Bulk Modulus (GPa) = 40.62336 54.27697 47.45017
# Shear Modulus (GPa) = 30.79388 33.94026 32.36707
#
# Velocity S-wave (km/s) = 3.89270 4.08674 3.99090
# Velocity P-wave (km/s) = 6.33989 6.99838 6.67726
#
# Compressibility (1/GPa) = 0.02461638
#
# Stress axis : x y z
#
# Youngs Moduli (GPa) = 84.08327 138.00805 51.79265
#
# Poissons Ratio (x) = 0.44537 0.07390
# Poissons Ratio (y) = 0.27134 0.11712
# Poissons Ratio (z) = 0.11997 0.31207
#
# Static dielectric constant tensor:
#      x y z
#    x 1.721120 0.000000 0.000000 
#    y 0.000000 1.744900 0.000000 
#    z 0.000000 0.000000 1.683540 
# 
# From -- ./inp_files/15230.got.cif
#   From: 2010.05.17/outbox.cif.g08.bks.cpg/sg24_8_cif.got.tgz:15230.got - 2010.06.04 00:33:39.
