data_PCOD9335962
_publ_section_title
;
Structure prediction by ZEFSAII (Michael W. Deem and Ramdas Pophale) SiO2 
 PCOD9335962
Probable space group: I 21 21 21
;
_chemical_formula_sum "Si O2"
_cell_formula_units_Z 60
_cell_length_a 9.472359
_cell_length_b 13.978899
_cell_length_c 23.338034
_cell_angle_alpha 90.000000
_cell_angle_beta 90.000000
_cell_angle_gamma 90.000000
_cell_volume 3090.262591
_symmetry_space_group_name_H-M "I 21 21 21"
_symmetry_group_IT_number 24
_symmetry_cell_setting 'orthorhombic'
loop_
_space_group_symop_operation_xyz
x,y,z
-x,1/2-y,z
x,-y,1/2-z
1/2-x,y,-z
1/2+x,1/2+y,1/2+z
1/2-x,-y,1/2+z
1/2+x,1/2-y,-z
-x,1/2+y,1/2-z
loop_
_atom_site_type_symbol
_atom_site_label
_atom_site_fract_x
_atom_site_fract_y
_atom_site_fract_z
Si Si1 0.300448 0.488497 0.363900
Si Si2 0.250000 0.686706 0.000000
Si Si3 0.562361 0.487330 0.053437
Si Si4 0.242329 0.841367 0.096227
Si Si5 0.337780 0.781069 0.442573
Si Si6 0.335756 0.281067 0.302825
Si Si7 0.033983 0.551970 0.061077
Si Si8 0.846358 0.803773 0.675489
O O1 0.412230 0.501921 0.415496
O O2 0.319118 0.387059 0.331016
O O3 0.145023 0.489273 0.393151
O O4 0.339338 0.580676 0.325545
O O5 0.223235 0.754147 0.946262
O O6 0.378589 0.621589 0.980862
O O7 0.651893 0.576853 0.075198
O O8 0.646765 0.393011 0.071168
O O9 0.539466 0.481970 0.984865
O O10 0.260552 0.798134 0.158635
O O11 0.086772 0.883738 0.089003
O O12 0.500000 0.750000 0.452787
O O13 0.250000 0.762795 0.500000
O O14 0.281332 0.728509 0.385456
O O15 0.500000 0.250000 0.303759
O O16 0.284355 0.277144 0.237220
O O17 0.000000 0.750000 0.674011
#
# Coordination Sequence:
#
# PCOD9335962 Si02
#       8
#     8   4   8   8   8   8   8   8
#     4  12  22  38  66  95 125 167 219 261 323 377
#     4  12  22  34  58  90 132 170 206 242 312 386
#     4  12  22  41  59  98 131 167 212 264 318 383
#     4  12  24  38  60  95 138 173 204 259 324 389
#     4  11  24  42  68  92 125 162 211 272 322 370
#     4  11  23  39  66  95 127 168 217 259 318 381
#     4  12  24  36  63  94 138 170 206 258 326 392
#     4  10  23  44  65  94 122 163 224 276 307 370
#
# _framework density 19.415827
#
# number of rings (size 3 to 8) (size 9 to 14) (size 15 to 20)
#    0.000    0.533    8.000    1.600    1.867    0.000 
#    0.000    0.667    2.933    1.600    0.000    0.000 
#    0.000    0.000    0.000    0.000    0.000    0.000 
#
# Total GULP energy -167423.659937 kJ/mol
# GULP energy per Si atom -5580.788665 kJ/mol
# Density = 1.937164 g / cm^3
# Si number density = 19.415827 Si / 1000 Ang^3
#
#
#
# Elastic Constant Matrix: (Units=GPa)
#
#
# Indices 1 2 3 4 5 6 
#
# 1 70.7313 12.4550 30.4702 0.0000 0.0000 0.0000
# 2 12.4550 50.3261 11.6431 0.0000 0.0000 0.0000
# 3 30.4702 11.6431 132.3832 0.0000 0.0000 0.0000
# 4 0.0000 0.0000 0.0000 18.9971 0.0000 0.0000
# 5 0.0000 0.0000 0.0000 0.0000 21.2868 0.0000
# 6 0.0000 0.0000 0.0000 0.0000 0.0000 56.3508
#
#
#
# Elastic Compliance Matrix: (Units=1/GPa)
#
#
# Indices 1 2 3 4 5 6 
#
# 1 0.016186 -0.003209 -0.003443 0.000000 0.000000 0.000000
# 2 -0.003209 0.020919 -0.001101 0.000000 0.000000 0.000000
# 3 -0.003443 -0.001101 0.008443 0.000000 0.000000 0.000000
# 4 0.000000 0.000000 0.000000 0.052640 0.000000 0.000000
# 5 0.000000 0.000000 0.000000 0.000000 0.046978 0.000000
# 6 0.000000 0.000000 0.000000 0.000000 0.000000 0.017746
#
#
# Mechanical properties :
#
#
# Convention : Reuss Voigt Hill
#
# Bulk Modulus (GPa) = 33.28730 40.28635 36.78683
# Shear Modulus (GPa) = 26.53454 32.58510 29.55982
#
# Velocity S-wave (km/s) = 3.70083 4.10112 3.90610
# Velocity P-wave (km/s) = 5.95341 6.57418 6.27148
#
# Compressibility (1/GPa) = 0.03004148
#
# Stress axis : x y z
#
# Youngs Moduli (GPa) = 61.77996 47.80248 118.43825
#
# Poissons Ratio (x) = 0.15341 0.40782
# Poissons Ratio (y) = 0.19827 0.13042
# Poissons Ratio (z) = 0.21273 0.05264
#
# Static dielectric constant tensor:
#      x y z
#    x 1.674620 0.000000 0.000000 
#    y 0.000000 1.501500 0.000000 
#    z 0.000000 0.000000 1.712860 
# 
# From -- ./inp_files/35247.got.cif
#   From: 2010.05.17/outbox.cif.g08.bks.cpg/sg24_18_cif.got.tgz:35247.got - 2010.06.04 00:33:39.
