data_PCOD9335960
_publ_section_title
;
Structure prediction by ZEFSAII (Michael W. Deem and Ramdas Pophale) SiO2 
 PCOD9335960
Probable space group: I 21 21 21
;
_chemical_formula_sum "Si O2"
_cell_formula_units_Z 52
_cell_length_a 5.233430
_cell_length_b 20.973783
_cell_length_c 20.228125
_cell_angle_alpha 90.000000
_cell_angle_beta 90.000000
_cell_angle_gamma 90.000000
_cell_volume 2220.336604
_symmetry_space_group_name_H-M "I 21 21 21"
_symmetry_group_IT_number 24
_symmetry_cell_setting 'orthorhombic'
loop_
_space_group_symop_operation_xyz
x,y,z
-x,1/2-y,z
x,-y,1/2-z
1/2-x,y,-z
1/2+x,1/2+y,1/2+z
1/2-x,-y,1/2+z
1/2+x,1/2-y,-z
-x,1/2+y,1/2-z
loop_
_atom_site_type_symbol
_atom_site_label
_atom_site_fract_x
_atom_site_fract_y
_atom_site_fract_z
Si Si1 0.750000 0.480285 0.000000
Si Si2 0.000000 0.750000 0.720784
Si Si3 0.595941 0.961159 0.303493
Si Si4 0.733631 0.434000 0.376373
Si Si5 0.834200 0.849356 0.362109
Si Si6 0.750000 0.109467 0.000000
Si Si7 0.001071 0.322808 0.545995
Si Si8 0.214468 0.861067 0.242379
O O1 0.667094 0.528324 0.940548
O O2 0.502272 0.435124 0.013594
O O3 0.848891 0.797634 0.672082
O O4 0.818030 0.709457 0.768366
O O5 0.748769 0.923136 0.356904
O O6 0.446968 0.907149 0.262656
O O7 0.759468 0.000000 0.250000
O O8 0.401037 0.008772 0.337075
O O9 0.535186 0.379879 0.401814
O O10 0.903113 0.394389 0.322683
O O11 0.841012 0.843896 0.440233
O O12 0.066543 0.851658 0.311130
O O13 0.750000 0.326915 0.500000
O O14 0.000000 0.250000 0.572587
O O15 0.250000 0.331593 0.500000
#
# Coordination Sequence:
#
# PCOD9335960 Si02
#       8
#     4   4   8   8   8   4   8   8
#     4  12  26  46  71 119 154 194 248 310 384 462
#     4  10  24  48  66 102 142 190 256 314 366 460
#     4   9  20  39  62  98 133 177 228 293 360 440
#     4  11  22  42  71 104 144 193 249 302 377 441
#     4  11  23  45  71 101 146 189 246 314 380 452
#     4  12  28  46  81 109 158 190 248 316 394 468
#     4  10  23  44  64  95 143 187 236 294 354 431
#     4  10  23  44  69 100 142 194 247 308 371 449
#
# _framework density 23.419871000000001
#
# number of rings (size 3 to 8) (size 9 to 14) (size 15 to 20)
#    0.000    1.538    2.308    1.385    4.308    3.077 
#   16.615    1.538    0.000    0.000    0.000    0.000 
#    0.000    0.000    0.000    0.000    0.000    0.000 
#
# Total GULP energy -144860.088147 kJ/mol
# GULP energy per Si atom -5571.541852 kJ/mol
# Density = 2.336657 g / cm^3
# Si number density = 23.419871 Si / 1000 Ang^3
#
#
#
# Elastic Constant Matrix: (Units=GPa)
#
#
# Indices 1 2 3 4 5 6 
#
# 1 76.0261 16.2590 12.1289 0.0000 0.0000 0.0000
# 2 16.2590 105.2168 22.4605 0.0000 0.0000 0.0000
# 3 12.1289 22.4605 96.4005 0.0000 0.0000 0.0000
# 4 0.0000 0.0000 0.0000 -19.7699 0.0000 0.0000
# 5 0.0000 0.0000 0.0000 0.0000 9.0517 0.0000
# 6 0.0000 0.0000 0.0000 0.0000 0.0000 19.6227
#
#
#
# Elastic Compliance Matrix: (Units=1/GPa)
#
#
# Indices 1 2 3 4 5 6 
#
# 1 0.013756 -0.001848 -0.001300 0.000000 0.000000 0.000000
# 2 -0.001848 0.010250 -0.002156 0.000000 0.000000 0.000000
# 3 -0.001300 -0.002156 0.011039 0.000000 0.000000 0.000000
# 4 0.000000 0.000000 0.000000 -0.050582 0.000000 0.000000
# 5 0.000000 0.000000 0.000000 0.000000 0.110477 0.000000
# 6 0.000000 0.000000 0.000000 0.000000 0.000000 0.050961
#
#
# Mechanical properties :
#
#
# Convention : Reuss Voigt Hill
#
# Bulk Modulus (GPa) = 40.92099 42.14893 41.53496
# Shear Modulus (GPa) = 30.36644 16.90055 23.63350
#
# Velocity S-wave (km/s) = 3.60475 2.68924 3.18011
# Velocity P-wave (km/s) = 5.90223 5.26107 5.59085
#
# Compressibility (1/GPa) = 0.02443733
#
# Stress axis : x y z
#
# Youngs Moduli (GPa) = 72.69527 97.56159 90.58617
#
# Poissons Ratio (x) = 0.18031 0.11778
# Poissons Ratio (y) = 0.13435 0.19527
# Poissons Ratio (z) = 0.09452 0.21031
#
# Static dielectric constant tensor:
#      x y z
#    x 1.927370 0.000000 0.000000 
#    y 0.000000 1.916470 0.000000 
#    z 0.000000 0.000000 2.109230 
# 
# From -- ./inp_files/32212.got.cif
#   From: 2010.05.17/outbox.cif.g08.bks.cpg/sg24_17_cif.got.tgz:32212.got - 2010.06.04 00:33:39.
