data_PCOD9335989
_publ_section_title
;
Structure prediction by ZEFSAII (Michael W. Deem and Ramdas Pophale) SiO2 
 PCOD9335989
Probable space group: I 21 21 21
;
_chemical_formula_sum "Si O2"
_cell_formula_units_Z 28
_cell_length_a 30.989474
_cell_length_b 4.986083
_cell_length_c 8.661732
_cell_angle_alpha 90.000000
_cell_angle_beta 90.000000
_cell_angle_gamma 90.000000
_cell_volume 1338.376957
_symmetry_space_group_name_H-M "I 21 21 21"
_symmetry_group_IT_number 24
_symmetry_cell_setting 'orthorhombic'
loop_
_space_group_symop_operation_xyz
x,y,z
-x,1/2-y,z
x,-y,1/2-z
1/2-x,y,-z
1/2+x,1/2+y,1/2+z
1/2-x,-y,1/2+z
1/2+x,1/2-y,-z
-x,1/2+y,1/2-z
loop_
_atom_site_type_symbol
_atom_site_label
_atom_site_fract_x
_atom_site_fract_y
_atom_site_fract_z
Si Si1 0.685821 0.626521 0.039004
Si Si2 0.242753 0.000000 0.250000
Si Si3 0.951681 0.248266 0.136004
Si Si4 0.872131 0.880850 0.581521
O O1 0.710398 0.485828 0.894714
O O2 0.722169 0.699296 0.168267
O O3 0.654701 0.391385 0.094977
O O4 0.657721 0.889220 0.001283
O O5 0.944440 0.500000 0.250000
O O6 0.000000 0.250000 0.066074
O O7 0.951214 0.000000 0.250000
O O8 0.914571 0.198300 0.012475
O O9 0.882155 0.000000 0.750000
#
# Coordination Sequence:
#
# PCOD9335989 Si02
#       4
#     8   4   8   8
#     4  11  25  41  65  93 134 174 222 274 326 393
#     4  10  24  44  62  94 130 180 220 274 332 386
#     4  10  23  44  70  99 131 171 221 275 332 407
#     4  12  24  43  65 100 133 172 218 276 330 397
#
# _framework density 20.920860999999999
#
# number of rings (size 3 to 8) (size 9 to 14) (size 15 to 20)
#    0.000    1.143    2.857    1.714    6.000    6.857 
#    0.000    7.143    0.000    0.000    0.000    0.000 
#    0.000    0.000    0.000    0.000    0.000    0.000 
#
# Total GULP energy -77973.037677 kJ/mol
# GULP energy per Si atom -5569.502691 kJ/mol
# Density = 2.087324 g / cm^3
# Si number density = 20.920861 Si / 1000 Ang^3
#
#
#
# Elastic Constant Matrix: (Units=GPa)
#
#
# Indices 1 2 3 4 5 6 
#
# 1 192.7428 64.1325 97.0443 0.0000 0.0000 0.0000
# 2 64.1325 142.6615 29.4378 0.0000 0.0000 0.0000
# 3 97.0443 29.4378 89.9819 0.0000 0.0000 0.0000
# 4 0.0000 0.0000 0.0000 11.1681 0.0000 0.0000
# 5 0.0000 0.0000 0.0000 0.0000 48.3909 0.0000
# 6 0.0000 0.0000 0.0000 0.0000 0.0000 -49.5381
#
#
#
# Elastic Compliance Matrix: (Units=1/GPa)
#
#
# Indices 1 2 3 4 5 6 
#
# 1 0.012469 -0.003035 -0.012455 0.000000 0.000000 0.000000
# 2 -0.003035 0.008256 0.000573 0.000000 0.000000 0.000000
# 3 -0.012455 0.000573 0.024358 0.000000 0.000000 0.000000
# 4 0.000000 0.000000 0.000000 0.089541 0.000000 0.000000
# 5 0.000000 0.000000 0.000000 0.000000 0.020665 0.000000
# 6 0.000000 0.000000 0.000000 0.000000 0.000000 -0.020186
#
#
# Mechanical properties :
#
#
# Convention : Reuss Voigt Hill
#
# Bulk Modulus (GPa) = 65.58052 89.62393 77.60222
# Shear Modulus (GPa) = 29.40823 17.65561 23.53192
#
# Velocity S-wave (km/s) = 3.75332 2.90819 3.35745
# Velocity P-wave (km/s) = 7.08507 7.36269 7.22521
#
# Compressibility (1/GPa) = 0.01524843
#
# Stress axis : x y z
#
# Youngs Moduli (GPa) = 80.19837 121.12445 41.05386
#
# Poissons Ratio (x) = 0.36766 0.51131
# Poissons Ratio (y) = 0.24343 -0.02351
# Poissons Ratio (z) = 0.99885 -0.06936
#
# Static dielectric constant tensor:
#      x y z
#    x 1.848170 0.000000 0.000000 
#    y 0.000000 1.735090 0.000000 
#    z 0.000000 0.000000 1.876040 
# 
# From -- ./inp_files/16168.got.cif
#   From: 2010.05.17/outbox.cif.g08.bks.cpg/sg24_9_cif.got.tgz:16168.got - 2010.06.04 00:33:39.
