data_PCOD9335561
_publ_section_title
;
Structure prediction by ZEFSAII (Michael W. Deem and Ramdas Pophale) SiO2 
 PCOD9335561
Probable space group: I 21 21 21
;
_chemical_formula_sum "Si O2"
_cell_formula_units_Z 48
_cell_length_a 9.549306
_cell_length_b 28.522352
_cell_length_c 8.532510
_cell_angle_alpha 90.000000
_cell_angle_beta 90.000000
_cell_angle_gamma 90.000000
_cell_volume 2323.988376
_symmetry_space_group_name_H-M "I 21 21 21"
_symmetry_group_IT_number 24
_symmetry_cell_setting 'orthorhombic'
loop_
_space_group_symop_operation_xyz
x,y,z
-x,1/2-y,z
x,-y,1/2-z
1/2-x,y,-z
1/2+x,1/2+y,1/2+z
1/2-x,-y,1/2+z
1/2+x,1/2-y,-z
-x,1/2+y,1/2-z
loop_
_atom_site_type_symbol
_atom_site_label
_atom_site_fract_x
_atom_site_fract_y
_atom_site_fract_z
Si Si1 0.891259 0.869422 0.536173
Si Si2 0.900735 0.887068 0.910159
Si Si3 0.888161 0.030222 0.094612
Si Si4 0.892855 0.523920 0.918374
Si Si5 0.401890 0.791936 0.434608
Si Si6 0.412017 0.796096 0.058066
O O1 0.750000 0.840652 0.500000
O O2 0.884114 0.882002 0.721089
O O3 0.885212 0.913639 0.418877
O O4 0.029372 0.840133 0.509369
O O5 0.994655 0.933933 0.924075
O O6 0.993130 0.842686 0.971360
O O7 0.750000 0.889662 0.000000
O O8 0.880066 0.000000 0.250000
O O9 0.750000 0.015329 0.000000
O O10 0.033687 0.016784 0.016594
O O11 0.868786 0.500000 0.750000
O O12 0.750000 0.539374 0.000000
O O13 0.500000 0.750000 0.488578
O O14 0.250000 0.786060 0.500000
O O15 0.401597 0.792459 0.246412
O O16 0.500000 0.750000 0.002794
O O17 0.250000 0.798246 0.000000
#
# Coordination Sequence:
#
# PCOD9335561 Si02
#       6
#     8   8   8   8   8   8
#     4  10  23  41  62  97 130 168 221 272 322 393
#     4  11  24  43  67  96 132 175 222 274 328 397
#     4  11  24  42  67  95 128 171 219 273 330 392
#     4  12  25  44  62  93 131 172 219 273 331 397
#     4  10  22  41  66  95 135 173 218 267 321 390
#     4  10  22  42  66 101 137 175 219 271 325 390
#
# _framework density 20.654146000000001
#
# number of rings (size 3 to 8) (size 9 to 14) (size 15 to 20)
#    0.000    1.333    1.667    3.000    7.000    2.667 
#    6.000    0.000    0.000    0.000    0.000    0.000 
#    0.000    0.000    0.000    0.000    0.000    0.000 
#
# Total GULP energy -133933.054454 kJ/mol
# GULP energy per Si atom -5580.543936 kJ/mol
# Density = 2.060714 g / cm^3
# Si number density = 20.654146 Si / 1000 Ang^3
#
#
#
# Elastic Constant Matrix: (Units=GPa)
#
#
# Indices 1 2 3 4 5 6 
#
# 1 194.5907 76.2616 44.6094 0.0021 0.0002 -0.0009
# 2 76.2616 121.6888 39.9315 0.0009 0.0010 0.0002
# 3 44.6094 39.9315 61.1051 0.0100 0.0040 -0.0046
# 4 0.0021 0.0009 0.0100 17.5975 0.0013 0.0000
# 5 0.0002 0.0010 0.0040 0.0013 40.5287 0.0002
# 6 -0.0009 0.0002 -0.0046 0.0000 0.0002 39.4853
#
#
#
# Elastic Compliance Matrix: (Units=1/GPa)
#
#
# Indices 1 2 3 4 5 6 
#
# 1 0.007204 -0.003550 -0.002939 0.000001 0.000000 0.000000
# 2 -0.003550 0.012211 -0.005388 0.000003 0.000000 -0.000001
# 3 -0.002939 -0.005388 0.022032 -0.000012 -0.000002 0.000003
# 4 0.000001 0.000003 -0.000012 0.056826 -0.000002 0.000000
# 5 0.000000 0.000000 -0.000002 -0.000002 0.024674 0.000000
# 6 0.000000 -0.000001 0.000003 0.000000 0.000000 0.025326
#
#
# Mechanical properties :
#
#
# Convention : Reuss Voigt Hill
#
# Bulk Modulus (GPa) = 56.52216 77.66549 67.09382
# Shear Modulus (GPa) = 28.10185 33.96112 31.03149
#
# Velocity S-wave (km/s) = 3.69262 4.05937 3.88033
# Velocity P-wave (km/s) = 6.75322 7.72371 7.25472
#
# Compressibility (1/GPa) = 0.01769218
#
# Stress axis : x y z
#
# Youngs Moduli (GPa) = 138.80759 81.89646 45.38898
#
# Poissons Ratio (x) = 0.29076 0.13341
# Poissons Ratio (y) = 0.49281 0.24454
# Poissons Ratio (z) = 0.40800 0.44122
#
# Static dielectric constant tensor:
#      x y z
#    x 1.722700 0.000000 0.000010 
#    y 0.000000 1.762340 0.000000 
#    z 0.000010 0.000000 1.668420 
# 
# From -- ./inp_files/9752.got.cif
#   From: 2010.05.17/outbox.cif.g08.bks.cpg/sg24_5_cif.got.tgz:9752.got - 2010.06.04 00:33:39.
