data_PCOD9335442
_publ_section_title
;
Structure prediction by ZEFSAII (Michael W. Deem and Ramdas Pophale) SiO2 
 PCOD9335442
Probable space group: I 21 21 21
;
_chemical_formula_sum "Si O2"
_cell_formula_units_Z 60
_cell_length_a 16.732683
_cell_length_b 20.041198
_cell_length_c 8.092811
_cell_angle_alpha 90.000000
_cell_angle_beta 90.000000
_cell_angle_gamma 90.000000
_cell_volume 2713.867625
_symmetry_space_group_name_H-M "I 21 21 21"
_symmetry_group_IT_number 24
_symmetry_cell_setting 'orthorhombic'
loop_
_space_group_symop_operation_xyz
x,y,z
-x,1/2-y,z
x,-y,1/2-z
1/2-x,y,-z
1/2+x,1/2+y,1/2+z
1/2-x,-y,1/2+z
1/2+x,1/2-y,-z
-x,1/2+y,1/2-z
loop_
_atom_site_type_symbol
_atom_site_label
_atom_site_fract_x
_atom_site_fract_y
_atom_site_fract_z
Si Si1 0.574258 0.644059 0.511978
Si Si2 0.836352 0.985013 0.445303
Si Si3 0.409704 0.641640 0.403026
Si Si4 0.161803 0.987184 0.561588
Si Si5 0.750000 0.779663 0.000000
Si Si6 0.400764 0.622680 0.026746
Si Si7 0.695212 0.737165 0.352127
Si Si8 0.057343 0.926629 0.165708
O O1 0.483655 0.668525 0.505702
O O2 0.594620 0.570152 0.446289
O O3 0.618860 0.691552 0.383141
O O4 0.592087 0.627953 0.705072
O O5 0.750000 0.960518 0.500000
O O6 0.895261 0.929288 0.512442
O O7 0.840329 0.000000 0.250000
O O8 0.852718 0.053670 0.538347
O O9 0.431815 0.638595 0.209940
O O10 0.332551 0.688330 0.401747
O O11 0.250000 0.966212 0.500000
O O12 0.125414 0.050318 0.463309
O O13 0.174823 0.000000 0.750000
O O14 0.668273 0.824029 0.974634
O O15 0.732300 0.739770 0.169778
O O16 0.477011 0.605381 0.912053
O O17 0.750000 0.711672 0.500000
O O18 0.037396 0.000000 0.250000
#
# Coordination Sequence:
#
# PCOD9335442 Si02
#       8
#     8   8   8   8   4   8   8   8
#     4  11  23  44  67  98 131 185 229 283 352 426
#     4  12  23  34  60  97 134 179 226 282 353 432
#     4  11  24  41  64  93 137 177 229 290 354 414
#     4  11  22  41  68 103 142 176 223 293 357 422
#     4  10  26  46  68 102 140 180 240 302 348 424
#     4  11  21  41  64 100 138 178 228 291 360 427
#     4  11  26  47  71  94 137 184 240 295 347 422
#     4  10  22  39  67 103 139 177 230 286 359 433
#
# _framework density 22.10867
#
# number of rings (size 3 to 8) (size 9 to 14) (size 15 to 20)
#    0.000    1.067    0.667    7.200    5.600    0.000 
#    6.000    0.000    0.000    0.000    0.000    0.000 
#    0.000    0.000    0.000    0.000    0.000    0.000 
#
# Total GULP energy -167262.658516 kJ/mol
# GULP energy per Si atom -5575.421951 kJ/mol
# Density = 2.205835 g / cm^3
# Si number density = 22.108670 Si / 1000 Ang^3
#
#
#
# Elastic Constant Matrix: (Units=GPa)
#
#
# Indices 1 2 3 4 5 6 
#
# 1 65.5543 6.8475 30.5231 0.0000 0.0000 0.0000
# 2 6.8475 37.3015 38.5159 0.0000 0.0000 0.0000
# 3 30.5231 38.5159 117.1079 0.0000 0.0000 0.0000
# 4 0.0000 0.0000 0.0000 -2.8456 0.0000 0.0000
# 5 0.0000 0.0000 0.0000 0.0000 34.2790 0.0000
# 6 0.0000 0.0000 0.0000 0.0000 0.0000 -155.6543
#
#
#
# Elastic Compliance Matrix: (Units=1/GPa)
#
#
# Indices 1 2 3 4 5 6 
#
# 1 0.017487 0.002265 -0.005303 0.000000 0.000000 0.000000
# 2 0.002265 0.040888 -0.014038 0.000000 0.000000 0.000000
# 3 -0.005303 -0.014038 0.014538 0.000000 0.000000 0.000000
# 4 0.000000 0.000000 0.000000 -0.351425 0.000000 0.000000
# 5 0.000000 0.000000 0.000000 0.000000 0.029172 0.000000
# 6 0.000000 0.000000 0.000000 0.000000 0.000000 -0.006424
#
#
# Mechanical properties :
#
#
# Convention : Reuss Voigt Hill
#
# Bulk Modulus (GPa) = 25.79852 41.30410 33.55131
# Shear Modulus (GPa) = -23.95875 -15.23902 -19.59888
#
# Velocity S-wave (km/s) = -3.29550 -2.62826 -2.98061
# Velocity P-wave (km/s) = 1.66918 3.08424 1.83390
#
# Compressibility (1/GPa) = 0.03876191
#
# Stress axis : x y z
#
# Youngs Moduli (GPa) = 57.18535 24.45709 68.78360
#
# Poissons Ratio (x) = -0.05541 0.36475
# Poissons Ratio (y) = -0.12955 0.96560
# Poissons Ratio (z) = 0.30325 0.34333
#
# Static dielectric constant tensor:
#      x y z
#    x 1.977980 0.000000 0.000000 
#    y 0.000000 1.828780 0.000000 
#    z 0.000000 0.000000 2.160670 
# 
# From -- ./inp_files/14449.got.cif
#   From: 2010.05.17/outbox.cif.g08.bks.cpg/sg24_8_cif.got.tgz:14449.got - 2010.06.04 00:33:39.
