data_PCOD9335210
_publ_section_title
;
Structure prediction by ZEFSAII (Michael W. Deem and Ramdas Pophale) SiO2 
 PCOD9335210
Probable space group: I 21 21 21
;
_chemical_formula_sum "Si O2"
_cell_formula_units_Z 48
_cell_length_a 29.772490
_cell_length_b 14.084648
_cell_length_c 5.530040
_cell_angle_alpha 90.000000
_cell_angle_beta 90.000000
_cell_angle_gamma 90.000000
_cell_volume 2318.939554
_symmetry_space_group_name_H-M "I 21 21 21"
_symmetry_group_IT_number 24
_symmetry_cell_setting 'orthorhombic'
loop_
_space_group_symop_operation_xyz
x,y,z
-x,1/2-y,z
x,-y,1/2-z
1/2-x,y,-z
1/2+x,1/2+y,1/2+z
1/2-x,-y,1/2+z
1/2+x,1/2-y,-z
-x,1/2+y,1/2-z
loop_
_atom_site_type_symbol
_atom_site_label
_atom_site_fract_x
_atom_site_fract_y
_atom_site_fract_z
Si Si1 0.382843 0.500000 0.250000
Si Si2 0.500000 0.750000 0.852549
Si Si3 0.884190 0.500000 0.750000
Si Si4 0.933456 0.861030 0.406460
Si Si5 0.580883 0.299990 0.292475
Si Si6 0.172220 0.000000 0.250000
Si Si7 0.146633 0.673276 0.041454
Si Si8 0.722360 0.297213 0.751538
O O1 0.417418 0.550381 0.435557
O O2 0.351164 0.418113 0.365824
O O3 0.517765 0.842640 0.706993
O O4 0.541813 0.717709 0.014745
O O5 0.914565 0.407777 0.775322
O O6 0.855692 0.492573 0.501169
O O7 0.928972 0.767906 0.570475
O O8 0.895652 0.854883 0.203998
O O9 0.629099 0.263772 0.390649
O O10 0.199981 0.098275 0.227819
O O11 0.186707 0.711733 0.206490
O O12 0.750000 0.298098 0.500000
O O13 0.750000 0.281152 0.000000
#
# Coordination Sequence:
#
# PCOD9335210 Si02
#       8
#     4   4   4   8   8   4   8   8
#     4  10  22  40  77  96 127 186 245 286 364 427
#     4  10  22  42  64  98 140 178 230 306 356 422
#     4  12  24  41  73 102 138 196 232 282 348 444
#     4  10  21  42  69  95 132 179 233 297 353 426
#     4  10  22  41  65  96 136 183 228 287 354 419
#     4  12  24  45  70 106 147 186 235 282 354 449
#     4  10  22  43  69  99 133 183 232 291 348 432
#     4  12  26  43  72 108 146 185 230 295 361 431
#
# _framework density 20.699117000000001
#
# number of rings (size 3 to 8) (size 9 to 14) (size 15 to 20)
#    0.000    1.333    1.667    3.500    7.000    0.000 
#    0.000   20.000    3.667    0.000    0.000    0.000 
#    0.000    0.000    0.000    0.000    0.000    0.000 
#
# Total GULP energy -133888.909111 kJ/mol
# GULP energy per Si atom -5578.704546 kJ/mol
# Density = 2.065201 g / cm^3
# Si number density = 20.699117 Si / 1000 Ang^3
#
#
#
# Elastic Constant Matrix: (Units=GPa)
#
#
# Indices 1 2 3 4 5 6 
#
# 1 73.0936 45.9453 35.0266 0.0000 0.0000 0.0000
# 2 45.9453 143.0833 33.0353 0.0000 0.0000 0.0000
# 3 35.0266 33.0353 97.6974 0.0003 0.0002 0.0000
# 4 0.0000 0.0000 0.0003 84.7197 0.0000 0.0000
# 5 0.0000 0.0000 0.0002 0.0000 101.3851 0.0000
# 6 0.0000 0.0000 0.0000 0.0000 0.0000 12.6980
#
#
#
# Elastic Compliance Matrix: (Units=1/GPa)
#
#
# Indices 1 2 3 4 5 6 
#
# 1 0.019335 -0.004998 -0.005242 0.000000 0.000000 0.000000
# 2 -0.004998 0.008873 -0.001208 0.000000 0.000000 0.000000
# 3 -0.005242 -0.001208 0.012524 0.000000 0.000000 0.000000
# 4 0.000000 0.000000 0.000000 0.011804 0.000000 0.000000
# 5 0.000000 0.000000 0.000000 0.000000 0.009863 0.000000
# 6 0.000000 0.000000 0.000000 0.000000 0.000000 0.078753
#
#
# Mechanical properties :
#
#
# Convention : Reuss Voigt Hill
#
# Bulk Modulus (GPa) = 56.07124 60.20984 58.14054
# Shear Modulus (GPa) = 29.41301 53.08504 41.24902
#
# Velocity S-wave (km/s) = 3.77368 5.06969 4.46891
# Velocity P-wave (km/s) = 6.79228 7.96368 7.40119
#
# Compressibility (1/GPa) = 0.01783446
#
# Stress axis : x y z
#
# Youngs Moduli (GPa) = 51.72012 112.70254 79.84954
#
# Poissons Ratio (x) = 0.56333 0.41856
# Poissons Ratio (y) = 0.25851 0.09648
# Poissons Ratio (z) = 0.27111 0.13618
#
# Static dielectric constant tensor:
#      x y z
#    x 1.749190 0.000000 0.000000 
#    y 0.000000 1.703160 0.000000 
#    z 0.000000 0.000000 1.861820 
# 
# From -- ./inp_files/7174.got.cif
#   From: 2010.05.17/outbox.cif.g08.bks.cpg/sg24_4_cif.got.tgz:7174.got - 2010.06.04 00:33:39.
