data_PCOD9335378
_publ_section_title
;
Structure prediction by ZEFSAII (Michael W. Deem and Ramdas Pophale) SiO2 
 PCOD9335378
Probable space group: I 21 21 21
;
_chemical_formula_sum "Si O2"
_cell_formula_units_Z 32
_cell_length_a 8.099548
_cell_length_b 25.531630
_cell_length_c 7.382715
_cell_angle_alpha 90.000000
_cell_angle_beta 90.000000
_cell_angle_gamma 90.000000
_cell_volume 1526.706058
_symmetry_space_group_name_H-M "I 21 21 21"
_symmetry_group_IT_number 24
_symmetry_cell_setting 'orthorhombic'
loop_
_space_group_symop_operation_xyz
x,y,z
-x,1/2-y,z
x,-y,1/2-z
1/2-x,y,-z
1/2+x,1/2+y,1/2+z
1/2-x,-y,1/2+z
1/2+x,1/2-y,-z
-x,1/2+y,1/2-z
loop_
_atom_site_type_symbol
_atom_site_label
_atom_site_fract_x
_atom_site_fract_y
_atom_site_fract_z
Si Si1 0.004049 0.131647 0.129357
Si Si2 0.557071 0.191792 0.538905
Si Si3 0.501664 0.500000 0.250000
Si Si4 0.750000 0.944545 0.500000
Si Si5 0.370057 0.886253 0.230513
O O1 0.177458 0.115027 0.218132
O O2 0.962255 0.182579 0.245501
O O3 0.037484 0.133333 0.914458
O O4 0.849256 0.091899 0.142531
O O5 0.500000 0.250000 0.489167
O O6 0.750000 0.183868 0.500000
O O7 0.443766 0.150533 0.426879
O O8 0.386215 0.519359 0.410905
O O9 0.595883 0.552567 0.194482
#
# Coordination Sequence:
#
# PCOD9335378 Si02
#       5
#     8   8   4   4   8
#     4  10  22  44  63  92 132 168 215 272 327 393
#     4  12  25  43  69  96 128 173 222 274 331 393
#     4  10  22  38  60  96 128 176 214 266 332 390
#     4  10  22  38  64  92 130 172 216 268 332 394
#     4  10  23  43  64  95 132 169 220 271 330 395
#
# _framework density 20.960156000000001
#
# number of rings (size 3 to 8) (size 9 to 14) (size 15 to 20)
#    0.000    1.500    0.000    5.250    5.250    2.000 
#   13.500    2.500    0.000    0.000    0.000    0.000 
#    0.000    0.000    0.000    0.000    0.000    0.000 
#
# Total GULP energy -89246.715759 kJ/mol
# GULP energy per Si atom -5577.919735 kJ/mol
# Density = 2.091245 g / cm^3
# Si number density = 20.960156 Si / 1000 Ang^3
#
#
#
# Elastic Constant Matrix: (Units=GPa)
#
#
# Indices 1 2 3 4 5 6 
#
# 1 105.2869 27.8150 18.3658 0.0023 0.0026 0.0008
# 2 27.8150 123.9979 46.7226 0.0046 0.0016 0.0011
# 3 18.3658 46.7226 93.2855 -0.0109 -0.0035 0.0005
# 4 0.0023 0.0046 -0.0109 35.5709 -0.0009 0.0029
# 5 0.0026 0.0016 -0.0035 -0.0009 18.4863 -0.0015
# 6 0.0008 0.0011 0.0005 0.0029 -0.0015 10.9115
#
#
#
# Elastic Compliance Matrix: (Units=1/GPa)
#
#
# Indices 1 2 3 4 5 6 
#
# 1 0.010181 -0.001884 -0.001061 -0.000001 -0.000001 0.000000
# 2 -0.001884 0.010289 -0.004783 -0.000003 -0.000002 -0.000001
# 3 -0.001061 -0.004783 0.013324 0.000005 0.000003 0.000000
# 4 -0.000001 -0.000003 0.000005 0.028113 0.000001 -0.000007
# 5 -0.000001 -0.000002 0.000003 0.000001 0.054094 0.000008
# 6 0.000000 -0.000001 0.000000 -0.000007 0.000008 0.091646
#
#
# Mechanical properties :
#
#
# Convention : Reuss Voigt Hill
#
# Bulk Modulus (GPa) = 54.52751 56.48633 55.50692
# Shear Modulus (GPa) = 21.81358 28.30488 25.05923
#
# Velocity S-wave (km/s) = 3.22951 3.67878 3.46145
# Velocity P-wave (km/s) = 6.32279 6.71212 6.52036
#
# Compressibility (1/GPa) = 0.01833937
#
# Stress axis : x y z
#
# Youngs Moduli (GPa) = 98.22600 97.18789 75.05266
#
# Poissons Ratio (x) = 0.18310 0.07961
# Poissons Ratio (y) = 0.18506 0.35894
# Poissons Ratio (z) = 0.10419 0.46481
#
# Static dielectric constant tensor:
#      x y z
#    x 1.812870 0.000000 -0.000010 
#    y 0.000000 1.750550 0.000000 
#    z -0.000010 0.000000 1.873160 
# 
# From -- ./inp_files/8964.got.cif
#   From: 2010.05.17/outbox.cif.g08.bks.cpg/sg24_5_cif.got.tgz:8964.got - 2010.06.04 00:33:39.
