data_PCOD9335517
_publ_section_title
;
Structure prediction by ZEFSAII (Michael W. Deem and Ramdas Pophale) SiO2 
 PCOD9335517
Probable space group: I 21 21 21
;
_chemical_formula_sum "Si O2"
_cell_formula_units_Z 40
_cell_length_a 8.381436
_cell_length_b 7.641151
_cell_length_c 26.480560
_cell_angle_alpha 90.000000
_cell_angle_beta 90.000000
_cell_angle_gamma 90.000000
_cell_volume 1695.916167
_symmetry_space_group_name_H-M "I 21 21 21"
_symmetry_group_IT_number 24
_symmetry_cell_setting 'orthorhombic'
loop_
_space_group_symop_operation_xyz
x,y,z
-x,1/2-y,z
x,-y,1/2-z
1/2-x,y,-z
1/2+x,1/2+y,1/2+z
1/2-x,-y,1/2+z
1/2+x,1/2-y,-z
-x,1/2+y,1/2-z
loop_
_atom_site_type_symbol
_atom_site_label
_atom_site_fract_x
_atom_site_fract_y
_atom_site_fract_z
Si Si1 0.504758 0.539764 0.107476
Si Si2 0.866243 0.385843 0.201821
Si Si3 0.617575 0.115445 0.207323
Si Si4 0.310389 0.438596 0.556528
Si Si5 0.639597 0.545810 0.904401
O O1 0.500000 0.750000 0.100901
O O2 0.478602 0.494042 0.166230
O O3 0.343170 0.469916 0.081550
O O4 0.678083 0.477550 0.088001
O O5 0.814925 0.500000 0.250000
O O6 0.738879 0.245957 0.181415
O O7 0.906270 0.506267 0.153877
O O8 0.000000 0.250000 0.219702
O O9 0.500000 0.250000 0.235204
O O10 0.698138 0.000000 0.250000
O O11 0.250000 0.405059 0.500000
O O12 0.488011 0.520079 0.562598
O O13 0.336896 0.251836 0.584199
#
# Coordination Sequence:
#
# PCOD9335517 Si02
#       5
#     8   8   8   8   8
#     4  10  22  40  68 100 141 182 236 295 361 421
#     4  12  27  44  69 102 146 196 243 298 370 436
#     4  12  24  40  66  98 143 190 242 290 357 433
#     4  10  23  40  72 104 136 181 243 303 357 429
#     4  10  23  40  65 102 144 174 238 295 363 421
#
# _framework density 23.586069999999999
#
# number of rings (size 3 to 8) (size 9 to 14) (size 15 to 20)
#    0.000    1.200    2.000    3.000   16.800    0.000 
#    0.000    0.000    0.000    8.400    0.000    0.000 
#    0.000    0.000    0.000    0.000    0.000    0.000 
#
# Total GULP energy -111435.106484 kJ/mol
# GULP energy per Si atom -5571.755324 kJ/mol
# Density = 2.353239 g / cm^3
# Si number density = 23.586070 Si / 1000 Ang^3
#
#
#
# Elastic Constant Matrix: (Units=GPa)
#
#
# Indices 1 2 3 4 5 6 
#
# 1 191.6734 21.1994 26.8497 0.0000 0.0000 0.0000
# 2 21.1994 54.9054 29.7740 0.0000 0.0000 0.0000
# 3 26.8497 29.7740 83.2009 0.0000 0.0000 0.0000
# 4 0.0000 0.0000 0.0000 -71.5620 0.0000 0.0000
# 5 0.0000 0.0000 0.0000 0.0000 29.0206 0.0000
# 6 0.0000 0.0000 0.0000 0.0000 0.0000 23.2210
#
#
#
# Elastic Compliance Matrix: (Units=1/GPa)
#
#
# Indices 1 2 3 4 5 6 
#
# 1 0.005556 -0.001455 -0.001272 0.000000 0.000000 0.000000
# 2 -0.001455 0.022980 -0.007754 0.000000 0.000000 0.000000
# 3 -0.001272 -0.007754 0.015204 0.000000 0.000000 0.000000
# 4 0.000000 0.000000 0.000000 -0.013974 0.000000 0.000000
# 5 0.000000 0.000000 0.000000 0.000000 0.034458 0.000000
# 6 0.000000 0.000000 0.000000 0.000000 0.000000 0.043064
#
#
# Mechanical properties :
#
#
# Convention : Reuss Voigt Hill
#
# Bulk Modulus (GPa) = 43.90272 53.93621 48.91947
# Shear Modulus (GPa) = 36.80662 12.93303 24.86983
#
# Velocity S-wave (km/s) = 3.95463 2.34419 3.25072
# Velocity P-wave (km/s) = 6.28541 5.49950 5.90554
#
# Compressibility (1/GPa) = 0.02277763
#
# Stress axis : x y z
#
# Youngs Moduli (GPa) = 179.97261 43.51641 65.77036
#
# Poissons Ratio (x) = 0.06334 0.08368
# Poissons Ratio (y) = 0.26194 0.50997
# Poissons Ratio (z) = 0.22897 0.33742
#
# Static dielectric constant tensor:
#      x y z
#    x 2.338900 0.000000 0.000000 
#    y 0.000000 1.885570 0.000000 
#    z 0.000000 0.000000 1.823160 
# 
# From -- ./inp_files/9504.got.cif
#   From: 2010.05.17/outbox.cif.g08.bks.cpg/sg24_5_cif.got.tgz:9504.got - 2010.06.04 00:33:39.
