data_PCOD9335778
_publ_section_title
;
Structure prediction by ZEFSAII (Michael W. Deem and Ramdas Pophale) SiO2 
 PCOD9335778
Probable space group: I 21 21 21
;
_chemical_formula_sum "Si O2"
_cell_formula_units_Z 56
_cell_length_a 15.341316
_cell_length_b 9.577967
_cell_length_c 18.070511
_cell_angle_alpha 90.000000
_cell_angle_beta 90.000000
_cell_angle_gamma 90.000000
_cell_volume 2655.255920
_symmetry_space_group_name_H-M "I 21 21 21"
_symmetry_group_IT_number 24
_symmetry_cell_setting 'orthorhombic'
loop_
_space_group_symop_operation_xyz
x,y,z
-x,1/2-y,z
x,-y,1/2-z
1/2-x,y,-z
1/2+x,1/2+y,1/2+z
1/2-x,-y,1/2+z
1/2+x,1/2-y,-z
-x,1/2+y,1/2-z
loop_
_atom_site_type_symbol
_atom_site_label
_atom_site_fract_x
_atom_site_fract_y
_atom_site_fract_z
Si Si1 0.777500 0.987644 0.419722
Si Si2 0.632204 0.526847 0.836956
Si Si3 0.225845 0.200187 0.861028
Si Si4 0.733879 0.762420 0.184379
Si Si5 0.056186 0.879291 0.809966
Si Si6 0.481246 0.591596 0.581282
Si Si7 0.540312 0.603647 0.412487
O O1 0.750000 0.046472 0.500000
O O2 0.748095 0.087908 0.352653
O O3 0.730777 0.839026 0.409232
O O4 0.880299 0.950907 0.417262
O O5 0.624664 0.500000 0.750000
O O6 0.691849 0.401994 0.869655
O O7 0.685499 0.669190 0.843541
O O8 0.538264 0.517359 0.872768
O O9 0.226520 0.248485 0.774293
O O10 0.140951 0.117419 0.888481
O O11 0.644434 0.688626 0.159725
O O12 0.000000 0.750000 0.780754
O O13 0.075653 0.000000 0.750000
O O14 0.004863 0.966057 0.872114
O O15 0.500000 0.750000 0.610258
O O16 0.519540 0.591615 0.498455
O O17 0.500000 0.750000 0.387089
#
# Coordination Sequence:
#
# PCOD9335778 Si02
#       7
#     8   8   8   8   8   8   8
#     4  12  27  44  67 104 142 182 235 292 360 430
#     4  10  22  45  72  95 132 176 228 290 349 429
#     4  11  22  45  73  98 136 183 234 285 356 428
#     4  11  25  45  68 102 140 180 233 293 364 425
#     4  12  25  43  68 101 143 183 233 293 359 434
#     4  11  24  45  68 101 136 183 241 289 357 438
#     4  11  24  43  70 101 138 183 238 290 354 434
#
# _framework density 21.090246
#
# number of rings (size 3 to 8) (size 9 to 14) (size 15 to 20)
#    0.000    0.857    4.286    3.000    4.000    2.857 
#    0.000    0.000    0.000    0.000    0.000    0.000 
#    0.000    0.000    0.000    0.000    0.000    0.000 
#
# Total GULP energy -156419.812529 kJ/mol
# GULP energy per Si atom -5586.421876 kJ/mol
# Density = 2.104224 g / cm^3
# Si number density = 21.090246 Si / 1000 Ang^3
#
#
#
# Elastic Constant Matrix: (Units=GPa)
#
#
# Indices 1 2 3 4 5 6 
#
# 1 93.3286 28.6763 1.0525 0.0000 0.0000 0.0000
# 2 28.6763 87.9487 18.0053 0.0000 0.0000 0.0000
# 3 1.0525 18.0053 15.0945 0.0000 0.0000 0.0000
# 4 0.0000 0.0000 0.0000 34.6115 0.0000 0.0000
# 5 0.0000 0.0000 0.0000 0.0000 26.2846 0.0000
# 6 0.0000 0.0000 0.0000 0.0000 0.0000 35.4368
#
#
#
# Elastic Compliance Matrix: (Units=1/GPa)
#
#
# Indices 1 2 3 4 5 6 
#
# 1 0.012204 -0.005034 0.005154 0.000000 0.000000 0.000000
# 2 -0.005034 0.017121 -0.020071 0.000000 0.000000 0.000000
# 3 0.005154 -0.020071 0.089832 0.000000 0.000000 0.000000
# 4 0.000000 0.000000 0.000000 0.028892 0.000000 0.000000
# 5 0.000000 0.000000 0.000000 0.000000 0.038045 0.000000
# 6 0.000000 0.000000 0.000000 0.000000 0.000000 0.028219
#
#
# Mechanical properties :
#
#
# Convention : Reuss Voigt Hill
#
# Bulk Modulus (GPa) = 12.61781 32.42667 22.52224
# Shear Modulus (GPa) = 17.81687 29.17575 23.49631
#
# Velocity S-wave (km/s) = 2.90968 3.72341 3.34141
# Velocity P-wave (km/s) = 4.15742 5.82182 5.05854
#
# Compressibility (1/GPa) = 0.07925304
#
# Stress axis : x y z
#
# Youngs Moduli (GPa) = 81.94356 58.40851 11.13195
#
# Poissons Ratio (x) = 0.29404 -0.05737
# Poissons Ratio (y) = 0.41252 0.22343
# Poissons Ratio (z) = -0.42234 1.17233
#
# Static dielectric constant tensor:
#      x y z
#    x 1.758850 0.000000 0.000000 
#    y 0.000000 1.703540 0.000000 
#    z 0.000000 0.000000 1.794000 
# 
# From -- ./inp_files/33759.got.cif
#   From: 2010.05.17/outbox.cif.g08.bks.cpg/sg24_17_cif.got.tgz:33759.got - 2010.06.04 00:33:39.
