data_PCOD9335320
_publ_section_title
;
Structure prediction by ZEFSAII (Michael W. Deem and Ramdas Pophale) SiO2 
 PCOD9335320
Probable space group: I 21 21 21
;
_chemical_formula_sum "Si O2"
_cell_formula_units_Z 64
_cell_length_a 20.205769
_cell_length_b 9.094225
_cell_length_c 19.453361
_cell_angle_alpha 90.000000
_cell_angle_beta 90.000000
_cell_angle_gamma 90.000000
_cell_volume 3574.668100
_symmetry_space_group_name_H-M "I 21 21 21"
_symmetry_group_IT_number 24
_symmetry_cell_setting 'orthorhombic'
loop_
_space_group_symop_operation_xyz
x,y,z
-x,1/2-y,z
x,-y,1/2-z
1/2-x,y,-z
1/2+x,1/2+y,1/2+z
1/2-x,-y,1/2+z
1/2+x,1/2-y,-z
-x,1/2+y,1/2-z
loop_
_atom_site_type_symbol
_atom_site_label
_atom_site_fract_x
_atom_site_fract_y
_atom_site_fract_z
Si Si1 0.284683 0.582656 0.684957
Si Si2 0.283006 0.940990 0.926322
Si Si3 0.535518 0.891868 0.983020
Si Si4 0.713793 0.731458 0.425039
Si Si5 0.425668 0.096891 0.912867
Si Si6 0.930713 0.810195 0.536016
Si Si7 0.135682 0.691617 0.133953
Si Si8 0.619267 0.338167 0.767066
O O1 0.252051 0.500000 0.750000
O O2 0.239402 0.639799 0.623964
O O3 0.338199 0.466048 0.657533
O O4 0.324028 0.726059 0.710299
O O5 0.301437 0.796445 0.883128
O O6 0.235674 0.070273 0.898000
O O7 0.354918 0.021007 0.929781
O O8 0.250000 0.902153 0.000000
O O9 0.500000 0.750000 0.015322
O O10 0.591229 0.829572 0.932579
O O11 0.481808 0.985334 0.938768
O O12 0.566312 0.014030 0.032937
O O13 0.750000 0.744282 0.500000
O O14 0.635455 0.747579 0.431099
O O15 0.427995 0.244283 0.958284
O O16 0.428070 0.137209 0.832458
O O17 0.000000 0.750000 0.565425
O O18 0.094554 0.768782 0.195516
O O19 0.645715 0.500000 0.750000
#
# Coordination Sequence:
#
# PCOD9335320 Si02
#       8
#     8   8   8   8   8   8   8   8
#     4  10  22  35  53  81 115 144 185 238 296 343
#     4  11  20  33  59  78 102 137 192 245 279 330
#     4  11  21  35  51  72 119 148 183 222 284 345
#     4  11  18  35  60  83 106 142 193 238 285 344
#     4  11  19  37  51  78 105 151 190 233 280 325
#     4  10  22  36  57  79 109 144 187 238 291 344
#     4  11  22  35  48  80 111 149 183 235 284 336
#     4  11  18  34  55  70 107 147 197 233 267 318
#
# _framework density 17.903759000000001
#
# number of rings (size 3 to 8) (size 9 to 14) (size 15 to 20)
#    0.000    1.250    6.250    1.500    0.000    1.500 
#    0.000   13.750    0.000    0.000    0.000    5.250 
#    0.000    0.000    0.000    0.000    0.000    0.000 
#
# Total GULP energy -178402.361953 kJ/mol
# GULP energy per Si atom -5575.073811 kJ/mol
# Density = 1.786301 g / cm^3
# Si number density = 17.903759 Si / 1000 Ang^3
#
#
#
# Elastic Constant Matrix: (Units=GPa)
#
#
# Indices 1 2 3 4 5 6 
#
# 1 79.5501 25.8203 -1.1707 0.0000 0.0000 0.0000
# 2 25.8203 122.3138 11.7564 0.0000 0.0000 0.0000
# 3 -1.1707 11.7564 20.0344 0.0000 0.0000 0.0000
# 4 0.0000 0.0000 0.0000 24.2858 0.0000 0.0000
# 5 0.0000 0.0000 0.0000 0.0000 10.8555 0.0000
# 6 0.0000 0.0000 0.0000 0.0000 0.0000 22.9025
#
#
#
# Elastic Compliance Matrix: (Units=1/GPa)
#
#
# Indices 1 2 3 4 5 6 
#
# 1 0.013625 -0.003129 0.002632 0.000000 0.000000 0.000000
# 2 -0.003129 0.009383 -0.005689 0.000000 0.000000 0.000000
# 3 0.002632 -0.005689 0.053406 0.000000 0.000000 0.000000
# 4 0.000000 0.000000 0.000000 0.041176 0.000000 0.000000
# 5 0.000000 0.000000 0.000000 0.000000 0.092119 0.000000
# 6 0.000000 0.000000 0.000000 0.000000 0.000000 0.043663
#
#
# Mechanical properties :
#
#
# Convention : Reuss Voigt Hill
#
# Bulk Modulus (GPa) = 15.61451 32.74559 24.18005
# Shear Modulus (GPa) = 17.41600 23.97492 20.69546
#
# Velocity S-wave (km/s) = 3.12229 3.66334 3.40358
# Velocity P-wave (km/s) = 4.66246 6.01855 5.38337
#
# Compressibility (1/GPa) = 0.06404299
#
# Stress axis : x y z
#
# Youngs Moduli (GPa) = 73.39376 106.57475 18.72439
#
# Poissons Ratio (x) = 0.33350 -0.04929
# Poissons Ratio (y) = 0.22967 0.10652
# Poissons Ratio (z) = -0.19321 0.60630
#
# Static dielectric constant tensor:
#      x y z
#    x 1.620520 0.000000 0.000000 
#    y 0.000000 1.648240 0.000000 
#    z 0.000000 0.000000 1.649510 
# 
# From -- ./inp_files/36020.got.cif
#   From: 2010.05.17/outbox.cif.g08.bks.cpg/sg24_19_cif.got.tgz:36020.got - 2010.06.04 00:33:39.
