data_PCOD9335272
_publ_section_title
;
Structure prediction by ZEFSAII (Michael W. Deem and Ramdas Pophale) SiO2 
 PCOD9335272
Probable space group: I 21 21 21
;
_chemical_formula_sum "Si O2"
_cell_formula_units_Z 56
_cell_length_a 5.074448
_cell_length_b 27.006041
_cell_length_c 17.566686
_cell_angle_alpha 90.000000
_cell_angle_beta 90.000000
_cell_angle_gamma 90.000000
_cell_volume 2407.351837
_symmetry_space_group_name_H-M "I 21 21 21"
_symmetry_group_IT_number 24
_symmetry_cell_setting 'orthorhombic'
loop_
_space_group_symop_operation_xyz
x,y,z
-x,1/2-y,z
x,-y,1/2-z
1/2-x,y,-z
1/2+x,1/2+y,1/2+z
1/2-x,-y,1/2+z
1/2+x,1/2-y,-z
-x,1/2+y,1/2-z
loop_
_atom_site_type_symbol
_atom_site_label
_atom_site_fract_x
_atom_site_fract_y
_atom_site_fract_z
Si Si1 0.340313 0.828229 0.861529
Si Si2 0.405658 0.692507 0.714267
Si Si3 0.000000 0.750000 0.785620
Si Si4 0.000000 0.750000 0.049967
Si Si5 0.128935 0.461035 0.078960
Si Si6 0.491486 0.911452 0.053911
Si Si7 0.399528 0.998203 0.340957
Si Si8 0.996938 0.847832 0.451738
O O1 0.471846 0.841873 0.780686
O O2 0.204706 0.775904 0.840995
O O3 0.565395 0.804881 0.913925
O O4 0.141290 0.864932 0.901762
O O5 0.500000 0.750000 0.717735
O O6 0.102489 0.703992 0.734972
O O7 0.476913 0.672756 0.632749
O O8 0.250000 0.763423 0.000000
O O9 0.381059 0.457579 0.134808
O O10 0.883788 0.488079 0.119578
O O11 0.022278 0.407170 0.056044
O O12 0.250000 0.482978 0.000000
O O13 0.523807 0.952359 0.120621
O O14 0.750000 0.904484 0.000000
O O15 0.250000 0.928706 0.000000
O O16 0.372404 0.000000 0.250000
O O17 0.250000 0.833904 0.500000
O O18 0.750000 0.829813 0.500000
#
# Coordination Sequence:
#
# PCOD9335272 Si02
#       8
#     8   8   4   4   8   8   8   8
#     4  11  25  43  68 100 137 191 240 292 357 434
#     4  10  24  44  71 100 146 194 239 303 369 432
#     4  10  21  44  72  97 138 194 242 286 365 422
#     4  12  25  42  70  99 138 188 250 294 343 432
#     4  11  23  47  75 103 146 193 241 306 372 448
#     4  12  29  47  69 105 147 186 235 303 378 433
#     4  12  26  46  76 109 142 194 248 305 376 454
#     4  11  26  44  73 112 141 190 250 301 374 443
#
# _framework density 23.262076
#
# number of rings (size 3 to 8) (size 9 to 14) (size 15 to 20)
#    0.000    0.857    2.143    5.571    8.000    4.000 
#    0.000    0.000    0.000    0.000    0.000    0.000 
#    0.000    0.000    0.000    0.000    0.000    0.000 
#
# Total GULP energy -156239.811756 kJ/mol
# GULP energy per Si atom -5579.993277 kJ/mol
# Density = 2.320913 g / cm^3
# Si number density = 23.262076 Si / 1000 Ang^3
#
#
#
# Elastic Constant Matrix: (Units=GPa)
#
#
# Indices 1 2 3 4 5 6 
#
# 1 126.5036 10.8362 62.9255 0.0000 0.0000 0.0000
# 2 10.8362 54.9404 43.0522 0.0000 0.0000 0.0000
# 3 62.9255 43.0522 204.2336 0.0000 0.0000 0.0000
# 4 0.0000 0.0000 0.0000 34.1312 0.0000 0.0000
# 5 0.0000 0.0000 0.0000 0.0000 32.9976 0.0000
# 6 0.0000 0.0000 0.0000 0.0000 0.0000 35.7053
#
#
#
# Elastic Compliance Matrix: (Units=1/GPa)
#
#
# Indices 1 2 3 4 5 6 
#
# 1 0.009347 0.000495 -0.002984 0.000000 0.000000 0.000000
# 2 0.000495 0.021829 -0.004754 0.000000 0.000000 0.000000
# 3 -0.002984 -0.004754 0.006818 0.000000 0.000000 0.000000
# 4 0.000000 0.000000 0.000000 0.029299 0.000000 0.000000
# 5 0.000000 0.000000 0.000000 0.000000 0.030305 0.000000
# 6 0.000000 0.000000 0.000000 0.000000 0.000000 0.028007
#
#
# Mechanical properties :
#
#
# Convention : Reuss Voigt Hill
#
# Bulk Modulus (GPa) = 42.53964 68.81171 55.67568
# Shear Modulus (GPa) = 33.80032 38.49107 36.14569
#
# Velocity S-wave (km/s) = 3.81599 4.07218 3.94616
# Velocity P-wave (km/s) = 6.14349 7.19413 6.68947
#
# Compressibility (1/GPa) = 0.02350748
#
# Stress axis : x y z
#
# Youngs Moduli (GPa) = 106.98727 45.80999 146.67175
#
# Poissons Ratio (x) = -0.02267 0.43769
# Poissons Ratio (y) = -0.05295 0.69729
# Poissons Ratio (z) = 0.31927 0.21778
#
# Static dielectric constant tensor:
#      x y z
#    x 2.463270 0.000000 0.000000 
#    y 0.000000 1.892450 0.000000 
#    z 0.000000 0.000000 2.015180 
# 
# From -- ./inp_files/24118.got.cif
#   From: 2010.05.17/outbox.cif.g08.bks.cpg/sg24_13_cif.got.tgz:24118.got - 2010.06.04 00:33:39.
