data_PCOD9335407
_publ_section_title
;
Structure prediction by ZEFSAII (Michael W. Deem and Ramdas Pophale) SiO2 
 PCOD9335407
Probable space group: I 21 21 21
;
_chemical_formula_sum "Si O2"
_cell_formula_units_Z 48
_cell_length_a 6.676211
_cell_length_b 23.994119
_cell_length_c 14.798150
_cell_angle_alpha 90.000000
_cell_angle_beta 90.000000
_cell_angle_gamma 90.000000
_cell_volume 2370.512707
_symmetry_space_group_name_H-M "I 21 21 21"
_symmetry_group_IT_number 24
_symmetry_cell_setting 'orthorhombic'
loop_
_space_group_symop_operation_xyz
x,y,z
-x,1/2-y,z
x,-y,1/2-z
1/2-x,y,-z
1/2+x,1/2+y,1/2+z
1/2-x,-y,1/2+z
1/2+x,1/2-y,-z
-x,1/2+y,1/2-z
loop_
_atom_site_type_symbol
_atom_site_label
_atom_site_fract_x
_atom_site_fract_y
_atom_site_fract_z
Si Si1 0.435447 0.494277 0.555054
Si Si2 0.000000 0.250000 0.766626
Si Si3 0.328800 0.707956 0.598601
Si Si4 0.824110 0.057026 0.714589
Si Si5 0.682497 0.358727 0.309451
Si Si6 0.517494 0.597782 0.653776
Si Si7 0.750000 0.407975 0.500000
O O1 0.250000 0.520172 0.500000
O O2 0.326097 0.459845 0.634323
O O3 0.573763 0.543091 0.596236
O O4 0.561553 0.450251 0.497294
O O5 0.852791 0.213870 0.830925
O O6 0.873722 0.294536 0.708768
O O7 0.500000 0.750000 0.630003
O O8 0.250000 0.724013 0.500000
O O9 0.440181 0.648797 0.593759
O O10 0.679035 0.078282 0.792799
O O11 0.982164 0.104168 0.693056
O O12 0.926145 0.000000 0.750000
O O13 0.769659 0.371700 0.408944
O O14 0.823375 0.380846 0.227750
#
# Coordination Sequence:
#
# PCOD9335407 Si02
#       7
#     8   4   8   8   8   8   4
#     4  11  23  42  64 100 138 177 219 279 348 410
#     4  12  26  46  70  96 134 188 228 280 342 392
#     4  12  24  44  68  99 134 171 223 279 330 405
#     4  10  22  38  66  93 130 177 216 270 335 406
#     4  12  25  44  69  98 134 182 233 283 339 401
#     4  11  24  41  67  98 136 177 222 269 347 417
#     4  12  26  42  68 102 138 174 234 292 332 406
#
# _framework density 20.248784000000001
#
# number of rings (size 3 to 8) (size 9 to 14) (size 15 to 20)
#    0.000    0.667    7.500    0.500    2.333    0.000 
#    4.500    3.333    0.000    0.000    0.000    0.000 
#    0.000    0.000    0.000    0.000    0.000    0.000 
#
# Total GULP energy -134006.759303 kJ/mol
# GULP energy per Si atom -5583.614971 kJ/mol
# Density = 2.020270 g / cm^3
# Si number density = 20.248784 Si / 1000 Ang^3
#
#
#
# Elastic Constant Matrix: (Units=GPa)
#
#
# Indices 1 2 3 4 5 6 
#
# 1 44.8545 18.4462 12.6154 0.0000 0.0000 0.0000
# 2 18.4462 95.6968 23.3505 0.0000 0.0000 0.0000
# 3 12.6154 23.3505 61.4853 0.0000 0.0000 0.0000
# 4 0.0000 0.0000 0.0000 28.9367 0.0000 0.0000
# 5 0.0000 0.0000 0.0000 0.0000 24.4996 0.0000
# 6 0.0000 0.0000 0.0000 0.0000 0.0000 31.6438
#
#
#
# Elastic Compliance Matrix: (Units=1/GPa)
#
#
# Indices 1 2 3 4 5 6 
#
# 1 0.024926 -0.003920 -0.003626 0.000000 0.000000 0.000000
# 2 -0.003920 0.012133 -0.003804 0.000000 0.000000 0.000000
# 3 -0.003626 -0.003804 0.018452 0.000000 0.000000 0.000000
# 4 0.000000 0.000000 0.000000 0.034558 0.000000 0.000000
# 5 0.000000 0.000000 0.000000 0.000000 0.040817 0.000000
# 6 0.000000 0.000000 0.000000 0.000000 0.000000 0.031602
#
#
# Mechanical properties :
#
#
# Convention : Reuss Voigt Hill
#
# Bulk Modulus (GPa) = 30.47527 34.54009 32.50768
# Shear Modulus (GPa) = 25.49394 26.85766 26.17580
#
# Velocity S-wave (km/s) = 3.55214 3.64591 3.59933
# Velocity P-wave (km/s) = 5.64860 5.90071 5.77603
#
# Compressibility (1/GPa) = 0.03281349
#
# Stress axis : x y z
#
# Youngs Moduli (GPa) = 40.11866 82.41721 54.19333
#
# Poissons Ratio (x) = 0.32308 0.19648
# Poissons Ratio (y) = 0.15727 0.20613
# Poissons Ratio (z) = 0.14545 0.31349
#
# Static dielectric constant tensor:
#      x y z
#    x 1.700620 0.000000 0.000000 
#    y 0.000000 1.742760 0.000000 
#    z 0.000000 0.000000 1.744020 
# 
# From -- ./inp_files/23934.got.cif
#   From: 2010.05.17/outbox.cif.g08.bks.cpg/sg24_12_cif.got.tgz:23934.got - 2010.06.04 00:33:39.
