data_PCOD9335633
_publ_section_title
;
Structure prediction by ZEFSAII (Michael W. Deem and Ramdas Pophale) SiO2 
 PCOD9335633
Probable space group: I 21 21 21
;
_chemical_formula_sum "Si O2"
_cell_formula_units_Z 32
_cell_length_a 16.059767
_cell_length_b 15.834570
_cell_length_c 5.119323
_cell_angle_alpha 90.000000
_cell_angle_beta 90.000000
_cell_angle_gamma 90.000000
_cell_volume 1301.841304
_symmetry_space_group_name_H-M "I 21 21 21"
_symmetry_group_IT_number 24
_symmetry_cell_setting 'orthorhombic'
loop_
_space_group_symop_operation_xyz
x,y,z
-x,1/2-y,z
x,-y,1/2-z
1/2-x,y,-z
1/2+x,1/2+y,1/2+z
1/2-x,-y,1/2+z
1/2+x,1/2-y,-z
-x,1/2+y,1/2-z
loop_
_atom_site_type_symbol
_atom_site_label
_atom_site_fract_x
_atom_site_fract_y
_atom_site_fract_z
Si Si1 0.750000 0.447455 0.000000
Si Si2 0.345104 0.669864 0.085048
Si Si3 0.094363 0.854304 0.759158
Si Si4 0.193673 0.500000 0.750000
Si Si5 0.506618 0.851322 0.737370
O O1 0.784064 0.500000 0.250000
O O2 0.678327 0.393868 0.143297
O O3 0.386493 0.754111 0.204664
O O4 0.348995 0.590449 0.278427
O O5 0.250000 0.690792 0.000000
O O6 0.400556 0.636317 0.843167
O O7 0.025531 0.877464 0.543885
O O8 0.057954 0.882597 0.038522
O O9 0.250000 0.487228 0.500000
O O10 0.500000 0.750000 0.733318
#
# Coordination Sequence:
#
# PCOD9335633 Si02
#       5
#     4   8   8   4   8
#     4  12  28  48  72 106 142 180 248 298 348 432
#     4  10  24  45  77 106 143 192 238 287 360 429
#     4  11  25  44  73 100 140 186 232 288 363 414
#     4  10  24  42  66 110 146 174 236 296 336 426
#     4  10  22  42  68 107 138 176 237 289 336 432
#
# _framework density 24.580565
#
# number of rings (size 3 to 8) (size 9 to 14) (size 15 to 20)
#    0.000    1.500    0.000    3.750   10.500    8.000 
#    6.750    0.000    0.000    0.000    0.000    0.000 
#    0.000    0.000    0.000    0.000    0.000    0.000 
#
# Total GULP energy -89410.192225 kJ/mol
# GULP energy per Si atom -5588.137014 kJ/mol
# Density = 2.452462 g / cm^3
# Si number density = 24.580565 Si / 1000 Ang^3
#
#
#
# Elastic Constant Matrix: (Units=GPa)
#
#
# Indices 1 2 3 4 5 6 
#
# 1 153.2208 18.8497 42.2254 0.0000 0.0000 0.0000
# 2 18.8497 67.1763 34.7291 0.0000 0.0000 0.0000
# 3 42.2254 34.7291 159.1305 0.0000 0.0000 0.0000
# 4 0.0000 0.0000 0.0000 6.6617 0.0000 0.0000
# 5 0.0000 0.0000 0.0000 0.0000 39.6216 0.0000
# 6 0.0000 0.0000 0.0000 0.0000 0.0000 -11.8083
#
#
#
# Elastic Compliance Matrix: (Units=1/GPa)
#
#
# Indices 1 2 3 4 5 6 
#
# 1 0.007120 -0.001151 -0.001638 0.000000 0.000000 0.000000
# 2 -0.001151 0.016965 -0.003397 0.000000 0.000000 0.000000
# 3 -0.001638 -0.003397 0.007460 0.000000 0.000000 0.000000
# 4 0.000000 0.000000 0.000000 0.150113 0.000000 0.000000
# 5 0.000000 0.000000 0.000000 0.000000 0.025239 0.000000
# 6 0.000000 0.000000 0.000000 0.000000 0.000000 -0.084686
#
#
# Mechanical properties :
#
#
# Convention : Reuss Voigt Hill
#
# Bulk Modulus (GPa) = 52.15678 63.45957 57.80818
# Shear Modulus (GPa) = 35.46752 25.80987 30.63870
#
# Velocity S-wave (km/s) = 3.80269 3.24390 3.53435
# Velocity P-wave (km/s) = 6.36752 6.31693 6.34227
#
# Compressibility (1/GPa) = 0.01917296
#
# Stress axis : x y z
#
# Youngs Moduli (GPa) = 140.45874 58.94332 134.04453
#
# Poissons Ratio (x) = 0.06784 0.21956
# Poissons Ratio (y) = 0.16166 0.45538
# Poissons Ratio (z) = 0.23007 0.20024
#
# Static dielectric constant tensor:
#      x y z
#    x 2.037450 0.000000 0.000000 
#    y 0.000000 1.988000 0.000000 
#    z 0.000000 0.000000 1.937770 
# 
# From -- ./inp_files/3219.got.cif
#   From: 2010.05.17/outbox.cif.g08.bks.cpg/sg24_2_cif.got.tgz:3219.got - 2010.06.04 00:33:39.
