data_PCOD9335143
_publ_section_title
;
Structure prediction by ZEFSAII (Michael W. Deem and Ramdas Pophale) SiO2 
 PCOD9335143
Probable space group: I 21 21 21
;
_chemical_formula_sum "Si O2"
_cell_formula_units_Z 64
_cell_length_a 11.872188
_cell_length_b 14.479926
_cell_length_c 16.044020
_cell_angle_alpha 90.000000
_cell_angle_beta 90.000000
_cell_angle_gamma 90.000000
_cell_volume 2758.101867
_symmetry_space_group_name_H-M "I 21 21 21"
_symmetry_group_IT_number 24
_symmetry_cell_setting 'orthorhombic'
loop_
_space_group_symop_operation_xyz
x,y,z
-x,1/2-y,z
x,-y,1/2-z
1/2-x,y,-z
1/2+x,1/2+y,1/2+z
1/2-x,-y,1/2+z
1/2+x,1/2-y,-z
-x,1/2+y,1/2-z
loop_
_atom_site_type_symbol
_atom_site_label
_atom_site_fract_x
_atom_site_fract_y
_atom_site_fract_z
Si Si1 0.878415 0.772837 0.874014
Si Si2 0.899629 0.962418 0.119900
Si Si3 0.353308 0.934439 0.824469
Si Si4 0.264630 0.624434 0.401392
Si Si5 0.128942 0.737337 0.135882
Si Si6 0.821803 0.534434 0.576767
Si Si7 0.876832 0.712286 0.685150
Si Si8 0.070108 0.465007 0.570522
O O1 0.752143 0.755800 0.908657
O O2 0.878955 0.719771 0.785399
O O3 0.894484 0.883510 0.867704
O O4 0.000000 0.750000 0.916278
O O5 0.866401 0.868220 0.167223
O O6 0.029798 0.973588 0.140439
O O7 0.833278 0.057004 0.131978
O O8 0.883538 0.940077 0.021545
O O9 0.368104 0.826792 0.804337
O O10 0.320966 0.000000 0.750000
O O11 0.257855 0.952724 0.891394
O O12 0.250000 0.645762 0.500000
O O13 0.285558 0.715389 0.349184
O O14 0.373589 0.558702 0.398511
O O15 0.000000 0.750000 0.099047
O O16 0.750000 0.576528 0.500000
O O17 0.849379 0.613513 0.644826
O O18 0.939550 0.485515 0.557560
O O19 0.000000 0.750000 0.657200
#
# Coordination Sequence:
#
# PCOD9335143 Si02
#       8
#     8   8   8   8   8   8   8   8
#     4  11  24  41  63 101 138 184 236 292 368 433
#     4  10  22  43  68 101 133 179 231 296 365 431
#     4  11  24  43  66  98 142 188 230 295 364 440
#     4  10  21  41  66  94 127 170 232 289 350 414
#     4  10  22  42  65  97 140 183 231 293 362 437
#     4  12  24  45  71 100 145 193 246 299 371 449
#     4  11  24  43  65  98 138 185 244 298 355 436
#     4  11  22  42  69  97 137 180 235 296 362 434
#
# _framework density 23.204364000000002
#
# number of rings (size 3 to 8) (size 9 to 14) (size 15 to 20)
#    0.000    1.250    3.750    1.875    0.000    5.000 
#    2.250    0.625    0.000    0.000    0.000    0.000 
#    0.000    0.000    0.000    0.000    0.000    0.000 
#
# Total GULP energy -178450.705513 kJ/mol
# GULP energy per Si atom -5576.584547 kJ/mol
# Density = 2.315155 g / cm^3
# Si number density = 23.204364 Si / 1000 Ang^3
#
#
#
# Elastic Constant Matrix: (Units=GPa)
#
#
# Indices 1 2 3 4 5 6 
#
# 1 190.9596 27.5838 9.0469 0.0000 0.0000 0.0000
# 2 27.5838 105.7671 27.5114 0.0000 0.0000 0.0000
# 3 9.0469 27.5114 60.5782 0.0000 0.0000 0.0000
# 4 0.0000 0.0000 0.0000 20.8926 0.0000 0.0000
# 5 0.0000 0.0000 0.0000 0.0000 7.2820 0.0000
# 6 0.0000 0.0000 0.0000 0.0000 0.0000 21.7907
#
#
#
# Elastic Compliance Matrix: (Units=1/GPa)
#
#
# Indices 1 2 3 4 5 6 
#
# 1 0.005444 -0.001370 -0.000191 0.000000 0.000000 0.000000
# 2 -0.001370 0.011066 -0.004821 0.000000 0.000000 0.000000
# 3 -0.000191 -0.004821 0.018726 0.000000 0.000000 0.000000
# 4 0.000000 0.000000 0.000000 0.047864 0.000000 0.000000
# 5 0.000000 0.000000 0.000000 0.000000 0.137325 0.000000
# 6 0.000000 0.000000 0.000000 0.000000 0.000000 0.045891
#
#
# Mechanical properties :
#
#
# Convention : Reuss Voigt Hill
#
# Bulk Modulus (GPa) = 44.50069 53.95435 49.22752
# Shear Modulus (GPa) = 17.44779 29.53724 23.49252
#
# Velocity S-wave (km/s) = 2.74509 3.57167 3.18530
# Velocity P-wave (km/s) = 5.40987 6.34912 5.89822
#
# Compressibility (1/GPa) = 0.02247156
#
# Stress axis : x y z
#
# Youngs Moduli (GPa) = 183.70024 90.36645 53.40309
#
# Poissons Ratio (x) = 0.12381 0.01019
# Poissons Ratio (y) = 0.25168 0.25746
# Poissons Ratio (z) = 0.03504 0.43566
#
# Static dielectric constant tensor:
#      x y z
#    x 1.916790 0.000000 0.000000 
#    y 0.000000 1.870510 0.000000 
#    z 0.000000 0.000000 1.931360 
# 
# From -- ./inp_files/30362.got.cif
#   From: 2010.05.17/outbox.cif.g08.bks.cpg/sg24_16_cif.got.tgz:30362.got - 2010.06.04 00:33:39.
