data_PCOD9335284
_publ_section_title
;
Structure prediction by ZEFSAII (Michael W. Deem and Ramdas Pophale) SiO2 
 PCOD9335284
Probable space group: I 21 21 21
;
_chemical_formula_sum "Si O2"
_cell_formula_units_Z 64
_cell_length_a 23.538315
_cell_length_b 13.674445
_cell_length_c 9.607327
_cell_angle_alpha 90.000000
_cell_angle_beta 90.000000
_cell_angle_gamma 90.000000
_cell_volume 3092.342947
_symmetry_space_group_name_H-M "I 21 21 21"
_symmetry_group_IT_number 24
_symmetry_cell_setting 'orthorhombic'
loop_
_space_group_symop_operation_xyz
x,y,z
-x,1/2-y,z
x,-y,1/2-z
1/2-x,y,-z
1/2+x,1/2+y,1/2+z
1/2-x,-y,1/2+z
1/2+x,1/2-y,-z
-x,1/2+y,1/2-z
loop_
_atom_site_type_symbol
_atom_site_label
_atom_site_fract_x
_atom_site_fract_y
_atom_site_fract_z
Si Si1 0.936928 0.782451 0.215687
Si Si2 0.289138 0.418049 0.869232
Si Si3 0.460173 0.439135 0.516714
Si Si4 0.899451 0.784514 0.810616
Si Si5 0.092044 0.350785 0.000714
Si Si6 0.588216 0.621312 0.987008
Si Si7 0.706310 0.443617 0.606825
Si Si8 0.236338 0.729263 0.848227
O O1 0.930396 0.780257 0.378780
O O2 0.900307 0.705315 0.130502
O O3 0.000000 0.750000 0.175066
O O4 0.931339 0.891348 0.154634
O O5 0.296662 0.500000 0.750000
O O6 0.346882 0.384153 0.941977
O O7 0.262278 0.328330 0.781952
O O8 0.250000 0.448584 0.000000
O O9 0.433051 0.369376 0.396207
O O10 0.443929 0.550055 0.492714
O O11 0.528361 0.432175 0.535248
O O12 0.907353 0.801363 0.648435
O O13 0.831771 0.779214 0.837646
O O14 0.920571 0.681476 0.871068
O O15 0.646242 0.562431 0.974214
O O16 0.698141 0.500000 0.750000
O O17 0.750000 0.493468 0.500000
O O18 0.736138 0.338298 0.643200
O O19 0.250000 0.684519 0.000000
#
# Coordination Sequence:
#
# PCOD9335284 Si02
#       8
#     8   8   8   8   8   8   8   8
#     4   9  20  38  63  92 125 171 221 265 328 392
#     4  12  26  39  60  99 139 182 225 268 323 402
#     4  10  23  40  66  92 130 181 220 269 329 404
#     4  11  22  41  67  94 128 177 222 263 335 412
#     4  12  24  38  60  99 138 162 219 278 330 383
#     4  10  21  46  70  91 125 181 225 268 337 409
#     4  11  24  45  72 100 130 171 226 285 343 398
#     4  11  23  44  72  93 134 183 224 272 343 398
#
# _framework density 20.696280000000002
#
# number of rings (size 3 to 8) (size 9 to 14) (size 15 to 20)
#    0.000    1.250    3.750    3.750    5.250    3.500 
#    2.250    1.250    0.000    0.000    0.000    0.000 
#    0.000    0.000    0.000    0.000    0.000    0.000 
#
# Total GULP energy -178598.514034 kJ/mol
# GULP energy per Si atom -5581.203564 kJ/mol
# Density = 2.064917 g / cm^3
# Si number density = 20.696280 Si / 1000 Ang^3
#
#
#
# Elastic Constant Matrix: (Units=GPa)
#
#
# Indices 1 2 3 4 5 6 
#
# 1 99.4199 12.9466 10.9546 0.0000 0.0000 0.0000
# 2 12.9466 29.7355 13.5833 0.0000 0.0000 0.0000
# 3 10.9546 13.5833 138.1023 0.0000 0.0000 0.0000
# 4 0.0000 0.0000 0.0000 148.0933 0.0000 0.0000
# 5 0.0000 0.0000 0.0000 0.0000 24.6411 0.0000
# 6 0.0000 0.0000 0.0000 0.0000 0.0000 14.6636
#
#
#
# Elastic Compliance Matrix: (Units=1/GPa)
#
#
# Indices 1 2 3 4 5 6 
#
# 1 0.010685 -0.004466 -0.000408 0.000000 0.000000 0.000000
# 2 -0.004466 0.037078 -0.003293 0.000000 0.000000 0.000000
# 3 -0.000408 -0.003293 0.007597 0.000000 0.000000 0.000000
# 4 0.000000 0.000000 0.000000 0.006753 0.000000 0.000000
# 5 0.000000 0.000000 0.000000 0.000000 0.040583 0.000000
# 6 0.000000 0.000000 0.000000 0.000000 0.000000 0.068196
#
#
# Mechanical properties :
#
#
# Convention : Reuss Voigt Hill
#
# Bulk Modulus (GPa) = 25.62319 38.02520 31.82420
# Shear Modulus (GPa) = 24.97083 52.79781 38.88432
#
# Velocity S-wave (km/s) = 3.47729 5.05630 4.33922
# Velocity P-wave (km/s) = 5.34130 7.24576 6.36516
#
# Compressibility (1/GPa) = 0.03902714
#
# Stress axis : x y z
#
# Youngs Moduli (GPa) = 93.59046 26.97004 131.62646
#
# Poissons Ratio (x) = 0.12044 0.05375
# Poissons Ratio (y) = 0.41793 0.43340
# Poissons Ratio (z) = 0.03822 0.08880
#
# Static dielectric constant tensor:
#      x y z
#    x 1.503230 0.000000 0.000000 
#    y 0.000000 1.764130 0.000000 
#    z 0.000000 0.000000 1.726130 
# 
# From -- ./inp_files/16060.got.cif
#   From: 2010.05.17/outbox.cif.g08.bks.cpg/sg24_9_cif.got.tgz:16060.got - 2010.06.04 00:33:39.
