data_PCOD9335806
_publ_section_title
;
Structure prediction by ZEFSAII (Michael W. Deem and Ramdas Pophale) SiO2 
 PCOD9335806
Probable space group: I 21 21 21
;
_chemical_formula_sum "Si O2"
_cell_formula_units_Z 28
_cell_length_a 8.769954
_cell_length_b 8.353341
_cell_length_c 17.368454
_cell_angle_alpha 90.000000
_cell_angle_beta 90.000000
_cell_angle_gamma 90.000000
_cell_volume 1272.385434
_symmetry_space_group_name_H-M "I 21 21 21"
_symmetry_group_IT_number 24
_symmetry_cell_setting 'orthorhombic'
loop_
_space_group_symop_operation_xyz
x,y,z
-x,1/2-y,z
x,-y,1/2-z
1/2-x,y,-z
1/2+x,1/2+y,1/2+z
1/2-x,-y,1/2+z
1/2+x,1/2-y,-z
-x,1/2+y,1/2-z
loop_
_atom_site_type_symbol
_atom_site_label
_atom_site_fract_x
_atom_site_fract_y
_atom_site_fract_z
Si Si1 0.000000 0.250000 0.188575
Si Si2 0.232146 0.605710 0.412991
Si Si3 0.035523 0.936027 0.886754
Si Si4 0.250000 0.923272 0.500000
Si Si5 0.269727 0.000000 0.750000
O O1 0.081969 0.394162 0.139123
O O2 0.873064 0.342539 0.237674
O O3 0.250000 0.533463 0.500000
O O4 0.384503 0.542580 0.373143
O O5 0.228863 0.795494 0.431738
O O6 0.160829 0.972969 0.822790
O O7 0.000000 0.750000 0.883695
O O8 0.107117 0.977050 0.970806
#
# Coordination Sequence:
#
# PCOD9335806 Si02
#       5
#     4   8   8   4   4
#     4  12  26  46  72 104 144 186 252 300 372 438
#     4  10  23  46  79  99 136 190 246 299 367 450
#     4  12  28  45  75 109 149 188 246 307 371 435
#     4  10  22  46  74 106 130 194 244 288 366 442
#     4  12  30  46  70 104 148 200 244 300 376 436
#
# _framework density 22.005908999999999
#
# number of rings (size 3 to 8) (size 9 to 14) (size 15 to 20)
#    0.857    0.000    2.857    2.571   10.000    0.000 
#    2.571    0.000    0.000    0.000    0.000    0.000 
#    0.000    0.000    0.000    0.000    0.000    0.000 
#
# Total GULP energy -77993.316394 kJ/mol
# GULP energy per Si atom -5570.951171 kJ/mol
# Density = 2.195582 g / cm^3
# Si number density = 22.005909 Si / 1000 Ang^3
#
#
#
# Elastic Constant Matrix: (Units=GPa)
#
#
# Indices 1 2 3 4 5 6 
#
# 1 176.6135 52.2883 57.5790 0.0000 0.0000 0.0000
# 2 52.2883 70.6134 37.9578 0.0000 0.0000 0.0000
# 3 57.5790 37.9578 67.5998 0.0000 0.0000 0.0000
# 4 0.0000 0.0000 0.0000 5.1963 0.0000 0.0000
# 5 0.0000 0.0000 0.0000 0.0000 49.4910 0.0000
# 6 0.0000 0.0000 0.0000 0.0000 0.0000 49.1798
#
#
#
# Elastic Compliance Matrix: (Units=1/GPa)
#
#
# Indices 1 2 3 4 5 6 
#
# 1 0.008369 -0.003388 -0.005226 0.000000 0.000000 0.000000
# 2 -0.003388 0.021656 -0.009274 0.000000 0.000000 0.000000
# 3 -0.005226 -0.009274 0.024452 0.000000 0.000000 0.000000
# 4 0.000000 0.000000 0.000000 0.192446 0.000000 0.000000
# 5 0.000000 0.000000 0.000000 0.000000 0.020206 0.000000
# 6 0.000000 0.000000 0.000000 0.000000 0.000000 0.020334
#
#
# Mechanical properties :
#
#
# Convention : Reuss Voigt Hill
#
# Bulk Modulus (GPa) = 53.47526 67.83079 60.65302
# Shear Modulus (GPa) = 15.17588 31.90686 23.54137
#
# Velocity S-wave (km/s) = 2.62893 3.81192 3.27429
# Velocity P-wave (km/s) = 5.79380 7.08979 6.47430
#
# Compressibility (1/GPa) = 0.01870024
#
# Stress axis : x y z
#
# Youngs Moduli (GPa) = 119.49079 46.17764 40.89686
#
# Poissons Ratio (x) = 0.15644 0.21373
# Poissons Ratio (y) = 0.40481 0.37928
# Poissons Ratio (z) = 0.62446 0.42826
#
# Static dielectric constant tensor:
#      x y z
#    x 1.866780 0.000000 0.000000 
#    y 0.000000 1.836680 0.000000 
#    z 0.000000 0.000000 1.942750 
# 
# From -- ./inp_files/8836.got.cif
#   From: 2010.05.17/outbox.cif.g08.bks.cpg/sg24_5_cif.got.tgz:8836.got - 2010.06.04 00:33:39.
