data_PCOD9335049
_publ_section_title
;
Structure prediction by ZEFSAII (Michael W. Deem and Ramdas Pophale) SiO2 
 PCOD9335049
Probable space group: I 21 21 21
;
_chemical_formula_sum "Si O2"
_cell_formula_units_Z 60
_cell_length_a 26.988390
_cell_length_b 7.702773
_cell_length_c 11.766060
_cell_angle_alpha 90.000000
_cell_angle_beta 90.000000
_cell_angle_gamma 90.000000
_cell_volume 2445.992581
_symmetry_space_group_name_H-M "I 21 21 21"
_symmetry_group_IT_number 24
_symmetry_cell_setting 'orthorhombic'
loop_
_space_group_symop_operation_xyz
x,y,z
-x,1/2-y,z
x,-y,1/2-z
1/2-x,y,-z
1/2+x,1/2+y,1/2+z
1/2-x,-y,1/2+z
1/2+x,1/2-y,-z
-x,1/2+y,1/2-z
loop_
_atom_site_type_symbol
_atom_site_label
_atom_site_fract_x
_atom_site_fract_y
_atom_site_fract_z
Si Si1 0.170364 0.314273 0.271304
Si Si2 0.870738 0.295243 0.713746
Si Si3 0.449947 0.153280 0.470871
Si Si4 0.500000 0.250000 0.917905
Si Si5 0.304601 0.222665 0.478650
Si Si6 0.073764 0.825835 0.230364
Si Si7 0.697588 0.321148 0.954562
Si Si8 0.089165 0.749827 0.548946
O O1 0.193825 0.500000 0.250000
O O2 0.167956 0.277146 0.405439
O O3 0.112440 0.319162 0.236678
O O4 0.197795 0.187889 0.182312
O O5 0.865532 0.500000 0.750000
O O6 0.907485 0.272683 0.608491
O O7 0.821293 0.234000 0.649625
O O8 0.896147 0.207897 0.822215
O O9 0.500000 0.250000 0.433158
O O10 0.443923 0.195687 0.603319
O O11 0.437165 0.944634 0.456416
O O12 0.531950 0.353762 0.824595
O O13 0.542583 0.151276 0.990736
O O14 0.250000 0.289774 0.500000
O O15 0.305009 0.013039 0.490791
O O16 0.105766 0.000000 0.250000
O O17 0.750000 0.245122 0.000000
O O18 0.643587 0.243865 0.990913
#
# Coordination Sequence:
#
# PCOD9335049 Si02
#       8
#     8   8   8   4   8   8   8   8
#     4  12  26  43  67 104 151 185 233 296 372 445
#     4  10  21  40  63  94 139 177 227 296 352 418
#     4  11  21  36  62  90 130 178 219 286 355 413
#     4  12  24  38  66  96 140 180 230 302 374 412
#     4  11  23  41  76 109 134 184 246 304 359 431
#     4  12  22  42  68  99 138 181 243 307 349 425
#     4  11  23  44  75 104 137 182 238 306 368 424
#     4  11  23  43  61  99 141 180 235 294 361 446
#
# _framework density 24.529917999999999
#
# number of rings (size 3 to 8) (size 9 to 14) (size 15 to 20)
#    0.000    0.800    7.333    1.200    2.800    2.133 
#    0.000    0.000    0.000    1.600    0.000    0.000 
#    0.000    0.000    0.000    0.000    0.000    0.000 
#
# Total GULP energy -167050.941882 kJ/mol
# GULP energy per Si atom -5568.364729 kJ/mol
# Density = 2.447409 g / cm^3
# Si number density = 24.529918 Si / 1000 Ang^3
#
#
#
# Elastic Constant Matrix: (Units=GPa)
#
#
# Indices 1 2 3 4 5 6 
#
# 1 155.7519 15.2152 58.5840 0.0000 0.0000 0.0000
# 2 15.2152 28.8185 8.8012 0.0000 0.0000 0.0000
# 3 58.5840 8.8012 192.2680 0.0000 0.0000 0.0000
# 4 0.0000 0.0000 0.0000 9.5714 0.0000 0.0000
# 5 0.0000 0.0000 0.0000 0.0000 39.2022 0.0000
# 6 0.0000 0.0000 0.0000 0.0000 0.0000 11.7727
#
#
#
# Elastic Compliance Matrix: (Units=1/GPa)
#
#
# Indices 1 2 3 4 5 6 
#
# 1 0.007554 -0.003332 -0.002149 0.000000 0.000000 0.000000
# 2 -0.003332 0.036662 -0.000663 0.000000 0.000000 0.000000
# 3 -0.002149 -0.000663 0.005886 0.000000 0.000000 0.000000
# 4 0.000000 0.000000 0.000000 0.104477 0.000000 0.000000
# 5 0.000000 0.000000 0.000000 0.000000 0.025509 0.000000
# 6 0.000000 0.000000 0.000000 0.000000 0.000000 0.084943
#
#
# Mechanical properties :
#
#
# Convention : Reuss Voigt Hill
#
# Bulk Modulus (GPa) = 26.44542 60.22657 43.33599
# Shear Modulus (GPa) = 17.24588 31.72512 24.48550
#
# Velocity S-wave (km/s) = 2.65439 3.60018 3.16284
# Velocity P-wave (km/s) = 4.49430 6.47204 5.57163
#
# Compressibility (1/GPa) = 0.03781373
#
# Stress axis : x y z
#
# Youngs Moduli (GPa) = 132.37307 27.27648 169.88571
#
# Poissons Ratio (x) = 0.09089 0.36513
# Poissons Ratio (y) = 0.44108 0.11262
# Poissons Ratio (z) = 0.28451 0.01808
#
# Static dielectric constant tensor:
#      x y z
#    x 2.142300 0.000000 0.000000 
#    y 0.000000 2.186030 0.000000 
#    z 0.000000 0.000000 2.008150 
# 
# From -- ./inp_files/22985.got.cif
#   From: 2010.05.17/outbox.cif.g08.bks.cpg/sg24_12_cif.got.tgz:22985.got - 2010.06.04 00:33:39.
