data_PCOD9335249
_publ_section_title
;
Structure prediction by ZEFSAII (Michael W. Deem and Ramdas Pophale) SiO2 
 PCOD9335249
Probable space group: I 21 21 21
;
_chemical_formula_sum "Si O2"
_cell_formula_units_Z 40
_cell_length_a 14.589379
_cell_length_b 7.628910
_cell_length_c 16.017993
_cell_angle_alpha 90.000000
_cell_angle_beta 90.000000
_cell_angle_gamma 90.000000
_cell_volume 1782.819590
_symmetry_space_group_name_H-M "I 21 21 21"
_symmetry_group_IT_number 24
_symmetry_cell_setting 'orthorhombic'
loop_
_space_group_symop_operation_xyz
x,y,z
-x,1/2-y,z
x,-y,1/2-z
1/2-x,y,-z
1/2+x,1/2+y,1/2+z
1/2-x,-y,1/2+z
1/2+x,1/2-y,-z
-x,1/2+y,1/2-z
loop_
_atom_site_type_symbol
_atom_site_label
_atom_site_fract_x
_atom_site_fract_y
_atom_site_fract_z
Si Si1 0.249780 0.306471 0.774886
Si Si2 0.138807 0.949480 0.500569
Si Si3 0.428732 0.099601 0.829817
Si Si4 0.339368 0.422286 0.053914
Si Si5 0.599314 0.731479 0.136617
O O1 0.284388 0.500000 0.750000
O O2 0.333379 0.182650 0.797469
O O3 0.191664 0.339283 0.858240
O O4 0.182448 0.238061 0.702354
O O5 0.250000 0.961227 0.500000
O O6 0.096591 0.010503 0.412459
O O7 0.115491 0.742682 0.508036
O O8 0.105585 0.060953 0.578965
O O9 0.500000 0.250000 0.851525
O O10 0.468192 0.000000 0.750000
O O11 0.391603 0.599332 0.075961
O O12 0.250000 0.471591 0.000000
O O13 0.500000 0.750000 0.179241
#
# Coordination Sequence:
#
# PCOD9335249 Si02
#       5
#     8   8   8   8   8
#     4  10  22  46  69  98 141 181 229 288 354 417
#     4  11  23  45  72 100 137 187 230 289 355 418
#     4  12  26  44  70 104 138 185 239 294 357 422
#     4  10  21  43  71  97 136 185 230 283 349 416
#     4  11  26  42  69 109 139 183 233 289 353 423
#
# _framework density 22.436368999999999
#
# number of rings (size 3 to 8) (size 9 to 14) (size 15 to 20)
#    0.000    1.200    4.000    2.400    2.800    2.400 
#   10.800    0.000    0.000    0.000    0.000    0.000 
#    0.000    0.000    0.000    0.000    0.000    0.000 
#
# Total GULP energy -111849.415381 kJ/mol
# GULP energy per Si atom -5592.470769 kJ/mol
# Density = 2.238530 g / cm^3
# Si number density = 22.436369 Si / 1000 Ang^3
#
#
#
# Elastic Constant Matrix: (Units=GPa)
#
#
# Indices 1 2 3 4 5 6 
#
# 1 72.3245 8.7278 -2.8872 0.0000 0.0000 0.0000
# 2 8.7278 37.0202 -8.1513 0.0000 0.0000 0.0000
# 3 -2.8872 -8.1513 80.8569 0.0000 0.0000 0.0000
# 4 0.0000 0.0000 0.0000 40.6851 0.0000 0.0000
# 5 0.0000 0.0000 0.0000 0.0000 19.3201 0.0000
# 6 0.0000 0.0000 0.0000 0.0000 0.0000 303.5689
#
#
#
# Elastic Compliance Matrix: (Units=1/GPa)
#
#
# Indices 1 2 3 4 5 6 
#
# 1 0.014234 -0.003317 0.000174 0.000000 0.000000 0.000000
# 2 -0.003317 0.028399 0.002744 0.000000 0.000000 0.000000
# 3 0.000174 0.002744 0.012650 0.000000 0.000000 0.000000
# 4 0.000000 0.000000 0.000000 0.024579 0.000000 0.000000
# 5 0.000000 0.000000 0.000000 0.000000 0.051759 0.000000
# 6 0.000000 0.000000 0.000000 0.000000 0.000000 0.003294
#
#
# Mechanical properties :
#
#
# Convention : Reuss Voigt Hill
#
# Bulk Modulus (GPa) = 18.35383 20.62003 19.48693
# Shear Modulus (GPa) = 32.49381 85.54897 59.02139
#
# Velocity S-wave (km/s) = 3.80974 6.18162 5.13451
# Velocity P-wave (km/s) = 5.24884 7.75630 6.62233
#
# Compressibility (1/GPa) = 0.05448455
#
# Stress axis : x y z
#
# Youngs Moduli (GPa) = 70.25512 35.21291 79.04884
#
# Poissons Ratio (x) = 0.11682 -0.01374
# Poissons Ratio (y) = 0.23307 -0.21695
# Poissons Ratio (z) = -0.01221 -0.09664
#
# Static dielectric constant tensor:
#      x y z
#    x 1.813230 0.000000 0.000000 
#    y 0.000000 1.890580 0.000000 
#    z 0.000000 0.000000 1.828620 
# 
# From -- ./inp_files/12309.got.cif
#   From: 2010.05.17/outbox.cif.g08.bks.cpg/sg24_7_cif.got.tgz:12309.got - 2010.06.04 00:33:39.
