data_PCOD9335682
_publ_section_title
;
Structure prediction by ZEFSAII (Michael W. Deem and Ramdas Pophale) SiO2 
 PCOD9335682
Probable space group: I 21 21 21
;
_chemical_formula_sum "Si O2"
_cell_formula_units_Z 56
_cell_length_a 14.502407
_cell_length_b 14.960531
_cell_length_c 11.216271
_cell_angle_alpha 90.000000
_cell_angle_beta 90.000000
_cell_angle_gamma 90.000000
_cell_volume 2433.523763
_symmetry_space_group_name_H-M "I 21 21 21"
_symmetry_group_IT_number 24
_symmetry_cell_setting 'orthorhombic'
loop_
_space_group_symop_operation_xyz
x,y,z
-x,1/2-y,z
x,-y,1/2-z
1/2-x,y,-z
1/2+x,1/2+y,1/2+z
1/2-x,-y,1/2+z
1/2+x,1/2-y,-z
-x,1/2+y,1/2-z
loop_
_atom_site_type_symbol
_atom_site_label
_atom_site_fract_x
_atom_site_fract_y
_atom_site_fract_z
Si Si1 0.143472 0.375031 0.469375
Si Si2 0.334623 0.760312 0.588677
Si Si3 0.408338 0.202699 0.681015
Si Si4 0.468168 0.880668 0.451380
Si Si5 0.996209 0.644053 0.827056
Si Si6 0.343292 0.564852 0.579407
Si Si7 0.139903 0.059247 0.504200
O O1 0.250000 0.366048 0.500000
O O2 0.117171 0.281361 0.410632
O O3 0.079608 0.391137 0.587308
O O4 0.137338 0.462437 0.383237
O O5 0.250000 0.770218 0.500000
O O6 0.340897 0.816670 0.709273
O O7 0.418345 0.792993 0.504455
O O8 0.327965 0.659443 0.644501
O O9 0.500000 0.250000 0.736153
O O10 0.410593 0.112227 0.604432
O O11 0.493344 0.878538 0.311912
O O12 0.563858 0.907553 0.511562
O O13 0.395434 0.958631 0.483867
O O14 0.000000 0.750000 0.837900
O O15 0.901110 0.608651 0.880896
O O16 0.250000 0.556944 0.500000
O O17 0.250000 0.066312 0.500000
#
# Coordination Sequence:
#
# PCOD9335682 Si02
#       7
#     8   8   8   8   8   8   8
#     4  11  23  42  69 107 143 189 238 309 383 448
#     4  11  27  46  68 104 140 197 251 305 385 452
#     4  12  23  46  72  99 150 191 249 314 371 466
#     4  12  25  47  70 105 147 192 245 307 374 454
#     4  12  24  45  76 108 147 188 249 309 374 451
#     4  10  22  43  67 101 142 181 243 296 376 444
#     4  12  26  45  72 110 147 195 247 306 381 454
#
# _framework density 23.011897000000001
#
# number of rings (size 3 to 8) (size 9 to 14) (size 15 to 20)
#    0.000    0.571    4.286    3.429    2.000    3.429 
#    2.571    7.143    0.000    0.000    0.000    0.000 
#    0.000    0.000    0.000    0.000    0.000    0.000 
#
# Total GULP energy -156174.155723 kJ/mol
# GULP energy per Si atom -5577.648419 kJ/mol
# Density = 2.295952 g / cm^3
# Si number density = 23.011897 Si / 1000 Ang^3
#
#
#
# Elastic Constant Matrix: (Units=GPa)
#
#
# Indices 1 2 3 4 5 6 
#
# 1 131.7578 21.7793 3.6337 0.0000 0.0000 0.0000
# 2 21.7793 98.8193 -5.6170 0.0000 0.0000 0.0000
# 3 3.6337 -5.6170 65.2219 0.0000 0.0000 0.0000
# 4 0.0000 0.0000 0.0000 19.0951 0.0000 0.0000
# 5 0.0000 0.0000 0.0000 0.0000 10.7826 0.0000
# 6 0.0000 0.0000 0.0000 0.0000 0.0000 118.1313
#
#
#
# Elastic Compliance Matrix: (Units=1/GPa)
#
#
# Indices 1 2 3 4 5 6 
#
# 1 0.007899 -0.001775 -0.000593 0.000000 0.000000 0.000000
# 2 -0.001775 0.010568 0.001009 0.000000 0.000000 0.000000
# 3 -0.000593 0.001009 0.015452 0.000000 0.000000 0.000000
# 4 0.000000 0.000000 0.000000 0.052370 0.000000 0.000000
# 5 0.000000 0.000000 0.000000 0.000000 0.092742 0.000000
# 6 0.000000 0.000000 0.000000 0.000000 0.000000 0.008465
#
#
# Mechanical properties :
#
#
# Convention : Reuss Voigt Hill
#
# Bulk Modulus (GPa) = 32.04891 37.26567 34.65729
# Shear Modulus (GPa) = 24.92343 48.00199 36.46271
#
# Velocity S-wave (km/s) = 3.29457 4.57219 3.98492
# Velocity P-wave (km/s) = 5.33194 6.64097 6.02213
#
# Compressibility (1/GPa) = 0.03120231
#
# Stress axis : x y z
#
# Youngs Moduli (GPa) = 126.59209 94.62554 64.71567
#
# Poissons Ratio (x) = 0.16793 0.03837
# Poissons Ratio (y) = 0.22466 -0.06530
# Poissons Ratio (z) = 0.07506 -0.09548
#
# Static dielectric constant tensor:
#      x y z
#    x 1.929940 0.000000 0.000000 
#    y 0.000000 1.943660 0.000000 
#    z 0.000000 0.000000 1.827240 
# 
# From -- ./inp_files/20837.got.cif
#   From: 2010.05.17/outbox.cif.g08.bks.cpg/sg24_11_cif.got.tgz:20837.got - 2010.06.04 00:33:39.
