data_PCOD9335113
_publ_section_title
;
Structure prediction by ZEFSAII (Michael W. Deem and Ramdas Pophale) SiO2 
 PCOD9335113
Probable space group: I 21 21 21
;
_chemical_formula_sum "Si O2"
_cell_formula_units_Z 60
_cell_length_a 12.781992
_cell_length_b 21.033460
_cell_length_c 10.232478
_cell_angle_alpha 90.000000
_cell_angle_beta 90.000000
_cell_angle_gamma 90.000000
_cell_volume 2750.996773
_symmetry_space_group_name_H-M "I 21 21 21"
_symmetry_group_IT_number 24
_symmetry_cell_setting 'orthorhombic'
loop_
_space_group_symop_operation_xyz
x,y,z
-x,1/2-y,z
x,-y,1/2-z
1/2-x,y,-z
1/2+x,1/2+y,1/2+z
1/2-x,-y,1/2+z
1/2+x,1/2-y,-z
-x,1/2+y,1/2-z
loop_
_atom_site_type_symbol
_atom_site_label
_atom_site_fract_x
_atom_site_fract_y
_atom_site_fract_z
Si Si1 0.110451 0.144748 0.718953
Si Si2 0.500000 0.250000 0.441330
Si Si3 0.662153 0.172483 0.599357
Si Si4 0.492552 0.098355 0.002595
Si Si5 0.513918 0.035187 0.378142
Si Si6 0.344553 0.702251 0.602186
Si Si7 0.753725 0.961996 0.130025
Si Si8 0.318151 0.844111 0.631446
O O1 0.051568 0.127204 0.857591
O O2 0.234034 0.147527 0.752926
O O3 0.075626 0.211468 0.656646
O O4 0.066113 0.093518 0.613442
O O5 0.558044 0.201469 0.539251
O O6 0.750000 0.197019 0.500000
O O7 0.686032 0.186095 0.749486
O O8 0.671686 0.096292 0.595732
O O9 0.519597 0.024013 0.022527
O O10 0.580830 0.147383 0.954090
O O11 0.404466 0.102590 0.890094
O O12 0.632769 0.057668 0.341980
O O13 0.471702 0.000000 0.250000
O O14 0.250000 0.704888 0.500000
O O15 0.377854 0.776180 0.621884
O O16 0.795127 0.000000 0.250000
O O17 0.750000 0.004089 0.000000
O O18 0.250000 0.846754 0.500000
#
# Coordination Sequence:
#
# PCOD9335113 Si02
#       8
#     8   4   8   8   8   8   8   8
#     4  10  21  40  70  98 139 190 244 286 357 438
#     4  12  26  42  68  96 142 202 238 284 364 436
#     4  11  26  44  63  99 141 187 232 287 354 438
#     4  10  22  37  69 108 144 172 242 305 355 430
#     4   9  20  37  65 104 135 176 233 287 355 430
#     4  11  25  38  68 103 141 186 231 296 370 427
#     4  10  22  38  63  95 138 173 221 282 350 424
#     4   9  20  37  61 100 136 176 231 294 350 410
#
# _framework density 21.810275000000001
#
# number of rings (size 3 to 8) (size 9 to 14) (size 15 to 20)
#    0.000    1.867    0.000    2.800   16.800    0.000 
#    0.000    0.000    0.000   20.000   13.867    0.000 
#    0.000    0.000    0.000    0.000    0.000    0.000 
#
# Total GULP energy -167050.272343 kJ/mol
# GULP energy per Si atom -5568.342411 kJ/mol
# Density = 2.176063 g / cm^3
# Si number density = 21.810275 Si / 1000 Ang^3
#
#
#
# Elastic Constant Matrix: (Units=GPa)
#
#
# Indices 1 2 3 4 5 6 
#
# 1 89.3510 57.1739 26.6655 0.0001 0.0000 0.0000
# 2 57.1739 113.5690 31.2421 0.0002 0.0000 0.0000
# 3 26.6655 31.2421 116.0602 0.0008 -0.0001 0.0000
# 4 0.0001 0.0002 0.0008 20.2565 0.0000 0.0000
# 5 0.0000 0.0000 -0.0001 0.0000 17.6456 0.0000
# 6 0.0000 0.0000 0.0000 0.0000 0.0000 30.5872
#
#
#
# Elastic Compliance Matrix: (Units=1/GPa)
#
#
# Indices 1 2 3 4 5 6 
#
# 1 0.016819 -0.007996 -0.001712 0.000000 0.000000 0.000000
# 2 -0.007996 0.013311 -0.001746 0.000000 0.000000 0.000000
# 3 -0.001712 -0.001746 0.009480 0.000000 0.000000 0.000000
# 4 0.000000 0.000000 0.000000 0.049367 0.000000 0.000000
# 5 0.000000 0.000000 0.000000 0.000000 0.056671 0.000000
# 6 0.000000 0.000000 0.000000 0.000000 0.000000 0.032693
#
#
# Mechanical properties :
#
#
# Convention : Reuss Voigt Hill
#
# Bulk Modulus (GPa) = 59.87443 61.01588 60.44516
# Shear Modulus (GPa) = 24.17590 27.29111 25.73351
#
# Velocity S-wave (km/s) = 3.33297 3.54120 3.43866
# Velocity P-wave (km/s) = 6.50566 6.69004 6.59849
#
# Compressibility (1/GPa) = 0.01670162
#
# Stress axis : x y z
#
# Youngs Moduli (GPa) = 59.45490 75.12472 105.49066
#
# Poissons Ratio (x) = 0.60073 0.18058
# Poissons Ratio (y) = 0.47543 0.18418
# Poissons Ratio (z) = 0.10178 0.13117
#
# Static dielectric constant tensor:
#      x y z
#    x 1.841210 0.000000 0.000000 
#    y 0.000000 1.893490 0.000000 
#    z 0.000000 0.000000 1.842400 
# 
# From -- ./inp_files/19985.got.cif
#   From: 2010.05.17/outbox.cif.g08.bks.cpg/sg24_10_cif.got.tgz:19985.got - 2010.06.04 00:33:39.
