data_PCOD9335587
_publ_section_title
;
Structure prediction by ZEFSAII (Michael W. Deem and Ramdas Pophale) SiO2 
 PCOD9335587
Probable space group: I 21 21 21
;
_chemical_formula_sum "Si O2"
_cell_formula_units_Z 56
_cell_length_a 5.358388
_cell_length_b 29.128846
_cell_length_c 14.273160
_cell_angle_alpha 90.000000
_cell_angle_beta 90.000000
_cell_angle_gamma 90.000000
_cell_volume 2227.807036
_symmetry_space_group_name_H-M "I 21 21 21"
_symmetry_group_IT_number 24
_symmetry_cell_setting 'orthorhombic'
loop_
_space_group_symop_operation_xyz
x,y,z
-x,1/2-y,z
x,-y,1/2-z
1/2-x,y,-z
1/2+x,1/2+y,1/2+z
1/2-x,-y,1/2+z
1/2+x,1/2-y,-z
-x,1/2+y,1/2-z
loop_
_atom_site_type_symbol
_atom_site_label
_atom_site_fract_x
_atom_site_fract_y
_atom_site_fract_z
Si Si1 0.079967 0.301307 0.621475
Si Si2 0.000000 0.750000 0.551491
Si Si3 0.524325 0.131305 0.685320
Si Si4 0.491594 0.093886 0.056517
Si Si5 0.764301 0.500088 0.863327
Si Si6 0.750000 0.363744 0.500000
Si Si7 0.245598 0.465067 0.338052
Si Si8 0.643140 0.668141 0.316586
O O1 0.349753 0.320834 0.651729
O O2 0.000000 0.250000 0.594720
O O3 0.976075 0.333324 0.540191
O O4 0.935744 0.311304 0.717501
O O5 0.250000 0.730041 0.500000
O O6 0.132746 0.789569 0.612777
O O7 0.352628 0.115629 0.597067
O O8 0.696394 0.086605 0.694404
O O9 0.389901 0.141120 0.783736
O O10 0.370166 0.047927 0.099724
O O11 0.537056 0.130377 0.138562
O O12 0.250000 0.113980 0.000000
O O13 0.750000 0.086640 0.000000
O O14 0.735399 0.500000 0.750000
O O15 0.988589 0.534174 0.887986
O O16 0.488424 0.514228 0.895222
O O17 0.272231 0.500000 0.250000
#
# Coordination Sequence:
#
# PCOD9335587 Si02
#       8
#     8   4   8   8   8   4   8   8
#     4  11  26  46  77 109 145 197 256 321 399 489
#     4  12  28  48  72 110 156 200 254 322 390 454
#     4  11  26  46  79 108 154 200 260 320 395 482
#     4  12  27  47  73 112 155 203 261 323 391 462
#     4  10  22  43  71 102 141 196 248 308 376 452
#     4  10  26  46  70 112 146 196 242 330 388 472
#     4  10  22  41  74 107 144 195 248 307 373 450
#     4  11  26  46  76 107 149 200 256 314 388 473
#
# _framework density 25.136825999999999
#
# number of rings (size 3 to 8) (size 9 to 14) (size 15 to 20)
#    0.000    1.143    0.714    3.857   14.000    1.714 
#    3.857    0.000    0.000    0.000    0.000    0.000 
#    0.000    0.000    0.000    0.000    0.000    0.000 
#
# Total GULP energy -156299.362088 kJ/mol
# GULP energy per Si atom -5582.120075 kJ/mol
# Density = 2.507961 g / cm^3
# Si number density = 25.136826 Si / 1000 Ang^3
#
#
#
# Elastic Constant Matrix: (Units=GPa)
#
#
# Indices 1 2 3 4 5 6 
#
# 1 133.7210 2.7355 18.8226 0.0000 0.0000 0.0000
# 2 2.7355 94.0357 14.9709 0.0000 0.0000 0.0000
# 3 18.8226 14.9709 88.7971 0.0000 0.0000 0.0000
# 4 0.0000 0.0000 0.0000 -33.3122 0.0000 0.0000
# 5 0.0000 0.0000 0.0000 0.0000 6.0225 0.0000
# 6 0.0000 0.0000 0.0000 0.0000 0.0000 33.4037
#
#
#
# Elastic Compliance Matrix: (Units=1/GPa)
#
#
# Indices 1 2 3 4 5 6 
#
# 1 0.007708 0.000037 -0.001640 0.000000 0.000000 0.000000
# 2 0.000037 0.010928 -0.001850 0.000000 0.000000 0.000000
# 3 -0.001640 -0.001850 0.011921 0.000000 0.000000 0.000000
# 4 0.000000 0.000000 0.000000 -0.030019 0.000000 0.000000
# 5 0.000000 0.000000 0.000000 0.000000 0.166045 0.000000
# 6 0.000000 0.000000 0.000000 0.000000 0.000000 0.029937
#
#
# Mechanical properties :
#
#
# Convention : Reuss Voigt Hill
#
# Bulk Modulus (GPa) = 42.28266 43.29021 42.78643
# Shear Modulus (GPa) = 23.66187 19.89109 21.77648
#
# Velocity S-wave (km/s) = 3.07143 2.81608 2.94652
# Velocity P-wave (km/s) = 5.42547 5.27569 5.35111
#
# Compressibility (1/GPa) = 0.02365036
#
# Stress axis : x y z
#
# Youngs Moduli (GPa) = 129.72905 91.51012 83.88383
#
# Poissons Ratio (x) = -0.00338 0.13759
# Poissons Ratio (y) = -0.00479 0.15520
# Poissons Ratio (z) = 0.21278 0.16931
#
# Static dielectric constant tensor:
#      x y z
#    x 2.155930 0.000000 0.000000 
#    y 0.000000 1.978760 0.000000 
#    z 0.000000 0.000000 1.993270 
# 
# From -- ./inp_files/24107.got.cif
#   From: 2010.05.17/outbox.cif.g08.bks.cpg/sg24_13_cif.got.tgz:24107.got - 2010.06.04 00:33:39.
