data_PCOD9335300
_publ_section_title
;
Structure prediction by ZEFSAII (Michael W. Deem and Ramdas Pophale) SiO2 
 PCOD9335300
Probable space group: I 21 21 21
;
_chemical_formula_sum "Si O2"
_cell_formula_units_Z 40
_cell_length_a 29.068718
_cell_length_b 15.158390
_cell_length_c 5.264899
_cell_angle_alpha 90.000000
_cell_angle_beta 90.000000
_cell_angle_gamma 90.000000
_cell_volume 2319.898583
_symmetry_space_group_name_H-M "I 21 21 21"
_symmetry_group_IT_number 24
_symmetry_cell_setting 'orthorhombic'
loop_
_space_group_symop_operation_xyz
x,y,z
-x,1/2-y,z
x,-y,1/2-z
1/2-x,y,-z
1/2+x,1/2+y,1/2+z
1/2-x,-y,1/2+z
1/2+x,1/2-y,-z
-x,1/2+y,1/2-z
loop_
_atom_site_type_symbol
_atom_site_label
_atom_site_fract_x
_atom_site_fract_y
_atom_site_fract_z
Si Si1 0.650306 0.904026 0.390963
Si Si2 0.250000 0.439495 0.000000
Si Si3 0.509512 0.072775 0.433357
Si Si4 0.908757 0.000000 0.250000
Si Si5 0.425252 0.727632 0.208167
Si Si6 0.455444 0.187853 0.792819
O O1 0.703732 0.885743 0.439866
O O2 0.623329 0.922193 0.652848
O O3 0.620093 0.830535 0.254175
O O4 0.649309 0.000000 0.250000
O O5 0.259324 0.500000 0.750000
O O6 0.530269 0.160407 0.296081
O O7 0.477212 0.099926 0.668654
O O8 0.487706 0.000000 0.250000
O O9 0.556414 0.029230 0.533539
O O10 0.431914 0.798898 0.434421
O O11 0.424538 0.772810 0.933990
O O12 0.500000 0.250000 0.804920
#
# Coordination Sequence:
#
# PCOD9335300 Si02
#       6
#     8   4   8   4   8   8
#     4  11  20  32  48  71  92 129 168 206 243 287
#     4  10  22  32  48  70  96 118 158 214 244 276
#     4  11  22  31  50  71  95 131 175 213 242 281
#     4  12  18  30  50  68  94 128 170 206 238 284
#     4  11  20  34  48  65  93 129 162 202 241 293
#     4  10  22  32  46  66  94 123 163 206 244 277
#
# _framework density 17.242132999999999
#
# number of rings (size 3 to 8) (size 9 to 14) (size 15 to 20)
#    0.000    1.200    5.000    4.200    2.800    0.000 
#    0.000    0.000    0.000    0.000    0.000    0.000 
#    0.000    0.000    0.000    3.600    0.800    0.200 
#
# Total GULP energy -111566.543082 kJ/mol
# GULP energy per Si atom -5578.327154 kJ/mol
# Density = 1.720289 g / cm^3
# Si number density = 17.242133 Si / 1000 Ang^3
#
#
#
# Elastic Constant Matrix: (Units=GPa)
#
#
# Indices 1 2 3 4 5 6 
#
# 1 94.0509 18.2757 16.8819 0.0000 0.0000 0.0000
# 2 18.2757 40.4964 10.9322 0.0000 0.0000 0.0000
# 3 16.8819 10.9322 91.1701 0.0000 0.0000 0.0001
# 4 0.0000 0.0000 0.0000 31.7911 0.0000 0.0000
# 5 0.0000 0.0000 0.0000 0.0000 -4.7346 0.0000
# 6 0.0000 0.0000 0.0001 0.0000 0.0000 -33.7860
#
#
#
# Elastic Compliance Matrix: (Units=1/GPa)
#
#
# Indices 1 2 3 4 5 6 
#
# 1 0.011879 -0.004926 -0.001609 0.000000 0.000000 0.000000
# 2 -0.004926 0.027563 -0.002393 0.000000 0.000000 0.000000
# 3 -0.001609 -0.002393 0.011553 0.000000 0.000000 0.000000
# 4 0.000000 0.000000 0.000000 0.031455 0.000000 0.000000
# 5 0.000000 0.000000 0.000000 0.000000 -0.211212 0.000000
# 6 0.000000 0.000000 0.000000 0.000000 0.000000 -0.029598
#
#
# Mechanical properties :
#
#
# Convention : Reuss Voigt Hill
#
# Bulk Modulus (GPa) = 30.17629 35.32188 32.74908
# Shear Modulus (GPa) = -38.62266 10.62928 -13.99669
#
# Velocity S-wave (km/s) = -4.73802 2.48558 -2.85225
# Velocity P-wave (km/s) = 3.52026 5.36356 2.86142
#
# Compressibility (1/GPa) = 0.03313860
#
# Stress axis : x y z
#
# Youngs Moduli (GPa) = 84.18502 36.28083 86.55513
#
# Poissons Ratio (x) = 0.17873 0.13925
# Poissons Ratio (y) = 0.41473 0.20711
# Poissons Ratio (z) = 0.13544 0.08681
#
# Static dielectric constant tensor:
#      x y z
#    x 1.567970 0.000000 0.000000 
#    y 0.000000 1.663460 0.000000 
#    z 0.000000 0.000000 1.691780 
# 
# From -- ./inp_files/3860.got.cif
#   From: 2010.05.17/outbox.cif.g08.bks.cpg/sg24_2_cif.got.tgz:3860.got - 2010.06.04 00:33:39.
