data_PCOD9335241
_publ_section_title
;
Structure prediction by ZEFSAII (Michael W. Deem and Ramdas Pophale) SiO2 
 PCOD9335241
Probable space group: I 21 21 21
;
_chemical_formula_sum "Si O2"
_cell_formula_units_Z 32
_cell_length_a 5.152952
_cell_length_b 9.302673
_cell_length_c 28.703723
_cell_angle_alpha 90.000000
_cell_angle_beta 90.000000
_cell_angle_gamma 90.000000
_cell_volume 1375.948194
_symmetry_space_group_name_H-M "I 21 21 21"
_symmetry_group_IT_number 24
_symmetry_cell_setting 'orthorhombic'
loop_
_space_group_symop_operation_xyz
x,y,z
-x,1/2-y,z
x,-y,1/2-z
1/2-x,y,-z
1/2+x,1/2+y,1/2+z
1/2-x,-y,1/2+z
1/2+x,1/2-y,-z
-x,1/2+y,1/2-z
loop_
_atom_site_type_symbol
_atom_site_label
_atom_site_fract_x
_atom_site_fract_y
_atom_site_fract_z
Si Si1 0.750000 0.353002 0.500000
Si Si2 0.228150 0.000657 0.695067
Si Si3 0.282859 0.457925 0.861141
Si Si4 0.061413 0.589730 0.460494
Si Si5 0.000000 0.750000 0.150553
O O1 0.500000 0.250000 0.491138
O O2 0.669202 0.470248 0.540429
O O3 0.293253 0.164786 0.681544
O O4 0.190593 0.000000 0.750000
O O5 0.485174 0.922476 0.675014
O O6 0.984035 0.945980 0.666011
O O7 0.307439 0.384171 0.910526
O O8 0.342869 0.625327 0.874821
O O9 0.250000 0.529741 0.500000
O O10 0.000000 0.750000 0.477104
#
# Coordination Sequence:
#
# PCOD9335241 Si02
#       5
#     4   8   8   8   4
#     4  12  28  48  76 116 146 204 268 320 380 468
#     4  10  21  43  69 103 145 188 240 319 386 453
#     4  10  24  42  69 105 142 189 252 305 379 457
#     4  12  28  51  80 110 163 207 260 328 408 463
#     4   8  22  40  68  98 146 180 246 310 376 440
#
# _framework density 23.256689999999999
#
# number of rings (size 3 to 8) (size 9 to 14) (size 15 to 20)
#    1.500    0.000    2.500    1.500    5.250    0.000 
#    6.750    0.000    0.000    0.000    0.000    0.000 
#    0.000    0.000    0.000    0.000    0.000    0.000 
#
# Total GULP energy -89174.310467 kJ/mol
# GULP energy per Si atom -5573.394404 kJ/mol
# Density = 2.320376 g / cm^3
# Si number density = 23.256690 Si / 1000 Ang^3
#
#
#
# Elastic Constant Matrix: (Units=GPa)
#
#
# Indices 1 2 3 4 5 6 
#
# 1 176.5041 28.8848 54.2271 0.0000 0.0000 0.0000
# 2 28.8848 105.2088 -8.4169 0.0000 0.0000 0.0000
# 3 54.2271 -8.4169 112.9475 0.0000 0.0000 0.0000
# 4 0.0000 0.0000 0.0000 20.1940 0.0000 0.0000
# 5 0.0000 0.0000 0.0000 0.0000 34.2113 0.0000
# 6 0.0000 0.0000 0.0000 0.0000 0.0000 6.9167
#
#
#
# Elastic Compliance Matrix: (Units=1/GPa)
#
#
# Indices 1 2 3 4 5 6 
#
# 1 0.007138 -0.002247 -0.003594 0.000000 0.000000 0.000000
# 2 -0.002247 0.010269 0.001844 0.000000 0.000000 0.000000
# 3 -0.003594 0.001844 0.010717 0.000000 0.000000 0.000000
# 4 0.000000 0.000000 0.000000 0.049520 0.000000 0.000000
# 5 0.000000 0.000000 0.000000 0.000000 0.029230 0.000000
# 6 0.000000 0.000000 0.000000 0.000000 0.000000 0.144578
#
#
# Mechanical properties :
#
#
# Convention : Reuss Voigt Hill
#
# Bulk Modulus (GPa) = 49.67916 60.45005 55.06460
# Shear Modulus (GPa) = 18.78599 33.59544 26.19072
#
# Velocity S-wave (km/s) = 2.84521 3.80485 3.35947
# Velocity P-wave (km/s) = 5.67461 6.73435 6.22706
#
# Compressibility (1/GPa) = 0.02012917
#
# Stress axis : x y z
#
# Youngs Moduli (GPa) = 140.10305 97.37678 93.31194
#
# Poissons Ratio (x) = 0.21882 0.33539
# Poissons Ratio (y) = 0.31483 -0.17208
# Poissons Ratio (z) = 0.50357 -0.17958
#
# Static dielectric constant tensor:
#      x y z
#    x 1.950530 0.000000 0.000000 
#    y 0.000000 1.947290 0.000000 
#    z 0.000000 0.000000 1.930970 
# 
# From -- ./inp_files/37721.got.cif
#   From: 2010.05.17/outbox.cif.g08.bks.cpg/sg24_19_cif.got.tgz:37721.got - 2010.06.04 00:33:39.
