data_PCOD9335693
_publ_section_title
;
Structure prediction by ZEFSAII (Michael W. Deem and Ramdas Pophale) SiO2 
 PCOD9335693
Probable space group: I 21 21 21
;
_chemical_formula_sum "Si O2"
_cell_formula_units_Z 32
_cell_length_a 18.057352
_cell_length_b 13.811859
_cell_length_c 5.551377
_cell_angle_alpha 90.000000
_cell_angle_beta 90.000000
_cell_angle_gamma 90.000000
_cell_volume 1384.544510
_symmetry_space_group_name_H-M "I 21 21 21"
_symmetry_group_IT_number 24
_symmetry_cell_setting 'orthorhombic'
loop_
_space_group_symop_operation_xyz
x,y,z
-x,1/2-y,z
x,-y,1/2-z
1/2-x,y,-z
1/2+x,1/2+y,1/2+z
1/2-x,-y,1/2+z
1/2+x,1/2-y,-z
-x,1/2+y,1/2-z
loop_
_atom_site_type_symbol
_atom_site_label
_atom_site_fract_x
_atom_site_fract_y
_atom_site_fract_z
Si Si1 0.854909 0.592136 0.366927
Si Si2 0.996165 0.863199 0.118561
Si Si3 0.621771 0.000000 0.750000
Si Si4 0.461318 0.000000 0.250000
Si Si5 0.250000 0.608194 0.000000
Si Si6 0.750000 0.767861 0.500000
O O1 0.810533 0.500000 0.250000
O O2 0.903965 0.562025 0.593274
O O3 0.813642 0.690627 0.427734
O O4 0.919668 0.609183 0.176305
O O5 0.935025 0.910013 0.295990
O O6 0.000000 0.750000 0.102409
O O7 0.985059 0.923100 0.876969
O O8 0.678486 0.958673 0.948969
O O9 0.239175 0.670193 0.749029
#
# Coordination Sequence:
#
# PCOD9335693 Si02
#       6
#     8   8   4   4   4   4
#     4  10  24  45  70 115 154 203 259 335 404 471
#     4  11  24  47  75 109 153 205 267 332 405 479
#     4  12  26  55  73 110 168 194 284 336 392 495
#     4  10  22  43  69 116 150 198 266 326 416 459
#     4  12  31  51  78 114 156 228 259 342 407 472
#     4  12  29  49  82 116 164 208 285 310 411 514
#
# _framework density 23.112295
#
# number of rings (size 3 to 8) (size 9 to 14) (size 15 to 20)
#    0.000    1.000    3.750    2.250   12.250    4.000 
#    0.000    0.000    0.000    0.000    0.000    0.000 
#    0.000    0.000    0.000    0.000    0.000    0.000 
#
# Total GULP energy -89118.926527 kJ/mol
# GULP energy per Si atom -5569.932908 kJ/mol
# Density = 2.305969 g / cm^3
# Si number density = 23.112295 Si / 1000 Ang^3
#
#
#
# Elastic Constant Matrix: (Units=GPa)
#
#
# Indices 1 2 3 4 5 6 
#
# 1 116.3777 70.9515 31.8677 0.0000 0.0000 0.0000
# 2 70.9515 210.5546 81.1930 0.0000 0.0000 0.0000
# 3 31.8677 81.1930 121.5467 0.0000 0.0000 0.0000
# 4 0.0000 0.0000 0.0000 20.8870 0.0000 0.0000
# 5 0.0000 0.0000 0.0000 0.0000 31.5022 0.0000
# 6 0.0000 0.0000 0.0000 0.0000 0.0000 107.8653
#
#
#
# Elastic Compliance Matrix: (Units=1/GPa)
#
#
# Indices 1 2 3 4 5 6 
#
# 1 0.010841 -0.003444 -0.000542 0.000000 0.000000 0.000000
# 2 -0.003444 0.007492 -0.004101 0.000000 0.000000 0.000000
# 3 -0.000542 -0.004101 0.011109 0.000000 0.000000 0.000000
# 4 0.000000 0.000000 0.000000 0.047877 0.000000 0.000000
# 5 0.000000 0.000000 0.000000 0.000000 0.031744 0.000000
# 6 0.000000 0.000000 0.000000 0.000000 0.000000 0.009271
#
#
# Mechanical properties :
#
#
# Convention : Reuss Voigt Hill
#
# Bulk Modulus (GPa) = 75.37439 90.72261 83.04850
# Shear Modulus (GPa) = 35.98955 49.68200 42.83578
#
# Velocity S-wave (km/s) = 3.95037 4.64140 4.30976
# Velocity P-wave (km/s) = 7.31370 8.24995 7.79589
#
# Compressibility (1/GPa) = 0.01326711
#
# Stress axis : x y z
#
# Youngs Moduli (GPa) = 92.24367 133.48442 90.01772
#
# Poissons Ratio (x) = 0.45976 0.04875
# Poissons Ratio (y) = 0.31771 0.36919
# Poissons Ratio (z) = 0.04995 0.54746
#
# Static dielectric constant tensor:
#      x y z
#    x 1.879530 0.000000 0.000000 
#    y 0.000000 1.888450 0.000000 
#    z 0.000000 0.000000 1.959930 
# 
# From -- ./inp_files/3154.got.cif
#   From: 2010.05.17/outbox.cif.g08.bks.cpg/sg24_2_cif.got.tgz:3154.got - 2010.06.04 00:33:39.
