data_PCOD9335653
_publ_section_title
;
Structure prediction by ZEFSAII (Michael W. Deem and Ramdas Pophale) SiO2 
 PCOD9335653
Probable space group: I 21 21 21
;
_chemical_formula_sum "Si O2"
_cell_formula_units_Z 28
_cell_length_a 17.694228
_cell_length_b 8.351158
_cell_length_c 7.398648
_cell_angle_alpha 90.000000
_cell_angle_beta 90.000000
_cell_angle_gamma 90.000000
_cell_volume 1093.278192
_symmetry_space_group_name_H-M "I 21 21 21"
_symmetry_group_IT_number 24
_symmetry_cell_setting 'orthorhombic'
loop_
_space_group_symop_operation_xyz
x,y,z
-x,1/2-y,z
x,-y,1/2-z
1/2-x,y,-z
1/2+x,1/2+y,1/2+z
1/2-x,-y,1/2+z
1/2+x,1/2-y,-z
-x,1/2+y,1/2-z
loop_
_atom_site_type_symbol
_atom_site_label
_atom_site_fract_x
_atom_site_fract_y
_atom_site_fract_z
Si Si1 0.000000 0.250000 0.079703
Si Si2 0.936175 0.865489 0.077943
Si Si3 0.729754 0.180498 0.704228
Si Si4 0.879541 0.315145 0.787500
O O1 0.923916 0.286560 0.968327
O O2 0.028465 0.460498 0.076568
O O3 0.860511 0.828181 0.192059
O O4 0.000000 0.750000 0.180381
O O5 0.915321 0.792892 0.878621
O O6 0.750000 0.224459 0.500000
O O7 0.790139 0.282673 0.813721
O O8 0.753921 0.000000 0.750000
O O9 0.889768 0.500000 0.750000
#
# Coordination Sequence:
#
# PCOD9335653 Si02
#       4
#     4   8   8   8
#     4  10  22  42  72  92 138 182 216 284 338 410
#     4   9  22  45  63 103 134 169 232 281 332 408
#     4  10  24  44  67  98 134 181 230 283 334 417
#     4  11  24  45  68 102 141 177 226 289 348 401
#
# _framework density 25.611048
#
# number of rings (size 3 to 8) (size 9 to 14) (size 15 to 20)
#    0.857    1.143    1.429    0.000    4.000    4.571 
#   15.429    0.000    0.000    0.000    0.000    0.000 
#    0.000    0.000    0.000    0.000    0.000    0.000 
#
# Total GULP energy -77963.896962 kJ/mol
# GULP energy per Si atom -5568.849783 kJ/mol
# Density = 2.555276 g / cm^3
# Si number density = 25.611048 Si / 1000 Ang^3
#
#
#
# Elastic Constant Matrix: (Units=GPa)
#
#
# Indices 1 2 3 4 5 6 
#
# 1 196.9650 56.1417 94.1930 0.0000 0.0000 0.0000
# 2 56.1417 179.4041 56.4293 0.0000 0.0000 0.0000
# 3 94.1930 56.4293 133.3904 0.0000 0.0000 0.0000
# 4 0.0000 0.0000 0.0000 55.6352 0.0000 0.0000
# 5 0.0000 0.0000 0.0000 0.0000 46.3784 0.0000
# 6 0.0000 0.0000 0.0000 0.0000 0.0000 -62.6991
#
#
#
# Elastic Compliance Matrix: (Units=1/GPa)
#
#
# Indices 1 2 3 4 5 6 
#
# 1 0.007767 -0.000814 -0.005141 0.000000 0.000000 0.000000
# 2 -0.000814 0.006515 -0.002181 0.000000 0.000000 0.000000
# 3 -0.005141 -0.002181 0.012050 0.000000 0.000000 0.000000
# 4 0.000000 0.000000 0.000000 0.017974 0.000000 0.000000
# 5 0.000000 0.000000 0.000000 0.000000 0.021562 0.000000
# 6 0.000000 0.000000 0.000000 0.000000 0.000000 -0.015949
#
#
# Mechanical properties :
#
#
# Convention : Reuss Voigt Hill
#
# Bulk Modulus (GPa) = 99.40115 102.58751 100.99433
# Shear Modulus (GPa) = 71.89743 28.06260 49.98002
#
# Velocity S-wave (km/s) = 5.30413 3.31376 4.42237
# Velocity P-wave (km/s) = 8.74115 7.40164 8.09914
#
# Compressibility (1/GPa) = 0.01006025
#
# Stress axis : x y z
#
# Youngs Moduli (GPa) = 128.74395 153.49695 82.99004
#
# Poissons Ratio (x) = 0.12491 0.42662
# Poissons Ratio (y) = 0.10477 0.18103
# Poissons Ratio (z) = 0.66183 0.33484
#
# Static dielectric constant tensor:
#      x y z
#    x 2.214490 0.000000 0.000000 
#    y 0.000000 2.125910 0.000000 
#    z 0.000000 0.000000 2.354560 
# 
# From -- ./inp_files/8773.got.cif
#   From: 2010.05.17/outbox.cif.g08.bks.cpg/sg24_5_cif.got.tgz:8773.got - 2010.06.04 00:33:39.
