data_PCOD9335393
_publ_section_title
;
Structure prediction by ZEFSAII (Michael W. Deem and Ramdas Pophale) SiO2 
 PCOD9335393
Probable space group: I 21 21 21
;
_chemical_formula_sum "Si O2"
_cell_formula_units_Z 48
_cell_length_a 22.072143
_cell_length_b 21.225202
_cell_length_c 5.162155
_cell_angle_alpha 90.000000
_cell_angle_beta 90.000000
_cell_angle_gamma 90.000000
_cell_volume 2418.395766
_symmetry_space_group_name_H-M "I 21 21 21"
_symmetry_group_IT_number 24
_symmetry_cell_setting 'orthorhombic'
loop_
_space_group_symop_operation_xyz
x,y,z
-x,1/2-y,z
x,-y,1/2-z
1/2-x,y,-z
1/2+x,1/2+y,1/2+z
1/2-x,-y,1/2+z
1/2+x,1/2-y,-z
-x,1/2+y,1/2-z
loop_
_atom_site_type_symbol
_atom_site_label
_atom_site_fract_x
_atom_site_fract_y
_atom_site_fract_z
Si Si1 0.250000 0.409242 0.500000
Si Si2 0.963829 0.685582 0.346737
Si Si3 0.651585 0.000000 0.750000
Si Si4 0.152288 0.323156 0.687309
Si Si5 0.882519 0.315838 0.651901
Si Si6 0.586475 0.877155 0.674371
Si Si7 0.792453 0.571346 0.750111
O O1 0.302634 0.456260 0.589512
O O2 0.215602 0.361522 0.694173
O O3 0.934381 0.690919 0.629583
O O4 0.000000 0.750000 0.287452
O O5 0.014743 0.631647 0.332178
O O6 0.913198 0.676456 0.128196
O O7 0.608792 0.051802 0.881626
O O8 0.156662 0.248478 0.648374
O O9 0.113490 0.351960 0.447184
O O10 0.116196 0.335343 0.950074
O O11 0.842862 0.375517 0.730697
O O12 0.817837 0.500000 0.750000
O O13 0.750000 0.579341 0.500000
O O14 0.750000 0.576929 0.000000
#
# Coordination Sequence:
#
# PCOD9335393 Si02
#       7
#     4   8   4   8   8   8   8
#     4  10  22  38  64  90 128 166 212 258 310 380
#     4  12  22  41  64  89 129 168 209 267 323 360
#     4  10  22  42  60  88 128 172 204 254 314 366
#     4  11  22  38  61  93 120 160 215 259 312 366
#     4  12  23  40  66  95 126 163 213 267 315 380
#     4  11  23  40  62  86 122 170 213 253 312 373
#     4  10  23  45  68  94 130 167 201 258 335 400
#
# _framework density 19.847867999999998
#
# number of rings (size 3 to 8) (size 9 to 14) (size 15 to 20)
#    0.000    1.000    3.333    3.500    1.167    4.000 
#    6.000    0.000    0.000    0.000    0.000    0.000 
#    0.000    0.000    0.000    0.000    0.000    0.000 
#
# Total GULP energy -134052.037827 kJ/mol
# GULP energy per Si atom -5585.501576 kJ/mol
# Density = 1.980269 g / cm^3
# Si number density = 19.847868 Si / 1000 Ang^3
#
#
#
# Elastic Constant Matrix: (Units=GPa)
#
#
# Indices 1 2 3 4 5 6 
#
# 1 48.9796 58.6953 -12.8914 0.0000 0.0000 0.0000
# 2 58.6953 116.3694 -27.8481 0.0000 0.0000 0.0000
# 3 -12.8914 -27.8481 40.3699 0.0000 0.0000 0.0000
# 4 0.0000 0.0000 0.0000 21.3371 0.0000 0.0000
# 5 0.0000 0.0000 0.0000 0.0000 23.5706 0.0000
# 6 0.0000 0.0000 0.0000 0.0000 0.0000 40.8765
#
#
#
# Elastic Compliance Matrix: (Units=1/GPa)
#
#
# Indices 1 2 3 4 5 6 
#
# 1 0.051720 -0.026511 -0.001772 0.000000 0.000000 0.000000
# 2 -0.026511 0.023882 0.008008 0.000000 0.000000 0.000000
# 3 -0.001772 0.008008 0.029729 0.000000 0.000000 0.000000
# 4 0.000000 0.000000 0.000000 0.046867 0.000000 0.000000
# 5 0.000000 0.000000 0.000000 0.000000 0.042426 0.000000
# 6 0.000000 0.000000 0.000000 0.000000 0.000000 0.024464
#
#
# Mechanical properties :
#
#
# Convention : Reuss Voigt Hill
#
# Bulk Modulus (GPa) = 15.43652 26.84783 21.14217
# Shear Modulus (GPa) = 17.77901 29.67440 23.72671
#
# Velocity S-wave (km/s) = 2.99618 3.87084 3.46125
# Velocity P-wave (km/s) = 4.44564 5.79086 5.16226
#
# Compressibility (1/GPa) = 0.06478144
#
# Stress axis : x y z
#
# Youngs Moduli (GPa) = 19.33488 41.87333 33.63681
#
# Poissons Ratio (x) = 1.11010 0.05960
# Poissons Ratio (y) = 0.51259 -0.26937
# Poissons Ratio (z) = 0.03426 -0.33533
#
# Static dielectric constant tensor:
#      x y z
#    x 1.700250 0.000000 0.000000 
#    y 0.000000 1.621670 0.000000 
#    z 0.000000 0.000000 1.690900 
# 
# From -- ./inp_files/6424.got.cif
#   From: 2010.05.17/outbox.cif.g08.bks.cpg/sg24_4_cif.got.tgz:6424.got - 2010.06.04 00:33:39.
