data_PCOD9335501
_publ_section_title
;
Structure prediction by ZEFSAII (Michael W. Deem and Ramdas Pophale) SiO2 
 PCOD9335501
Probable space group: I 21 21 21
;
_chemical_formula_sum "Si O2"
_cell_formula_units_Z 56
_cell_length_a 5.325993
_cell_length_b 21.470623
_cell_length_c 22.176258
_cell_angle_alpha 90.000000
_cell_angle_beta 90.000000
_cell_angle_gamma 90.000000
_cell_volume 2535.908055
_symmetry_space_group_name_H-M "I 21 21 21"
_symmetry_group_IT_number 24
_symmetry_cell_setting 'orthorhombic'
loop_
_space_group_symop_operation_xyz
x,y,z
-x,1/2-y,z
x,-y,1/2-z
1/2-x,y,-z
1/2+x,1/2+y,1/2+z
1/2-x,-y,1/2+z
1/2+x,1/2-y,-z
-x,1/2+y,1/2-z
loop_
_atom_site_type_symbol
_atom_site_label
_atom_site_fract_x
_atom_site_fract_y
_atom_site_fract_z
Si Si1 0.862737 0.899919 0.165237
Si Si2 0.944484 0.823259 0.377175
Si Si3 0.644525 0.453576 0.559223
Si Si4 0.627413 0.409054 0.172611
Si Si5 0.137000 0.504291 0.596848
Si Si6 0.578246 0.500000 0.750000
Si Si7 0.750000 0.793006 0.500000
Si Si8 0.367143 0.316124 0.247303
O O1 0.640043 0.938936 0.133924
O O2 0.786544 0.834584 0.193300
O O3 0.078546 0.906841 0.114474
O O4 0.925343 0.943464 0.222221
O O5 0.801741 0.834670 0.440480
O O6 0.796522 0.821138 0.313691
O O7 0.000000 0.750000 0.385313
O O8 0.191609 0.865666 0.367595
O O9 0.750000 0.418730 0.500000
O O10 0.867654 0.503025 0.566777
O O11 0.387517 0.494196 0.558418
O O12 0.376994 0.436118 0.140366
O O13 0.766676 0.470872 0.195278
O O14 0.570524 0.369668 0.232817
O O15 0.500000 0.750000 0.488140
O O16 0.500000 0.250000 0.250996
#
# Coordination Sequence:
#
# PCOD9335501 Si02
#       8
#     8   8   8   8   8   4   4   8
#     4  10  23  37  67  98 143 189 235 294 367 450
#     4  11  24  44  66  93 133 192 245 309 365 432
#     4  10  22  43  68  98 141 186 234 295 368 451
#     4  12  23  38  67  96 140 189 239 302 376 439
#     4  10  22  40  65 100 135 184 235 292 363 443
#     4  12  20  42  64  96 138 186 234 286 370 440
#     4  10  24  46  72  92 126 184 254 300 362 428
#     4  12  24  39  63 102 144 185 244 308 376 442
#
# _framework density 22.082820000000002
#
# number of rings (size 3 to 8) (size 9 to 14) (size 15 to 20)
#    0.857    0.286    4.286    2.571    4.000    0.000 
#    0.000    1.429    0.000    0.000    0.000    0.000 
#    4.286    0.000    0.000    0.000    0.000    0.000 
#
# Total GULP energy -156021.271555 kJ/mol
# GULP energy per Si atom -5572.188270 kJ/mol
# Density = 2.203256 g / cm^3
# Si number density = 22.082820 Si / 1000 Ang^3
#
#
#
# Elastic Constant Matrix: (Units=GPa)
#
#
# Indices 1 2 3 4 5 6 
#
# 1 127.8800 30.8561 53.1587 0.0000 0.0000 0.0000
# 2 30.8561 75.4827 40.5098 0.0000 0.0000 0.0000
# 3 53.1587 40.5098 120.7635 0.0000 0.0000 0.0000
# 4 0.0000 0.0000 0.0000 22.5489 0.0000 0.0000
# 5 0.0000 0.0000 0.0000 0.0000 31.8190 0.0000
# 6 0.0000 0.0000 0.0000 0.0000 0.0000 26.0851
#
#
#
# Elastic Compliance Matrix: (Units=1/GPa)
#
#
# Indices 1 2 3 4 5 6 
#
# 1 0.009829 -0.002068 -0.003633 0.000000 0.000000 0.000000
# 2 -0.002068 0.016592 -0.004655 0.000000 0.000000 0.000000
# 3 -0.003633 -0.004655 0.011441 0.000000 0.000000 0.000000
# 4 0.000000 0.000000 0.000000 0.044348 0.000000 0.000000
# 5 0.000000 0.000000 0.000000 0.000000 0.031428 0.000000
# 6 0.000000 0.000000 0.000000 0.000000 0.000000 0.038336
#
#
# Mechanical properties :
#
#
# Convention : Reuss Voigt Hill
#
# Bulk Modulus (GPa) = 58.31060 63.68616 60.99838
# Shear Modulus (GPa) = 28.02633 29.39735 28.71184
#
# Velocity S-wave (km/s) = 3.56637 3.65256 3.60973
# Velocity P-wave (km/s) = 6.58949 6.83305 6.71238
#
# Compressibility (1/GPa) = 0.01714954
#
# Stress axis : x y z
#
# Youngs Moduli (GPa) = 101.73953 60.27022 87.40208
#
# Poissons Ratio (x) = 0.12466 0.31752
# Poissons Ratio (y) = 0.21043 0.40688
# Poissons Ratio (z) = 0.36960 0.28058
#
# Static dielectric constant tensor:
#      x y z
#    x 1.953510 0.000000 0.000000 
#    y 0.000000 1.975810 0.000000 
#    z 0.000000 0.000000 2.004860 
# 
# From -- ./inp_files/34788.got.cif
#   From: 2010.05.17/outbox.cif.g08.bks.cpg/sg24_18_cif.got.tgz:34788.got - 2010.06.04 00:33:39.
