data_PCOD9335188
_publ_section_title
;
Structure prediction by ZEFSAII (Michael W. Deem and Ramdas Pophale) SiO2 
 PCOD9335188
Probable space group: I 21 21 21
;
_chemical_formula_sum "Si O2"
_cell_formula_units_Z 36
_cell_length_a 8.115220
_cell_length_b 25.004087
_cell_length_c 8.276417
_cell_angle_alpha 90.000000
_cell_angle_beta 90.000000
_cell_angle_gamma 90.000000
_cell_volume 1679.398122
_symmetry_space_group_name_H-M "I 21 21 21"
_symmetry_group_IT_number 24
_symmetry_cell_setting 'orthorhombic'
loop_
_space_group_symop_operation_xyz
x,y,z
-x,1/2-y,z
x,-y,1/2-z
1/2-x,y,-z
1/2+x,1/2+y,1/2+z
1/2-x,-y,1/2+z
1/2+x,1/2-y,-z
-x,1/2+y,1/2-z
loop_
_atom_site_type_symbol
_atom_site_label
_atom_site_fract_x
_atom_site_fract_y
_atom_site_fract_z
Si Si1 0.587096 0.030758 0.413090
Si Si2 0.000187 0.142136 0.568071
Si Si3 0.250000 0.021937 0.000000
Si Si4 0.750000 0.296943 0.000000
Si Si5 0.162476 0.118672 0.238927
Si Si6 0.500000 0.250000 0.256827
O O1 0.750000 0.010605 0.500000
O O2 0.611150 0.093186 0.376054
O O3 0.573943 0.000000 0.250000
O O4 0.410289 0.016332 0.491475
O O5 0.028131 0.128842 0.378685
O O6 0.170497 0.133283 0.665610
O O7 0.950339 0.200860 0.625624
O O8 0.203181 0.062503 0.148553
O O9 0.867548 0.337844 0.098199
O O10 0.649119 0.264574 0.134542
#
# Coordination Sequence:
#
# PCOD9335188 Si02
#       6
#     8   8   4   4   8   4
#     4  12  28  45  67 106 142 182 235 286 348 427
#     4  10  21  42  65  98 138 172 232 285 344 411
#     4  11  22  44  78  94 140 192 219 288 362 402
#     4   9  20  40  66  96 130 172 227 280 336 416
#     4   9  19  39  72  99 122 179 236 275 336 425
#     4  10  22  44  66  96 136 178 230 288 348 420
#
# _framework density 21.436252
#
# number of rings (size 3 to 8) (size 9 to 14) (size 15 to 20)
#    0.000    1.778    2.222    1.333    3.111    0.889 
#   14.000    0.000    0.000    0.000    0.000    0.000 
#    0.000    0.000    0.000    0.000    0.000    0.000 
#
# Total GULP energy -100289.885543 kJ/mol
# GULP energy per Si atom -5571.660308 kJ/mol
# Density = 2.138746 g / cm^3
# Si number density = 21.436252 Si / 1000 Ang^3
#
#
#
# Elastic Constant Matrix: (Units=GPa)
#
#
# Indices 1 2 3 4 5 6 
#
# 1 83.6461 24.9533 12.4210 0.0003 -0.0001 -0.0001
# 2 24.9533 159.4884 65.1910 -0.0001 0.0001 0.0001
# 3 12.4210 65.1910 110.1062 0.0065 0.0007 0.0000
# 4 0.0003 -0.0001 0.0065 66.1065 0.0002 -0.0003
# 5 -0.0001 0.0001 0.0007 0.0002 22.0818 0.0000
# 6 -0.0001 0.0001 0.0000 -0.0003 0.0000 19.2805
#
#
#
# Elastic Compliance Matrix: (Units=1/GPa)
#
#
# Indices 1 2 3 4 5 6 
#
# 1 0.012550 -0.001827 -0.000334 0.000000 0.000000 0.000000
# 2 -0.001827 0.008538 -0.004849 0.000000 0.000000 0.000000
# 3 -0.000334 -0.004849 0.011991 -0.000001 0.000000 0.000000
# 4 0.000000 0.000000 -0.000001 0.015127 0.000000 0.000000
# 5 0.000000 0.000000 0.000000 0.000000 0.045286 0.000000
# 6 0.000000 0.000000 0.000000 0.000000 0.000000 0.051866
#
#
# Mechanical properties :
#
#
# Convention : Reuss Voigt Hill
#
# Bulk Modulus (GPa) = 52.47005 62.04124 57.25565
# Shear Modulus (GPa) = 30.16950 38.20545 34.18747
#
# Velocity S-wave (km/s) = 3.75561 4.22629 3.99788
# Velocity P-wave (km/s) = 6.58305 7.26776 6.93386
#
# Compressibility (1/GPa) = 0.01905849
#
# Stress axis : x y z
#
# Youngs Moduli (GPa) = 79.68278 117.12459 83.39749
#
# Poissons Ratio (x) = 0.21399 0.02786
# Poissons Ratio (y) = 0.14558 0.40439
# Poissons Ratio (z) = 0.02662 0.56793
#
# Static dielectric constant tensor:
#      x y z
#    x 1.621570 0.000000 0.000000 
#    y 0.000000 1.829540 0.000000 
#    z 0.000000 0.000000 1.814810 
# 
# From -- ./inp_files/9445.got.cif
#   From: 2010.05.17/outbox.cif.g08.bks.cpg/sg24_5_cif.got.tgz:9445.got - 2010.06.04 00:33:39.
