data_PCOD9335984
_publ_section_title
;
Structure prediction by ZEFSAII (Michael W. Deem and Ramdas Pophale) SiO2 
 PCOD9335984
Probable space group: I 21 21 21
;
_chemical_formula_sum "Si O2"
_cell_formula_units_Z 56
_cell_length_a 20.985154
_cell_length_b 8.151579
_cell_length_c 15.807355
_cell_angle_alpha 90.000000
_cell_angle_beta 90.000000
_cell_angle_gamma 90.000000
_cell_volume 2704.039984
_symmetry_space_group_name_H-M "I 21 21 21"
_symmetry_group_IT_number 24
_symmetry_cell_setting 'orthorhombic'
loop_
_space_group_symop_operation_xyz
x,y,z
-x,1/2-y,z
x,-y,1/2-z
1/2-x,y,-z
1/2+x,1/2+y,1/2+z
1/2-x,-y,1/2+z
1/2+x,1/2-y,-z
-x,1/2+y,1/2-z
loop_
_atom_site_type_symbol
_atom_site_label
_atom_site_fract_x
_atom_site_fract_y
_atom_site_fract_z
Si Si1 0.313599 0.356359 0.550652
Si Si2 0.617694 0.460713 0.497960
Si Si3 0.141797 0.698999 0.411749
Si Si4 0.223836 0.317263 0.258722
Si Si5 0.023948 0.421883 0.993228
Si Si6 0.156847 0.122857 0.686056
Si Si7 0.054473 0.387971 0.668889
O O1 0.250000 0.307838 0.500000
O O2 0.365959 0.223733 0.525195
O O3 0.322663 0.551198 0.538934
O O4 0.309633 0.329749 0.650855
O O5 0.644650 0.618730 0.548775
O O6 0.541460 0.480084 0.507276
O O7 0.649261 0.464674 0.404522
O O8 0.174360 0.706806 0.318877
O O9 0.068873 0.630670 0.427385
O O10 0.253917 0.500000 0.250000
O O11 0.275832 0.175152 0.272608
O O12 0.059711 0.510752 0.917431
O O13 0.000000 0.250000 0.956019
O O14 0.119662 0.291804 0.680351
O O15 0.123096 0.000000 0.750000
O O16 0.041365 0.500000 0.750000
O O17 0.000000 0.250000 0.660015
#
# Coordination Sequence:
#
# PCOD9335984 Si02
#       7
#     8   8   8   8   8   8   8
#     4  11  23  41  71 103 139 185 237 291 359 442
#     4  11  24  44  70 103 137 189 241 303 368 429
#     4  10  25  43  73  95 141 188 236 298 362 437
#     4  10  24  47  67  99 141 187 241 294 360 437
#     4  10  23  44  69  98 135 182 245 298 364 438
#     4  12  26  40  63 102 144 184 236 289 365 443
#     4  12  24  38  65  99 145 185 230 299 371 446
#
# _framework density 20.709754
#
# number of rings (size 3 to 8) (size 9 to 14) (size 15 to 20)
#    0.000    1.143    2.857    2.143    6.000    2.857 
#    0.000    0.000   28.286    0.000    0.000    0.000 
#    0.000    0.000    0.000    0.000    0.000    0.000 
#
# Total GULP energy -156003.208621 kJ/mol
# GULP energy per Si atom -5571.543165 kJ/mol
# Density = 2.066262 g / cm^3
# Si number density = 20.709754 Si / 1000 Ang^3
#
#
#
# Elastic Constant Matrix: (Units=GPa)
#
#
# Indices 1 2 3 4 5 6 
#
# 1 90.0881 42.6182 53.5163 0.0000 0.0000 0.0000
# 2 42.6182 67.2879 40.7189 0.0000 0.0000 0.0000
# 3 53.5163 40.7189 123.6097 0.0000 0.0000 0.0000
# 4 0.0000 0.0000 0.0000 17.9589 0.0000 0.0000
# 5 0.0000 0.0000 0.0000 0.0000 138.3340 0.0000
# 6 0.0000 0.0000 0.0000 0.0000 0.0000 41.6939
#
#
#
# Elastic Compliance Matrix: (Units=1/GPa)
#
#
# Indices 1 2 3 4 5 6 
#
# 1 0.018074 -0.008384 -0.005063 0.000000 0.000000 0.000000
# 2 -0.008384 0.022450 -0.003766 0.000000 0.000000 0.000000
# 3 -0.005063 -0.003766 0.011523 0.000000 0.000000 0.000000
# 4 0.000000 0.000000 0.000000 0.055683 0.000000 0.000000
# 5 0.000000 0.000000 0.000000 0.000000 0.007229 0.000000
# 6 0.000000 0.000000 0.000000 0.000000 0.000000 0.023984
#
#
# Mechanical properties :
#
#
# Convention : Reuss Voigt Hill
#
# Bulk Modulus (GPa) = 56.74897 61.63251 59.19074
# Shear Modulus (GPa) = 27.89516 49.20620 38.55068
#
# Velocity S-wave (km/s) = 3.67407 4.87970 4.31916
# Velocity P-wave (km/s) = 6.74240 7.84687 7.31551
#
# Compressibility (1/GPa) = 0.01762146
#
# Stress axis : x y z
#
# Youngs Moduli (GPa) = 55.32757 44.54289 86.78506
#
# Poissons Ratio (x) = 0.37343 0.43943
# Poissons Ratio (y) = 0.46384 0.32682
# Poissons Ratio (z) = 0.28015 0.16774
#
# Static dielectric constant tensor:
#      x y z
#    x 1.791120 0.000000 0.000000 
#    y 0.000000 1.631660 0.000000 
#    z 0.000000 0.000000 1.757400 
# 
# From -- ./inp_files/27514.got.cif
#   From: 2010.05.17/outbox.cif.g08.bks.cpg/sg24_14_cif.got.tgz:27514.got - 2010.06.04 00:33:39.
