data_PCOD9335271
_publ_section_title
;
Structure prediction by ZEFSAII (Michael W. Deem and Ramdas Pophale) SiO2 
 PCOD9335271
Probable space group: I 21 21 21
;
_chemical_formula_sum "Si O2"
_cell_formula_units_Z 60
_cell_length_a 28.938290
_cell_length_b 4.919737
_cell_length_c 16.343031
_cell_angle_alpha 90.000000
_cell_angle_beta 90.000000
_cell_angle_gamma 90.000000
_cell_volume 2326.737320
_symmetry_space_group_name_H-M "I 21 21 21"
_symmetry_group_IT_number 24
_symmetry_cell_setting 'orthorhombic'
loop_
_space_group_symop_operation_xyz
x,y,z
-x,1/2-y,z
x,-y,1/2-z
1/2-x,y,-z
1/2+x,1/2+y,1/2+z
1/2-x,-y,1/2+z
1/2+x,1/2-y,-z
-x,1/2+y,1/2-z
loop_
_atom_site_type_symbol
_atom_site_label
_atom_site_fract_x
_atom_site_fract_y
_atom_site_fract_z
Si Si1 0.917410 0.358585 0.173939
Si Si2 0.624904 0.777027 0.957169
Si Si3 0.182052 0.573460 0.895941
Si Si4 0.531801 0.987606 0.551361
Si Si5 0.258104 0.958948 0.408829
Si Si6 0.500000 0.250000 0.187660
Si Si7 0.678842 0.141087 0.826704
Si Si8 0.598724 0.242628 0.191147
O O1 0.941446 0.500000 0.250000
O O2 0.899289 0.542307 0.097158
O O3 0.949270 0.124481 0.137944
O O4 0.869162 0.251606 0.209054
O O5 0.580445 0.943269 0.989665
O O6 0.659343 0.945822 0.898229
O O7 0.654967 0.738005 0.037809
O O8 0.215855 0.328826 0.922618
O O9 0.142922 0.391009 0.852204
O O10 0.214443 0.809880 0.857763
O O11 0.500000 0.750000 0.517086
O O12 0.500000 0.250000 0.558429
O O13 0.250000 0.075756 0.500000
O O14 0.210538 0.873023 0.365454
O O15 0.504215 0.500000 0.250000
O O16 0.550043 0.280137 0.142662
O O17 0.703392 0.000000 0.750000
O O18 0.609988 0.500000 0.250000
O O19 0.584845 0.000000 0.250000
#
# Coordination Sequence:
#
# PCOD9335271 Si02
#       8
#     8   8   8   8   8   4   8   8
#     4  11  23  43  73 103 148 200 256 321 384 445
#     4  11  24  46  71 105 149 203 258 306 389 459
#     4  12  27  45  76 106 149 203 240 317 392 453
#     4  11  24  46  68 103 148 197 255 319 373 448
#     4  12  26  46  72 106 147 199 256 312 385 469
#     4   8  16  34  70 102 136 182 234 288 354 442
#     4  11  24  43  73 108 146 193 258 320 373 456
#     4  10  21  44  72 107 147 188 241 299 370 455
#
# _framework density 25.787181
#
# number of rings (size 3 to 8) (size 9 to 14) (size 15 to 20)
#    0.000    1.067    4.000    2.000    3.733    0.533 
#    3.600    2.000    5.867    0.000    0.000    0.000 
#    0.000    0.000    0.000    0.000    0.000    0.000 
#
# Total GULP energy -167472.372287 kJ/mol
# GULP energy per Si atom -5582.412410 kJ/mol
# Density = 2.572849 g / cm^3
# Si number density = 25.787181 Si / 1000 Ang^3
#
#
#
# Elastic Constant Matrix: (Units=GPa)
#
#
# Indices 1 2 3 4 5 6 
#
# 1 172.4170 52.1982 36.4224 0.0000 0.0000 0.0000
# 2 52.1982 162.3380 30.7670 0.0000 0.0000 0.0000
# 3 36.4224 30.7670 49.9583 0.0000 0.0000 0.0000
# 4 0.0000 0.0000 0.0000 22.5276 0.0000 0.0000
# 5 0.0000 0.0000 0.0000 0.0000 12.4441 0.0000
# 6 0.0000 0.0000 0.0000 0.0000 0.0000 37.2337
#
#
#
# Elastic Compliance Matrix: (Units=1/GPa)
#
#
# Indices 1 2 3 4 5 6 
#
# 1 0.007159 -0.001486 -0.004304 0.000000 0.000000 0.000000
# 2 -0.001486 0.007283 -0.003401 0.000000 0.000000 0.000000
# 3 -0.004304 -0.003401 0.025249 0.000000 0.000000 0.000000
# 4 0.000000 0.000000 0.000000 0.044390 0.000000 0.000000
# 5 0.000000 0.000000 0.000000 0.000000 0.080359 0.000000
# 6 0.000000 0.000000 0.000000 0.000000 0.000000 0.026857
#
#
# Mechanical properties :
#
#
# Convention : Reuss Voigt Hill
#
# Bulk Modulus (GPa) = 46.93173 69.27653 58.10413
# Shear Modulus (GPa) = 23.06448 32.12947 27.59697
#
# Velocity S-wave (km/s) = 2.99392 3.53363 3.27491
# Velocity P-wave (km/s) = 5.49460 6.60089 6.07299
#
# Compressibility (1/GPa) = 0.02130755
#
# Stress axis : x y z
#
# Youngs Moduli (GPa) = 139.68342 137.31520 39.60487
#
# Poissons Ratio (x) = 0.20408 0.17046
# Poissons Ratio (y) = 0.20760 0.13471
# Poissons Ratio (z) = 0.60121 0.46707
#
# Static dielectric constant tensor:
#      x y z
#    x 2.152040 0.000000 0.000000 
#    y 0.000000 2.099850 0.000000 
#    z 0.000000 0.000000 2.090380 
# 
# From -- ./inp_files/31689.got.cif
#   From: 2010.05.17/outbox.cif.g08.bks.cpg/sg24_16_cif.got.tgz:31689.got - 2010.06.04 00:33:39.
