data_PCOD9335674
_publ_section_title
;
Structure prediction by ZEFSAII (Michael W. Deem and Ramdas Pophale) SiO2 
 PCOD9335674
Probable space group: I 21 21 21
;
_chemical_formula_sum "Si O2"
_cell_formula_units_Z 56
_cell_length_a 8.536587
_cell_length_b 16.912276
_cell_length_c 20.436042
_cell_angle_alpha 90.000000
_cell_angle_beta 90.000000
_cell_angle_gamma 90.000000
_cell_volume 2950.415051
_symmetry_space_group_name_H-M "I 21 21 21"
_symmetry_group_IT_number 24
_symmetry_cell_setting 'orthorhombic'
loop_
_space_group_symop_operation_xyz
x,y,z
-x,1/2-y,z
x,-y,1/2-z
1/2-x,y,-z
1/2+x,1/2+y,1/2+z
1/2-x,-y,1/2+z
1/2+x,1/2-y,-z
-x,1/2+y,1/2-z
loop_
_atom_site_type_symbol
_atom_site_label
_atom_site_fract_x
_atom_site_fract_y
_atom_site_fract_z
Si Si1 0.820717 0.505869 0.566818
Si Si2 0.682751 0.904979 0.247992
Si Si3 0.839296 0.787701 0.634208
Si Si4 0.098154 0.144247 0.119129
Si Si5 0.510532 0.655297 0.764673
Si Si6 0.086514 0.383280 0.990741
Si Si7 0.341458 0.076705 0.298526
O O1 0.750000 0.469786 0.500000
O O2 0.702274 0.569870 0.597950
O O3 0.859606 0.449069 0.626237
O O4 0.964309 0.558736 0.542501
O O5 0.691460 0.861605 0.318490
O O6 0.508241 0.884109 0.221119
O O7 0.842498 0.878125 0.210844
O O8 0.686366 0.000000 0.250000
O O9 0.706462 0.720820 0.631424
O O10 0.873592 0.815306 0.560745
O O11 0.000000 0.750000 0.659606
O O12 0.020282 0.129348 0.188638
O O13 0.980327 0.151007 0.058306
O O14 0.500000 0.750000 0.768843
O O15 0.677710 0.624741 0.792466
O O16 0.250000 0.427564 0.000000
O O17 0.325653 0.000000 0.250000
#
# Coordination Sequence:
#
# PCOD9335674 Si02
#       7
#     8   8   8   8   8   8   8
#     4  10  22  43  64  91 130 175 210 259 334 386
#     4  11  25  39  62  92 125 170 229 271 321 378
#     4  12  23  36  58  86 131 179 219 258 307 373
#     4  11  23  39  56  85 134 176 209 254 316 378
#     4  12  24  41  64  94 126 169 221 278 331 384
#     4  11  24  34  54  88 130 176 218 248 293 385
#     4  11  22  42  66  90 133 172 211 277 331 384
#
# _framework density 18.98038
#
# number of rings (size 3 to 8) (size 9 to 14) (size 15 to 20)
#    0.000    0.857    4.286    3.857    2.000    0.000 
#    2.571    0.000    0.000    0.000    3.714    0.000 
#    0.000    0.000    0.000    0.000    0.000    0.000 
#
# Total GULP energy -156272.220729 kJ/mol
# GULP energy per Si atom -5581.150740 kJ/mol
# Density = 1.893718 g / cm^3
# Si number density = 18.980380 Si / 1000 Ang^3
#
#
#
# Elastic Constant Matrix: (Units=GPa)
#
#
# Indices 1 2 3 4 5 6 
#
# 1 136.2972 23.9037 8.8525 0.0000 0.0000 0.0000
# 2 23.9037 35.2376 13.8517 0.0000 0.0000 0.0000
# 3 8.8525 13.8517 81.7742 0.0000 0.0000 0.0000
# 4 0.0000 0.0000 0.0000 14.0340 0.0000 0.0000
# 5 0.0000 0.0000 0.0000 0.0000 19.6192 0.0000
# 6 0.0000 0.0000 0.0000 0.0000 0.0000 -24.4826
#
#
#
# Elastic Compliance Matrix: (Units=1/GPa)
#
#
# Indices 1 2 3 4 5 6 
#
# 1 0.008328 -0.005673 0.000059 0.000000 0.000000 0.000000
# 2 -0.005673 0.034267 -0.005190 0.000000 0.000000 0.000000
# 3 0.000059 -0.005190 0.013102 0.000000 0.000000 0.000000
# 4 0.000000 0.000000 0.000000 0.071256 0.000000 0.000000
# 5 0.000000 0.000000 0.000000 0.000000 0.050971 0.000000
# 6 0.000000 0.000000 0.000000 0.000000 0.000000 -0.040845
#
#
# Mechanical properties :
#
#
# Convention : Reuss Voigt Hill
#
# Bulk Modulus (GPa) = 29.33475 38.50274 33.91875
# Shear Modulus (GPa) = 29.40348 15.61418 22.50883
#
# Velocity S-wave (km/s) = 3.94020 2.87130 3.44743
# Velocity P-wave (km/s) = 6.01573 5.59661 5.80995
#
# Compressibility (1/GPa) = 0.03408926
#
# Stress axis : x y z
#
# Youngs Moduli (GPa) = 120.07809 29.18250 76.32677
#
# Poissons Ratio (x) = 0.16554 -0.00453
# Poissons Ratio (y) = 0.68116 0.39617
# Poissons Ratio (z) = -0.00713 0.15147
#
# Static dielectric constant tensor:
#      x y z
#    x 1.779060 0.000000 0.000000 
#    y 0.000000 1.652600 0.000000 
#    z 0.000000 0.000000 1.700860 
# 
# From -- ./inp_files/32839.got.cif
#   From: 2010.05.17/outbox.cif.g08.bks.cpg/sg24_17_cif.got.tgz:32839.got - 2010.06.04 00:33:39.
