data_PCOD9335856
_publ_section_title
;
Structure prediction by ZEFSAII (Michael W. Deem and Ramdas Pophale) SiO2 
 PCOD9335856
Probable space group: I 21 21 21
;
_chemical_formula_sum "Si O2"
_cell_formula_units_Z 52
_cell_length_a 12.178914
_cell_length_b 20.719766
_cell_length_c 8.561969
_cell_angle_alpha 90.000000
_cell_angle_beta 90.000000
_cell_angle_gamma 90.000000
_cell_volume 2160.563631
_symmetry_space_group_name_H-M "I 21 21 21"
_symmetry_group_IT_number 24
_symmetry_cell_setting 'orthorhombic'
loop_
_space_group_symop_operation_xyz
x,y,z
-x,1/2-y,z
x,-y,1/2-z
1/2-x,y,-z
1/2+x,1/2+y,1/2+z
1/2-x,-y,1/2+z
1/2+x,1/2-y,-z
-x,1/2+y,1/2-z
loop_
_atom_site_type_symbol
_atom_site_label
_atom_site_fract_x
_atom_site_fract_y
_atom_site_fract_z
Si Si1 0.374843 0.365643 0.329642
Si Si2 0.910415 0.960378 0.106381
Si Si3 0.664906 0.699515 0.865144
Si Si4 0.643321 0.431186 0.781616
Si Si5 0.176665 0.680884 0.358138
Si Si6 0.011801 0.412272 0.960495
Si Si7 0.500000 0.750000 0.071484
O O1 0.370085 0.402834 0.493957
O O2 0.258706 0.366119 0.238272
O O3 0.408911 0.290086 0.337534
O O4 0.469585 0.394418 0.218069
O O5 0.648461 0.000000 0.750000
O O6 0.026282 0.938766 0.186603
O O7 0.931905 0.018929 0.987412
O O8 0.697431 0.633077 0.783928
O O9 0.647471 0.758692 0.748195
O O10 0.750000 0.715934 0.000000
O O11 0.552707 0.695564 0.962092
O O12 0.700100 0.500000 0.750000
O O13 0.607378 0.419691 0.960880
O O14 0.250000 0.706164 0.500000
O O15 0.076581 0.641419 0.434572
#
# Coordination Sequence:
#
# PCOD9335856 Si02
#       7
#     8   8   8   8   8   8   4
#     4  11  21  39  61  93 131 165 215 261 320 387
#     4   9  19  37  61  88 122 164 208 250 312 383
#     4  12  23  40  68  91 127 171 212 266 330 385
#     4   9  20  41  63  89 121 161 217 262 315 383
#     4  10  23  39  59  95 132 162 215 263 314 390
#     4   9  20  38  63  90 126 172 207 264 319 383
#     4  12  24  38  66  98 120 170 208 268 316 394
#
# _framework density 24.067793999999999
#
# number of rings (size 3 to 8) (size 9 to 14) (size 15 to 20)
#    0.000    2.154    3.077    1.385    2.154    2.462 
#    0.000   19.231    3.385    0.000    0.000    0.000 
#    0.000    0.000    0.000    0.000    0.000    0.000 
#
# Total GULP energy -145089.755535 kJ/mol
# GULP energy per Si atom -5580.375213 kJ/mol
# Density = 2.401301 g / cm^3
# Si number density = 24.067794 Si / 1000 Ang^3
#
#
#
# Elastic Constant Matrix: (Units=GPa)
#
#
# Indices 1 2 3 4 5 6 
#
# 1 17.2387 2.3938 10.5285 -0.0001 0.0000 0.0000
# 2 2.3938 92.7662 25.3463 -0.0003 0.0000 0.0001
# 3 10.5285 25.3463 111.2861 0.0011 -0.0003 -0.0004
# 4 -0.0001 -0.0003 0.0011 43.8023 -0.0003 -0.0003
# 5 0.0000 0.0000 -0.0003 -0.0003 3.7368 0.0001
# 6 0.0000 0.0001 -0.0004 -0.0003 0.0001 8.2308
#
#
#
# Elastic Compliance Matrix: (Units=1/GPa)
#
#
# Indices 1 2 3 4 5 6 
#
# 1 0.061567 0.000003 -0.005825 0.000000 -0.000001 0.000000
# 2 0.000003 0.011495 -0.002618 0.000000 0.000000 0.000000
# 3 -0.005825 -0.002618 0.010133 0.000000 0.000001 0.000000
# 4 0.000000 0.000000 0.000000 0.022830 0.000002 0.000001
# 5 -0.000001 0.000000 0.000001 0.000002 0.267608 -0.000002
# 6 0.000000 0.000000 0.000000 0.000001 -0.000002 0.121495
#
#
# Mechanical properties :
#
#
# Convention : Reuss Voigt Hill
#
# Bulk Modulus (GPa) = 15.07989 33.09202 24.08596
# Shear Modulus (GPa) = 9.36129 23.35547 16.35838
#
# Velocity S-wave (km/s) = 1.97433 3.11851 2.60989
# Velocity P-wave (km/s) = 3.38770 5.17167 4.37165
#
# Compressibility (1/GPa) = 0.06631347
#
# Stress axis : x y z
#
# Youngs Moduli (GPa) = 16.24259 86.99344 98.68432
#
# Poissons Ratio (x) = -0.00026 0.57487
# Poissons Ratio (y) = -0.00005 0.25839
# Poissons Ratio (z) = 0.09462 0.22778
#
# Static dielectric constant tensor:
#      x y z
#    x 2.083810 0.000000 0.000000 
#    y 0.000000 1.918380 0.000000 
#    z 0.000000 0.000000 1.936410 
# 
# From -- ./inp_files/13089.got.cif
#   From: 2010.05.17/outbox.cif.g08.bks.cpg/sg24_7_cif.got.tgz:13089.got - 2010.06.04 00:33:39.
