data_PCOD9335152
_publ_section_title
;
Structure prediction by ZEFSAII (Michael W. Deem and Ramdas Pophale) SiO2 
 PCOD9335152
Probable space group: I 21 21 21
;
_chemical_formula_sum "Si O2"
_cell_formula_units_Z 48
_cell_length_a 5.091410
_cell_length_b 14.805149
_cell_length_c 27.186622
_cell_angle_alpha 90.000000
_cell_angle_beta 90.000000
_cell_angle_gamma 90.000000
_cell_volume 2049.302654
_symmetry_space_group_name_H-M "I 21 21 21"
_symmetry_group_IT_number 24
_symmetry_cell_setting 'orthorhombic'
loop_
_space_group_symop_operation_xyz
x,y,z
-x,1/2-y,z
x,-y,1/2-z
1/2-x,y,-z
1/2+x,1/2+y,1/2+z
1/2-x,-y,1/2+z
1/2+x,1/2-y,-z
-x,1/2+y,1/2-z
loop_
_atom_site_type_symbol
_atom_site_label
_atom_site_fract_x
_atom_site_fract_y
_atom_site_fract_z
Si Si1 0.806489 0.000000 0.750000
Si Si2 0.750000 0.685617 0.000000
Si Si3 0.828023 0.439018 0.946131
Si Si4 0.156424 0.005868 0.655358
Si Si5 0.754051 0.684941 0.110165
Si Si6 0.446031 0.351865 0.810630
Si Si7 0.682794 0.838305 0.581341
O O1 0.655110 0.910033 0.734708
O O2 0.963573 0.980451 0.799566
O O3 0.500000 0.750000 0.999990
O O4 0.753941 0.643477 0.945600
O O5 0.957672 0.490020 0.899503
O O6 0.534925 0.414306 0.928449
O O7 0.048167 0.357618 0.948688
O O8 0.750000 0.474331 0.000000
O O9 0.295633 0.101969 0.647314
O O10 0.319124 0.916276 0.669955
O O11 0.500000 0.750000 0.117743
O O12 0.000000 0.750000 0.112642
O O13 0.500000 0.250000 0.795150
O O14 0.264251 0.338389 0.859626
O O15 0.500000 0.750000 0.570840
#
# Coordination Sequence:
#
# PCOD9335152 Si02
#       7
#     4   4   8   8   8   8   8
#     4  12  24  50  74 104 150 196 272 318 392 466
#     4   8  16  36  64 102 146 194 230 284 370 446
#     4  11  23  40  67 105 145 191 248 309 382 458
#     4  11  26  46  72 108 150 198 262 319 388 468
#     4  10  23  43  72 108 154 194 243 310 375 453
#     4  10  24  48  74 104 148 203 258 328 396 466
#     4  10  21  41  68  99 143 191 245 310 381 453
#
# _framework density 23.422604
#
# number of rings (size 3 to 8) (size 9 to 14) (size 15 to 20)
#    0.000    1.667    1.667    1.500    3.500    2.000 
#    6.000    0.000    0.000    0.000    0.000    0.000 
#    0.000    0.000    0.000    0.000    0.000    0.000 
#
# Total GULP energy -133646.142787 kJ/mol
# GULP energy per Si atom -5568.589283 kJ/mol
# Density = 2.336929 g / cm^3
# Si number density = 23.422604 Si / 1000 Ang^3
#
#
#
# Elastic Constant Matrix: (Units=GPa)
#
#
# Indices 1 2 3 4 5 6 
#
# 1 122.6356 48.1433 44.1692 0.0000 0.0000 0.0000
# 2 48.1433 154.8476 76.4108 0.0000 0.0000 0.0000
# 3 44.1692 76.4108 154.8844 0.0000 0.0000 0.0000
# 4 0.0000 0.0000 0.0000 43.5485 0.0000 0.0000
# 5 0.0000 0.0000 0.0000 0.0000 422.1675 0.0000
# 6 0.0000 0.0000 0.0000 0.0000 0.0000 18.3274
#
#
#
# Elastic Compliance Matrix: (Units=1/GPa)
#
#
# Indices 1 2 3 4 5 6 
#
# 1 0.009605 -0.002161 -0.001673 0.000000 0.000000 0.000000
# 2 -0.002161 0.009022 -0.003835 0.000000 0.000000 0.000000
# 3 -0.001673 -0.003835 0.008825 0.000000 0.000000 0.000000
# 4 0.000000 0.000000 0.000000 0.022963 0.000000 0.000000
# 5 0.000000 0.000000 0.000000 0.000000 0.002369 0.000000
# 6 0.000000 0.000000 0.000000 0.000000 0.000000 0.054563
#
#
# Mechanical properties :
#
#
# Convention : Reuss Voigt Hill
#
# Bulk Modulus (GPa) = 82.54019 85.53492 84.03755
# Shear Modulus (GPa) = 39.45612 114.38496 76.92054
#
# Velocity S-wave (km/s) = 4.10876 6.99581 5.73686
# Velocity P-wave (km/s) = 7.60429 10.09220 8.93526
#
# Compressibility (1/GPa) = 0.01211531
#
# Stress axis : x y z
#
# Youngs Moduli (GPa) = 104.11160 110.83984 113.30884
#
# Poissons Ratio (x) = 0.23948 0.18959
# Poissons Ratio (y) = 0.22495 0.43451
# Poissons Ratio (z) = 0.17420 0.42505
#
# Static dielectric constant tensor:
#      x y z
#    x 1.840940 0.000000 0.000000 
#    y 0.000000 1.845700 0.000000 
#    z 0.000000 0.000000 1.948600 
# 
# From -- ./inp_files/36480.got.cif
#   From: 2010.05.17/outbox.cif.g08.bks.cpg/sg24_19_cif.got.tgz:36480.got - 2010.06.04 00:33:39.
