data_PCOD9335851
_publ_section_title
;
Structure prediction by ZEFSAII (Michael W. Deem and Ramdas Pophale) SiO2 
 PCOD9335851
Probable space group: I 21 21 21
;
_chemical_formula_sum "Si O2"
_cell_formula_units_Z 32
_cell_length_a 29.084702
_cell_length_b 9.072035
_cell_length_c 5.606623
_cell_angle_alpha 90.000000
_cell_angle_beta 90.000000
_cell_angle_gamma 90.000000
_cell_volume 1479.349161
_symmetry_space_group_name_H-M "I 21 21 21"
_symmetry_group_IT_number 24
_symmetry_cell_setting 'orthorhombic'
loop_
_space_group_symop_operation_xyz
x,y,z
-x,1/2-y,z
x,-y,1/2-z
1/2-x,y,-z
1/2+x,1/2+y,1/2+z
1/2-x,-y,1/2+z
1/2+x,1/2-y,-z
-x,1/2+y,1/2-z
loop_
_atom_site_type_symbol
_atom_site_label
_atom_site_fract_x
_atom_site_fract_y
_atom_site_fract_z
Si Si1 0.773797 0.821670 0.247139
Si Si2 0.102227 0.500000 0.750000
Si Si3 0.132407 0.753225 0.427129
Si Si4 0.054118 0.747622 0.055175
Si Si5 0.602192 0.500000 0.250000
O O1 0.750000 0.776635 0.500000
O O2 0.825729 0.761712 0.247815
O O3 0.774904 0.000000 0.250000
O O4 0.750000 0.775694 0.000000
O O5 0.133313 0.611019 0.597916
O O6 0.070545 0.398548 0.583359
O O7 0.083363 0.751313 0.296558
O O8 0.133179 0.901358 0.578023
O O9 0.000000 0.750000 0.094248
O O10 0.070733 0.887089 0.899288
#
# Coordination Sequence:
#
# PCOD9335851 Si02
#       5
#     8   4   8   8   4
#     4  10  23  40  71 106 136 172 230 294 351 405
#     4  10  23  38  66  98 130 172 232 278 347 400
#     4  11  24  42  68  97 136 177 224 285 343 411
#     4  11  23  41  65  95 133 178 227 281 342 411
#     4  10  25  42  66  92 140 180 224 272 351 410
#
# _framework density 21.631135
#
# number of rings (size 3 to 8) (size 9 to 14) (size 15 to 20)
#    0.000    1.500    0.000    3.750   12.250    8.000 
#    0.000    0.000    5.500    0.000    0.000    0.000 
#    0.000    0.000    0.000    0.000    0.000    0.000 
#
# Total GULP energy -89560.822014 kJ/mol
# GULP energy per Si atom -5597.551376 kJ/mol
# Density = 2.158190 g / cm^3
# Si number density = 21.631135 Si / 1000 Ang^3
#
#
#
# Elastic Constant Matrix: (Units=GPa)
#
#
# Indices 1 2 3 4 5 6 
#
# 1 112.3068 23.2449 41.8903 0.0000 0.0000 0.0000
# 2 23.2449 107.2872 42.7457 0.0000 0.0000 0.0001
# 3 41.8903 42.7457 112.6231 -0.0001 -0.0001 -0.0001
# 4 0.0000 0.0000 -0.0001 1.2940 0.0000 0.0000
# 5 0.0000 0.0000 -0.0001 0.0000 33.5219 0.0000
# 6 0.0000 0.0001 -0.0001 0.0000 0.0000 1.7351
#
#
#
# Elastic Compliance Matrix: (Units=1/GPa)
#
#
# Indices 1 2 3 4 5 6 
#
# 1 0.010402 -0.000839 -0.003551 0.000000 0.000000 0.000000
# 2 -0.000839 0.011049 -0.003882 0.000000 0.000000 0.000000
# 3 -0.003551 -0.003882 0.011673 0.000001 0.000000 0.000000
# 4 0.000000 0.000000 0.000001 0.772810 0.000000 -0.000018
# 5 0.000000 0.000000 0.000000 0.000000 0.029831 0.000001
# 6 0.000000 0.000000 0.000000 -0.000018 0.000001 0.576322
#
#
# Mechanical properties :
#
#
# Convention : Reuss Voigt Hill
#
# Bulk Modulus (GPa) = 60.30702 60.88655 60.59679
# Shear Modulus (GPa) = 3.48637 22.26594 12.87615
#
# Velocity S-wave (km/s) = 1.27092 3.21182 2.44244
# Velocity P-wave (km/s) = 5.48579 6.47790 6.00238
#
# Compressibility (1/GPa) = 0.01658182
#
# Stress axis : x y z
#
# Youngs Moduli (GPa) = 96.13313 90.50536 85.66723
#
# Poissons Ratio (x) = 0.07594 0.30417
# Poissons Ratio (y) = 0.08066 0.33252
# Poissons Ratio (z) = 0.34134 0.35130
#
# Static dielectric constant tensor:
#      x y z
#    x 1.747330 0.000000 0.000000 
#    y 0.000000 1.762660 0.000000 
#    z 0.000000 0.000000 1.833590 
# 
# From -- ./inp_files/1175.got.cif
#   From: 2010.05.17/outbox.cif.g08.bks.cpg/sg24_1_cif.got.tgz:1175.got - 2010.06.04 00:33:39.
