data_PCOD9335836
_publ_section_title
;
Structure prediction by ZEFSAII (Michael W. Deem and Ramdas Pophale) SiO2 
 PCOD9335836
Probable space group: I 21 21 21
;
_chemical_formula_sum "Si O2"
_cell_formula_units_Z 44
_cell_length_a 25.374304
_cell_length_b 13.410634
_cell_length_c 6.313299
_cell_angle_alpha 90.000000
_cell_angle_beta 90.000000
_cell_angle_gamma 90.000000
_cell_volume 2148.324132
_symmetry_space_group_name_H-M "I 21 21 21"
_symmetry_group_IT_number 24
_symmetry_cell_setting 'orthorhombic'
loop_
_space_group_symop_operation_xyz
x,y,z
-x,1/2-y,z
x,-y,1/2-z
1/2-x,y,-z
1/2+x,1/2+y,1/2+z
1/2-x,-y,1/2+z
1/2+x,1/2-y,-z
-x,1/2+y,1/2-z
loop_
_atom_site_type_symbol
_atom_site_label
_atom_site_fract_x
_atom_site_fract_y
_atom_site_fract_z
Si Si1 0.807846 0.823178 0.555132
Si Si2 0.873522 0.826097 0.961641
Si Si3 0.339897 0.500000 0.750000
Si Si4 0.048299 0.000000 0.250000
Si Si5 0.017498 0.597692 0.863129
Si Si6 0.604035 0.300158 0.832711
Si Si7 0.500000 0.250000 0.032781
O O1 0.750000 0.784215 0.500000
O O2 0.825958 0.840946 0.796865
O O3 0.851581 0.742568 0.486360
O O4 0.811330 0.925349 0.415624
O O5 0.932773 0.829575 0.879014
O O6 0.871939 0.727527 0.103524
O O7 0.872588 0.922214 0.113563
O O8 0.085584 0.913690 0.343999
O O9 0.013044 0.059331 0.427564
O O10 0.039309 0.500000 0.750000
O O11 0.985089 0.656753 0.683518
O O12 0.550915 0.235840 0.883280
#
# Coordination Sequence:
#
# PCOD9335836 Si02
#       7
#     8   8   4   4   8   8   4
#     4  11  25  44  69  98 139 183 235 289 359 422
#     4  11  23  41  64 101 139 185 220 290 348 418
#     4  10  23  36  68 100 136 174 223 280 346 434
#     4  12  25  42  66 102 134 188 237 288 352 428
#     4  12  23  37  65  96 139 175 225 278 346 424
#     4  11  25  43  65  95 140 180 237 285 352 418
#     4  12  22  44  62 100 138 188 224 296 356 422
#
# _framework density 20.481082000000001
#
# number of rings (size 3 to 8) (size 9 to 14) (size 15 to 20)
#    0.000    0.727    3.636    4.364    5.091    2.182 
#    0.000    0.000    4.000    0.000    0.000    0.000 
#    0.000    0.000    0.000    0.000    0.000    0.000 
#
# Total GULP energy -122572.382595 kJ/mol
# GULP energy per Si atom -5571.471936 kJ/mol
# Density = 2.043447 g / cm^3
# Si number density = 20.481082 Si / 1000 Ang^3
#
#
#
# Elastic Constant Matrix: (Units=GPa)
#
#
# Indices 1 2 3 4 5 6 
#
# 1 109.4122 18.3306 26.5364 0.0000 0.0000 0.0000
# 2 18.3306 78.4895 19.0748 0.0000 0.0000 0.0000
# 3 26.5364 19.0748 82.1115 0.0000 0.0000 0.0000
# 4 0.0000 0.0000 0.0000 22.9006 0.0000 0.0000
# 5 0.0000 0.0000 0.0000 0.0000 6.0363 0.0000
# 6 0.0000 0.0000 0.0000 0.0000 0.0000 24.9905
#
#
#
# Elastic Compliance Matrix: (Units=1/GPa)
#
#
# Indices 1 2 3 4 5 6 
#
# 1 0.010118 -0.001662 -0.002884 0.000000 0.000000 0.000000
# 2 -0.001662 0.013776 -0.002663 0.000000 0.000000 0.000000
# 3 -0.002884 -0.002663 0.013729 0.000000 0.000000 0.000000
# 4 0.000000 0.000000 0.000000 0.043667 0.000000 0.000000
# 5 0.000000 0.000000 0.000000 0.000000 0.165664 0.000000
# 6 0.000000 0.000000 0.000000 0.000000 0.000000 0.040015
#
#
# Mechanical properties :
#
#
# Convention : Reuss Voigt Hill
#
# Bulk Modulus (GPa) = 43.09408 44.21078 43.65243
# Shear Modulus (GPa) = 16.17488 24.52358 20.34923
#
# Velocity S-wave (km/s) = 2.81329 3.46407 3.15550
# Velocity P-wave (km/s) = 5.62489 6.13455 5.88524
#
# Compressibility (1/GPa) = 0.02320505
#
# Stress axis : x y z
#
# Youngs Moduli (GPa) = 98.83766 72.59052 72.83788
#
# Poissons Ratio (x) = 0.12065 0.21004
# Poissons Ratio (y) = 0.16428 0.19397
# Poissons Ratio (z) = 0.28501 0.19331
#
# Static dielectric constant tensor:
#      x y z
#    x 1.743970 0.000000 0.000000 
#    y 0.000000 1.756930 0.000000 
#    z 0.000000 0.000000 1.907090 
# 
# From -- ./inp_files/7061.got.cif
#   From: 2010.05.17/outbox.cif.g08.bks.cpg/sg24_4_cif.got.tgz:7061.got - 2010.06.04 00:33:39.
