data_PCOD9335616
_publ_section_title
;
Structure prediction by ZEFSAII (Michael W. Deem and Ramdas Pophale) SiO2 
 PCOD9335616
Probable space group: I 21 21 21
;
_chemical_formula_sum "Si O2"
_cell_formula_units_Z 36
_cell_length_a 19.769911
_cell_length_b 7.721768
_cell_length_c 8.580611
_cell_angle_alpha 90.000000
_cell_angle_beta 90.000000
_cell_angle_gamma 90.000000
_cell_volume 1309.904630
_symmetry_space_group_name_H-M "I 21 21 21"
_symmetry_group_IT_number 24
_symmetry_cell_setting 'orthorhombic'
loop_
_space_group_symop_operation_xyz
x,y,z
-x,1/2-y,z
x,-y,1/2-z
1/2-x,y,-z
1/2+x,1/2+y,1/2+z
1/2-x,-y,1/2+z
1/2+x,1/2-y,-z
-x,1/2+y,1/2-z
loop_
_atom_site_type_symbol
_atom_site_label
_atom_site_fract_x
_atom_site_fract_y
_atom_site_fract_z
Si Si1 0.210081 0.807815 0.666094
Si Si2 0.500000 0.750000 0.258270
Si Si3 0.250000 0.205128 0.500000
Si Si4 0.500000 0.750000 0.751237
Si Si5 0.090004 0.594459 0.508578
Si Si6 0.600652 0.306280 0.510434
O O1 0.250000 0.814183 0.500000
O O2 0.237063 0.710238 0.825729
O O3 0.145071 0.707317 0.599740
O O4 0.205238 0.000000 0.750000
O O5 0.473134 0.604001 0.375346
O O6 0.562485 0.686573 0.153384
O O7 0.324745 0.119224 0.531393
O O8 0.440046 0.676614 0.646769
O O9 0.543258 0.631311 0.870354
O O10 0.112423 0.400776 0.473187
#
# Coordination Sequence:
#
# PCOD9335616 Si02
#       6
#     8   4   4   4   8   8
#     4  12  27  49  73 111 157 207 261 316 399 473
#     4  10  22  42  66 104 142 190 248 310 374 458
#     4  12  26  50  78 120 158 206 252 340 388 474
#     4  10  24  46  70 116 152 196 254 326 384 464
#     4  11  24  46  74 109 144 205 253 318 387 456
#     4  11  24  47  74 113 150 195 261 316 394 456
#
# _framework density 27.482914000000001
#
# number of rings (size 3 to 8) (size 9 to 14) (size 15 to 20)
#    0.000    0.889    3.333    2.667    1.556    3.556 
#    4.000    0.000    0.000    0.000    0.000    0.000 
#    0.000    0.000    0.000    0.000    0.000    0.000 
#
# Total GULP energy -100369.232180 kJ/mol
# GULP energy per Si atom -5576.068454 kJ/mol
# Density = 2.742036 g / cm^3
# Si number density = 27.482914 Si / 1000 Ang^3
#
#
#
# Elastic Constant Matrix: (Units=GPa)
#
#
# Indices 1 2 3 4 5 6 
#
# 1 189.8694 28.0180 80.8776 0.0000 0.0000 0.0000
# 2 28.0180 79.4706 42.5033 0.0000 0.0000 0.0000
# 3 80.8776 42.5033 264.8434 0.0000 0.0000 0.0000
# 4 0.0000 0.0000 0.0000 47.5877 0.0000 0.0000
# 5 0.0000 0.0000 0.0000 0.0000 71.3847 0.0000
# 6 0.0000 0.0000 0.0000 0.0000 0.0000 39.1354
#
#
#
# Elastic Compliance Matrix: (Units=1/GPa)
#
#
# Indices 1 2 3 4 5 6 
#
# 1 0.006171 -0.001277 -0.001679 0.000000 0.000000 0.000000
# 2 -0.001277 0.014029 -0.001861 0.000000 0.000000 0.000000
# 3 -0.001679 -0.001861 0.004587 0.000000 0.000000 0.000000
# 4 0.000000 0.000000 0.000000 0.021014 0.000000 0.000000
# 5 0.000000 0.000000 0.000000 0.000000 0.014009 0.000000
# 6 0.000000 0.000000 0.000000 0.000000 0.000000 0.025552
#
#
# Mechanical properties :
#
#
# Convention : Reuss Voigt Hill
#
# Bulk Modulus (GPa) = 66.00247 92.99792 79.50019
# Shear Modulus (GPa) = 49.97580 57.14053 53.55816
#
# Velocity S-wave (km/s) = 4.26893 4.56469 4.41929
# Velocity P-wave (km/s) = 6.95459 7.85454 7.41823
#
# Compressibility (1/GPa) = 0.01515095
#
# Stress axis : x y z
#
# Youngs Moduli (GPa) = 162.05808 71.28021 217.98876
#
# Poissons Ratio (x) = 0.09105 0.36609
# Poissons Ratio (y) = 0.20700 0.40576
# Poissons Ratio (z) = 0.27216 0.13268
#
# Static dielectric constant tensor:
#      x y z
#    x 2.139580 0.000000 0.000000 
#    y 0.000000 2.528990 0.000000 
#    z 0.000000 0.000000 2.178150 
# 
# From -- ./inp_files/14858.got.cif
#   From: 2010.05.17/outbox.cif.g08.bks.cpg/sg24_8_cif.got.tgz:14858.got - 2010.06.04 00:33:39.
