data_PCOD9335457
_publ_section_title
;
Structure prediction by ZEFSAII (Michael W. Deem and Ramdas Pophale) SiO2 
 PCOD9335457
Probable space group: I 21 21 21
;
_chemical_formula_sum "Si O2"
_cell_formula_units_Z 36
_cell_length_a 12.153832
_cell_length_b 5.481141
_cell_length_c 20.845846
_cell_angle_alpha 90.000000
_cell_angle_beta 90.000000
_cell_angle_gamma 90.000000
_cell_volume 1388.684948
_symmetry_space_group_name_H-M "I 21 21 21"
_symmetry_group_IT_number 24
_symmetry_cell_setting 'orthorhombic'
loop_
_space_group_symop_operation_xyz
x,y,z
-x,1/2-y,z
x,-y,1/2-z
1/2-x,y,-z
1/2+x,1/2+y,1/2+z
1/2-x,-y,1/2+z
1/2+x,1/2-y,-z
-x,1/2+y,1/2-z
loop_
_atom_site_type_symbol
_atom_site_label
_atom_site_fract_x
_atom_site_fract_y
_atom_site_fract_z
Si Si1 0.869574 0.422260 0.535740
Si Si2 0.333128 0.417478 0.105210
Si Si3 0.612145 0.322634 0.913064
Si Si4 0.284088 0.500000 0.250000
Si Si5 0.107004 0.856497 0.191899
O O1 0.750000 0.424766 0.500000
O O2 0.879277 0.655814 0.582563
O O3 0.933772 0.524736 0.473489
O O4 0.881559 0.158718 0.569400
O O5 0.202863 0.392166 0.082031
O O6 0.343646 0.441856 0.182422
O O7 0.500000 0.250000 0.878035
O O8 0.670748 0.500802 0.862990
O O9 0.199982 0.708585 0.228310
O O10 0.000000 0.750000 0.157745
O O11 0.051663 0.000000 0.250000
#
# Coordination Sequence:
#
# PCOD9335457 Si02
#       5
#     8   8   8   4   8
#     4  10  22  40  59  82 123 161 208 261 313 359
#     4  11  23  39  59  88 123 164 205 258 310 378
#     4  11  23  40  63  92 123 172 220 265 316 382
#     4  12  22  34  58  82 122 168 218 240 316 380
#     4  12  22  35  51  85 128 170 204 253 302 379
#
# _framework density 25.923807
#
# number of rings (size 3 to 8) (size 9 to 14) (size 15 to 20)
#    0.000    0.889    3.333    6.667    0.000    1.778 
#    0.000    0.000    0.000    0.000    0.000    3.111 
#    0.000    0.000    0.000    0.000    0.000    0.000 
#
# Total GULP energy -100366.658913 kJ/mol
# GULP energy per Si atom -5575.925495 kJ/mol
# Density = 2.586480 g / cm^3
# Si number density = 25.923807 Si / 1000 Ang^3
#
#
#
# Elastic Constant Matrix: (Units=GPa)
#
#
# Indices 1 2 3 4 5 6 
#
# 1 36.1206 18.3859 4.8631 0.0000 0.0000 0.0000
# 2 18.3859 184.2264 99.3249 0.0000 0.0000 0.0000
# 3 4.8631 99.3249 227.4624 0.0000 0.0000 0.0000
# 4 0.0000 0.0000 0.0000 63.9071 0.0000 0.0000
# 5 0.0000 0.0000 0.0000 0.0000 30.7114 0.0000
# 6 0.0000 0.0000 0.0000 0.0000 0.0000 32.7063
#
#
#
# Elastic Compliance Matrix: (Units=1/GPa)
#
#
# Indices 1 2 3 4 5 6 
#
# 1 0.029292 -0.003382 0.000851 0.000000 0.000000 0.000000
# 2 -0.003382 0.007490 -0.003198 0.000000 0.000000 0.000000
# 3 0.000851 -0.003198 0.005775 0.000000 0.000000 0.000000
# 4 0.000000 0.000000 0.000000 0.015648 0.000000 0.000000
# 5 0.000000 0.000000 0.000000 0.000000 0.032561 0.000000
# 6 0.000000 0.000000 0.000000 0.000000 0.000000 0.030575
#
#
# Mechanical properties :
#
#
# Convention : Reuss Voigt Hill
#
# Bulk Modulus (GPa) = 32.15719 76.99525 54.57622
# Shear Modulus (GPa) = 34.92451 47.14732 41.03591
#
# Velocity S-wave (km/s) = 3.67440 4.26923 3.98294
# Velocity P-wave (km/s) = 5.51662 7.35302 6.50000
#
# Compressibility (1/GPa) = 0.03109724
#
# Stress axis : x y z
#
# Youngs Moduli (GPa) = 34.13909 133.51181 173.16809
#
# Poissons Ratio (x) = 0.45152 -0.14728
# Poissons Ratio (y) = 0.11546 0.55384
# Poissons Ratio (z) = -0.02904 0.42701
#
# Static dielectric constant tensor:
#      x y z
#    x 2.202000 0.000000 0.000000 
#    y 0.000000 2.206450 0.000000 
#    z 0.000000 0.000000 2.095420 
# 
# From -- ./inp_files/33568.got.cif
#   From: 2010.05.17/outbox.cif.g08.bks.cpg/sg24_17_cif.got.tgz:33568.got - 2010.06.04 00:33:39.
