data_PCOD9335456
_publ_section_title
;
Structure prediction by ZEFSAII (Michael W. Deem and Ramdas Pophale) SiO2 
 PCOD9335456
Probable space group: I 21 21 21
;
_chemical_formula_sum "Si O2"
_cell_formula_units_Z 36
_cell_length_a 6.869226
_cell_length_b 24.497949
_cell_length_c 10.243243
_cell_angle_alpha 90.000000
_cell_angle_beta 90.000000
_cell_angle_gamma 90.000000
_cell_volume 1723.752888
_symmetry_space_group_name_H-M "I 21 21 21"
_symmetry_group_IT_number 24
_symmetry_cell_setting 'orthorhombic'
loop_
_space_group_symop_operation_xyz
x,y,z
-x,1/2-y,z
x,-y,1/2-z
1/2-x,y,-z
1/2+x,1/2+y,1/2+z
1/2-x,-y,1/2+z
1/2+x,1/2-y,-z
-x,1/2+y,1/2-z
loop_
_atom_site_type_symbol
_atom_site_label
_atom_site_fract_x
_atom_site_fract_y
_atom_site_fract_z
Si Si1 0.592415 0.306673 0.399044
Si Si2 0.225941 0.245390 0.142289
Si Si3 0.750000 0.586585 0.500000
Si Si4 0.871326 0.962118 0.376100
Si Si5 0.913192 0.862476 0.683262
O O1 0.500000 0.250000 0.454098
O O2 0.750000 0.327861 0.500000
O O3 0.693149 0.286388 0.265715
O O4 0.450702 0.352081 0.338216
O O5 0.333329 0.303736 0.135851
O O6 0.000000 0.250000 0.165896
O O7 0.250000 0.219839 0.000000
O O8 0.591624 0.551936 0.581768
O O9 0.604509 0.617606 0.397129
O O10 0.750000 0.985406 0.500000
O O11 0.755286 0.906306 0.342171
O O12 0.866039 0.000000 0.250000
#
# Coordination Sequence:
#
# PCOD9335456 Si02
#       5
#     8   8   4   8   8
#     4  10  22  40  58  89 133 174 215 264 324 385
#     4  11  22  35  61  92 125 170 220 267 314 379
#     4  10  22  40  72  98 130 166 222 276 332 390
#     4  10  23  46  71  98 133 168 218 278 340 403
#     4  10  23  41  65  94 131 170 220 271 329 391
#
# _framework density 20.884663
#
# number of rings (size 3 to 8) (size 9 to 14) (size 15 to 20)
#    0.000    1.778    0.000    4.667    7.778    3.556 
#    4.000    1.111    0.000    0.000    0.000    0.000 
#    0.000    0.000    0.000    0.000    0.000    0.000 
#
# Total GULP energy -100445.694190 kJ/mol
# GULP energy per Si atom -5580.316344 kJ/mol
# Density = 2.083713 g / cm^3
# Si number density = 20.884663 Si / 1000 Ang^3
#
#
#
# Elastic Constant Matrix: (Units=GPa)
#
#
# Indices 1 2 3 4 5 6 
#
# 1 149.7757 31.7623 44.9888 0.0047 0.0000 0.0001
# 2 31.7623 58.4854 54.7635 0.0072 0.0000 0.0001
# 3 44.9888 54.7635 119.6680 0.0289 0.0000 0.0001
# 4 0.0047 0.0072 0.0289-1696.2385 -0.0008 0.0007
# 5 0.0000 0.0000 0.0000 -0.0008 47.2442 0.0001
# 6 0.0001 0.0001 0.0001 0.0007 0.0001 -4.6106
#
#
#
# Elastic Compliance Matrix: (Units=1/GPa)
#
#
# Indices 1 2 3 4 5 6 
#
# 1 0.007744 -0.002589 -0.001727 0.000000 0.000000 0.000000
# 2 -0.002589 0.030784 -0.013114 0.000000 0.000000 0.000000
# 3 -0.001727 -0.013114 0.015007 0.000000 0.000000 0.000000
# 4 0.000000 0.000000 0.000000 -0.000590 0.000000 0.000000
# 5 0.000000 0.000000 0.000000 0.000000 0.021167 0.000000
# 6 0.000000 0.000000 0.000000 0.000000 0.000000 -0.216890
#
#
# Mechanical properties :
#
#
# Convention : Reuss Voigt Hill
#
# Bulk Modulus (GPa) = 53.54620 65.66203 59.60411
# Shear Modulus (GPa) = -49.16781 -317.62669 -183.39725
#
# Velocity S-wave (km/s) = -4.85733 -12.34570 -9.38110
# Velocity P-wave (km/s) = 2.40074 13.10394 9.42010
#
# Compressibility (1/GPa) = 0.01867546
#
# Stress axis : x y z
#
# Youngs Moduli (GPa) = 129.12660 32.48431 66.63521
#
# Poissons Ratio (x) = 0.08410 0.11505
# Poissons Ratio (y) = 0.33431 0.87388
# Poissons Ratio (z) = 0.22295 0.42601
#
# Static dielectric constant tensor:
#      x y z
#    x 1.908950 0.000000 0.000000 
#    y 0.000000 1.787940 0.000000 
#    z 0.000000 0.000000 1.913010 
# 
# From -- ./inp_files/17715.got.cif
#   From: 2010.05.17/outbox.cif.g08.bks.cpg/sg24_9_cif.got.tgz:17715.got - 2010.06.04 00:33:39.
