data_PCOD9335175
_publ_section_title
;
Structure prediction by ZEFSAII (Michael W. Deem and Ramdas Pophale) SiO2 
 PCOD9335175
Probable space group: I 21 21 21
;
_chemical_formula_sum "Si O2"
_cell_formula_units_Z 44
_cell_length_a 27.401342
_cell_length_b 13.491172
_cell_length_c 6.033111
_cell_angle_alpha 90.000000
_cell_angle_beta 90.000000
_cell_angle_gamma 90.000000
_cell_volume 2230.297657
_symmetry_space_group_name_H-M "I 21 21 21"
_symmetry_group_IT_number 24
_symmetry_cell_setting 'orthorhombic'
loop_
_space_group_symop_operation_xyz
x,y,z
-x,1/2-y,z
x,-y,1/2-z
1/2-x,y,-z
1/2+x,1/2+y,1/2+z
1/2-x,-y,1/2+z
1/2+x,1/2-y,-z
-x,1/2+y,1/2-z
loop_
_atom_site_type_symbol
_atom_site_label
_atom_site_fract_x
_atom_site_fract_y
_atom_site_fract_z
Si Si1 0.572209 0.886561 0.323392
Si Si2 0.652104 0.752773 0.092499
Si Si3 0.918390 0.252857 0.214320
Si Si4 0.500000 0.750000 0.071437
Si Si5 0.110912 0.082560 0.894996
Si Si6 0.311490 0.000000 0.750000
Si Si7 0.750000 0.667606 0.000000
O O1 0.621475 0.838395 0.215944
O O2 0.572478 0.848644 0.578646
O O3 0.524546 0.834204 0.219272
O O4 0.571459 0.000000 0.250000
O O5 0.634766 0.653338 0.213487
O O6 0.633467 0.752934 0.838809
O O7 0.709798 0.740788 0.104125
O O8 0.956341 0.277448 0.406735
O O9 0.920161 0.343865 0.045016
O O10 0.083949 0.000000 0.750000
O O11 0.152742 0.034981 0.050994
O O12 0.277942 0.091599 0.666892
#
# Coordination Sequence:
#
# PCOD9335175 Si02
#       7
#     8   8   8   4   8   4   4
#     4  10  23  45  69  91 126 167 212 266 329 394
#     4  10  22  37  60  87 126 171 219 266 322 380
#     4  10  21  42  62  90 128 165 210 266 323 387
#     4  10  22  42  68  98 120 162 214 268 326 394
#     4  11  19  37  55  89 130 179 213 259 324 395
#     4  12  22  34  58  90 138 180 216 268 328 388
#     4  12  20  36  58  92 130 176 224 260 320 386
#
# _framework density 19.728307999999998
#
# number of rings (size 3 to 8) (size 9 to 14) (size 15 to 20)
#    0.000    1.455    3.636    1.636    0.000    2.909 
#    0.000   29.091    4.000    0.000    0.000    0.000 
#    0.000    0.000    0.000    0.000    0.000    0.000 
#
# Total GULP energy -122688.027842 kJ/mol
# GULP energy per Si atom -5576.728538 kJ/mol
# Density = 1.968341 g / cm^3
# Si number density = 19.728308 Si / 1000 Ang^3
#
#
#
# Elastic Constant Matrix: (Units=GPa)
#
#
# Indices 1 2 3 4 5 6 
#
# 1 70.8758 40.8213 9.4224 0.0000 0.0000 0.0000
# 2 40.8213 114.8595 36.3723 0.0000 0.0000 0.0000
# 3 9.4224 36.3723 86.8114 0.0000 0.0000 0.0000
# 4 0.0000 0.0000 0.0000 11.6583 0.0000 0.0000
# 5 0.0000 0.0000 0.0000 0.0000 22.7816 0.0000
# 6 0.0000 0.0000 0.0000 0.0000 0.0000 27.3097
#
#
#
# Elastic Compliance Matrix: (Units=1/GPa)
#
#
# Indices 1 2 3 4 5 6 
#
# 1 0.017792 -0.006586 0.000828 0.000000 0.000000 0.000000
# 2 -0.006586 0.012476 -0.004512 0.000000 0.000000 0.000000
# 3 0.000828 -0.004512 0.013320 0.000000 0.000000 0.000000
# 4 0.000000 0.000000 0.000000 0.085776 0.000000 0.000000
# 5 0.000000 0.000000 0.000000 0.000000 0.043895 0.000000
# 6 0.000000 0.000000 0.000000 0.000000 0.000000 0.036617
#
#
# Mechanical properties :
#
#
# Convention : Reuss Voigt Hill
#
# Bulk Modulus (GPa) = 43.38741 49.53098 46.45919
# Shear Modulus (GPa) = 20.99978 24.74529 22.87254
#
# Velocity S-wave (km/s) = 3.26613 3.54546 3.40866
# Velocity P-wave (km/s) = 6.02193 6.47467 6.25240
#
# Compressibility (1/GPa) = 0.02304816
#
# Stress axis : x y z
#
# Youngs Moduli (GPa) = 56.20472 80.15567 75.07555
#
# Poissons Ratio (x) = 0.52787 -0.06217
# Poissons Ratio (y) = 0.37014 0.33876
# Poissons Ratio (z) = -0.04654 0.36169
#
# Static dielectric constant tensor:
#      x y z
#    x 1.744280 0.000000 0.000000 
#    y 0.000000 1.701510 0.000000 
#    z 0.000000 0.000000 1.751550 
# 
# From -- ./inp_files/7687.got.cif
#   From: 2010.05.17/outbox.cif.g08.bks.cpg/sg24_4_cif.got.tgz:7687.got - 2010.06.04 00:33:39.
