data_PCOD9335452
_publ_section_title
;
Structure prediction by ZEFSAII (Michael W. Deem and Ramdas Pophale) SiO2 
 PCOD9335452
Probable space group: I 21 21 21
;
_chemical_formula_sum "Si O2"
_cell_formula_units_Z 28
_cell_length_a 11.754249
_cell_length_b 12.329084
_cell_length_c 8.617198
_cell_angle_alpha 90.000000
_cell_angle_beta 90.000000
_cell_angle_gamma 90.000000
_cell_volume 1248.796779
_symmetry_space_group_name_H-M "I 21 21 21"
_symmetry_group_IT_number 24
_symmetry_cell_setting 'orthorhombic'
loop_
_space_group_symop_operation_xyz
x,y,z
-x,1/2-y,z
x,-y,1/2-z
1/2-x,y,-z
1/2+x,1/2+y,1/2+z
1/2-x,-y,1/2+z
1/2+x,1/2-y,-z
-x,1/2+y,1/2-z
loop_
_atom_site_type_symbol
_atom_site_label
_atom_site_fract_x
_atom_site_fract_y
_atom_site_fract_z
Si Si1 0.645675 0.824664 0.817468
Si Si2 0.883463 0.939444 0.474165
Si Si3 0.053539 0.000000 0.750000
Si Si4 0.123490 0.217458 0.631928
O O1 0.586283 0.847486 0.653448
O O2 0.780264 0.797286 0.801832
O O3 0.622845 0.938841 0.902561
O O4 0.618383 0.732706 0.945085
O O5 0.750000 0.916854 0.500000
O O6 0.969973 0.952722 0.616173
O O7 0.133314 0.906495 0.820078
O O8 0.000000 0.250000 0.691187
#
# Coordination Sequence:
#
# PCOD9335452 Si02
#       4
#     8   8   4   8
#     4  10  22  39  72  92 146 170 224 276 353 397
#     4  11  19  38  70 109 119 180 222 283 326 422
#     4  12  24  38  80  96 142 174 240 276 354 398
#     4  11  20  41  68 101 133 187 219 288 332 409
#
# _framework density 22.421582000000001
#
# number of rings (size 3 to 8) (size 9 to 14) (size 15 to 20)
#    0.000    1.143    5.714    3.429    0.000    0.000 
#    0.000    4.286   44.000    0.000    0.000    0.000 
#    0.000    0.000    0.000    0.000    0.000    0.000 
#
# Total GULP energy -77996.933467 kJ/mol
# GULP energy per Si atom -5571.209533 kJ/mol
# Density = 2.237055 g / cm^3
# Si number density = 22.421582 Si / 1000 Ang^3
#
#
#
# Elastic Constant Matrix: (Units=GPa)
#
#
# Indices 1 2 3 4 5 6 
#
# 1 65.2674 22.9418 24.6174 0.0000 0.0000 0.0000
# 2 22.9418 117.3456 69.4752 0.0000 0.0000 0.0000
# 3 24.6174 69.4752 144.6061 0.0000 0.0000 0.0000
# 4 0.0000 0.0000 0.0000 49.1483 0.0000 0.0000
# 5 0.0000 0.0000 0.0000 0.0000 -4.1010 0.0000
# 6 0.0000 0.0000 0.0000 0.0000 0.0000 41.0855
#
#
#
# Elastic Compliance Matrix: (Units=1/GPa)
#
#
# Indices 1 2 3 4 5 6 
#
# 1 0.016777 -0.002221 -0.001789 0.000000 0.000000 0.000000
# 2 -0.002221 0.012203 -0.005485 0.000000 0.000000 0.000000
# 3 -0.001789 -0.005485 0.009855 0.000000 0.000000 0.000000
# 4 0.000000 0.000000 0.000000 0.020347 0.000000 0.000000
# 5 0.000000 0.000000 0.000000 0.000000 -0.243841 0.000000
# 6 0.000000 0.000000 0.000000 0.000000 0.000000 0.024340
#
#
# Mechanical properties :
#
#
# Convention : Reuss Voigt Hill
#
# Bulk Modulus (GPa) = 50.38847 62.36533 56.37690
# Shear Modulus (GPa) = -37.11565 31.23886 -2.93840
#
# Velocity S-wave (km/s) = -4.07302 3.73668 -1.14602
# Velocity P-wave (km/s) = 0.63458 6.81852 4.84226
#
# Compressibility (1/GPa) = 0.01984581
#
# Stress axis : x y z
#
# Youngs Moduli (GPa) = 59.60544 81.94404 101.46965
#
# Poissons Ratio (x) = 0.18198 0.18154
# Poissons Ratio (y) = 0.13237 0.55656
# Poissons Ratio (z) = 0.10664 0.44947
#
# Static dielectric constant tensor:
#      x y z
#    x 1.935060 0.000000 0.000000 
#    y 0.000000 1.879140 0.000000 
#    z 0.000000 0.000000 1.924530 
# 
# From -- ./inp_files/10112.got.cif
#   From: 2010.05.17/outbox.cif.g08.bks.cpg/sg24_6_cif.got.tgz:10112.got - 2010.06.04 00:33:39.
