data_PCOD9335947
_publ_section_title
;
Structure prediction by ZEFSAII (Michael W. Deem and Ramdas Pophale) SiO2 
 PCOD9335947
Probable space group: I 21 21 21
;
_chemical_formula_sum "Si O2"
_cell_formula_units_Z 32
_cell_length_a 14.718909
_cell_length_b 12.611434
_cell_length_c 7.388503
_cell_angle_alpha 90.000000
_cell_angle_beta 90.000000
_cell_angle_gamma 90.000000
_cell_volume 1371.502317
_symmetry_space_group_name_H-M "I 21 21 21"
_symmetry_group_IT_number 24
_symmetry_cell_setting 'orthorhombic'
loop_
_space_group_symop_operation_xyz
x,y,z
-x,1/2-y,z
x,-y,1/2-z
1/2-x,y,-z
1/2+x,1/2+y,1/2+z
1/2-x,-y,1/2+z
1/2+x,1/2-y,-z
-x,1/2+y,1/2-z
loop_
_atom_site_type_symbol
_atom_site_label
_atom_site_fract_x
_atom_site_fract_y
_atom_site_fract_z
Si Si1 0.837726 0.071403 0.083072
Si Si2 0.492798 0.870241 0.413201
Si Si3 0.844371 0.221875 0.388958
Si Si4 0.967819 0.600382 0.999754
O O1 0.820164 0.180576 0.188692
O O2 0.870882 0.000000 0.250000
O O3 0.750000 0.018737 0.000000
O O4 0.902435 0.093674 0.915986
O O5 0.500000 0.750000 0.486127
O O6 0.452534 0.872549 0.213188
O O7 0.456417 0.973287 0.520886
O O8 0.750000 0.221501 0.500000
O O9 0.892907 0.335725 0.389513
O O10 0.930651 0.149747 0.463563
#
# Coordination Sequence:
#
# PCOD9335947 Si02
#       4
#     8   8   8   8
#     4  12  26  38  67 104 141 180 237 299 359 425
#     4  11  23  41  69  97 137 181 242 284 363 425
#     4  11  22  44  68  96 140 183 233 294 361 421
#     4  10  23  43  70  99 136 191 232 295 363 424
#
# _framework density 23.332079
#
# number of rings (size 3 to 8) (size 9 to 14) (size 15 to 20)
#    0.000    1.000    5.000    2.250    7.000    0.000 
#    0.000    1.250    0.000    0.000    0.000    0.000 
#    0.000    0.000    0.000    0.000    0.000    0.000 
#
# Total GULP energy -89076.552971 kJ/mol
# GULP energy per Si atom -5567.284561 kJ/mol
# Density = 2.327897 g / cm^3
# Si number density = 23.332079 Si / 1000 Ang^3
#
#
#
# Elastic Constant Matrix: (Units=GPa)
#
#
# Indices 1 2 3 4 5 6 
#
# 1 75.6439 23.9808 3.5477 0.0000 0.0000 0.0000
# 2 23.9808 207.4172 14.8160 0.0000 0.0000 0.0000
# 3 3.5477 14.8160 59.4302 0.0000 0.0000 0.0000
# 4 0.0000 0.0000 0.0000 9.0811 0.0000 0.0000
# 5 0.0000 0.0000 0.0000 0.0000 22.5643 0.0000
# 6 0.0000 0.0000 0.0000 0.0000 0.0000 12.2235
#
#
#
# Elastic Compliance Matrix: (Units=1/GPa)
#
#
# Indices 1 2 3 4 5 6 
#
# 1 0.013734 -0.001557 -0.000432 0.000000 0.000000 0.000000
# 2 -0.001557 0.005085 -0.001175 0.000000 0.000000 0.000000
# 3 -0.000432 -0.001175 0.017145 0.000000 0.000000 0.000000
# 4 0.000000 0.000000 0.000000 0.110119 0.000000 0.000000
# 5 0.000000 0.000000 0.000000 0.000000 0.044318 0.000000
# 6 0.000000 0.000000 0.000000 0.000000 0.000000 0.081810
#
#
# Mechanical properties :
#
#
# Convention : Reuss Voigt Hill
#
# Bulk Modulus (GPa) = 33.74161 47.46449 40.60305
# Shear Modulus (GPa) = 17.33601 28.78353 23.05977
#
# Velocity S-wave (km/s) = 2.72878 3.51614 3.14718
# Velocity P-wave (km/s) = 4.94178 6.07219 5.53591
#
# Compressibility (1/GPa) = 0.02963700
#
# Stress axis : x y z
#
# Youngs Moduli (GPa) = 72.81362 196.65174 58.32564
#
# Poissons Ratio (x) = 0.30619 0.02518
# Poissons Ratio (y) = 0.11337 0.06852
# Poissons Ratio (z) = 0.03143 0.23102
#
# Static dielectric constant tensor:
#      x y z
#    x 1.896060 0.000000 0.000000 
#    y 0.000000 2.052270 0.000000 
#    z 0.000000 0.000000 1.836100 
# 
# From -- ./inp_files/11962.got.cif
#   From: 2010.05.17/outbox.cif.g08.bks.cpg/sg24_6_cif.got.tgz:11962.got - 2010.06.04 00:33:39.
