data_PCOD9335377
_publ_section_title
;
Structure prediction by ZEFSAII (Michael W. Deem and Ramdas Pophale) SiO2 
 PCOD9335377
Probable space group: I 21 21 21
;
_chemical_formula_sum "Si O2"
_cell_formula_units_Z 64
_cell_length_a 8.835833
_cell_length_b 24.914226
_cell_length_c 15.319309
_cell_angle_alpha 90.000000
_cell_angle_beta 90.000000
_cell_angle_gamma 90.000000
_cell_volume 3372.361129
_symmetry_space_group_name_H-M "I 21 21 21"
_symmetry_group_IT_number 24
_symmetry_cell_setting 'orthorhombic'
loop_
_space_group_symop_operation_xyz
x,y,z
-x,1/2-y,z
x,-y,1/2-z
1/2-x,y,-z
1/2+x,1/2+y,1/2+z
1/2-x,-y,1/2+z
1/2+x,1/2-y,-z
-x,1/2+y,1/2-z
loop_
_atom_site_type_symbol
_atom_site_label
_atom_site_fract_x
_atom_site_fract_y
_atom_site_fract_z
Si Si1 0.311417 0.496096 0.901389
Si Si2 0.658041 0.497658 0.854340
Si Si3 0.319168 0.186194 0.252951
Si Si4 0.179195 0.105947 0.592273
Si Si5 0.817660 0.893552 0.902651
Si Si6 0.815824 0.810177 0.754023
Si Si7 0.180496 0.877644 0.406221
Si Si8 0.817552 0.876328 0.402636
O O1 0.491800 0.503713 0.896665
O O2 0.235781 0.549276 0.862902
O O3 0.277338 0.436375 0.867389
O O4 0.250000 0.494797 0.000000
O O5 0.640203 0.500000 0.750000
O O6 0.761826 0.546565 0.884539
O O7 0.719688 0.439342 0.881251
O O8 0.273654 0.147728 0.332806
O O9 0.275240 0.248004 0.266509
O O10 0.501899 0.185058 0.246143
O O11 0.246946 0.161711 0.166219
O O12 0.250000 0.121614 0.500000
O O13 0.998200 0.105860 0.588321
O O14 0.770328 0.846423 0.836925
O O15 0.750000 0.887378 0.000000
O O16 0.743930 0.833649 0.666032
O O17 0.250000 0.865419 0.500000
O O18 0.998944 0.873877 0.408415
O O19 0.750000 0.869764 0.500000
#
# Coordination Sequence:
#
# PCOD9335377 Si02
#       8
#     8   8   8   8   8   8   8   8
#     4   9  20  37  58  89 124 155 193 237 289 354
#     4  11  22  38  62  93 126 158 197 245 298 358
#     4  10  23  43  59  88 115 156 206 246 299 349
#     4  11  22  39  63  88 122 158 196 246 298 357
#     4  10  22  38  60  91 119 157 200 241 297 357
#     4  10  23  41  63  81 120 157 199 255 293 350
#     4  11  23  39  63  89 121 157 196 245 296 358
#     4  10  22  39  60  90 118 157 197 241 297 354
#
# _framework density 18.977802000000001
#
# number of rings (size 3 to 8) (size 9 to 14) (size 15 to 20)
#    0.000    1.750    1.250    2.625    3.500    6.500 
#    0.000    0.000    0.000    0.000    0.000    0.000 
#    0.000    0.000    0.000    0.000    0.000    0.000 
#
# Total GULP energy -178755.936053 kJ/mol
# GULP energy per Si atom -5586.123002 kJ/mol
# Density = 1.893461 g / cm^3
# Si number density = 18.977802 Si / 1000 Ang^3
#
#
#
# Elastic Constant Matrix: (Units=GPa)
#
#
# Indices 1 2 3 4 5 6 
#
# 1 34.9008 22.5643 28.3875 0.0000 0.0000 0.0000
# 2 22.5643 78.8333 16.8189 0.0002 0.0000 0.0000
# 3 28.3875 16.8189 99.1607 0.0002 0.0000 0.0000
# 4 0.0000 0.0002 0.0002 53.9901 0.0000 0.0000
# 5 0.0000 0.0000 0.0000 0.0000 27.1140 0.0000
# 6 0.0000 0.0000 0.0000 0.0000 0.0000 29.2974
#
#
#
# Elastic Compliance Matrix: (Units=1/GPa)
#
#
# Indices 1 2 3 4 5 6 
#
# 1 0.044193 -0.010324 -0.010901 0.000000 0.000000 0.000000
# 2 -0.010324 0.015573 0.000314 0.000000 0.000000 0.000000
# 3 -0.010901 0.000314 0.013152 0.000000 0.000000 0.000000
# 4 0.000000 0.000000 0.000000 0.018522 0.000000 0.000000
# 5 0.000000 0.000000 0.000000 0.000000 0.036881 0.000000
# 6 0.000000 0.000000 0.000000 0.000000 0.000000 0.034133
#
#
# Mechanical properties :
#
#
# Convention : Reuss Voigt Hill
#
# Bulk Modulus (GPa) = 32.15653 38.71512 35.43583
# Shear Modulus (GPa) = 23.29476 31.75526 27.52501
#
# Velocity S-wave (km/s) = 3.50733 4.09502 3.81252
# Velocity P-wave (km/s) = 5.77780 6.54243 6.17197
#
# Compressibility (1/GPa) = 0.03109788
#
# Stress axis : x y z
#
# Youngs Moduli (GPa) = 22.62782 64.21398 76.03446
#
# Poissons Ratio (x) = 0.66293 0.82881
# Poissons Ratio (y) = 0.23360 -0.02388
# Poissons Ratio (z) = 0.24665 -0.02017
#
# Static dielectric constant tensor:
#      x y z
#    x 1.636240 0.000000 0.000000 
#    y 0.000000 1.664680 0.000000 
#    z 0.000000 0.000000 1.633310 
# 
# From -- ./inp_files/25209.got.cif
#   From: 2010.05.17/outbox.cif.g08.bks.cpg/sg24_13_cif.got.tgz:25209.got - 2010.06.04 00:33:39.
