data_PCOD9335855
_publ_section_title
;
Structure prediction by ZEFSAII (Michael W. Deem and Ramdas Pophale) SiO2 
 PCOD9335855
Probable space group: I 21 21 21
;
_chemical_formula_sum "Si O2"
_cell_formula_units_Z 56
_cell_length_a 14.602786
_cell_length_b 13.398001
_cell_length_c 12.217737
_cell_angle_alpha 90.000000
_cell_angle_beta 90.000000
_cell_angle_gamma 90.000000
_cell_volume 2390.377537
_symmetry_space_group_name_H-M "I 21 21 21"
_symmetry_group_IT_number 24
_symmetry_cell_setting 'orthorhombic'
loop_
_space_group_symop_operation_xyz
x,y,z
-x,1/2-y,z
x,-y,1/2-z
1/2-x,y,-z
1/2+x,1/2+y,1/2+z
1/2-x,-y,1/2+z
1/2+x,1/2-y,-z
-x,1/2+y,1/2-z
loop_
_atom_site_type_symbol
_atom_site_label
_atom_site_fract_x
_atom_site_fract_y
_atom_site_fract_z
Si Si1 0.625960 0.309483 0.865331
Si Si2 0.457127 0.144917 0.663154
Si Si3 0.181842 0.197693 0.779439
Si Si4 0.648165 0.248496 0.463828
Si Si5 0.661278 0.529693 0.445498
Si Si6 0.358131 0.342765 0.032105
Si Si7 0.039965 0.546722 0.979559
O O1 0.583803 0.385501 0.777853
O O2 0.712589 0.270874 0.794839
O O3 0.651764 0.379873 0.966836
O O4 0.591490 0.211117 0.929561
O O5 0.500000 0.250000 0.700086
O O6 0.393105 0.184411 0.562671
O O7 0.525775 0.067737 0.608938
O O8 0.154591 0.198952 0.653834
O O9 0.178414 0.087925 0.832692
O O10 0.128964 0.276044 0.858326
O O11 0.750000 0.216672 0.500000
O O12 0.584016 0.151685 0.443799
O O13 0.750000 0.473773 0.500000
O O14 0.561773 0.479900 0.437944
O O15 0.250000 0.342614 0.000000
O O16 0.396075 0.453355 0.045855
#
# Coordination Sequence:
#
# PCOD9335855 Si02
#       7
#     8   8   8   8   8   8   8
#     4   9  18  39  68  91 120 169 216 260 313 386
#     4  10  23  39  57  89 129 169 209 251 323 386
#     4   9  19  41  69  89 122 178 217 255 312 385
#     4  11  22  43  66  89 130 173 216 259 322 393
#     4   9  21  42  66  94 125 162 221 268 316 371
#     4   9  20  40  66  97 126 160 214 269 320 374
#     4  11  24  41  60 101 132 163 207 272 329 379
#
# _framework density 23.42726
#
# number of rings (size 3 to 8) (size 9 to 14) (size 15 to 20)
#    0.000    2.286    1.429    2.143    2.000    3.429 
#   12.857    0.000    0.000    0.000    0.000    0.000 
#    0.000    0.000    0.000    0.000    0.000    0.000 
#
# Total GULP energy -156114.203719 kJ/mol
# GULP energy per Si atom -5575.507276 kJ/mol
# Density = 2.337394 g / cm^3
# Si number density = 23.427260 Si / 1000 Ang^3
#
#
#
# Elastic Constant Matrix: (Units=GPa)
#
#
# Indices 1 2 3 4 5 6 
#
# 1 81.2766 29.2342 18.7778 0.0000 0.0000 0.0000
# 2 29.2342 70.0131 25.2436 0.0000 0.0000 0.0000
# 3 18.7778 25.2436 147.8080 0.0000 0.0000 0.0000
# 4 0.0000 0.0000 0.0000 23.3642 0.0000 0.0000
# 5 0.0000 0.0000 0.0000 0.0000 11.8394 0.0000
# 6 0.0000 0.0000 0.0000 0.0000 0.0000 37.1813
#
#
#
# Elastic Compliance Matrix: (Units=1/GPa)
#
#
# Indices 1 2 3 4 5 6 
#
# 1 0.014581 -0.005776 -0.000866 0.000000 0.000000 0.000000
# 2 -0.005776 0.017509 -0.002256 0.000000 0.000000 0.000000
# 3 -0.000866 -0.002256 0.007261 0.000000 0.000000 0.000000
# 4 0.000000 0.000000 0.000000 0.042801 0.000000 0.000000
# 5 0.000000 0.000000 0.000000 0.000000 0.084464 0.000000
# 6 0.000000 0.000000 0.000000 0.000000 0.000000 0.026895
#
#
# Mechanical properties :
#
#
# Convention : Reuss Voigt Hill
#
# Bulk Modulus (GPa) = 46.39600 49.51209 47.95405
# Shear Modulus (GPa) = 22.88412 29.53312 26.20862
#
# Velocity S-wave (km/s) = 3.12880 3.55439 3.34836
# Velocity P-wave (km/s) = 5.73583 6.16646 5.95504
#
# Compressibility (1/GPa) = 0.02155358
#
# Stress axis : x y z
#
# Youngs Moduli (GPa) = 68.58055 57.11510 137.72396
#
# Poissons Ratio (x) = 0.32991 0.11926
# Poissons Ratio (y) = 0.39614 0.31076
# Poissons Ratio (z) = 0.05939 0.12887
#
# Static dielectric constant tensor:
#      x y z
#    x 1.997520 0.000000 0.000000 
#    y 0.000000 1.937310 0.000000 
#    z 0.000000 0.000000 1.952860 
# 
# From -- ./inp_files/20827.got.cif
#   From: 2010.05.17/outbox.cif.g08.bks.cpg/sg24_11_cif.got.tgz:20827.got - 2010.06.04 00:33:39.
