data_PCOD9335236
_publ_section_title
;
Structure prediction by ZEFSAII (Michael W. Deem and Ramdas Pophale) SiO2 
 PCOD9335236
Probable space group: I 21 21 21
;
_chemical_formula_sum "Si O2"
_cell_formula_units_Z 64
_cell_length_a 17.116369
_cell_length_b 12.298780
_cell_length_c 15.428785
_cell_angle_alpha 90.000000
_cell_angle_beta 90.000000
_cell_angle_gamma 90.000000
_cell_volume 3247.920577
_symmetry_space_group_name_H-M "I 21 21 21"
_symmetry_group_IT_number 24
_symmetry_cell_setting 'orthorhombic'
loop_
_space_group_symop_operation_xyz
x,y,z
-x,1/2-y,z
x,-y,1/2-z
1/2-x,y,-z
1/2+x,1/2+y,1/2+z
1/2-x,-y,1/2+z
1/2+x,1/2-y,-z
-x,1/2+y,1/2-z
loop_
_atom_site_type_symbol
_atom_site_label
_atom_site_fract_x
_atom_site_fract_y
_atom_site_fract_z
Si Si1 0.838217 0.885805 0.503185
Si Si2 0.911902 0.718800 0.623977
Si Si3 0.462297 0.866606 0.933684
Si Si4 0.552267 0.524411 0.117364
Si Si5 0.348574 0.779239 0.194696
Si Si6 0.376924 0.461499 0.341945
Si Si7 0.888754 0.036979 0.349121
Si Si8 0.799252 0.744454 0.090835
O O1 0.750000 0.844711 0.500000
O O2 0.891761 0.789848 0.540502
O O3 0.838633 0.980437 0.576279
O O4 0.868702 0.938780 0.414781
O O5 0.904795 0.590258 0.612987
O O6 0.856571 0.747120 0.704310
O O7 0.000000 0.750000 0.650709
O O8 0.500000 0.750000 0.954182
O O9 0.521587 0.922995 0.865828
O O10 0.372722 0.837354 0.912755
O O11 0.462618 0.936279 0.020355
O O12 0.597808 0.618500 0.169002
O O13 0.467290 0.504475 0.157200
O O14 0.375183 0.668093 0.147925
O O15 0.261624 0.797466 0.162071
O O16 0.341967 0.500000 0.250000
O O17 0.833601 0.138331 0.379148
O O18 0.877166 0.000000 0.250000
O O19 0.750000 0.750217 0.000000
#
# Coordination Sequence:
#
# PCOD9335236 Si02
#       8
#     8   8   8   8   8   8   8   8
#     4  12  26  43  66 100 138 170 226 282 346 407
#     4  12  24  45  63  96 141 180 217 265 344 429
#     4  10  21  43  68  96 130 176 235 283 332 401
#     4  12  22  39  67  98 133 177 225 273 331 420
#     4  12  23  36  67 103 137 170 218 279 349 409
#     4  12  21  39  69 100 134 169 215 283 348 410
#     4  11  24  44  73  99 133 181 237 293 344 409
#     4  11  23  42  66 103 138 169 223 298 351 400
#
# _framework density 19.704915
#
# number of rings (size 3 to 8) (size 9 to 14) (size 15 to 20)
#    0.000    0.500    5.000    4.875    1.750    1.000 
#    2.250    6.875    0.000    0.000    0.000    0.000 
#    0.000    0.000    0.000    0.000    0.000    0.000 
#
# Total GULP energy -178855.243648 kJ/mol
# GULP energy per Si atom -5589.226364 kJ/mol
# Density = 1.966007 g / cm^3
# Si number density = 19.704915 Si / 1000 Ang^3
#
#
#
# Elastic Constant Matrix: (Units=GPa)
#
#
# Indices 1 2 3 4 5 6 
#
# 1 93.7699 -11.8136 30.8364 0.0000 0.0000 0.0000
# 2 -11.8136 65.4047 8.3107 0.0000 0.0000 0.0000
# 3 30.8364 8.3107 114.7854 0.0000 0.0000 0.0000
# 4 0.0000 0.0000 0.0000 16.8240 0.0000 0.0000
# 5 0.0000 0.0000 0.0000 0.0000 16.1279 0.0000
# 6 0.0000 0.0000 0.0000 0.0000 0.0000 12.9286
#
#
#
# Elastic Compliance Matrix: (Units=1/GPa)
#
#
# Indices 1 2 3 4 5 6 
#
# 1 0.012130 0.002629 -0.003449 0.000000 0.000000 0.000000
# 2 0.002629 0.016001 -0.001865 0.000000 0.000000 0.000000
# 3 -0.003449 -0.001865 0.009773 0.000000 0.000000 0.000000
# 4 0.000000 0.000000 0.000000 0.059439 0.000000 0.000000
# 5 0.000000 0.000000 0.000000 0.000000 0.062004 0.000000
# 6 0.000000 0.000000 0.000000 0.000000 0.000000 0.077348
#
#
# Mechanical properties :
#
#
# Convention : Reuss Voigt Hill
#
# Bulk Modulus (GPa) = 30.73583 36.51411 33.62497
# Shear Modulus (GPa) = 19.76985 25.61785 22.69385
#
# Velocity S-wave (km/s) = 3.17092 3.60957 3.39733
# Velocity P-wave (km/s) = 5.38871 5.99522 5.70004
#
# Compressibility (1/GPa) = 0.03253531
#
# Stress axis : x y z
#
# Youngs Moduli (GPa) = 82.44139 62.49504 102.31779
#
# Poissons Ratio (x) = -0.16431 0.35289
# Poissons Ratio (y) = -0.21675 0.19081
# Poissons Ratio (z) = 0.28434 0.11654
#
# Static dielectric constant tensor:
#      x y z
#    x 1.725800 0.000000 0.000000 
#    y 0.000000 1.704500 0.000000 
#    z 0.000000 0.000000 1.699660 
# 
# From -- ./inp_files/27239.got.cif
#   From: 2010.05.17/outbox.cif.g08.bks.cpg/sg24_14_cif.got.tgz:27239.got - 2010.06.04 00:33:39.
