data_PCOD9335200
_publ_section_title
;
Structure prediction by ZEFSAII (Michael W. Deem and Ramdas Pophale) SiO2 
 PCOD9335200
Probable space group: I 21 21 21
;
_chemical_formula_sum "Si O2"
_cell_formula_units_Z 60
_cell_length_a 17.890867
_cell_length_b 8.064826
_cell_length_c 17.795728
_cell_angle_alpha 90.000000
_cell_angle_beta 90.000000
_cell_angle_gamma 90.000000
_cell_volume 2567.687389
_symmetry_space_group_name_H-M "I 21 21 21"
_symmetry_group_IT_number 24
_symmetry_cell_setting 'orthorhombic'
loop_
_space_group_symop_operation_xyz
x,y,z
-x,1/2-y,z
x,-y,1/2-z
1/2-x,y,-z
1/2+x,1/2+y,1/2+z
1/2-x,-y,1/2+z
1/2+x,1/2-y,-z
-x,1/2+y,1/2-z
loop_
_atom_site_type_symbol
_atom_site_label
_atom_site_fract_x
_atom_site_fract_y
_atom_site_fract_z
Si Si1 0.322795 0.228324 0.383203
Si Si2 0.343957 0.795353 0.834493
Si Si3 0.083562 0.306618 0.479923
Si Si4 0.543110 0.078333 0.331742
Si Si5 0.500000 0.750000 0.344860
Si Si6 0.337600 0.652875 0.508642
Si Si7 0.844870 0.650402 0.646676
Si Si8 0.323328 0.191589 0.829273
O O1 0.236231 0.261618 0.368235
O O2 0.354009 0.215022 0.468292
O O3 0.371961 0.376591 0.348834
O O4 0.341442 0.048143 0.348818
O O5 0.404631 0.736588 0.893314
O O6 0.355893 0.739992 0.748607
O O7 0.339366 0.995251 0.833423
O O8 0.107381 0.496954 0.491680
O O9 0.000000 0.250000 0.501582
O O10 0.500000 0.250000 0.338701
O O11 0.530073 0.000000 0.250000
O O12 0.510911 0.929614 0.383108
O O13 0.582894 0.720535 0.311172
O O14 0.250000 0.599664 0.500000
O O15 0.350486 0.780377 0.439230
O O16 0.345577 0.733977 0.590787
O O17 0.766362 0.712655 0.678248
#
# Coordination Sequence:
#
# PCOD9335200 Si02
#       8
#     8   8   8   8   4   8   8   8
#     4  11  23  43  68  96 133 181 232 277 346 417
#     4  10  22  44  71  96 132 176 224 284 349 412
#     4  12  26  43  64  95 135 176 229 289 346 413
#     4  12  25  41  58  95 142 188 228 281 337 420
#     4  12  24  38  62  92 144 180 230 274 350 396
#     4  10  21  42  68 101 135 174 231 284 339 415
#     4  10  22  38  69  98 135 180 226 288 341 420
#     4   9  21  43  69  99 129 173 233 281 343 418
#
# _framework density 23.367329000000002
#
# number of rings (size 3 to 8) (size 9 to 14) (size 15 to 20)
#    0.000    1.333    2.000    3.200    3.733    3.733 
#    0.000    2.667    0.000    0.000    0.000    0.000 
#    0.000    0.000    0.000    0.000    0.000    0.000 
#
# Total GULP energy -167612.800025 kJ/mol
# GULP energy per Si atom -5587.093334 kJ/mol
# Density = 2.331414 g / cm^3
# Si number density = 23.367329 Si / 1000 Ang^3
#
#
#
# Elastic Constant Matrix: (Units=GPa)
#
#
# Indices 1 2 3 4 5 6 
#
# 1 62.5332 36.5418 26.2472 0.0000 0.0000 0.0000
# 2 36.5418 116.9743 22.5726 0.0000 0.0000 0.0000
# 3 26.2472 22.5726 166.8023 0.0000 0.0000 0.0000
# 4 0.0000 0.0000 0.0000 33.1951 0.0000 0.0000
# 5 0.0000 0.0000 0.0000 0.0000 24.7521 0.0000
# 6 0.0000 0.0000 0.0000 0.0000 0.0000 33.4963
#
#
#
# Elastic Compliance Matrix: (Units=1/GPa)
#
#
# Indices 1 2 3 4 5 6 
#
# 1 0.020471 -0.005928 -0.002419 0.000000 0.000000 0.000000
# 2 -0.005928 0.010495 -0.000487 0.000000 0.000000 0.000000
# 3 -0.002419 -0.000487 0.006442 0.000000 0.000000 0.000000
# 4 0.000000 0.000000 0.000000 0.030125 0.000000 0.000000
# 5 0.000000 0.000000 0.000000 0.000000 0.040401 0.000000
# 6 0.000000 0.000000 0.000000 0.000000 0.000000 0.029854
#
#
# Mechanical properties :
#
#
# Convention : Reuss Voigt Hill
#
# Bulk Modulus (GPa) = 50.66253 57.44814 54.05534
# Shear Modulus (GPa) = 30.85737 35.68524 33.27130
#
# Velocity S-wave (km/s) = 3.63786 3.91211 3.77747
# Velocity P-wave (km/s) = 6.27482 6.71150 6.49683
#
# Compressibility (1/GPa) = 0.01973845
#
# Stress axis : x y z
#
# Youngs Moduli (GPa) = 48.84957 95.28472 155.23811
#
# Poissons Ratio (x) = 0.56487 0.37552
# Poissons Ratio (y) = 0.28959 0.07566
# Poissons Ratio (z) = 0.11817 0.04644
#
# Static dielectric constant tensor:
#      x y z
#    x 1.868210 0.000000 0.000000 
#    y 0.000000 1.934710 0.000000 
#    z 0.000000 0.000000 1.969950 
# 
# From -- ./inp_files/31179.got.cif
#   From: 2010.05.17/outbox.cif.g08.bks.cpg/sg24_16_cif.got.tgz:31179.got - 2010.06.04 00:33:39.
