data_PCOD9335005
_publ_section_title
;
Structure prediction by ZEFSAII (Michael W. Deem and Ramdas Pophale) SiO2 
 PCOD9335005
Probable space group: I 21 21 21
;
_chemical_formula_sum "Si O2"
_cell_formula_units_Z 56
_cell_length_a 14.153805
_cell_length_b 12.761542
_cell_length_c 14.133288
_cell_angle_alpha 90.000000
_cell_angle_beta 90.000000
_cell_angle_gamma 90.000000
_cell_volume 2552.816339
_symmetry_space_group_name_H-M "I 21 21 21"
_symmetry_group_IT_number 24
_symmetry_cell_setting 'orthorhombic'
loop_
_space_group_symop_operation_xyz
x,y,z
-x,1/2-y,z
x,-y,1/2-z
1/2-x,y,-z
1/2+x,1/2+y,1/2+z
1/2-x,-y,1/2+z
1/2+x,1/2-y,-z
-x,1/2+y,1/2-z
loop_
_atom_site_type_symbol
_atom_site_label
_atom_site_fract_x
_atom_site_fract_y
_atom_site_fract_z
Si Si1 0.294780 0.554403 0.150144
Si Si2 0.812917 0.477261 0.594336
Si Si3 0.450744 0.852050 0.980234
Si Si4 0.729954 0.301313 0.871545
Si Si5 0.210300 0.782819 0.166769
Si Si6 0.393292 0.500335 0.953932
Si Si7 0.897690 0.224076 0.971443
O O1 0.322675 0.500000 0.250000
O O2 0.272376 0.678812 0.152891
O O3 0.194445 0.507576 0.116371
O O4 0.362745 0.536148 0.060181
O O5 0.750000 0.472596 0.500000
O O6 0.912680 0.435218 0.557034
O O7 0.791735 0.592167 0.632895
O O8 0.774513 0.385925 0.660340
O O9 0.500000 0.750000 0.023965
O O10 0.369605 0.803033 0.912348
O O11 0.524627 0.921712 0.921170
O O12 0.676806 0.278443 0.774635
O O13 0.810564 0.214765 0.897613
O O14 0.651568 0.304626 0.954437
O O15 0.416816 0.379567 0.968103
O O16 0.000000 0.250000 0.929350
#
# Coordination Sequence:
#
# PCOD9335005 Si02
#       7
#     8   8   8   8   8   8   8
#     4  11  22  42  65  95 132 179 227 272 347 416
#     4  10  21  39  65  91 130 176 218 268 336 407
#     4  11  22  41  65 101 133 168 227 285 344 416
#     4  11  22  44  63  96 138 177 230 282 342 413
#     4  11  23  38  67  96 132 176 218 282 345 410
#     4  11  23  40  65  95 132 176 222 285 344 403
#     4  11  23  41  67  91 129 184 231 276 344 418
#
# _framework density 21.936556
#
# number of rings (size 3 to 8) (size 9 to 14) (size 15 to 20)
#    0.000    1.143    2.857    5.571    6.000    0.571 
#    2.571    5.000    0.000    0.000    0.000    0.000 
#    0.000    0.000    0.000    0.000    0.000    0.000 
#
# Total GULP energy -156118.963938 kJ/mol
# GULP energy per Si atom -5575.677283 kJ/mol
# Density = 2.188663 g / cm^3
# Si number density = 21.936556 Si / 1000 Ang^3
#
#
#
# Elastic Constant Matrix: (Units=GPa)
#
#
# Indices 1 2 3 4 5 6 
#
# 1 68.6786 6.4572 -5.6630 0.0000 0.0000 0.0000
# 2 6.4572 100.9029 -9.1335 0.0000 0.0000 0.0000
# 3 -5.6630 -9.1335 78.7101 0.0000 0.0000 0.0000
# 4 0.0000 0.0000 0.0000 24.4414 0.0000 0.0000
# 5 0.0000 0.0000 0.0000 0.0000 7.4780 0.0000
# 6 0.0000 0.0000 0.0000 0.0000 0.0000 22.8544
#
#
#
# Elastic Compliance Matrix: (Units=1/GPa)
#
#
# Indices 1 2 3 4 5 6 
#
# 1 0.014720 -0.000855 0.000960 0.000000 0.000000 0.000000
# 2 -0.000855 0.010065 0.001106 0.000000 0.000000 0.000000
# 3 0.000960 0.001106 0.012902 0.000000 0.000000 0.000000
# 4 0.000000 0.000000 0.000000 0.040914 0.000000 0.000000
# 5 0.000000 0.000000 0.000000 0.000000 0.133726 0.000000
# 6 0.000000 0.000000 0.000000 0.000000 0.000000 0.043755
#
#
# Mechanical properties :
#
#
# Convention : Reuss Voigt Hill
#
# Bulk Modulus (GPa) = 24.93131 25.73477 25.33304
# Shear Modulus (GPa) = 18.72442 28.06349 23.39396
#
# Velocity S-wave (km/s) = 2.92476 3.58061 3.26918
# Velocity P-wave (km/s) = 4.77447 5.37134 5.08167
#
# Compressibility (1/GPa) = 0.04011021
#
# Stress axis : x y z
#
# Youngs Moduli (GPa) = 67.93423 99.35033 77.50555
#
# Poissons Ratio (x) = 0.08496 -0.07439
# Poissons Ratio (y) = 0.05809 -0.08576
# Poissons Ratio (z) = -0.06521 -0.10993
#
# Static dielectric constant tensor:
#      x y z
#    x 1.825710 0.000000 0.000000 
#    y 0.000000 1.869720 0.000000 
#    z 0.000000 0.000000 1.831660 
# 
# From -- ./inp_files/26508.got.cif
#   From: 2010.05.17/outbox.cif.g08.bks.cpg/sg24_14_cif.got.tgz:26508.got - 2010.06.04 00:33:39.
