data_PCOD9335390
_publ_section_title
;
Structure prediction by ZEFSAII (Michael W. Deem and Ramdas Pophale) SiO2 
 PCOD9335390
Probable space group: I 21 21 21
;
_chemical_formula_sum "Si O2"
_cell_formula_units_Z 40
_cell_length_a 10.921745
_cell_length_b 20.905717
_cell_length_c 7.422477
_cell_angle_alpha 90.000000
_cell_angle_beta 90.000000
_cell_angle_gamma 90.000000
_cell_volume 1694.751239
_symmetry_space_group_name_H-M "I 21 21 21"
_symmetry_group_IT_number 24
_symmetry_cell_setting 'orthorhombic'
loop_
_space_group_symop_operation_xyz
x,y,z
-x,1/2-y,z
x,-y,1/2-z
1/2-x,y,-z
1/2+x,1/2+y,1/2+z
1/2-x,-y,1/2+z
1/2+x,1/2-y,-z
-x,1/2+y,1/2-z
loop_
_atom_site_type_symbol
_atom_site_label
_atom_site_fract_x
_atom_site_fract_y
_atom_site_fract_z
Si Si1 0.106781 0.436867 0.471130
Si Si2 0.484768 0.936357 0.575681
Si Si3 0.254581 0.000000 0.750000
Si Si4 0.893797 0.300886 0.937387
Si Si5 0.750000 0.604793 0.000000
Si Si6 0.458015 0.183674 0.470138
O O1 0.250000 0.440151 0.500000
O O2 0.062652 0.429718 0.261473
O O3 0.051729 0.505821 0.529350
O O4 0.058823 0.370981 0.559467
O O5 0.453823 0.869018 0.488901
O O6 0.351757 0.965318 0.620167
O O7 0.191009 0.058103 0.648245
O O8 0.895263 0.298199 0.719183
O O9 0.000000 0.250000 0.996099
O O10 0.750000 0.293648 0.000000
O O11 0.645654 0.647739 0.915514
O O12 0.500000 0.250000 0.553916
#
# Coordination Sequence:
#
# PCOD9335390 Si02
#       6
#     8   8   4   8   4   8
#     4  10  23  43  67 102 137 180 232 286 352 424
#     4  10  22  44  64 100 134 179 227 284 353 409
#     4  10  22  38  64 104 124 172 222 286 352 396
#     4  11  27  46  69 101 140 186 236 290 356 432
#     4  12  22  42  70  98 140 172 230 296 342 426
#     4  11  26  42  64 101 134 183 231 281 352 421
#
# _framework density 23.602281999999999
#
# number of rings (size 3 to 8) (size 9 to 14) (size 15 to 20)
#    0.000    1.600    4.000    1.200    5.600    8.800 
#    0.000    0.000    0.000    0.000    0.000    0.000 
#    0.000    0.000    0.000    0.000    0.000    0.000 
#
# Total GULP energy -111600.258281 kJ/mol
# GULP energy per Si atom -5580.012914 kJ/mol
# Density = 2.354856 g / cm^3
# Si number density = 23.602282 Si / 1000 Ang^3
#
#
#
# Elastic Constant Matrix: (Units=GPa)
#
#
# Indices 1 2 3 4 5 6 
#
# 1 168.5175 85.0092 28.1195 0.0004 -0.0003 -0.0020
# 2 85.0092 217.3235 16.7841 0.0012 -0.0008 -0.0018
# 3 28.1195 16.7841 59.3912 0.0066 -0.0029 -0.0054
# 4 0.0004 0.0012 0.0066 19.6011 -0.0014 -0.0016
# 5 -0.0003 -0.0008 -0.0029 -0.0014 13.7219 0.0017
# 6 -0.0020 -0.0018 -0.0054 -0.0016 0.0017 7.9153
#
#
#
# Elastic Compliance Matrix: (Units=1/GPa)
#
#
# Indices 1 2 3 4 5 6 
#
# 1 0.007857 -0.002848 -0.002915 0.000001 -0.000001 -0.000001
# 2 -0.002848 0.005737 -0.000273 0.000000 0.000000 0.000000
# 3 -0.002915 -0.000273 0.018295 -0.000006 0.000004 0.000012
# 4 0.000001 0.000000 -0.000006 0.051017 0.000005 0.000010
# 5 -0.000001 0.000000 0.000004 0.000005 0.072876 -0.000016
# 6 -0.000001 0.000000 0.000012 0.000010 -0.000016 0.126337
#
#
# Mechanical properties :
#
#
# Convention : Reuss Voigt Hill
#
# Bulk Modulus (GPa) = 50.46309 78.33976 64.40142
# Shear Modulus (GPa) = 16.62247 29.26896 22.94572
#
# Velocity S-wave (km/s) = 2.65670 3.52531 3.12137
# Velocity P-wave (km/s) = 5.55317 7.05933 6.35106
#
# Compressibility (1/GPa) = 0.01981646
#
# Stress axis : x y z
#
# Youngs Moduli (GPa) = 127.26800 174.31685 54.66035
#
# Poissons Ratio (x) = 0.49652 0.15935
# Poissons Ratio (y) = 0.36251 0.01490
# Poissons Ratio (z) = 0.37102 0.04752
#
# Static dielectric constant tensor:
#      x y z
#    x 1.865620 0.000000 0.000000 
#    y 0.000000 1.941820 -0.000010 
#    z 0.000000 -0.000010 2.219980 
# 
# From -- ./inp_files/10759.got.cif
#   From: 2010.05.17/outbox.cif.g08.bks.cpg/sg24_6_cif.got.tgz:10759.got - 2010.06.04 00:33:39.
