data_PCOD9335298
_publ_section_title
;
Structure prediction by ZEFSAII (Michael W. Deem and Ramdas Pophale) SiO2 
 PCOD9335298
Probable space group: I 21 21 21
;
_chemical_formula_sum "Si O2"
_cell_formula_units_Z 36
_cell_length_a 5.115691
_cell_length_b 25.213379
_cell_length_c 11.929996
_cell_angle_alpha 90.000000
_cell_angle_beta 90.000000
_cell_angle_gamma 90.000000
_cell_volume 1538.776887
_symmetry_space_group_name_H-M "I 21 21 21"
_symmetry_group_IT_number 24
_symmetry_cell_setting 'orthorhombic'
loop_
_space_group_symop_operation_xyz
x,y,z
-x,1/2-y,z
x,-y,1/2-z
1/2-x,y,-z
1/2+x,1/2+y,1/2+z
1/2-x,-y,1/2+z
1/2+x,1/2-y,-z
-x,1/2+y,1/2-z
loop_
_atom_site_type_symbol
_atom_site_label
_atom_site_fract_x
_atom_site_fract_y
_atom_site_fract_z
Si Si1 0.500000 0.250000 0.419266
Si Si2 0.503140 0.403491 0.577938
Si Si3 0.363750 0.807048 0.772081
Si Si4 0.831751 0.012955 0.133243
Si Si5 0.494267 0.124440 0.927727
O O1 0.750000 0.240314 0.500000
O O2 0.588997 0.296947 0.335432
O O3 0.250000 0.403009 0.500000
O O4 0.495164 0.353532 0.659677
O O5 0.524981 0.462318 0.631616
O O6 0.750000 0.395634 0.500000
O O7 0.500000 0.750000 0.775974
O O8 0.374799 0.828443 0.646409
O O9 0.921061 0.073456 0.144160
O O10 0.672139 0.000000 0.250000
O O11 0.750000 0.013449 0.000000
O O12 0.250000 0.104525 0.000000
O O13 0.750000 0.140353 0.000000
#
# Coordination Sequence:
#
# PCOD9335298 Si02
#       5
#     4   8   8   8   8
#     4  12  28  48  74 108 156 200 256 334 396 468
#     4  11  26  43  72 109 148 195 243 308 383 467
#     4  12  29  46  74 109 150 204 259 313 391 463
#     4  10  21  49  76 117 150 197 250 321 390 471
#     4  11  27  50  78 107 150 202 258 322 382 467
#
# _framework density 23.395206000000002
#
# number of rings (size 3 to 8) (size 9 to 14) (size 15 to 20)
#    0.000    0.889    3.333    1.333    9.333    0.889 
#    4.000    2.222    0.000    0.000    0.000    0.000 
#    0.000    0.000    0.000    0.000    0.000    0.000 
#
# Total GULP energy -100328.684449 kJ/mol
# GULP energy per Si atom -5573.815803 kJ/mol
# Density = 2.334196 g / cm^3
# Si number density = 23.395206 Si / 1000 Ang^3
#
#
#
# Elastic Constant Matrix: (Units=GPa)
#
#
# Indices 1 2 3 4 5 6 
#
# 1 117.9747 14.3777 40.6392 0.0000 0.0000 0.0000
# 2 14.3777 148.9160 35.0459 0.0000 0.0000 0.0000
# 3 40.6392 35.0459 137.7939 0.0000 0.0000 0.0000
# 4 0.0000 0.0000 0.0000 26.3899 0.0000 0.0000
# 5 0.0000 0.0000 0.0000 0.0000 6.5073 0.0000
# 6 0.0000 0.0000 0.0000 0.0000 0.0000 25.7793
#
#
#
# Elastic Compliance Matrix: (Units=1/GPa)
#
#
# Indices 1 2 3 4 5 6 
#
# 1 0.009445 -0.000273 -0.002716 0.000000 0.000000 0.000000
# 2 -0.000273 0.007151 -0.001738 0.000000 0.000000 0.000000
# 3 -0.002716 -0.001738 0.008500 0.000000 0.000000 0.000000
# 4 0.000000 0.000000 0.000000 0.037893 0.000000 0.000000
# 5 0.000000 0.000000 0.000000 0.000000 0.153674 0.000000
# 6 0.000000 0.000000 0.000000 0.000000 0.000000 0.038791
#
#
# Mechanical properties :
#
#
# Convention : Reuss Voigt Hill
#
# Bulk Modulus (GPa) = 63.93098 64.97892 64.45495
# Shear Modulus (GPa) = 18.51011 32.71009 25.61010
#
# Velocity S-wave (km/s) = 2.81587 3.74325 3.31217
# Velocity P-wave (km/s) = 6.16101 6.82036 6.49905
#
# Compressibility (1/GPa) = 0.01564187
#
# Stress axis : x y z
#
# Youngs Moduli (GPa) = 105.87243 139.84842 117.64106
#
# Poissons Ratio (x) = 0.03813 0.31955
# Poissons Ratio (y) = 0.02887 0.20449
# Poissons Ratio (z) = 0.28759 0.24309
#
# Static dielectric constant tensor:
#      x y z
#    x 1.907930 0.000000 0.000000 
#    y 0.000000 1.881700 0.000000 
#    z 0.000000 0.000000 2.001220 
# 
# From -- ./inp_files/17529.got.cif
#   From: 2010.05.17/outbox.cif.g08.bks.cpg/sg24_9_cif.got.tgz:17529.got - 2010.06.04 00:33:39.
