data_PCOD9335153
_publ_section_title
;
Structure prediction by ZEFSAII (Michael W. Deem and Ramdas Pophale) SiO2 
 PCOD9335153
Probable space group: I 21 21 21
;
_chemical_formula_sum "Si O2"
_cell_formula_units_Z 52
_cell_length_a 14.181925
_cell_length_b 21.739904
_cell_length_c 7.706815
_cell_angle_alpha 90.000000
_cell_angle_beta 90.000000
_cell_angle_gamma 90.000000
_cell_volume 2376.116556
_symmetry_space_group_name_H-M "I 21 21 21"
_symmetry_group_IT_number 24
_symmetry_cell_setting 'orthorhombic'
loop_
_space_group_symop_operation_xyz
x,y,z
-x,1/2-y,z
x,-y,1/2-z
1/2-x,y,-z
1/2+x,1/2+y,1/2+z
1/2-x,-y,1/2+z
1/2+x,1/2-y,-z
-x,1/2+y,1/2-z
loop_
_atom_site_type_symbol
_atom_site_label
_atom_site_fract_x
_atom_site_fract_y
_atom_site_fract_z
Si Si1 0.085309 0.372965 0.094662
Si Si2 0.518737 0.591492 0.029155
Si Si3 0.721548 0.769520 0.701272
Si Si4 0.392923 0.000000 0.250000
Si Si5 0.250000 0.059876 0.000000
Si Si6 0.922510 0.804569 0.776762
Si Si7 0.125960 0.856874 0.250277
Si Si8 0.573019 0.000000 0.750000
O O1 0.158982 0.330660 0.198478
O O2 0.115312 0.443658 0.134544
O O3 0.977874 0.363204 0.161931
O O4 0.085920 0.345729 0.899446
O O5 0.543314 0.557922 0.206375
O O6 0.452353 0.648896 0.071238
O O7 0.612771 0.617499 0.942015
O O8 0.481178 0.539794 0.896549
O O9 0.750000 0.757157 0.500000
O O10 0.819138 0.776320 0.803174
O O11 0.658536 0.712690 0.756745
O O12 0.327753 0.982185 0.410110
O O13 0.300815 0.102707 0.858893
O O14 0.000000 0.750000 0.756520
#
# Coordination Sequence:
#
# PCOD9335153 Si02
#       8
#     8   8   8   4   4   8   8   4
#     4  10  21  41  71  96 136 177 223 274 333 405
#     4  11  24  42  66  92 136 178 220 276 338 400
#     4  10  21  41  69 102 128 174 225 276 335 406
#     4  12  24  41  61  96 134 170 218 269 327 412
#     4  12  24  38  66  96 134 178 218 270 332 420
#     4  11  24  42  68 101 135 176 226 284 344 399
#     4  11  22  40  67  97 134 176 218 274 342 394
#     4  10  22  43  65  94 128 184 222 269 335 398
#
# _framework density 21.884447000000002
#
# number of rings (size 3 to 8) (size 9 to 14) (size 15 to 20)
#    0.000    1.231    0.769    6.923    2.154    3.077 
#    0.000   11.538    0.000    0.000    0.000    0.000 
#    0.000    0.000    0.000    0.000    0.000    0.000 
#
# Total GULP energy -145260.627630 kJ/mol
# GULP energy per Si atom -5586.947217 kJ/mol
# Density = 2.183464 g / cm^3
# Si number density = 21.884447 Si / 1000 Ang^3
#
#
#
# Elastic Constant Matrix: (Units=GPa)
#
#
# Indices 1 2 3 4 5 6 
#
# 1 59.5053 20.1782 3.4810 0.0000 0.0000 0.0000
# 2 20.1782 154.6836 27.0141 0.0000 0.0000 0.0000
# 3 3.4810 27.0141 53.3326 0.0003 0.0000 -0.0001
# 4 0.0000 0.0000 0.0003 29.2869 0.0000 -0.0002
# 5 0.0000 0.0000 0.0000 0.0000 27.0957 0.0000
# 6 0.0000 0.0000 -0.0001 -0.0002 0.0000 -6.9635
#
#
#
# Elastic Compliance Matrix: (Units=1/GPa)
#
#
# Indices 1 2 3 4 5 6 
#
# 1 0.017583 -0.002296 0.000016 0.000000 0.000000 0.000000
# 2 -0.002296 0.007392 -0.003594 0.000000 0.000000 0.000000
# 3 0.000016 -0.003594 0.020570 0.000000 0.000000 0.000000
# 4 0.000000 0.000000 0.000000 0.034145 0.000000 -0.000001
# 5 0.000000 0.000000 0.000000 0.000000 0.036906 0.000000
# 6 0.000000 0.000000 0.000000 -0.000001 0.000000 -0.143606
#
#
# Mechanical properties :
#
#
# Convention : Reuss Voigt Hill
#
# Bulk Modulus (GPa) = 29.59058 40.98533 35.28796
# Shear Modulus (GPa) = -1251.81149 24.34036 -613.73556
#
# Velocity S-wave (km/s) = -23.94267 3.33862 -16.76462
# Velocity P-wave (km/s) = 27.40045 5.79918 18.93613
#
# Compressibility (1/GPa) = 0.03379454
#
# Stress axis : x y z
#
# Youngs Moduli (GPa) = 56.87307 135.27969 48.61483
#
# Poissons Ratio (x) = 0.31065 -0.00076
# Poissons Ratio (y) = 0.13060 0.17474
# Poissons Ratio (z) = -0.00088 0.48624
#
# Static dielectric constant tensor:
#      x y z
#    x 1.775030 0.000000 0.000000 
#    y 0.000000 1.845010 0.000000 
#    z 0.000000 0.000000 1.898360 
# 
# From -- ./inp_files/13099.got.cif
#   From: 2010.05.17/outbox.cif.g08.bks.cpg/sg24_7_cif.got.tgz:13099.got - 2010.06.04 00:33:39.
