data_PCOD9335814
_publ_section_title
;
Structure prediction by ZEFSAII (Michael W. Deem and Ramdas Pophale) SiO2 
 PCOD9335814
Probable space group: I 21 21 21
;
_chemical_formula_sum "Si O2"
_cell_formula_units_Z 60
_cell_length_a 12.045042
_cell_length_b 8.230964
_cell_length_c 26.980023
_cell_angle_alpha 90.000000
_cell_angle_beta 90.000000
_cell_angle_gamma 90.000000
_cell_volume 2674.861725
_symmetry_space_group_name_H-M "I 21 21 21"
_symmetry_group_IT_number 24
_symmetry_cell_setting 'orthorhombic'
loop_
_space_group_symop_operation_xyz
x,y,z
-x,1/2-y,z
x,-y,1/2-z
1/2-x,y,-z
1/2+x,1/2+y,1/2+z
1/2-x,-y,1/2+z
1/2+x,1/2-y,-z
-x,1/2+y,1/2-z
loop_
_atom_site_type_symbol
_atom_site_label
_atom_site_fract_x
_atom_site_fract_y
_atom_site_fract_z
Si Si1 0.028263 0.437949 0.197522
Si Si2 0.258578 0.851128 0.884117
Si Si3 0.371412 0.810196 0.017940
Si Si4 0.268120 0.221501 0.909611
Si Si5 0.113087 0.184156 0.004533
Si Si6 0.369755 0.722788 0.209765
Si Si7 0.500000 0.750000 0.872035
Si Si8 0.214463 0.373639 0.808440
O O1 0.979373 0.500000 0.250000
O O2 0.002123 0.582740 0.159557
O O3 0.160247 0.425378 0.202883
O O4 0.000000 0.250000 0.184915
O O5 0.159903 0.819289 0.923729
O O6 0.210518 0.808431 0.830103
O O7 0.376027 0.759797 0.896255
O O8 0.281470 0.042236 0.887960
O O9 0.500000 0.750000 0.011930
O O10 0.376869 0.988753 0.992381
O O11 0.250000 0.735204 0.000000
O O12 0.193406 0.221928 0.958647
O O13 0.218511 0.322197 0.865317
O O14 0.377467 0.266106 0.940708
O O15 0.000000 0.250000 0.983911
O O16 0.500000 0.750000 0.205509
O O17 0.357381 0.532933 0.197717
O O18 0.327251 0.750321 0.266247
#
# Coordination Sequence:
#
# PCOD9335814 Si02
#       8
#     8   8   8   8   8   8   4   8
#     4  12  23  42  69 102 146 195 253 312 379 452
#     4  11  23  44  71 105 150 188 248 302 373 456
#     4  11  24  48  75 111 149 193 246 312 377 460
#     4  10  23  43  69 103 140 187 241 312 374 453
#     4  10  22  47  71 101 145 187 244 310 383 451
#     4  11  25  45  68  98 144 194 242 298 362 451
#     4  12  24  42  72 108 148 208 240 320 392 452
#     4  11  24  47  66 102 145 185 253 300 369 460
#
# _framework density 22.431066000000001
#
# number of rings (size 3 to 8) (size 9 to 14) (size 15 to 20)
#    0.000    1.067    6.000    1.200    0.933    8.000 
#    4.800    0.000    0.000    0.000    0.000    0.000 
#    0.000    0.000    0.000    0.000    0.000    0.000 
#
# Total GULP energy -167034.499069 kJ/mol
# GULP energy per Si atom -5567.816636 kJ/mol
# Density = 2.238001 g / cm^3
# Si number density = 22.431066 Si / 1000 Ang^3
#
#
#
# Elastic Constant Matrix: (Units=GPa)
#
#
# Indices 1 2 3 4 5 6 
#
# 1 143.0933 25.6656 23.7600 0.0000 0.0000 0.0000
# 2 25.6656 67.1697 38.1506 0.0000 0.0000 0.0000
# 3 23.7600 38.1506 129.0275 0.0000 0.0000 0.0000
# 4 0.0000 0.0000 0.0000 23.9967 0.0000 0.0000
# 5 0.0000 0.0000 0.0000 0.0000 33.8759 0.0000
# 6 0.0000 0.0000 0.0000 0.0000 0.0000 38.6174
#
#
#
# Elastic Compliance Matrix: (Units=1/GPa)
#
#
# Indices 1 2 3 4 5 6 
#
# 1 0.007547 -0.002517 -0.000646 0.000000 0.000000 0.000000
# 2 -0.002517 0.018732 -0.005075 0.000000 0.000000 0.000000
# 3 -0.000646 -0.005075 0.009370 0.000000 0.000000 0.000000
# 4 0.000000 0.000000 0.000000 0.041672 0.000000 0.000000
# 5 0.000000 0.000000 0.000000 0.000000 0.029519 0.000000
# 6 0.000000 0.000000 0.000000 0.000000 0.000000 0.025895
#
#
# Mechanical properties :
#
#
# Convention : Reuss Voigt Hill
#
# Bulk Modulus (GPa) = 52.15574 57.16032 54.65803
# Shear Modulus (GPa) = 32.13317 36.07897 34.10607
#
# Velocity S-wave (km/s) = 3.78898 4.01488 3.90357
# Velocity P-wave (km/s) = 6.51490 6.85787 6.68858
#
# Compressibility (1/GPa) = 0.01917335
#
# Stress axis : x y z
#
# Youngs Moduli (GPa) = 132.50108 53.38462 106.72637
#
# Poissons Ratio (x) = 0.13438 0.06889
# Poissons Ratio (y) = 0.33352 0.54165
# Poissons Ratio (z) = 0.08553 0.27093
#
# Static dielectric constant tensor:
#      x y z
#    x 1.965340 0.000000 0.000000 
#    y 0.000000 1.838110 0.000000 
#    z 0.000000 0.000000 1.938230 
# 
# From -- ./inp_files/37242.got.cif
#   From: 2010.05.17/outbox.cif.g08.bks.cpg/sg24_19_cif.got.tgz:37242.got - 2010.06.04 00:33:39.
