data_PCOD9335618
_publ_section_title
;
Structure prediction by ZEFSAII (Michael W. Deem and Ramdas Pophale) SiO2 
 PCOD9335618
Probable space group: I 21 21 21
;
_chemical_formula_sum "Si O2"
_cell_formula_units_Z 48
_cell_length_a 9.303224
_cell_length_b 7.511252
_cell_length_c 30.671047
_cell_angle_alpha 90.000000
_cell_angle_beta 90.000000
_cell_angle_gamma 90.000000
_cell_volume 2143.257796
_symmetry_space_group_name_H-M "I 21 21 21"
_symmetry_group_IT_number 24
_symmetry_cell_setting 'orthorhombic'
loop_
_space_group_symop_operation_xyz
x,y,z
-x,1/2-y,z
x,-y,1/2-z
1/2-x,y,-z
1/2+x,1/2+y,1/2+z
1/2-x,-y,1/2+z
1/2+x,1/2-y,-z
-x,1/2+y,1/2-z
loop_
_atom_site_type_symbol
_atom_site_label
_atom_site_fract_x
_atom_site_fract_y
_atom_site_fract_z
Si Si1 0.058876 0.925484 0.708987
Si Si2 0.183645 0.608567 0.846051
Si Si3 0.202714 0.020034 0.872797
Si Si4 0.500000 0.750000 0.551503
Si Si5 0.250000 0.684452 0.500000
Si Si6 0.535054 0.956557 0.061923
Si Si7 0.027676 0.455509 0.383841
O O1 0.000000 0.750000 0.730476
O O2 0.147842 0.000000 0.750000
O O3 0.141401 0.861348 0.665773
O O4 0.922274 0.038361 0.691049
O O5 0.177057 0.822302 0.852104
O O6 0.124670 0.545469 0.892956
O O7 0.350861 0.551403 0.846648
O O8 0.372367 0.038266 0.874075
O O9 0.115554 0.036122 0.918129
O O10 0.363125 0.812109 0.524313
O O11 0.429354 0.585637 0.577277
O O12 0.135837 0.560422 0.527489
O O13 0.500000 0.750000 0.049141
O O14 0.000000 0.250000 0.397169
#
# Coordination Sequence:
#
# PCOD9335618 Si02
#       7
#     8   8   8   4   4   8   8
#     4  11  22  36  61  94 125 162 205 256 313 377
#     4   9  18  41  62  87 122 158 209 253 311 384
#     4   9  20  37  67  89 118 165 205 257 316 387
#     4  12  28  42  62  90 138 162 228 276 324 398
#     4  12  26  42  56  96 128 172 218 288 324 388
#     4   9  19  40  62  86 121 164 211 261 321 388
#     4  10  22  42  66  92 124 170 214 263 325 387
#
# _framework density 22.395811999999999
#
# number of rings (size 3 to 8) (size 9 to 14) (size 15 to 20)
#    0.000    2.000    1.667    2.500    4.667    0.667 
#    1.500    1.667    0.000    0.000    0.000    0.000 
#    0.000    0.000    0.000    0.000    0.000    0.000 
#
# Total GULP energy -133604.713719 kJ/mol
# GULP energy per Si atom -5566.863072 kJ/mol
# Density = 2.234484 g / cm^3
# Si number density = 22.395812 Si / 1000 Ang^3
#
#
#
# Elastic Constant Matrix: (Units=GPa)
#
#
# Indices 1 2 3 4 5 6 
#
# 1 147.6970 9.6369 24.2715 0.0000 0.0000 0.0000
# 2 9.6369 24.5254 17.1508 0.0000 0.0000 0.0000
# 3 24.2715 17.1508 65.0983 0.0000 0.0000 0.0000
# 4 0.0000 0.0000 0.0000 9.2627 0.0000 0.0000
# 5 0.0000 0.0000 0.0000 0.0000 4.9521 0.0000
# 6 0.0000 0.0000 0.0000 0.0000 0.0000 28.8402
#
#
#
# Elastic Compliance Matrix: (Units=1/GPa)
#
#
# Indices 1 2 3 4 5 6 
#
# 1 0.007240 -0.001173 -0.002390 0.000000 0.000000 0.000000
# 2 -0.001173 0.050173 -0.012781 0.000000 0.000000 0.000000
# 3 -0.002390 -0.012781 0.019620 0.000000 0.000000 0.000000
# 4 0.000000 0.000000 0.000000 0.107959 0.000000 0.000000
# 5 0.000000 0.000000 0.000000 0.000000 0.201934 0.000000
# 6 0.000000 0.000000 0.000000 0.000000 0.000000 0.034674
#
#
# Mechanical properties :
#
#
# Convention : Reuss Voigt Hill
#
# Bulk Modulus (GPa) = 22.55120 37.71543 30.13331
# Shear Modulus (GPa) = 10.65937 21.02844 15.84390
#
# Velocity S-wave (km/s) = 2.18400 3.06755 2.66268
# Velocity P-wave (km/s) = 4.05599 5.42433 4.78928
#
# Compressibility (1/GPa) = 0.04434355
#
# Stress axis : x y z
#
# Youngs Moduli (GPa) = 138.12205 19.93102 50.96870
#
# Poissons Ratio (x) = 0.02339 0.12183
# Poissons Ratio (y) = 0.16206 0.65144
# Poissons Ratio (z) = 0.33015 0.25474
#
# Static dielectric constant tensor:
#      x y z
#    x 1.909360 0.000000 0.000000 
#    y 0.000000 1.907330 0.000000 
#    z 0.000000 0.000000 1.912170 
# 
# From -- ./inp_files/16886.got.cif
#   From: 2010.05.17/outbox.cif.g08.bks.cpg/sg24_9_cif.got.tgz:16886.got - 2010.06.04 00:33:39.
