data_PCOD9335138
_publ_section_title
;
Structure prediction by ZEFSAII (Michael W. Deem and Ramdas Pophale) SiO2 
 PCOD9335138
Probable space group: I 21 21 21
;
_chemical_formula_sum "Si O2"
_cell_formula_units_Z 60
_cell_length_a 9.203001
_cell_length_b 19.646096
_cell_length_c 15.948240
_cell_angle_alpha 90.000000
_cell_angle_beta 90.000000
_cell_angle_gamma 90.000000
_cell_volume 2883.490293
_symmetry_space_group_name_H-M "I 21 21 21"
_symmetry_group_IT_number 24
_symmetry_cell_setting 'orthorhombic'
loop_
_space_group_symop_operation_xyz
x,y,z
-x,1/2-y,z
x,-y,1/2-z
1/2-x,y,-z
1/2+x,1/2+y,1/2+z
1/2-x,-y,1/2+z
1/2+x,1/2-y,-z
-x,1/2+y,1/2-z
loop_
_atom_site_type_symbol
_atom_site_label
_atom_site_fract_x
_atom_site_fract_y
_atom_site_fract_z
Si Si1 0.184938 0.370092 0.211657
Si Si2 0.930273 0.447962 0.425191
Si Si3 0.359275 0.007283 0.385441
Si Si4 0.105988 0.575593 0.456251
Si Si5 0.933981 0.674497 0.172615
Si Si6 0.138292 0.143348 0.928741
Si Si7 0.845873 0.271133 0.758328
Si Si8 0.612111 0.000000 0.250000
O O1 0.153033 0.372123 0.113800
O O2 0.267652 0.300522 0.228665
O O3 0.286161 0.434248 0.236063
O O4 0.031375 0.365697 0.259051
O O5 0.789713 0.455098 0.364915
O O6 0.898928 0.463836 0.522765
O O7 0.966989 0.369796 0.410293
O O8 0.036655 0.510933 0.408106
O O9 0.306617 0.929257 0.394152
O O10 0.499223 0.010836 0.326879
O O11 0.250000 0.548406 0.500000
O O12 0.005098 0.616064 0.522348
O O13 0.767961 0.684871 0.203753
O O14 0.000000 0.750000 0.164360
O O15 0.123727 0.191917 0.848366
O O16 0.250000 0.169337 0.000000
O O17 0.000000 0.250000 0.718807
#
# Coordination Sequence:
#
# PCOD9335138 Si02
#       8
#     8   8   8   8   8   8   8   4
#     4  11  24  42  58 101 131 170 227 277 332 411
#     4  10  21  41  66  91 132 168 219 275 339 397
#     4  10  22  39  66 101 128 164 224 285 321 404
#     4  11  21  38  65  93 134 173 218 280 337 402
#     4  10  24  42  66  88 132 175 218 282 345 399
#     4  11  21  40  60  93 132 176 221 270 341 405
#     4  11  24  40  61  92 133 173 227 273 328 413
#     4  12  24  40  72 100 136 168 234 284 344 404
#
# _framework density 20.808115000000001
#
# number of rings (size 3 to 8) (size 9 to 14) (size 15 to 20)
#    0.000    1.333    2.667    4.800    3.733    1.600 
#    0.000    0.000   14.667    0.000    0.000    0.000 
#    0.000    0.000    0.000    0.000    0.000    0.000 
#
# Total GULP energy -167241.394806 kJ/mol
# GULP energy per Si atom -5574.713160 kJ/mol
# Density = 2.076075 g / cm^3
# Si number density = 20.808115 Si / 1000 Ang^3
#
#
#
# Elastic Constant Matrix: (Units=GPa)
#
#
# Indices 1 2 3 4 5 6 
#
# 1 119.2206 36.8132 24.5529 0.0000 0.0000 -0.0001
# 2 36.8132 87.5328 36.6853 0.0000 0.0000 -0.0001
# 3 24.5529 36.6853 47.8276 0.0000 0.0000 0.0001
# 4 0.0000 0.0000 0.0000 40.5076 0.0000 0.0001
# 5 0.0000 0.0000 0.0000 0.0000 20.6236 0.0001
# 6 -0.0001 -0.0001 0.0001 0.0001 0.0001 300.6379
#
#
#
# Elastic Compliance Matrix: (Units=1/GPa)
#
#
# Indices 1 2 3 4 5 6 
#
# 1 0.009884 -0.002992 -0.002779 0.000000 0.000000 0.000000
# 2 -0.002992 0.017743 -0.012073 0.000000 0.000000 0.000000
# 3 -0.002779 -0.012073 0.031595 0.000000 0.000000 0.000000
# 4 0.000000 0.000000 0.000000 0.024687 0.000000 0.000000
# 5 0.000000 0.000000 0.000000 0.000000 0.048488 0.000000
# 6 0.000000 0.000000 0.000000 0.000000 0.000000 0.003326
#
#
# Mechanical properties :
#
#
# Convention : Reuss Voigt Hill
#
# Bulk Modulus (GPa) = 42.49236 50.07596 46.28416
# Shear Modulus (GPa) = 27.89305 82.78912 55.34109
#
# Velocity S-wave (km/s) = 3.66524 6.31453 5.16272
# Velocity P-wave (km/s) = 6.19495 8.79103 7.60459
#
# Compressibility (1/GPa) = 0.02353364
#
# Stress axis : x y z
#
# Youngs Moduli (GPa) = 101.17294 56.36171 31.65013
#
# Poissons Ratio (x) = 0.16865 0.08796
# Poissons Ratio (y) = 0.30273 0.38211
# Poissons Ratio (z) = 0.28116 0.68046
#
# Static dielectric constant tensor:
#      x y z
#    x 1.608170 0.000000 0.000000 
#    y 0.000000 1.780470 0.000000 
#    z 0.000000 0.000000 -0.507970 
# 
# From -- ./inp_files/29705.got.cif
#   From: 2010.05.17/outbox.cif.g08.bks.cpg/sg24_15_cif.got.tgz:29705.got - 2010.06.04 00:33:39.
