data_PCOD9335419
_publ_section_title
;
Structure prediction by ZEFSAII (Michael W. Deem and Ramdas Pophale) SiO2 
 PCOD9335419
Probable space group: I 21 21 21
;
_chemical_formula_sum "Si O2"
_cell_formula_units_Z 48
_cell_length_a 8.829851
_cell_length_b 29.736508
_cell_length_c 10.018354
_cell_angle_alpha 90.000000
_cell_angle_beta 90.000000
_cell_angle_gamma 90.000000
_cell_volume 2630.508539
_symmetry_space_group_name_H-M "I 21 21 21"
_symmetry_group_IT_number 24
_symmetry_cell_setting 'orthorhombic'
loop_
_space_group_symop_operation_xyz
x,y,z
-x,1/2-y,z
x,-y,1/2-z
1/2-x,y,-z
1/2+x,1/2+y,1/2+z
1/2-x,-y,1/2+z
1/2+x,1/2-y,-z
-x,1/2+y,1/2-z
loop_
_atom_site_type_symbol
_atom_site_label
_atom_site_fract_x
_atom_site_fract_y
_atom_site_fract_z
Si Si1 0.168243 0.769957 0.863576
Si Si2 0.446914 0.621068 0.670189
Si Si3 0.651718 0.778057 0.631139
Si Si4 0.209472 0.460700 0.852598
Si Si5 0.241463 0.125359 0.344971
Si Si6 0.891897 0.580215 0.585715
O O1 0.257082 0.747017 0.744794
O O2 0.191679 0.823762 0.849355
O O3 0.000000 0.750000 0.864898
O O4 0.250000 0.756975 0.000000
O O5 0.379900 0.670692 0.669217
O O6 0.315746 0.582998 0.677116
O O7 0.568995 0.620824 0.790418
O O8 0.533778 0.612968 0.527787
O O9 0.500000 0.750000 0.608166
O O10 0.750000 0.777968 0.500000
O O11 0.240794 0.500000 0.750000
O O12 0.031716 0.449623 0.864550
O O13 0.250000 0.476698 0.000000
O O14 0.250000 0.108853 0.500000
O O15 0.330748 0.101735 0.222847
O O16 0.750000 0.559810 0.500000
#
# Coordination Sequence:
#
# PCOD9335419 Si02
#       6
#     8   8   8   8   8   8
#     4  11  25  40  57  83 128 173 211 265 320 374
#     4  10  22  41  62  89 130 162 208 268 319 370
#     4  12  24  37  60  95 123 168 224 264 306 378
#     4  10  22  42  67  96 124 163 210 263 324 385
#     4  10  22  39  60  87 125 168 214 256 313 380
#     4   9  20  40  64  88 125 166 196 264 323 373
#
# _framework density 18.247422
#
# number of rings (size 3 to 8) (size 9 to 14) (size 15 to 20)
#    0.000    1.667    1.667    2.500    9.333    1.333 
#    0.000    9.167    0.000    0.000    0.000    0.000 
#    0.000    0.000    0.000    0.000    0.000    0.000 
#
# Total GULP energy -133762.110281 kJ/mol
# GULP energy per Si atom -5573.421262 kJ/mol
# Density = 1.820589 g / cm^3
# Si number density = 18.247422 Si / 1000 Ang^3
#
#
#
# Elastic Constant Matrix: (Units=GPa)
#
#
# Indices 1 2 3 4 5 6 
#
# 1 139.0589 45.6668 53.4863 0.0005 -0.0001 0.0028
# 2 45.6668 70.7060 42.4533 0.0008 -0.0004 0.0041
# 3 53.4863 42.4533 124.8994 -0.0009 -0.0007 -0.0051
# 4 0.0005 0.0008 -0.0009 19.7951 0.0002 -0.0025
# 5 -0.0001 -0.0004 -0.0007 0.0002 30.4339 0.0004
# 6 0.0028 0.0041 -0.0051 -0.0025 0.0004 22.0881
#
#
#
# Elastic Compliance Matrix: (Units=1/GPa)
#
#
# Indices 1 2 3 4 5 6 
#
# 1 0.009734 -0.004755 -0.002553 0.000000 0.000000 -0.000001
# 2 -0.004755 0.020092 -0.004793 -0.000001 0.000000 -0.000004
# 3 -0.002553 -0.004793 0.010729 0.000001 0.000000 0.000004
# 4 0.000000 -0.000001 0.000001 0.050518 0.000000 0.000006
# 5 0.000000 0.000000 0.000000 0.000000 0.032858 -0.000001
# 6 -0.000001 -0.000004 0.000004 0.000006 -0.000001 0.045273
#
#
# Mechanical properties :
#
#
# Convention : Reuss Voigt Hill
#
# Bulk Modulus (GPa) = 61.14541 68.65299 64.89920
# Shear Modulus (GPa) = 25.14388 27.33395 26.23891
#
# Velocity S-wave (km/s) = 3.71609 3.87455 3.79615
# Velocity P-wave (km/s) = 7.21070 7.59745 7.40660
#
# Compressibility (1/GPa) = 0.01635446
#
# Stress axis : x y z
#
# Youngs Moduli (GPa) = 102.72886 49.77165 93.20778
#
# Poissons Ratio (x) = 0.23664 0.23792
# Poissons Ratio (y) = 0.48843 0.44676
# Poissons Ratio (z) = 0.26222 0.23856
#
# Static dielectric constant tensor:
#      x y z
#    x 1.547550 0.000000 0.000000 
#    y 0.000000 1.621230 0.000000 
#    z 0.000000 0.000000 1.589030 
# 
# From -- ./inp_files/9739.got.cif
#   From: 2010.05.17/outbox.cif.g08.bks.cpg/sg24_5_cif.got.tgz:9739.got - 2010.06.04 00:33:39.
