data_PCOD9335507
_publ_section_title
;
Structure prediction by ZEFSAII (Michael W. Deem and Ramdas Pophale) SiO2 
 PCOD9335507
Probable space group: I 21 21 21
;
_chemical_formula_sum "Si O2"
_cell_formula_units_Z 40
_cell_length_a 17.593276
_cell_length_b 10.590584
_cell_length_c 11.460751
_cell_angle_alpha 90.000000
_cell_angle_beta 90.000000
_cell_angle_gamma 90.000000
_cell_volume 2135.402280
_symmetry_space_group_name_H-M "I 21 21 21"
_symmetry_group_IT_number 24
_symmetry_cell_setting 'orthorhombic'
loop_
_space_group_symop_operation_xyz
x,y,z
-x,1/2-y,z
x,-y,1/2-z
1/2-x,y,-z
1/2+x,1/2+y,1/2+z
1/2-x,-y,1/2+z
1/2+x,1/2-y,-z
-x,1/2+y,1/2-z
loop_
_atom_site_type_symbol
_atom_site_label
_atom_site_fract_x
_atom_site_fract_y
_atom_site_fract_z
Si Si1 0.478177 0.109769 0.095713
Si Si2 0.845074 0.500000 0.750000
Si Si3 0.000000 0.250000 0.132827
Si Si4 0.777312 0.260117 0.633177
Si Si5 0.565710 0.144096 0.430964
Si Si6 0.877642 0.860762 0.198680
O O1 0.500000 0.250000 0.143670
O O2 0.400431 0.064405 0.154168
O O3 0.535605 0.992456 0.110140
O O4 0.477408 0.137771 0.956700
O O5 0.794686 0.393618 0.690628
O O6 0.929628 0.220294 0.215200
O O7 0.750000 0.276750 0.500000
O O8 0.856847 0.184689 0.632783
O O9 0.708194 0.189196 0.694734
O O10 0.500000 0.250000 0.416012
O O11 0.587464 0.140046 0.568406
O O12 0.878587 0.000000 0.250000
#
# Coordination Sequence:
#
# PCOD9335507 Si02
#       6
#     8   4   4   8   8   8
#     4  10  24  39  65  98 125 162 216 265 311 377
#     4  12  24  44  64  90 132 170 210 264 328 368
#     4  10  22  40  66 100 122 160 218 268 312 374
#     4  10  26  41  61  97 128 171 212 261 315 384
#     4  11  20  41  69  92 130 168 216 261 308 384
#     4  11  21  42  66  95 128 171 209 259 325 376
#
# _framework density 18.731833999999999
#
# number of rings (size 3 to 8) (size 9 to 14) (size 15 to 20)
#    0.600    0.800    5.000    0.000    2.800    3.200 
#    1.800    0.000    0.000    0.000    0.000    0.000 
#    0.000    0.000    0.000    0.000    0.000    0.000 
#
# Total GULP energy -111631.023440 kJ/mol
# GULP energy per Si atom -5581.551172 kJ/mol
# Density = 1.868920 g / cm^3
# Si number density = 18.731834 Si / 1000 Ang^3
#
#
#
# Elastic Constant Matrix: (Units=GPa)
#
#
# Indices 1 2 3 4 5 6 
#
# 1 145.8423 68.1040 44.1663 0.0000 0.0000 0.0000
# 2 68.1040 134.8600 26.4253 0.0000 0.0000 0.0000
# 3 44.1663 26.4253 68.8866 0.0000 0.0000 0.0000
# 4 0.0000 0.0000 0.0000 -7.3200 0.0000 0.0000
# 5 0.0000 0.0000 0.0000 0.0000 15.3396 0.0000
# 6 0.0000 0.0000 0.0000 0.0000 0.0000 33.3071
#
#
#
# Elastic Compliance Matrix: (Units=1/GPa)
#
#
# Indices 1 2 3 4 5 6 
#
# 1 0.010359 -0.004249 -0.005011 0.000000 0.000000 0.000000
# 2 -0.004249 0.009761 -0.001020 0.000000 0.000000 0.000000
# 3 -0.005011 -0.001020 0.018121 0.000000 0.000000 0.000000
# 4 0.000000 0.000000 0.000000 -0.136612 0.000000 0.000000
# 5 0.000000 0.000000 0.000000 0.000000 0.065191 0.000000
# 6 0.000000 0.000000 0.000000 0.000000 0.000000 0.030024
#
#
# Mechanical properties :
#
#
# Convention : Reuss Voigt Hill
#
# Bulk Modulus (GPa) = 56.56330 69.66445 63.11388
# Shear Modulus (GPa) = 214.62703 22.32489 118.47596
#
# Velocity S-wave (km/s) = 10.71576 3.45601 7.96152
# Velocity P-wave (km/s) = 13.54124 7.29359 10.87570
#
# Compressibility (1/GPa) = 0.01767931
#
# Stress axis : x y z
#
# Youngs Moduli (GPa) = 96.53872 102.45123 55.18491
#
# Poissons Ratio (x) = 0.43532 0.27655
# Poissons Ratio (y) = 0.41020 0.05629
# Poissons Ratio (z) = 0.48379 0.10450
#
# Static dielectric constant tensor:
#      x y z
#    x 1.612810 0.000000 0.000000 
#    y 0.000000 1.595470 0.000000 
#    z 0.000000 0.000000 1.666170 
# 
# From -- ./inp_files/18274.got.cif
#   From: 2010.05.17/outbox.cif.g08.bks.cpg/sg24_10_cif.got.tgz:18274.got - 2010.06.04 00:33:39.
