data_PCOD9335169
_publ_section_title
;
Structure prediction by ZEFSAII (Michael W. Deem and Ramdas Pophale) SiO2 
 PCOD9335169
Probable space group: I 21 21 21
;
_chemical_formula_sum "Si O2"
_cell_formula_units_Z 60
_cell_length_a 11.940789
_cell_length_b 13.144251
_cell_length_c 15.642711
_cell_angle_alpha 90.000000
_cell_angle_beta 90.000000
_cell_angle_gamma 90.000000
_cell_volume 2455.166161
_symmetry_space_group_name_H-M "I 21 21 21"
_symmetry_group_IT_number 24
_symmetry_cell_setting 'orthorhombic'
loop_
_space_group_symop_operation_xyz
x,y,z
-x,1/2-y,z
x,-y,1/2-z
1/2-x,y,-z
1/2+x,1/2+y,1/2+z
1/2-x,-y,1/2+z
1/2+x,1/2-y,-z
-x,1/2+y,1/2-z
loop_
_atom_site_type_symbol
_atom_site_label
_atom_site_fract_x
_atom_site_fract_y
_atom_site_fract_z
Si Si1 0.603684 0.612723 0.361719
Si Si2 0.612400 0.029503 0.349261
Si Si3 0.486472 0.953104 0.846549
Si Si4 0.250000 0.765999 0.500000
Si Si5 0.257617 0.065438 0.401226
Si Si6 0.331974 0.423019 0.900278
Si Si7 0.386160 0.697484 0.757414
Si Si8 0.354109 0.235915 0.305727
O O1 0.492956 0.542810 0.376750
O O2 0.658824 0.675502 0.440880
O O3 0.699796 0.529508 0.346263
O O4 0.589357 0.683177 0.277786
O O5 0.719934 0.991473 0.404639
O O6 0.627876 0.000000 0.250000
O O7 0.607213 0.153554 0.341399
O O8 0.368537 0.913772 0.875754
O O9 0.570634 0.858508 0.841236
O O10 0.470623 0.000000 0.750000
O O11 0.547405 0.026498 0.914145
O O12 0.318123 0.686372 0.557706
O O13 0.250000 0.037061 0.500000
O O14 0.343397 0.156301 0.382882
O O15 0.343780 0.393547 0.801487
O O16 0.500000 0.750000 0.722261
O O17 0.274343 0.758344 0.772536
#
# Coordination Sequence:
#
# PCOD9335169 Si02
#       8
#     8   8   8   4   8   8   8   8
#     4  12  28  49  76 112 159 215 269 336 402 498
#     4  12  24  48  78 114 155 203 274 337 400 490
#     4  10  21  41  74 108 147 195 250 321 385 473
#     4  12  26  50  70 110 168 214 264 332 414 482
#     4  12  27  48  71 112 160 201 265 334 403 486
#     4  11  24  44  73 116 159 198 252 328 400 478
#     4  11  20  40  76 111 143 192 255 317 376 473
#     4  12  24  49  80 111 149 210 270 323 413 481
#
# _framework density 24.438264
#
# number of rings (size 3 to 8) (size 9 to 14) (size 15 to 20)
#    0.000    0.533    6.000    2.400    1.867    4.800 
#    6.000    4.000    0.000    0.000    0.000    0.000 
#    0.000    0.000    0.000    0.000    0.000    0.000 
#
# Total GULP energy -167328.453615 kJ/mol
# GULP energy per Si atom -5577.615121 kJ/mol
# Density = 2.438264 g / cm^3
# Si number density = 24.438264 Si / 1000 Ang^3
#
#
#
# Elastic Constant Matrix: (Units=GPa)
#
#
# Indices 1 2 3 4 5 6 
#
# 1 135.8017 56.7856 35.1511 0.0000 0.0000 0.0000
# 2 56.7856 164.2246 41.9037 0.0000 0.0000 0.0000
# 3 35.1511 41.9037 79.4017 0.0000 0.0000 0.0000
# 4 0.0000 0.0000 0.0000 26.6775 0.0000 0.0000
# 5 0.0000 0.0000 0.0000 0.0000 13.6413 0.0000
# 6 0.0000 0.0000 0.0000 0.0000 0.0000 44.3703
#
#
#
# Elastic Compliance Matrix: (Units=1/GPa)
#
#
# Indices 1 2 3 4 5 6 
#
# 1 0.009095 -0.002447 -0.002735 0.000000 0.000000 0.000000
# 2 -0.002447 0.007695 -0.002978 0.000000 0.000000 0.000000
# 3 -0.002735 -0.002978 0.015376 0.000000 0.000000 0.000000
# 4 0.000000 0.000000 0.000000 0.037485 0.000000 0.000000
# 5 0.000000 0.000000 0.000000 0.000000 0.073307 0.000000
# 6 0.000000 0.000000 0.000000 0.000000 0.000000 0.022538
#
#
# Mechanical properties :
#
#
# Convention : Reuss Voigt Hill
#
# Bulk Modulus (GPa) = 63.10311 71.90097 67.50204
# Shear Modulus (GPa) = 26.72407 33.31032 30.01719
#
# Velocity S-wave (km/s) = 3.31045 3.69594 3.50849
# Velocity P-wave (km/s) = 6.36314 6.90642 6.64034
#
# Compressibility (1/GPa) = 0.01584708
#
# Stress axis : x y z
#
# Youngs Moduli (GPa) = 109.95317 129.95196 65.03456
#
# Poissons Ratio (x) = 0.31799 0.17786
# Poissons Ratio (y) = 0.26905 0.19366
# Poissons Ratio (z) = 0.30071 0.38697
#
# Static dielectric constant tensor:
#      x y z
#    x 2.130790 0.000000 0.000000 
#    y 0.000000 2.042280 0.000000 
#    z 0.000000 0.000000 2.235120 
# 
# From -- ./inp_files/30334.got.cif
#   From: 2010.05.17/outbox.cif.g08.bks.cpg/sg24_16_cif.got.tgz:30334.got - 2010.06.04 00:33:39.
