data_PCOD9335609
_publ_section_title
;
Structure prediction by ZEFSAII (Michael W. Deem and Ramdas Pophale) SiO2 
 PCOD9335609
Probable space group: I 21 21 21
;
_chemical_formula_sum "Si O2"
_cell_formula_units_Z 28
_cell_length_a 18.907872
_cell_length_b 13.901450
_cell_length_c 5.023309
_cell_angle_alpha 90.000000
_cell_angle_beta 90.000000
_cell_angle_gamma 90.000000
_cell_volume 1320.360883
_symmetry_space_group_name_H-M "I 21 21 21"
_symmetry_group_IT_number 24
_symmetry_cell_setting 'orthorhombic'
loop_
_space_group_symop_operation_xyz
x,y,z
-x,1/2-y,z
x,-y,1/2-z
1/2-x,y,-z
1/2+x,1/2+y,1/2+z
1/2-x,-y,1/2+z
1/2+x,1/2-y,-z
-x,1/2+y,1/2-z
loop_
_atom_site_type_symbol
_atom_site_label
_atom_site_fract_x
_atom_site_fract_y
_atom_site_fract_z
Si Si1 0.562814 0.500000 0.250000
Si Si2 0.073406 0.563982 0.513624
Si Si3 0.171054 0.873804 0.052813
Si Si4 0.170632 0.744239 0.550550
O O1 0.507970 0.573748 0.389642
O O2 0.611748 0.447488 0.462247
O O3 0.107582 0.500000 0.750000
O O4 0.113278 0.663779 0.487667
O O5 0.074404 0.500000 0.250000
O O6 0.165065 0.783224 0.850336
O O7 0.250000 0.913737 0.000000
O O8 0.164021 0.834563 0.350267
O O9 0.250000 0.705762 0.500000
#
# Coordination Sequence:
#
# PCOD9335609 Si02
#       4
#     4   8   8   8
#     4  10  26  42  62  94 130 160 216 258 320 390
#     4  10  23  41  60  96 127 167 207 257 326 375
#     4  10  23  41  66  90 123 165 211 266 316 372
#     4  10  22  42  65  94 123 164 215 258 313 380
#
# _framework density 21.206320999999999
#
# number of rings (size 3 to 8) (size 9 to 14) (size 15 to 20)
#    0.857    1.143    0.000    1.714    4.000    5.714 
#    0.000    0.000    0.000    0.000    0.000    0.000 
#    0.000    0.000    0.000    0.000    0.000    0.000 
#
# Total GULP energy -78244.571342 kJ/mol
# GULP energy per Si atom -5588.897953 kJ/mol
# Density = 2.115805 g / cm^3
# Si number density = 21.206321 Si / 1000 Ang^3
#
#
#
# Elastic Constant Matrix: (Units=GPa)
#
#
# Indices 1 2 3 4 5 6 
#
# 1 154.0931 64.1253 8.5371 0.0000 0.0000 0.0000
# 2 64.1253 55.6711 2.2895 0.0000 0.0000 0.0000
# 3 8.5371 2.2895 87.8031 0.0000 0.0000 0.0000
# 4 0.0000 0.0000 0.0000 34.0358 0.0000 0.0000
# 5 0.0000 0.0000 0.0000 0.0000 4.6799 0.0000
# 6 0.0000 0.0000 0.0000 0.0000 0.0000 6.9942
#
#
#
# Elastic Compliance Matrix: (Units=1/GPa)
#
#
# Indices 1 2 3 4 5 6 
#
# 1 0.012526 -0.014394 -0.000843 0.000000 0.000000 0.000000
# 2 -0.014394 0.034522 0.000499 0.000000 0.000000 0.000000
# 3 -0.000843 0.000499 0.011458 0.000000 0.000000 0.000000
# 4 0.000000 0.000000 0.000000 0.029381 0.000000 0.000000
# 5 0.000000 0.000000 0.000000 0.000000 0.213682 0.000000
# 6 0.000000 0.000000 0.000000 0.000000 0.000000 0.142975
#
#
# Mechanical properties :
#
#
# Convention : Reuss Voigt Hill
#
# Bulk Modulus (GPa) = 34.44495 49.71903 42.08199
# Shear Modulus (GPa) = 10.33710 23.98301 17.16006
#
# Velocity S-wave (km/s) = 2.21023 3.36659 2.84772
# Velocity P-wave (km/s) = 4.77405 6.21355 5.54074
#
# Compressibility (1/GPa) = 0.02903183
#
# Stress axis : x y z
#
# Youngs Moduli (GPa) = 79.83302 28.96738 87.27506
#
# Poissons Ratio (x) = 0.41695 0.07354
# Poissons Ratio (y) = 1.14909 -0.04358
# Poissons Ratio (z) = 0.06727 -0.01446
#
# Static dielectric constant tensor:
#      x y z
#    x 1.757840 0.000000 0.000000 
#    y 0.000000 1.742660 0.000000 
#    z 0.000000 0.000000 1.772460 
# 
# From -- ./inp_files/2983.got.cif
#   From: 2010.05.17/outbox.cif.g08.bks.cpg/sg24_2_cif.got.tgz:2983.got - 2010.06.04 00:33:39.
