data_PCOD9335136
_publ_section_title
;
Structure prediction by ZEFSAII (Michael W. Deem and Ramdas Pophale) SiO2 
 PCOD9335136
Probable space group: I 21 21 21
;
_chemical_formula_sum "Si O2"
_cell_formula_units_Z 28
_cell_length_a 9.222779
_cell_length_b 12.186515
_cell_length_c 12.808239
_cell_angle_alpha 90.000000
_cell_angle_beta 90.000000
_cell_angle_gamma 90.000000
_cell_volume 1439.563254
_symmetry_space_group_name_H-M "I 21 21 21"
_symmetry_group_IT_number 24
_symmetry_cell_setting 'orthorhombic'
loop_
_space_group_symop_operation_xyz
x,y,z
-x,1/2-y,z
x,-y,1/2-z
1/2-x,y,-z
1/2+x,1/2+y,1/2+z
1/2-x,-y,1/2+z
1/2+x,1/2-y,-z
-x,1/2+y,1/2-z
loop_
_atom_site_type_symbol
_atom_site_label
_atom_site_fract_x
_atom_site_fract_y
_atom_site_fract_z
Si Si1 0.774654 0.937614 0.117294
Si Si2 0.862439 0.325043 0.904521
Si Si3 0.995386 0.000000 0.750000
Si Si4 0.632940 0.827238 0.689730
O O1 0.877025 0.865527 0.190533
O O2 0.619606 0.936432 0.176094
O O3 0.841156 0.061318 0.123306
O O4 0.750000 0.903278 0.000000
O O5 0.914809 0.425858 0.831866
O O6 0.773305 0.245366 0.829132
O O7 0.000000 0.250000 0.938973
O O8 0.750000 0.351877 0.000000
O O9 0.500000 0.750000 0.663071
#
# Coordination Sequence:
#
# PCOD9335136 Si02
#       4
#     8   8   4   8
#     4  10  21  41  66  89 137 175 207 268 345 377
#     4  12  23  42  69  95 128 175 222 270 328 383
#     4  10  24  42  62 100 132 164 222 284 310 392
#     4  10  22  40  64  96 125 166 226 264 312 404
#
# _framework density 19.450341999999999
#
# number of rings (size 3 to 8) (size 9 to 14) (size 15 to 20)
#    0.000    1.714    5.714    1.714    4.000    2.286 
#    5.143    0.000    0.000    0.000    0.000    0.000 
#    0.000    0.000    0.000    0.000    0.000    0.000 
#
# Total GULP energy -77998.086351 kJ/mol
# GULP energy per Si atom -5571.291882 kJ/mol
# Density = 1.940607 g / cm^3
# Si number density = 19.450342 Si / 1000 Ang^3
#
#
#
# Elastic Constant Matrix: (Units=GPa)
#
#
# Indices 1 2 3 4 5 6 
#
# 1 110.7329 49.5224 33.2873 0.0000 0.0000 0.0000
# 2 49.5224 85.8373 33.0923 0.0000 0.0000 0.0000
# 3 33.2873 33.0923 131.9748 0.0000 0.0000 0.0000
# 4 0.0000 0.0000 0.0000 67.7997 0.0000 0.0000
# 5 0.0000 0.0000 0.0000 0.0000 -4.1045 0.0000
# 6 0.0000 0.0000 0.0000 0.0000 0.0000 23.3503
#
#
#
# Elastic Compliance Matrix: (Units=1/GPa)
#
#
# Indices 1 2 3 4 5 6 
#
# 1 0.012427 -0.006599 -0.001480 0.000000 0.000000 0.000000
# 2 -0.006599 0.016401 -0.002448 0.000000 0.000000 0.000000
# 3 -0.001480 -0.002448 0.008564 0.000000 0.000000 0.000000
# 4 0.000000 0.000000 0.000000 0.014749 0.000000 0.000000
# 5 0.000000 0.000000 0.000000 0.000000 -0.243636 0.000000
# 6 0.000000 0.000000 0.000000 0.000000 0.000000 0.042826
#
#
# Mechanical properties :
#
#
# Convention : Reuss Voigt Hill
#
# Bulk Modulus (GPa) = 61.20500 62.26101 61.73300
# Shear Modulus (GPa) = -40.92670 31.58529 -4.67070
#
# Velocity S-wave (km/s) = -4.59209 4.03413 -1.55131
# Velocity P-wave (km/s) = 1.84911 7.33339 5.34780
#
# Compressibility (1/GPa) = 0.01633854
#
# Stress axis : x y z
#
# Youngs Moduli (GPa) = 80.47161 60.97230 116.76442
#
# Poissons Ratio (x) = 0.40235 0.17277
# Poissons Ratio (y) = 0.53103 0.28585
# Poissons Ratio (z) = 0.11907 0.14926
#
# Static dielectric constant tensor:
#      x y z
#    x 1.277310 0.000000 0.000000 
#    y 0.000000 1.725190 0.000000 
#    z 0.000000 0.000000 1.713990 
# 
# From -- ./inp_files/10131.got.cif
#   From: 2010.05.17/outbox.cif.g08.bks.cpg/sg24_6_cif.got.tgz:10131.got - 2010.06.04 00:33:39.
