data_PCOD9335893
_publ_section_title
;
Structure prediction by ZEFSAII (Michael W. Deem and Ramdas Pophale) SiO2 
 PCOD9335893
Probable space group: I 21 21 21
;
_chemical_formula_sum "Si O2"
_cell_formula_units_Z 40
_cell_length_a 8.123973
_cell_length_b 17.538833
_cell_length_c 13.109397
_cell_angle_alpha 90.000000
_cell_angle_beta 90.000000
_cell_angle_gamma 90.000000
_cell_volume 1867.892507
_symmetry_space_group_name_H-M "I 21 21 21"
_symmetry_group_IT_number 24
_symmetry_cell_setting 'orthorhombic'
loop_
_space_group_symop_operation_xyz
x,y,z
-x,1/2-y,z
x,-y,1/2-z
1/2-x,y,-z
1/2+x,1/2+y,1/2+z
1/2-x,-y,1/2+z
1/2+x,1/2-y,-z
-x,1/2+y,1/2-z
loop_
_atom_site_type_symbol
_atom_site_label
_atom_site_fract_x
_atom_site_fract_y
_atom_site_fract_z
Si Si1 0.550776 0.900878 0.484032
Si Si2 0.935440 0.436293 0.533760
Si Si3 0.469961 0.117797 0.251972
Si Si4 0.500000 0.750000 0.606111
Si Si5 0.250000 0.675476 0.000000
Si Si6 0.750735 0.764712 0.785862
O O1 0.750000 0.899003 0.500000
O O2 0.493492 0.898591 0.366567
O O3 0.477238 0.825425 0.537815
O O4 0.482414 0.983092 0.519173
O O5 0.750000 0.414645 0.500000
O O6 0.936398 0.442011 0.658004
O O7 0.085816 0.377683 0.510945
O O8 0.337635 0.184275 0.269346
O O9 0.637736 0.160707 0.279195
O O10 0.639653 0.770976 0.686719
O O11 0.297500 0.728914 0.903910
#
# Coordination Sequence:
#
# PCOD9335893 Si02
#       6
#     8   8   8   4   4   8
#     4  12  25  47  71 103 151 196 239 309 372 439
#     4  11  26  46  73 106 145 198 247 303 369 440
#     4  10  23  44  69 101 142 190 237 294 372 426
#     4  12  26  40  72 108 138 182 256 292 370 452
#     4  10  24  48  72 104 152 188 248 304 370 438
#     4  10  23  41  71 104 138 188 234 308 360 431
#
# _framework density 21.414508999999999
#
# number of rings (size 3 to 8) (size 9 to 14) (size 15 to 20)
#    0.000    1.200    3.000    1.800    7.000    1.600 
#    0.000    1.000    0.000    0.000    0.000    0.000 
#    0.000    0.000    0.000    0.000    0.000    0.000 
#
# Total GULP energy -111386.271073 kJ/mol
# GULP energy per Si atom -5569.313554 kJ/mol
# Density = 2.136577 g / cm^3
# Si number density = 21.414509 Si / 1000 Ang^3
#
#
#
# Elastic Constant Matrix: (Units=GPa)
#
#
# Indices 1 2 3 4 5 6 
#
# 1 109.9526 39.0694 57.1473 0.0000 0.0000 -0.0001
# 2 39.0694 103.8348 63.4621 -0.0001 0.0000 0.0010
# 3 57.1473 63.4621 162.9132 -0.0002 0.0000 0.0019
# 4 0.0000 -0.0001 -0.0002 29.5963 0.0000 0.0017
# 5 0.0000 0.0000 0.0000 0.0000 36.4556 -0.0002
# 6 -0.0001 0.0010 0.0019 0.0017 -0.0002 168.0150
#
#
#
# Elastic Compliance Matrix: (Units=1/GPa)
#
#
# Indices 1 2 3 4 5 6 
#
# 1 0.011583 -0.002461 -0.003104 0.000000 0.000000 0.000000
# 2 -0.002461 0.013163 -0.004264 0.000000 0.000000 0.000000
# 3 -0.003104 -0.004264 0.008888 0.000000 0.000000 0.000000
# 4 0.000000 0.000000 0.000000 0.033788 0.000000 0.000000
# 5 0.000000 0.000000 0.000000 0.000000 0.027431 0.000000
# 6 0.000000 0.000000 0.000000 0.000000 0.000000 0.005952
#
#
# Mechanical properties :
#
#
# Convention : Reuss Voigt Hill
#
# Bulk Modulus (GPa) = 71.55707 77.33977 74.44842
# Shear Modulus (GPa) = 39.96102 61.28151 50.62127
#
# Velocity S-wave (km/s) = 4.32449 5.35527 4.86725
# Velocity P-wave (km/s) = 7.64348 8.62743 8.15032
#
# Compressibility (1/GPa) = 0.01397486
#
# Stress axis : x y z
#
# Youngs Moduli (GPa) = 86.33538 75.97119 112.50647
#
# Poissons Ratio (x) = 0.18695 0.34927
# Poissons Ratio (y) = 0.21245 0.47977
# Poissons Ratio (z) = 0.26802 0.32397
#
# Static dielectric constant tensor:
#      x y z
#    x 1.810060 0.000000 0.000000 
#    y 0.000000 1.788060 0.000000 
#    z 0.000000 0.000000 1.138600 
# 
# From -- ./inp_files/18249.got.cif
#   From: 2010.05.17/outbox.cif.g08.bks.cpg/sg24_10_cif.got.tgz:18249.got - 2010.06.04 00:33:39.
