data_PCOD9335470
_publ_section_title
;
Structure prediction by ZEFSAII (Michael W. Deem and Ramdas Pophale) SiO2 
 PCOD9335470
Probable space group: I 21 21 21
;
_chemical_formula_sum "Si O2"
_cell_formula_units_Z 48
_cell_length_a 15.984535
_cell_length_b 5.156177
_cell_length_c 28.495536
_cell_angle_alpha 90.000000
_cell_angle_beta 90.000000
_cell_angle_gamma 90.000000
_cell_volume 2348.576195
_symmetry_space_group_name_H-M "I 21 21 21"
_symmetry_group_IT_number 24
_symmetry_cell_setting 'orthorhombic'
loop_
_space_group_symop_operation_xyz
x,y,z
-x,1/2-y,z
x,-y,1/2-z
1/2-x,y,-z
1/2+x,1/2+y,1/2+z
1/2-x,-y,1/2+z
1/2+x,1/2-y,-z
-x,1/2+y,1/2-z
loop_
_atom_site_type_symbol
_atom_site_label
_atom_site_fract_x
_atom_site_fract_y
_atom_site_fract_z
Si Si1 0.399647 0.741000 0.470352
Si Si2 0.193354 0.617672 0.622347
Si Si3 0.943175 0.498129 0.305378
Si Si4 0.601302 0.746208 0.974746
Si Si5 0.196268 0.104979 0.380698
Si Si6 0.900527 0.751178 0.718084
O O1 0.500000 0.750000 0.471167
O O2 0.372623 0.635191 0.419838
O O3 0.370160 0.526634 0.507575
O O4 0.371940 0.025429 0.487634
O O5 0.237229 0.337548 0.627563
O O6 0.151576 0.715316 0.670645
O O7 0.259771 0.835048 0.607795
O O8 0.922964 0.500000 0.250000
O O9 0.860743 0.459712 0.335824
O O10 0.000000 0.250000 0.314799
O O11 0.000000 0.750000 0.316422
O O12 0.500000 0.750000 0.972221
O O13 0.638526 0.685185 0.924225
O O14 0.881744 0.500000 0.750000
O O15 0.000000 0.750000 0.706799
O O16 0.883889 0.000000 0.750000
#
# Coordination Sequence:
#
# PCOD9335470 Si02
#       6
#     8   8   8   8   8   8
#     4  10  22  41  63  86 117 161 207 248 293 356
#     4  12  25  39  60  92 127 159 194 248 314 369
#     4  10  22  42  65  87 116 159 207 249 292 354
#     4  10  22  40  62  86 116 159 208 251 293 355
#     4  12  25  38  61  94 126 160 195 250 316 365
#     4  10  22  42  66  89 118 162 211 254 299 363
#
# _framework density 20.437915
#
# number of rings (size 3 to 8) (size 9 to 14) (size 15 to 20)
#    0.000    1.333    0.000    5.000    0.000    8.000 
#    0.000    6.667    0.000    0.000    0.000    0.000 
#    0.000    0.000    0.000    0.000    0.000    0.000 
#
# Total GULP energy -134160.522945 kJ/mol
# GULP energy per Si atom -5590.021789 kJ/mol
# Density = 2.039140 g / cm^3
# Si number density = 20.437915 Si / 1000 Ang^3
#
#
#
# Elastic Constant Matrix: (Units=GPa)
#
#
# Indices 1 2 3 4 5 6 
#
# 1 22.7418 20.6639 27.2132 0.0000 0.0000 0.0000
# 2 20.6639 128.2479 19.0510 0.0000 0.0000 0.0000
# 3 27.2132 19.0510 73.1981 0.0000 0.0000 0.0000
# 4 0.0000 0.0000 0.0000 13.7912 0.0000 0.0000
# 5 0.0000 0.0000 0.0000 0.0000-1829.1516 0.0000
# 6 0.0000 0.0000 0.0000 0.0000 0.0000 -16.5437
#
#
#
# Elastic Compliance Matrix: (Units=1/GPa)
#
#
# Indices 1 2 3 4 5 6 
#
# 1 0.089859 -0.009899 -0.030831 0.000000 0.000000 0.000000
# 2 -0.009899 0.009201 0.001285 0.000000 0.000000 0.000000
# 3 -0.030831 0.001285 0.024789 0.000000 0.000000 0.000000
# 4 0.000000 0.000000 0.000000 0.072510 0.000000 0.000000
# 5 0.000000 0.000000 0.000000 0.000000 -0.000547 0.000000
# 6 0.000000 0.000000 0.000000 0.000000 0.000000 -0.060446
#
#
# Mechanical properties :
#
#
# Convention : Reuss Voigt Hill
#
# Bulk Modulus (GPa) = 22.24155 39.78266 31.01211
# Shear Modulus (GPa) = 21.81097 -355.89683 -167.04293
#
# Velocity S-wave (km/s) = 3.27032 -13.21036 -9.05038
# Velocity P-wave (km/s) = 5.01658 14.60060 9.69565
#
# Compressibility (1/GPa) = 0.04496089
#
# Stress axis : x y z
#
# Youngs Moduli (GPa) = 11.12856 108.67930 40.34013
#
# Poissons Ratio (x) = 1.07577 1.24372
# Poissons Ratio (y) = 0.11016 -0.05185
# Poissons Ratio (z) = 0.34310 -0.13968
#
# Static dielectric constant tensor:
#      x y z
#    x 1.720770 0.000000 0.000000 
#    y 0.000000 1.795000 0.000000 
#    z 0.000000 0.000000 1.991360 
# 
# From -- ./inp_files/37364.got.cif
#   From: 2010.05.17/outbox.cif.g08.bks.cpg/sg24_19_cif.got.tgz:37364.got - 2010.06.04 00:33:39.
