data_PCOD9335126
_publ_section_title
;
Structure prediction by ZEFSAII (Michael W. Deem and Ramdas Pophale) SiO2 
 PCOD9335126
Probable space group: I 21 21 21
;
_chemical_formula_sum "Si O2"
_cell_formula_units_Z 40
_cell_length_a 15.050910
_cell_length_b 7.647966
_cell_length_c 12.843586
_cell_angle_alpha 90.000000
_cell_angle_beta 90.000000
_cell_angle_gamma 90.000000
_cell_volume 1478.410388
_symmetry_space_group_name_H-M "I 21 21 21"
_symmetry_group_IT_number 24
_symmetry_cell_setting 'orthorhombic'
loop_
_space_group_symop_operation_xyz
x,y,z
-x,1/2-y,z
x,-y,1/2-z
1/2-x,y,-z
1/2+x,1/2+y,1/2+z
1/2-x,-y,1/2+z
1/2+x,1/2-y,-z
-x,1/2+y,1/2-z
loop_
_atom_site_type_symbol
_atom_site_label
_atom_site_fract_x
_atom_site_fract_y
_atom_site_fract_z
Si Si1 0.908429 0.482379 0.855920
Si Si2 0.277063 0.140593 0.619784
Si Si3 0.149879 0.520810 0.408891
Si Si4 0.464661 0.054292 0.588865
Si Si5 0.170449 0.604079 0.642618
O O1 0.964326 0.500000 0.750000
O O2 0.818569 0.595881 0.833260
O O3 0.950983 0.541083 0.963885
O O4 0.885034 0.279716 0.867984
O O5 0.250000 0.116074 0.500000
O O6 0.311245 0.338263 0.634772
O O7 0.366881 0.028805 0.635874
O O8 0.150774 0.500595 0.534802
O O9 0.225208 0.654734 0.373135
O O10 0.049280 0.560566 0.377957
O O11 0.500000 0.250000 0.609940
O O12 0.159099 0.500000 0.750000
#
# Coordination Sequence:
#
# PCOD9335126 Si02
#       5
#     8   8   8   8   8
#     4  11  24  39  64  95 127 166 216 267 315 398
#     4   9  17  37  64  84 117 165 211 247 311 380
#     4  10  21  41  63  91 128 168 205 268 326 378
#     4   9  21  38  65  90 121 165 211 260 324 378
#     4  11  24  39  63  94 129 172 215 258 326 384
#
# _framework density 27.056087999999999
#
# number of rings (size 3 to 8) (size 9 to 14) (size 15 to 20)
#    0.000    2.000    2.000    1.200   14.000    1.600 
#    0.000    1.000    0.000    0.000    0.000    0.000 
#    0.000    0.000    0.000    0.000    0.000    0.000 
#
# Total GULP energy -111836.002396 kJ/mol
# GULP energy per Si atom -5591.800120 kJ/mol
# Density = 2.699451 g / cm^3
# Si number density = 27.056088 Si / 1000 Ang^3
#
#
#
# Elastic Constant Matrix: (Units=GPa)
#
#
# Indices 1 2 3 4 5 6 
#
# 1 205.8170 29.5610 -1.8996 0.0000 0.0000 0.0000
# 2 29.5610 72.5294 0.1798 0.0000 0.0000 0.0000
# 3 -1.8996 0.1798 120.6510 0.0000 0.0000 0.0000
# 4 0.0000 0.0000 0.0000 22.3236 0.0000 0.0000
# 5 0.0000 0.0000 0.0000 0.0000 -2.2093 0.0000
# 6 0.0000 0.0000 0.0000 0.0000 0.0000 10.2666
#
#
#
# Elastic Compliance Matrix: (Units=1/GPa)
#
#
# Indices 1 2 3 4 5 6 
#
# 1 0.005162 -0.002104 0.000084 0.000000 0.000000 0.000000
# 2 -0.002104 0.014645 -0.000055 0.000000 0.000000 0.000000
# 3 0.000084 -0.000055 0.008290 0.000000 0.000000 0.000000
# 4 0.000000 0.000000 0.000000 0.044796 0.000000 0.000000
# 5 0.000000 0.000000 0.000000 0.000000 -0.452628 0.000000
# 6 0.000000 0.000000 0.000000 0.000000 0.000000 0.097404
#
#
# Mechanical properties :
#
#
# Convention : Reuss Voigt Hill
#
# Bulk Modulus (GPa) = 41.75788 50.51998 46.13893
# Shear Modulus (GPa) = -18.50479 30.81990 6.15756
#
# Velocity S-wave (km/s) = -2.61807 3.37873 1.51023
# Velocity P-wave (km/s) = 2.51561 5.82529 4.48677
#
# Compressibility (1/GPa) = 0.02394758
#
# Stress axis : x y z
#
# Youngs Moduli (GPa) = 193.73644 68.28194 120.63047
#
# Poissons Ratio (x) = 0.14366 -0.01018
# Poissons Ratio (y) = 0.40761 0.00663
# Poissons Ratio (z) = -0.01635 0.00375
#
# Static dielectric constant tensor:
#      x y z
#    x 2.224030 0.000000 0.000000 
#    y 0.000000 2.132250 0.000000 
#    z 0.000000 0.000000 2.142590 
# 
# From -- ./inp_files/26912.got.cif
#   From: 2010.05.17/outbox.cif.g08.bks.cpg/sg24_14_cif.got.tgz:26912.got - 2010.06.04 00:33:39.
