data_PCOD9335639
_publ_section_title
;
Structure prediction by ZEFSAII (Michael W. Deem and Ramdas Pophale) SiO2 
 PCOD9335639
Probable space group: I 21 21 21
;
_chemical_formula_sum "Si O2"
_cell_formula_units_Z 40
_cell_length_a 7.987519
_cell_length_b 23.929548
_cell_length_c 9.668968
_cell_angle_alpha 90.000000
_cell_angle_beta 90.000000
_cell_angle_gamma 90.000000
_cell_volume 1848.104492
_symmetry_space_group_name_H-M "I 21 21 21"
_symmetry_group_IT_number 24
_symmetry_cell_setting 'orthorhombic'
loop_
_space_group_symop_operation_xyz
x,y,z
-x,1/2-y,z
x,-y,1/2-z
1/2-x,y,-z
1/2+x,1/2+y,1/2+z
1/2-x,-y,1/2+z
1/2+x,1/2-y,-z
-x,1/2+y,1/2-z
loop_
_atom_site_type_symbol
_atom_site_label
_atom_site_fract_x
_atom_site_fract_y
_atom_site_fract_z
Si Si1 0.057174 0.916640 0.477416
Si Si2 0.750000 0.331271 0.500000
Si Si3 0.500000 0.250000 0.645638
Si Si4 0.018908 0.897059 0.795234
Si Si5 0.643884 0.137841 0.733817
Si Si6 0.941904 0.033651 0.462516
O O1 0.250000 0.898496 0.500000
O O2 0.005616 0.914607 0.636831
O O3 0.933073 0.880665 0.381591
O O4 0.038286 0.978827 0.413071
O O5 0.607202 0.290927 0.552670
O O6 0.672821 0.363033 0.364955
O O7 0.605137 0.203720 0.726975
O O8 0.838318 0.867161 0.810731
O O9 0.021431 0.950763 0.891891
O O10 0.560501 0.090333 0.630201
O O11 0.750000 0.018181 0.500000
#
# Coordination Sequence:
#
# PCOD9335639 Si02
#       6
#     8   4   4   8   8   8
#     4  12  26  41  67 102 142 177 223 288 352 414
#     4  12  24  42  72 104 132 182 236 286 340 420
#     4  12  24  42  70  96 134 174 228 286 330 410
#     4  11  24  44  70 100 136 178 231 281 348 419
#     4  11  24  46  68 100 135 182 230 284 348 411
#     4  10  22  42  69  99 134 179 225 276 346 421
#
# _framework density 21.643798
#
# number of rings (size 3 to 8) (size 9 to 14) (size 15 to 20)
#    0.000    0.800    2.000    5.400    2.800    4.800 
#    0.000    7.000    0.000    0.000    0.000    0.000 
#    0.000    0.000    0.000    0.000    0.000    0.000 
#
# Total GULP energy -111352.755225 kJ/mol
# GULP energy per Si atom -5567.637761 kJ/mol
# Density = 2.159454 g / cm^3
# Si number density = 21.643798 Si / 1000 Ang^3
#
#
#
# Elastic Constant Matrix: (Units=GPa)
#
#
# Indices 1 2 3 4 5 6 
#
# 1 70.1312 15.2607 -0.6532 0.0000 0.0000 0.0000
# 2 15.2607 79.9124 12.3326 -0.0001 0.0000 -0.0001
# 3 -0.6532 12.3326 102.9601 0.0015 0.0003 -0.0003
# 4 0.0000 -0.0001 0.0015 23.9582 0.0001 -0.0001
# 5 0.0000 0.0000 0.0003 0.0001 28.5223 0.0000
# 6 0.0000 -0.0001 -0.0003 -0.0001 0.0000 22.7846
#
#
#
# Elastic Compliance Matrix: (Units=1/GPa)
#
#
# Indices 1 2 3 4 5 6 
#
# 1 0.014897 -0.002913 0.000443 0.000000 0.000000 0.000000
# 2 -0.002913 0.013319 -0.001614 0.000000 0.000000 0.000000
# 3 0.000443 -0.001614 0.009909 -0.000001 0.000000 0.000000
# 4 0.000000 0.000000 -0.000001 0.041739 0.000000 0.000000
# 5 0.000000 0.000000 0.000000 0.000000 0.035060 0.000000
# 6 0.000000 0.000000 0.000000 0.000000 0.000000 0.043889
#
#
# Mechanical properties :
#
#
# Convention : Reuss Voigt Hill
#
# Bulk Modulus (GPa) = 33.38072 34.09823 33.73948
# Shear Modulus (GPa) = 28.25387 30.12393 29.18890
#
# Velocity S-wave (km/s) = 3.61696 3.73474 3.67632
# Velocity P-wave (km/s) = 5.73580 5.86397 5.80024
#
# Compressibility (1/GPa) = 0.02995741
#
# Stress axis : x y z
#
# Youngs Moduli (GPa) = 67.12739 75.08013 100.92224
#
# Poissons Ratio (x) = 0.21873 -0.04476
# Poissons Ratio (y) = 0.19556 0.16287
# Poissons Ratio (z) = -0.02977 0.12117
#
# Static dielectric constant tensor:
#      x y z
#    x 2.031620 0.000000 0.000000 
#    y 0.000000 1.791090 0.000000 
#    z 0.000000 0.000000 1.948000 
# 
# From -- ./inp_files/9358.got.cif
#   From: 2010.05.17/outbox.cif.g08.bks.cpg/sg24_5_cif.got.tgz:9358.got - 2010.06.04 00:33:39.
