data_PCOD9335106
_publ_section_title
;
Structure prediction by ZEFSAII (Michael W. Deem and Ramdas Pophale) SiO2 
 PCOD9335106
Probable space group: I 21 21 21
;
_chemical_formula_sum "Si O2"
_cell_formula_units_Z 48
_cell_length_a 7.365385
_cell_length_b 28.690924
_cell_length_c 9.326018
_cell_angle_alpha 90.000000
_cell_angle_beta 90.000000
_cell_angle_gamma 90.000000
_cell_volume 1970.771338
_symmetry_space_group_name_H-M "I 21 21 21"
_symmetry_group_IT_number 24
_symmetry_cell_setting 'orthorhombic'
loop_
_space_group_symop_operation_xyz
x,y,z
-x,1/2-y,z
x,-y,1/2-z
1/2-x,y,-z
1/2+x,1/2+y,1/2+z
1/2-x,-y,1/2+z
1/2+x,1/2-y,-z
-x,1/2+y,1/2-z
loop_
_atom_site_type_symbol
_atom_site_label
_atom_site_fract_x
_atom_site_fract_y
_atom_site_fract_z
Si Si1 0.798123 0.703104 0.255097
Si Si2 0.451450 0.548352 0.818116
Si Si3 0.987840 0.955999 0.849465
Si Si4 0.164661 0.700102 0.147895
Si Si5 0.959778 0.139254 0.769617
Si Si6 0.936211 0.619821 0.429123
O O1 0.799159 0.758839 0.263058
O O2 0.599302 0.681745 0.245564
O O3 0.891079 0.672447 0.379076
O O4 0.948964 0.693557 0.131167
O O5 0.510969 0.500000 0.750000
O O6 0.231713 0.547268 0.829695
O O7 0.507895 0.588472 0.705614
O O8 0.523241 0.545504 0.980856
O O9 0.055204 0.906252 0.794427
O O10 0.044861 0.000000 0.750000
O O11 0.274503 0.654572 0.194024
O O12 0.250000 0.716668 0.000000
O O13 0.932474 0.125812 0.935250
O O14 0.750000 0.600831 0.500000
#
# Coordination Sequence:
#
# PCOD9335106 Si02
#       6
#     8   8   8   8   8   8
#     4  10  25  45  65 101 139 184 235 299 346 427
#     4  10  21  40  69 101 147 187 239 300 350 432
#     4  10  22  39  70 112 140 185 240 295 365 425
#     4  11  26  43  70 103 139 183 238 293 361 427
#     4  11  24  44  73 100 142 188 237 293 364 427
#     4  10  23  46  65  99 142 192 239 294 358 433
#
# _framework density 24.355945999999999
#
# number of rings (size 3 to 8) (size 9 to 14) (size 15 to 20)
#    0.000    1.667    0.000    2.500    9.333    4.000 
#   21.000    6.667    0.000    1.000    0.000    0.000 
#    0.000    0.000    0.000    0.000    0.000    0.000 
#
# Total GULP energy -134047.555992 kJ/mol
# GULP energy per Si atom -5585.314833 kJ/mol
# Density = 2.430051 g / cm^3
# Si number density = 24.355946 Si / 1000 Ang^3
#
#
#
# Elastic Constant Matrix: (Units=GPa)
#
#
# Indices 1 2 3 4 5 6 
#
# 1 101.9845 5.8538 21.8886 0.0002 0.0000 0.0000
# 2 5.8538 145.1581 57.0793 0.0011 0.0003 0.0001
# 3 21.8886 57.0793 159.8682 0.0016 0.0004 0.0001
# 4 0.0002 0.0011 0.0016 37.6180 0.0003 0.0001
# 5 0.0000 0.0003 0.0004 0.0003 31.9259 0.0001
# 6 0.0000 0.0001 0.0001 0.0001 0.0001 3.8336
#
#
#
# Elastic Compliance Matrix: (Units=1/GPa)
#
#
# Indices 1 2 3 4 5 6 
#
# 1 0.010105 0.000159 -0.001440 0.000000 0.000000 0.000000
# 2 0.000159 0.008017 -0.002884 0.000000 0.000000 0.000000
# 3 -0.001440 -0.002884 0.007482 0.000000 0.000000 0.000000
# 4 0.000000 0.000000 0.000000 0.026583 0.000000 0.000000
# 5 0.000000 0.000000 0.000000 0.000000 0.031323 -0.000001
# 6 0.000000 0.000000 0.000000 0.000000 -0.000001 0.260854
#
#
# Mechanical properties :
#
#
# Convention : Reuss Voigt Hill
#
# Bulk Modulus (GPa) = 57.89319 64.07269 60.98294
# Shear Modulus (GPa) = 13.94885 36.15478 25.05181
#
# Velocity S-wave (km/s) = 2.39573 3.85701 3.21061
# Velocity P-wave (km/s) = 5.61016 6.79701 6.23190
#
# Compressibility (1/GPa) = 0.01727319
#
# Stress axis : x y z
#
# Youngs Moduli (GPa) = 98.95676 124.73973 133.65295
#
# Poissons Ratio (x) = -0.01981 0.19250
# Poissons Ratio (y) = -0.01572 0.38546
# Poissons Ratio (z) = 0.14253 0.35975
#
# Static dielectric constant tensor:
#      x y z
#    x 2.009330 0.000000 0.000000 
#    y 0.000000 1.941890 0.000000 
#    z 0.000000 0.000000 1.953440 
# 
# From -- ./inp_files/9777.got.cif
#   From: 2010.05.17/outbox.cif.g08.bks.cpg/sg24_5_cif.got.tgz:9777.got - 2010.06.04 00:33:39.
