data_PCOD9335897
_publ_section_title
;
Structure prediction by ZEFSAII (Michael W. Deem and Ramdas Pophale) SiO2 
 PCOD9335897
Probable space group: I 21 21 21
;
_chemical_formula_sum "Si O2"
_cell_formula_units_Z 28
_cell_length_a 27.431103
_cell_length_b 5.069522
_cell_length_c 9.841968
_cell_angle_alpha 90.000000
_cell_angle_beta 90.000000
_cell_angle_gamma 90.000000
_cell_volume 1368.649464
_symmetry_space_group_name_H-M "I 21 21 21"
_symmetry_group_IT_number 24
_symmetry_cell_setting 'orthorhombic'
loop_
_space_group_symop_operation_xyz
x,y,z
-x,1/2-y,z
x,-y,1/2-z
1/2-x,y,-z
1/2+x,1/2+y,1/2+z
1/2-x,-y,1/2+z
1/2+x,1/2-y,-z
-x,1/2+y,1/2-z
loop_
_atom_site_type_symbol
_atom_site_label
_atom_site_fract_x
_atom_site_fract_y
_atom_site_fract_z
Si Si1 0.298710 0.500000 0.750000
Si Si2 0.852769 0.603479 0.902331
Si Si3 0.465588 0.500000 0.750000
Si Si4 0.750000 0.301428 0.500000
Si Si5 0.380600 0.368812 0.949059
O O1 0.266350 0.360320 0.634762
O O2 0.337523 0.330676 0.837357
O O3 0.856376 0.500000 0.750000
O O4 0.797656 0.543775 0.952467
O O5 0.888357 0.414939 0.985986
O O6 0.862778 0.907995 0.942633
O O7 0.500000 0.250000 0.735423
O O8 0.428941 0.467833 0.876390
#
# Coordination Sequence:
#
# PCOD9335897 Si02
#       5
#     4   8   4   4   8
#     4   9  22  38  58  86 128 166 212 274 302 363
#     4  11  24  38  62  86 131 178 211 257 308 374
#     4  11  22  42  76  98 118 154 208 270 338 397
#     4  10  24  34  62  86 128 174 240 254 304 360
#     4  10  23  42  60  94 127 158 206 271 325 366
#
# _framework density 20.458126
#
# number of rings (size 3 to 8) (size 9 to 14) (size 15 to 20)
#    0.000    1.714    0.000    2.571   12.000    9.143 
#    0.000    0.000    0.000   17.143    0.000    0.000 
#    0.000    0.000    0.000    0.000    0.000    0.000 
#
# Total GULP energy -78130.318728 kJ/mol
# GULP energy per Si atom -5580.737052 kJ/mol
# Density = 2.041156 g / cm^3
# Si number density = 20.458126 Si / 1000 Ang^3
#
#
#
# Elastic Constant Matrix: (Units=GPa)
#
#
# Indices 1 2 3 4 5 6 
#
# 1 101.5342 23.1182 32.8664 0.0000 0.0000 0.0000
# 2 23.1182 75.8931 25.6620 0.0000 0.0000 0.0000
# 3 32.8664 25.6620 126.0794 0.0000 0.0000 0.0000
# 4 0.0000 0.0000 0.0000 20.8577 0.0000 0.0000
# 5 0.0000 0.0000 0.0000 0.0000 13.3579 0.0000
# 6 0.0000 0.0000 0.0000 0.0000 0.0000 31.8610
#
#
#
# Elastic Compliance Matrix: (Units=1/GPa)
#
#
# Indices 1 2 3 4 5 6 
#
# 1 0.011217 -0.002608 -0.002393 0.000000 0.000000 0.000000
# 2 -0.002608 0.014757 -0.002324 0.000000 0.000000 0.000000
# 3 -0.002393 -0.002324 0.009028 0.000000 0.000000 0.000000
# 4 0.000000 0.000000 0.000000 0.047944 0.000000 0.000000
# 5 0.000000 0.000000 0.000000 0.000000 0.074862 0.000000
# 6 0.000000 0.000000 0.000000 0.000000 0.000000 0.031386
#
#
# Mechanical properties :
#
#
# Convention : Reuss Voigt Hill
#
# Bulk Modulus (GPa) = 49.13371 51.86665 50.50018
# Shear Modulus (GPa) = 23.73851 28.00602 25.87226
#
# Velocity S-wave (km/s) = 3.41008 3.70394 3.56004
# Velocity P-wave (km/s) = 6.29077 6.61059 6.45266
#
# Compressibility (1/GPa) = 0.02035263
#
# Stress axis : x y z
#
# Youngs Moduli (GPa) = 89.14745 67.76671 110.76185
#
# Poissons Ratio (x) = 0.17672 0.26509
# Poissons Ratio (y) = 0.23247 0.25738
# Poissons Ratio (z) = 0.21336 0.15747
#
# Static dielectric constant tensor:
#      x y z
#    x 1.690420 0.000000 0.000000 
#    y 0.000000 1.728440 0.000000 
#    z 0.000000 0.000000 1.790390 
# 
# From -- ./inp_files/1042.got.cif
#   From: 2010.05.17/outbox.cif.g08.bks.cpg/sg24_1_cif.got.tgz:1042.got - 2010.06.04 00:33:39.
