data_PCOD9335403
_publ_section_title
;
Structure prediction by ZEFSAII (Michael W. Deem and Ramdas Pophale) SiO2 
 PCOD9335403
Probable space group: I 21 21 21
;
_chemical_formula_sum "Si O2"
_cell_formula_units_Z 36
_cell_length_a 11.508695
_cell_length_b 4.937370
_cell_length_c 26.658528
_cell_angle_alpha 90.000000
_cell_angle_beta 90.000000
_cell_angle_gamma 90.000000
_cell_volume 1514.809151
_symmetry_space_group_name_H-M "I 21 21 21"
_symmetry_group_IT_number 24
_symmetry_cell_setting 'orthorhombic'
loop_
_space_group_symop_operation_xyz
x,y,z
-x,1/2-y,z
x,-y,1/2-z
1/2-x,y,-z
1/2+x,1/2+y,1/2+z
1/2-x,-y,1/2+z
1/2+x,1/2-y,-z
-x,1/2+y,1/2-z
loop_
_atom_site_type_symbol
_atom_site_label
_atom_site_fract_x
_atom_site_fract_y
_atom_site_fract_z
Si Si1 0.225386 0.916712 0.057819
Si Si2 0.500000 0.750000 0.720076
Si Si3 0.421145 0.999096 0.137997
Si Si4 0.617200 0.927711 0.603583
Si Si5 0.240436 0.683210 0.298126
O O1 0.123953 0.715669 0.076650
O O2 0.338512 0.892540 0.093239
O O3 0.184728 0.222596 0.067565
O O4 0.250000 0.866405 0.000000
O O5 0.448529 0.500000 0.750000
O O6 0.376440 0.872922 0.702759
O O7 0.500000 0.250000 0.119400
O O8 0.343906 0.128410 0.182408
O O9 0.500000 0.750000 0.155311
O O10 0.500000 0.750000 0.616251
O O11 0.692333 0.985886 0.653947
O O12 0.273653 0.500000 0.250000
#
# Coordination Sequence:
#
# PCOD9335403 Si02
#       5
#     8   4   8   8   8
#     4  11  25  45  71 104 144 187 245 300 367 432
#     4  10  22  38  66 100 132 174 226 298 364 404
#     4  11  25  47  73 105 149 200 246 297 357 441
#     4  11  23  43  69 107 141 179 233 306 373 432
#     4  10  23  46  72 107 142 188 245 303 362 432
#
# _framework density 23.765367999999999
#
# number of rings (size 3 to 8) (size 9 to 14) (size 15 to 20)
#    0.000    1.333    1.111    4.000    0.000   13.333 
#    0.000    4.444    0.000    0.000    0.000    0.000 
#    0.000    0.000    0.000    0.000    0.000    0.000 
#
# Total GULP energy -100231.100434 kJ/mol
# GULP energy per Si atom -5568.394469 kJ/mol
# Density = 2.371128 g / cm^3
# Si number density = 23.765368 Si / 1000 Ang^3
#
#
#
# Elastic Constant Matrix: (Units=GPa)
#
#
# Indices 1 2 3 4 5 6 
#
# 1 158.4790 46.9204 67.9098 0.0000 0.0000 0.0000
# 2 46.9204 105.1875 64.7308 0.0000 0.0000 0.0000
# 3 67.9098 64.7308 155.1149 0.0000 0.0000 0.0000
# 4 0.0000 0.0000 0.0000 25.1041 0.0000 0.0000
# 5 0.0000 0.0000 0.0000 0.0000 10.5822 0.0000
# 6 0.0000 0.0000 0.0000 0.0000 0.0000 32.4032
#
#
#
# Elastic Compliance Matrix: (Units=1/GPa)
#
#
# Indices 1 2 3 4 5 6 
#
# 1 0.008043 -0.001912 -0.002723 0.000000 0.000000 0.000000
# 2 -0.001912 0.013246 -0.004691 0.000000 0.000000 0.000000
# 3 -0.002723 -0.004691 0.009597 0.000000 0.000000 0.000000
# 4 0.000000 0.000000 0.000000 0.039834 0.000000 0.000000
# 5 0.000000 0.000000 0.000000 0.000000 0.094498 0.000000
# 6 0.000000 0.000000 0.000000 0.000000 0.000000 0.030861
#
#
# Mechanical properties :
#
#
# Convention : Reuss Voigt Hill
#
# Bulk Modulus (GPa) = 81.73989 86.43372 84.08680
# Shear Modulus (GPa) = 22.85095 29.56593 26.20844
#
# Velocity S-wave (km/s) = 3.10421 3.53097 3.32445
# Velocity P-wave (km/s) = 6.87876 7.28507 7.08483
#
# Compressibility (1/GPa) = 0.01223393
#
# Stress axis : x y z
#
# Youngs Moduli (GPa) = 124.33142 75.49308 104.20240
#
# Poissons Ratio (x) = 0.14432 0.28379
# Poissons Ratio (y) = 0.23769 0.48880
# Poissons Ratio (z) = 0.33861 0.35412
#
# Static dielectric constant tensor:
#      x y z
#    x 1.955660 0.000000 0.000000 
#    y 0.000000 1.888430 0.000000 
#    z 0.000000 0.000000 1.916710 
# 
# From -- ./inp_files/6189.got.cif
#   From: 2010.05.17/outbox.cif.g08.bks.cpg/sg24_4_cif.got.tgz:6189.got - 2010.06.04 00:33:39.
