data_PCOD9335827
_publ_section_title
;
Structure prediction by ZEFSAII (Michael W. Deem and Ramdas Pophale) SiO2 
 PCOD9335827
Probable space group: I 21 21 21
;
_chemical_formula_sum "Si O2"
_cell_formula_units_Z 36
_cell_length_a 5.013180
_cell_length_b 26.321611
_cell_length_c 10.926997
_cell_angle_alpha 90.000000
_cell_angle_beta 90.000000
_cell_angle_gamma 90.000000
_cell_volume 1441.871603
_symmetry_space_group_name_H-M "I 21 21 21"
_symmetry_group_IT_number 24
_symmetry_cell_setting 'orthorhombic'
loop_
_space_group_symop_operation_xyz
x,y,z
-x,1/2-y,z
x,-y,1/2-z
1/2-x,y,-z
1/2+x,1/2+y,1/2+z
1/2-x,-y,1/2+z
1/2+x,1/2-y,-z
-x,1/2+y,1/2-z
loop_
_atom_site_type_symbol
_atom_site_label
_atom_site_fract_x
_atom_site_fract_y
_atom_site_fract_z
Si Si1 0.698922 0.500000 0.250000
Si Si2 0.250000 0.838479 0.000000
Si Si3 0.510589 0.419545 0.082119
Si Si4 0.978551 0.160847 0.744768
Si Si5 0.110211 0.576900 0.118915
Si Si6 0.500000 0.750000 0.416742
O O1 0.491296 0.467656 0.170344
O O2 0.896274 0.539669 0.181467
O O3 0.384821 0.815772 0.122647
O O4 0.038629 0.876424 0.055221
O O5 0.641550 0.371419 0.154398
O O6 0.750000 0.438477 0.000000
O O7 0.250000 0.407824 0.000000
O O8 0.792572 0.112682 0.706867
O O9 0.876918 0.207020 0.826672
O O10 0.250000 0.551407 0.000000
O O11 0.750000 0.732840 0.500000
#
# Coordination Sequence:
#
# PCOD9335827 Si02
#       6
#     4   4   8   8   8   4
#     4  12  26  46  70 112 158 212 274 334 402 476
#     4  10  22  48  76 102 158 198 252 334 388 470
#     4  12  28  46  73 107 154 206 264 327 395 481
#     4  11  25  50  77 112 154 207 261 332 403 480
#     4  10  24  46  72 107 154 205 261 326 398 471
#     4  12  30  52  86 118 162 206 260 332 408 492
#
# _framework density 24.967547
#
# number of rings (size 3 to 8) (size 9 to 14) (size 15 to 20)
#    0.000    0.889    2.222    2.667    4.667    6.222 
#    6.000    0.000    0.000    0.000    0.000    0.000 
#    0.000    0.000    0.000    0.000    0.000    0.000 
#
# Total GULP energy -100246.170843 kJ/mol
# GULP energy per Si atom -5569.231713 kJ/mol
# Density = 2.491072 g / cm^3
# Si number density = 24.967547 Si / 1000 Ang^3
#
#
#
# Elastic Constant Matrix: (Units=GPa)
#
#
# Indices 1 2 3 4 5 6 
#
# 1 83.9467 8.3549 29.7423 0.0000 0.0000 0.0000
# 2 8.3549 85.2554 58.8540 0.0000 0.0000 0.0000
# 3 29.7423 58.8540 126.0151 0.0000 0.0000 0.0000
# 4 0.0000 0.0000 0.0000 33.7098 0.0000 0.0000
# 5 0.0000 0.0000 0.0000 0.0000 36.7873 0.0000
# 6 0.0000 0.0000 0.0000 0.0000 0.0000 17.8016
#
#
#
# Elastic Compliance Matrix: (Units=1/GPa)
#
#
# Indices 1 2 3 4 5 6 
#
# 1 0.013090 0.001254 -0.003675 0.000000 0.000000 0.000000
# 2 0.001254 0.017431 -0.008437 0.000000 0.000000 0.000000
# 3 -0.003675 -0.008437 0.012743 0.000000 0.000000 0.000000
# 4 0.000000 0.000000 0.000000 0.029665 0.000000 0.000000
# 5 0.000000 0.000000 0.000000 0.000000 0.027183 0.000000
# 6 0.000000 0.000000 0.000000 0.000000 0.000000 0.056175
#
#
# Mechanical properties :
#
#
# Convention : Reuss Voigt Hill
#
# Bulk Modulus (GPa) = 46.40775 54.34661 50.37718
# Shear Modulus (GPa) = 27.00002 30.87747 28.93874
#
# Velocity S-wave (km/s) = 3.29204 3.52050 3.40818
# Velocity P-wave (km/s) = 5.75131 6.19188 5.97566
#
# Compressibility (1/GPa) = 0.02154813
#
# Stress axis : x y z
#
# Youngs Moduli (GPa) = 76.39639 57.36989 78.47219
#
# Poissons Ratio (x) = -0.07196 0.28841
# Poissons Ratio (y) = -0.09583 0.66206
# Poissons Ratio (z) = 0.28078 0.48402
#
# Static dielectric constant tensor:
#      x y z
#    x 1.956020 0.000000 0.000000 
#    y 0.000000 1.958080 0.000000 
#    z 0.000000 0.000000 1.750530 
# 
# From -- ./inp_files/17546.got.cif
#   From: 2010.05.17/outbox.cif.g08.bks.cpg/sg24_9_cif.got.tgz:17546.got - 2010.06.04 00:33:39.
