data_PCOD9335526
_publ_section_title
;
Structure prediction by ZEFSAII (Michael W. Deem and Ramdas Pophale) SiO2 
 PCOD9335526
Probable space group: I 21 21 21
;
_chemical_formula_sum "Si O2"
_cell_formula_units_Z 36
_cell_length_a 8.216467
_cell_length_b 8.732773
_cell_length_c 19.939327
_cell_angle_alpha 90.000000
_cell_angle_beta 90.000000
_cell_angle_gamma 90.000000
_cell_volume 1430.697382
_symmetry_space_group_name_H-M "I 21 21 21"
_symmetry_group_IT_number 24
_symmetry_cell_setting 'orthorhombic'
loop_
_space_group_symop_operation_xyz
x,y,z
-x,1/2-y,z
x,-y,1/2-z
1/2-x,y,-z
1/2+x,1/2+y,1/2+z
1/2-x,-y,1/2+z
1/2+x,1/2-y,-z
-x,1/2+y,1/2-z
loop_
_atom_site_type_symbol
_atom_site_label
_atom_site_fract_x
_atom_site_fract_y
_atom_site_fract_z
Si Si1 0.603007 0.521158 0.392195
Si Si2 0.750000 0.301177 0.500000
Si Si3 0.751212 0.817920 0.367421
Si Si4 0.625564 0.876025 0.876167
Si Si5 0.679084 0.285586 0.274654
O O1 0.631288 0.402608 0.452806
O O2 0.723480 0.662301 0.407784
O O3 0.421858 0.591238 0.382409
O O4 0.664038 0.435798 0.322718
O O5 0.661939 0.190955 0.551788
O O6 0.778677 0.750996 0.292255
O O7 0.891927 0.942542 0.380382
O O8 0.500000 0.750000 0.846856
O O9 0.774539 0.846581 0.826510
O O10 0.500000 0.250000 0.249082
#
# Coordination Sequence:
#
# PCOD9335526 Si02
#       5
#     8   4   8   8   8
#     4  10  22  40  69 113 138 189 243 317 358 438
#     4  10  26  46  62  94 146 190 260 296 372 438
#     4  11  22  39  75 108 138 191 253 303 369 442
#     4  11  26  43  67 102 144 201 240 302 382 440
#     4  11  20  40  73 107 148 181 243 303 373 443
#
# _framework density 25.162552999999999
#
# number of rings (size 3 to 8) (size 9 to 14) (size 15 to 20)
#    0.000    1.333    4.444    1.333    3.111    0.889 
#    4.000   12.222    0.000    0.000    0.000    0.000 
#    0.000    0.000    0.000    0.000    0.000    0.000 
#
# Total GULP energy -100307.080610 kJ/mol
# GULP energy per Si atom -5572.615589 kJ/mol
# Density = 2.510528 g / cm^3
# Si number density = 25.162553 Si / 1000 Ang^3
#
#
#
# Elastic Constant Matrix: (Units=GPa)
#
#
# Indices 1 2 3 4 5 6 
#
# 1 48.6051 18.7103 4.0559 0.0000 0.0000 0.0000
# 2 18.7103 139.9160 21.5348 0.0000 0.0000 0.0000
# 3 4.0559 21.5348 130.0526 0.0000 0.0000 0.0000
# 4 0.0000 0.0000 0.0000 43.7112 0.0000 0.0000
# 5 0.0000 0.0000 0.0000 0.0000 23.3878 0.0000
# 6 0.0000 0.0000 0.0000 0.0000 0.0000 33.4145
#
#
#
# Elastic Compliance Matrix: (Units=1/GPa)
#
#
# Indices 1 2 3 4 5 6 
#
# 1 0.021696 -0.002870 -0.000201 0.000000 0.000000 0.000000
# 2 -0.002870 0.007714 -0.001188 0.000000 0.000000 0.000000
# 3 -0.000201 -0.001188 0.007892 0.000000 0.000000 0.000000
# 4 0.000000 0.000000 0.000000 0.022877 0.000000 0.000000
# 5 0.000000 0.000000 0.000000 0.000000 0.042757 0.000000
# 6 0.000000 0.000000 0.000000 0.000000 0.000000 0.029927
#
#
# Mechanical properties :
#
#
# Convention : Reuss Voigt Hill
#
# Bulk Modulus (GPa) = 34.74291 45.24173 39.99232
# Shear Modulus (GPa) = 33.11771 38.38754 35.75263
#
# Velocity S-wave (km/s) = 3.63182 3.91011 3.77353
# Velocity P-wave (km/s) = 5.60572 6.19710 5.90882
#
# Compressibility (1/GPa) = 0.02878285
#
# Stress axis : x y z
#
# Youngs Moduli (GPa) = 46.09216 129.63803 126.70810
#
# Poissons Ratio (x) = 0.37210 0.02551
# Poissons Ratio (y) = 0.13230 0.15050
# Poissons Ratio (z) = 0.00928 0.15398
#
# Static dielectric constant tensor:
#      x y z
#    x 2.127740 0.000000 0.000000 
#    y 0.000000 2.022560 0.000000 
#    z 0.000000 0.000000 1.933580 
# 
# From -- ./inp_files/9086.got.cif
#   From: 2010.05.17/outbox.cif.g08.bks.cpg/sg24_5_cif.got.tgz:9086.got - 2010.06.04 00:33:39.
