data_PCOD9335043
_publ_section_title
;
Structure prediction by ZEFSAII (Michael W. Deem and Ramdas Pophale) SiO2 
 PCOD9335043
Probable space group: I 21 21 21
;
_chemical_formula_sum "Si O2"
_cell_formula_units_Z 64
_cell_length_a 16.109936
_cell_length_b 8.626579
_cell_length_c 21.377678
_cell_angle_alpha 90.000000
_cell_angle_beta 90.000000
_cell_angle_gamma 90.000000
_cell_volume 2970.933632
_symmetry_space_group_name_H-M "I 21 21 21"
_symmetry_group_IT_number 24
_symmetry_cell_setting 'orthorhombic'
loop_
_space_group_symop_operation_xyz
x,y,z
-x,1/2-y,z
x,-y,1/2-z
1/2-x,y,-z
1/2+x,1/2+y,1/2+z
1/2-x,-y,1/2+z
1/2+x,1/2-y,-z
-x,1/2+y,1/2-z
loop_
_atom_site_type_symbol
_atom_site_label
_atom_site_fract_x
_atom_site_fract_y
_atom_site_fract_z
Si Si1 0.824757 0.236885 0.128655
Si Si2 0.964174 0.575799 0.680566
Si Si3 0.781087 0.981144 0.561686
Si Si4 0.554366 0.984533 0.821560
Si Si5 0.826883 0.746562 0.113324
Si Si6 0.929475 0.467959 0.062375
Si Si7 0.779785 0.497200 0.676975
Si Si8 0.529947 0.073211 0.443337
O O1 0.740387 0.142670 0.114650
O O2 0.879455 0.306956 0.071370
O O3 0.795852 0.390498 0.162168
O O4 0.880709 0.124396 0.169459
O O5 0.971264 0.500000 0.750000
O O6 0.869124 0.559381 0.655796
O O7 0.000000 0.750000 0.683265
O O8 0.011754 0.482782 0.626892
O O9 0.750000 0.896303 0.500000
O O10 0.715264 0.118083 0.573724
O O11 0.871908 0.045975 0.551824
O O12 0.604718 0.827192 0.840880
O O13 0.523552 0.000000 0.750000
O O14 0.487411 0.012614 0.876111
O O15 0.868759 0.617250 0.069043
O O16 0.750882 0.666362 0.150319
O O17 0.981942 0.480756 0.998661
O O18 0.788499 0.500000 0.750000
O O19 0.500000 0.250000 0.450417
#
# Coordination Sequence:
#
# PCOD9335043 Si02
#       8
#     8   8   8   8   8   8   8   8
#     4  10  23  40  59  90 127 167 209 255 310 376
#     4  11  25  44  67  96 128 165 213 267 327 392
#     4  11  23  41  63  89 123 163 208 256 315 380
#     4  11  22  37  61  93 128 168 213 261 311 369
#     4  10  22  40  61  89 124 164 209 256 311 378
#     4  11  24  41  63  92 129 167 211 258 314 379
#     4  10  21  40  63  89 124 164 206 255 311 375
#     4  12  24  43  70  96 127 166 214 274 331 387
#
# _framework density 21.542051000000001
#
# number of rings (size 3 to 8) (size 9 to 14) (size 15 to 20)
#    0.000    1.250    0.000    6.375    0.000    8.000 
#    0.000    5.625    0.000    0.000    0.000    0.000 
#    0.000    0.000    0.000    0.000    0.000    0.000 
#
# Total GULP energy -178589.461530 kJ/mol
# GULP energy per Si atom -5580.920673 kJ/mol
# Density = 2.149302 g / cm^3
# Si number density = 21.542051 Si / 1000 Ang^3
#
#
#
# Elastic Constant Matrix: (Units=GPa)
#
#
# Indices 1 2 3 4 5 6 
#
# 1 99.5456 12.9942 26.7035 0.0000 0.0000 0.0000
# 2 12.9942 65.1929 4.7278 0.0000 0.0000 0.0000
# 3 26.7035 4.7278 85.1682 0.0000 0.0000 0.0000
# 4 0.0000 0.0000 0.0000 23.2635 0.0000 0.0000
# 5 0.0000 0.0000 0.0000 0.0000 41.0466 0.0000
# 6 0.0000 0.0000 0.0000 0.0000 0.0000 21.9907
#
#
#
# Elastic Compliance Matrix: (Units=1/GPa)
#
#
# Indices 1 2 3 4 5 6 
#
# 1 0.011219 -0.001989 -0.003407 0.000000 0.000000 0.000000
# 2 -0.001989 0.015754 -0.000251 0.000000 0.000000 0.000000
# 3 -0.003407 -0.000251 0.012824 0.000000 0.000000 0.000000
# 4 0.000000 0.000000 0.000000 0.042986 0.000000 0.000000
# 5 0.000000 0.000000 0.000000 0.000000 0.024363 0.000000
# 6 0.000000 0.000000 0.000000 0.000000 0.000000 0.045474
#
#
# Mechanical properties :
#
#
# Convention : Reuss Voigt Hill
#
# Bulk Modulus (GPa) = 35.08488 37.63974 36.36231
# Shear Modulus (GPa) = 28.83271 30.95891 29.89581
#
# Velocity S-wave (km/s) = 3.66244 3.79507 3.72934
# Velocity P-wave (km/s) = 5.84864 6.05921 5.95486
#
# Compressibility (1/GPa) = 0.02850230
#
# Stress axis : x y z
#
# Youngs Moduli (GPa) = 89.13198 63.47691 77.98060
#
# Poissons Ratio (x) = 0.12626 0.26570
# Poissons Ratio (y) = 0.17730 0.01956
# Poissons Ratio (z) = 0.30370 0.01592
#
# Static dielectric constant tensor:
#      x y z
#    x 1.942100 0.000000 0.000000 
#    y 0.000000 1.799760 0.000000 
#    z 0.000000 0.000000 1.802690 
# 
# From -- ./inp_files/35864.got.cif
#   From: 2010.05.17/outbox.cif.g08.bks.cpg/sg24_18_cif.got.tgz:35864.got - 2010.06.04 00:33:39.
