data_PCOD9335626
_publ_section_title
;
Structure prediction by ZEFSAII (Michael W. Deem and Ramdas Pophale) SiO2 
 PCOD9335626
Probable space group: I 21 21 21
;
_chemical_formula_sum "Si O2"
_cell_formula_units_Z 64
_cell_length_a 9.114536
_cell_length_b 22.831019
_cell_length_c 13.918345
_cell_angle_alpha 90.000000
_cell_angle_beta 90.000000
_cell_angle_gamma 90.000000
_cell_volume 2896.326097
_symmetry_space_group_name_H-M "I 21 21 21"
_symmetry_group_IT_number 24
_symmetry_cell_setting 'orthorhombic'
loop_
_space_group_symop_operation_xyz
x,y,z
-x,1/2-y,z
x,-y,1/2-z
1/2-x,y,-z
1/2+x,1/2+y,1/2+z
1/2-x,-y,1/2+z
1/2+x,1/2-y,-z
-x,1/2+y,1/2-z
loop_
_atom_site_type_symbol
_atom_site_label
_atom_site_fract_x
_atom_site_fract_y
_atom_site_fract_z
Si Si1 0.119824 0.876694 0.641331
Si Si2 0.393953 0.617184 0.533611
Si Si3 0.620776 0.000000 0.640360
Si Si4 0.880177 0.623307 0.858668
Si Si5 0.398943 0.197801 0.862600
Si Si6 0.106047 0.617184 0.033610
Si Si7 0.726678 0.500000 0.886081
Si Si8 0.101058 0.197801 0.362601
O O1 0.066163 0.863117 0.749999
O O2 0.236919 0.826214 0.609912
O O3 0.997793 0.885307 0.559768
O O4 0.201859 0.939281 0.647101
O O5 0.250000 0.652112 0.500000
O O6 0.336554 0.557405 0.581218
O O7 0.493573 0.643972 0.616932
O O8 0.663446 0.057405 0.581218
O O9 0.443647 0.000000 0.639371
O O10 0.675052 0.000000 0.750000
O O11 0.798141 0.560719 0.852898
O O12 0.763083 0.673786 0.890088
O O13 0.002208 0.614692 0.940230
O O14 0.500000 0.250000 0.906759
O O15 0.382527 0.210711 0.750000
O O16 0.006424 0.643972 0.116930
O O17 0.250000 0.652112 0.000000
O O18 0.750000 0.500001 0.000000
O O19 0.000000 0.250000 0.406760
#
# Coordination Sequence:
#
# PCOD9335626 Si02
#       8
#     8   8   8   8   8   8   8   8
#     4  11  22  39  65  94 125 164 210 258 306 368
#     4  12  25  40  61  92 131 170 208 254 313 374
#     4  12  23  39  62  91 126 167 211 257 313 370
#     4  11  22  39  65  94 125 164 210 258 306 368
#     4  10  22  42  67  92 119 158 210 264 317 371
#     4  12  25  40  61  92 131 170 208 254 313 374
#     4  12  18  35  66  94 125 158 210 259 307 371
#     4  10  22  42  67  92 119 158 210 264 317 371
#
# _framework density 22.096959999999999
#
# number of rings (size 3 to 8) (size 9 to 14) (size 15 to 20)
#    0.000    0.750    5.000    3.000    0.000    4.000 
#    0.000    0.000    0.000    5.250    0.000    0.000 
#    0.000    0.000    0.000    0.000    0.000    0.000 
#
# Total GULP energy -178406.193861 kJ/mol
# GULP energy per Si atom -5575.193558 kJ/mol
# Density = 2.204667 g / cm^3
# Si number density = 22.096960 Si / 1000 Ang^3
#
#
#
# Elastic Constant Matrix: (Units=GPa)
#
#
# Indices 1 2 3 4 5 6 
#
# 1 78.5683 2.8392 21.0811 0.0000 0.0000 0.0000
# 2 2.8392 63.1574 22.4356 -0.0001 0.0000 0.0000
# 3 21.0811 22.4356 98.0525 -0.0001 0.0000 0.0000
# 4 0.0000 -0.0001 -0.0001 24.7597 0.0000 0.0000
# 5 0.0000 0.0000 0.0000 0.0000 4.9353 0.0000
# 6 0.0000 0.0000 0.0000 0.0000 0.0000 4.9143
#
#
#
# Elastic Compliance Matrix: (Units=1/GPa)
#
#
# Indices 1 2 3 4 5 6 
#
# 1 0.013519 0.000462 -0.003012 0.000000 0.000000 0.000000
# 2 0.000462 0.017250 -0.004046 0.000000 0.000000 0.000000
# 3 -0.003012 -0.004046 0.011772 0.000000 0.000000 0.000000
# 4 0.000000 0.000000 0.000000 0.040388 0.000000 0.000000
# 5 0.000000 0.000000 0.000000 0.000000 0.202620 0.000001
# 6 0.000000 0.000000 0.000000 0.000000 0.000001 0.203487
#
#
# Mechanical properties :
#
#
# Convention : Reuss Voigt Hill
#
# Bulk Modulus (GPa) = 34.07316 36.94332 35.50824
# Shear Modulus (GPa) = 9.76538 19.81669 14.79104
#
# Velocity S-wave (km/s) = 2.10450 2.99792 2.59003
# Velocity P-wave (km/s) = 4.62153 5.36082 5.00485
#
# Compressibility (1/GPa) = 0.02934861
#
# Stress axis : x y z
#
# Youngs Moduli (GPa) = 73.96804 57.97071 84.94621
#
# Poissons Ratio (x) = -0.02680 0.25589
# Poissons Ratio (y) = -0.03420 0.34373
# Poissons Ratio (z) = 0.22282 0.23457
#
# Static dielectric constant tensor:
#      x y z
#    x 1.765680 0.000000 0.000000 
#    y 0.000000 1.886820 0.000000 
#    z 0.000000 0.000000 1.840420 
# 
# From -- ./inp_files/25207.got.cif
#   From: 2010.05.17/outbox.cif.g08.bks.cpg/sg24_13_cif.got.tgz:25207.got - 2010.06.04 00:33:39.
