data_PCOD9335730
_publ_section_title
;
Structure prediction by ZEFSAII (Michael W. Deem and Ramdas Pophale) SiO2 
 PCOD9335730
Probable space group: I 21 21 21
;
_chemical_formula_sum "Si O2"
_cell_formula_units_Z 36
_cell_length_a 5.198627
_cell_length_b 12.611159
_cell_length_c 24.280506
_cell_angle_alpha 90.000000
_cell_angle_beta 90.000000
_cell_angle_gamma 90.000000
_cell_volume 1591.847253
_symmetry_space_group_name_H-M "I 21 21 21"
_symmetry_group_IT_number 24
_symmetry_cell_setting 'orthorhombic'
loop_
_space_group_symop_operation_xyz
x,y,z
-x,1/2-y,z
x,-y,1/2-z
1/2-x,y,-z
1/2+x,1/2+y,1/2+z
1/2-x,-y,1/2+z
1/2+x,1/2-y,-z
-x,1/2+y,1/2-z
loop_
_atom_site_type_symbol
_atom_site_label
_atom_site_fract_x
_atom_site_fract_y
_atom_site_fract_z
Si Si1 0.749165 0.820482 0.422367
Si Si2 0.820210 0.500000 0.250000
Si Si3 0.397014 0.006361 0.556957
Si Si4 0.006272 0.958796 0.653344
Si Si5 0.398315 0.631996 0.844805
O O1 0.500000 0.750000 0.441381
O O2 0.694778 0.867657 0.361779
O O3 0.000000 0.750000 0.423566
O O4 0.862934 0.927052 0.450590
O O5 0.639007 0.431672 0.210335
O O6 0.979278 0.564596 0.205190
O O7 0.250000 0.027714 0.500000
O O8 0.500976 0.103145 0.593713
O O9 0.196031 0.955423 0.600795
O O10 0.887405 0.078295 0.655097
O O11 0.500000 0.750000 0.834884
#
# Coordination Sequence:
#
# PCOD9335730 Si02
#       5
#     8   4   8   8   8
#     4  11  22  44  68 103 143 186 240 297 369 450
#     4  10  22  44  66  98 140 186 236 318 374 454
#     4  10  23  45  69 100 146 192 245 318 372 454
#     4  10  22  45  64  97 145 182 245 305 377 449
#     4  10  23  45  68 106 143 194 254 314 392 468
#
# _framework density 22.615233
#
# number of rings (size 3 to 8) (size 9 to 14) (size 15 to 20)
#    0.000    1.778    2.222    0.667    0.000    7.111 
#   24.000    0.000    0.000    0.000    0.000    0.000 
#    0.000    0.000    0.000    0.000    0.000    0.000 
#
# Total GULP energy -100201.333050 kJ/mol
# GULP energy per Si atom -5566.740725 kJ/mol
# Density = 2.256376 g / cm^3
# Si number density = 22.615233 Si / 1000 Ang^3
#
#
#
# Elastic Constant Matrix: (Units=GPa)
#
#
# Indices 1 2 3 4 5 6 
#
# 1 118.5596 30.5576 51.8507 0.0000 0.0000 0.0000
# 2 30.5576 98.6016 28.1092 0.0000 0.0000 0.0000
# 3 51.8507 28.1092 169.3460 0.0000 0.0000 0.0000
# 4 0.0000 0.0000 0.0000 -17.9333 0.0000 0.0000
# 5 0.0000 0.0000 0.0000 0.0000 29.7936 0.0000
# 6 0.0000 0.0000 0.0000 0.0000 0.0000 26.1745
#
#
#
# Elastic Compliance Matrix: (Units=1/GPa)
#
#
# Indices 1 2 3 4 5 6 
#
# 1 0.010251 -0.002395 -0.002741 0.000000 0.000000 0.000000
# 2 -0.002395 0.011205 -0.001127 0.000000 0.000000 0.000000
# 3 -0.002741 -0.001127 0.006931 0.000000 0.000000 0.000000
# 4 0.000000 0.000000 0.000000 -0.055762 0.000000 0.000000
# 5 0.000000 0.000000 0.000000 0.000000 0.033564 0.000000
# 6 0.000000 0.000000 0.000000 0.000000 0.000000 0.038205
#
#
# Mechanical properties :
#
#
# Convention : Reuss Voigt Hill
#
# Bulk Modulus (GPa) = 63.04554 67.50469 65.27512
# Shear Modulus (GPa) = 80.37618 26.00628 53.19123
#
# Velocity S-wave (km/s) = 5.96807 3.39476 4.85501
# Velocity P-wave (km/s) = 8.68496 6.72903 7.76880
#
# Compressibility (1/GPa) = 0.01586155
#
# Stress axis : x y z
#
# Youngs Moduli (GPa) = 97.55432 89.24329 144.27321
#
# Poissons Ratio (x) = 0.21377 0.39545
# Poissons Ratio (y) = 0.23368 0.16253
# Poissons Ratio (z) = 0.26739 0.10053
#
# Static dielectric constant tensor:
#      x y z
#    x 2.014100 0.000000 0.000000 
#    y 0.000000 1.919100 0.000000 
#    z 0.000000 0.000000 1.811520 
# 
# From -- ./inp_files/34548.got.cif
#   From: 2010.05.17/outbox.cif.g08.bks.cpg/sg24_18_cif.got.tgz:34548.got - 2010.06.04 00:33:39.
