data_PCOD9335602
_publ_section_title
;
Structure prediction by ZEFSAII (Michael W. Deem and Ramdas Pophale) SiO2 
 PCOD9335602
Probable space group: I 21 21 21
;
_chemical_formula_sum "Si O2"
_cell_formula_units_Z 24
_cell_length_a 6.126778
_cell_length_b 7.137160
_cell_length_c 24.992114
_cell_angle_alpha 90.000000
_cell_angle_beta 90.000000
_cell_angle_gamma 90.000000
_cell_volume 1092.850034
_symmetry_space_group_name_H-M "I 21 21 21"
_symmetry_group_IT_number 24
_symmetry_cell_setting 'orthorhombic'
loop_
_space_group_symop_operation_xyz
x,y,z
-x,1/2-y,z
x,-y,1/2-z
1/2-x,y,-z
1/2+x,1/2+y,1/2+z
1/2-x,-y,1/2+z
1/2+x,1/2-y,-z
-x,1/2+y,1/2-z
loop_
_atom_site_type_symbol
_atom_site_label
_atom_site_fract_x
_atom_site_fract_y
_atom_site_fract_z
Si Si1 0.868180 0.920280 0.450266
Si Si2 0.145600 0.415110 0.697821
Si Si3 0.500000 0.750000 0.371665
Si Si4 0.500000 0.750000 0.882279
O O1 0.750000 0.019644 0.500000
O O2 0.702719 0.816108 0.408975
O O3 0.000000 0.750000 0.475557
O O4 0.022180 0.067761 0.419867
O O5 0.264055 0.500000 0.750000
O O6 0.303111 0.315746 0.655323
O O7 0.000000 0.250000 0.720432
O O8 0.995426 0.568461 0.667318
#
# Coordination Sequence:
#
# PCOD9335602 Si02
#       4
#     8   8   4   4
#     4  11  22  42  67  95 128 172 215 265 325 386
#     4  11  22  42  67  95 128 172 215 265 325 386
#     4  10  22  42  64  94 128 164 220 270 322 382
#     4  10  26  42  60 102 132 164 212 278 318 378
#
# _framework density 21.960926000000001
#
# number of rings (size 3 to 8) (size 9 to 14) (size 15 to 20)
#    0.000    1.333    3.333    2.000    0.000    2.667 
#   24.000    0.000    0.000    0.000    0.000    0.000 
#    0.000    0.000    0.000    0.000    0.000    0.000 
#
# Total GULP energy -66816.090803 kJ/mol
# GULP energy per Si atom -5568.007567 kJ/mol
# Density = 2.191094 g / cm^3
# Si number density = 21.960926 Si / 1000 Ang^3
#
#
#
# Elastic Constant Matrix: (Units=GPa)
#
#
# Indices 1 2 3 4 5 6 
#
# 1 24.6819 43.1279 15.0149 0.0000 0.0000 0.0000
# 2 43.1279 136.2321 55.4997 0.0000 0.0000 0.0000
# 3 15.0149 55.4997 116.7472 0.0000 0.0000 0.0000
# 4 0.0000 0.0000 0.0000 0.6123 0.0000 0.0000
# 5 0.0000 0.0000 0.0000 0.0000 28.5805 0.0000
# 6 0.0000 0.0000 0.0000 0.0000 0.0000 43.3492
#
#
#
# Elastic Compliance Matrix: (Units=1/GPa)
#
#
# Indices 1 2 3 4 5 6 
#
# 1 0.091247 -0.029895 0.002477 -0.000001 0.000000 0.000000
# 2 -0.029895 0.018898 -0.005139 0.000000 0.000000 0.000000
# 3 0.002477 -0.005139 0.010690 0.000000 0.000000 0.000000
# 4 -0.000001 0.000000 0.000000 1.633263 0.000000 0.000000
# 5 0.000000 0.000000 0.000000 0.000000 0.034989 0.000000
# 6 0.000000 0.000000 0.000000 0.000000 0.000000 0.023068
#
#
# Mechanical properties :
#
#
# Convention : Reuss Voigt Hill
#
# Bulk Modulus (GPa) = 17.94719 56.10513 37.02616
# Shear Modulus (GPa) = 2.63735 25.44298 14.04017
#
# Velocity S-wave (km/s) = 1.09706 3.40745 2.53123
# Velocity P-wave (km/s) = 3.12966 6.40969 5.04375
#
# Compressibility (1/GPa) = 0.05571901
#
# Stress axis : x y z
#
# Youngs Moduli (GPa) = 10.95931 52.91504 93.54514
#
# Poissons Ratio (x) = 1.58192 -0.23167
# Poissons Ratio (y) = 0.32763 0.48073
# Poissons Ratio (z) = -0.02714 0.27193
#
# Static dielectric constant tensor:
#      x y z
#    x 1.931490 0.000000 0.000000 
#    y 0.000000 1.750740 0.000000 
#    z 0.000000 0.000000 1.813750 
# 
# From -- ./inp_files/863.got.cif
#   From: 2010.05.17/outbox.cif.g08.bks.cpg/sg24_1_cif.got.tgz:863.got - 2010.06.04 00:33:39.
