data_PCOD9335182
_publ_section_title
;
Structure prediction by ZEFSAII (Michael W. Deem and Ramdas Pophale) SiO2 
 PCOD9335182
Probable space group: I 21 21 21
;
_chemical_formula_sum "Si O2"
_cell_formula_units_Z 48
_cell_length_a 10.974186
_cell_length_b 17.373920
_cell_length_c 11.910226
_cell_angle_alpha 90.000000
_cell_angle_beta 90.000000
_cell_angle_gamma 90.000000
_cell_volume 2270.858829
_symmetry_space_group_name_H-M "I 21 21 21"
_symmetry_group_IT_number 24
_symmetry_cell_setting 'orthorhombic'
loop_
_space_group_symop_operation_xyz
x,y,z
-x,1/2-y,z
x,-y,1/2-z
1/2-x,y,-z
1/2+x,1/2+y,1/2+z
1/2-x,-y,1/2+z
1/2+x,1/2-y,-z
-x,1/2+y,1/2-z
loop_
_atom_site_type_symbol
_atom_site_label
_atom_site_fract_x
_atom_site_fract_y
_atom_site_fract_z
Si Si1 0.110809 0.925203 0.817222
Si Si2 0.750000 0.926761 0.000000
Si Si3 0.338865 0.623211 0.234404
Si Si4 0.188788 0.790718 0.671762
Si Si5 0.593570 0.356756 0.940727
Si Si6 0.617813 0.045030 0.858706
Si Si7 0.250000 0.001621 0.000000
O O1 0.175088 0.848720 0.774594
O O2 0.151400 0.947623 0.940883
O O3 0.970141 0.913605 0.786658
O O4 0.154189 0.000000 0.750000
O O5 0.780866 0.877194 0.890330
O O6 0.642767 0.984280 0.958050
O O7 0.349585 0.706717 0.289807
O O8 0.249212 0.574732 0.314475
O O9 0.108650 0.825922 0.568353
O O10 0.329013 0.795415 0.630419
O O11 0.461417 0.382911 0.900954
O O12 0.669776 0.436705 0.930248
O O13 0.563823 0.000000 0.750000
#
# Coordination Sequence:
#
# PCOD9335182 Si02
#       7
#     8   4   8   8   8   8   4
#     4  12  21  42  69  96 134 174 234 288 345 413
#     4  10  22  43  67  98 134 184 234 274 350 415
#     4  11  25  44  63 102 146 186 232 288 357 423
#     4  10  24  42  63  98 140 179 224 288 354 410
#     4  10  21  42  65 101 130 172 238 283 348 403
#     4  10  23  40  71 102 132 182 232 298 343 414
#     4  10  22  37  67 104 118 176 230 302 334 397
#
# _framework density 21.137376
#
# number of rings (size 3 to 8) (size 9 to 14) (size 15 to 20)
#    0.000    1.667    3.333    3.000    4.667    2.667 
#    6.000    0.000    0.000    0.000    0.000    0.000 
#    0.000    0.000    0.000    0.000    0.000    0.000 
#
# Total GULP energy -133939.794012 kJ/mol
# GULP energy per Si atom -5580.824750 kJ/mol
# Density = 2.108927 g / cm^3
# Si number density = 21.137376 Si / 1000 Ang^3
#
#
#
# Elastic Constant Matrix: (Units=GPa)
#
#
# Indices 1 2 3 4 5 6 
#
# 1 88.8531 40.0498 41.0913 0.0000 0.0000 0.0000
# 2 40.0498 123.3495 46.7460 0.0006 0.0000 0.0000
# 3 41.0913 46.7460 79.3779 0.0009 -0.0001 -0.0001
# 4 0.0000 0.0006 0.0009 29.0545 0.0000 0.0000
# 5 0.0000 0.0000 -0.0001 0.0000 31.1227 0.0000
# 6 0.0000 0.0000 -0.0001 0.0000 0.0000 22.2723
#
#
#
# Elastic Compliance Matrix: (Units=1/GPa)
#
#
# Indices 1 2 3 4 5 6 
#
# 1 0.015394 -0.002547 -0.006469 0.000000 0.000000 0.000000
# 2 -0.002547 0.010857 -0.005076 0.000000 0.000000 0.000000
# 3 -0.006469 -0.005076 0.018936 0.000000 0.000000 0.000000
# 4 0.000000 0.000000 0.000000 0.034418 0.000000 0.000000
# 5 0.000000 0.000000 0.000000 0.000000 0.032131 0.000000
# 6 0.000000 0.000000 0.000000 0.000000 0.000000 0.044899
#
#
# Mechanical properties :
#
#
# Convention : Reuss Voigt Hill
#
# Bulk Modulus (GPa) = 58.80841 60.81719 59.81280
# Shear Modulus (GPa) = 26.24850 27.40279 26.82565
#
# Velocity S-wave (km/s) = 3.52775 3.60448 3.56632
# Velocity P-wave (km/s) = 6.66901 6.79396 6.73178
#
# Compressibility (1/GPa) = 0.01700437
#
# Stress axis : x y z
#
# Youngs Moduli (GPa) = 64.95938 92.10276 52.80927
#
# Poissons Ratio (x) = 0.23455 0.34164
# Poissons Ratio (y) = 0.16542 0.26805
# Poissons Ratio (z) = 0.42025 0.46749
#
# Static dielectric constant tensor:
#      x y z
#    x 1.836950 0.000000 0.000000 
#    y 0.000000 1.732130 0.000000 
#    z 0.000000 0.000000 1.819470 
# 
# From -- ./inp_files/19727.got.cif
#   From: 2010.05.17/outbox.cif.g08.bks.cpg/sg24_10_cif.got.tgz:19727.got - 2010.06.04 00:33:39.
