data_PCOD9335078
_publ_section_title
;
Structure prediction by ZEFSAII (Michael W. Deem and Ramdas Pophale) SiO2 
 PCOD9335078
Probable space group: I 21 21 21
;
_chemical_formula_sum "Si O2"
_cell_formula_units_Z 44
_cell_length_a 15.138756
_cell_length_b 6.535270
_cell_length_c 20.051748
_cell_angle_alpha 90.000000
_cell_angle_beta 90.000000
_cell_angle_gamma 90.000000
_cell_volume 1983.836891
_symmetry_space_group_name_H-M "I 21 21 21"
_symmetry_group_IT_number 24
_symmetry_cell_setting 'orthorhombic'
loop_
_space_group_symop_operation_xyz
x,y,z
-x,1/2-y,z
x,-y,1/2-z
1/2-x,y,-z
1/2+x,1/2+y,1/2+z
1/2-x,-y,1/2+z
1/2+x,1/2-y,-z
-x,1/2+y,1/2-z
loop_
_atom_site_type_symbol
_atom_site_label
_atom_site_fract_x
_atom_site_fract_y
_atom_site_fract_z
Si Si1 0.727023 0.287449 0.637360
Si Si2 0.409117 0.626897 0.183189
Si Si3 0.897902 0.927432 0.398404
Si Si4 0.922524 0.078966 0.535528
Si Si5 0.750000 0.659800 0.000000
Si Si6 0.064358 0.987924 0.322787
O O1 0.822514 0.266187 0.669873
O O2 0.725940 0.434818 0.571344
O O3 0.649738 0.370489 0.683164
O O4 0.688549 0.065444 0.614309
O O5 0.500000 0.750000 0.192219
O O6 0.393415 0.500000 0.250000
O O7 0.421678 0.507313 0.112417
O O8 0.900776 0.727406 0.352428
O O9 0.986311 0.042319 0.373561
O O10 0.915785 0.908153 0.477813
O O11 0.833787 0.207912 0.522396
O O12 0.000000 0.250000 0.528030
O O13 0.021903 0.000000 0.250000
#
# Coordination Sequence:
#
# PCOD9335078 Si02
#       6
#     8   8   8   8   4   8
#     4  10  21  40  66  84 127 166 206 258 326 377
#     4  10  23  42  66  93 123 173 225 285 340 374
#     4  10  22  39  63  94 129 169 202 249 322 398
#     4   9  17  37  65  87 122 168 212 259 327 388
#     4   8  16  34  60  88 106 156 204 250 304 376
#     4  11  25  36  58  99 133 160 209 251 311 403
#
# _framework density 22.179241999999999
#
# number of rings (size 3 to 8) (size 9 to 14) (size 15 to 20)
#    0.000    2.182    0.000    2.727    7.636    0.727 
#    3.273    5.455    0.000    0.000    0.000    0.000 
#    0.000    0.000    0.000    0.000    0.000    0.000 
#
# Total GULP energy -122473.674950 kJ/mol
# GULP energy per Si atom -5566.985225 kJ/mol
# Density = 2.212876 g / cm^3
# Si number density = 22.179242 Si / 1000 Ang^3
#
#
#
# Elastic Constant Matrix: (Units=GPa)
#
#
# Indices 1 2 3 4 5 6 
#
# 1 146.8421 12.5012 9.0601 0.0000 0.0000 0.0000
# 2 12.5012 45.1146 13.6205 0.0000 0.0000 0.0000
# 3 9.0601 13.6205 156.0013 0.0000 0.0000 0.0000
# 4 0.0000 0.0000 0.0000 16.9927 0.0000 0.0000
# 5 0.0000 0.0000 0.0000 0.0000 45.6033 0.0000
# 6 0.0000 0.0000 0.0000 0.0000 0.0000 21.7174
#
#
#
# Elastic Compliance Matrix: (Units=1/GPa)
#
#
# Indices 1 2 3 4 5 6 
#
# 1 0.006984 -0.001862 -0.000243 0.000000 0.000000 0.000000
# 2 -0.001862 0.023262 -0.001923 0.000000 0.000000 0.000000
# 3 -0.000243 -0.001923 0.006592 0.000000 0.000000 0.000000
# 4 0.000000 0.000000 0.000000 0.058849 0.000000 0.000000
# 5 0.000000 0.000000 0.000000 0.000000 0.021928 0.000000
# 6 0.000000 0.000000 0.000000 0.000000 0.000000 0.046046
#
#
# Mechanical properties :
#
#
# Convention : Reuss Voigt Hill
#
# Bulk Modulus (GPa) = 34.74326 46.48018 40.61172
# Shear Modulus (GPa) = 27.57700 37.71443 32.64571
#
# Velocity S-wave (km/s) = 3.52997 4.12811 3.84070
# Velocity P-wave (km/s) = 5.68445 6.61240 6.16591
#
# Compressibility (1/GPa) = 0.02878256
#
# Stress axis : x y z
#
# Youngs Moduli (GPa) = 143.19406 42.98820 151.69430
#
# Poissons Ratio (x) = 0.08003 0.03687
# Poissons Ratio (y) = 0.26659 0.29169
# Poissons Ratio (z) = 0.03480 0.08266
#
# Static dielectric constant tensor:
#      x y z
#    x 1.842060 0.000000 0.000000 
#    y 0.000000 1.841750 0.000000 
#    z 0.000000 0.000000 1.891150 
# 
# From -- ./inp_files/30677.got.cif
#   From: 2010.05.17/outbox.cif.g08.bks.cpg/sg24_16_cif.got.tgz:30677.got - 2010.06.04 00:33:39.
