data_PCOD9335237
_publ_section_title
;
Structure prediction by ZEFSAII (Michael W. Deem and Ramdas Pophale) SiO2 
 PCOD9335237
Probable space group: I 21 21 21
;
_chemical_formula_sum "Si O2"
_cell_formula_units_Z 56
_cell_length_a 20.444368
_cell_length_b 11.671196
_cell_length_c 10.254427
_cell_angle_alpha 90.000000
_cell_angle_beta 90.000000
_cell_angle_gamma 90.000000
_cell_volume 2446.811144
_symmetry_space_group_name_H-M "I 21 21 21"
_symmetry_group_IT_number 24
_symmetry_cell_setting 'orthorhombic'
loop_
_space_group_symop_operation_xyz
x,y,z
-x,1/2-y,z
x,-y,1/2-z
1/2-x,y,-z
1/2+x,1/2+y,1/2+z
1/2-x,-y,1/2+z
1/2+x,1/2-y,-z
-x,1/2+y,1/2-z
loop_
_atom_site_type_symbol
_atom_site_label
_atom_site_fract_x
_atom_site_fract_y
_atom_site_fract_z
Si Si1 0.861982 0.742826 0.023408
Si Si2 0.286228 0.915184 0.629074
Si Si3 0.417929 0.018046 0.609911
Si Si4 0.231434 0.564334 0.134057
Si Si5 0.556245 0.832205 0.363564
Si Si6 0.464542 0.576840 0.073416
Si Si7 0.686450 0.245560 0.245909
O O1 0.876966 0.636122 0.113746
O O2 0.808950 0.826346 0.085620
O O3 0.925187 0.823071 0.999493
O O4 0.835676 0.698131 0.883225
O O5 0.250000 0.958206 0.500000
O O6 0.247539 0.801329 0.672863
O O7 0.275935 0.000000 0.750000
O O8 0.363514 0.919023 0.596453
O O9 0.467165 0.042969 0.492836
O O10 0.451846 0.000000 0.750000
O O11 0.195030 0.500000 0.250000
O O12 0.294578 0.618099 0.205948
O O13 0.250000 0.500036 0.000000
O O14 0.500000 0.750000 0.421120
O O15 0.530244 0.874986 0.220605
O O16 0.622484 0.762600 0.342140
O O17 0.571656 0.953762 0.430982
#
# Coordination Sequence:
#
# PCOD9335237 Si02
#       7
#     8   8   8   8   8   8   8
#     4  10  21  43  68  96 131 187 238 282 354 439
#     4  11  24  41  66 101 141 183 229 291 366 436
#     4  11  23  41  66  95 136 179 231 286 351 433
#     4  10  22  37  63  91 129 175 224 283 348 422
#     4  10  22  40  68 102 134 172 235 300 350 412
#     4  10  22  41  69  96 132 182 234 283 349 429
#     4  10  22  40  66  97 136 179 228 298 353 425
#
# _framework density 22.88693
#
# number of rings (size 3 to 8) (size 9 to 14) (size 15 to 20)
#    0.000    1.714    0.000    4.714    8.000    2.286 
#    0.000    2.857    0.000    0.000    0.000    0.000 
#    0.000    0.000    0.000    0.000    0.000    0.000 
#
# Total GULP energy -156307.717414 kJ/mol
# GULP energy per Si atom -5582.418479 kJ/mol
# Density = 2.283484 g / cm^3
# Si number density = 22.886930 Si / 1000 Ang^3
#
#
#
# Elastic Constant Matrix: (Units=GPa)
#
#
# Indices 1 2 3 4 5 6 
#
# 1 99.7552 17.3172 25.2074 0.0000 0.0000 0.0000
# 2 17.3172 80.7332 27.4786 0.0000 0.0000 0.0000
# 3 25.2074 27.4786 85.0223 0.0000 0.0000 0.0000
# 4 0.0000 0.0000 0.0000 33.2747 0.0000 0.0000
# 5 0.0000 0.0000 0.0000 0.0000 27.7387 0.0000
# 6 0.0000 0.0000 0.0000 0.0000 0.0000 29.1077
#
#
#
# Elastic Compliance Matrix: (Units=1/GPa)
#
#
# Indices 1 2 3 4 5 6 
#
# 1 0.010976 -0.001401 -0.002801 0.000000 0.000000 0.000000
# 2 -0.001401 0.014096 -0.004140 0.000000 0.000000 0.000000
# 3 -0.002801 -0.004140 0.013930 0.000000 0.000000 0.000000
# 4 0.000000 0.000000 0.000000 0.030053 0.000000 0.000000
# 5 0.000000 0.000000 0.000000 0.000000 0.036051 0.000000
# 6 0.000000 0.000000 0.000000 0.000000 0.000000 0.034355
#
#
# Mechanical properties :
#
#
# Convention : Reuss Voigt Hill
#
# Bulk Modulus (GPa) = 44.80902 45.05747 44.93324
# Shear Modulus (GPa) = 30.56515 31.05806 30.81160
#
# Velocity S-wave (km/s) = 3.65839 3.68777 3.67311
# Velocity P-wave (km/s) = 6.12095 6.15326 6.13713
#
# Compressibility (1/GPa) = 0.02231694
#
# Stress axis : x y z
#
# Youngs Moduli (GPa) = 91.11136 70.94104 71.78576
#
# Poissons Ratio (x) = 0.09937 0.20109
# Poissons Ratio (y) = 0.12763 0.29723
# Poissons Ratio (z) = 0.25523 0.29373
#
# Static dielectric constant tensor:
#      x y z
#    x 1.919080 0.000000 0.000000 
#    y 0.000000 1.896560 0.000000 
#    z 0.000000 0.000000 1.911500 
# 
# From -- ./inp_files/22205.got.cif
#   From: 2010.05.17/outbox.cif.g08.bks.cpg/sg24_12_cif.got.tgz:22205.got - 2010.06.04 00:33:39.
