data_PCOD9335198
_publ_section_title
;
Structure prediction by ZEFSAII (Michael W. Deem and Ramdas Pophale) SiO2 
 PCOD9335198
Probable space group: I 21 21 21
;
_chemical_formula_sum "Si O2"
_cell_formula_units_Z 44
_cell_length_a 13.973483
_cell_length_b 5.325967
_cell_length_c 26.863152
_cell_angle_alpha 90.000000
_cell_angle_beta 90.000000
_cell_angle_gamma 90.000000
_cell_volume 1999.217808
_symmetry_space_group_name_H-M "I 21 21 21"
_symmetry_group_IT_number 24
_symmetry_cell_setting 'orthorhombic'
loop_
_space_group_symop_operation_xyz
x,y,z
-x,1/2-y,z
x,-y,1/2-z
1/2-x,y,-z
1/2+x,1/2+y,1/2+z
1/2-x,-y,1/2+z
1/2+x,1/2-y,-z
-x,1/2+y,1/2-z
loop_
_atom_site_type_symbol
_atom_site_label
_atom_site_fract_x
_atom_site_fract_y
_atom_site_fract_z
Si Si1 0.366256 0.103259 0.659730
Si Si2 0.318702 0.899517 0.345214
Si Si3 0.934077 0.499221 0.942526
Si Si4 0.350942 0.600995 0.694714
Si Si5 0.500000 0.250000 0.219862
Si Si6 0.435915 0.999785 0.946399
O O1 0.406204 0.379207 0.666821
O O2 0.371828 0.018219 0.602549
O O3 0.252798 0.117192 0.673880
O O4 0.401547 0.872640 0.693286
O O5 0.355684 0.968442 0.399783
O O6 0.245526 0.668133 0.336462
O O7 0.411726 0.845744 0.313059
O O8 0.000000 0.250000 0.939342
O O9 0.891183 0.501641 0.998372
O O10 0.000000 0.750000 0.935585
O O11 0.334193 0.500000 0.750000
O O12 0.470030 0.500000 0.250000
O O13 0.500000 0.750000 0.945323
O O14 0.500000 0.250000 0.942443
#
# Coordination Sequence:
#
# PCOD9335198 Si02
#       6
#     8   8   8   8   4   8
#     4  10  23  37  65  91 119 165 202 259 304 371
#     4  10  25  37  63  86 130 157 214 241 299 355
#     4  10  22  38  60  88 123 163 198 255 305 356
#     4  10  22  39  60  89 121 163 200 249 309 355
#     4  12  28  38  60  90 126 174 210 244 286 362
#     4  10  21  42  67  90 120 159 204 256 325 379
#
# _framework density 22.008604999999999
#
# number of rings (size 3 to 8) (size 9 to 14) (size 15 to 20)
#    1.091    0.727    0.909    2.182    8.909    0.727 
#    0.000    0.000    4.000   10.909    0.000    0.000 
#    0.000    0.000    0.000    0.000    0.000    0.000 
#
# Total GULP energy -122602.150841 kJ/mol
# GULP energy per Si atom -5572.825038 kJ/mol
# Density = 2.195851 g / cm^3
# Si number density = 22.008605 Si / 1000 Ang^3
#
#
#
# Elastic Constant Matrix: (Units=GPa)
#
#
# Indices 1 2 3 4 5 6 
#
# 1 59.7018 14.6026 25.5004 0.0000 0.0000 0.0000
# 2 14.6026 164.2369 46.3232 0.0000 0.0000 0.0000
# 3 25.5004 46.3232 144.6585 0.0000 0.0000 0.0000
# 4 0.0000 0.0000 0.0000 32.6392 0.0000 0.0000
# 5 0.0000 0.0000 0.0000 0.0000 3.3369 0.0000
# 6 0.0000 0.0000 0.0000 0.0000 0.0000 27.6200
#
#
#
# Elastic Compliance Matrix: (Units=1/GPa)
#
#
# Indices 1 2 3 4 5 6 
#
# 1 0.018205 -0.000784 -0.002958 0.000000 0.000000 0.000000
# 2 -0.000784 0.006727 -0.002016 0.000000 0.000000 0.000000
# 3 -0.002958 -0.002016 0.008080 0.000000 0.000000 0.000000
# 4 0.000000 0.000000 0.000000 0.030638 0.000000 0.000000
# 5 0.000000 0.000000 0.000000 0.000000 0.299679 0.000000
# 6 0.000000 0.000000 0.000000 0.000000 0.000000 0.036206
#
#
# Mechanical properties :
#
#
# Convention : Reuss Voigt Hill
#
# Bulk Modulus (GPa) = 46.52132 60.16107 53.34120
# Shear Modulus (GPa) = 11.95553 31.53062 21.74307
#
# Velocity S-wave (km/s) = 2.33324 3.78914 3.14655
# Velocity P-wave (km/s) = 5.33314 6.82188 6.12292
#
# Compressibility (1/GPa) = 0.02149552
#
# Stress axis : x y z
#
# Youngs Moduli (GPa) = 54.92931 148.65259 123.76500
#
# Poissons Ratio (x) = 0.11659 0.36610
# Poissons Ratio (y) = 0.04308 0.24950
# Poissons Ratio (z) = 0.16248 0.29967
#
# Static dielectric constant tensor:
#      x y z
#    x 1.828310 0.000000 0.000000 
#    y 0.000000 1.865030 0.000000 
#    z 0.000000 0.000000 1.827200 
# 
# From -- ./inp_files/35940.got.cif
#   From: 2010.05.17/outbox.cif.g08.bks.cpg/sg24_18_cif.got.tgz:35940.got - 2010.06.04 00:33:39.
