data_PCOD9335156
_publ_section_title
;
Structure prediction by ZEFSAII (Michael W. Deem and Ramdas Pophale) SiO2 
 PCOD9335156
Probable space group: I 21 21 21
;
_chemical_formula_sum "Si O2"
_cell_formula_units_Z 28
_cell_length_a 4.991393
_cell_length_b 25.696820
_cell_length_c 10.816539
_cell_angle_alpha 90.000000
_cell_angle_beta 90.000000
_cell_angle_gamma 90.000000
_cell_volume 1387.360957
_symmetry_space_group_name_H-M "I 21 21 21"
_symmetry_group_IT_number 24
_symmetry_cell_setting 'orthorhombic'
loop_
_space_group_symop_operation_xyz
x,y,z
-x,1/2-y,z
x,-y,1/2-z
1/2-x,y,-z
1/2+x,1/2+y,1/2+z
1/2-x,-y,1/2+z
1/2+x,1/2-y,-z
-x,1/2+y,1/2-z
loop_
_atom_site_type_symbol
_atom_site_label
_atom_site_fract_x
_atom_site_fract_y
_atom_site_fract_z
Si Si1 0.499226 0.309388 0.908645
Si Si2 0.558405 0.590504 0.746833
Si Si3 0.081478 0.545009 0.614544
Si Si4 0.750000 0.548490 0.000000
O O1 0.500000 0.250000 0.860754
O O2 0.493681 0.351677 0.800048
O O3 0.250000 0.314257 0.000000
O O4 0.750000 0.317359 0.000000
O O5 0.305295 0.553409 0.718870
O O6 0.632154 0.582610 0.889310
O O7 0.812663 0.572083 0.664375
O O8 0.250000 0.568588 0.500000
O O9 0.968761 0.490260 0.562885
#
# Coordination Sequence:
#
# PCOD9335156 Si02
#       4
#     8   8   8   4
#     4  10  21  41  69  97 121 158 214 275 327 374
#     4  12  26  42  64  93 132 170 214 270 322 380
#     4  12  25  41  61  91 128 172 217 263 311 376
#     4  12  30  38  64  94 136 176 220 254 318 400
#
# _framework density 20.182202
#
# number of rings (size 3 to 8) (size 9 to 14) (size 15 to 20)
#    0.000    0.571    2.857    5.143    8.000    0.000 
#    0.000    0.000    0.000    8.571    0.000    0.000 
#    0.000    0.000    0.000    0.000    0.000    0.000 
#
# Total GULP energy -78232.838308 kJ/mol
# GULP energy per Si atom -5588.059879 kJ/mol
# Density = 2.013627 g / cm^3
# Si number density = 20.182202 Si / 1000 Ang^3
#
#
#
# Elastic Constant Matrix: (Units=GPa)
#
#
# Indices 1 2 3 4 5 6 
#
# 1 164.9514 49.2618 47.6554 0.0000 0.0000 0.0000
# 2 49.2618 190.5510 99.2808 0.0000 0.0000 0.0000
# 3 47.6554 99.2808 150.9423 0.0001 0.0000 0.0000
# 4 0.0000 0.0000 0.0001 28.1639 0.0000 0.0000
# 5 0.0000 0.0000 0.0000 0.0000 40.5983 0.0000
# 6 0.0000 0.0000 0.0000 0.0000 0.0000 19.7145
#
#
#
# Elastic Compliance Matrix: (Units=1/GPa)
#
#
# Indices 1 2 3 4 5 6 
#
# 1 0.006787 -0.000971 -0.001504 0.000000 0.000000 0.000000
# 2 -0.000971 0.008123 -0.005036 0.000000 0.000000 0.000000
# 3 -0.001504 -0.005036 0.010412 0.000000 0.000000 0.000000
# 4 0.000000 0.000000 0.000000 0.035506 0.000000 0.000000
# 5 0.000000 0.000000 0.000000 0.000000 0.024632 0.000000
# 6 0.000000 0.000000 0.000000 0.000000 0.000000 0.050724
#
#
# Mechanical properties :
#
#
# Convention : Reuss Voigt Hill
#
# Bulk Modulus (GPa) = 97.08999 99.87121 98.48060
# Shear Modulus (GPa) = 32.33310 38.37844 35.35577
#
# Velocity S-wave (km/s) = 4.00692 4.36546 4.19003
# Velocity P-wave (km/s) = 8.34376 8.66036 8.50354
#
# Compressibility (1/GPa) = 0.01029972
#
# Stress axis : x y z
#
# Youngs Moduli (GPa) = 147.34262 123.10854 96.03849
#
# Poissons Ratio (x) = 0.11952 0.14446
# Poissons Ratio (y) = 0.14305 0.48367
# Poissons Ratio (z) = 0.22163 0.62001
#
# Static dielectric constant tensor:
#      x y z
#    x 1.724900 0.000000 0.000000 
#    y 0.000000 1.777210 0.000000 
#    z 0.000000 0.000000 1.750370 
# 
# From -- ./inp_files/16163.got.cif
#   From: 2010.05.17/outbox.cif.g08.bks.cpg/sg24_9_cif.got.tgz:16163.got - 2010.06.04 00:33:39.
