data_PCOD9335544
_publ_section_title
;
Structure prediction by ZEFSAII (Michael W. Deem and Ramdas Pophale) SiO2 
 PCOD9335544
Probable space group: I 21 21 21
;
_chemical_formula_sum "Si O2"
_cell_formula_units_Z 64
_cell_length_a 9.473704
_cell_length_b 26.709522
_cell_length_c 14.193282
_cell_angle_alpha 90.000000
_cell_angle_beta 90.000000
_cell_angle_gamma 90.000000
_cell_volume 3591.441187
_symmetry_space_group_name_H-M "I 21 21 21"
_symmetry_group_IT_number 24
_symmetry_cell_setting 'orthorhombic'
loop_
_space_group_symop_operation_xyz
x,y,z
-x,1/2-y,z
x,-y,1/2-z
1/2-x,y,-z
1/2+x,1/2+y,1/2+z
1/2-x,-y,1/2+z
1/2+x,1/2-y,-z
-x,1/2+y,1/2-z
loop_
_atom_site_type_symbol
_atom_site_label
_atom_site_fract_x
_atom_site_fract_y
_atom_site_fract_z
Si Si1 0.604137 0.500881 0.967040
Si Si2 0.354234 0.444932 0.080338
Si Si3 0.513934 0.090760 0.659866
Si Si4 0.405846 0.700606 0.130214
Si Si5 0.510064 0.102704 0.259623
Si Si6 0.789332 0.947663 0.890829
Si Si7 0.577124 0.802303 0.905500
Si Si8 0.718599 0.554673 0.705019
O O1 0.525387 0.546443 0.914268
O O2 0.670930 0.458213 0.899880
O O3 0.750000 0.526082 0.000000
O O4 0.492704 0.472423 0.034323
O O5 0.400756 0.409862 0.165389
O O6 0.270503 0.493223 0.120075
O O7 0.250000 0.423325 0.000000
O O8 0.679889 0.082594 0.672541
O O9 0.498418 0.148286 0.631460
O O10 0.418073 0.078030 0.747198
O O11 0.500000 0.750000 0.147520
O O12 0.464479 0.657364 0.197963
O O13 0.235210 0.703167 0.136970
O O14 0.420981 0.689284 0.018517
O O15 0.560121 0.067329 0.347326
O O16 0.351784 0.088947 0.228515
O O17 0.750000 0.934469 0.000000
O O18 0.500000 0.750000 0.887394
O O19 0.749434 0.500000 0.750000
#
# Coordination Sequence:
#
# PCOD9335544 Si02
#       8
#     8   8   8   8   8   8   8   8
#     4  11  22  39  54  82 131 156 202 241 294 358
#     4  11  23  36  60  90 114 164 199 251 296 346
#     4  11  22  36  58  83 118 164 196 241 294 353
#     4  10  23  40  62  85 116 152 195 252 301 357
#     4  12  23  38  60  85 122 157 203 246 296 362
#     4  11  21  36  54  84 120 158 201 237 290 348
#     4  10  22  41  58  86 118 153 202 244 297 353
#     4  10  24  37  53  88 125 165 197 237 295 361
#
# _framework density 17.820143999999999
#
# number of rings (size 3 to 8) (size 9 to 14) (size 15 to 20)
#    0.000    1.250    5.000    1.875    5.250    1.000 
#    2.250    0.000    0.000    0.000    3.250    0.000 
#    0.000    0.000    0.000    0.000    0.000    0.000 
#
# Total GULP energy -178316.637853 kJ/mol
# GULP energy per Si atom -5572.394933 kJ/mol
# Density = 1.777958 g / cm^3
# Si number density = 17.820144 Si / 1000 Ang^3
#
#
#
# Elastic Constant Matrix: (Units=GPa)
#
#
# Indices 1 2 3 4 5 6 
#
# 1 59.3460 20.2886 13.9597 0.0000 0.0000 0.0000
# 2 20.2886 94.4483 29.4399 0.0000 0.0000 0.0000
# 3 13.9597 29.4399 49.5827 0.0000 0.0000 0.0000
# 4 0.0000 0.0000 0.0000 6.7767 0.0000 0.0000
# 5 0.0000 0.0000 0.0000 0.0000 22.7935 0.0000
# 6 0.0000 0.0000 0.0000 0.0000 0.0000 23.9375
#
#
#
# Elastic Compliance Matrix: (Units=1/GPa)
#
#
# Indices 1 2 3 4 5 6 
#
# 1 0.018676 -0.002912 -0.003529 0.000000 0.000000 0.000000
# 2 -0.002912 0.013446 -0.007164 0.000000 0.000000 0.000000
# 3 -0.003529 -0.007164 0.025416 0.000000 0.000000 0.000000
# 4 0.000000 0.000000 0.000000 0.147565 0.000000 0.000000
# 5 0.000000 0.000000 0.000000 0.000000 0.043872 0.000000
# 6 0.000000 0.000000 0.000000 0.000000 0.000000 0.041775
#
#
# Mechanical properties :
#
#
# Convention : Reuss Voigt Hill
#
# Bulk Modulus (GPa) = 32.97292 36.75036 34.86164
# Shear Modulus (GPa) = 15.24067 20.01414 17.62741
#
# Velocity S-wave (km/s) = 2.92764 3.35493 3.14854
# Velocity P-wave (km/s) = 5.47462 5.97287 5.72916
#
# Compressibility (1/GPa) = 0.03032792
#
# Stress axis : x y z
#
# Youngs Moduli (GPa) = 53.54483 74.36973 39.34584
#
# Poissons Ratio (x) = 0.21654 0.13886
# Poissons Ratio (y) = 0.15591 0.28188
# Poissons Ratio (z) = 0.18897 0.53279
#
# Static dielectric constant tensor:
#      x y z
#    x 1.755160 0.000000 0.000000 
#    y 0.000000 1.585810 0.000000 
#    z 0.000000 0.000000 1.656840 
# 
# From -- ./inp_files/25227.got.cif
#   From: 2010.05.17/outbox.cif.g08.bks.cpg/sg24_13_cif.got.tgz:25227.got - 2010.06.04 00:33:39.
