data_PCOD9335535
_publ_section_title
;
Structure prediction by ZEFSAII (Michael W. Deem and Ramdas Pophale) SiO2 
 PCOD9335535
Probable space group: I 21 21 21
;
_chemical_formula_sum "Si O2"
_cell_formula_units_Z 28
_cell_length_a 10.573646
_cell_length_b 8.535632
_cell_length_c 12.809236
_cell_angle_alpha 90.000000
_cell_angle_beta 90.000000
_cell_angle_gamma 90.000000
_cell_volume 1156.068789
_symmetry_space_group_name_H-M "I 21 21 21"
_symmetry_group_IT_number 24
_symmetry_cell_setting 'orthorhombic'
loop_
_space_group_symop_operation_xyz
x,y,z
-x,1/2-y,z
x,-y,1/2-z
1/2-x,y,-z
1/2+x,1/2+y,1/2+z
1/2-x,-y,1/2+z
1/2+x,1/2-y,-z
-x,1/2+y,1/2-z
loop_
_atom_site_type_symbol
_atom_site_label
_atom_site_fract_x
_atom_site_fract_y
_atom_site_fract_z
Si Si1 0.630740 0.178680 0.863698
Si Si2 0.750000 0.418282 0.500000
Si Si3 0.876452 0.167366 0.382200
Si Si4 0.888260 0.619525 0.649465
O O1 0.500000 0.250000 0.905481
O O2 0.605860 0.155586 0.740898
O O3 0.754626 0.286614 0.860304
O O4 0.651237 0.009266 0.915521
O O5 0.772946 0.297315 0.405896
O O6 0.868635 0.517786 0.543123
O O7 0.000000 0.250000 0.429120
O O8 0.897085 0.500000 0.750000
O O9 0.000000 0.750000 0.653663
#
# Coordination Sequence:
#
# PCOD9335535 Si02
#       4
#     8   4   8   8
#     4  10  22  45  76 106 140 196 252 310 382 458
#     4  12  26  46  72 110 150 208 260 312 388 482
#     4  10  22  40  71 104 142 185 249 314 373 451
#     4  12  29  50  77 112 161 207 257 328 399 459
#
# _framework density 24.220012000000001
#
# number of rings (size 3 to 8) (size 9 to 14) (size 15 to 20)
#    0.000    1.143    2.857    1.714    8.000    8.000 
#    0.000    0.000    0.000    0.000    0.000    0.000 
#    0.000    0.000    0.000    0.000    0.000    0.000 
#
# Total GULP energy -78010.749481 kJ/mol
# GULP energy per Si atom -5572.196392 kJ/mol
# Density = 2.416489 g / cm^3
# Si number density = 24.220012 Si / 1000 Ang^3
#
#
#
# Elastic Constant Matrix: (Units=GPa)
#
#
# Indices 1 2 3 4 5 6 
#
# 1 150.3425 107.0815 34.8972 0.0000 0.0000 0.0000
# 2 107.0815 212.6713 77.7675 0.0000 0.0000 0.0000
# 3 34.8972 77.7675 88.3512 0.0000 0.0000 0.0000
# 4 0.0000 0.0000 0.0000 41.1172 0.0000 0.0000
# 5 0.0000 0.0000 0.0000 0.0000 22.4811 0.0000
# 6 0.0000 0.0000 0.0000 0.0000 0.0000 19.8784
#
#
#
# Elastic Compliance Matrix: (Units=1/GPa)
#
#
# Indices 1 2 3 4 5 6 
#
# 1 0.010403 -0.005509 0.000740 0.000000 0.000000 0.000000
# 2 -0.005509 0.009851 -0.006495 0.000000 0.000000 0.000000
# 3 0.000740 -0.006495 0.016743 0.000000 0.000000 0.000000
# 4 0.000000 0.000000 0.000000 0.024321 0.000000 0.000000
# 5 0.000000 0.000000 0.000000 0.000000 0.044482 0.000000
# 6 0.000000 0.000000 0.000000 0.000000 0.000000 0.050306
#
#
# Mechanical properties :
#
#
# Convention : Reuss Voigt Hill
#
# Bulk Modulus (GPa) = 69.11126 98.98416 84.04771
# Shear Modulus (GPa) = 27.25445 32.13659 29.69552
#
# Velocity S-wave (km/s) = 3.35817 3.64656 3.50533
# Velocity P-wave (km/s) = 6.60554 7.66077 7.15264
#
# Compressibility (1/GPa) = 0.01446942
#
# Stress axis : x y z
#
# Youngs Moduli (GPa) = 96.12345 101.51594 59.72581
#
# Poissons Ratio (x) = 0.55921 -0.04417
# Poissons Ratio (y) = 0.52950 0.38791
# Poissons Ratio (z) = -0.07109 0.65933
#
# Static dielectric constant tensor:
#      x y z
#    x 1.954580 0.000000 0.000000 
#    y 0.000000 2.076400 0.000000 
#    z 0.000000 0.000000 1.996030 
# 
# From -- ./inp_files/25431.got.cif
#   From: 2010.05.17/outbox.cif.g08.bks.cpg/sg24_13_cif.got.tgz:25431.got - 2010.06.04 00:33:39.
