data_PCOD9335140
_publ_section_title
;
Structure prediction by ZEFSAII (Michael W. Deem and Ramdas Pophale) SiO2 
 PCOD9335140
Probable space group: I 21 21 21
;
_chemical_formula_sum "Si O2"
_cell_formula_units_Z 52
_cell_length_a 9.648697
_cell_length_b 19.635298
_cell_length_c 13.831694
_cell_angle_alpha 90.000000
_cell_angle_beta 90.000000
_cell_angle_gamma 90.000000
_cell_volume 2620.484153
_symmetry_space_group_name_H-M "I 21 21 21"
_symmetry_group_IT_number 24
_symmetry_cell_setting 'orthorhombic'
loop_
_space_group_symop_operation_xyz
x,y,z
-x,1/2-y,z
x,-y,1/2-z
1/2-x,y,-z
1/2+x,1/2+y,1/2+z
1/2-x,-y,1/2+z
1/2+x,1/2-y,-z
-x,1/2+y,1/2-z
loop_
_atom_site_type_symbol
_atom_site_label
_atom_site_fract_x
_atom_site_fract_y
_atom_site_fract_z
Si Si1 0.758216 0.414233 0.613876
Si Si2 0.483170 0.327104 0.108991
Si Si3 0.720048 0.565366 0.385882
Si Si4 0.500000 0.250000 0.917443
Si Si5 0.339483 0.233508 0.399971
Si Si6 0.484687 0.076948 0.750549
Si Si7 0.285240 0.689564 0.715397
O O1 0.750000 0.415208 0.500000
O O2 0.819878 0.487571 0.642169
O O3 0.832608 0.344186 0.639343
O O4 0.602316 0.411520 0.653411
O O5 0.500000 0.250000 0.150093
O O6 0.601306 0.380047 0.136015
O O7 0.333478 0.345029 0.150061
O O8 0.490544 0.312902 0.993233
O O9 0.750000 0.567616 0.500000
O O10 0.862662 0.580326 0.330315
O O11 0.364165 0.253544 0.850368
O O12 0.500000 0.250000 0.419066
O O13 0.250000 0.238795 0.500000
O O14 0.274738 0.280032 0.314876
O O15 0.598119 0.133887 0.763626
O O16 0.541401 0.000000 0.750000
#
# Coordination Sequence:
#
# PCOD9335140 Si02
#       7
#     8   8   8   4   8   8   8
#     4   9  21  41  68  89 120 163 225 266 320 389
#     4  10  25  38  59 103 133 164 224 253 316 396
#     4  10  21  41  66  92 128 173 213 263 316 393
#     4  10  24  36  66  94 140 174 206 248 330 402
#     4  11  27  45  68  98 124 165 227 282 331 386
#     4  10  23  41  65  95 127 177 222 256 330 403
#     4  12  24  41  66  95 137 172 209 279 327 373
#
# _framework density 19.84366
#
# number of rings (size 3 to 8) (size 9 to 14) (size 15 to 20)
#    0.462    1.231    0.000    2.769   14.000    0.000 
#    2.769    0.000    0.000    0.000    0.000    0.000 
#    0.000    0.000    0.000    0.000    0.000    0.000 
#
# Total GULP energy -145091.871757 kJ/mol
# GULP energy per Si atom -5580.456606 kJ/mol
# Density = 1.979850 g / cm^3
# Si number density = 19.843660 Si / 1000 Ang^3
#
#
#
# Elastic Constant Matrix: (Units=GPa)
#
#
# Indices 1 2 3 4 5 6 
#
# 1 135.4990 84.5503 61.3959 0.0000 0.0000 0.0000
# 2 84.5503 143.1414 34.2570 -0.0001 0.0000 0.0000
# 3 61.3959 34.2570 136.4999 -0.0001 0.0000 0.0000
# 4 0.0000 -0.0001 -0.0001 16.5292 0.0000 0.0000
# 5 0.0000 0.0000 0.0000 0.0000 31.2076 0.0000
# 6 0.0000 0.0000 0.0000 0.0000 0.0000 -54.1849
#
#
#
# Elastic Compliance Matrix: (Units=1/GPa)
#
#
# Indices 1 2 3 4 5 6 
#
# 1 0.013821 -0.007103 -0.004434 0.000000 0.000000 0.000000
# 2 -0.007103 0.011083 0.000413 0.000000 0.000000 0.000000
# 3 -0.004434 0.000413 0.009217 0.000000 0.000000 0.000000
# 4 0.000000 0.000000 0.000000 0.060499 0.000000 0.000000
# 5 0.000000 0.000000 0.000000 0.000000 0.032044 0.000000
# 6 0.000000 0.000000 0.000000 0.000000 0.000000 -0.018455
#
#
# Mechanical properties :
#
#
# Convention : Reuss Voigt Hill
#
# Bulk Modulus (GPa) = 84.22035 86.17186 85.19610
# Shear Modulus (GPa) = 37.19892 14.37286 25.78589
#
# Velocity S-wave (km/s) = 4.33436 2.69421 3.60870
# Velocity P-wave (km/s) = 8.22089 7.29370 7.77113
#
# Compressibility (1/GPa) = 0.01187362
#
# Stress axis : x y z
#
# Youngs Moduli (GPa) = 72.35199 90.23144 108.49911
#
# Poissons Ratio (x) = 0.64089 0.48109
# Poissons Ratio (y) = 0.51390 -0.04485
# Poissons Ratio (z) = 0.32081 -0.03730
#
# Static dielectric constant tensor:
#      x y z
#    x 1.676120 0.000000 0.000000 
#    y 0.000000 1.746660 0.000000 
#    z 0.000000 0.000000 1.852560 
# 
# From -- ./inp_files/25023.got.cif
#   From: 2010.05.17/outbox.cif.g08.bks.cpg/sg24_13_cif.got.tgz:25023.got - 2010.06.04 00:33:39.
