data_PCOD9335343
_publ_section_title
;
Structure prediction by ZEFSAII (Michael W. Deem and Ramdas Pophale) SiO2 
 PCOD9335343
Probable space group: I 21 21 21
;
_chemical_formula_sum "Si O2"
_cell_formula_units_Z 56
_cell_length_a 5.970267
_cell_length_b 25.031419
_cell_length_c 17.898608
_cell_angle_alpha 90.000000
_cell_angle_beta 90.000000
_cell_angle_gamma 90.000000
_cell_volume 2674.844135
_symmetry_space_group_name_H-M "I 21 21 21"
_symmetry_group_IT_number 24
_symmetry_cell_setting 'orthorhombic'
loop_
_space_group_symop_operation_xyz
x,y,z
-x,1/2-y,z
x,-y,1/2-z
1/2-x,y,-z
1/2+x,1/2+y,1/2+z
1/2-x,-y,1/2+z
1/2+x,1/2-y,-z
-x,1/2+y,1/2-z
loop_
_atom_site_type_symbol
_atom_site_label
_atom_site_fract_x
_atom_site_fract_y
_atom_site_fract_z
Si Si1 0.504443 0.104774 0.037903
Si Si2 0.860858 0.920055 0.185475
Si Si3 0.217992 0.000000 0.250000
Si Si4 0.618710 0.298792 0.312871
Si Si5 0.814902 0.158680 0.814235
Si Si6 0.483454 0.006559 0.389129
Si Si7 0.000000 0.250000 0.216958
Si Si8 0.777727 0.386950 0.417315
O O1 0.543927 0.135556 0.116623
O O2 0.517807 0.040804 0.052745
O O3 0.750000 0.117668 0.000000
O O4 0.250000 0.114654 0.000000
O O5 0.772022 0.887486 0.257165
O O6 0.693578 0.961947 0.146227
O O7 0.973678 0.886522 0.118077
O O8 0.065660 0.953364 0.219175
O O9 0.366964 0.979464 0.317636
O O10 0.500000 0.250000 0.355299
O O11 0.472593 0.308824 0.240345
O O12 0.851212 0.282868 0.276224
O O13 0.631967 0.351595 0.361318
O O14 0.623903 0.203566 0.831190
O O15 0.321464 0.053150 0.418768
O O16 0.750000 0.364893 0.500000
#
# Coordination Sequence:
#
# PCOD9335343 Si02
#       8
#     8   8   4   8   8   8   4   8
#     4  12  31  47  73 109 153 196 242 308 385 459
#     4  11  22  39  69  96 131 192 242 302 352 436
#     4  10  22  36  64  98 128 172 250 286 342 416
#     4  10  22  44  68  99 129 178 244 300 370 430
#     4  11  23  45  76 101 136 182 250 305 370 448
#     4  11  24  41  62  98 141 194 238 293 358 443
#     4  10  22  42  80 100 130 182 240 320 360 444
#     4  11  24  40  63  96 145 187 238 299 364 444
#
# _framework density 20.935797999999998
#
# number of rings (size 3 to 8) (size 9 to 14) (size 15 to 20)
#    0.000    1.143    2.857    2.571   12.000    0.000 
#    1.286    0.000    4.714    0.000    0.000    0.000 
#    0.000    0.000    0.000    0.000    0.000    0.000 
#
# Total GULP energy -155943.302342 kJ/mol
# GULP energy per Si atom -5569.403655 kJ/mol
# Density = 2.088815 g / cm^3
# Si number density = 20.935798 Si / 1000 Ang^3
#
#
#
# Elastic Constant Matrix: (Units=GPa)
#
#
# Indices 1 2 3 4 5 6 
#
# 1 95.4444 21.5861 44.7256 0.0000 0.0000 0.0000
# 2 21.5861 80.3517 28.3725 0.0000 0.0000 0.0000
# 3 44.7256 28.3725 90.1707 0.0000 0.0000 0.0000
# 4 0.0000 0.0000 0.0000 -28.1776 0.0000 0.0000
# 5 0.0000 0.0000 0.0000 0.0000 22.1235 0.0000
# 6 0.0000 0.0000 0.0000 0.0000 0.0000 -53.8385
#
#
#
# Elastic Compliance Matrix: (Units=1/GPa)
#
#
# Indices 1 2 3 4 5 6 
#
# 1 0.013799 -0.001451 -0.006388 0.000000 0.000000 0.000000
# 2 -0.001451 0.014154 -0.003733 0.000000 0.000000 0.000000
# 3 -0.006388 -0.003733 0.015433 0.000000 0.000000 0.000000
# 4 0.000000 0.000000 0.000000 -0.035489 0.000000 0.000000
# 5 0.000000 0.000000 0.000000 0.000000 0.045201 0.000000
# 6 0.000000 0.000000 0.000000 0.000000 0.000000 -0.018574
#
#
# Mechanical properties :
#
#
# Convention : Reuss Voigt Hill
#
# Bulk Modulus (GPa) = 49.40641 50.59276 49.99959
# Shear Modulus (GPa) = 77.62143 -0.55967 38.53088
#
# Velocity S-wave (km/s) = 6.09561 -0.51760 4.29468
# Velocity P-wave (km/s) = 8.55524 4.88476 6.96610
#
# Compressibility (1/GPa) = 0.02024029
#
# Stress axis : x y z
#
# Youngs Moduli (GPa) = 72.46976 70.65373 64.79547
#
# Poissons Ratio (x) = 0.10255 0.41389
# Poissons Ratio (y) = 0.10519 0.24191
# Poissons Ratio (z) = 0.46291 0.26379
#
# Static dielectric constant tensor:
#      x y z
#    x 2.038050 0.000000 0.000000 
#    y 0.000000 1.807840 0.000000 
#    z 0.000000 0.000000 2.166400 
# 
# From -- ./inp_files/24090.got.cif
#   From: 2010.05.17/outbox.cif.g08.bks.cpg/sg24_13_cif.got.tgz:24090.got - 2010.06.04 00:33:39.
