data_PCOD9335130
_publ_section_title
;
Structure prediction by ZEFSAII (Michael W. Deem and Ramdas Pophale) SiO2 
 PCOD9335130
Probable space group: I 21 21 21
;
_chemical_formula_sum "Si O2"
_cell_formula_units_Z 48
_cell_length_a 19.099892
_cell_length_b 8.873594
_cell_length_c 13.557322
_cell_angle_alpha 90.000000
_cell_angle_beta 90.000000
_cell_angle_gamma 90.000000
_cell_volume 2297.758476
_symmetry_space_group_name_H-M "I 21 21 21"
_symmetry_group_IT_number 24
_symmetry_cell_setting 'orthorhombic'
loop_
_space_group_symop_operation_xyz
x,y,z
-x,1/2-y,z
x,-y,1/2-z
1/2-x,y,-z
1/2+x,1/2+y,1/2+z
1/2-x,-y,1/2+z
1/2+x,1/2-y,-z
-x,1/2+y,1/2-z
loop_
_atom_site_type_symbol
_atom_site_label
_atom_site_fract_x
_atom_site_fract_y
_atom_site_fract_z
Si Si1 0.356919 0.654447 0.708020
Si Si2 0.219891 0.540041 0.596602
Si Si3 0.606350 0.000000 0.250000
Si Si4 0.402043 0.300012 0.004873
Si Si5 0.000000 0.750000 0.797736
Si Si6 0.529569 0.490658 0.461699
Si Si7 0.435662 0.863462 0.825772
O O1 0.388254 0.500000 0.750000
O O2 0.281402 0.605543 0.664989
O O3 0.398384 0.715888 0.613310
O O4 0.364897 0.774056 0.795412
O O5 0.250000 0.454616 0.500000
O O6 0.160724 0.461321 0.662481
O O7 0.174805 0.672066 0.546266
O O8 0.556192 0.853116 0.261323
O O9 0.450160 0.448074 0.022153
O O10 0.431039 0.148307 0.051712
O O11 0.966380 0.625595 0.871654
O O12 0.558079 0.415419 0.561518
O O13 0.500000 0.750000 0.808754
O O14 0.441358 0.000000 0.750000
#
# Coordination Sequence:
#
# PCOD9335130 Si02
#       7
#     8   8   4   8   4   8   8
#     4  11  22  37  64  95 131 184 227 274 342 416
#     4  10  23  44  73  94 133 184 233 278 342 428
#     4  12  26  50  72 108 134 180 238 294 350 414
#     4  10  21  41  64  92 135 177 225 275 346 403
#     4  12  28  42  74 104 130 178 236 300 350 406
#     4  11  22  39  64  98 135 174 219 299 345 397
#     4  12  22  36  60 101 143 177 227 284 347 411
#
# _framework density 20.889924000000001
#
# number of rings (size 3 to 8) (size 9 to 14) (size 15 to 20)
#    0.000    1.000    5.000    2.500    2.333    0.000 
#    0.000    1.667    0.000    0.000    0.000    0.000 
#    0.000    0.000    0.000    0.000    0.000    0.000 
#
# Total GULP energy -133865.942461 kJ/mol
# GULP energy per Si atom -5577.747603 kJ/mol
# Density = 2.084238 g / cm^3
# Si number density = 20.889924 Si / 1000 Ang^3
#
#
#
# Elastic Constant Matrix: (Units=GPa)
#
#
# Indices 1 2 3 4 5 6 
#
# 1 71.6754 19.8457 30.1574 0.0000 0.0000 0.0000
# 2 19.8457 94.7163 31.1394 0.0000 0.0000 0.0000
# 3 30.1574 31.1394 102.2821 0.0000 0.0000 0.0000
# 4 0.0000 0.0000 0.0000 43.6216 0.0000 0.0000
# 5 0.0000 0.0000 0.0000 0.0000 28.9636 0.0000
# 6 0.0000 0.0000 0.0000 0.0000 0.0000 11.4650
#
#
#
# Elastic Compliance Matrix: (Units=1/GPa)
#
#
# Indices 1 2 3 4 5 6 
#
# 1 0.016274 -0.002036 -0.004178 0.000000 0.000000 0.000000
# 2 -0.002036 0.011987 -0.003049 0.000000 0.000000 0.000000
# 3 -0.004178 -0.003049 0.011937 0.000000 0.000000 0.000000
# 4 0.000000 0.000000 0.000000 0.022924 0.000000 0.000000
# 5 0.000000 0.000000 0.000000 0.000000 0.034526 0.000000
# 6 0.000000 0.000000 0.000000 0.000000 0.000000 0.087222
#
#
# Mechanical properties :
#
#
# Convention : Reuss Voigt Hill
#
# Bulk Modulus (GPa) = 46.14527 47.88433 47.01480
# Shear Modulus (GPa) = 23.73937 29.31211 26.52574
#
# Velocity S-wave (km/s) = 3.37471 3.74995 3.56727
# Velocity P-wave (km/s) = 6.10922 6.45922 6.28666
#
# Compressibility (1/GPa) = 0.02167069
#
# Stress axis : x y z
#
# Youngs Moduli (GPa) = 61.44932 83.42451 83.77237
#
# Poissons Ratio (x) = 0.16986 0.35003
# Poissons Ratio (y) = 0.12512 0.25542
# Poissons Ratio (z) = 0.25675 0.25436
#
# Static dielectric constant tensor:
#      x y z
#    x 1.801760 0.000000 0.000000 
#    y 0.000000 1.727980 0.000000 
#    z 0.000000 0.000000 1.870540 
# 
# From -- ./inp_files/27450.got.cif
#   From: 2010.05.17/outbox.cif.g08.bks.cpg/sg24_14_cif.got.tgz:27450.got - 2010.06.04 00:33:39.
