data_PCOD9335134
_publ_section_title
;
Structure prediction by ZEFSAII (Michael W. Deem and Ramdas Pophale) SiO2 
 PCOD9335134
Probable space group: I 21 21 21
;
_chemical_formula_sum "Si O2"
_cell_formula_units_Z 60
_cell_length_a 17.715722
_cell_length_b 5.320286
_cell_length_c 29.815944
_cell_angle_alpha 90.000000
_cell_angle_beta 90.000000
_cell_angle_gamma 90.000000
_cell_volume 2810.233456
_symmetry_space_group_name_H-M "I 21 21 21"
_symmetry_group_IT_number 24
_symmetry_cell_setting 'orthorhombic'
loop_
_space_group_symop_operation_xyz
x,y,z
-x,1/2-y,z
x,-y,1/2-z
1/2-x,y,-z
1/2+x,1/2+y,1/2+z
1/2-x,-y,1/2+z
1/2+x,1/2-y,-z
-x,1/2+y,1/2-z
loop_
_atom_site_type_symbol
_atom_site_label
_atom_site_fract_x
_atom_site_fract_y
_atom_site_fract_z
Si Si1 0.590421 0.250781 0.220606
Si Si2 0.421718 0.205621 0.928566
Si Si3 0.914365 0.630191 0.154911
Si Si4 0.197490 0.553069 0.098125
Si Si5 0.343656 0.254774 0.121037
Si Si6 0.550567 0.500000 0.750000
Si Si7 0.591320 0.246465 0.427427
Si Si8 0.319854 0.845654 0.984097
O O1 0.500000 0.250000 0.210501
O O2 0.605944 0.500000 0.250000
O O3 0.635147 0.258416 0.173638
O O4 0.606426 0.000000 0.250000
O O5 0.500000 0.250000 0.951288
O O6 0.379827 0.462165 0.924162
O O7 0.425847 0.100751 0.878468
O O8 0.374324 0.011365 0.955322
O O9 0.839414 0.778944 0.137616
O O10 0.901982 0.548393 0.205623
O O11 0.000000 0.750000 0.154196
O O12 0.255199 0.336107 0.113719
O O13 0.227729 0.683585 0.052800
O O14 0.385899 0.496514 0.099915
O O15 0.372365 0.996897 0.096909
O O16 0.500000 0.750000 0.742338
O O17 0.500000 0.250000 0.429014
O O18 0.627607 0.234416 0.477065
O O19 0.250000 0.019281 0.000000
#
# Coordination Sequence:
#
# PCOD9335134 Si02
#       8
#     8   8   8   8   8   4   8   8
#     4  10  21  42  75 106 136 178 229 283 350 432
#     4  11  23  39  69  94 129 181 243 299 343 423
#     4  10  21  41  65  99 132 180 239 294 357 428
#     4  11  25  42  70  95 140 191 234 295 366 423
#     4  12  26  48  72 107 149 184 232 296 365 428
#     4  10  22  38  68 100 136 178 230 300 362 422
#     4  12  27  45  73 105 143 187 239 294 352 424
#     4  11  25  44  64  97 139 190 236 292 363 433
#
# _framework density 21.350539000000001
#
# number of rings (size 3 to 8) (size 9 to 14) (size 15 to 20)
#    0.000    1.067    2.667    3.200    7.467    1.600 
#    0.000    1.333    0.000    0.000    0.000    0.000 
#    0.000    0.000    0.000    0.000    0.000    0.000 
#
# Total GULP energy -167158.353058 kJ/mol
# GULP energy per Si atom -5571.945102 kJ/mol
# Density = 2.130194 g / cm^3
# Si number density = 21.350539 Si / 1000 Ang^3
#
#
#
# Elastic Constant Matrix: (Units=GPa)
#
#
# Indices 1 2 3 4 5 6 
#
# 1 98.5893 16.0330 38.5831 0.0000 0.0000 0.0000
# 2 16.0330 99.9708 48.1154 0.0000 0.0000 0.0000
# 3 38.5831 48.1154 147.0511 0.0000 0.0000 0.0000
# 4 0.0000 0.0000 0.0000 -22.7859 0.0000 0.0000
# 5 0.0000 0.0000 0.0000 0.0000 216.9594 0.0000
# 6 0.0000 0.0000 0.0000 0.0000 0.0000 30.5125
#
#
#
# Elastic Compliance Matrix: (Units=1/GPa)
#
#
# Indices 1 2 3 4 5 6 
#
# 1 0.011321 -0.000458 -0.002821 0.000000 0.000000 0.000000
# 2 -0.000458 0.011891 -0.003771 0.000000 0.000000 0.000000
# 3 -0.002821 -0.003771 0.008774 0.000000 0.000000 0.000000
# 4 0.000000 0.000000 0.000000 -0.043887 0.000000 0.000000
# 5 0.000000 0.000000 0.000000 0.000000 0.004609 0.000000
# 6 0.000000 0.000000 0.000000 0.000000 0.000000 0.032773
#
#
# Mechanical properties :
#
#
# Convention : Reuss Voigt Hill
#
# Bulk Modulus (GPa) = 55.90322 61.23048 58.56685
# Shear Modulus (GPa) = 109.78365 61.12917 85.45641
#
# Velocity S-wave (km/s) = 7.17853 5.35662 6.33343
# Velocity P-wave (km/s) = 9.74416 8.18528 8.99854
#
# Compressibility (1/GPa) = 0.01788806
#
# Stress axis : x y z
#
# Youngs Moduli (GPa) = 88.32796 84.09607 113.97084
#
# Poissons Ratio (x) = 0.03853 0.32147
# Poissons Ratio (y) = 0.04047 0.42974
# Poissons Ratio (z) = 0.24914 0.31709
#
# Static dielectric constant tensor:
#      x y z
#    x 2.344300 0.000000 0.000000 
#    y 0.000000 1.777430 0.000000 
#    z 0.000000 0.000000 1.758050 
# 
# From -- ./inp_files/37529.got.cif
#   From: 2010.05.17/outbox.cif.g08.bks.cpg/sg24_19_cif.got.tgz:37529.got - 2010.06.04 00:33:39.
