data_PCOD9335634
_publ_section_title
;
Structure prediction by ZEFSAII (Michael W. Deem and Ramdas Pophale) SiO2 
 PCOD9335634
Probable space group: I 21 21 21
;
_chemical_formula_sum "Si O2"
_cell_formula_units_Z 56
_cell_length_a 30.057805
_cell_length_b 16.950633
_cell_length_c 5.258929
_cell_angle_alpha 90.000000
_cell_angle_beta 90.000000
_cell_angle_gamma 90.000000
_cell_volume 2679.418127
_symmetry_space_group_name_H-M "I 21 21 21"
_symmetry_group_IT_number 24
_symmetry_cell_setting 'orthorhombic'
loop_
_space_group_symop_operation_xyz
x,y,z
-x,1/2-y,z
x,-y,1/2-z
1/2-x,y,-z
1/2+x,1/2+y,1/2+z
1/2-x,-y,1/2+z
1/2+x,1/2-y,-z
-x,1/2+y,1/2-z
loop_
_atom_site_type_symbol
_atom_site_label
_atom_site_fract_x
_atom_site_fract_y
_atom_site_fract_z
Si Si1 0.932401 0.379248 0.581525
Si Si2 0.196445 0.546242 0.500532
Si Si3 0.156136 0.876714 0.615244
Si Si4 0.623848 0.500000 0.750000
Si Si5 0.471986 0.448289 0.487338
Si Si6 0.720681 0.500000 0.250000
Si Si7 0.146068 0.705238 0.584615
Si Si8 0.587620 0.205588 0.587325
O O1 0.896098 0.369997 0.805811
O O2 0.908275 0.447882 0.423529
O O3 0.934561 0.292067 0.456406
O O4 0.981386 0.413125 0.620461
O O5 0.181309 0.500000 0.750000
O O6 0.250000 0.548110 0.500000
O O7 0.177429 0.633074 0.518775
O O8 0.181173 0.500000 0.250000
O O9 0.188365 0.924620 0.801206
O O10 0.171116 0.788647 0.566844
O O11 0.154148 0.935146 0.381130
O O12 0.476951 0.500000 0.750000
O O13 0.443045 0.370947 0.551606
O O14 0.453287 0.500000 0.250000
O O15 0.750000 0.514768 0.500000
O O16 0.125281 0.699443 0.866938
O O17 0.108082 0.705493 0.368708
#
# Coordination Sequence:
#
# PCOD9335634 Si02
#       8
#     8   8   8   4   8   4   8   8
#     4  11  23  41  67  95 123 176 228 271 316 381
#     4  10  22  42  68  95 123 163 218 265 308 381
#     4  11  24  41  67  95 131 170 226 263 323 403
#     4  12  17  40  70  90 122 168 232 262 304 383
#     4  12  26  42  64  96 131 174 221 271 333 387
#     4  12  27  42  64  98 138 174 212 276 340 385
#     4  11  24  43  67  96 127 174 208 263 335 391
#     4  11  25  42  63  97 136 165 215 274 331 385
#
# _framework density 20.900058000000001
#
# number of rings (size 3 to 8) (size 9 to 14) (size 15 to 20)
#    0.000    0.857    3.571    3.429    0.000    4.000 
#    0.000    5.000    0.000    0.000    0.000    0.000 
#    0.000    0.000    0.000    0.000    0.000    0.000 
#
# Total GULP energy -156334.383547 kJ/mol
# GULP energy per Si atom -5583.370841 kJ/mol
# Density = 2.085249 g / cm^3
# Si number density = 20.900058 Si / 1000 Ang^3
#
#
#
# Elastic Constant Matrix: (Units=GPa)
#
#
# Indices 1 2 3 4 5 6 
#
# 1 38.1870 35.3430 10.2593 0.0000 0.0000 0.0000
# 2 35.3430 195.8097 36.6180 0.0000 0.0000 -0.0001
# 3 10.2593 36.6180 80.6852 0.0000 -0.0006 -0.0002
# 4 0.0000 0.0000 0.0000 36.5186 0.0000 0.0001
# 5 0.0000 0.0000 -0.0006 0.0000 -51.6549 -0.0001
# 6 0.0000 -0.0001 -0.0002 0.0001 -0.0001 370.5587
#
#
#
# Elastic Compliance Matrix: (Units=1/GPa)
#
#
# Indices 1 2 3 4 5 6 
#
# 1 0.031618 -0.005415 -0.001563 0.000000 0.000000 0.000000
# 2 -0.005415 0.006508 -0.002265 0.000000 0.000000 0.000000
# 3 -0.001563 -0.002265 0.013621 0.000000 0.000000 0.000000
# 4 0.000000 0.000000 0.000000 0.027383 0.000000 0.000000
# 5 0.000000 0.000000 0.000000 0.000000 -0.019359 0.000000
# 6 0.000000 0.000000 0.000000 0.000000 0.000000 0.002699
#
#
# Mechanical properties :
#
#
# Convention : Reuss Voigt Hill
#
# Bulk Modulus (GPa) = 30.06493 53.23583 41.65038
# Shear Modulus (GPa) = 54.32308 86.58191 70.45249
#
# Velocity S-wave (km/s) = 5.10375 6.44334 5.81226
# Velocity P-wave (km/s) = 7.01052 8.99346 8.06318
#
# Compressibility (1/GPa) = 0.03326134
#
# Stress axis : x y z
#
# Youngs Moduli (GPa) = 31.62729 153.65889 73.41855
#
# Poissons Ratio (x) = 0.83202 0.11475
# Poissons Ratio (y) = 0.17125 0.16630
# Poissons Ratio (z) = 0.04943 0.34804
#
# Static dielectric constant tensor:
#      x y z
#    x 1.796830 0.000000 0.000000 
#    y 0.000000 1.824170 0.000000 
#    z 0.000000 0.000000 1.727920 
# 
# From -- ./inp_files/7755.got.cif
#   From: 2010.05.17/outbox.cif.g08.bks.cpg/sg24_4_cif.got.tgz:7755.got - 2010.06.04 00:33:39.
