data_PCOD9335397
_publ_section_title
;
Structure prediction by ZEFSAII (Michael W. Deem and Ramdas Pophale) SiO2 
 PCOD9335397
Probable space group: I 21 21 21
;
_chemical_formula_sum "Si O2"
_cell_formula_units_Z 44
_cell_length_a 11.165185
_cell_length_b 11.747795
_cell_length_c 15.636213
_cell_angle_alpha 90.000000
_cell_angle_beta 90.000000
_cell_angle_gamma 90.000000
_cell_volume 2050.944276
_symmetry_space_group_name_H-M "I 21 21 21"
_symmetry_group_IT_number 24
_symmetry_cell_setting 'orthorhombic'
loop_
_space_group_symop_operation_xyz
x,y,z
-x,1/2-y,z
x,-y,1/2-z
1/2-x,y,-z
1/2+x,1/2+y,1/2+z
1/2-x,-y,1/2+z
1/2+x,1/2-y,-z
-x,1/2+y,1/2-z
loop_
_atom_site_type_symbol
_atom_site_label
_atom_site_fract_x
_atom_site_fract_y
_atom_site_fract_z
Si Si1 0.500000 0.750000 0.293218
Si Si2 0.715929 0.104596 0.593419
Si Si3 0.514062 0.527496 0.578930
Si Si4 0.387781 0.000000 0.750000
Si Si5 0.802063 0.323698 0.673893
Si Si6 0.847411 0.865472 0.561150
Si Si7 0.750000 0.433346 0.500000
O O1 0.421800 0.829695 0.230459
O O2 0.596175 0.805170 0.357665
O O3 0.750000 0.151037 0.500000
O O4 0.574236 0.081306 0.589669
O O5 0.759241 0.192680 0.664321
O O6 0.782261 0.981530 0.594605
O O7 0.532798 0.560930 0.677255
O O8 0.450009 0.603127 0.507461
O O9 0.645300 0.503202 0.544363
O O10 0.301360 0.097649 0.712916
O O11 0.816190 0.366823 0.576791
O O12 0.750000 0.803624 0.500000
#
# Coordination Sequence:
#
# PCOD9335397 Si02
#       7
#     4   8   8   4   8   8   4
#     4  12  28  38  68 102 134 182 224 296 338 432
#     4   9  20  43  68  92 125 178 229 274 341 412
#     4   9  21  41  68  89 135 174 221 281 343 412
#     4  10  24  40  58 104 126 166 218 276 340 408
#     4  11  25  39  62  99 135 170 226 282 347 408
#     4   9  23  46  67  94 131 182 227 273 351 421
#     4  10  22  38  64  96 130 178 212 294 348 394
#
# _framework density 21.453533
#
# number of rings (size 3 to 8) (size 9 to 14) (size 15 to 20)
#    0.000    2.545    0.909    0.000   10.182    8.000 
#    0.000    0.000    0.000    0.000    0.000    0.000 
#    0.000    0.000    0.000    0.000    0.000    0.000 
#
# Total GULP energy -122595.179503 kJ/mol
# GULP energy per Si atom -5572.508159 kJ/mol
# Density = 2.140470 g / cm^3
# Si number density = 21.453533 Si / 1000 Ang^3
#
#
#
# Elastic Constant Matrix: (Units=GPa)
#
#
# Indices 1 2 3 4 5 6 
#
# 1 93.6622 5.5999 34.4368 0.0000 0.0000 0.0000
# 2 5.5999 29.9312 17.9897 0.0000 0.0000 0.0000
# 3 34.4368 17.9897 122.0779 0.0000 0.0000 0.0000
# 4 0.0000 0.0000 0.0000 -0.5345 0.0000 0.0000
# 5 0.0000 0.0000 0.0000 0.0000 38.6517 0.0000
# 6 0.0000 0.0000 0.0000 0.0000 0.0000 -69.6807
#
#
#
# Elastic Compliance Matrix: (Units=1/GPa)
#
#
# Indices 1 2 3 4 5 6 
#
# 1 0.011914 -0.000229 -0.003327 0.000000 0.000000 0.000000
# 2 -0.000229 0.036661 -0.005338 0.000000 0.000000 0.000000
# 3 -0.003327 -0.005338 0.009917 0.000000 0.000000 0.000000
# 4 0.000000 0.000000 0.000000 -1.870941 0.000000 0.000000
# 5 0.000000 0.000000 0.000000 0.000000 0.025872 0.000000
# 6 0.000000 0.000000 0.000000 0.000000 0.000000 -0.014351
#
#
# Mechanical properties :
#
#
# Convention : Reuss Voigt Hill
#
# Bulk Modulus (GPa) = 24.56813 40.19158 32.37985
# Shear Modulus (GPa) = -2.82554 6.19695 1.68570
#
# Velocity S-wave (km/s) = -1.14887 1.70142 0.88738
# Velocity P-wave (km/s) = 3.11717 4.75759 4.02190
#
# Compressibility (1/GPa) = 0.04070314
#
# Stress axis : x y z
#
# Youngs Moduli (GPa) = 83.93788 27.27688 100.84144
#
# Poissons Ratio (x) = 0.00626 0.33549
# Poissons Ratio (y) = 0.01925 0.53827
# Poissons Ratio (z) = 0.27925 0.14560
#
# Static dielectric constant tensor:
#      x y z
#    x 1.786690 0.000000 0.000000 
#    y 0.000000 1.823220 0.000000 
#    z 0.000000 0.000000 1.797980 
# 
# From -- ./inp_files/25716.got.cif
#   From: 2010.05.17/outbox.cif.g08.bks.cpg/sg24_13_cif.got.tgz:25716.got - 2010.06.04 00:33:39.
