data_PCOD9335004
_publ_section_title
;
Structure prediction by ZEFSAII (Michael W. Deem and Ramdas Pophale) SiO2 
 PCOD9335004
Probable space group: I 21 21 21
;
_chemical_formula_sum "Si O2"
_cell_formula_units_Z 44
_cell_length_a 15.221607
_cell_length_b 16.719570
_cell_length_c 8.687002
_cell_angle_alpha 90.000000
_cell_angle_beta 90.000000
_cell_angle_gamma 90.000000
_cell_volume 2210.830922
_symmetry_space_group_name_H-M "I 21 21 21"
_symmetry_group_IT_number 24
_symmetry_cell_setting 'orthorhombic'
loop_
_space_group_symop_operation_xyz
x,y,z
-x,1/2-y,z
x,-y,1/2-z
1/2-x,y,-z
1/2+x,1/2+y,1/2+z
1/2-x,-y,1/2+z
1/2+x,1/2-y,-z
-x,1/2+y,1/2-z
loop_
_atom_site_type_symbol
_atom_site_label
_atom_site_fract_x
_atom_site_fract_y
_atom_site_fract_z
Si Si1 0.197003 0.811174 0.233755
Si Si2 0.544122 0.581929 0.835027
Si Si3 0.132848 0.340911 0.421121
Si Si4 0.692942 0.093194 0.267828
Si Si5 0.171708 0.061648 0.613589
Si Si6 0.750000 0.195147 0.000000
O O1 0.123356 0.877711 0.259012
O O2 0.161873 0.750614 0.102443
O O3 0.285958 0.856965 0.185078
O O4 0.204965 0.754050 0.379281
O O5 0.519699 0.500000 0.750000
O O6 0.460562 0.638944 0.849314
O O7 0.587390 0.570703 0.004286
O O8 0.207815 0.392979 0.333357
O O9 0.135082 0.366033 0.599454
O O10 0.689120 0.138344 0.104856
O O11 0.674390 0.000000 0.250000
O O12 0.250000 0.031985 0.500000
O O13 0.156407 0.000000 0.750000
#
# Coordination Sequence:
#
# PCOD9335004 Si02
#       6
#     8   8   8   8   8   4
#     4  10  22  39  62  91 126 166 212 262 317 382
#     4  11  24  40  63  94 131 174 207 265 329 386
#     4  10  22  40  63  87 128 165 208 257 321 384
#     4  10  21  39  65  90 116 167 217 259 313 380
#     4  10  22  38  63  92 125 171 213 261 319 386
#     4  10  22  34  66  92 116 158 214 272 306 378
#
# _framework density 19.902018999999999
#
# number of rings (size 3 to 8) (size 9 to 14) (size 15 to 20)
#    0.000    1.818    0.000    4.364   19.091    2.182 
#    0.000    0.000    8.000    0.000    0.000    0.000 
#    0.000    0.000    0.000    0.000    0.000    0.000 
#
# Total GULP energy -122783.706810 kJ/mol
# GULP energy per Si atom -5581.077582 kJ/mol
# Density = 1.985672 g / cm^3
# Si number density = 19.902019 Si / 1000 Ang^3
#
#
#
# Elastic Constant Matrix: (Units=GPa)
#
#
# Indices 1 2 3 4 5 6 
#
# 1 48.7303 5.2288 2.9963 0.0000 0.0000 0.0000
# 2 5.2288 106.5862 46.0831 0.0000 0.0000 0.0000
# 3 2.9963 46.0831 96.8994 0.0000 0.0000 0.0000
# 4 0.0000 0.0000 0.0000 43.9864 0.0000 0.0000
# 5 0.0000 0.0000 0.0000 0.0000 12.9014 0.0000
# 6 0.0000 0.0000 0.0000 0.0000 0.0000 19.5432
#
#
#
# Elastic Compliance Matrix: (Units=1/GPa)
#
#
# Indices 1 2 3 4 5 6 
#
# 1 0.020633 -0.000927 -0.000197 0.000000 0.000000 0.000000
# 2 -0.000927 0.011852 -0.005608 0.000000 0.000000 0.000000
# 3 -0.000197 -0.005608 0.012993 0.000000 0.000000 0.000000
# 4 0.000000 0.000000 0.000000 0.022734 0.000000 0.000000
# 5 0.000000 0.000000 0.000000 0.000000 0.077511 0.000000
# 6 0.000000 0.000000 0.000000 0.000000 0.000000 0.051169
#
#
# Mechanical properties :
#
#
# Convention : Reuss Voigt Hill
#
# Bulk Modulus (GPa) = 31.23649 40.09248 35.66449
# Shear Modulus (GPa) = 22.62167 28.48007 25.55087
#
# Velocity S-wave (km/s) = 3.37508 3.78698 3.58695
# Velocity P-wave (km/s) = 5.56035 6.26979 5.92570
#
# Compressibility (1/GPa) = 0.03201384
#
# Stress axis : x y z
#
# Youngs Moduli (GPa) = 48.46680 84.37267 76.96395
#
# Poissons Ratio (x) = 0.07821 0.01518
# Poissons Ratio (y) = 0.04493 0.43161
# Poissons Ratio (z) = 0.00956 0.47316
#
# Static dielectric constant tensor:
#      x y z
#    x 1.685200 0.000000 0.000000 
#    y 0.000000 1.713970 0.000000 
#    z 0.000000 0.000000 1.743460 
# 
# From -- ./inp_files/12671.got.cif
#   From: 2010.05.17/outbox.cif.g08.bks.cpg/sg24_7_cif.got.tgz:12671.got - 2010.06.04 00:33:39.
