data_PCOD9335475
_publ_section_title
;
Structure prediction by ZEFSAII (Michael W. Deem and Ramdas Pophale) SiO2 
 PCOD9335475
Probable space group: I 21 21 21
;
_chemical_formula_sum "Si O2"
_cell_formula_units_Z 32
_cell_length_a 30.708463
_cell_length_b 8.762066
_cell_length_c 5.233481
_cell_angle_alpha 90.000000
_cell_angle_beta 90.000000
_cell_angle_gamma 90.000000
_cell_volume 1408.170532
_symmetry_space_group_name_H-M "I 21 21 21"
_symmetry_group_IT_number 24
_symmetry_cell_setting 'orthorhombic'
loop_
_space_group_symop_operation_xyz
x,y,z
-x,1/2-y,z
x,-y,1/2-z
1/2-x,y,-z
1/2+x,1/2+y,1/2+z
1/2-x,-y,1/2+z
1/2+x,1/2-y,-z
-x,1/2+y,1/2-z
loop_
_atom_site_type_symbol
_atom_site_label
_atom_site_fract_x
_atom_site_fract_y
_atom_site_fract_z
Si Si1 0.318932 0.405777 0.013950
Si Si2 0.453350 0.179185 0.685416
Si Si3 0.916990 0.169099 0.804847
Si Si4 0.799444 0.437067 0.002992
O O1 0.298431 0.500000 0.250000
O O2 0.367176 0.360411 0.111382
O O3 0.320411 0.500000 0.750000
O O4 0.296882 0.243070 0.978193
O O5 0.500000 0.250000 0.611101
O O6 0.422258 0.228220 0.448884
O O7 0.455145 0.000000 0.750000
O O8 0.439390 0.258696 0.949200
O O9 0.935763 0.000000 0.750000
O O10 0.823164 0.500000 0.250000
O O11 0.821356 0.500000 0.750000
O O12 0.750000 0.503456 0.000000
#
# Coordination Sequence:
#
# PCOD9335475 Si02
#       4
#     8   8   8   8
#     4  11  23  40  63  92 123 162 205 251 305 359
#     4  12  25  42  64  91 120 158 203 250 306 365
#     4  11  23  42  62  88 124 159 199 252 306 361
#     4  10  22  40  62  91 127 165 204 251 304 357
#
# _framework density 22.724519000000001
#
# number of rings (size 3 to 8) (size 9 to 14) (size 15 to 20)
#    0.000    1.000    0.000    8.250    0.000    4.000 
#    0.000    0.000    0.000    0.000    0.000    0.000 
#    0.000    0.000    0.000    0.000    0.000    0.000 
#
# Total GULP energy -89465.603114 kJ/mol
# GULP energy per Si atom -5591.600195 kJ/mol
# Density = 2.267280 g / cm^3
# Si number density = 22.724519 Si / 1000 Ang^3
#
#
#
# Elastic Constant Matrix: (Units=GPa)
#
#
# Indices 1 2 3 4 5 6 
#
# 1 37.6332 24.8373 20.8616 0.0001 0.0000 -0.0001
# 2 24.8373 130.2393 83.5984 0.0006 0.0009 -0.0001
# 3 20.8616 83.5984 231.9633 0.0013 0.0011 -0.0002
# 4 0.0001 0.0006 0.0013 56.0072 0.0009 -0.0001
# 5 0.0000 0.0009 0.0011 0.0009 94.7548 0.0003
# 6 -0.0001 -0.0001 -0.0002 -0.0001 0.0003 27.6570
#
#
#
# Elastic Compliance Matrix: (Units=1/GPa)
#
#
# Indices 1 2 3 4 5 6 
#
# 1 0.030524 -0.005281 -0.000842 0.000000 0.000000 0.000000
# 2 -0.005281 0.010902 -0.003454 0.000000 0.000000 0.000000
# 3 -0.000842 -0.003454 0.005632 0.000000 0.000000 0.000000
# 4 0.000000 0.000000 0.000000 0.017855 0.000000 0.000000
# 5 0.000000 0.000000 0.000000 0.000000 0.010554 0.000000
# 6 0.000000 0.000000 0.000000 0.000000 0.000000 0.036157
#
#
# Mechanical properties :
#
#
# Convention : Reuss Voigt Hill
#
# Bulk Modulus (GPa) = 35.83669 73.15895 54.49782
# Shear Modulus (GPa) = 35.69408 53.71971 44.70689
#
# Velocity S-wave (km/s) = 3.96754 4.86733 4.44028
# Velocity P-wave (km/s) = 6.06571 7.99072 7.09381
#
# Compressibility (1/GPa) = 0.02790437
#
# Stress axis : x y z
#
# Youngs Moduli (GPa) = 32.76092 91.72249 177.56733
#
# Poissons Ratio (x) = 0.48435 0.14953
# Poissons Ratio (y) = 0.17300 0.61337
# Poissons Ratio (z) = 0.02759 0.31684
#
# Static dielectric constant tensor:
#      x y z
#    x 1.895270 0.000000 0.000000 
#    y 0.000000 1.803510 0.000000 
#    z 0.000000 0.000000 1.788940 
# 
# From -- ./inp_files/7456.got.cif
#   From: 2010.05.17/outbox.cif.g08.bks.cpg/sg24_4_cif.got.tgz:7456.got - 2010.06.04 00:33:39.
