data_PCOD9335864
_publ_section_title
;
Structure prediction by ZEFSAII (Michael W. Deem and Ramdas Pophale) SiO2 
 PCOD9335864
Probable space group: I 21 21 21
;
_chemical_formula_sum "Si O2"
_cell_formula_units_Z 40
_cell_length_a 10.344136
_cell_length_b 18.583164
_cell_length_c 8.784501
_cell_angle_alpha 90.000000
_cell_angle_beta 90.000000
_cell_angle_gamma 90.000000
_cell_volume 1688.616304
_symmetry_space_group_name_H-M "I 21 21 21"
_symmetry_group_IT_number 24
_symmetry_cell_setting 'orthorhombic'
loop_
_space_group_symop_operation_xyz
x,y,z
-x,1/2-y,z
x,-y,1/2-z
1/2-x,y,-z
1/2+x,1/2+y,1/2+z
1/2-x,-y,1/2+z
1/2+x,1/2-y,-z
-x,1/2+y,1/2-z
loop_
_atom_site_type_symbol
_atom_site_label
_atom_site_fract_x
_atom_site_fract_y
_atom_site_fract_z
Si Si1 0.098503 0.074093 0.538701
Si Si2 0.574477 0.953547 0.615109
Si Si3 0.182772 0.235204 0.844031
Si Si4 0.546264 0.128580 0.176619
Si Si5 0.067384 0.824871 0.209977
O O1 0.250000 0.064372 0.500000
O O2 0.032670 0.079988 0.703931
O O3 0.061075 0.150473 0.463809
O O4 0.029745 0.010827 0.445943
O O5 0.616650 0.918406 0.452967
O O6 0.504279 0.887062 0.697179
O O7 0.647307 0.000000 0.750000
O O8 0.065079 0.182266 0.887236
O O9 0.283684 0.186513 0.753064
O O10 0.143525 0.309590 0.760696
O O11 0.250000 0.258219 0.000000
O O12 0.000000 0.750000 0.238960
#
# Coordination Sequence:
#
# PCOD9335864 Si02
#       5
#     8   8   8   8   8
#     4  11  24  38  64  99 137 171 214 284 341 406
#     4  10  23  40  63  97 135 173 221 284 343 405
#     4  11  22  38  66  97 133 176 228 275 339 404
#     4  11  23  40  65  97 137 172 221 280 340 411
#     4  11  23  40  65  94 135 174 225 277 333 400
#
# _framework density 23.688036
#
# number of rings (size 3 to 8) (size 9 to 14) (size 15 to 20)
#    0.000    1.200    4.000    1.800    5.600    1.600 
#    0.000    0.000    0.000   26.400    0.000    0.000 
#    0.000    0.000    0.000    0.000    0.000    0.000 
#
# Total GULP energy -111516.779616 kJ/mol
# GULP energy per Si atom -5575.838981 kJ/mol
# Density = 2.363412 g / cm^3
# Si number density = 23.688036 Si / 1000 Ang^3
#
#
#
# Elastic Constant Matrix: (Units=GPa)
#
#
# Indices 1 2 3 4 5 6 
#
# 1 31.5648 4.4837 9.0615 0.0000 0.0000 0.0000
# 2 4.4837 128.1829 27.5901 0.0000 0.0000 0.0000
# 3 9.0615 27.5901 93.3613 -0.0001 0.0000 0.0000
# 4 0.0000 0.0000 -0.0001 36.5135 0.0000 0.0000
# 5 0.0000 0.0000 0.0000 0.0000 26.4606 0.0000
# 6 0.0000 0.0000 0.0000 0.0000 0.0000 13.1777
#
#
#
# Elastic Compliance Matrix: (Units=1/GPa)
#
#
# Indices 1 2 3 4 5 6 
#
# 1 0.032618 -0.000491 -0.003021 0.000000 0.000000 0.000000
# 2 -0.000491 0.008339 -0.002417 0.000000 0.000000 0.000000
# 3 -0.003021 -0.002417 0.011718 0.000000 0.000000 0.000000
# 4 0.000000 0.000000 0.000000 0.027387 0.000000 0.000000
# 5 0.000000 0.000000 0.000000 0.000000 0.037792 0.000000
# 6 0.000000 0.000000 0.000000 0.000000 0.000000 0.075886
#
#
# Mechanical properties :
#
#
# Convention : Reuss Voigt Hill
#
# Bulk Modulus (GPa) = 24.49866 37.26441 30.88154
# Shear Modulus (GPa) = 22.80998 29.36194 26.08596
#
# Velocity S-wave (km/s) = 3.10648 3.52451 3.32208
# Velocity P-wave (km/s) = 4.81992 5.68580 5.27067
#
# Compressibility (1/GPa) = 0.04081855
#
# Stress axis : x y z
#
# Youngs Moduli (GPa) = 30.65815 119.92320 85.33568
#
# Poissons Ratio (x) = 0.05885 0.25778
# Poissons Ratio (y) = 0.01505 0.20622
# Poissons Ratio (z) = 0.09261 0.28981
#
# Static dielectric constant tensor:
#      x y z
#    x 2.007640 0.000000 0.000000 
#    y 0.000000 1.855970 0.000000 
#    z 0.000000 0.000000 1.993400 
# 
# From -- ./inp_files/10654.got.cif
#   From: 2010.05.17/outbox.cif.g08.bks.cpg/sg24_6_cif.got.tgz:10654.got - 2010.06.04 00:33:39.
