data_PCOD9335436
_publ_section_title
;
Structure prediction by ZEFSAII (Michael W. Deem and Ramdas Pophale) SiO2 
 PCOD9335436
Probable space group: I 21 21 21
;
_chemical_formula_sum "Si O2"
_cell_formula_units_Z 28
_cell_length_a 4.803004
_cell_length_b 11.401038
_cell_length_c 21.705025
_cell_angle_alpha 90.000000
_cell_angle_beta 90.000000
_cell_angle_gamma 90.000000
_cell_volume 1188.550480
_symmetry_space_group_name_H-M "I 21 21 21"
_symmetry_group_IT_number 24
_symmetry_cell_setting 'orthorhombic'
loop_
_space_group_symop_operation_xyz
x,y,z
-x,1/2-y,z
x,-y,1/2-z
1/2-x,y,-z
1/2+x,1/2+y,1/2+z
1/2-x,-y,1/2+z
1/2+x,1/2-y,-z
-x,1/2+y,1/2-z
loop_
_atom_site_type_symbol
_atom_site_label
_atom_site_fract_x
_atom_site_fract_y
_atom_site_fract_z
Si Si1 0.029413 0.115700 0.647308
Si Si2 0.866377 0.371919 0.238094
Si Si3 0.492467 0.461849 0.888132
Si Si4 0.250000 0.174052 0.000000
O O1 0.084799 0.117463 0.721634
O O2 0.000000 0.250000 0.628284
O O3 0.320451 0.076390 0.619197
O O4 0.812215 0.015534 0.625630
O O5 0.004624 0.500000 0.250000
O O6 0.885136 0.374268 0.164511
O O7 0.000000 0.250000 0.259899
O O8 0.570383 0.401742 0.951998
O O9 0.500000 0.250000 0.031213
#
# Coordination Sequence:
#
# PCOD9335436 Si02
#       4
#     8   8   8   4
#     4  11  23  42  67 101 142 184 233 297 364 439
#     4  10  22  39  65 101 144 187 235 293 364 436
#     4  11  25  44  69 103 141 190 242 294 360 434
#     4  12  26  48  74 102 140 188 244 306 358 428
#
# _framework density 23.558105000000001
#
# number of rings (size 3 to 8) (size 9 to 14) (size 15 to 20)
#    0.000    1.143    0.000    6.857    0.000   18.286 
#    0.000    2.857    0.000    0.000    0.000    0.000 
#    0.000    0.000    0.000    0.000    0.000    0.000 
#
# Total GULP energy -77968.751219 kJ/mol
# GULP energy per Si atom -5569.196516 kJ/mol
# Density = 2.350449 g / cm^3
# Si number density = 23.558105 Si / 1000 Ang^3
#
#
#
# Elastic Constant Matrix: (Units=GPa)
#
#
# Indices 1 2 3 4 5 6 
#
# 1 100.3799 40.7345 17.0978 0.0000 0.0000 0.0000
# 2 40.7345 158.3065 33.7049 0.0000 0.0000 0.0000
# 3 17.0978 33.7049 101.6693 0.0000 0.0000 0.0000
# 4 0.0000 0.0000 0.0000 -9.1209 0.0000 0.0000
# 5 0.0000 0.0000 0.0000 0.0000 18.6634 0.0000
# 6 0.0000 0.0000 0.0000 0.0000 0.0000 46.8784
#
#
#
# Elastic Compliance Matrix: (Units=1/GPa)
#
#
# Indices 1 2 3 4 5 6 
#
# 1 0.011217 -0.002673 -0.001000 0.000000 0.000000 0.000000
# 2 -0.002673 0.007434 -0.002015 0.000000 0.000000 0.000000
# 3 -0.001000 -0.002015 0.010672 0.000000 0.000000 0.000000
# 4 0.000000 0.000000 0.000000 -0.109638 0.000000 0.000000
# 5 0.000000 0.000000 0.000000 0.000000 0.053581 0.000000
# 6 0.000000 0.000000 0.000000 0.000000 0.000000 0.021332
#
#
# Mechanical properties :
#
#
# Convention : Reuss Voigt Hill
#
# Bulk Modulus (GPa) = 55.72185 60.38112 58.05148
# Shear Modulus (GPa) = 418.18403 29.20540 223.69471
#
# Velocity S-wave (km/s) = 13.33781 3.52478 9.75503
# Velocity P-wave (km/s) = 16.15241 6.50014 12.31163
#
# Compressibility (1/GPa) = 0.01794628
#
# Stress axis : x y z
#
# Youngs Moduli (GPa) = 89.14720 134.52170 93.70365
#
# Poissons Ratio (x) = 0.35964 0.09372
# Poissons Ratio (y) = 0.23833 0.18879
# Poissons Ratio (z) = 0.08916 0.27103
#
# Static dielectric constant tensor:
#      x y z
#    x 1.938130 0.000000 0.000000 
#    y 0.000000 1.920680 0.000000 
#    z 0.000000 0.000000 2.089980 
# 
# From -- ./inp_files/31866.got.cif
#   From: 2010.05.17/outbox.cif.g08.bks.cpg/sg24_16_cif.got.tgz:31866.got - 2010.06.04 00:33:39.
