data_PCOD9335251
_publ_section_title
;
Structure prediction by ZEFSAII (Michael W. Deem and Ramdas Pophale) SiO2 
 PCOD9335251
Probable space group: I 21 21 21
;
_chemical_formula_sum "Si O2"
_cell_formula_units_Z 56
_cell_length_a 8.880244
_cell_length_b 15.464956
_cell_length_c 21.183867
_cell_angle_alpha 90.000000
_cell_angle_beta 90.000000
_cell_angle_gamma 90.000000
_cell_volume 2909.235167
_symmetry_space_group_name_H-M "I 21 21 21"
_symmetry_group_IT_number 24
_symmetry_cell_setting 'orthorhombic'
loop_
_space_group_symop_operation_xyz
x,y,z
-x,1/2-y,z
x,-y,1/2-z
1/2-x,y,-z
1/2+x,1/2+y,1/2+z
1/2-x,-y,1/2+z
1/2+x,1/2-y,-z
-x,1/2+y,1/2-z
loop_
_atom_site_type_symbol
_atom_site_label
_atom_site_fract_x
_atom_site_fract_y
_atom_site_fract_z
Si Si1 0.283199 0.889935 0.073195
Si Si2 0.004560 0.951145 0.562958
Si Si3 0.000000 0.250000 0.638860
Si Si4 0.904190 0.165937 0.042264
Si Si5 0.270449 0.424219 0.155727
Si Si6 0.261090 0.375386 0.297618
Si Si7 0.536493 0.156101 0.601295
Si Si8 0.250000 0.431695 0.500000
O O1 0.388393 0.812534 0.099046
O O2 0.120470 0.893514 0.105675
O O3 0.362859 0.983019 0.077542
O O4 0.250000 0.873081 0.000000
O O5 0.016985 0.885536 0.504919
O O6 0.934307 0.906859 0.624685
O O7 0.868508 0.011542 0.538056
O O8 0.100089 0.316897 0.679193
O O9 0.848433 0.109139 0.102593
O O10 0.000000 0.250000 0.061572
O O11 0.750000 0.182370 0.000000
O O12 0.250583 0.377777 0.222513
O O13 0.267764 0.526295 0.174501
O O14 0.115096 0.336930 0.331447
O O15 0.500000 0.250000 0.576171
O O16 0.653992 0.118582 0.551390
#
# Coordination Sequence:
#
# PCOD9335251 Si02
#       8
#     8   8   4   8   8   8   8   4
#     4  12  26  35  63  99 138 168 214 271 340 394
#     4  11  20  42  68  92 127 174 216 271 337 404
#     4  12  24  44  62  98 134 178 224 274 316 424
#     4  10  22  43  69 100 129 167 222 285 344 389
#     4  10  21  43  72  86 122 188 224 265 338 395
#     4  11  23  42  69  89 131 180 229 264 330 407
#     4  12  25  36  59  98 133 171 213 268 323 392
#     4  12  20  38  62  86 132 172 210 254 330 408
#
# _framework density 19.249046
#
# number of rings (size 3 to 8) (size 9 to 14) (size 15 to 20)
#    0.000    0.857    7.857    0.000    2.000    1.143 
#    5.143    0.000    6.286    0.000    0.000    0.000 
#    0.000    0.000    0.000    0.000    0.000    0.000 
#
# Total GULP energy -156235.647176 kJ/mol
# GULP energy per Si atom -5579.844542 kJ/mol
# Density = 1.920523 g / cm^3
# Si number density = 19.249046 Si / 1000 Ang^3
#
#
#
# Elastic Constant Matrix: (Units=GPa)
#
#
# Indices 1 2 3 4 5 6 
#
# 1 92.0267 30.0343 28.0722 0.0000 0.0000 0.0000
# 2 30.0343 78.8949 22.2639 0.0000 0.0000 0.0000
# 3 28.0722 22.2639 116.1597 0.0000 0.0000 0.0000
# 4 0.0000 0.0000 0.0000 28.8612 0.0000 0.0000
# 5 0.0000 0.0000 0.0000 0.0000 6.9720 0.0000
# 6 0.0000 0.0000 0.0000 0.0000 0.0000 39.7091
#
#
#
# Elastic Compliance Matrix: (Units=1/GPa)
#
#
# Indices 1 2 3 4 5 6 
#
# 1 0.012971 -0.004285 -0.002313 0.000000 0.000000 0.000000
# 2 -0.004285 0.014815 -0.001804 0.000000 0.000000 0.000000
# 3 -0.002313 -0.001804 0.009514 0.000000 0.000000 0.000000
# 4 0.000000 0.000000 0.000000 0.034649 0.000000 0.000000
# 5 0.000000 0.000000 0.000000 0.000000 0.143431 0.000000
# 6 0.000000 0.000000 0.000000 0.000000 0.000000 0.025183
#
#
# Mechanical properties :
#
#
# Convention : Reuss Voigt Hill
#
# Bulk Modulus (GPa) = 48.79235 49.75800 49.27518
# Shear Modulus (GPa) = 18.92516 28.88919 23.90718
#
# Velocity S-wave (km/s) = 3.13896 3.87823 3.52802
# Velocity P-wave (km/s) = 6.20809 6.77938 6.50001
#
# Compressibility (1/GPa) = 0.02049502
#
# Stress axis : x y z
#
# Youngs Moduli (GPa) = 77.09799 67.49731 105.11189
#
# Poissons Ratio (x) = 0.28922 0.24315
# Poissons Ratio (y) = 0.33036 0.18963
# Poissons Ratio (z) = 0.17835 0.12177
#
# Static dielectric constant tensor:
#      x y z
#    x 1.613190 0.000000 0.000000 
#    y 0.000000 1.732550 0.000000 
#    z 0.000000 0.000000 1.690960 
# 
# From -- ./inp_files/32854.got.cif
#   From: 2010.05.17/outbox.cif.g08.bks.cpg/sg24_17_cif.got.tgz:32854.got - 2010.06.04 00:33:39.
