data_PCOD9335614
_publ_section_title
;
Structure prediction by ZEFSAII (Michael W. Deem and Ramdas Pophale) SiO2 
 PCOD9335614
Probable space group: I 21 21 21
;
_chemical_formula_sum "Si O2"
_cell_formula_units_Z 48
_cell_length_a 15.691155
_cell_length_b 8.544214
_cell_length_c 14.972517
_cell_angle_alpha 90.000000
_cell_angle_beta 90.000000
_cell_angle_gamma 90.000000
_cell_volume 2007.344186
_symmetry_space_group_name_H-M "I 21 21 21"
_symmetry_group_IT_number 24
_symmetry_cell_setting 'orthorhombic'
loop_
_space_group_symop_operation_xyz
x,y,z
-x,1/2-y,z
x,-y,1/2-z
1/2-x,y,-z
1/2+x,1/2+y,1/2+z
1/2-x,-y,1/2+z
1/2+x,1/2-y,-z
-x,1/2+y,1/2-z
loop_
_atom_site_type_symbol
_atom_site_label
_atom_site_fract_x
_atom_site_fract_y
_atom_site_fract_z
Si Si1 0.904747 0.183497 0.411462
Si Si2 0.775572 0.444521 0.345053
Si Si3 0.055464 0.590854 0.895766
Si Si4 0.319909 0.220595 0.054370
Si Si5 0.500000 0.250000 0.054267
Si Si6 0.339056 0.500000 0.750000
Si Si7 0.323117 0.701153 0.249994
O O1 0.837557 0.323741 0.394937
O O2 0.897019 0.112444 0.509877
O O3 0.890891 0.054190 0.335409
O O4 0.000000 0.250000 0.404861
O O5 0.816286 0.500000 0.250000
O O6 0.740836 0.577557 0.411144
O O7 0.691832 0.355559 0.308752
O O8 0.123508 0.595678 0.816889
O O9 0.000000 0.750000 0.883824
O O10 0.005768 0.425947 0.900867
O O11 0.409666 0.223403 0.001758
O O12 0.356859 0.268014 0.151775
O O13 0.250000 0.320315 0.000000
O O14 0.272272 0.639008 0.731581
#
# Coordination Sequence:
#
# PCOD9335614 Si02
#       7
#     8   8   8   8   4   4   8
#     4  10  24  42  70 108 153 214 268 336 403 477
#     4   9  21  42  71 107 149 211 269 328 416 487
#     4  11  26  48  78 116 158 206 273 335 409 494
#     4  11  26  44  75 112 160 206 265 337 412 495
#     4  12  28  48  76 124 156 216 266 338 418 486
#     4  10  22  42  66 100 138 198 258 316 398 462
#     4  10  22  45  70 106 147 198 259 334 399 484
#
# _framework density 23.912191
#
# number of rings (size 3 to 8) (size 9 to 14) (size 15 to 20)
#    0.000    1.667    0.000    2.000   11.667    2.000 
#    1.500    0.000    0.000    0.000    0.000    0.000 
#    0.000    0.000    0.000    0.000    0.000    0.000 
#
# Total GULP energy -133754.423052 kJ/mol
# GULP energy per Si atom -5573.100960 kJ/mol
# Density = 2.385777 g / cm^3
# Si number density = 23.912191 Si / 1000 Ang^3
#
#
#
# Elastic Constant Matrix: (Units=GPa)
#
#
# Indices 1 2 3 4 5 6 
#
# 1 129.5609 41.9508 50.3361 0.0000 0.0000 0.0000
# 2 41.9508 128.7868 42.6758 0.0000 0.0000 0.0000
# 3 50.3361 42.6758 164.7821 0.0000 0.0000 0.0000
# 4 0.0000 0.0000 0.0000 24.7911 0.0000 0.0000
# 5 0.0000 0.0000 0.0000 0.0000 -16.1348 0.0000
# 6 0.0000 0.0000 0.0000 0.0000 0.0000 41.0857
#
#
#
# Elastic Compliance Matrix: (Units=1/GPa)
#
#
# Indices 1 2 3 4 5 6 
#
# 1 0.009339 -0.002293 -0.002259 0.000000 0.000000 0.000000
# 2 -0.002293 0.009057 -0.001645 0.000000 0.000000 0.000000
# 3 -0.002259 -0.001645 0.007185 0.000000 0.000000 0.000000
# 4 0.000000 0.000000 0.000000 0.040337 0.000000 0.000000
# 5 0.000000 0.000000 0.000000 0.000000 -0.061978 0.000000
# 6 0.000000 0.000000 0.000000 0.000000 0.000000 0.024339
#
#
# Mechanical properties :
#
#
# Convention : Reuss Voigt Hill
#
# Bulk Modulus (GPa) = 75.83932 77.00613 76.42273
# Shear Modulus (GPa) = 110.94247 29.15952 70.05100
#
# Velocity S-wave (km/s) = 6.81883 3.49584 5.41837
# Velocity P-wave (km/s) = 9.68400 6.96908 8.43647
#
# Compressibility (1/GPa) = 0.01318577
#
# Stress axis : x y z
#
# Youngs Moduli (GPa) = 107.08350 110.41256 139.18634
#
# Poissons Ratio (x) = 0.25323 0.31438
# Poissons Ratio (y) = 0.24559 0.22896
# Poissons Ratio (z) = 0.24187 0.18163
#
# Static dielectric constant tensor:
#      x y z
#    x 1.954880 0.000000 0.000000 
#    y 0.000000 2.217750 0.000000 
#    z 0.000000 0.000000 1.963000 
# 
# From -- ./inp_files/27062.got.cif
#   From: 2010.05.17/outbox.cif.g08.bks.cpg/sg24_14_cif.got.tgz:27062.got - 2010.06.04 00:33:39.
