data_PCOD9335817
_publ_section_title
;
Structure prediction by ZEFSAII (Michael W. Deem and Ramdas Pophale) SiO2 
 PCOD9335817
Probable space group: I 21 21 21
;
_chemical_formula_sum "Si O2"
_cell_formula_units_Z 32
_cell_length_a 11.166828
_cell_length_b 9.705575
_cell_length_c 11.580750
_cell_angle_alpha 90.000000
_cell_angle_beta 90.000000
_cell_angle_gamma 90.000000
_cell_volume 1255.127321
_symmetry_space_group_name_H-M "I 21 21 21"
_symmetry_group_IT_number 24
_symmetry_cell_setting 'orthorhombic'
loop_
_space_group_symop_operation_xyz
x,y,z
-x,1/2-y,z
x,-y,1/2-z
1/2-x,y,-z
1/2+x,1/2+y,1/2+z
1/2-x,-y,1/2+z
1/2+x,1/2-y,-z
-x,1/2+y,1/2-z
loop_
_atom_site_type_symbol
_atom_site_label
_atom_site_fract_x
_atom_site_fract_y
_atom_site_fract_z
Si Si1 0.148302 0.777862 0.784058
Si Si2 0.606305 0.839332 0.771203
Si Si3 0.114589 0.430939 0.515678
Si Si4 0.629960 0.549908 0.431606
O O1 0.268924 0.717237 0.729721
O O2 0.101474 0.650605 0.862669
O O3 0.091940 0.850052 0.672905
O O4 0.168207 0.904146 0.872453
O O5 0.500000 0.750000 0.723000
O O6 0.592656 0.000000 0.750000
O O7 0.612711 0.823522 0.910219
O O8 0.250000 0.492440 0.500000
O O9 0.995548 0.522574 0.502245
O O10 0.750000 0.594188 0.500000
#
# Coordination Sequence:
#
# PCOD9335817 Si02
#       4
#     8   8   8   8
#     4  10  23  43  71 108 154 200 256 310 400 459
#     4  11  24  42  77 109 156 200 261 314 390 461
#     4  10  22  47  74 107 150 208 253 312 391 467
#     4  11  22  41  80 109 145 202 265 324 376 461
#
# _framework density 25.495421
#
# number of rings (size 3 to 8) (size 9 to 14) (size 15 to 20)
#    0.000    1.500    0.000    6.000    7.000    0.000 
#   27.000    3.750   11.000    0.000    0.000    0.000 
#    0.000    0.000    0.000    0.000    0.000    0.000 
#
# Total GULP energy -89382.831846 kJ/mol
# GULP energy per Si atom -5586.426990 kJ/mol
# Density = 2.543739 g / cm^3
# Si number density = 25.495421 Si / 1000 Ang^3
#
#
#
# Elastic Constant Matrix: (Units=GPa)
#
#
# Indices 1 2 3 4 5 6 
#
# 1 137.2345 59.4236 25.1191 0.0000 0.0000 0.0000
# 2 59.4236 104.4873 26.5742 0.0000 0.0000 0.0000
# 3 25.1191 26.5742 97.3412 0.0000 0.0000 0.0000
# 4 0.0000 0.0000 0.0000 5.0245 0.0000 0.0000
# 5 0.0000 0.0000 0.0000 0.0000 -16.9382 0.0000
# 6 0.0000 0.0000 0.0000 0.0000 0.0000 22.4196
#
#
#
# Elastic Compliance Matrix: (Units=1/GPa)
#
#
# Indices 1 2 3 4 5 6 
#
# 1 0.009772 -0.005283 -0.001079 0.000000 0.000000 0.000000
# 2 -0.005283 0.013141 -0.002224 0.000000 0.000000 0.000000
# 3 -0.001079 -0.002224 0.011159 0.000000 0.000000 0.000000
# 4 0.000000 0.000000 0.000000 0.199025 0.000000 0.000000
# 5 0.000000 0.000000 0.000000 0.000000 -0.059038 0.000000
# 6 0.000000 0.000000 0.000000 0.000000 0.000000 0.044604
#
#
# Mechanical properties :
#
#
# Convention : Reuss Voigt Hill
#
# Bulk Modulus (GPa) = 59.17683 62.36633 60.77158
# Shear Modulus (GPa) = 20.70664 17.29757 19.00211
#
# Velocity S-wave (km/s) = 2.85295 2.60755 2.73301
# Velocity P-wave (km/s) = 5.84069 5.79488 5.81783
#
# Compressibility (1/GPa) = 0.01689850
#
# Stress axis : x y z
#
# Youngs Moduli (GPa) = 102.33406 76.09950 89.61472
#
# Poissons Ratio (x) = 0.40203 0.09673
# Poissons Ratio (y) = 0.54062 0.19932
# Poissons Ratio (z) = 0.11046 0.16926
#
# Static dielectric constant tensor:
#      x y z
#    x 2.113730 0.000000 0.000000 
#    y 0.000000 1.919340 0.000000 
#    z 0.000000 0.000000 1.992060 
# 
# From -- ./inp_files/11891.got.cif
#   From: 2010.05.17/outbox.cif.g08.bks.cpg/sg24_6_cif.got.tgz:11891.got - 2010.06.04 00:33:39.
