data_PCOD9335911
_publ_section_title
;
Structure prediction by ZEFSAII (Michael W. Deem and Ramdas Pophale) SiO2 
 PCOD9335911
Probable space group: I 21 21 21
;
_chemical_formula_sum "Si O2"
_cell_formula_units_Z 56
_cell_length_a 29.991235
_cell_length_b 16.134995
_cell_length_c 5.583692
_cell_angle_alpha 90.000000
_cell_angle_beta 90.000000
_cell_angle_gamma 90.000000
_cell_volume 2701.995611
_symmetry_space_group_name_H-M "I 21 21 21"
_symmetry_group_IT_number 24
_symmetry_cell_setting 'orthorhombic'
loop_
_space_group_symop_operation_xyz
x,y,z
-x,1/2-y,z
x,-y,1/2-z
1/2-x,y,-z
1/2+x,1/2+y,1/2+z
1/2-x,-y,1/2+z
1/2+x,1/2-y,-z
-x,1/2+y,1/2-z
loop_
_atom_site_type_symbol
_atom_site_label
_atom_site_fract_x
_atom_site_fract_y
_atom_site_fract_z
Si Si1 0.034982 0.324248 0.773104
Si Si2 0.901090 0.399669 0.235058
Si Si3 0.750000 0.540995 0.000000
Si Si4 0.004721 0.598164 0.219334
Si Si5 0.817964 0.323769 0.507595
Si Si6 0.723718 0.000000 0.750000
Si Si7 0.373622 0.757100 0.400970
Si Si8 0.795491 0.815435 0.336123
O O1 0.028016 0.377089 0.530574
O O2 0.084549 0.288448 0.788818
O O3 0.000000 0.250000 0.748844
O O4 0.024326 0.364634 0.033413
O O5 0.897177 0.500000 0.250000
O O6 0.864119 0.360023 0.405334
O O7 0.952185 0.377727 0.297086
O O8 0.889534 0.348180 0.992398
O O9 0.734067 0.500000 0.750000
O O10 0.709988 0.598118 0.088740
O O11 0.006255 0.500000 0.250000
O O12 0.832672 0.267346 0.722755
O O13 0.790128 0.266628 0.327433
O O14 0.750000 0.995591 0.500000
O O15 0.701669 0.091192 0.733457
O O16 0.347708 0.701545 0.593350
O O17 0.750000 0.815292 0.500000
#
# Coordination Sequence:
#
# PCOD9335911 Si02
#       8
#     8   8   4   8   8   4   8   8
#     4  12  24  44  72 102 142 183 235 292 357 425
#     4  10  23  42  67 102 138 186 238 291 345 427
#     4  12  30  46  68 104 146 196 234 296 360 416
#     4  11  25  46  71 101 142 188 234 293 361 427
#     4  11  25  42  71  97 145 184 240 288 356 421
#     4  10  24  44  74 102 132 176 236 288 356 420
#     4  11  25  42  70 106 134 190 237 293 360 425
#     4  10  24  45  71 101 136 183 235 295 353 427
#
# _framework density 20.725421999999998
#
# number of rings (size 3 to 8) (size 9 to 14) (size 15 to 20)
#    0.000    1.143    1.429    3.000   16.000    0.000 
#    1.286    1.429    0.000    0.000    0.000    0.000 
#    0.000    0.000    0.000    0.000    0.000    0.000 
#
# Total GULP energy -155913.781459 kJ/mol
# GULP energy per Si atom -5568.349338 kJ/mol
# Density = 2.067825 g / cm^3
# Si number density = 20.725422 Si / 1000 Ang^3
#
#
#
# Elastic Constant Matrix: (Units=GPa)
#
#
# Indices 1 2 3 4 5 6 
#
# 1 88.2729 37.4686 31.0844 0.0000 0.0000 0.0000
# 2 37.4686 98.0548 29.4885 0.0000 0.0000 0.0000
# 3 31.0844 29.4885 74.1553 0.0000 0.0000 0.0000
# 4 0.0000 0.0000 0.0000 35.6132 0.0000 0.0000
# 5 0.0000 0.0000 0.0000 0.0000 9.2513 0.0000
# 6 0.0000 0.0000 0.0000 0.0000 0.0000 40.1452
#
#
#
# Elastic Compliance Matrix: (Units=1/GPa)
#
#
# Indices 1 2 3 4 5 6 
#
# 1 0.014719 -0.004281 -0.004467 0.000000 0.000000 0.000000
# 2 -0.004281 0.012829 -0.003307 0.000000 0.000000 0.000000
# 3 -0.004467 -0.003307 0.016673 0.000000 0.000000 0.000000
# 4 0.000000 0.000000 0.000000 0.028079 0.000000 0.000000
# 5 0.000000 0.000000 0.000000 0.000000 0.108093 0.000000
# 6 0.000000 0.000000 0.000000 0.000000 0.000000 0.024910
#
#
# Mechanical properties :
#
#
# Convention : Reuss Voigt Hill
#
# Bulk Modulus (GPa) = 49.72706 50.72955 50.22830
# Shear Modulus (GPa) = 21.17597 27.83136 24.50367
#
# Velocity S-wave (km/s) = 3.19993 3.66848 3.44219
# Velocity P-wave (km/s) = 6.13988 6.51719 6.33135
#
# Compressibility (1/GPa) = 0.02010977
#
# Stress axis : x y z
#
# Youngs Moduli (GPa) = 67.94067 77.95028 59.97735
#
# Poissons Ratio (x) = 0.33369 0.26795
# Poissons Ratio (y) = 0.29084 0.19835
# Poissons Ratio (z) = 0.30352 0.25778
#
# Static dielectric constant tensor:
#      x y z
#    x 1.679530 0.000000 0.000000 
#    y 0.000000 1.874840 0.000000 
#    z 0.000000 0.000000 1.811530 
# 
# From -- ./inp_files/7758.got.cif
#   From: 2010.05.17/outbox.cif.g08.bks.cpg/sg24_4_cif.got.tgz:7758.got - 2010.06.04 00:33:39.
