data_PCOD9335846
_publ_section_title
;
Structure prediction by ZEFSAII (Michael W. Deem and Ramdas Pophale) SiO2 
 PCOD9335846
Probable space group: I 21 21 21
;
_chemical_formula_sum "Si O2"
_cell_formula_units_Z 32
_cell_length_a 9.569314
_cell_length_b 14.375865
_cell_length_c 8.411731
_cell_angle_alpha 90.000000
_cell_angle_beta 90.000000
_cell_angle_gamma 90.000000
_cell_volume 1157.177997
_symmetry_space_group_name_H-M "I 21 21 21"
_symmetry_group_IT_number 24
_symmetry_cell_setting 'orthorhombic'
loop_
_space_group_symop_operation_xyz
x,y,z
-x,1/2-y,z
x,-y,1/2-z
1/2-x,y,-z
1/2+x,1/2+y,1/2+z
1/2-x,-y,1/2+z
1/2+x,1/2-y,-z
-x,1/2+y,1/2-z
loop_
_atom_site_type_symbol
_atom_site_label
_atom_site_fract_x
_atom_site_fract_y
_atom_site_fract_z
Si Si1 0.294392 0.179328 0.819004
Si Si2 0.881073 0.588422 0.914898
Si Si3 0.392955 0.666115 0.292532
Si Si4 0.538371 0.060569 0.892618
O O1 0.191200 0.097353 0.757104
O O2 0.250225 0.280774 0.753688
O O3 0.451773 0.144283 0.810945
O O4 0.250000 0.191385 0.000000
O O5 0.035040 0.623820 0.864387
O O6 0.750000 0.641460 0.000000
O O7 0.917027 0.506066 0.033737
O O8 0.500000 0.750000 0.335157
O O9 0.389383 0.598843 0.445692
O O10 0.609179 0.000000 0.750000
#
# Coordination Sequence:
#
# PCOD9335846 Si02
#       4
#     8   8   8   8
#     4  11  22  38  63  95 132 170 208 270 334 379
#     4  11  22  34  61  94 128 162 218 265 315 378
#     4  10  23  38  58  98 137 170 199 274 339 378
#     4  12  23  38  69  98 127 167 225 271 314 385
#
# _framework density 27.653479000000001
#
# number of rings (size 3 to 8) (size 9 to 14) (size 15 to 20)
#    0.000    1.000    7.500    1.500    3.500    0.000 
#    0.000   11.250    0.000    3.000    0.000    0.000 
#    0.000    0.000    0.000    0.000    0.000    0.000 
#
# Total GULP energy -89140.335627 kJ/mol
# GULP energy per Si atom -5571.270977 kJ/mol
# Density = 2.759054 g / cm^3
# Si number density = 27.653479 Si / 1000 Ang^3
#
#
#
# Elastic Constant Matrix: (Units=GPa)
#
#
# Indices 1 2 3 4 5 6 
#
# 1 120.2049 49.2284 30.3232 0.0000 0.0000 0.0000
# 2 49.2284 123.1998 54.4734 0.0000 0.0000 0.0000
# 3 30.3232 54.4734 101.0277 0.0002 0.0000 0.0000
# 4 0.0000 0.0000 0.0002 43.3802 0.0000 0.0000
# 5 0.0000 0.0000 0.0000 0.0000 25.2893 0.0000
# 6 0.0000 0.0000 0.0000 0.0000 0.0000 31.5802
#
#
#
# Elastic Compliance Matrix: (Units=1/GPa)
#
#
# Indices 1 2 3 4 5 6 
#
# 1 0.010042 -0.003519 -0.001117 0.000000 0.000000 0.000000
# 2 -0.003519 0.011891 -0.005355 0.000000 0.000000 0.000000
# 3 -0.001117 -0.005355 0.013121 0.000000 0.000000 0.000000
# 4 0.000000 0.000000 0.000000 0.023052 0.000000 0.000000
# 5 0.000000 0.000000 0.000000 0.000000 0.039542 0.000000
# 6 0.000000 0.000000 0.000000 0.000000 0.000000 0.031665
#
#
# Mechanical properties :
#
#
# Convention : Reuss Voigt Hill
#
# Bulk Modulus (GPa) = 66.34788 68.05362 67.20075
# Shear Modulus (GPa) = 32.40034 34.07707 33.23871
#
# Velocity S-wave (km/s) = 3.42666 3.51421 3.47071
# Velocity P-wave (km/s) = 6.30085 6.41319 6.35727
#
# Compressibility (1/GPa) = 0.01507207
#
# Stress axis : x y z
#
# Youngs Moduli (GPa) = 99.58256 84.09861 76.21369
#
# Poissons Ratio (x) = 0.29593 0.08511
# Poissons Ratio (y) = 0.35041 0.40815
# Poissons Ratio (z) = 0.11121 0.45037
#
# Static dielectric constant tensor:
#      x y z
#    x 2.211400 0.000000 0.000000 
#    y 0.000000 2.359040 0.000000 
#    z 0.000000 0.000000 2.451550 
# 
# From -- ./inp_files/10372.got.cif
#   From: 2010.05.17/outbox.cif.g08.bks.cpg/sg24_6_cif.got.tgz:10372.got - 2010.06.04 00:33:39.
