data_PCOD9335225
_publ_section_title
;
Structure prediction by ZEFSAII (Michael W. Deem and Ramdas Pophale) SiO2 
 PCOD9335225
Probable space group: I 21 21 21
;
_chemical_formula_sum "Si O2"
_cell_formula_units_Z 40
_cell_length_a 31.844474
_cell_length_b 10.633767
_cell_length_c 5.404043
_cell_angle_alpha 90.000000
_cell_angle_beta 90.000000
_cell_angle_gamma 90.000000
_cell_volume 1829.953338
_symmetry_space_group_name_H-M "I 21 21 21"
_symmetry_group_IT_number 24
_symmetry_cell_setting 'orthorhombic'
loop_
_space_group_symop_operation_xyz
x,y,z
-x,1/2-y,z
x,-y,1/2-z
1/2-x,y,-z
1/2+x,1/2+y,1/2+z
1/2-x,-y,1/2+z
1/2+x,1/2-y,-z
-x,1/2+y,1/2-z
loop_
_atom_site_type_symbol
_atom_site_label
_atom_site_fract_x
_atom_site_fract_y
_atom_site_fract_z
Si Si1 0.510810 0.611540 0.440281
Si Si2 0.912466 0.500000 0.250000
Si Si3 0.109098 0.348707 0.760726
Si Si4 0.750000 0.579309 0.000000
Si Si5 0.933016 0.139456 0.261392
Si Si6 0.342483 0.124740 0.423425
O O1 0.500000 0.750000 0.325489
O O2 0.497463 0.500000 0.250000
O O3 0.555697 0.564699 0.550293
O O4 0.481129 0.625785 0.682563
O O5 0.879848 0.405197 0.382558
O O6 0.117254 0.500000 0.750000
O O7 0.077018 0.318064 0.535318
O O8 0.147175 0.254661 0.713366
O O9 0.089368 0.306555 0.019732
O O10 0.754104 0.500000 0.750000
O O11 0.795664 0.642528 0.029959
O O12 0.914668 0.000000 0.250000
O O13 0.343261 0.000000 0.250000
#
# Coordination Sequence:
#
# PCOD9335225 Si02
#       6
#     8   4   8   4   8   8
#     4  12  27  43  63  94 139 186 240 296 347 402
#     4  12  26  44  66 102 136 186 238 306 334 426
#     4  10  23  41  71  96 135 183 229 278 340 416
#     4  10  22  44  72 104 140 180 214 284 368 430
#     4  10  21  43  62  92 132 191 230 271 336 406
#     4  11  25  44  71 105 139 175 234 290 358 420
#
# _framework density 21.858481999999999
#
# number of rings (size 3 to 8) (size 9 to 14) (size 15 to 20)
#    0.000    1.200    2.000    3.600    8.400    0.800 
#    0.000    0.000    0.000    8.400    0.000    0.000 
#    0.000    0.000    0.000    0.000    0.000    0.000 
#
# Total GULP energy -111374.440156 kJ/mol
# GULP energy per Si atom -5568.722008 kJ/mol
# Density = 2.180873 g / cm^3
# Si number density = 21.858482 Si / 1000 Ang^3
#
#
#
# Elastic Constant Matrix: (Units=GPa)
#
#
# Indices 1 2 3 4 5 6 
#
# 1 161.6194 48.7824 41.0909 0.0009 0.0006 -0.0036
# 2 48.7824 145.4749 40.2596 0.0023 0.0010 -0.0063
# 3 41.0909 40.2596 106.4125 0.0049 0.0032 -0.0220
# 4 0.0009 0.0023 0.0049 29.3914 0.0018 -0.0096
# 5 0.0006 0.0010 0.0032 0.0018 32.1579 -0.0070
# 6 -0.0036 -0.0063 -0.0220 -0.0096 -0.0070 -52.6161
#
#
#
# Elastic Compliance Matrix: (Units=1/GPa)
#
#
# Indices 1 2 3 4 5 6 
#
# 1 0.007285 -0.001859 -0.002110 0.000000 0.000000 0.000001
# 2 -0.001859 0.008152 -0.002366 0.000000 0.000000 0.000000
# 3 -0.002110 -0.002366 0.011107 -0.000002 -0.000001 -0.000004
# 4 0.000000 0.000000 -0.000002 0.034024 -0.000002 -0.000006
# 5 0.000000 0.000000 -0.000001 -0.000002 0.031097 -0.000004
# 6 0.000001 0.000000 -0.000004 -0.000006 -0.000004 -0.019006
#
#
# Mechanical properties :
#
#
# Convention : Reuss Voigt Hill
#
# Bulk Modulus (GPa) = 72.07612 74.86362 73.46987
# Shear Modulus (GPa) = 55.58381 20.67821 38.13101
#
# Velocity S-wave (km/s) = 5.04818 3.07905 4.18119
# Velocity P-wave (km/s) = 8.18684 6.85305 7.54946
#
# Compressibility (1/GPa) = 0.01387422
#
# Stress axis : x y z
#
# Youngs Moduli (GPa) = 137.27080 122.66435 90.03030
#
# Poissons Ratio (x) = 0.22803 0.18994
# Poissons Ratio (y) = 0.25519 0.21305
# Poissons Ratio (z) = 0.28960 0.29028
#
# Static dielectric constant tensor:
#      x y z
#    x 1.841420 0.000000 -0.000020 
#    y 0.000000 1.927210 0.000070 
#    z -0.000020 0.000070 2.592590 
# 
# From -- ./inp_files/7625.got.cif
#   From: 2010.05.17/outbox.cif.g08.bks.cpg/sg24_4_cif.got.tgz:7625.got - 2010.06.04 00:33:39.
