data_PCOD9335569
_publ_section_title
;
Structure prediction by ZEFSAII (Michael W. Deem and Ramdas Pophale) SiO2 
 PCOD9335569
Probable space group: I 21 21 21
;
_chemical_formula_sum "Si O2"
_cell_formula_units_Z 56
_cell_length_a 14.582112
_cell_length_b 12.474205
_cell_length_c 13.933009
_cell_angle_alpha 90.000000
_cell_angle_beta 90.000000
_cell_angle_gamma 90.000000
_cell_volume 2534.417882
_symmetry_space_group_name_H-M "I 21 21 21"
_symmetry_group_IT_number 24
_symmetry_cell_setting 'orthorhombic'
loop_
_space_group_symop_operation_xyz
x,y,z
-x,1/2-y,z
x,-y,1/2-z
1/2-x,y,-z
1/2+x,1/2+y,1/2+z
1/2-x,-y,1/2+z
1/2+x,1/2-y,-z
-x,1/2+y,1/2-z
loop_
_atom_site_type_symbol
_atom_site_label
_atom_site_fract_x
_atom_site_fract_y
_atom_site_fract_z
Si Si1 0.979865 0.505814 0.512204
Si Si2 0.653819 0.902466 0.007009
Si Si3 0.580811 0.835246 0.602913
Si Si4 0.893470 0.786313 0.189524
Si Si5 0.665246 0.682387 0.443801
Si Si6 0.263670 0.874425 0.239303
Si Si7 0.597221 0.306894 0.410660
O O1 0.920678 0.601150 0.557073
O O2 0.922307 0.396591 0.508360
O O3 0.074830 0.468323 0.561469
O O4 0.025129 0.556955 0.418577
O O5 0.624853 0.861796 0.901491
O O6 0.750000 0.961728 0.000000
O O7 0.663440 0.790122 0.062080
O O8 0.500000 0.750000 0.614113
O O9 0.625727 0.841811 0.706963
O O10 0.637609 0.785686 0.511150
O O11 0.822950 0.686561 0.193569
O O12 0.000000 0.750000 0.183154
O O13 0.750000 0.628551 0.500000
O O14 0.705044 0.687414 0.336674
O O15 0.354119 0.869445 0.173813
O O16 0.240491 0.000000 0.250000
O O17 0.500000 0.250000 0.389387
#
# Coordination Sequence:
#
# PCOD9335569 Si02
#       7
#     8   8   8   8   8   8   8
#     4  10  22  41  67  95 132 177 228 271 340 409
#     4  11  23  43  67  93 134 183 223 283 342 408
#     4   9  21  41  64  94 134 176 217 274 337 407
#     4  11  23  44  63  97 137 170 220 276 350 406
#     4  11  22  40  67  98 136 174 221 283 346 395
#     4  12  24  42  70 103 130 176 234 288 340 410
#     4  10  22  42  67  98 135 173 224 287 344 400
#
# _framework density 22.095803
#
# number of rings (size 3 to 8) (size 9 to 14) (size 15 to 20)
#    0.000    1.429    4.286    1.286    0.000    5.714 
#    0.000    0.000    0.000    0.000    0.000    0.000 
#    0.000    0.000    0.000    0.000    0.000    0.000 
#
# Total GULP energy -155893.863725 kJ/mol
# GULP energy per Si atom -5567.637990 kJ/mol
# Density = 2.204551 g / cm^3
# Si number density = 22.095803 Si / 1000 Ang^3
#
#
#
# Elastic Constant Matrix: (Units=GPa)
#
#
# Indices 1 2 3 4 5 6 
#
# 1 117.6363 27.9543 31.9783 0.0000 0.0000 0.0000
# 2 27.9543 69.5648 17.4354 0.0000 0.0000 0.0000
# 3 31.9783 17.4354 81.3915 0.0000 0.0000 0.0000
# 4 0.0000 0.0000 0.0000 10.7774 0.0000 0.0000
# 5 0.0000 0.0000 0.0000 0.0000 28.9158 0.0000
# 6 0.0000 0.0000 0.0000 0.0000 0.0000 28.7157
#
#
#
# Elastic Compliance Matrix: (Units=1/GPa)
#
#
# Indices 1 2 3 4 5 6 
#
# 1 0.010172 -0.003261 -0.003298 0.000000 0.000000 0.000000
# 2 -0.003261 0.016236 -0.002197 0.000000 0.000000 0.000000
# 3 -0.003298 -0.002197 0.014053 0.000000 0.000000 0.000000
# 4 0.000000 0.000000 0.000000 0.092787 0.000000 0.000000
# 5 0.000000 0.000000 0.000000 0.000000 0.034583 0.000000
# 6 0.000000 0.000000 0.000000 0.000000 0.000000 0.034824
#
#
# Mechanical properties :
#
#
# Convention : Reuss Voigt Hill
#
# Bulk Modulus (GPa) = 43.57444 47.03652 45.30548
# Shear Modulus (GPa) = 21.94747 26.43007 24.18877
#
# Velocity S-wave (km/s) = 3.15506 3.46230 3.31225
# Velocity P-wave (km/s) = 5.74770 6.10878 5.93099
#
# Compressibility (1/GPa) = 0.02294923
#
# Stress axis : x y z
#
# Youngs Moduli (GPa) = 98.30654 61.59105 71.16087
#
# Poissons Ratio (x) = 0.20085 0.23469
# Poissons Ratio (y) = 0.32058 0.15633
# Poissons Ratio (z) = 0.32422 0.13530
#
# Static dielectric constant tensor:
#      x y z
#    x 1.908860 0.000000 0.000000 
#    y 0.000000 1.969940 0.000000 
#    z 0.000000 0.000000 1.858080 
# 
# From -- ./inp_files/20819.got.cif
#   From: 2010.05.17/outbox.cif.g08.bks.cpg/sg24_11_cif.got.tgz:20819.got - 2010.06.04 00:33:39.
