data_PCOD9335784
_publ_section_title
;
Structure prediction by ZEFSAII (Michael W. Deem and Ramdas Pophale) SiO2 
 PCOD9335784
Probable space group: I 21 21 21
;
_chemical_formula_sum "Si O2"
_cell_formula_units_Z 56
_cell_length_a 21.532901
_cell_length_b 10.558032
_cell_length_c 10.766465
_cell_angle_alpha 90.000000
_cell_angle_beta 90.000000
_cell_angle_gamma 90.000000
_cell_volume 2447.702608
_symmetry_space_group_name_H-M "I 21 21 21"
_symmetry_group_IT_number 24
_symmetry_cell_setting 'orthorhombic'
loop_
_space_group_symop_operation_xyz
x,y,z
-x,1/2-y,z
x,-y,1/2-z
1/2-x,y,-z
1/2+x,1/2+y,1/2+z
1/2-x,-y,1/2+z
1/2+x,1/2-y,-z
-x,1/2+y,1/2-z
loop_
_atom_site_type_symbol
_atom_site_label
_atom_site_fract_x
_atom_site_fract_y
_atom_site_fract_z
Si Si1 0.076518 0.620205 0.336850
Si Si2 0.452949 0.132778 0.414847
Si Si3 0.680207 0.978641 0.968956
Si Si4 0.228874 0.763727 0.144005
Si Si5 0.139552 0.689926 0.793456
Si Si6 0.967939 0.880898 0.609690
Si Si7 0.102580 0.871425 0.187981
O O1 0.061866 0.500000 0.250000
O O2 0.142101 0.587659 0.403786
O O3 0.036227 0.625871 0.460868
O O4 0.076875 0.748674 0.259431
O O5 0.500000 0.250000 0.423195
O O6 0.397245 0.182449 0.328895
O O7 0.421965 0.121619 0.548797
O O8 0.491749 0.009237 0.374979
O O9 0.690182 0.866193 0.870386
O O10 0.647522 0.904576 0.085908
O O11 0.750000 0.019760 0.000000
O O12 0.177667 0.861346 0.188385
O O13 0.250000 0.791120 0.000000
O O14 0.289163 0.733054 0.226632
O O15 0.098012 0.372327 0.815580
O O16 0.000000 0.750000 0.650379
O O17 0.082354 0.000000 0.250000
#
# Coordination Sequence:
#
# PCOD9335784 Si02
#       7
#     8   8   8   8   8   8   8
#     4  12  24  44  68  97 140 183 247 301 361 436
#     4  12  25  46  74  98 139 200 241 290 372 452
#     4   9  19  40  73 104 137 182 234 301 373 441
#     4   9  18  44  75 102 136 193 239 288 372 454
#     4  10  22  45  74 105 145 188 242 301 383 450
#     4  12  29  46  66 106 143 186 241 312 363 437
#     4  12  25  45  70 106 142 191 245 302 364 451
#
# _framework density 22.878595000000001
#
# number of rings (size 3 to 8) (size 9 to 14) (size 15 to 20)
#    0.000    1.429    4.286    3.000    0.000    9.714 
#    2.571    2.143    0.000    0.000    0.000    0.000 
#    0.000    0.000    0.000    0.000    0.000    0.000 
#
# Total GULP energy -156447.566342 kJ/mol
# GULP energy per Si atom -5587.413084 kJ/mol
# Density = 2.282652 g / cm^3
# Si number density = 22.878595 Si / 1000 Ang^3
#
#
#
# Elastic Constant Matrix: (Units=GPa)
#
#
# Indices 1 2 3 4 5 6 
#
# 1 125.2714 65.5953 49.0115 0.0000 0.0000 0.0000
# 2 65.5953 163.6253 56.9716 0.0000 0.0000 0.0000
# 3 49.0115 56.9716 135.0006 0.0000 0.0000 0.0000
# 4 0.0000 0.0000 0.0000 50.7970 0.0000 0.0000
# 5 0.0000 0.0000 0.0000 0.0000 31.4394 0.0000
# 6 0.0000 0.0000 0.0000 0.0000 0.0000 -31.3654
#
#
#
# Elastic Compliance Matrix: (Units=1/GPa)
#
#
# Indices 1 2 3 4 5 6 
#
# 1 0.010750 -0.003459 -0.002443 0.000000 0.000000 0.000000
# 2 -0.003459 0.008277 -0.002237 0.000000 0.000000 0.000000
# 3 -0.002443 -0.002237 0.009238 0.000000 0.000000 0.000000
# 4 0.000000 0.000000 0.000000 0.019686 0.000000 0.000000
# 5 0.000000 0.000000 0.000000 0.000000 0.031807 0.000000
# 6 0.000000 0.000000 0.000000 0.000000 0.000000 -0.031882
#
#
# Mechanical properties :
#
#
# Convention : Reuss Voigt Hill
#
# Bulk Modulus (GPa) = 83.42358 85.22822 84.32590
# Shear Modulus (GPa) = 73.36750 26.99545 50.18147
#
# Velocity S-wave (km/s) = 5.66902 3.43876 4.68844
# Velocity P-wave (km/s) = 8.91028 7.28697 8.13920
#
# Compressibility (1/GPa) = 0.01198702
#
# Stress axis : x y z
#
# Youngs Moduli (GPa) = 93.02719 120.81526 108.24324
#
# Poissons Ratio (x) = 0.41787 0.26443
# Poissons Ratio (y) = 0.32176 0.24218
# Poissons Ratio (z) = 0.22726 0.27030
#
# Static dielectric constant tensor:
#      x y z
#    x 1.897130 0.000000 0.000000 
#    y 0.000000 1.835610 0.000000 
#    z 0.000000 0.000000 1.951460 
# 
# From -- ./inp_files/31372.got.cif
#   From: 2010.05.17/outbox.cif.g08.bks.cpg/sg24_16_cif.got.tgz:31372.got - 2010.06.04 00:33:39.
