data_PCOD9335773
_publ_section_title
;
Structure prediction by ZEFSAII (Michael W. Deem and Ramdas Pophale) SiO2 
 PCOD9335773
Probable space group: I 21 21 21
;
_chemical_formula_sum "Si O2"
_cell_formula_units_Z 40
_cell_length_a 7.282838
_cell_length_b 9.003588
_cell_length_c 29.026528
_cell_angle_alpha 90.000000
_cell_angle_beta 90.000000
_cell_angle_gamma 90.000000
_cell_volume 1903.317997
_symmetry_space_group_name_H-M "I 21 21 21"
_symmetry_group_IT_number 24
_symmetry_cell_setting 'orthorhombic'
loop_
_space_group_symop_operation_xyz
x,y,z
-x,1/2-y,z
x,-y,1/2-z
1/2-x,y,-z
1/2+x,1/2+y,1/2+z
1/2-x,-y,1/2+z
1/2+x,1/2-y,-z
-x,1/2+y,1/2-z
loop_
_atom_site_type_symbol
_atom_site_label
_atom_site_fract_x
_atom_site_fract_y
_atom_site_fract_z
Si Si1 0.457446 0.923566 0.200353
Si Si2 0.260363 0.613203 0.361039
Si Si3 0.167185 0.044971 0.137785
Si Si4 0.108784 0.103268 0.458712
Si Si5 0.839510 0.146474 0.043043
O O1 0.500000 0.750000 0.204410
O O2 0.452274 0.000000 0.250000
O O3 0.604288 0.015433 0.169315
O O4 0.264446 0.940184 0.174331
O O5 0.256584 0.791499 0.353983
O O6 0.294145 0.600033 0.416115
O O7 0.051025 0.557613 0.354442
O O8 0.194758 0.977161 0.086378
O O9 0.250000 0.131554 0.500000
O O10 0.000000 0.250000 0.443586
O O11 0.948650 0.993451 0.476335
O O12 0.000000 0.250000 0.063825
O O13 0.750000 0.228011 0.000000
#
# Coordination Sequence:
#
# PCOD9335773 Si02
#       5
#     8   8   8   8   8
#     4  12  28  46  74 104 132 175 225 283 352 415
#     4  10  22  45  68 101 137 178 228 284 336 406
#     4  10  23  44  70  97 139 180 227 282 341 404
#     4  11  24  40  60  97 141 185 229 276 338 399
#     4  11  22  38  63  98 134 182 232 270 331 395
#
# _framework density 21.015929
#
# number of rings (size 3 to 8) (size 9 to 14) (size 15 to 20)
#    0.000    1.200    4.000    3.000    8.400    1.600 
#    0.000    0.000    0.000    0.000    0.000    0.000 
#    0.000    0.000    0.000    0.000    0.000    0.000 
#
# Total GULP energy -111683.064544 kJ/mol
# GULP energy per Si atom -5584.153227 kJ/mol
# Density = 2.096810 g / cm^3
# Si number density = 21.015929 Si / 1000 Ang^3
#
#
#
# Elastic Constant Matrix: (Units=GPa)
#
#
# Indices 1 2 3 4 5 6 
#
# 1 54.6822 29.8164 51.1845 0.0000 0.0000 0.0000
# 2 29.8164 119.6633 43.9976 0.0000 0.0000 0.0000
# 3 51.1845 43.9976 153.2972 0.0000 0.0000 0.0000
# 4 0.0000 0.0000 0.0000 -253.1897 0.0000 0.0000
# 5 0.0000 0.0000 0.0000 0.0000 28.4288 0.0000
# 6 0.0000 0.0000 0.0000 0.0000 0.0000 38.2905
#
#
#
# Elastic Compliance Matrix: (Units=1/GPa)
#
#
# Indices 1 2 3 4 5 6 
#
# 1 0.028205 -0.003986 -0.008273 0.000000 0.000000 0.000000
# 2 -0.003986 0.009906 -0.001512 0.000000 0.000000 0.000000
# 3 -0.008273 -0.001512 0.009720 0.000000 0.000000 0.000000
# 4 0.000000 0.000000 0.000000 -0.003950 0.000000 0.000000
# 5 0.000000 0.000000 0.000000 0.000000 0.035176 0.000000
# 6 0.000000 0.000000 0.000000 0.000000 0.000000 0.026116
#
#
# Mechanical properties :
#
#
# Convention : Reuss Voigt Hill
#
# Bulk Modulus (GPa) = 49.29102 64.18218 56.73660
# Shear Modulus (GPa) = 35.84778 -23.78447 6.03165
#
# Velocity S-wave (km/s) = 4.13455 -3.36778 1.69596
# Velocity P-wave (km/s) = 6.80424 3.93491 5.55793
#
# Compressibility (1/GPa) = 0.02028767
#
# Stress axis : x y z
#
# Youngs Moduli (GPa) = 35.45457 100.94939 102.88350
#
# Poissons Ratio (x) = 0.40237 0.85120
# Poissons Ratio (y) = 0.14132 0.15559
# Poissons Ratio (z) = 0.29333 0.15266
#
# Static dielectric constant tensor:
#      x y z
#    x 2.454530 0.000000 0.000000 
#    y 0.000000 1.812640 0.000000 
#    z 0.000000 0.000000 1.735500 
# 
# From -- ./inp_files/35004.got.cif
#   From: 2010.05.17/outbox.cif.g08.bks.cpg/sg24_18_cif.got.tgz:35004.got - 2010.06.04 00:33:39.
