data_PCOD9335290
_publ_section_title
;
Structure prediction by ZEFSAII (Michael W. Deem and Ramdas Pophale) SiO2 
 PCOD9335290
Probable space group: I 21 21 21
;
_chemical_formula_sum "Si O2"
_cell_formula_units_Z 48
_cell_length_a 17.746760
_cell_length_b 14.520150
_cell_length_c 7.660392
_cell_angle_alpha 90.000000
_cell_angle_beta 90.000000
_cell_angle_gamma 90.000000
_cell_volume 1973.972841
_symmetry_space_group_name_H-M "I 21 21 21"
_symmetry_group_IT_number 24
_symmetry_cell_setting 'orthorhombic'
loop_
_space_group_symop_operation_xyz
x,y,z
-x,1/2-y,z
x,-y,1/2-z
1/2-x,y,-z
1/2+x,1/2+y,1/2+z
1/2-x,-y,1/2+z
1/2+x,1/2-y,-z
-x,1/2+y,1/2-z
loop_
_atom_site_type_symbol
_atom_site_label
_atom_site_fract_x
_atom_site_fract_y
_atom_site_fract_z
Si Si1 0.387843 0.245536 0.270179
Si Si2 0.914539 0.052807 0.571692
Si Si3 0.767835 0.195625 0.202207
Si Si4 0.610570 0.500000 0.750000
Si Si5 0.421760 0.209749 0.862537
Si Si6 0.422127 0.942272 0.073937
Si Si7 0.250000 0.453851 0.500000
O O1 0.402572 0.341596 0.368649
O O2 0.297610 0.234372 0.258531
O O3 0.423156 0.163258 0.375798
O O4 0.415864 0.235707 0.069889
O O5 0.836501 0.009440 0.500359
O O6 0.995750 0.040261 0.480759
O O7 0.927662 0.000000 0.750000
O O8 0.849994 0.238305 0.219844
O O9 0.754969 0.107861 0.324434
O O10 0.750000 0.172877 0.000000
O O11 0.581707 0.398879 0.824224
O O12 0.642076 0.464468 0.565668
O O13 0.500000 0.250000 0.795796
O O14 0.413050 0.000000 0.250000
#
# Coordination Sequence:
#
# PCOD9335290 Si02
#       7
#     8   8   8   4   8   8   4
#     4  10  21  46  74  93 137 188 218 281 353 396
#     4  10  23  42  69 101 133 178 239 272 341 416
#     4   9  22  43  67  99 133 177 231 274 341 408
#     4  12  28  40  66 114 130 172 242 272 338 418
#     4  11  24  43  68 105 138 179 225 285 335 396
#     4  11  23  44  66 100 133 175 229 287 338 408
#     4  10  22  44  64  98 134 188 222 280 340 404
#
# _framework density 24.316444000000001
#
# number of rings (size 3 to 8) (size 9 to 14) (size 15 to 20)
#    0.000    1.667    1.667    1.500    9.333    0.000 
#   15.000    0.000    0.000    0.000    0.000    0.000 
#    0.000    0.000    0.000    0.000    0.000    0.000 
#
# Total GULP energy -133818.857250 kJ/mol
# GULP energy per Si atom -5575.785719 kJ/mol
# Density = 2.426110 g / cm^3
# Si number density = 24.316444 Si / 1000 Ang^3
#
#
#
# Elastic Constant Matrix: (Units=GPa)
#
#
# Indices 1 2 3 4 5 6 
#
# 1 129.5635 -0.3611 11.7536 0.0000 0.0000 0.0000
# 2 -0.3611 88.3688 -7.1186 0.0000 0.0000 0.0000
# 3 11.7536 -7.1186 71.7835 0.0000 0.0000 0.0000
# 4 0.0000 0.0000 0.0000 12.9243 0.0000 0.0000
# 5 0.0000 0.0000 0.0000 0.0000 345.1326 0.0000
# 6 0.0000 0.0000 0.0000 0.0000 0.0000 22.0772
#
#
#
# Elastic Compliance Matrix: (Units=1/GPa)
#
#
# Indices 1 2 3 4 5 6 
#
# 1 0.007835 -0.000072 -0.001290 0.000000 0.000000 0.000000
# 2 -0.000072 0.011408 0.001143 0.000000 0.000000 0.000000
# 3 -0.001290 0.001143 0.014255 0.000000 0.000000 0.000000
# 4 0.000000 0.000000 0.000000 0.077374 0.000000 0.000000
# 5 0.000000 0.000000 0.000000 0.000000 0.002897 0.000000
# 6 0.000000 0.000000 0.000000 0.000000 0.000000 0.045296
#
#
# Mechanical properties :
#
#
# Convention : Reuss Voigt Hill
#
# Bulk Modulus (GPa) = 30.24734 33.14037 31.69386
# Shear Modulus (GPa) = 29.32152 95.05627 62.18889
#
# Velocity S-wave (km/s) = 3.47627 6.25909 5.06264
# Velocity P-wave (km/s) = 5.34590 8.11747 6.87285
#
# Compressibility (1/GPa) = 0.03306075
#
# Stress axis : x y z
#
# Youngs Moduli (GPa) = 127.63165 87.65780 70.14902
#
# Poissons Ratio (x) = 0.00630 0.09049
# Poissons Ratio (y) = 0.00918 -0.08019
# Poissons Ratio (z) = 0.16465 -0.10020
#
# Static dielectric constant tensor:
#      x y z
#    x 2.166550 0.000000 0.000000 
#    y 0.000000 1.671520 0.000000 
#    z 0.000000 0.000000 1.933100 
# 
# From -- ./inp_files/14233.got.cif
#   From: 2010.05.17/outbox.cif.g08.bks.cpg/sg24_8_cif.got.tgz:14233.got - 2010.06.04 00:33:39.
