data_PCOD9335115
_publ_section_title
;
Structure prediction by ZEFSAII (Michael W. Deem and Ramdas Pophale) SiO2 
 PCOD9335115
Probable space group: I 21 21 21
;
_chemical_formula_sum "Si O2"
_cell_formula_units_Z 44
_cell_length_a 15.524509
_cell_length_b 8.728703
_cell_length_c 15.912555
_cell_angle_alpha 90.000000
_cell_angle_beta 90.000000
_cell_angle_gamma 90.000000
_cell_volume 2156.291683
_symmetry_space_group_name_H-M "I 21 21 21"
_symmetry_group_IT_number 24
_symmetry_cell_setting 'orthorhombic'
loop_
_space_group_symop_operation_xyz
x,y,z
-x,1/2-y,z
x,-y,1/2-z
1/2-x,y,-z
1/2+x,1/2+y,1/2+z
1/2-x,-y,1/2+z
1/2+x,1/2-y,-z
-x,1/2+y,1/2-z
loop_
_atom_site_type_symbol
_atom_site_label
_atom_site_fract_x
_atom_site_fract_y
_atom_site_fract_z
Si Si1 0.093325 0.689436 0.105538
Si Si2 0.750000 0.335432 0.000000
Si Si3 0.117223 0.909201 0.948093
Si Si4 0.044860 0.408198 0.996940
Si Si5 0.698139 0.132163 0.131048
Si Si6 0.274459 0.715722 0.181112
O O1 0.171210 0.731872 0.168528
O O2 0.000000 0.750000 0.134960
O O3 0.117066 0.781359 0.020490
O O4 0.080781 0.514419 0.073069
O O5 0.673561 0.448503 0.022106
O O6 0.768580 0.225535 0.078353
O O7 0.165834 0.835877 0.868524
O O8 0.021295 0.978435 0.946515
O O9 0.114918 0.358564 0.928083
O O10 0.000000 0.250000 0.025925
O O11 0.695499 0.205926 0.222810
O O12 0.713143 0.952771 0.141736
#
# Coordination Sequence:
#
# PCOD9335115 Si02
#       6
#     8   4   8   8   8   8
#     4  10  21  40  72  94 130 178 226 273 327 402
#     4  12  22  40  66  98 124 182 222 272 328 398
#     4  11  22  39  67  97 134 176 224 269 333 403
#     4  11  22  41  62 106 132 173 225 277 333 392
#     4  11  25  41  67  95 135 175 223 277 333 398
#     4  11  23  44  65  98 132 185 221 273 340 400
#
# _framework density 20.405401999999999
#
# number of rings (size 3 to 8) (size 9 to 14) (size 15 to 20)
#    0.000    1.091    5.455    1.091    0.000    0.727 
#    6.545    0.000   20.000    0.000    0.000    0.000 
#    0.000    0.000    0.000    0.000    0.000    0.000 
#
# Total GULP energy -122719.162640 kJ/mol
# GULP energy per Si atom -5578.143756 kJ/mol
# Density = 2.035896 g / cm^3
# Si number density = 20.405402 Si / 1000 Ang^3
#
#
#
# Elastic Constant Matrix: (Units=GPa)
#
#
# Indices 1 2 3 4 5 6 
#
# 1 57.4346 -5.9114 11.6742 0.0000 0.0000 0.0000
# 2 -5.9114 94.1184 34.1779 0.0000 0.0000 0.0000
# 3 11.6742 34.1779 31.8643 0.0000 0.0000 0.0000
# 4 0.0000 0.0000 0.0000 19.3319 0.0000 0.0000
# 5 0.0000 0.0000 0.0000 0.0000 17.6509 0.0000
# 6 0.0000 0.0000 0.0000 0.0000 0.0000 41.0943
#
#
#
# Elastic Compliance Matrix: (Units=1/GPa)
#
#
# Indices 1 2 3 4 5 6 
#
# 1 0.021167 0.006790 -0.015038 0.000000 0.000000 0.000000
# 2 0.006790 0.019582 -0.023492 0.000000 0.000000 0.000000
# 3 -0.015038 -0.023492 0.062090 0.000000 0.000000 0.000000
# 4 0.000000 0.000000 0.000000 0.051728 0.000000 0.000000
# 5 0.000000 0.000000 0.000000 0.000000 0.056654 0.000000
# 6 0.000000 0.000000 0.000000 0.000000 0.000000 0.024334
#
#
# Mechanical properties :
#
#
# Convention : Reuss Voigt Hill
#
# Bulk Modulus (GPa) = 25.40675 29.25541 27.33108
# Shear Modulus (GPa) = 16.01769 25.18051 20.59910
#
# Velocity S-wave (km/s) = 2.80478 3.51666 3.18070
# Velocity P-wave (km/s) = 4.79239 5.55495 5.18770
#
# Compressibility (1/GPa) = 0.03935962
#
# Stress axis : x y z
#
# Youngs Moduli (GPa) = 47.24403 51.06696 16.10562
#
# Poissons Ratio (x) = -0.34677 0.24220
# Poissons Ratio (y) = -0.32081 0.37835
# Poissons Ratio (z) = 0.71047 1.19965
#
# Static dielectric constant tensor:
#      x y z
#    x 1.827030 0.000000 0.000000 
#    y 0.000000 1.757660 0.000000 
#    z 0.000000 0.000000 1.691000 
# 
# From -- ./inp_files/14060.got.cif
#   From: 2010.05.17/outbox.cif.g08.bks.cpg/sg24_8_cif.got.tgz:14060.got - 2010.06.04 00:33:39.
