data_PCOD9335285
_publ_section_title
;
Structure prediction by ZEFSAII (Michael W. Deem and Ramdas Pophale) SiO2 
 PCOD9335285
Probable space group: I 21 21 21
;
_chemical_formula_sum "Si O2"
_cell_formula_units_Z 40
_cell_length_a 16.897323
_cell_length_b 5.331109
_cell_length_c 20.914890
_cell_angle_alpha 90.000000
_cell_angle_beta 90.000000
_cell_angle_gamma 90.000000
_cell_volume 1884.044051
_symmetry_space_group_name_H-M "I 21 21 21"
_symmetry_group_IT_number 24
_symmetry_cell_setting 'orthorhombic'
loop_
_space_group_symop_operation_xyz
x,y,z
-x,1/2-y,z
x,-y,1/2-z
1/2-x,y,-z
1/2+x,1/2+y,1/2+z
1/2-x,-y,1/2+z
1/2+x,1/2-y,-z
-x,1/2+y,1/2-z
loop_
_atom_site_type_symbol
_atom_site_label
_atom_site_fract_x
_atom_site_fract_y
_atom_site_fract_z
Si Si1 0.750000 0.734416 0.500000
Si Si2 0.763292 0.000000 0.750000
Si Si3 0.611500 0.613723 0.976128
Si Si4 0.000000 0.750000 0.922542
Si Si5 0.000000 0.250000 0.093366
Si Si6 0.166427 0.488900 0.119789
Si Si7 0.500000 0.250000 0.161272
Si Si8 0.866411 0.500000 0.750000
O O1 0.674553 0.560953 0.489290
O O2 0.722828 0.877023 0.563826
O O3 0.709924 0.963744 0.686793
O O4 0.810859 0.259270 0.732727
O O5 0.577140 0.778387 0.032537
O O6 0.536502 0.462040 0.951092
O O7 0.647588 0.743016 0.913173
O O8 0.007835 0.499211 0.881123
O O9 0.079294 0.358637 0.126421
O O10 0.573870 0.343797 0.203884
#
# Coordination Sequence:
#
# PCOD9335285 Si02
#       8
#     4   4   8   4   4   8   4   4
#     4  10  26  40  72 106 156 188 248 314 384 434
#     4  12  31  50  79 108 158 206 268 312 397 456
#     4  11  23  44  70 113 151 187 250 317 388 459
#     4  12  25  42  79 115 141 194 250 314 390 460
#     4  10  21  46  71  99 154 189 256 312 384 469
#     4  11  25  48  71 110 148 207 247 325 379 468
#     4  12  28  48  78 106 149 203 254 308 400 451
#     4  12  29  56  69 110 152 202 264 322 363 494
#
# _framework density 21.230927999999999
#
# number of rings (size 3 to 8) (size 9 to 14) (size 15 to 20)
#    0.000    0.800    2.000    3.600   11.200    3.200 
#    3.600    0.000    0.000    0.000    0.000    0.000 
#    0.000    0.000    0.000    0.000    0.000    0.000 
#
# Total GULP energy -111360.075944 kJ/mol
# GULP energy per Si atom -5568.003797 kJ/mol
# Density = 2.118261 g / cm^3
# Si number density = 21.230928 Si / 1000 Ang^3
#
#
#
# Elastic Constant Matrix: (Units=GPa)
#
#
# Indices 1 2 3 4 5 6 
#
# 1 133.8254 55.6306 84.1683 0.0000 0.0000 0.0000
# 2 55.6306 110.6619 19.3416 0.0000 0.0000 0.0000
# 3 84.1683 19.3416 81.1274 0.0000 0.0000 0.0000
# 4 0.0000 0.0000 0.0000 28.1611 0.0000 0.0000
# 5 0.0000 0.0000 0.0000 0.0000 -89.6138 0.0000
# 6 0.0000 0.0000 0.0000 0.0000 0.0000 54.6248
#
#
#
# Elastic Compliance Matrix: (Units=1/GPa)
#
#
# Indices 1 2 3 4 5 6 
#
# 1 0.028922 -0.009699 -0.027694 0.000000 0.000000 0.000000
# 2 -0.009699 0.012682 0.007039 0.000000 0.000000 0.000000
# 3 -0.027694 0.007039 0.039380 0.000000 0.000000 0.000000
# 4 0.000000 0.000000 0.000000 0.035510 0.000000 0.000000
# 5 0.000000 0.000000 0.000000 0.000000 -0.011159 0.000000
# 6 0.000000 0.000000 0.000000 0.000000 0.000000 0.018307
#
#
# Mechanical properties :
#
#
# Convention : Reuss Voigt Hill
#
# Bulk Modulus (GPa) = 49.31835 71.54396 60.43116
# Shear Modulus (GPa) = 26.16336 9.73271 17.94803
#
# Velocity S-wave (km/s) = 3.51425 2.14340 2.91068
# Velocity P-wave (km/s) = 6.30449 6.31638 6.31044
#
# Compressibility (1/GPa) = 0.02027643
#
# Stress axis : x y z
#
# Youngs Moduli (GPa) = 34.57598 78.85209 25.39380
#
# Poissons Ratio (x) = 0.76478 0.70324
# Poissons Ratio (y) = 0.33535 -0.17874
# Poissons Ratio (z) = 0.95753 -0.55503
#
# Static dielectric constant tensor:
#      x y z
#    x 1.759160 0.000000 0.000000 
#    y 0.000000 1.841250 0.000000 
#    z 0.000000 0.000000 1.744060 
# 
# From -- ./inp_files/28669.got.cif
#   From: 2010.05.17/outbox.cif.g08.bks.cpg/sg24_15_cif.got.tgz:28669.got - 2010.06.04 00:33:39.
