data_PCOD9335512
_publ_section_title
;
Structure prediction by ZEFSAII (Michael W. Deem and Ramdas Pophale) SiO2 
 PCOD9335512
Probable space group: I 21 21 21
;
_chemical_formula_sum "Si O2"
_cell_formula_units_Z 64
_cell_length_a 12.156035
_cell_length_b 18.229017
_cell_length_c 14.585228
_cell_angle_alpha 90.000000
_cell_angle_beta 90.000000
_cell_angle_gamma 90.000000
_cell_volume 3231.978137
_symmetry_space_group_name_H-M "I 21 21 21"
_symmetry_group_IT_number 24
_symmetry_cell_setting 'orthorhombic'
loop_
_space_group_symop_operation_xyz
x,y,z
-x,1/2-y,z
x,-y,1/2-z
1/2-x,y,-z
1/2+x,1/2+y,1/2+z
1/2-x,-y,1/2+z
1/2+x,1/2-y,-z
-x,1/2+y,1/2-z
loop_
_atom_site_type_symbol
_atom_site_label
_atom_site_fract_x
_atom_site_fract_y
_atom_site_fract_z
Si Si1 0.352886 0.058610 0.673738
Si Si2 0.872855 0.497437 0.988108
Si Si3 0.036089 0.616364 0.926990
Si Si4 0.590553 0.653231 0.398804
Si Si5 0.457936 0.666106 0.863205
Si Si6 0.281809 0.663488 0.213353
Si Si7 0.849397 0.331629 0.690612
Si Si8 0.162071 0.681234 0.578150
O O1 0.403385 0.006706 0.593667
O O2 0.449035 0.117634 0.685859
O O3 0.244759 0.110117 0.665324
O O4 0.324471 0.000000 0.750000
O O5 0.750000 0.531563 0.000000
O O6 0.858097 0.418078 0.944968
O O7 0.967069 0.540209 0.932369
O O8 0.138385 0.619985 0.857208
O O9 0.943640 0.669301 0.885019
O O10 0.059262 0.641176 0.030789
O O11 0.596373 0.647213 0.288400
O O12 0.464873 0.657202 0.434256
O O13 0.652153 0.729664 0.419673
O O14 0.500000 0.750000 0.862653
O O15 0.344200 0.652727 0.811948
O O16 0.303848 0.750011 0.198195
O O17 0.304672 0.651672 0.321160
O O18 0.250000 0.660191 0.500000
#
# Coordination Sequence:
#
# PCOD9335512 Si02
#       8
#     8   8   8   8   8   8   8   8
#     4  11  24  40  62  94 134 170 212 268 332 383
#     4  11  22  39  61  95 131 164 213 267 335 386
#     4  11  23  37  64  97 131 169 213 269 328 391
#     4  10  22  40  66  93 124 166 224 273 327 387
#     4  11  23  41  62  95 131 176 215 262 327 399
#     4  11  22  42  64  95 131 167 220 265 324 389
#     4  11  20  39  67  91 127 167 213 272 318 383
#     4  10  22  42  64  93 123 169 224 278 324 382
#
# _framework density 19.802114
#
# number of rings (size 3 to 8) (size 9 to 14) (size 15 to 20)
#    0.000    1.250    3.750    2.625    0.000    2.000 
#    2.250    3.750    0.000    0.000    0.000    0.000 
#    0.000    0.000    0.000    0.000    0.000    0.000 
#
# Total GULP energy -178357.363508 kJ/mol
# GULP energy per Si atom -5573.667610 kJ/mol
# Density = 1.975704 g / cm^3
# Si number density = 19.802114 Si / 1000 Ang^3
#
#
#
# Elastic Constant Matrix: (Units=GPa)
#
#
# Indices 1 2 3 4 5 6 
#
# 1 114.1778 -0.0960 34.9280 0.0000 0.0000 0.0000
# 2 -0.0960 46.3416 14.0398 0.0000 0.0000 0.0000
# 3 34.9280 14.0398 36.7938 -0.0001 0.0000 0.0000
# 4 0.0000 0.0000 -0.0001 -14.0296 0.0000 0.0000
# 5 0.0000 0.0000 0.0000 0.0000 30.8574 0.0000
# 6 0.0000 0.0000 0.0000 0.0000 0.0000 8.4585
#
#
#
# Elastic Compliance Matrix: (Units=1/GPa)
#
#
# Indices 1 2 3 4 5 6 
#
# 1 0.013051 0.004275 -0.014020 0.000000 0.000000 0.000000
# 2 0.004275 0.025800 -0.013903 0.000000 0.000000 0.000000
# 3 -0.014020 -0.013903 0.045793 0.000000 0.000000 0.000000
# 4 0.000000 0.000000 0.000000 -0.071278 0.000000 0.000000
# 5 0.000000 0.000000 0.000000 0.000000 0.032407 0.000000
# 6 0.000000 0.000000 0.000000 0.000000 0.000000 0.118225
#
#
# Mechanical properties :
#
#
# Convention : Reuss Voigt Hill
#
# Bulk Modulus (GPa) = 26.77586 32.78409 29.77998
# Shear Modulus (GPa) = 22.34717 14.95334 18.65025
#
# Velocity S-wave (km/s) = 3.36300 2.75096 3.07226
# Velocity P-wave (km/s) = 5.35077 5.16548 5.25894
#
# Compressibility (1/GPa) = 0.03734707
#
# Stress axis : x y z
#
# Youngs Moduli (GPa) = 76.62406 38.76013 21.83759
#
# Poissons Ratio (x) = -0.16568 0.30616
# Poissons Ratio (y) = -0.32754 0.30360
# Poissons Ratio (z) = 1.07427 0.53886
#
# Static dielectric constant tensor:
#      x y z
#    x 1.720060 0.000000 0.000000 
#    y 0.000000 1.713020 0.000000 
#    z 0.000000 0.000000 1.838340 
# 
# From -- ./inp_files/21043.got.cif
#   From: 2010.05.17/outbox.cif.g08.bks.cpg/sg24_11_cif.got.tgz:21043.got - 2010.06.04 00:33:39.
