data_PCOD9335574
_publ_section_title
;
Structure prediction by ZEFSAII (Michael W. Deem and Ramdas Pophale) SiO2 
 PCOD9335574
Probable space group: I 21 21 21
;
_chemical_formula_sum "Si O2"
_cell_formula_units_Z 48
_cell_length_a 10.165970
_cell_length_b 23.533826
_cell_length_c 9.157189
_cell_angle_alpha 90.000000
_cell_angle_beta 90.000000
_cell_angle_gamma 90.000000
_cell_volume 2190.804074
_symmetry_space_group_name_H-M "I 21 21 21"
_symmetry_group_IT_number 24
_symmetry_cell_setting 'orthorhombic'
loop_
_space_group_symop_operation_xyz
x,y,z
-x,1/2-y,z
x,-y,1/2-z
1/2-x,y,-z
1/2+x,1/2+y,1/2+z
1/2-x,-y,1/2+z
1/2+x,1/2-y,-z
-x,1/2+y,1/2-z
loop_
_atom_site_type_symbol
_atom_site_label
_atom_site_fract_x
_atom_site_fract_y
_atom_site_fract_z
Si Si1 0.914204 0.359509 0.828166
Si Si2 0.897877 0.909562 0.450476
Si Si3 0.012085 0.500000 0.250000
Si Si4 0.479380 0.316042 0.468970
Si Si5 0.109457 0.299736 0.239081
Si Si6 0.250000 0.769678 0.500000
Si Si7 0.827649 0.599764 0.135933
O O1 0.868829 0.309024 0.938477
O O2 0.777172 0.380394 0.756832
O O3 0.994165 0.404782 0.922763
O O4 0.008995 0.343523 0.691273
O O5 0.750000 0.898681 0.500000
O O6 0.930645 0.857648 0.340821
O O7 0.903441 0.970641 0.375240
O O8 0.923152 0.551507 0.193703
O O9 0.500000 0.250000 0.438646
O O10 0.365123 0.316424 0.592656
O O11 0.596022 0.346696 0.563207
O O12 0.217930 0.270187 0.138084
O O13 0.000000 0.250000 0.243508
O O14 0.750000 0.573376 0.000000
#
# Coordination Sequence:
#
# PCOD9335574 Si02
#       7
#     8   8   4   8   8   4   8
#     4  11  24  44  74 112 142 180 250 295 375 445
#     4  12  27  48  71 100 143 202 246 292 355 450
#     4  12  26  50  72  98 146 178 254 310 362 406
#     4  10  22  41  68 107 155 182 220 301 384 447
#     4  11  21  41  68 104 151 188 231 293 375 435
#     4  12  22  36  80 108 146 186 238 306 366 452
#     4  10  23  44  72 109 138 180 236 314 370 421
#
# _framework density 21.909765
#
# number of rings (size 3 to 8) (size 9 to 14) (size 15 to 20)
#    0.000    1.000    4.167    3.000    4.667    0.000 
#    6.000    4.167    0.000    0.000    0.000    0.000 
#    0.000    0.000    0.000    0.000    0.000    0.000 
#
# Total GULP energy -133925.264154 kJ/mol
# GULP energy per Si atom -5580.219340 kJ/mol
# Density = 2.185990 g / cm^3
# Si number density = 21.909765 Si / 1000 Ang^3
#
#
#
# Elastic Constant Matrix: (Units=GPa)
#
#
# Indices 1 2 3 4 5 6 
#
# 1 54.0881 31.3457 44.9913 0.0000 0.0000 0.0000
# 2 31.3457 108.4498 42.0336 0.0002 0.0000 0.0002
# 3 44.9913 42.0336 137.1598 0.0028 0.0002 -0.0020
# 4 0.0000 0.0002 0.0028 -4.0365 0.0000 -0.0010
# 5 0.0000 0.0000 0.0002 0.0000 41.9239 -0.0002
# 6 0.0000 0.0002 -0.0020 -0.0010 -0.0002 -187.4457
#
#
#
# Elastic Compliance Matrix: (Units=1/GPa)
#
#
# Indices 1 2 3 4 5 6 
#
# 1 0.027698 -0.005089 -0.007526 -0.000005 0.000000 0.000000
# 2 -0.005089 0.011399 -0.001824 -0.000001 0.000000 0.000000
# 3 -0.007526 -0.001824 0.010318 0.000007 0.000000 0.000000
# 4 -0.000005 -0.000001 0.000007 -0.247741 0.000000 0.000001
# 5 0.000000 0.000000 0.000000 0.000000 0.023853 0.000000
# 6 0.000000 0.000000 0.000000 0.000001 0.000000 -0.005335
#
#
# Mechanical properties :
#
#
# Convention : Reuss Voigt Hill
#
# Bulk Modulus (GPa) = 48.69149 59.60430 54.14789
# Shear Modulus (GPa) = -34.70162 -17.82318 -26.26240
#
# Velocity S-wave (km/s) = -3.98407 -2.85525 -3.46593
# Velocity P-wave (km/s) = 1.05269 4.04889 2.95818
#
# Compressibility (1/GPa) = 0.02053747
#
# Stress axis : x y z
#
# Youngs Moduli (GPa) = 36.10426 87.73012 96.91414
#
# Poissons Ratio (x) = 0.44642 0.72937
# Poissons Ratio (y) = 0.18372 0.17677
# Poissons Ratio (z) = 0.27172 0.16002
#
# Static dielectric constant tensor:
#      x y z
#    x 1.908400 0.000000 0.000000 
#    y 0.000000 1.753130 0.000000 
#    z 0.000000 0.000000 2.351620 
# 
# From -- ./inp_files/11324.got.cif
#   From: 2010.05.17/outbox.cif.g08.bks.cpg/sg24_6_cif.got.tgz:11324.got - 2010.06.04 00:33:39.
