data_PCOD9335691
_publ_section_title
;
Structure prediction by ZEFSAII (Michael W. Deem and Ramdas Pophale) SiO2 
 PCOD9335691
Probable space group: I 21 21 21
;
_chemical_formula_sum "Si O2"
_cell_formula_units_Z 56
_cell_length_a 14.354640
_cell_length_b 14.330516
_cell_length_c 12.064276
_cell_angle_alpha 90.000000
_cell_angle_beta 90.000000
_cell_angle_gamma 90.000000
_cell_volume 2481.734956
_symmetry_space_group_name_H-M "I 21 21 21"
_symmetry_group_IT_number 24
_symmetry_cell_setting 'orthorhombic'
loop_
_space_group_symop_operation_xyz
x,y,z
-x,1/2-y,z
x,-y,1/2-z
1/2-x,y,-z
1/2+x,1/2+y,1/2+z
1/2-x,-y,1/2+z
1/2+x,1/2-y,-z
-x,1/2+y,1/2-z
loop_
_atom_site_type_symbol
_atom_site_label
_atom_site_fract_x
_atom_site_fract_y
_atom_site_fract_z
Si Si1 0.546514 0.421174 0.548805
Si Si2 0.654185 0.579666 0.176524
Si Si3 0.677794 0.704905 0.803936
Si Si4 0.027756 0.144819 0.870449
Si Si5 0.845863 0.271923 0.057347
Si Si6 0.839769 0.110306 0.426651
Si Si7 0.576234 0.926165 0.560412
O O1 0.609317 0.443905 0.441839
O O2 0.600568 0.351430 0.627873
O O3 0.443670 0.378646 0.519578
O O4 0.513367 0.517905 0.606060
O O5 0.706121 0.500000 0.250000
O O6 0.722347 0.666269 0.157308
O O7 0.571877 0.603269 0.261611
O O8 0.673849 0.682661 0.674417
O O9 0.665690 0.815018 0.827976
O O10 0.000000 0.250000 0.842323
O O11 0.103145 0.163256 0.968228
O O12 0.946309 0.084219 0.927909
O O13 0.906899 0.180642 0.087292
O O14 0.750000 0.239695 0.000000
O O15 0.750000 0.130977 0.500000
O O16 0.842382 0.998093 0.406365
#
# Coordination Sequence:
#
# PCOD9335691 Si02
#       7
#     8   8   8   8   8   8   8
#     4  10  24  44  70 101 144 177 241 288 365 421
#     4  12  23  45  72 105 141 186 239 292 355 430
#     4  12  26  42  68 105 143 191 227 297 357 426
#     4  10  22  43  69 102 131 187 234 293 356 412
#     4  11  23  46  69  99 144 179 245 288 354 428
#     4  10  22  44  68 103 141 182 236 287 363 428
#     4   9  22  43  70  97 141 182 237 288 350 426
#
# _framework density 22.564858999999998
#
# number of rings (size 3 to 8) (size 9 to 14) (size 15 to 20)
#    0.857    0.571    2.857    2.143    0.000    7.429 
#    5.143    0.000    0.000    0.000    0.000    0.000 
#    0.000    0.000    0.000    0.000    0.000    0.000 
#
# Total GULP energy -156028.138682 kJ/mol
# GULP energy per Si atom -5572.433524 kJ/mol
# Density = 2.251350 g / cm^3
# Si number density = 22.564859 Si / 1000 Ang^3
#
#
#
# Elastic Constant Matrix: (Units=GPa)
#
#
# Indices 1 2 3 4 5 6 
#
# 1 73.7741 17.4972 26.6237 0.0000 0.0000 0.0000
# 2 17.4972 90.3090 26.0821 0.0000 0.0000 0.0000
# 3 26.6237 26.0821 73.7526 0.0000 0.0000 0.0000
# 4 0.0000 0.0000 0.0000 20.8613 0.0000 0.0000
# 5 0.0000 0.0000 0.0000 0.0000 25.3294 0.0000
# 6 0.0000 0.0000 0.0000 0.0000 0.0000 30.7771
#
#
#
# Elastic Compliance Matrix: (Units=1/GPa)
#
#
# Indices 1 2 3 4 5 6 
#
# 1 0.015783 -0.001573 -0.005141 0.000000 0.000000 0.000000
# 2 -0.001573 0.012489 -0.003849 0.000000 0.000000 0.000000
# 3 -0.005141 -0.003849 0.016776 0.000000 0.000000 0.000000
# 4 0.000000 0.000000 0.000000 0.047936 0.000000 0.000000
# 5 0.000000 0.000000 0.000000 0.000000 0.039480 0.000000
# 6 0.000000 0.000000 0.000000 0.000000 0.000000 0.032492
#
#
# Mechanical properties :
#
#
# Convention : Reuss Voigt Hill
#
# Bulk Modulus (GPa) = 41.80232 42.02684 41.91458
# Shear Modulus (GPa) = 25.76565 26.56906 26.16735
#
# Velocity S-wave (km/s) = 3.38279 3.43513 3.40906
# Velocity P-wave (km/s) = 5.81578 5.86505 5.84047
#
# Compressibility (1/GPa) = 0.02392212
#
# Stress axis : x y z
#
# Youngs Moduli (GPa) = 63.35772 80.06729 59.60924
#
# Poissons Ratio (x) = 0.12596 0.30647
# Poissons Ratio (y) = 0.09967 0.22943
# Poissons Ratio (z) = 0.32574 0.30817
#
# Static dielectric constant tensor:
#      x y z
#    x 1.879580 0.000000 0.000000 
#    y 0.000000 1.939580 0.000000 
#    z 0.000000 0.000000 1.813880 
# 
# From -- ./inp_files/20817.got.cif
#   From: 2010.05.17/outbox.cif.g08.bks.cpg/sg24_11_cif.got.tgz:20817.got - 2010.06.04 00:33:39.
