data_PCOD9335736
_publ_section_title
;
Structure prediction by ZEFSAII (Michael W. Deem and Ramdas Pophale) SiO2 
 PCOD9335736
Probable space group: I 21 21 21
;
_chemical_formula_sum "Si O2"
_cell_formula_units_Z 48
_cell_length_a 7.624219
_cell_length_b 11.806216
_cell_length_c 23.920800
_cell_angle_alpha 90.000000
_cell_angle_beta 90.000000
_cell_angle_gamma 90.000000
_cell_volume 2153.187189
_symmetry_space_group_name_H-M "I 21 21 21"
_symmetry_group_IT_number 24
_symmetry_cell_setting 'orthorhombic'
loop_
_space_group_symop_operation_xyz
x,y,z
-x,1/2-y,z
x,-y,1/2-z
1/2-x,y,-z
1/2+x,1/2+y,1/2+z
1/2-x,-y,1/2+z
1/2+x,1/2-y,-z
-x,1/2+y,1/2-z
loop_
_atom_site_type_symbol
_atom_site_label
_atom_site_fract_x
_atom_site_fract_y
_atom_site_fract_z
Si Si1 0.037855 0.372635 0.130875
Si Si2 0.131170 0.899823 0.158462
Si Si3 0.855598 0.990374 0.687648
Si Si4 0.741324 0.179973 0.617179
Si Si5 0.460199 0.126005 0.999309
Si Si6 0.684409 0.500000 0.250000
Si Si7 0.250000 0.443657 0.500000
O O1 0.893197 0.468141 0.144144
O O2 0.029765 0.364989 0.064209
O O3 0.000000 0.250000 0.155266
O O4 0.227490 0.414385 0.151155
O O5 0.247247 0.815441 0.120917
O O6 0.935044 0.855625 0.150191
O O7 0.202678 0.903172 0.221004
O O8 0.049631 0.950294 0.703893
O O9 0.771247 0.000000 0.750000
O O10 0.877922 0.108211 0.653850
O O11 0.717541 0.134032 0.554461
O O12 0.500000 0.250000 0.025983
O O13 0.584383 0.022516 0.018464
O O14 0.250000 0.105409 0.000000
#
# Coordination Sequence:
#
# PCOD9335736 Si02
#       7
#     8   8   8   8   8   4   4
#     4  10  22  44  68  96 138 187 239 302 366 449
#     4  10  22  45  65 104 140 186 249 304 376 447
#     4   9  21  43  64  98 139 182 237 303 377 440
#     4  10  23  44  75  99 150 197 246 304 379 465
#     4  11  23  42  74 110 146 197 249 310 376 449
#     4  10  24  40  70 102 138 188 238 316 380 448
#     4  12  22  48  78 106 158 210 248 314 390 458
#
# _framework density 22.292532999999999
#
# number of rings (size 3 to 8) (size 9 to 14) (size 15 to 20)
#    0.500    1.333    4.167    0.000    4.667    3.333 
#    4.500    3.333    0.000    0.000    0.000    0.000 
#    0.000    0.000    0.000    0.000    0.000    0.000 
#
# Total GULP energy -133639.030048 kJ/mol
# GULP energy per Si atom -5568.292919 kJ/mol
# Density = 2.224179 g / cm^3
# Si number density = 22.292533 Si / 1000 Ang^3
#
#
#
# Elastic Constant Matrix: (Units=GPa)
#
#
# Indices 1 2 3 4 5 6 
#
# 1 115.6611 43.3208 42.6684 0.0000 0.0000 0.0000
# 2 43.3208 151.4777 29.5099 0.0000 0.0000 0.0000
# 3 42.6684 29.5099 90.7993 0.0000 0.0000 0.0000
# 4 0.0000 0.0000 0.0000 -56.2008 0.0000 0.0000
# 5 0.0000 0.0000 0.0000 0.0000 -56.9798 0.0000
# 6 0.0000 0.0000 0.0000 0.0000 0.0000 -14.2151
#
#
#
# Elastic Compliance Matrix: (Units=1/GPa)
#
#
# Indices 1 2 3 4 5 6 
#
# 1 0.011174 -0.002319 -0.004497 0.000000 0.000000 0.000000
# 2 -0.002319 0.007529 -0.001357 0.000000 0.000000 0.000000
# 3 -0.004497 -0.001357 0.013568 0.000000 0.000000 0.000000
# 4 0.000000 0.000000 0.000000 -0.017793 0.000000 0.000000
# 5 0.000000 0.000000 0.000000 0.000000 -0.017550 0.000000
# 6 0.000000 0.000000 0.000000 0.000000 0.000000 -0.070348
#
#
# Mechanical properties :
#
#
# Convention : Reuss Voigt Hill
#
# Bulk Modulus (GPa) = 62.79970 65.43737 64.11853
# Shear Modulus (GPa) = -96.58839 -9.31654 -52.95247
#
# Velocity S-wave (km/s) = -6.58952 -2.04653 -4.87904
# Velocity P-wave (km/s) = 5.44645 4.88193 1.70741
#
# Compressibility (1/GPa) = 0.01592364
#
# Stress axis : x y z
#
# Youngs Moduli (GPa) = 89.49632 132.81354 73.70537
#
# Poissons Ratio (x) = 0.30806 0.33144
# Poissons Ratio (y) = 0.20758 0.10002
# Poissons Ratio (z) = 0.40245 0.18024
#
# Static dielectric constant tensor:
#      x y z
#    x 2.010300 0.000000 0.000000 
#    y 0.000000 1.989690 0.000000 
#    z 0.000000 0.000000 1.938190 
# 
# From -- ./inp_files/35155.got.cif
#   From: 2010.05.17/outbox.cif.g08.bks.cpg/sg24_18_cif.got.tgz:35155.got - 2010.06.04 00:33:39.
