data_PCOD9335060
_publ_section_title
;
Structure prediction by ZEFSAII (Michael W. Deem and Ramdas Pophale) SiO2 
 PCOD9335060
Probable space group: I 21 21 21
;
_chemical_formula_sum "Si O2"
_cell_formula_units_Z 56
_cell_length_a 27.222876
_cell_length_b 5.306036
_cell_length_c 16.266266
_cell_angle_alpha 90.000000
_cell_angle_beta 90.000000
_cell_angle_gamma 90.000000
_cell_volume 2349.589903
_symmetry_space_group_name_H-M "I 21 21 21"
_symmetry_group_IT_number 24
_symmetry_cell_setting 'orthorhombic'
loop_
_space_group_symop_operation_xyz
x,y,z
-x,1/2-y,z
x,-y,1/2-z
1/2-x,y,-z
1/2+x,1/2+y,1/2+z
1/2-x,-y,1/2+z
1/2+x,1/2-y,-z
-x,1/2+y,1/2-z
loop_
_atom_site_type_symbol
_atom_site_label
_atom_site_fract_x
_atom_site_fract_y
_atom_site_fract_z
Si Si1 0.433661 0.738968 0.404216
Si Si2 0.551318 0.894887 0.836913
Si Si3 0.212689 0.618339 0.425468
Si Si4 0.239533 0.884579 0.164576
Si Si5 0.500000 0.250000 0.963978
Si Si6 0.117162 0.622362 0.025051
Si Si7 0.853458 0.368979 0.633726
Si Si8 0.418447 0.500000 0.250000
O O1 0.467079 0.900620 0.467579
O O2 0.421440 0.501435 0.461848
O O3 0.451772 0.637934 0.317453
O O4 0.384209 0.875941 0.375552
O O5 0.500000 0.750000 0.821244
O O6 0.591447 0.756659 0.894703
O O7 0.569743 0.000000 0.750000
O O8 0.535464 0.114969 0.899254
O O9 0.250000 0.558835 0.500000
O O10 0.223400 0.903264 0.399907
O O11 0.155416 0.588738 0.445998
O O12 0.223026 0.397746 0.358288
O O13 0.220733 0.000000 0.250000
O O14 0.298627 0.886124 0.165535
O O15 0.148556 0.786179 0.961735
O O16 0.884016 0.186294 0.695166
#
# Coordination Sequence:
#
# PCOD9335060 Si02
#       8
#     8   8   8   8   4   8   8   4
#     4  10  21  40  64  94 132 173 228 277 347 420
#     4  11  22  42  69 101 134 177 235 294 363 431
#     4  12  25  46  68 103 141 189 239 293 361 434
#     4  12  27  42  70  99 143 185 238 295 358 427
#     4  10  22  42  66  96 130 176 224 284 348 426
#     4  10  24  41  68  96 137 180 238 291 359 425
#     4  11  22  41  67  95 131 185 229 288 339 431
#     4  10  22  38  60 102 130 174 230 274 348 414
#
# _framework density 23.833946999999998
#
# number of rings (size 3 to 8) (size 9 to 14) (size 15 to 20)
#    0.000    1.143    2.143    3.857    6.000    1.143 
#    2.571    0.714    0.000    0.000    0.000    0.000 
#    0.000    0.000    0.000    0.000    0.000    0.000 
#
# Total GULP energy -156160.459182 kJ/mol
# GULP energy per Si atom -5577.159256 kJ/mol
# Density = 2.377970 g / cm^3
# Si number density = 23.833947 Si / 1000 Ang^3
#
#
#
# Elastic Constant Matrix: (Units=GPa)
#
#
# Indices 1 2 3 4 5 6 
#
# 1 58.1786 -4.6695 24.3059 0.0000 0.0000 0.0000
# 2 -4.6695 44.7524 21.2173 0.0000 0.0000 0.0000
# 3 24.3059 21.2173 169.3118 0.0000 0.0000 0.0000
# 4 0.0000 0.0000 0.0000 29.2361 0.0000 0.0000
# 5 0.0000 0.0000 0.0000 0.0000 29.1749 0.0000
# 6 0.0000 0.0000 0.0000 0.0000 0.0000 12.3941
#
#
#
# Elastic Compliance Matrix: (Units=1/GPa)
#
#
# Indices 1 2 3 4 5 6 
#
# 1 0.018770 0.003440 -0.003126 0.000000 0.000000 0.000000
# 2 0.003440 0.024387 -0.003550 0.000000 0.000000 0.000000
# 3 -0.003126 -0.003550 0.006800 0.000000 0.000000 0.000000
# 4 0.000000 0.000000 0.000000 0.034204 0.000000 0.000000
# 5 0.000000 0.000000 0.000000 0.000000 0.034276 0.000000
# 6 0.000000 0.000000 0.000000 0.000000 0.000000 0.080684
#
#
# Mechanical properties :
#
#
# Convention : Reuss Voigt Hill
#
# Bulk Modulus (GPa) = 22.99541 39.32780 31.16161
# Shear Modulus (GPa) = 22.71822 29.58696 26.15259
#
# Velocity S-wave (km/s) = 3.09072 3.52714 3.31612
# Velocity P-wave (km/s) = 4.73348 5.75537 5.26926
#
# Compressibility (1/GPa) = 0.04348695
#
# Stress axis : x y z
#
# Youngs Moduli (GPa) = 53.27515 41.00509 147.06195
#
# Poissons Ratio (x) = -0.14108 0.45968
# Poissons Ratio (y) = -0.18329 0.52207
# Poissons Ratio (z) = 0.16653 0.14557
#
# Static dielectric constant tensor:
#      x y z
#    x 2.045880 0.000000 0.000000 
#    y 0.000000 2.046460 0.000000 
#    z 0.000000 0.000000 1.945910 
# 
# From -- ./inp_files/24122.got.cif
#   From: 2010.05.17/outbox.cif.g08.bks.cpg/sg24_13_cif.got.tgz:24122.got - 2010.06.04 00:33:39.
