data_PCOD9335410
_publ_section_title
;
Structure prediction by ZEFSAII (Michael W. Deem and Ramdas Pophale) SiO2 
 PCOD9335410
Probable space group: I 21 21 21
;
_chemical_formula_sum "Si O2"
_cell_formula_units_Z 36
_cell_length_a 9.917878
_cell_length_b 22.519481
_cell_length_c 7.788515
_cell_angle_alpha 90.000000
_cell_angle_beta 90.000000
_cell_angle_gamma 90.000000
_cell_volume 1739.529506
_symmetry_space_group_name_H-M "I 21 21 21"
_symmetry_group_IT_number 24
_symmetry_cell_setting 'orthorhombic'
loop_
_space_group_symop_operation_xyz
x,y,z
-x,1/2-y,z
x,-y,1/2-z
1/2-x,y,-z
1/2+x,1/2+y,1/2+z
1/2-x,-y,1/2+z
1/2+x,1/2-y,-z
-x,1/2+y,1/2-z
loop_
_atom_site_type_symbol
_atom_site_label
_atom_site_fract_x
_atom_site_fract_y
_atom_site_fract_z
Si Si1 0.818417 0.000000 0.750000
Si Si2 0.750000 0.624646 0.000000
Si Si3 0.488101 0.679653 0.138198
Si Si4 0.750000 0.899550 0.000000
Si Si5 0.909275 0.895882 0.534819
Si Si6 0.150202 0.061244 0.166249
O O1 0.738885 0.946760 0.843192
O O2 0.906247 0.963081 0.613697
O O3 0.732208 0.588425 0.824839
O O4 0.879369 0.663232 0.964847
O O5 0.500000 0.750000 0.158412
O O6 0.467831 0.649189 0.324261
O O7 0.372005 0.645087 0.032788
O O8 0.750000 0.882008 0.500000
O O9 0.019844 0.899856 0.385475
O O10 0.100669 0.000000 0.250000
O O11 0.250000 0.054835 0.000000
#
# Coordination Sequence:
#
# PCOD9335410 Si02
#       6
#     4   4   8   4   8   8
#     4  10  22  38  68 112 140 180 240 310 380 424
#     4  12  27  46  74 104 142 191 242 300 358 442
#     4  11  26  49  70 104 145 200 254 296 367 444
#     4  10  23  40  74 100 148 187 240 312 364 444
#     4  11  26  44  69 106 145 192 241 311 367 434
#     4  12  27  45  69 110 152 190 232 291 382 455
#
# _framework density 20.695250999999999
#
# number of rings (size 3 to 8) (size 9 to 14) (size 15 to 20)
#    0.000    0.889    4.444    0.667   15.556    0.000 
#    4.000    0.000    0.000    0.000    0.000    0.000 
#    0.000    0.000    0.000    0.000    0.000    0.000 
#
# Total GULP energy -100377.828255 kJ/mol
# GULP energy per Si atom -5576.546014 kJ/mol
# Density = 2.064815 g / cm^3
# Si number density = 20.695251 Si / 1000 Ang^3
#
#
#
# Elastic Constant Matrix: (Units=GPa)
#
#
# Indices 1 2 3 4 5 6 
#
# 1 130.6182 54.0859 52.7644 0.0002 -0.0002 -0.0003
# 2 54.0859 145.3503 43.4131 0.0006 -0.0004 -0.0001
# 3 52.7644 43.4131 120.1315 0.0023 -0.0026 -0.0015
# 4 0.0002 0.0006 0.0023 24.8586 -0.0006 0.0004
# 5 -0.0002 -0.0004 -0.0026 -0.0006 40.1728 0.0007
# 6 -0.0003 -0.0001 -0.0015 0.0004 0.0007 21.9692
#
#
#
# Elastic Compliance Matrix: (Units=1/GPa)
#
#
# Indices 1 2 3 4 5 6 
#
# 1 0.010206 -0.002756 -0.003486 0.000000 0.000000 0.000000
# 2 -0.002756 0.008457 -0.001845 0.000000 0.000000 0.000000
# 3 -0.003486 -0.001845 0.010522 -0.000001 0.000001 0.000001
# 4 0.000000 0.000000 -0.000001 0.040228 0.000001 -0.000001
# 5 0.000000 0.000000 0.000001 0.000001 0.024892 -0.000001
# 6 0.000000 0.000000 0.000001 -0.000001 -0.000001 0.045518
#
#
# Mechanical properties :
#
#
# Convention : Reuss Voigt Hill
#
# Bulk Modulus (GPa) = 76.87341 77.40298 77.13820
# Shear Modulus (GPa) = 31.18459 33.78922 32.48690
#
# Velocity S-wave (km/s) = 3.88602 4.04506 3.96634
# Velocity P-wave (km/s) = 7.57370 7.70060 7.63741
#
# Compressibility (1/GPa) = 0.01300840
#
# Stress axis : x y z
#
# Youngs Moduli (GPa) = 97.98548 118.24857 95.03469
#
# Poissons Ratio (x) = 0.32592 0.33134
# Poissons Ratio (y) = 0.27007 0.17539
# Poissons Ratio (z) = 0.34162 0.21823
#
# Static dielectric constant tensor:
#      x y z
#    x 1.775480 0.000010 0.000000 
#    y 0.000010 2.607380 0.000020 
#    z 0.000000 0.000020 1.834500 
# 
# From -- ./inp_files/9128.got.cif
#   From: 2010.05.17/outbox.cif.g08.bks.cpg/sg24_5_cif.got.tgz:9128.got - 2010.06.04 00:33:39.
