data_PCOD9335449
_publ_section_title
;
Structure prediction by ZEFSAII (Michael W. Deem and Ramdas Pophale) SiO2 
 PCOD9335449
Probable space group: I 21 21 21
;
_chemical_formula_sum "Si O2"
_cell_formula_units_Z 60
_cell_length_a 29.418639
_cell_length_b 16.449823
_cell_length_c 5.239929
_cell_angle_alpha 90.000000
_cell_angle_beta 90.000000
_cell_angle_gamma 90.000000
_cell_volume 2535.766200
_symmetry_space_group_name_H-M "I 21 21 21"
_symmetry_group_IT_number 24
_symmetry_cell_setting 'orthorhombic'
loop_
_space_group_symop_operation_xyz
x,y,z
-x,1/2-y,z
x,-y,1/2-z
1/2-x,y,-z
1/2+x,1/2+y,1/2+z
1/2-x,-y,1/2+z
1/2+x,1/2-y,-z
-x,1/2+y,1/2-z
loop_
_atom_site_type_symbol
_atom_site_label
_atom_site_fract_x
_atom_site_fract_y
_atom_site_fract_z
Si Si1 0.880529 0.406266 0.040027
Si Si2 0.359721 0.660520 0.638489
Si Si3 0.682267 0.909790 0.170251
Si Si4 0.962632 0.179067 0.282340
Si Si5 0.298626 0.186662 0.862936
Si Si6 0.917417 0.410645 0.544766
Si Si7 0.250000 0.713937 0.000000
Si Si8 0.481423 0.410771 0.224509
O O1 0.828591 0.393674 0.118615
O O2 0.911456 0.372100 0.268092
O O3 0.896334 0.499332 0.998672
O O4 0.889014 0.367074 0.764836
O O5 0.355715 0.606200 0.385697
O O6 0.410585 0.687850 0.697784
O O7 0.331360 0.740052 0.554655
O O8 0.337603 0.612881 0.885734
O O9 0.698360 0.000000 0.250000
O O10 0.725579 0.848493 0.192541
O O11 0.000000 0.250000 0.270336
O O12 0.959313 0.151215 0.576967
O O13 0.981069 0.114600 0.070169
O O14 0.287961 0.222000 0.585134
O O15 0.250000 0.181228 0.000000
O O16 0.967753 0.415476 0.654783
O O17 0.460747 0.500000 0.250000
#
# Coordination Sequence:
#
# PCOD9335449 Si02
#       8
#     8   8   8   8   8   8   4   8
#     4  10  22  39  70 101 139 178 239 277 348 403
#     4  11  26  45  67 100 144 176 236 288 353 435
#     4  11  24  44  73  96 137 180 227 297 357 418
#     4  12  29  47  69 111 148 194 242 305 366 436
#     4  11  24  44  71  99 141 187 227 292 356 424
#     4  10  22  42  65 107 134 184 238 285 330 423
#     4  10  24  44  64 110 136 176 248 276 358 442
#     4  12  25  45  76 103 147 192 253 293 356 439
#
# _framework density 23.661487999999999
#
# number of rings (size 3 to 8) (size 9 to 14) (size 15 to 20)
#    0.000    1.067    2.667    2.800    7.467    5.333 
#    0.000    2.667    0.000    0.000    0.000    0.000 
#    0.000    0.000    0.000    0.000    0.000    0.000 
#
# Total GULP energy -167269.508819 kJ/mol
# GULP energy per Si atom -5575.650294 kJ/mol
# Density = 2.360763 g / cm^3
# Si number density = 23.661488 Si / 1000 Ang^3
#
#
#
# Elastic Constant Matrix: (Units=GPa)
#
#
# Indices 1 2 3 4 5 6 
#
# 1 123.7611 13.0160 4.5565 0.0000 0.0000 0.0000
# 2 13.0160 41.6193 9.1271 0.0000 0.0000 0.0000
# 3 4.5565 9.1271 118.3441 0.0000 0.0000 0.0000
# 4 0.0000 0.0000 0.0000 25.1842 0.0000 0.0000
# 5 0.0000 0.0000 0.0000 0.0000 31.8279 0.0000
# 6 0.0000 0.0000 0.0000 0.0000 0.0000 12.6540
#
#
#
# Elastic Compliance Matrix: (Units=1/GPa)
#
#
# Indices 1 2 3 4 5 6 
#
# 1 0.008357 -0.002587 -0.000122 0.000000 0.000000 0.000000
# 2 -0.002587 0.025241 -0.001847 0.000000 0.000000 0.000000
# 3 -0.000122 -0.001847 0.008597 0.000000 0.000000 0.000000
# 4 0.000000 0.000000 0.000000 0.039707 0.000000 0.000000
# 5 0.000000 0.000000 0.000000 0.000000 0.031419 0.000000
# 6 0.000000 0.000000 0.000000 0.000000 0.000000 0.079027
#
#
# Mechanical properties :
#
#
# Convention : Reuss Voigt Hill
#
# Bulk Modulus (GPa) = 30.22697 37.45819 33.84258
# Shear Modulus (GPa) = 23.53077 31.06821 27.29949
#
# Velocity S-wave (km/s) = 3.15695 3.62750 3.40038
# Velocity P-wave (km/s) = 5.10793 5.78016 5.45441
#
# Compressibility (1/GPa) = 0.03308304
#
# Stress axis : x y z
#
# Youngs Moduli (GPa) = 119.66554 39.61757 116.31832
#
# Poissons Ratio (x) = 0.10248 0.01422
# Poissons Ratio (y) = 0.30953 0.21485
# Poissons Ratio (z) = 0.01463 0.07318
#
# Static dielectric constant tensor:
#      x y z
#    x 1.956200 0.000000 0.000000 
#    y 0.000000 2.360890 0.000000 
#    z 0.000000 0.000000 2.190370 
# 
# From -- ./inp_files/7271.got.cif
#   From: 2010.05.17/outbox.cif.g08.bks.cpg/sg24_4_cif.got.tgz:7271.got - 2010.06.04 00:33:39.
