data_PCOD9335339
_publ_section_title
;
Structure prediction by ZEFSAII (Michael W. Deem and Ramdas Pophale) SiO2 
 PCOD9335339
Probable space group: I 21 21 21
;
_chemical_formula_sum "Si O2"
_cell_formula_units_Z 44
_cell_length_a 25.294442
_cell_length_b 4.974067
_cell_length_c 16.492062
_cell_angle_alpha 90.000000
_cell_angle_beta 90.000000
_cell_angle_gamma 90.000000
_cell_volume 2074.969383
_symmetry_space_group_name_H-M "I 21 21 21"
_symmetry_group_IT_number 24
_symmetry_cell_setting 'orthorhombic'
loop_
_space_group_symop_operation_xyz
x,y,z
-x,1/2-y,z
x,-y,1/2-z
1/2-x,y,-z
1/2+x,1/2+y,1/2+z
1/2-x,-y,1/2+z
1/2+x,1/2-y,-z
-x,1/2+y,1/2-z
loop_
_atom_site_type_symbol
_atom_site_label
_atom_site_fract_x
_atom_site_fract_y
_atom_site_fract_z
Si Si1 0.551812 0.136411 0.176081
Si Si2 0.750680 0.914878 0.595715
Si Si3 0.000000 0.750000 0.958909
Si Si4 0.188814 0.906002 0.158211
Si Si5 0.111704 0.711446 0.029473
Si Si6 0.361138 0.188004 0.069616
O O1 0.500000 0.250000 0.218490
O O2 0.591266 0.338963 0.133219
O O3 0.582337 0.000000 0.250000
O O4 0.526110 0.964419 0.102952
O O5 0.750000 0.985405 0.500000
O O6 0.710745 0.667559 0.611196
O O7 0.809276 0.805042 0.611313
O O8 0.732026 0.169199 0.647508
O O9 0.051100 0.807155 0.015468
O O10 0.180865 0.000000 0.250000
O O11 0.136449 0.780304 0.116368
O O12 0.120260 0.406710 0.998533
O O13 0.146421 0.898770 0.969594
#
# Coordination Sequence:
#
# PCOD9335339 Si02
#       6
#     8   8   4   8   8   8
#     4  11  21  36  55  85 124 159 199 258 314 371
#     4  12  22  42  67  94 126 175 218 262 315 397
#     4  10  22  36  62  84 118 162 218 250 310 384
#     4  12  25  41  66  96 133 165 212 273 336 375
#     4  11  21  40  62  93 118 166 210 268 305 390
#     4  11  23  37  64  88 124 165 219 248 312 381
#
# _framework density 21.205133
#
# number of rings (size 3 to 8) (size 9 to 14) (size 15 to 20)
#    0.000    0.727    6.364    2.182    0.000    1.455 
#    0.000    0.909    0.000    6.545    0.000    0.000 
#    0.000    0.000    0.000    0.000    0.000    0.000 
#
# Total GULP energy -122784.781032 kJ/mol
# GULP energy per Si atom -5581.126411 kJ/mol
# Density = 2.115687 g / cm^3
# Si number density = 21.205133 Si / 1000 Ang^3
#
#
#
# Elastic Constant Matrix: (Units=GPa)
#
#
# Indices 1 2 3 4 5 6 
#
# 1 99.4612 2.7328 34.7399 0.0000 0.0000 0.0000
# 2 2.7328 75.0923 3.0605 0.0000 0.0000 0.0000
# 3 34.7399 3.0605 71.9594 0.0000 0.0000 0.0000
# 4 0.0000 0.0000 0.0000 19.2568 0.0000 0.0000
# 5 0.0000 0.0000 0.0000 0.0000 21.0677 0.0000
# 6 0.0000 0.0000 0.0000 0.0000 0.0000 28.3506
#
#
#
# Elastic Compliance Matrix: (Units=1/GPa)
#
#
# Indices 1 2 3 4 5 6 
#
# 1 0.012096 -0.000203 -0.005831 0.000000 0.000000 0.000000
# 2 -0.000203 0.013343 -0.000470 0.000000 0.000000 0.000000
# 3 -0.005831 -0.000470 0.016732 0.000000 0.000000 0.000000
# 4 0.000000 0.000000 0.000000 0.051930 0.000000 0.000000
# 5 0.000000 0.000000 0.000000 0.000000 0.047466 0.000000
# 6 0.000000 0.000000 0.000000 0.000000 0.000000 0.035273
#
#
# Mechanical properties :
#
#
# Convention : Reuss Voigt Hill
#
# Bulk Modulus (GPa) = 34.28792 36.39770 35.34281
# Shear Modulus (GPa) = 25.05404 27.46702 26.26053
#
# Velocity S-wave (km/s) = 3.44104 3.60293 3.52291
# Velocity P-wave (km/s) = 5.65618 5.87452 5.76638
#
# Compressibility (1/GPa) = 0.02916479
#
# Stress axis : x y z
#
# Youngs Moduli (GPa) = 82.66872 74.94313 59.76626
#
# Poissons Ratio (x) = 0.01518 0.34851
# Poissons Ratio (y) = 0.01674 0.02807
# Poissons Ratio (z) = 0.48206 0.03520
#
# Static dielectric constant tensor:
#      x y z
#    x 1.803880 0.000000 0.000000 
#    y 0.000000 1.847610 0.000000 
#    z 0.000000 0.000000 1.758970 
# 
# From -- ./inp_files/27978.got.cif
#   From: 2010.05.17/outbox.cif.g08.bks.cpg/sg24_14_cif.got.tgz:27978.got - 2010.06.04 00:33:39.
