data_PCOD9335938
_publ_section_title
;
Structure prediction by ZEFSAII (Michael W. Deem and Ramdas Pophale) SiO2 
 PCOD9335938
Probable space group: I 21 21 21
;
_chemical_formula_sum "Si O2"
_cell_formula_units_Z 48
_cell_length_a 27.239249
_cell_length_b 15.651864
_cell_length_c 5.200756
_cell_angle_alpha 90.000000
_cell_angle_beta 90.000000
_cell_angle_gamma 90.000000
_cell_volume 2217.316425
_symmetry_space_group_name_H-M "I 21 21 21"
_symmetry_group_IT_number 24
_symmetry_cell_setting 'orthorhombic'
loop_
_space_group_symop_operation_xyz
x,y,z
-x,1/2-y,z
x,-y,1/2-z
1/2-x,y,-z
1/2+x,1/2+y,1/2+z
1/2-x,-y,1/2+z
1/2+x,1/2-y,-z
-x,1/2+y,1/2-z
loop_
_atom_site_type_symbol
_atom_site_label
_atom_site_fract_x
_atom_site_fract_y
_atom_site_fract_z
Si Si1 0.499640 0.000000 0.750000
Si Si2 0.750000 0.942217 0.000000
Si Si3 0.862065 0.722779 0.434935
Si Si4 0.026867 0.831295 0.486081
Si Si5 0.155002 0.674426 0.920790
Si Si6 0.448727 0.595562 0.142045
Si Si7 0.718800 0.398061 0.751601
O O1 0.536349 0.074277 0.647293
O O2 0.466270 0.931327 0.601143
O O3 0.797450 0.884344 0.943839
O O4 0.740457 0.000000 0.750000
O O5 0.917541 0.700528 0.512752
O O6 0.836841 0.755188 0.698174
O O7 0.833406 0.645164 0.299596
O O8 0.858768 0.791955 0.205098
O O9 0.000000 0.750000 0.343469
O O10 0.990010 0.845743 0.727901
O O11 0.106121 0.626047 0.824486
O O12 0.454664 0.500000 0.250000
O O13 0.713479 0.500000 0.750000
O O14 0.750000 0.372335 0.500000
O O15 0.750000 0.373561 0.000000
#
# Coordination Sequence:
#
# PCOD9335938 Si02
#       7
#     4   4   8   8   8   8   8
#     4  10  24  40  72 100 144 196 248 310 368 460
#     4  12  28  50  78 112 150 194 256 326 374 456
#     4  12  27  43  75 107 146 194 239 310 368 455
#     4  11  23  44  67 107 145 193 247 307 374 452
#     4  12  27  46  73 110 144 197 246 306 385 441
#     4  10  23  43  68  98 142 192 245 301 367 450
#     4  10  23  46  72 102 139 187 238 296 364 436
#
# _framework density 21.647789
#
# number of rings (size 3 to 8) (size 9 to 14) (size 15 to 20)
#    0.000    1.000    1.667    3.500   10.500    0.667 
#    0.000    2.500    0.000    0.000    0.000    0.000 
#    0.000    0.000    0.000    0.000    0.000    0.000 
#
# Total GULP energy -133675.773177 kJ/mol
# GULP energy per Si atom -5569.823882 kJ/mol
# Density = 2.159852 g / cm^3
# Si number density = 21.647789 Si / 1000 Ang^3
#
#
#
# Elastic Constant Matrix: (Units=GPa)
#
#
# Indices 1 2 3 4 5 6 
#
# 1 173.2720 72.2425 44.2053 0.0000 0.0000 0.0000
# 2 72.2425 102.1834 42.9962 0.0000 0.0000 0.0000
# 3 44.2053 42.9962 97.3842 0.0000 0.0000 0.0000
# 4 0.0000 0.0000 0.0000 25.2933 0.0000 0.0000
# 5 0.0000 0.0000 0.0000 0.0000 79.6576 0.0000
# 6 0.0000 0.0000 0.0000 0.0000 0.0000 10.8166
#
#
#
# Elastic Compliance Matrix: (Units=1/GPa)
#
#
# Indices 1 2 3 4 5 6 
#
# 1 0.008348 -0.005290 -0.001454 0.000000 0.000000 0.000000
# 2 -0.005290 0.015372 -0.004385 0.000000 0.000000 0.000000
# 3 -0.001454 -0.004385 0.012865 0.000000 0.000000 0.000000
# 4 0.000000 0.000000 0.000000 0.039536 0.000000 0.000000
# 5 0.000000 0.000000 0.000000 0.000000 0.012554 0.000000
# 6 0.000000 0.000000 0.000000 0.000000 0.000000 0.092451
#
#
# Mechanical properties :
#
#
# Convention : Reuss Voigt Hill
#
# Bulk Modulus (GPa) = 69.80450 76.85863 73.33156
# Shear Modulus (GPa) = 24.02020 37.37987 30.70004
#
# Velocity S-wave (km/s) = 3.33467 4.15990 3.76993
# Velocity P-wave (km/s) = 6.86602 7.65861 7.27312
#
# Compressibility (1/GPa) = 0.01432572
#
# Stress axis : x y z
#
# Youngs Moduli (GPa) = 119.79297 65.05481 77.73232
#
# Poissons Ratio (x) = 0.34415 0.11299
# Poissons Ratio (y) = 0.63372 0.34089
# Poissons Ratio (z) = 0.17413 0.28529
#
# Static dielectric constant tensor:
#      x y z
#    x 1.747710 0.000000 0.000000 
#    y 0.000000 0.488480 0.000000 
#    z 0.000000 0.000000 4.539720 
# 
# From -- ./inp_files/7140.got.cif
#   From: 2010.05.17/outbox.cif.g08.bks.cpg/sg24_4_cif.got.tgz:7140.got - 2010.06.04 00:33:39.
