data_PCOD9335981
_publ_section_title
;
Structure prediction by ZEFSAII (Michael W. Deem and Ramdas Pophale) SiO2 
 PCOD9335981
Probable space group: I 21 21 21
;
_chemical_formula_sum "Si O2"
_cell_formula_units_Z 40
_cell_length_a 25.230737
_cell_length_b 11.768709
_cell_length_c 6.710399
_cell_angle_alpha 90.000000
_cell_angle_beta 90.000000
_cell_angle_gamma 90.000000
_cell_volume 1992.540259
_symmetry_space_group_name_H-M "I 21 21 21"
_symmetry_group_IT_number 24
_symmetry_cell_setting 'orthorhombic'
loop_
_space_group_symop_operation_xyz
x,y,z
-x,1/2-y,z
x,-y,1/2-z
1/2-x,y,-z
1/2+x,1/2+y,1/2+z
1/2-x,-y,1/2+z
1/2+x,1/2-y,-z
-x,1/2+y,1/2-z
loop_
_atom_site_type_symbol
_atom_site_label
_atom_site_fract_x
_atom_site_fract_y
_atom_site_fract_z
Si Si1 0.927387 0.596450 0.098596
Si Si2 0.884054 0.171037 0.226246
Si Si3 0.692613 0.281300 0.097828
Si Si4 0.469931 0.500000 0.750000
Si Si5 0.362061 0.000000 0.250000
Si Si6 0.308664 0.407698 0.419179
O O1 0.905309 0.500000 0.250000
O O2 0.912253 0.719416 0.177200
O O3 0.990048 0.568340 0.105560
O O4 0.900027 0.573365 0.890691
O O5 0.848914 0.108299 0.396564
O O6 0.930790 0.089761 0.149407
O O7 0.846679 0.215396 0.051045
O O8 0.673141 0.409305 0.131982
O O9 0.694564 0.212662 0.304965
O O10 0.750000 0.279462 0.000000
O O11 0.323895 0.500000 0.250000
O O12 0.250000 0.438601 0.500000
#
# Coordination Sequence:
#
# PCOD9335981 Si02
#       6
#     8   8   8   4   4   8
#     4  10  23  44  69  94 135 175 225 288 341 395
#     4  12  23  46  70  97 139 178 229 282 348 406
#     4  12  25  42  69 102 137 185 225 278 342 418
#     4  10  24  44  69  98 127 180 228 288 342 400
#     4  12  24  44  69 102 137 178 230 282 346 408
#     4  12  26  42  67  99 142 183 224 276 341 420
#
# _framework density 20.074877999999998
#
# number of rings (size 3 to 8) (size 9 to 14) (size 15 to 20)
#    0.600    0.000    6.000    2.400    1.400    2.400 
#    5.400    0.000    0.000    0.000    0.000    0.000 
#    0.000    0.000    0.000    0.000    0.000    0.000 
#
# Total GULP energy -111722.756786 kJ/mol
# GULP energy per Si atom -5586.137839 kJ/mol
# Density = 2.002919 g / cm^3
# Si number density = 20.074878 Si / 1000 Ang^3
#
#
#
# Elastic Constant Matrix: (Units=GPa)
#
#
# Indices 1 2 3 4 5 6 
#
# 1 119.2633 42.2228 25.9114 0.0000 0.0000 0.0000
# 2 42.2228 87.1224 13.8591 0.0000 0.0000 0.0000
# 3 25.9114 13.8591 56.9231 0.0000 0.0000 0.0000
# 4 0.0000 0.0000 0.0000 43.0830 0.0000 0.0000
# 5 0.0000 0.0000 0.0000 0.0000 11.6344 0.0000
# 6 0.0000 0.0000 0.0000 0.0000 0.0000 29.1548
#
#
#
# Elastic Compliance Matrix: (Units=1/GPa)
#
#
# Indices 1 2 3 4 5 6 
#
# 1 0.010862 -0.004658 -0.003810 0.000000 0.000000 0.000000
# 2 -0.004658 0.013938 -0.001273 0.000000 0.000000 0.000000
# 3 -0.003810 -0.001273 0.019612 0.000000 0.000000 0.000000
# 4 0.000000 0.000000 0.000000 0.023211 0.000000 0.000000
# 5 0.000000 0.000000 0.000000 0.000000 0.085952 0.000000
# 6 0.000000 0.000000 0.000000 0.000000 0.000000 0.034300
#
#
# Mechanical properties :
#
#
# Convention : Reuss Voigt Hill
#
# Bulk Modulus (GPa) = 40.11379 47.47726 43.79553
# Shear Modulus (GPa) = 23.18392 28.86214 26.02303
#
# Velocity S-wave (km/s) = 3.40203 3.79585 3.60432
# Velocity P-wave (km/s) = 5.95459 6.55078 6.25979
#
# Compressibility (1/GPa) = 0.02492908
#
# Stress axis : x y z
#
# Youngs Moduli (GPa) = 92.06716 71.74615 50.98936
#
# Poissons Ratio (x) = 0.33418 0.19428
# Poissons Ratio (y) = 0.42884 0.06492
# Poissons Ratio (z) = 0.35079 0.09135
#
# Static dielectric constant tensor:
#      x y z
#    x 1.691440 0.000000 0.000000 
#    y 0.000000 1.720280 0.000000 
#    z 0.000000 0.000000 1.721340 
# 
# From -- ./inp_files/6921.got.cif
#   From: 2010.05.17/outbox.cif.g08.bks.cpg/sg24_4_cif.got.tgz:6921.got - 2010.06.04 00:33:39.
