data_PCOD9335903
_publ_section_title
;
Structure prediction by ZEFSAII (Michael W. Deem and Ramdas Pophale) SiO2 
 PCOD9335903
Probable space group: I 21 21 21
;
_chemical_formula_sum "Si O2"
_cell_formula_units_Z 60
_cell_length_a 25.592093
_cell_length_b 18.724059
_cell_length_c 5.195910
_cell_angle_alpha 90.000000
_cell_angle_beta 90.000000
_cell_angle_gamma 90.000000
_cell_volume 2489.816990
_symmetry_space_group_name_H-M "I 21 21 21"
_symmetry_group_IT_number 24
_symmetry_cell_setting 'orthorhombic'
loop_
_space_group_symop_operation_xyz
x,y,z
-x,1/2-y,z
x,-y,1/2-z
1/2-x,y,-z
1/2+x,1/2+y,1/2+z
1/2-x,-y,1/2+z
1/2+x,1/2-y,-z
-x,1/2+y,1/2-z
loop_
_atom_site_type_symbol
_atom_site_label
_atom_site_fract_x
_atom_site_fract_y
_atom_site_fract_z
Si Si1 0.937000 0.924042 0.157974
Si Si2 0.514822 0.126980 0.148217
Si Si3 0.666181 0.860584 0.961630
Si Si4 0.395415 0.871956 0.181286
Si Si5 0.778761 0.000000 0.250000
Si Si6 0.201522 0.226928 0.193276
Si Si7 0.612546 0.777232 0.341430
Si Si8 0.660561 0.421012 0.797213
O O1 0.980886 0.904492 0.363539
O O2 0.890488 0.866726 0.177207
O O3 0.916102 0.000000 0.250000
O O4 0.958060 0.921212 0.869392
O O5 0.455166 0.131725 0.227689
O O6 0.552835 0.196765 0.140723
O O7 0.701230 0.794310 0.880930
O O8 0.692054 0.935178 0.893589
O O9 0.647752 0.844462 0.251833
O O10 0.383195 0.787756 0.136727
O O11 0.361045 0.907257 0.412511
O O12 0.385386 0.912712 0.915806
O O13 0.750000 0.966047 0.500000
O O14 0.144431 0.239308 0.065440
O O15 0.250000 0.234841 0.000000
O O16 0.199852 0.144029 0.273625
O O17 0.682681 0.500000 0.750000
#
# Coordination Sequence:
#
# PCOD9335903 Si02
#       8
#     8   8   8   8   4   8   8   8
#     4  11  23  40  60  94 137 181 224 280 337 408
#     4  11  23  38  67  97 137 182 234 280 347 414
#     4  11  23  45  67  95 141 182 234 285 353 404
#     4  11  23  43  70 102 136 183 230 284 354 426
#     4  12  30  44  68 104 138 184 238 290 346 416
#     4  11  24  45  74 102 137 188 240 294 356 428
#     4  10  23  42  66 100 142 179 234 292 345 415
#     4  11  25  47  71 103 144 178 229 297 362 423
#
# _framework density 24.098154999999998
#
# number of rings (size 3 to 8) (size 9 to 14) (size 15 to 20)
#    0.000    1.067    3.333    2.400    3.733    3.200 
#    0.000    5.333    0.000    0.000    0.000    0.000 
#    0.000    0.000    0.000    0.000    0.000    0.000 
#
# Total GULP energy -167383.116205 kJ/mol
# GULP energy per Si atom -5579.437207 kJ/mol
# Density = 2.404331 g / cm^3
# Si number density = 24.098155 Si / 1000 Ang^3
#
#
#
# Elastic Constant Matrix: (Units=GPa)
#
#
# Indices 1 2 3 4 5 6 
#
# 1 55.7990 16.2303 8.2654 0.0000 0.0000 0.0000
# 2 16.2303 124.2315 5.4645 0.0000 0.0000 0.0000
# 3 8.2654 5.4645 87.3708 0.0000 0.0000 0.0000
# 4 0.0000 0.0000 0.0000 32.6035 0.0000 0.0000
# 5 0.0000 0.0000 0.0000 0.0000 39.0388 0.0000
# 6 0.0000 0.0000 0.0000 0.0000 0.0000 -4.4164
#
#
#
# Elastic Compliance Matrix: (Units=1/GPa)
#
#
# Indices 1 2 3 4 5 6 
#
# 1 0.018859 -0.002392 -0.001635 0.000000 0.000000 0.000000
# 2 -0.002392 0.008375 -0.000298 0.000000 0.000000 0.000000
# 3 -0.001635 -0.000298 0.011619 0.000000 0.000000 0.000000
# 4 0.000000 0.000000 0.000000 0.030672 0.000000 0.000000
# 5 0.000000 0.000000 0.000000 0.000000 0.025616 0.000000
# 6 0.000000 0.000000 0.000000 0.000000 0.000000 -0.226428
#
#
# Mechanical properties :
#
#
# Convention : Reuss Voigt Hill
#
# Bulk Modulus (GPa) = 33.10703 36.36907 34.73805
# Shear Modulus (GPa) = -44.41644 29.27459 -7.57092
#
# Velocity S-wave (km/s) = -4.29785 3.48919 -1.77441
# Velocity P-wave (km/s) = 3.29551 5.59977 3.20133
#
# Compressibility (1/GPa) = 0.03020507
#
# Stress axis : x y z
#
# Youngs Moduli (GPa) = 53.02406 119.40185 86.06810
#
# Poissons Ratio (x) = 0.28561 0.14068
# Poissons Ratio (y) = 0.12683 0.02561
# Poissons Ratio (z) = 0.08667 0.03552
#
# Static dielectric constant tensor:
#      x y z
#    x 1.968000 0.000000 0.000000 
#    y 0.000000 1.968470 0.000000 
#    z 0.000000 0.000000 1.992180 
# 
# From -- ./inp_files/7280.got.cif
#   From: 2010.05.17/outbox.cif.g08.bks.cpg/sg24_4_cif.got.tgz:7280.got - 2010.06.04 00:33:39.
