data_PCOD9335302
_publ_section_title
;
Structure prediction by ZEFSAII (Michael W. Deem and Ramdas Pophale) SiO2 
 PCOD9335302
Probable space group: I 21 21 21
;
_chemical_formula_sum "Si O2"
_cell_formula_units_Z 60
_cell_length_a 16.984328
_cell_length_b 20.558551
_cell_length_c 8.892438
_cell_angle_alpha 90.000000
_cell_angle_beta 90.000000
_cell_angle_gamma 90.000000
_cell_volume 3105.000796
_symmetry_space_group_name_H-M "I 21 21 21"
_symmetry_group_IT_number 24
_symmetry_cell_setting 'orthorhombic'
loop_
_space_group_symop_operation_xyz
x,y,z
-x,1/2-y,z
x,-y,1/2-z
1/2-x,y,-z
1/2+x,1/2+y,1/2+z
1/2-x,-y,1/2+z
1/2+x,1/2-y,-z
-x,1/2+y,1/2-z
loop_
_atom_site_type_symbol
_atom_site_label
_atom_site_fract_x
_atom_site_fract_y
_atom_site_fract_z
Si Si1 0.210061 0.787171 0.154678
Si Si2 0.792044 0.613842 0.643587
Si Si3 0.076717 0.110909 0.370772
Si Si4 0.807254 0.500000 0.250000
Si Si5 0.579276 0.927450 0.684339
Si Si6 0.948197 0.421835 0.721325
Si Si7 0.734300 0.153797 0.821854
Si Si8 0.112687 0.571449 0.676933
O O1 0.264803 0.845375 0.214000
O O2 0.123848 0.820760 0.146681
O O3 0.218876 0.725592 0.261489
O O4 0.250000 0.766362 0.000000
O O5 0.750000 0.645640 0.500000
O O6 0.752057 0.543320 0.653607
O O7 0.884865 0.606745 0.660921
O O8 0.065060 0.096618 0.547761
O O9 0.999415 0.104233 0.262104
O O10 0.135513 0.052637 0.323629
O O11 0.657380 0.887138 0.724807
O O12 0.590009 0.932837 0.501680
O O13 0.581568 0.000000 0.750000
O O14 0.946410 0.500000 0.750000
O O15 0.034855 0.397290 0.755105
O O16 0.812469 0.114305 0.776477
O O17 0.750000 0.157608 0.000000
O O18 0.123283 0.500000 0.750000
#
# Coordination Sequence:
#
# PCOD9335302 Si02
#       8
#     8   8   8   4   8   8   8   8
#     4  11  24  42  63  89 128 171 222 261 308 388
#     4  11  22  35  59  87 126 173 209 254 314 377
#     4  11  23  39  59  95 133 168 216 265 322 388
#     4  10  22  32  58  86 124 168 212 246 312 374
#     4  11  22  41  69  97 128 164 211 272 337 398
#     4  11  21  36  60  94 135 164 208 267 324 381
#     4  10  24  47  67  89 123 173 222 271 329 389
#     4  10  23  40  66  99 129 161 212 274 334 396
#
# _framework density 19.323665999999999
#
# number of rings (size 3 to 8) (size 9 to 14) (size 15 to 20)
#    0.000    1.333    2.667    3.200    3.733    2.667 
#    0.000    0.667    0.000    0.000    0.000    0.000 
#    0.000    0.000    0.000    0.000    0.000    0.000 
#
# Total GULP energy -167093.406329 kJ/mol
# GULP energy per Si atom -5569.780211 kJ/mol
# Density = 1.927968 g / cm^3
# Si number density = 19.323666 Si / 1000 Ang^3
#
#
#
# Elastic Constant Matrix: (Units=GPa)
#
#
# Indices 1 2 3 4 5 6 
#
# 1 164.3743 80.1370 37.9023 0.0000 0.0000 0.0000
# 2 80.1370 67.4685 18.7848 0.0000 0.0000 0.0000
# 3 37.9023 18.7848 39.4010 0.0000 0.0000 0.0000
# 4 0.0000 0.0000 0.0000 33.6075 0.0000 0.0000
# 5 0.0000 0.0000 0.0000 0.0000 -96.7427 0.0000
# 6 0.0000 0.0000 0.0000 0.0000 0.0000 -17.7664
#
#
#
# Elastic Compliance Matrix: (Units=1/GPa)
#
#
# Indices 1 2 3 4 5 6 
#
# 1 0.016109 -0.017087 -0.007350 0.000000 0.000000 0.000000
# 2 -0.017087 0.035216 -0.000352 0.000000 0.000000 0.000000
# 3 -0.007350 -0.000352 0.032618 0.000000 0.000000 0.000000
# 4 0.000000 0.000000 0.000000 0.029755 0.000000 0.000000
# 5 0.000000 0.000000 0.000000 0.000000 -0.010337 0.000000
# 6 0.000000 0.000000 0.000000 0.000000 0.000000 -0.056286
#
#
# Mechanical properties :
#
#
# Convention : Reuss Voigt Hill
#
# Bulk Modulus (GPa) = 29.09974 60.54353 44.82164
# Shear Modulus (GPa) = 46.25005 -7.21899 19.51553
#
# Velocity S-wave (km/s) = 4.89759 -1.93493 3.18139
# Velocity P-wave (km/s) = 6.86102 5.13881 6.06139
#
# Compressibility (1/GPa) = 0.03436457
#
# Stress axis : x y z
#
# Youngs Moduli (GPa) = 62.07710 28.39646 30.65797
#
# Poissons Ratio (x) = 0.48522 0.22533
# Poissons Ratio (y) = 1.06074 0.01079
# Poissons Ratio (z) = 0.45624 0.00999
#
# Static dielectric constant tensor:
#      x y z
#    x 1.698620 0.000000 0.000000 
#    y 0.000000 1.854560 0.000000 
#    z 0.000000 0.000000 1.813920 
# 
# From -- ./inp_files/14456.got.cif
#   From: 2010.05.17/outbox.cif.g08.bks.cpg/sg24_8_cif.got.tgz:14456.got - 2010.06.04 00:33:39.
