data_PCOD9335740
_publ_section_title
;
Structure prediction by ZEFSAII (Michael W. Deem and Ramdas Pophale) SiO2 
 PCOD9335740
Probable space group: I 21 21 21
;
_chemical_formula_sum "Si O2"
_cell_formula_units_Z 32
_cell_length_a 16.913843
_cell_length_b 13.683300
_cell_length_c 5.953269
_cell_angle_alpha 90.000000
_cell_angle_beta 90.000000
_cell_angle_gamma 90.000000
_cell_volume 1377.807836
_symmetry_space_group_name_H-M "I 21 21 21"
_symmetry_group_IT_number 24
_symmetry_cell_setting 'orthorhombic'
loop_
_space_group_symop_operation_xyz
x,y,z
-x,1/2-y,z
x,-y,1/2-z
1/2-x,y,-z
1/2+x,1/2+y,1/2+z
1/2-x,-y,1/2+z
1/2+x,1/2-y,-z
-x,1/2+y,1/2-z
loop_
_atom_site_type_symbol
_atom_site_label
_atom_site_fract_x
_atom_site_fract_y
_atom_site_fract_z
Si Si1 0.170997 0.900875 0.865574
Si Si2 0.250000 0.239017 0.000000
Si Si3 0.512983 0.644219 0.932341
Si Si4 0.367686 0.394362 0.864016
Si Si5 0.576688 0.000000 0.250000
O O1 0.194424 0.825208 0.666343
O O2 0.141993 0.000000 0.750000
O O3 0.250000 0.923702 0.000000
O O4 0.106450 0.869156 0.051648
O O5 0.195719 0.308983 0.157360
O O6 0.500000 0.750000 0.040631
O O7 0.455377 0.640577 0.715257
O O8 0.476279 0.556524 0.073795
O O9 0.348634 0.500000 0.750000
O O10 0.371352 0.419983 0.125828
#
# Coordination Sequence:
#
# PCOD9335740 Si02
#       5
#     8   4   8   8   4
#     4  12  26  46  74 107 148 193 244 305 367 436
#     4  12  26  48  76 110 146 194 244 300 378 438
#     4  11  23  44  69 105 144 188 240 297 360 439
#     4  10  25  45  72 108 143 189 241 303 364 436
#     4  10  22  44  70 100 140 190 234 298 362 426
#
# _framework density 23.225297999999999
#
# number of rings (size 3 to 8) (size 9 to 14) (size 15 to 20)
#    0.000    1.000    2.500    3.000    1.750   10.000 
#    4.500    0.000    0.000    0.000    0.000    0.000 
#    0.000    0.000    0.000    0.000    0.000    0.000 
#
# Total GULP energy -89302.519662 kJ/mol
# GULP energy per Si atom -5581.407479 kJ/mol
# Density = 2.317244 g / cm^3
# Si number density = 23.225298 Si / 1000 Ang^3
#
#
#
# Elastic Constant Matrix: (Units=GPa)
#
#
# Indices 1 2 3 4 5 6 
#
# 1 113.4124 50.9405 30.4813 0.0000 0.0000 0.0000
# 2 50.9405 114.2344 7.2117 0.0000 0.0000 0.0000
# 3 30.4813 7.2117 46.5843 0.0000 0.0000 0.0000
# 4 0.0000 0.0000 0.0000 32.0637 0.0000 0.0000
# 5 0.0000 0.0000 0.0000 0.0000 4.4985 0.0000
# 6 0.0000 0.0000 0.0000 0.0000 0.0000 30.0061
#
#
#
# Elastic Compliance Matrix: (Units=1/GPa)
#
#
# Indices 1 2 3 4 5 6 
#
# 1 0.013408 -0.005479 -0.007925 0.000000 0.000000 0.000000
# 2 -0.005479 0.011079 0.001870 0.000000 0.000000 0.000000
# 3 -0.007925 0.001870 0.026363 0.000000 0.000000 0.000000
# 4 0.000000 0.000000 0.000000 0.031188 0.000000 0.000000
# 5 0.000000 0.000000 0.000000 0.000000 0.222296 0.000000
# 6 0.000000 0.000000 0.000000 0.000000 0.000000 0.033327
#
#
# Mechanical properties :
#
#
# Convention : Reuss Voigt Hill
#
# Bulk Modulus (GPa) = 35.99516 50.16647 43.08082
# Shear Modulus (GPa) = 13.51391 25.68683 19.60037
#
# Velocity S-wave (km/s) = 2.41480 3.32924 2.90819
# Velocity P-wave (km/s) = 4.82772 6.03534 5.46499
#
# Compressibility (1/GPa) = 0.02778151
#
# Stress axis : x y z
#
# Youngs Moduli (GPa) = 74.58084 90.26032 37.93245
#
# Poissons Ratio (x) = 0.49452 0.30062
# Poissons Ratio (y) = 0.40862 -0.07093
# Poissons Ratio (z) = 0.59107 -0.16877
#
# Static dielectric constant tensor:
#      x y z
#    x 1.939610 0.000000 0.000000 
#    y 0.000000 1.934900 0.000000 
#    z 0.000000 0.000000 1.932100 
# 
# From -- ./inp_files/4375.got.cif
#   From: 2010.05.17/outbox.cif.g08.bks.cpg/sg24_3_cif.got.tgz:4375.got - 2010.06.04 00:33:39.
