data_PCOD9335533
_publ_section_title
;
Structure prediction by ZEFSAII (Michael W. Deem and Ramdas Pophale) SiO2 
 PCOD9335533
Probable space group: I 21 21 21
;
_chemical_formula_sum "Si O2"
_cell_formula_units_Z 48
_cell_length_a 13.066903
_cell_length_b 12.403394
_cell_length_c 13.688773
_cell_angle_alpha 90.000000
_cell_angle_beta 90.000000
_cell_angle_gamma 90.000000
_cell_volume 2218.593460
_symmetry_space_group_name_H-M "I 21 21 21"
_symmetry_group_IT_number 24
_symmetry_cell_setting 'orthorhombic'
loop_
_space_group_symop_operation_xyz
x,y,z
-x,1/2-y,z
x,-y,1/2-z
1/2-x,y,-z
1/2+x,1/2+y,1/2+z
1/2-x,-y,1/2+z
1/2+x,1/2-y,-z
-x,1/2+y,1/2-z
loop_
_atom_site_type_symbol
_atom_site_label
_atom_site_fract_x
_atom_site_fract_y
_atom_site_fract_z
Si Si1 0.206259 0.000000 0.250000
Si Si2 0.528785 0.871589 0.046446
Si Si3 0.500000 0.750000 0.703796
Si Si4 0.750000 0.823168 0.000000
Si Si5 0.500000 0.250000 0.068624
Si Si6 0.938715 0.426909 0.070696
Si Si7 0.400160 0.623051 0.258751
Si Si8 0.278450 0.776151 0.797170
O O1 0.142113 0.029500 0.151258
O O2 0.266376 0.107181 0.273432
O O3 0.500000 0.750000 0.011890
O O4 0.524631 0.865467 0.164477
O O5 0.648736 0.889862 0.023084
O O6 0.470844 0.968774 0.992246
O O7 0.517331 0.860086 0.641021
O O8 0.395792 0.769602 0.762638
O O9 0.725739 0.746902 0.910313
O O10 0.449402 0.337199 0.140769
O O11 0.578123 0.324598 0.003624
O O12 0.370664 0.500000 0.250000
O O13 0.296823 0.690544 0.249080
#
# Coordination Sequence:
#
# PCOD9335533 Si02
#       8
#     4   8   4   4   4   8   8   8
#     4  10  22  46  66 100 134 184 232 284 342 404
#     4  11  22  39  64  97 132 179 225 284 336 408
#     4   9  22  42  67  92 138 179 222 290 339 404
#     4  10  24  36  62  96 128 172 228 278 340 404
#     4  11  22  46  69 102 138 181 228 286 349 420
#     4  10  22  40  70  98 132 184 233 275 348 407
#     4  11  23  44  69 100 139 176 229 284 347 404
#     4  10  23  44  64 101 134 176 230 282 345 411
#
# _framework density 21.635327
#
# number of rings (size 3 to 8) (size 9 to 14) (size 15 to 20)
#    0.000    1.667    2.500    1.000    5.833    2.667 
#   13.500    5.833    0.000    0.000    0.000    0.000 
#    0.000    0.000    0.000    0.000    0.000    0.000 
#
# Total GULP energy -133673.370522 kJ/mol
# GULP energy per Si atom -5569.723772 kJ/mol
# Density = 2.158608 g / cm^3
# Si number density = 21.635327 Si / 1000 Ang^3
#
#
#
# Elastic Constant Matrix: (Units=GPa)
#
#
# Indices 1 2 3 4 5 6 
#
# 1 40.7382 12.3184 16.4086 0.0000 0.0000 0.0000
# 2 12.3184 154.1228 23.7771 0.0000 0.0000 0.0000
# 3 16.4086 23.7771 97.4542 0.0000 0.0000 0.0000
# 4 0.0000 0.0000 0.0000 7.4919 0.0000 0.0000
# 5 0.0000 0.0000 0.0000 0.0000 -24.5655 0.0000
# 6 0.0000 0.0000 0.0000 0.0000 0.0000 31.2614
#
#
#
# Elastic Compliance Matrix: (Units=1/GPa)
#
#
# Indices 1 2 3 4 5 6 
#
# 1 0.026660 -0.001495 -0.004124 0.000000 0.000000 0.000000
# 2 -0.001495 0.006826 -0.001414 0.000000 0.000000 0.000000
# 3 -0.004124 -0.001414 0.011301 0.000000 0.000000 0.000000
# 4 0.000000 0.000000 0.000000 0.133477 0.000000 0.000000
# 5 0.000000 0.000000 0.000000 0.000000 -0.040707 0.000000
# 6 0.000000 0.000000 0.000000 0.000000 0.000000 0.031988
#
#
# Mechanical properties :
#
#
# Convention : Reuss Voigt Hill
#
# Bulk Modulus (GPa) = 32.55049 44.14704 38.34877
# Shear Modulus (GPa) = 25.79316 18.82498 22.30907
#
# Velocity S-wave (km/s) = 3.45654 2.95295 3.21462
# Velocity P-wave (km/s) = 5.56848 5.66356 5.61622
#
# Compressibility (1/GPa) = 0.03072150
#
# Stress axis : x y z
#
# Youngs Moduli (GPa) = 37.50934 146.50102 88.49125
#
# Poissons Ratio (x) = 0.21896 0.36495
# Poissons Ratio (y) = 0.05606 0.12510
# Poissons Ratio (z) = 0.15469 0.20712
#
# Static dielectric constant tensor:
#      x y z
#    x 1.815850 0.000000 0.000000 
#    y 0.000000 1.842980 0.000000 
#    z 0.000000 0.000000 1.868190 
# 
# From -- ./inp_files/26486.got.cif
#   From: 2010.05.17/outbox.cif.g08.bks.cpg/sg24_14_cif.got.tgz:26486.got - 2010.06.04 00:33:39.
