data_PCOD9335051
_publ_section_title
;
Structure prediction by ZEFSAII (Michael W. Deem and Ramdas Pophale) SiO2 
 PCOD9335051
Probable space group: I 21 21 21
;
_chemical_formula_sum "Si O2"
_cell_formula_units_Z 44
_cell_length_a 24.958152
_cell_length_b 13.497392
_cell_length_c 5.236290
_cell_angle_alpha 90.000000
_cell_angle_beta 90.000000
_cell_angle_gamma 90.000000
_cell_volume 1763.948809
_symmetry_space_group_name_H-M "I 21 21 21"
_symmetry_group_IT_number 24
_symmetry_cell_setting 'orthorhombic'
loop_
_space_group_symop_operation_xyz
x,y,z
-x,1/2-y,z
x,-y,1/2-z
1/2-x,y,-z
1/2+x,1/2+y,1/2+z
1/2-x,-y,1/2+z
1/2+x,1/2-y,-z
-x,1/2+y,1/2-z
loop_
_atom_site_type_symbol
_atom_site_label
_atom_site_fract_x
_atom_site_fract_y
_atom_site_fract_z
Si Si1 0.601924 0.278098 0.502147
Si Si2 0.565666 0.898830 0.625784
Si Si3 0.661891 0.147392 0.131904
Si Si4 0.194610 0.089370 0.600474
Si Si5 0.250000 0.235031 0.000000
Si Si6 0.000000 0.750000 0.730841
Si Si7 0.250000 0.562264 0.000000
O O1 0.589857 0.184216 0.681840
O O2 0.625528 0.235452 0.238341
O O3 0.648587 0.357791 0.572278
O O4 0.542267 0.307553 0.414630
O O5 0.619286 0.929988 0.470372
O O6 0.525349 0.836279 0.447136
O O7 0.543986 0.000000 0.750000
O O8 0.701776 0.193021 0.921119
O O9 0.700351 0.116565 0.364428
O O10 0.250000 0.040897 0.500000
O O11 0.223704 0.170553 0.780042
O O12 0.166358 0.000000 0.750000
O O13 0.269125 0.500000 0.750000
#
# Coordination Sequence:
#
# PCOD9335051 Si02
#       7
#     8   8   8   8   4   4   4
#     4  10  24  44  73 100 148 195 259 337 405 484
#     4  11  25  47  79 106 150 207 267 345 417 493
#     4  10  25  39  64 102 146 201 252 312 398 467
#     4  11  22  41  69 107 151 199 260 322 403 497
#     4  10  21  40  63  96 148 202 250 321 385 474
#     4  10  24  52  68 112 146 196 274 344 424 498
#     4  12  29  42  65 108 164 206 264 315 377 490
#
# _framework density 24.944036000000001
#
# number of rings (size 3 to 8) (size 9 to 14) (size 15 to 20)
#    0.000    1.455    0.909    2.182   12.727    2.182 
#    6.545    0.000    0.000    0.000    0.000    0.000 
#    0.000    0.000    0.000    0.000    0.000    0.000 
#
# Total GULP energy -122568.698480 kJ/mol
# GULP energy per Si atom -5571.304476 kJ/mol
# Density = 2.488726 g / cm^3
# Si number density = 24.944036 Si / 1000 Ang^3
#
#
#
# Elastic Constant Matrix: (Units=GPa)
#
#
# Indices 1 2 3 4 5 6 
#
# 1 130.5003 34.4450 37.7955 0.0000 0.0000 0.0000
# 2 34.4450 102.9191 41.9052 0.0000 0.0000 0.0000
# 3 37.7955 41.9052 83.9465 0.0000 0.0000 0.0000
# 4 0.0000 0.0000 0.0000 53.5816 0.0000 0.0000
# 5 0.0000 0.0000 0.0000 0.0000 51.5880 0.0000
# 6 0.0000 0.0000 0.0000 0.0000 0.0000 19.0946
#
#
#
# Elastic Compliance Matrix: (Units=1/GPa)
#
#
# Indices 1 2 3 4 5 6 
#
# 1 0.009048 -0.001719 -0.003216 0.000000 0.000000 0.000000
# 2 -0.001719 0.012522 -0.005477 0.000000 0.000000 0.000000
# 3 -0.003216 -0.005477 0.016094 0.000000 0.000000 0.000000
# 4 0.000000 0.000000 0.000000 0.018663 0.000000 0.000000
# 5 0.000000 0.000000 0.000000 0.000000 0.019384 0.000000
# 6 0.000000 0.000000 0.000000 0.000000 0.000000 0.052371
#
#
# Mechanical properties :
#
#
# Convention : Reuss Voigt Hill
#
# Bulk Modulus (GPa) = 59.37875 60.62862 60.00369
# Shear Modulus (GPa) = 32.35872 38.40086 35.37979
#
# Velocity S-wave (km/s) = 3.60565 3.92788 3.77021
# Velocity P-wave (km/s) = 6.41800 6.70295 6.56202
#
# Compressibility (1/GPa) = 0.01684104
#
# Stress axis : x y z
#
# Youngs Moduli (GPa) = 110.52411 79.86206 62.13467
#
# Poissons Ratio (x) = 0.13727 0.19980
# Poissons Ratio (y) = 0.18997 0.34030
# Poissons Ratio (z) = 0.35540 0.43739
#
# Static dielectric constant tensor:
#      x y z
#    x 2.076820 0.000000 0.000000 
#    y 0.000000 2.081450 0.000000 
#    z 0.000000 0.000000 2.209310 
# 
# From -- ./inp_files/7068.got.cif
#   From: 2010.05.17/outbox.cif.g08.bks.cpg/sg24_4_cif.got.tgz:7068.got - 2010.06.04 00:33:39.
