data_PCOD9335469
_publ_section_title
;
Structure prediction by ZEFSAII (Michael W. Deem and Ramdas Pophale) SiO2 
 PCOD9335469
Probable space group: I 21 21 21
;
_chemical_formula_sum "Si O2"
_cell_formula_units_Z 60
_cell_length_a 23.874753
_cell_length_b 16.501738
_cell_length_c 6.997271
_cell_angle_alpha 90.000000
_cell_angle_beta 90.000000
_cell_angle_gamma 90.000000
_cell_volume 2756.749274
_symmetry_space_group_name_H-M "I 21 21 21"
_symmetry_group_IT_number 24
_symmetry_cell_setting 'orthorhombic'
loop_
_space_group_symop_operation_xyz
x,y,z
-x,1/2-y,z
x,-y,1/2-z
1/2-x,y,-z
1/2+x,1/2+y,1/2+z
1/2-x,-y,1/2+z
1/2+x,1/2-y,-z
-x,1/2+y,1/2-z
loop_
_atom_site_type_symbol
_atom_site_label
_atom_site_fract_x
_atom_site_fract_y
_atom_site_fract_z
Si Si1 0.152487 0.687415 0.569325
Si Si2 0.777038 0.678406 0.331826
Si Si3 0.549913 0.701817 0.520314
Si Si4 0.103622 0.420540 0.615017
Si Si5 0.973698 0.590365 0.839121
Si Si6 0.816576 0.916902 0.226210
Si Si7 0.113756 0.092226 0.315025
Si Si8 0.250000 0.279164 0.500000
O O1 0.194045 0.754657 0.473773
O O2 0.093937 0.729028 0.527030
O O3 0.141798 0.648718 0.778881
O O4 0.166004 0.612028 0.434147
O O5 0.750000 0.623037 0.500000
O O6 0.826370 0.637588 0.206548
O O7 0.735412 0.717720 0.174142
O O8 0.500000 0.750000 0.617843
O O9 0.532777 0.656539 0.327097
O O10 0.575789 0.635826 0.657614
O O11 0.105337 0.500000 0.750000
O O12 0.131202 0.435806 0.410315
O O13 0.037854 0.399472 0.587711
O O14 0.969965 0.500000 0.750000
O O15 0.922710 0.598456 0.990726
O O16 0.781839 0.000000 0.250000
O O17 0.787039 0.842075 0.121711
O O18 0.121581 0.000000 0.250000
#
# Coordination Sequence:
#
# PCOD9335469 Si02
#       8
#     8   8   8   8   8   8   8   4
#     4  10  22  40  61  96 131 169 220 275 328 394
#     4  10  23  46  72  94 130 173 222 294 350 400
#     4  11  23  41  66  99 138 180 224 268 329 394
#     4  11  22  36  61  94 138 180 221 263 322 395
#     4  11  24  41  66  99 140 184 220 270 329 404
#     4  11  23  40  64  96 132 178 226 276 331 403
#     4  11  25  45  72 104 135 176 229 283 341 409
#     4  10  24  46  66  96 130 174 228 286 350 404
#
# _framework density 21.764762999999999
#
# number of rings (size 3 to 8) (size 9 to 14) (size 15 to 20)
#    0.000    1.333    4.000    0.800    1.867    6.933 
#    6.000    0.000    0.000    0.000    0.000    0.000 
#    0.000    0.000    0.000    0.000    0.000    0.000 
#
# Total GULP energy -167105.024603 kJ/mol
# GULP energy per Si atom -5570.167487 kJ/mol
# Density = 2.171523 g / cm^3
# Si number density = 21.764763 Si / 1000 Ang^3
#
#
#
# Elastic Constant Matrix: (Units=GPa)
#
#
# Indices 1 2 3 4 5 6 
#
# 1 54.7375 4.6150 11.0800 0.0000 0.0000 0.0000
# 2 4.6150 71.2772 6.1602 0.0000 0.0000 0.0000
# 3 11.0800 6.1602 86.9221 0.0000 0.0000 0.0000
# 4 0.0000 0.0000 0.0000 28.2215 0.0000 0.0000
# 5 0.0000 0.0000 0.0000 0.0000 69.6852 0.0000
# 6 0.0000 0.0000 0.0000 0.0000 0.0000 -14.6033
#
#
#
# Elastic Compliance Matrix: (Units=1/GPa)
#
#
# Indices 1 2 3 4 5 6 
#
# 1 0.018826 -0.001018 -0.002328 0.000000 0.000000 0.000000
# 2 -0.001018 0.014171 -0.000875 0.000000 0.000000 0.000000
# 3 -0.002328 -0.000875 0.011863 0.000000 0.000000 0.000000
# 4 0.000000 0.000000 0.000000 0.035434 0.000000 0.000000
# 5 0.000000 0.000000 0.000000 0.000000 0.014350 0.000000
# 6 0.000000 0.000000 0.000000 0.000000 0.000000 -0.068477
#
#
# Mechanical properties :
#
#
# Convention : Reuss Voigt Hill
#
# Bulk Modulus (GPa) = 27.45707 28.51635 27.98671
# Shear Modulus (GPa) = 106.95811 29.39946 68.17878
#
# Velocity S-wave (km/s) = 7.01780 3.67929 5.60297
# Velocity P-wave (km/s) = 8.84922 5.58391 7.39894
#
# Compressibility (1/GPa) = 0.03642050
#
# Stress axis : x y z
#
# Youngs Moduli (GPa) = 53.11809 70.56556 84.29397
#
# Poissons Ratio (x) = 0.07182 0.19620
# Poissons Ratio (y) = 0.05406 0.07372
# Poissons Ratio (z) = 0.12364 0.06172
#
# Static dielectric constant tensor:
#      x y z
#    x 1.763950 0.000000 0.000000 
#    y 0.000000 1.790550 0.000000 
#    z 0.000000 0.000000 1.781560 
# 
# From -- ./inp_files/7297.got.cif
#   From: 2010.05.17/outbox.cif.g08.bks.cpg/sg24_4_cif.got.tgz:7297.got - 2010.06.04 00:33:39.
