data_PCOD9335171
_publ_section_title
;
Structure prediction by ZEFSAII (Michael W. Deem and Ramdas Pophale) SiO2 
 PCOD9335171
Probable space group: I 21 21 21
;
_chemical_formula_sum "Si O2"
_cell_formula_units_Z 36
_cell_length_a 11.705006
_cell_length_b 11.918951
_cell_length_c 9.003231
_cell_angle_alpha 90.000000
_cell_angle_beta 90.000000
_cell_angle_gamma 90.000000
_cell_volume 1256.053298
_symmetry_space_group_name_H-M "I 21 21 21"
_symmetry_group_IT_number 24
_symmetry_cell_setting 'orthorhombic'
loop_
_space_group_symop_operation_xyz
x,y,z
-x,1/2-y,z
x,-y,1/2-z
1/2-x,y,-z
1/2+x,1/2+y,1/2+z
1/2-x,-y,1/2+z
1/2+x,1/2-y,-z
-x,1/2+y,1/2-z
loop_
_atom_site_type_symbol
_atom_site_label
_atom_site_fract_x
_atom_site_fract_y
_atom_site_fract_z
Si Si1 0.500000 0.250000 0.796216
Si Si2 0.630896 0.439676 0.911833
Si Si3 0.702917 0.150062 0.303167
Si Si4 0.072735 0.434726 0.440806
Si Si5 0.250000 0.745895 0.500000
Si Si6 0.250000 0.142313 0.500000
O O1 0.482581 0.347669 0.674838
O O2 0.385589 0.213265 0.891901
O O3 0.663454 0.500000 0.750000
O O4 0.490468 0.446747 0.931854
O O5 0.644439 0.558521 0.009621
O O6 0.750000 0.385468 0.000000
O O7 0.800685 0.068440 0.366263
O O8 0.591989 0.112029 0.393279
O O9 0.695292 0.172280 0.129312
O O10 0.740383 0.272045 0.364750
#
# Coordination Sequence:
#
# PCOD9335171 Si02
#       6
#     4   8   8   8   4   4
#     4  12  22  40  72 114 150 202 256 316 374 470
#     4  11  24  40  76 113 149 199 259 309 383 444
#     4  10  22  44  72 111 149 196 249 313 377 449
#     4  10  21  41  76 107 144 202 254 303 379 460
#     4  11  24  46  72 115 158 189 252 326 363 454
#     4   9  22  42  70 107 148 197 260 304 367 464
#
# _framework density 28.661203
#
# number of rings (size 3 to 8) (size 9 to 14) (size 15 to 20)
#    0.000    1.778    2.222    3.333    3.111    2.667 
#    0.000   10.000    4.889    0.000   23.111    0.000 
#    0.000    0.000    0.000    0.000    0.000    0.000 
#
# Total GULP energy -100289.415789 kJ/mol
# GULP energy per Si atom -5571.634211 kJ/mol
# Density = 2.859597 g / cm^3
# Si number density = 28.661203 Si / 1000 Ang^3
#
#
#
# Elastic Constant Matrix: (Units=GPa)
#
#
# Indices 1 2 3 4 5 6 
#
# 1 146.6007 75.6167 78.5076 0.0000 0.0000 0.0000
# 2 75.6167 157.1427 75.2064 0.0000 0.0000 0.0000
# 3 78.5076 75.2064 255.4981 0.0000 0.0000 0.0000
# 4 0.0000 0.0000 0.0000 108.5510 0.0000 0.0000
# 5 0.0000 0.0000 0.0000 0.0000 54.7531 0.0000
# 6 0.0000 0.0000 0.0000 0.0000 0.0000 36.8393
#
#
#
# Elastic Compliance Matrix: (Units=1/GPa)
#
#
# Indices 1 2 3 4 5 6 
#
# 1 0.009799 -0.003811 -0.001889 0.000000 0.000000 0.000000
# 2 -0.003811 0.008889 -0.001446 0.000000 0.000000 0.000000
# 3 -0.001889 -0.001446 0.004920 0.000000 0.000000 0.000000
# 4 0.000000 0.000000 0.000000 0.009212 0.000000 0.000000
# 5 0.000000 0.000000 0.000000 0.000000 0.018264 0.000000
# 6 0.000000 0.000000 0.000000 0.000000 0.000000 0.027145
#
#
# Mechanical properties :
#
#
# Convention : Reuss Voigt Hill
#
# Bulk Modulus (GPa) = 107.33594 113.10031 110.21813
# Shear Modulus (GPa) = 52.28728 62.02274 57.15501
#
# Velocity S-wave (km/s) = 4.27584 4.65692 4.47045
# Velocity P-wave (km/s) = 7.86818 8.27422 8.07375
#
# Compressibility (1/GPa) = 0.00931654
#
# Stress axis : x y z
#
# Youngs Moduli (GPa) = 102.05557 112.49469 203.25652
#
# Poissons Ratio (x) = 0.42871 0.38397
# Poissons Ratio (y) = 0.38893 0.29382
# Poissons Ratio (z) = 0.19279 0.16262
#
# Static dielectric constant tensor:
#      x y z
#    x -0.931070 0.000000 0.000000 
#    y 0.000000 2.331090 0.000000 
#    z 0.000000 0.000000 4.019750 
# 
# From -- ./inp_files/10960.got.cif
#   From: 2010.05.17/outbox.cif.g08.bks.cpg/sg24_6_cif.got.tgz:10960.got - 2010.06.04 00:33:39.
