data_PCOD9335865
_publ_section_title
;
Structure prediction by ZEFSAII (Michael W. Deem and Ramdas Pophale) SiO2 
 PCOD9335865
Probable space group: I 21 21 21
;
_chemical_formula_sum "Si O2"
_cell_formula_units_Z 48
_cell_length_a 16.315427
_cell_length_b 15.345876
_cell_length_c 9.271464
_cell_angle_alpha 90.000000
_cell_angle_beta 90.000000
_cell_angle_gamma 90.000000
_cell_volume 2321.338345
_symmetry_space_group_name_H-M "I 21 21 21"
_symmetry_group_IT_number 24
_symmetry_cell_setting 'orthorhombic'
loop_
_space_group_symop_operation_xyz
x,y,z
-x,1/2-y,z
x,-y,1/2-z
1/2-x,y,-z
1/2+x,1/2+y,1/2+z
1/2-x,-y,1/2+z
1/2+x,1/2-y,-z
-x,1/2+y,1/2-z
loop_
_atom_site_type_symbol
_atom_site_label
_atom_site_fract_x
_atom_site_fract_y
_atom_site_fract_z
Si Si1 0.051226 0.089494 0.988306
Si Si2 0.413697 0.464837 0.409174
Si Si3 0.250000 0.366224 0.500000
Si Si4 0.635055 0.263902 0.605797
Si Si5 0.949855 0.669775 0.815161
Si Si6 0.000000 0.750000 0.317522
Si Si7 0.317991 0.952866 0.883815
O O1 0.039535 0.176027 0.082376
O O2 0.113934 0.018670 0.053556
O O3 0.079292 0.114686 0.824126
O O4 0.961533 0.043569 0.986013
O O5 0.395555 0.500000 0.250000
O O6 0.329549 0.424324 0.466909
O O7 0.484037 0.391062 0.395976
O O8 0.285048 0.296385 0.614985
O O9 0.607633 0.287272 0.439465
O O10 0.567620 0.216440 0.703246
O O11 0.646283 0.360917 0.665493
O O12 0.000000 0.750000 0.749279
O O13 0.277124 0.000000 0.750000
O O14 0.250000 0.932353 0.000000
#
# Coordination Sequence:
#
# PCOD9335865 Si02
#       7
#     8   8   4   8   8   4   8
#     4  11  25  43  70  96 132 172 223 280 328 395
#     4  10  23  40  65  96 126 174 221 264 328 391
#     4  12  24  40  62  96 134 170 212 266 318 394
#     4  12  24  40  67  95 131 170 221 270 327 395
#     4  11  20  41  69  93 121 173 226 270 322 397
#     4  12  24  44  66 100 128 176 222 272 336 388
#     4  12  27  44  65 101 138 174 219 277 341 396
#
# _framework density 20.677724999999999
#
# number of rings (size 3 to 8) (size 9 to 14) (size 15 to 20)
#    0.000    0.667    7.500    0.000    2.333    1.333 
#    0.000    0.000    1.833    0.000    0.000    0.000 
#    0.000    0.000    0.000    0.000    0.000    0.000 
#
# Total GULP energy -133777.601933 kJ/mol
# GULP energy per Si atom -5574.066747 kJ/mol
# Density = 2.063066 g / cm^3
# Si number density = 20.677725 Si / 1000 Ang^3
#
#
#
# Elastic Constant Matrix: (Units=GPa)
#
#
# Indices 1 2 3 4 5 6 
#
# 1 69.1013 6.4287 25.8442 0.0000 0.0000 0.0000
# 2 6.4287 69.0247 17.5847 0.0000 0.0000 0.0000
# 3 25.8442 17.5847 71.6152 0.0000 0.0000 0.0000
# 4 0.0000 0.0000 0.0000 18.9781 0.0000 0.0000
# 5 0.0000 0.0000 0.0000 0.0000 9.7520 0.0000
# 6 0.0000 0.0000 0.0000 0.0000 0.0000 -4.5941
#
#
#
# Elastic Compliance Matrix: (Units=1/GPa)
#
#
# Indices 1 2 3 4 5 6 
#
# 1 0.016730 -0.000021 -0.006032 0.000000 0.000000 0.000000
# 2 -0.000021 0.015454 -0.003787 0.000000 0.000000 0.000000
# 3 -0.006032 -0.003787 0.017070 0.000000 0.000000 0.000000
# 4 0.000000 0.000000 0.000000 0.052692 0.000000 0.000000
# 5 0.000000 0.000000 0.000000 0.000000 0.102543 0.000000
# 6 0.000000 0.000000 0.000000 0.000000 0.000000 -0.217670
#
#
# Mechanical properties :
#
#
# Convention : Reuss Voigt Hill
#
# Bulk Modulus (GPa) = 33.81441 34.38405 34.09923
# Shear Modulus (GPa) = 305.65461 15.48610 160.57035
#
# Velocity S-wave (km/s) = 12.17124 2.73962 8.82170
# Velocity P-wave (km/s) = 14.62558 5.16450 10.96767
#
# Compressibility (1/GPa) = 0.02957319
#
# Stress axis : x y z
#
# Youngs Moduli (GPa) = 59.77462 64.70677 58.58156
#
# Poissons Ratio (x) = 0.00138 0.35337
# Poissons Ratio (y) = 0.00128 0.22185
# Poissons Ratio (z) = 0.36056 0.24505
#
# Static dielectric constant tensor:
#      x y z
#    x 1.753980 0.000000 0.000000 
#    y 0.000000 1.791680 0.000000 
#    z 0.000000 0.000000 1.765110 
# 
# From -- ./inp_files/14219.got.cif
#   From: 2010.05.17/outbox.cif.g08.bks.cpg/sg24_8_cif.got.tgz:14219.got - 2010.06.04 00:33:39.
