data_PCOD9335802
_publ_section_title
;
Structure prediction by ZEFSAII (Michael W. Deem and Ramdas Pophale) SiO2 
 PCOD9335802
Probable space group: I 21 21 21
;
_chemical_formula_sum "Si O2"
_cell_formula_units_Z 28
_cell_length_a 7.750611
_cell_length_b 7.742387
_cell_length_c 21.443322
_cell_angle_alpha 90.000000
_cell_angle_beta 90.000000
_cell_angle_gamma 90.000000
_cell_volume 1286.775795
_symmetry_space_group_name_H-M "I 21 21 21"
_symmetry_group_IT_number 24
_symmetry_cell_setting 'orthorhombic'
loop_
_space_group_symop_operation_xyz
x,y,z
-x,1/2-y,z
x,-y,1/2-z
1/2-x,y,-z
1/2+x,1/2+y,1/2+z
1/2-x,-y,1/2+z
1/2+x,1/2-y,-z
-x,1/2+y,1/2-z
loop_
_atom_site_type_symbol
_atom_site_label
_atom_site_fract_x
_atom_site_fract_y
_atom_site_fract_z
Si Si1 0.815494 0.699377 0.662571
Si Si2 0.273937 0.905415 0.926546
Si Si3 0.948665 0.500000 0.250000
Si Si4 0.647229 0.948731 0.872735
O O1 0.833305 0.547385 0.611587
O O2 0.678066 0.630372 0.713090
O O3 0.000000 0.750000 0.690783
O O4 0.741930 0.869248 0.628939
O O5 0.474260 0.954000 0.914074
O O6 0.247451 0.716222 0.896376
O O7 0.250000 0.902046 0.000000
O O8 0.073065 0.424044 0.303023
#
# Coordination Sequence:
#
# PCOD9335802 Si02
#       4
#     8   8   4   8
#     4  11  26  42  65 106 139 180 230 296 348 407
#     4  10  23  43  69 102 135 184 239 272 346 427
#     4  10  22  46  70  96 138 182 242 270 366 420
#     4  10  24  43  73  97 132 193 224 291 354 408
#
# _framework density 21.759812
#
# number of rings (size 3 to 8) (size 9 to 14) (size 15 to 20)
#    0.000    1.714    0.000    3.429   16.000   10.286 
#    0.000    0.000    0.000    0.000    0.000    0.000 
#    0.000    0.000    0.000    0.000    0.000    0.000 
#
# Total GULP energy -78276.242210 kJ/mol
# GULP energy per Si atom -5591.160158 kJ/mol
# Density = 2.171029 g / cm^3
# Si number density = 21.759812 Si / 1000 Ang^3
#
#
#
# Elastic Constant Matrix: (Units=GPa)
#
#
# Indices 1 2 3 4 5 6 
#
# 1 18.2873 24.4902 26.7780 0.0000 0.0000 0.0000
# 2 24.4902 155.0977 53.8824 0.0000 0.0000 0.0000
# 3 26.7780 53.8824 177.0242 0.0000 0.0000 0.0000
# 4 0.0000 0.0000 0.0000 27.0337 0.0000 0.0000
# 5 0.0000 0.0000 0.0000 0.0000 -110.7219 0.0000
# 6 0.0000 0.0000 0.0000 0.0000 0.0000 13.5652
#
#
#
# Elastic Compliance Matrix: (Units=1/GPa)
#
#
# Indices 1 2 3 4 5 6 
#
# 1 0.081224 -0.009569 -0.009374 0.000000 0.000000 0.000000
# 2 -0.009569 0.008337 -0.001090 0.000000 0.000000 0.000000
# 3 -0.009374 -0.001090 0.007399 0.000000 0.000000 0.000000
# 4 0.000000 0.000000 0.000000 0.036991 0.000000 0.000000
# 5 0.000000 0.000000 0.000000 0.000000 -0.009032 0.000000
# 6 0.000000 0.000000 0.000000 0.000000 0.000000 0.073718
#
#
# Mechanical properties :
#
#
# Convention : Reuss Voigt Hill
#
# Bulk Modulus (GPa) = 17.57664 62.30113 39.93889
# Shear Modulus (GPa) = 19.40488 2.32597 10.86542
#
# Velocity S-wave (km/s) = 2.98950 1.03501 2.23700
# Velocity P-wave (km/s) = 4.47340 5.48833 5.00665
#
# Compressibility (1/GPa) = 0.05689369
#
# Stress axis : x y z
#
# Youngs Moduli (GPa) = 12.31170 119.94393 135.15774
#
# Poissons Ratio (x) = 1.14771 1.26696
# Poissons Ratio (y) = 0.11781 0.14735
# Poissons Ratio (z) = 0.11541 0.13077
#
# Static dielectric constant tensor:
#      x y z
#    x 1.815800 0.000000 0.000000 
#    y 0.000000 1.876800 0.000000 
#    z 0.000000 0.000000 1.756300 
# 
# From -- ./inp_files/32419.got.cif
#   From: 2010.05.17/outbox.cif.g08.bks.cpg/sg24_17_cif.got.tgz:32419.got - 2010.06.04 00:33:39.
