data_PCOD9335092
_publ_section_title
;
Structure prediction by ZEFSAII (Michael W. Deem and Ramdas Pophale) SiO2 
 PCOD9335092
Probable space group: I 21 21 21
;
_chemical_formula_sum "Si O2"
_cell_formula_units_Z 32
_cell_length_a 5.076241
_cell_length_b 15.293191
_cell_length_c 18.672371
_cell_angle_alpha 90.000000
_cell_angle_beta 90.000000
_cell_angle_gamma 90.000000
_cell_volume 1449.572071
_symmetry_space_group_name_H-M "I 21 21 21"
_symmetry_group_IT_number 24
_symmetry_cell_setting 'orthorhombic'
loop_
_space_group_symop_operation_xyz
x,y,z
-x,1/2-y,z
x,-y,1/2-z
1/2-x,y,-z
1/2+x,1/2+y,1/2+z
1/2-x,-y,1/2+z
1/2+x,1/2-y,-z
-x,1/2+y,1/2-z
loop_
_atom_site_type_symbol
_atom_site_label
_atom_site_fract_x
_atom_site_fract_y
_atom_site_fract_z
Si Si1 0.890044 0.415743 0.703470
Si Si2 0.498308 0.853088 0.050625
Si Si3 0.372539 0.654844 0.728835
Si Si4 0.253158 0.314362 0.922814
O O1 0.967755 0.500000 0.750000
O O2 0.951141 0.414370 0.619397
O O3 0.587236 0.397634 0.724708
O O4 0.092426 0.344272 0.733542
O O5 0.500000 0.750000 0.074108
O O6 0.250000 0.863257 0.000000
O O7 0.750000 0.868943 0.000000
O O8 0.500000 0.750000 0.723576
O O9 0.314534 0.627386 0.646620
O O10 0.500000 0.250000 0.930936
O O11 0.000000 0.250000 0.910539
O O12 0.250000 0.361504 0.000000
#
# Coordination Sequence:
#
# PCOD9335092 Si02
#       4
#     8   8   8   8
#     4  12  25  41  61  93 132 162 200 266 340 397
#     4  10  21  40  67  94 121 162 217 270 316 376
#     4  11  21  38  63  88 117 163 215 257 308 384
#     4   9  17  31  53  83 116 149 195 251 293 341
#
# _framework density 22.075479000000001
#
# number of rings (size 3 to 8) (size 9 to 14) (size 15 to 20)
#    0.000    1.500    0.000    7.500    0.000    2.000 
#    0.000    3.750    0.000    0.000    0.000    0.000 
#    0.000    0.000    0.000    0.000    0.000    0.000 
#
# Total GULP energy -89235.196952 kJ/mol
# GULP energy per Si atom -5577.199809 kJ/mol
# Density = 2.202523 g / cm^3
# Si number density = 22.075479 Si / 1000 Ang^3
#
#
#
# Elastic Constant Matrix: (Units=GPa)
#
#
# Indices 1 2 3 4 5 6 
#
# 1 147.5925 17.6248 42.6831 0.0000 0.0000 0.0000
# 2 17.6248 54.5144 39.2980 0.0000 0.0000 0.0000
# 3 42.6831 39.2980 187.8824 0.0000 0.0000 0.0000
# 4 0.0000 0.0000 0.0000 30.5154 0.0000 0.0000
# 5 0.0000 0.0000 0.0000 0.0000 291.8211 0.0000
# 6 0.0000 0.0000 0.0000 0.0000 0.0000 11.8708
#
#
#
# Elastic Compliance Matrix: (Units=1/GPa)
#
#
# Indices 1 2 3 4 5 6 
#
# 1 0.007339 -0.001379 -0.001379 0.000000 0.000000 0.000000
# 2 -0.001379 0.021860 -0.004259 0.000000 0.000000 0.000000
# 3 -0.001379 -0.004259 0.006527 0.000000 0.000000 0.000000
# 4 0.000000 0.000000 0.000000 0.032770 0.000000 0.000000
# 5 0.000000 0.000000 0.000000 0.000000 0.003427 0.000000
# 6 0.000000 0.000000 0.000000 0.000000 0.000000 0.084241
#
#
# Mechanical properties :
#
#
# Convention : Reuss Voigt Hill
#
# Bulk Modulus (GPa) = 46.10006 65.46677 55.78342
# Shear Modulus (GPa) = 28.18068 86.20036 57.19052
#
# Velocity S-wave (km/s) = 3.57677 6.25562 5.09540
# Velocity P-wave (km/s) = 6.16328 9.04971 7.74220
#
# Compressibility (1/GPa) = 0.02169195
#
# Stress axis : x y z
#
# Youngs Moduli (GPa) = 136.26192 45.74622 153.22021
#
# Poissons Ratio (x) = 0.06307 0.21127
# Poissons Ratio (y) = 0.18786 0.65257
# Poissons Ratio (z) = 0.18789 0.19483
#
# Static dielectric constant tensor:
#      x y z
#    x 1.776230 0.000000 0.000000 
#    y 0.000000 1.265560 0.000000 
#    z 0.000000 0.000000 1.851340 
# 
# From -- ./inp_files/3073.got.cif
#   From: 2010.05.17/outbox.cif.g08.bks.cpg/sg24_2_cif.got.tgz:3073.got - 2010.06.04 00:33:39.
