data_PCOD9335034
_publ_section_title
;
Structure prediction by ZEFSAII (Michael W. Deem and Ramdas Pophale) SiO2 
 PCOD9335034
Probable space group: I 21 21 21
;
_chemical_formula_sum "Si O2"
_cell_formula_units_Z 56
_cell_length_a 21.454304
_cell_length_b 18.029393
_cell_length_c 5.263084
_cell_angle_alpha 90.000000
_cell_angle_beta 90.000000
_cell_angle_gamma 90.000000
_cell_volume 2035.803408
_symmetry_space_group_name_H-M "I 21 21 21"
_symmetry_group_IT_number 24
_symmetry_cell_setting 'orthorhombic'
loop_
_space_group_symop_operation_xyz
x,y,z
-x,1/2-y,z
x,-y,1/2-z
1/2-x,y,-z
1/2+x,1/2+y,1/2+z
1/2-x,-y,1/2+z
1/2+x,1/2-y,-z
-x,1/2+y,1/2-z
loop_
_atom_site_type_symbol
_atom_site_label
_atom_site_fract_x
_atom_site_fract_y
_atom_site_fract_z
Si Si1 0.085984 0.936071 0.952525
Si Si2 0.214219 0.081489 0.269294
Si Si3 0.011750 0.335005 0.082505
Si Si4 0.181770 0.681842 0.543245
Si Si5 0.050953 0.589168 0.938078
Si Si6 0.120986 0.835339 0.534636
Si Si7 0.818333 0.084648 0.455780
O O1 0.094109 0.857131 0.808618
O O2 0.013137 0.952864 0.000942
O O3 0.101374 0.000000 0.750000
O O4 0.145724 0.936506 0.124909
O O5 0.250000 0.123147 0.500000
O O6 0.187490 0.124390 0.020376
O O7 0.245152 0.000000 0.250000
O O8 0.939541 0.360388 0.129443
O O9 0.000000 0.250000 0.012634
O O10 0.048161 0.346818 0.345725
O O11 0.042932 0.379024 0.847300
O O12 0.250000 0.715239 0.500000
O O13 0.134078 0.748543 0.506325
O O14 0.179543 0.648664 0.826759
O O15 0.178759 0.618277 0.327176
O O16 0.115417 0.546037 0.987674
O O17 0.750000 0.048220 0.500000
#
# Coordination Sequence:
#
# PCOD9335034 Si02
#       7
#     8   8   8   8   8   8   8
#     4  11  24  43  60  84 118 156 207 263 314 361
#     4  12  26  41  61  83 113 161 211 266 312 354
#     4  11  22  37  59  88 123 156 199 251 301 360
#     4  10  23  37  59  87 127 163 197 243 299 365
#     4  11  22  38  62  89 116 160 201 244 310 369
#     4  11  24  38  57  85 117 159 206 255 303 363
#     4  10  21  40  60  91 126 160 195 242 299 373
#
# _framework density 27.507570000000001
#
# number of rings (size 3 to 8) (size 9 to 14) (size 15 to 20)
#    0.000    1.143    2.857    3.429    4.000    1.714 
#    0.000    0.000    0.000    0.000    0.000    8.000 
#    0.000    0.000    0.000    0.000    0.000    0.000 
#
# Total GULP energy -156408.126441 kJ/mol
# GULP energy per Si atom -5586.004516 kJ/mol
# Density = 2.744496 g / cm^3
# Si number density = 27.507570 Si / 1000 Ang^3
#
#
#
# Elastic Constant Matrix: (Units=GPa)
#
#
# Indices 1 2 3 4 5 6 
#
# 1 198.2995 1.4762 18.3361 0.0000 0.0000 0.0000
# 2 1.4762 57.4738 28.0136 0.0000 0.0000 0.0000
# 3 18.3361 28.0136 139.9195 0.0000 0.0000 0.0000
# 4 0.0000 0.0000 0.0000 32.6133 0.0000 0.0000
# 5 0.0000 0.0000 0.0000 0.0000 53.6030 0.0000
# 6 0.0000 0.0000 0.0000 0.0000 0.0000 23.3932
#
#
#
# Elastic Compliance Matrix: (Units=1/GPa)
#
#
# Indices 1 2 3 4 5 6 
#
# 1 0.005107 0.000216 -0.000713 0.000000 0.000000 0.000000
# 2 0.000216 0.019290 -0.003890 0.000000 0.000000 0.000000
# 3 -0.000713 -0.003890 0.008019 0.000000 0.000000 0.000000
# 4 0.000000 0.000000 0.000000 0.030662 0.000000 0.000000
# 5 0.000000 0.000000 0.000000 0.000000 0.018656 0.000000
# 6 0.000000 0.000000 0.000000 0.000000 0.000000 0.042747
#
#
# Mechanical properties :
#
#
# Convention : Reuss Voigt Hill
#
# Bulk Modulus (GPa) = 42.29637 54.59382 48.44509
# Shear Modulus (GPa) = 35.42675 45.11304 40.26990
#
# Velocity S-wave (km/s) = 3.59261 4.05411 3.83032
# Velocity P-wave (km/s) = 5.71129 6.46563 6.10013
#
# Compressibility (1/GPa) = 0.02364269
#
# Stress axis : x y z
#
# Youngs Moduli (GPa) = 195.80369 51.84057 124.69992
#
# Poissons Ratio (x) = -0.01120 0.08886
# Poissons Ratio (y) = -0.04232 0.48513
# Poissons Ratio (z) = 0.13952 0.20168
#
# Static dielectric constant tensor:
#      x y z
#    x 2.253090 0.000000 0.000000 
#    y 0.000000 2.120590 0.000000 
#    z 0.000000 0.000000 2.022110 
# 
# From -- ./inp_files/5795.got.cif
#   From: 2010.05.17/outbox.cif.g08.bks.cpg/sg24_3_cif.got.tgz:5795.got - 2010.06.04 00:33:39.
