data_PCOD9335297
_publ_section_title
;
Structure prediction by ZEFSAII (Michael W. Deem and Ramdas Pophale) SiO2 
 PCOD9335297
Probable space group: I 21 21 21
;
_chemical_formula_sum "Si O2"
_cell_formula_units_Z 40
_cell_length_a 5.607814
_cell_length_b 27.546472
_cell_length_c 11.259413
_cell_angle_alpha 90.000000
_cell_angle_beta 90.000000
_cell_angle_gamma 90.000000
_cell_volume 1739.303355
_symmetry_space_group_name_H-M "I 21 21 21"
_symmetry_group_IT_number 24
_symmetry_cell_setting 'orthorhombic'
loop_
_space_group_symop_operation_xyz
x,y,z
-x,1/2-y,z
x,-y,1/2-z
1/2-x,y,-z
1/2+x,1/2+y,1/2+z
1/2-x,-y,1/2+z
1/2+x,1/2-y,-z
-x,1/2+y,1/2-z
loop_
_atom_site_type_symbol
_atom_site_label
_atom_site_fract_x
_atom_site_fract_y
_atom_site_fract_z
Si Si1 0.750000 0.427408 0.500000
Si Si2 0.745252 0.726324 0.644659
Si Si3 0.287137 0.882968 0.359838
Si Si4 0.250000 0.718980 0.000000
Si Si5 0.619564 0.870113 0.161380
Si Si6 0.474523 0.548297 0.795276
O O1 0.596721 0.390584 0.417992
O O2 0.640490 0.464448 0.594970
O O3 0.500000 0.750000 0.685227
O O4 0.750000 0.728226 0.500000
O O5 0.709125 0.670716 0.681566
O O6 0.000000 0.750000 0.682033
O O7 0.250000 0.884583 0.500000
O O8 0.549757 0.879480 0.300309
O O9 0.134587 0.925789 0.303667
O O10 0.500000 0.750000 0.986441
O O11 0.199767 0.681909 0.889058
O O12 0.823618 0.909321 0.145369
O O13 0.346863 0.500000 0.750000
#
# Coordination Sequence:
#
# PCOD9335297 Si02
#       6
#     4   8   8   4   8   8
#     4  10  21  48  74  96 154 194 254 323 414 454
#     4   9  19  38  64  92 135 189 230 282 361 442
#     4  10  25  45  68 106 153 191 250 315 388 483
#     4  12  27  48  84 124 156 214 280 337 410 480
#     4  11  24  48  73 109 154 197 255 346 387 484
#     4  11  25  44  76 104 143 203 257 324 403 472
#
# _framework density 22.997712
#
# number of rings (size 3 to 8) (size 9 to 14) (size 15 to 20)
#    0.000    1.600    2.000    0.600    7.000    4.800 
#    3.600    0.000    0.000    0.000    0.000    0.000 
#    0.000    0.000    0.000    0.000    0.000    0.000 
#
# Total GULP energy -111413.013109 kJ/mol
# GULP energy per Si atom -5570.650655 kJ/mol
# Density = 2.294537 g / cm^3
# Si number density = 22.997712 Si / 1000 Ang^3
#
#
#
# Elastic Constant Matrix: (Units=GPa)
#
#
# Indices 1 2 3 4 5 6 
#
# 1 81.9340 37.8003 19.2991 0.0000 0.0000 0.0000
# 2 37.8003 102.1944 21.6880 0.0000 0.0000 0.0000
# 3 19.2991 21.6880 98.8172 0.0001 0.0000 0.0000
# 4 0.0000 0.0000 0.0001 113.7713 0.0000 0.0000
# 5 0.0000 0.0000 0.0000 0.0000 10.6356 0.0000
# 6 0.0000 0.0000 0.0000 0.0000 0.0000 33.8001
#
#
#
# Elastic Compliance Matrix: (Units=1/GPa)
#
#
# Indices 1 2 3 4 5 6 
#
# 1 0.015014 -0.005172 -0.001797 0.000000 0.000000 0.000000
# 2 -0.005172 0.012045 -0.001633 0.000000 0.000000 0.000000
# 3 -0.001797 -0.001633 0.010829 0.000000 0.000000 0.000000
# 4 0.000000 0.000000 0.000000 0.008790 0.000000 0.000000
# 5 0.000000 0.000000 0.000000 0.000000 0.094024 0.000000
# 6 0.000000 0.000000 0.000000 0.000000 0.000000 0.029586
#
#
# Mechanical properties :
#
#
# Convention : Reuss Voigt Hill
#
# Bulk Modulus (GPa) = 48.34888 48.94672 48.64780
# Shear Modulus (GPa) = 25.72179 45.25195 35.48687
#
# Velocity S-wave (km/s) = 3.34795 4.44066 3.93244
# Velocity P-wave (km/s) = 6.00117 6.90088 6.46669
#
# Compressibility (1/GPa) = 0.02068300
#
# Stress axis : x y z
#
# Youngs Moduli (GPa) = 66.60235 83.02151 92.34304
#
# Poissons Ratio (x) = 0.42941 0.16596
# Poissons Ratio (y) = 0.34448 0.15084
# Poissons Ratio (z) = 0.11970 0.13561
#
# Static dielectric constant tensor:
#      x y z
#    x 1.619760 0.000000 0.000000 
#    y 0.000000 1.894480 0.000000 
#    z 0.000000 0.000000 1.844240 
# 
# From -- ./inp_files/17633.got.cif
#   From: 2010.05.17/outbox.cif.g08.bks.cpg/sg24_9_cif.got.tgz:17633.got - 2010.06.04 00:33:39.
