data_PCOD9335619
_publ_section_title
;
Structure prediction by ZEFSAII (Michael W. Deem and Ramdas Pophale) SiO2 
 PCOD9335619
Probable space group: I 21 21 21
;
_chemical_formula_sum "Si O2"
_cell_formula_units_Z 32
_cell_length_a 8.853199
_cell_length_b 14.013336
_cell_length_c 12.540724
_cell_angle_alpha 90.000000
_cell_angle_beta 90.000000
_cell_angle_gamma 90.000000
_cell_volume 1555.837989
_symmetry_space_group_name_H-M "I 21 21 21"
_symmetry_group_IT_number 24
_symmetry_cell_setting 'orthorhombic'
loop_
_space_group_symop_operation_xyz
x,y,z
-x,1/2-y,z
x,-y,1/2-z
1/2-x,y,-z
1/2+x,1/2+y,1/2+z
1/2-x,-y,1/2+z
1/2+x,1/2-y,-z
-x,1/2+y,1/2-z
loop_
_atom_site_type_symbol
_atom_site_label
_atom_site_fract_x
_atom_site_fract_y
_atom_site_fract_z
Si Si1 0.329305 0.769995 0.603420
Si Si2 0.772026 0.114524 0.750111
Si Si3 0.500000 0.250000 0.363515
Si Si4 0.564553 0.396452 0.700866
Si Si5 0.750000 0.646280 0.000000
O O1 0.500000 0.750000 0.571104
O O2 0.250000 0.813721 0.500000
O O3 0.254095 0.669226 0.637629
O O4 0.344566 0.832928 0.711691
O O5 0.610809 0.137497 0.690107
O O6 0.918612 0.166129 0.702405
O O7 0.790253 0.000000 0.750000
O O8 0.630725 0.291639 0.436042
O O9 0.550313 0.500000 0.750000
O O10 0.652560 0.405588 0.590500
#
# Coordination Sequence:
#
# PCOD9335619 Si02
#       5
#     8   8   4   8   4
#     4  10  22  42  66  92 133 176 216 271 328 387
#     4  10  23  47  66  96 133 174 224 273 333 398
#     4  12  24  42  70  94 136 170 228 272 334 394
#     4  10  23  44  67 100 136 174 221 273 333 393
#     4  12  24  40  70  98 132 180 214 280 328 394
#
# _framework density 20.567692999999998
#
# number of rings (size 3 to 8) (size 9 to 14) (size 15 to 20)
#    0.000    1.500    2.500    1.500    5.250    1.000 
#   15.750    0.000    0.000    0.000    0.000    0.000 
#    0.000    0.000    0.000    0.000    0.000    0.000 
#
# Total GULP energy -89230.029780 kJ/mol
# GULP energy per Si atom -5576.876861 kJ/mol
# Density = 2.052088 g / cm^3
# Si number density = 20.567693 Si / 1000 Ang^3
#
#
#
# Elastic Constant Matrix: (Units=GPa)
#
#
# Indices 1 2 3 4 5 6 
#
# 1 114.0755 45.7641 68.7075 0.0000 0.0000 0.0000
# 2 45.7641 108.0683 36.4833 0.0000 0.0000 0.0000
# 3 68.7075 36.4833 94.3712 0.0000 0.0000 0.0000
# 4 0.0000 0.0000 0.0000 32.3862 0.0000 0.0000
# 5 0.0000 0.0000 0.0000 0.0000 25.7807 0.0000
# 6 0.0000 0.0000 0.0000 0.0000 0.0000 31.3688
#
#
#
# Elastic Compliance Matrix: (Units=1/GPa)
#
#
# Indices 1 2 3 4 5 6 
#
# 1 0.016631 -0.003399 -0.010794 0.000000 0.000000 0.000000
# 2 -0.003399 0.011337 -0.001908 0.000000 0.000000 0.000000
# 3 -0.010794 -0.001908 0.019193 0.000000 0.000000 0.000000
# 4 0.000000 0.000000 0.000000 0.030877 0.000000 0.000000
# 5 0.000000 0.000000 0.000000 0.000000 0.038789 0.000000
# 6 0.000000 0.000000 0.000000 0.000000 0.000000 0.031879
#
#
# Mechanical properties :
#
#
# Convention : Reuss Voigt Hill
#
# Bulk Modulus (GPa) = 66.85293 68.71388 67.78341
# Shear Modulus (GPa) = 26.89691 28.94448 27.92069
#
# Velocity S-wave (km/s) = 3.62017 3.75544 3.68843
# Velocity P-wave (km/s) = 7.07451 7.23088 7.15312
#
# Compressibility (1/GPa) = 0.01495821
#
# Stress axis : x y z
#
# Youngs Moduli (GPa) = 60.12844 88.20747 52.10192
#
# Poissons Ratio (x) = 0.29979 0.56241
# Poissons Ratio (y) = 0.20436 0.09943
# Poissons Ratio (z) = 0.64905 0.16833
#
# Static dielectric constant tensor:
#      x y z
#    x 1.782030 0.000000 0.000000 
#    y 0.000000 1.754940 0.000000 
#    z 0.000000 0.000000 1.745280 
# 
# From -- ./inp_files/10311.got.cif
#   From: 2010.05.17/outbox.cif.g08.bks.cpg/sg24_6_cif.got.tgz:10311.got - 2010.06.04 00:33:39.
