data_PCOD9335785
_publ_section_title
;
Structure prediction by ZEFSAII (Michael W. Deem and Ramdas Pophale) SiO2 
 PCOD9335785
Probable space group: I 21 21 21
;
_chemical_formula_sum "Si O2"
_cell_formula_units_Z 32
_cell_length_a 5.177592
_cell_length_b 21.410339
_cell_length_c 11.664226
_cell_angle_alpha 90.000000
_cell_angle_beta 90.000000
_cell_angle_gamma 90.000000
_cell_volume 1293.026108
_symmetry_space_group_name_H-M "I 21 21 21"
_symmetry_group_IT_number 24
_symmetry_cell_setting 'orthorhombic'
loop_
_space_group_symop_operation_xyz
x,y,z
-x,1/2-y,z
x,-y,1/2-z
1/2-x,y,-z
1/2+x,1/2+y,1/2+z
1/2-x,-y,1/2+z
1/2+x,1/2-y,-z
-x,1/2+y,1/2-z
loop_
_atom_site_type_symbol
_atom_site_label
_atom_site_fract_x
_atom_site_fract_y
_atom_site_fract_z
Si Si1 0.320130 0.196653 0.244611
Si Si2 0.750000 0.103429 0.500000
Si Si3 0.250000 0.811310 0.000000
Si Si4 0.143468 0.433358 0.743988
Si Si5 0.006497 0.626656 0.422244
O O1 0.500000 0.250000 0.193370
O O2 0.254484 0.219200 0.374083
O O3 0.468597 0.129276 0.249091
O O4 0.079107 0.180543 0.165454
O O5 0.501575 0.146687 0.500607
O O6 0.739932 0.066374 0.617175
O O7 0.001245 0.500000 0.750000
O O8 0.367253 0.426062 0.839580
O O9 0.750000 0.611347 0.500000
O O10 0.250000 0.645058 0.500000
#
# Coordination Sequence:
#
# PCOD9335785 Si02
#       5
#     8   4   4   8   8
#     4  11  26  51  81 117 157 202 264 325 396 466
#     4  10  22  45  74 108 154 193 248 324 380 461
#     4  10  22  47  74 114 148 191 246 320 398 453
#     4  11  26  49  76 116 155 208 262 323 394 463
#     4  12  26  53  75 113 159 212 261 321 387 476
#
# _framework density 24.748145999999998
#
# number of rings (size 3 to 8) (size 9 to 14) (size 15 to 20)
#    0.000    1.000    5.000    0.000    1.750    6.000 
#    6.750    0.000    0.000    0.000    0.000    0.000 
#    0.000    0.000    0.000    0.000    0.000    0.000 
#
# Total GULP energy -89434.297915 kJ/mol
# GULP energy per Si atom -5589.643620 kJ/mol
# Density = 2.469182 g / cm^3
# Si number density = 24.748146 Si / 1000 Ang^3
#
#
#
# Elastic Constant Matrix: (Units=GPa)
#
#
# Indices 1 2 3 4 5 6 
#
# 1 165.0369 57.3500 55.3595 0.0000 0.0000 0.0000
# 2 57.3500 144.0328 21.5506 0.0000 0.0000 0.0000
# 3 55.3595 21.5506 181.4404 0.0000 0.0000 0.0000
# 4 0.0000 0.0000 0.0000 -23.9461 0.0000 0.0000
# 5 0.0000 0.0000 0.0000 0.0000 35.7717 0.0000
# 6 0.0000 0.0000 0.0000 0.0000 0.0000 27.2108
#
#
#
# Elastic Compliance Matrix: (Units=1/GPa)
#
#
# Indices 1 2 3 4 5 6 
#
# 1 0.007697 -0.002762 -0.002020 0.000000 0.000000 0.000000
# 2 -0.002762 0.008060 -0.000114 0.000000 0.000000 0.000000
# 3 -0.002020 -0.000114 0.006141 0.000000 0.000000 0.000000
# 4 0.000000 0.000000 0.000000 -0.041760 0.000000 0.000000
# 5 0.000000 0.000000 0.000000 0.000000 0.027955 0.000000
# 6 0.000000 0.000000 0.000000 0.000000 0.000000 0.036750
#
#
# Mechanical properties :
#
#
# Convention : Reuss Voigt Hill
#
# Bulk Modulus (GPa) = 82.61808 84.33668 83.47738
# Shear Modulus (GPa) = 85.21961 31.55727 58.38844
#
# Velocity S-wave (km/s) = 5.87448 3.57478 4.86254
# Velocity P-wave (km/s) = 8.91452 7.15477 8.08268
#
# Compressibility (1/GPa) = 0.01210389
#
# Stress axis : x y z
#
# Youngs Moduli (GPa) = 129.92308 124.07091 162.82763
#
# Poissons Ratio (x) = 0.34273 0.32896
# Poissons Ratio (y) = 0.35890 0.01864
# Poissons Ratio (z) = 0.26248 0.01420
#
# Static dielectric constant tensor:
#      x y z
#    x 2.083720 0.000000 0.000000 
#    y 0.000000 1.951660 0.000000 
#    z 0.000000 0.000000 2.027630 
# 
# From -- ./inp_files/17490.got.cif
#   From: 2010.05.17/outbox.cif.g08.bks.cpg/sg24_9_cif.got.tgz:17490.got - 2010.06.04 00:33:39.
