data_PCOD9335226
_publ_section_title
;
Structure prediction by ZEFSAII (Michael W. Deem and Ramdas Pophale) SiO2 
 PCOD9335226
Probable space group: I 21 21 21
;
_chemical_formula_sum "Si O2"
_cell_formula_units_Z 48
_cell_length_a 10.596216
_cell_length_b 15.662007
_cell_length_c 14.418049
_cell_angle_alpha 90.000000
_cell_angle_beta 90.000000
_cell_angle_gamma 90.000000
_cell_volume 2392.790708
_symmetry_space_group_name_H-M "I 21 21 21"
_symmetry_group_IT_number 24
_symmetry_cell_setting 'orthorhombic'
loop_
_space_group_symop_operation_xyz
x,y,z
-x,1/2-y,z
x,-y,1/2-z
1/2-x,y,-z
1/2+x,1/2+y,1/2+z
1/2-x,-y,1/2+z
1/2+x,1/2-y,-z
-x,1/2+y,1/2-z
loop_
_atom_site_type_symbol
_atom_site_label
_atom_site_fract_x
_atom_site_fract_y
_atom_site_fract_z
Si Si1 0.750000 0.611818 0.500000
Si Si2 0.985641 0.349711 0.539529
Si Si3 0.250000 0.223265 0.500000
Si Si4 0.373206 0.500000 0.750000
Si Si5 0.002663 0.517466 0.435947
Si Si6 0.750000 0.109923 0.000000
Si Si7 0.715951 0.160322 0.330936
Si Si8 0.847142 0.752116 0.642233
O O1 0.626883 0.558578 0.529410
O O2 0.791644 0.670201 0.588135
O O3 0.837478 0.343218 0.557353
O O4 0.000000 0.250000 0.513047
O O5 0.002127 0.417699 0.459439
O O6 0.081035 0.366529 0.623329
O O7 0.217511 0.290249 0.416512
O O8 0.464278 0.534930 0.670151
O O9 0.288054 0.576565 0.793072
O O10 0.125293 0.554741 0.487172
O O11 0.783025 0.170071 0.913754
O O12 0.689214 0.227181 0.248128
O O13 0.000000 0.750000 0.633492
#
# Coordination Sequence:
#
# PCOD9335226 Si02
#       8
#     4   8   4   4   8   4   8   8
#     4  11  27  44  70 102 146 184 219 295 368 418
#     4  10  22  41  65  92 132 181 227 284 346 408
#     4  10  21  43  62  92 134 182 226 284 348 414
#     4  12  24  40  68 106 136 182 240 290 346 424
#     4  12  24  45  68 102 142 183 233 291 354 418
#     4  11  22  43  68 100 140 180 225 281 344 420
#     4  11  23  41  69 100 134 178 239 289 343 423
#     4  11  22  42  70 103 138 180 231 282 353 427
#
# _framework density 20.06026
#
# number of rings (size 3 to 8) (size 9 to 14) (size 15 to 20)
#    0.000    1.000    3.333    5.000    0.000    2.000 
#    0.000    3.333    0.000    0.000    0.000    0.000 
#    0.000    0.000    0.000    0.000    0.000    0.000 
#
# Total GULP energy -133640.505729 kJ/mol
# GULP energy per Si atom -5568.354405 kJ/mol
# Density = 2.001460 g / cm^3
# Si number density = 20.060260 Si / 1000 Ang^3
#
#
#
# Elastic Constant Matrix: (Units=GPa)
#
#
# Indices 1 2 3 4 5 6 
#
# 1 137.2856 58.2371 53.6942 0.0000 0.0000 0.0000
# 2 58.2371 85.9142 35.5501 0.0000 0.0000 0.0000
# 3 53.6942 35.5501 121.3250 0.0000 0.0000 0.0000
# 4 0.0000 0.0000 0.0000 22.2449 0.0000 0.0000
# 5 0.0000 0.0000 0.0000 0.0000 37.7399 0.0000
# 6 0.0000 0.0000 0.0000 0.0000 0.0000 18.1351
#
#
#
# Elastic Compliance Matrix: (Units=1/GPa)
#
#
# Indices 1 2 3 4 5 6 
#
# 1 0.011162 -0.006284 -0.003098 0.000000 0.000000 0.000000
# 2 -0.006284 0.016783 -0.002137 0.000000 0.000000 0.000000
# 3 -0.003098 -0.002137 0.010240 0.000000 0.000000 0.000000
# 4 0.000000 0.000000 0.000000 0.044954 0.000000 0.000000
# 5 0.000000 0.000000 0.000000 0.000000 0.026497 0.000000
# 6 0.000000 0.000000 0.000000 0.000000 0.000000 0.055142
#
#
# Mechanical properties :
#
#
# Convention : Reuss Voigt Hill
#
# Bulk Modulus (GPa) = 66.02222 71.05419 68.53820
# Shear Modulus (GPa) = 25.92500 28.76022 27.34261
#
# Velocity S-wave (km/s) = 3.59884 3.79052 3.69592
# Velocity P-wave (km/s) = 7.08888 7.39288 7.24247
#
# Compressibility (1/GPa) = 0.01514642
#
# Stress axis : x y z
#
# Youngs Moduli (GPa) = 89.59344 59.58362 97.65917
#
# Poissons Ratio (x) = 0.37441 0.30259
# Poissons Ratio (y) = 0.56298 0.20867
# Poissons Ratio (z) = 0.27760 0.12732
#
# Static dielectric constant tensor:
#      x y z
#    x 4.445990 0.000000 0.000000 
#    y 0.000000 1.726900 0.000000 
#    z 0.000000 0.000000 1.690550 
# 
# From -- ./inp_files/25784.got.cif
#   From: 2010.05.17/outbox.cif.g08.bks.cpg/sg24_13_cif.got.tgz:25784.got - 2010.06.04 00:33:39.
