data_PCOD9335754
_publ_section_title
;
Structure prediction by ZEFSAII (Michael W. Deem and Ramdas Pophale) SiO2 
 PCOD9335754
Probable space group: I 21 21 21
;
_chemical_formula_sum "Si O2"
_cell_formula_units_Z 56
_cell_length_a 9.061280
_cell_length_b 12.877205
_cell_length_c 20.581536
_cell_angle_alpha 90.000000
_cell_angle_beta 90.000000
_cell_angle_gamma 90.000000
_cell_volume 2401.535126
_symmetry_space_group_name_H-M "I 21 21 21"
_symmetry_group_IT_number 24
_symmetry_cell_setting 'orthorhombic'
loop_
_space_group_symop_operation_xyz
x,y,z
-x,1/2-y,z
x,-y,1/2-z
1/2-x,y,-z
1/2+x,1/2+y,1/2+z
1/2-x,-y,1/2+z
1/2+x,1/2-y,-z
-x,1/2+y,1/2-z
loop_
_atom_site_type_symbol
_atom_site_label
_atom_site_fract_x
_atom_site_fract_y
_atom_site_fract_z
Si Si1 0.222745 0.011278 0.877068
Si Si2 0.865931 0.672422 0.803378
Si Si3 0.448341 0.485713 0.453620
Si Si4 0.217825 0.450413 0.820740
Si Si5 0.827881 0.721304 0.311597
Si Si6 0.227882 0.277600 0.566849
Si Si7 0.546909 0.050476 0.597496
O O1 0.270912 0.127554 0.857047
O O2 0.128654 0.950747 0.820509
O O3 0.117829 0.008201 0.939257
O O4 0.374230 0.951044 0.890966
O O5 0.721972 0.684500 0.759414
O O6 0.833987 0.716923 0.873795
O O7 0.000000 0.750000 0.779546
O O8 0.371448 0.530729 0.388210
O O9 0.391330 0.367420 0.449761
O O10 0.417794 0.511614 0.529575
O O11 0.174150 0.500000 0.750000
O O12 0.238293 0.327917 0.818175
O O13 0.375145 0.500559 0.839977
O O14 0.000000 0.750000 0.318836
O O15 0.250000 0.217556 0.500000
O O16 0.374714 0.338841 0.588409
#
# Coordination Sequence:
#
# PCOD9335754 Si02
#       7
#     8   8   8   8   8   8   8
#     4  12  26  44  70 105 146 185 247 306 362 445
#     4  12  27  46  70 106 144 195 239 306 378 450
#     4  10  22  44  72 106 142 189 243 305 366 437
#     4  11  24  44  77 100 142 191 243 303 375 440
#     4  12  28  47  70 105 145 191 249 307 374 449
#     4   9  20  43  71 101 140 186 239 296 375 450
#     4  10  22  44  72 107 141 190 244 306 364 441
#
# _framework density 23.318418000000001
#
# number of rings (size 3 to 8) (size 9 to 14) (size 15 to 20)
#    0.000    1.143    2.857    3.857    6.000    1.143 
#    0.000    4.286    0.000    0.000    0.000    0.000 
#    0.000    0.000    0.000    0.000    0.000    0.000 
#
# Total GULP energy -156207.807587 kJ/mol
# GULP energy per Si atom -5578.850271 kJ/mol
# Density = 2.326534 g / cm^3
# Si number density = 23.318418 Si / 1000 Ang^3
#
#
#
# Elastic Constant Matrix: (Units=GPa)
#
#
# Indices 1 2 3 4 5 6 
#
# 1 123.7294 26.0624 36.3437 0.0000 0.0000 0.0000
# 2 26.0624 99.6987 24.5651 0.0000 0.0000 0.0000
# 3 36.3437 24.5651 120.5149 0.0000 0.0000 0.0000
# 4 0.0000 0.0000 0.0000 33.7806 0.0000 0.0000
# 5 0.0000 0.0000 0.0000 0.0000 -41.8537 0.0000
# 6 0.0000 0.0000 0.0000 0.0000 0.0000 20.7245
#
#
#
# Elastic Compliance Matrix: (Units=1/GPa)
#
#
# Indices 1 2 3 4 5 6 
#
# 1 0.009166 -0.001806 -0.002396 0.000000 0.000000 0.000000
# 2 -0.001806 0.010916 -0.001681 0.000000 0.000000 0.000000
# 3 -0.002396 -0.001681 0.009363 0.000000 0.000000 0.000000
# 4 0.000000 0.000000 0.000000 0.029603 0.000000 0.000000
# 5 0.000000 0.000000 0.000000 0.000000 -0.023893 0.000000
# 6 0.000000 0.000000 0.000000 0.000000 0.000000 0.048252
#
#
# Mechanical properties :
#
#
# Convention : Reuss Voigt Hill
#
# Bulk Modulus (GPa) = 56.55947 57.54283 57.05115
# Shear Modulus (GPa) = 49.47235 19.66171 34.56703
#
# Velocity S-wave (km/s) = 4.61108 2.90691 3.85436
# Velocity P-wave (km/s) = 7.25654 5.99978 6.65788
#
# Compressibility (1/GPa) = 0.01768050
#
# Stress axis : x y z
#
# Youngs Moduli (GPa) = 109.09432 91.60571 106.80430
#
# Poissons Ratio (x) = 0.16542 0.25593
# Poissons Ratio (y) = 0.19700 0.17949
# Poissons Ratio (z) = 0.26141 0.15395
#
# Static dielectric constant tensor:
#      x y z
#    x 2.011610 0.000000 0.000000 
#    y 0.000000 1.930510 0.000000 
#    z 0.000000 0.000000 1.900580 
# 
# From -- ./inp_files/32849.got.cif
#   From: 2010.05.17/outbox.cif.g08.bks.cpg/sg24_17_cif.got.tgz:32849.got - 2010.06.04 00:33:39.
