data_PCOD9335474
_publ_section_title
;
Structure prediction by ZEFSAII (Michael W. Deem and Ramdas Pophale) SiO2 
 PCOD9335474
Probable space group: I 21 21 21
;
_chemical_formula_sum "Si O2"
_cell_formula_units_Z 28
_cell_length_a 4.847988
_cell_length_b 8.101162
_cell_length_c 28.170146
_cell_angle_alpha 90.000000
_cell_angle_beta 90.000000
_cell_angle_gamma 90.000000
_cell_volume 1106.363784
_symmetry_space_group_name_H-M "I 21 21 21"
_symmetry_group_IT_number 24
_symmetry_cell_setting 'orthorhombic'
loop_
_space_group_symop_operation_xyz
x,y,z
-x,1/2-y,z
x,-y,1/2-z
1/2-x,y,-z
1/2+x,1/2+y,1/2+z
1/2-x,-y,1/2+z
1/2+x,1/2-y,-z
-x,1/2+y,1/2-z
loop_
_atom_site_type_symbol
_atom_site_label
_atom_site_fract_x
_atom_site_fract_y
_atom_site_fract_z
Si Si1 0.000000 0.250000 0.031215
Si Si2 0.625280 0.065154 0.301014
Si Si3 0.366168 0.067890 0.854552
Si Si4 0.379175 0.077348 0.551851
O O1 0.100860 0.426187 0.050640
O O2 0.750000 0.309748 0.000000
O O3 0.500000 0.250000 0.300031
O O4 0.724955 0.000000 0.250000
O O5 0.375908 0.944275 0.316424
O O6 0.881644 0.045526 0.336779
O O7 0.500000 0.250000 0.860778
O O8 0.220553 0.999827 0.902954
O O9 0.500000 0.250000 0.567240
O O10 0.250000 0.115278 0.500000
#
# Coordination Sequence:
#
# PCOD9335474 Si02
#       4
#     4   8   8   8
#     4  10  22  40  62  90 130 176 226 280 342 404
#     4  12  26  48  76 109 147 191 244 307 374 444
#     4  12  26  48  74 109 148 195 247 304 372 442
#     4  11  24  44  69 104 142 193 240 300 359 435
#
# _framework density 25.308129999999998
#
# number of rings (size 3 to 8) (size 9 to 14) (size 15 to 20)
#    0.000    0.571    1.429    6.857    0.000    8.000 
#    0.000    0.000    0.000    0.000    0.000    0.000 
#    0.000    0.000    0.000    0.000    0.000    0.000 
#
# Total GULP energy -78025.046935 kJ/mol
# GULP energy per Si atom -5573.217638 kJ/mol
# Density = 2.525053 g / cm^3
# Si number density = 25.308130 Si / 1000 Ang^3
#
#
#
# Elastic Constant Matrix: (Units=GPa)
#
#
# Indices 1 2 3 4 5 6 
#
# 1 94.4057 11.5785 29.0507 0.0000 0.0000 0.0000
# 2 11.5785 182.1737 35.1385 0.0000 0.0000 0.0000
# 3 29.0507 35.1385 142.9544 0.0000 0.0000 0.0000
# 4 0.0000 0.0000 0.0000 39.6954 0.0000 0.0000
# 5 0.0000 0.0000 0.0000 0.0000 41.6163 0.0000
# 6 0.0000 0.0000 0.0000 0.0000 0.0000 17.2701
#
#
#
# Elastic Compliance Matrix: (Units=1/GPa)
#
#
# Indices 1 2 3 4 5 6 
#
# 1 0.011314 -0.000289 -0.002228 0.000000 0.000000 0.000000
# 2 -0.000289 0.005770 -0.001359 0.000000 0.000000 0.000000
# 3 -0.002228 -0.001359 0.007782 0.000000 0.000000 0.000000
# 4 0.000000 0.000000 0.000000 0.025192 0.000000 0.000000
# 5 0.000000 0.000000 0.000000 0.000000 0.024029 0.000000
# 6 0.000000 0.000000 0.000000 0.000000 0.000000 0.057903
#
#
# Mechanical properties :
#
#
# Convention : Reuss Voigt Hill
#
# Bulk Modulus (GPa) = 58.43804 63.45214 60.94509
# Shear Modulus (GPa) = 34.37663 42.63413 38.50538
#
# Velocity S-wave (km/s) = 3.68954 4.10884 3.90482
# Velocity P-wave (km/s) = 6.42581 6.90191 6.66811
#
# Compressibility (1/GPa) = 0.01711214
#
# Stress axis : x y z
#
# Youngs Moduli (GPa) = 88.38868 173.31412 128.49903
#
# Poissons Ratio (x) = 0.05014 0.28630
# Poissons Ratio (y) = 0.02557 0.17469
# Poissons Ratio (z) = 0.19693 0.23561
#
# Static dielectric constant tensor:
#      x y z
#    x 2.248540 0.000000 0.000000 
#    y 0.000000 2.003120 0.000000 
#    z 0.000000 0.000000 2.238060 
# 
# From -- ./inp_files/36253.got.cif
#   From: 2010.05.17/outbox.cif.g08.bks.cpg/sg24_19_cif.got.tgz:36253.got - 2010.06.04 00:33:39.
