data_PCOD9335888
_publ_section_title
;
Structure prediction by ZEFSAII (Michael W. Deem and Ramdas Pophale) SiO2 
 PCOD9335888
Probable space group: I 21 21 21
;
_chemical_formula_sum "Si O2"
_cell_formula_units_Z 36
_cell_length_a 10.583920
_cell_length_b 7.197480
_cell_length_c 21.714949
_cell_angle_alpha 90.000000
_cell_angle_beta 90.000000
_cell_angle_gamma 90.000000
_cell_volume 1654.191668
_symmetry_space_group_name_H-M "I 21 21 21"
_symmetry_group_IT_number 24
_symmetry_cell_setting 'orthorhombic'
loop_
_space_group_symop_operation_xyz
x,y,z
-x,1/2-y,z
x,-y,1/2-z
1/2-x,y,-z
1/2+x,1/2+y,1/2+z
1/2-x,-y,1/2+z
1/2+x,1/2-y,-z
-x,1/2+y,1/2-z
loop_
_atom_site_type_symbol
_atom_site_label
_atom_site_fract_x
_atom_site_fract_y
_atom_site_fract_z
Si Si1 0.861515 0.211993 0.335798
Si Si2 0.516739 0.029371 0.363464
Si Si3 0.747218 0.483882 0.072033
Si Si4 0.725951 0.941425 0.569307
Si Si5 0.165063 0.500000 0.750000
O O1 0.000000 0.250000 0.308922
O O2 0.870703 0.048106 0.386730
O O3 0.759230 0.146574 0.284286
O O4 0.186356 0.117618 0.378262
O O5 0.500000 0.250000 0.350934
O O6 0.394472 0.965192 0.400658
O O7 0.638432 0.995851 0.404239
O O8 0.566874 0.932240 0.301609
O O9 0.802684 0.276683 0.071092
O O10 0.750000 0.548865 0.000000
O O11 0.750000 0.000649 0.500000
#
# Coordination Sequence:
#
# PCOD9335888 Si02
#       5
#     8   8   8   8   4
#     4  11  25  47  70 100 142 195 239 303 367 430
#     4  11  22  43  74 103 142 191 241 300 356 431
#     4  11  24  43  72 114 145 187 239 303 378 426
#     4  10  23  41  68 107 143 182 238 297 367 438
#     4  10  24  48  68 102 136 186 256 284 356 432
#
# _framework density 21.762893999999999
#
# number of rings (size 3 to 8) (size 9 to 14) (size 15 to 20)
#    0.000    1.333    4.444    1.333    3.111    4.444 
#    8.000    0.000    0.000    0.000    0.000    0.000 
#    0.000    0.000    0.000    0.000    0.000    0.000 
#
# Total GULP energy -100334.970916 kJ/mol
# GULP energy per Si atom -5574.165051 kJ/mol
# Density = 2.171336 g / cm^3
# Si number density = 21.762894 Si / 1000 Ang^3
#
#
#
# Elastic Constant Matrix: (Units=GPa)
#
#
# Indices 1 2 3 4 5 6 
#
# 1 69.1071 5.0513 49.6805 0.0000 0.0000 0.0000
# 2 5.0513 100.9310 20.1089 0.0000 0.0000 0.0000
# 3 49.6805 20.1089 157.2823 0.0000 0.0000 0.0000
# 4 0.0000 0.0000 0.0000 -7.2959 0.0000 0.0000
# 5 0.0000 0.0000 0.0000 0.0000 -16.7217 0.0000
# 6 0.0000 0.0000 0.0000 0.0000 0.0000 -15.6675
#
#
#
# Elastic Compliance Matrix: (Units=1/GPa)
#
#
# Indices 1 2 3 4 5 6 
#
# 1 0.018727 0.000248 -0.005947 0.000000 0.000000 0.000000
# 2 0.000248 0.010170 -0.001378 0.000000 0.000000 0.000000
# 3 -0.005947 -0.001378 0.008413 0.000000 0.000000 0.000000
# 4 0.000000 0.000000 0.000000 -0.137064 0.000000 0.000000
# 5 0.000000 0.000000 0.000000 0.000000 -0.059803 0.000000
# 6 0.000000 0.000000 0.000000 0.000000 0.000000 -0.063827
#
#
# Mechanical properties :
#
#
# Convention : Reuss Voigt Hill
#
# Bulk Modulus (GPa) = 43.18843 53.00019 48.09431
# Shear Modulus (GPa) = -24.81281 8.89498 -7.95891
#
# Velocity S-wave (km/s) = -3.38026 2.02388 -1.91443
# Velocity P-wave (km/s) = 2.15712 5.46514 4.15457
#
# Compressibility (1/GPa) = 0.02315435
#
# Stress axis : x y z
#
# Youngs Moduli (GPa) = 53.39741 98.32838 118.86749
#
# Poissons Ratio (x) = -0.02435 0.70691
# Poissons Ratio (y) = -0.01322 0.16386
# Poissons Ratio (z) = 0.31756 0.13554
#
# Static dielectric constant tensor:
#      x y z
#    x 1.810980 0.000000 0.000000 
#    y 0.000000 1.864790 0.000000 
#    z 0.000000 0.000000 1.770320 
# 
# From -- ./inp_files/32494.got.cif
#   From: 2010.05.17/outbox.cif.g08.bks.cpg/sg24_17_cif.got.tgz:32494.got - 2010.06.04 00:33:39.
