data_PCOD9335524
_publ_section_title
;
Structure prediction by ZEFSAII (Michael W. Deem and Ramdas Pophale) SiO2 
 PCOD9335524
Probable space group: I 21 21 21
;
_chemical_formula_sum "Si O2"
_cell_formula_units_Z 44
_cell_length_a 25.895287
_cell_length_b 5.291450
_cell_length_c 14.592747
_cell_angle_alpha 90.000000
_cell_angle_beta 90.000000
_cell_angle_gamma 90.000000
_cell_volume 1999.550967
_symmetry_space_group_name_H-M "I 21 21 21"
_symmetry_group_IT_number 24
_symmetry_cell_setting 'orthorhombic'
loop_
_space_group_symop_operation_xyz
x,y,z
-x,1/2-y,z
x,-y,1/2-z
1/2-x,y,-z
1/2+x,1/2+y,1/2+z
1/2-x,-y,1/2+z
1/2+x,1/2-y,-z
-x,1/2+y,1/2-z
loop_
_atom_site_type_symbol
_atom_site_label
_atom_site_fract_x
_atom_site_fract_y
_atom_site_fract_z
Si Si1 0.000000 0.750000 0.286486
Si Si2 0.651084 0.654514 0.005000
Si Si3 0.309360 0.540387 0.649637
Si Si4 0.250000 0.873752 0.500000
Si Si5 0.000000 0.750000 0.691435
Si Si6 0.052833 0.580095 0.949200
Si Si7 0.589231 0.256174 0.894715
O O1 0.029302 0.500000 0.250000
O O2 0.955720 0.603158 0.342652
O O3 0.704431 0.544635 0.042879
O O4 0.609860 0.802701 0.067257
O O5 0.615974 0.424985 0.971143
O O6 0.670557 0.810227 0.914929
O O7 0.285461 0.500000 0.750000
O O8 0.274258 0.703657 0.580525
O O9 0.363000 0.686034 0.668673
O O10 0.984939 0.500000 0.750000
O O11 0.043440 0.641986 0.623657
O O12 0.000000 0.750000 0.946033
O O13 0.060611 0.468242 0.050802
#
# Coordination Sequence:
#
# PCOD9335524 Si02
#       7
#     4   8   8   4   4   8   8
#     4  12  27  36  55  92 150 180 220 276 333 404
#     4  10  22  41  71  96 135 181 240 291 356 432
#     4  10  22  40  68  98 133 180 237 298 361 433
#     4  10  22  42  68 106 130 186 242 300 364 434
#     4  12  25  42  69 106 144 186 242 302 365 440
#     4  11  22  42  70  98 137 185 234 290 358 428
#     4  10  23  37  61  94 133 187 231 277 347 415
#
# _framework density 22.004937999999999
#
# number of rings (size 3 to 8) (size 9 to 14) (size 15 to 20)
#    0.000    1.455    0.909    3.818    8.909    2.182 
#    0.000    0.000    0.000   44.727    0.000    0.000 
#    0.000    0.000    0.000    0.000    0.000    0.000 
#
# Total GULP energy -122481.287719 kJ/mol
# GULP energy per Si atom -5567.331260 kJ/mol
# Density = 2.195485 g / cm^3
# Si number density = 22.004938 Si / 1000 Ang^3
#
#
#
# Elastic Constant Matrix: (Units=GPa)
#
#
# Indices 1 2 3 4 5 6 
#
# 1 147.0679 54.0326 57.7619 0.0000 0.0000 0.0000
# 2 54.0326 89.1818 25.2708 0.0000 0.0000 0.0000
# 3 57.7619 25.2708 80.8322 0.0000 0.0000 0.0000
# 4 0.0000 0.0000 0.0000 19.0985 0.0000 0.0000
# 5 0.0000 0.0000 0.0000 0.0000 20.3791 0.0000
# 6 0.0000 0.0000 0.0000 0.0000 0.0000 48.5080
#
#
#
# Elastic Compliance Matrix: (Units=1/GPa)
#
#
# Indices 1 2 3 4 5 6 
#
# 1 0.011127 -0.004925 -0.006412 0.000000 0.000000 0.000000
# 2 -0.004925 0.014483 -0.001009 0.000000 0.000000 0.000000
# 3 -0.006412 -0.001009 0.017268 0.000000 0.000000 0.000000
# 4 0.000000 0.000000 0.000000 0.052360 0.000000 0.000000
# 5 0.000000 0.000000 0.000000 0.000000 0.049070 0.000000
# 6 0.000000 0.000000 0.000000 0.000000 0.000000 0.020615
#
#
# Mechanical properties :
#
#
# Convention : Reuss Voigt Hill
#
# Bulk Modulus (GPa) = 54.98112 65.69029 60.33570
# Shear Modulus (GPa) = 25.55242 29.59822 27.57532
#
# Velocity S-wave (km/s) = 3.41135 3.67150 3.54382
# Velocity P-wave (km/s) = 6.36840 6.92030 6.65008
#
# Compressibility (1/GPa) = 0.01818806
#
# Stress axis : x y z
#
# Youngs Moduli (GPa) = 89.86993 69.04828 57.90931
#
# Poissons Ratio (x) = 0.34005 0.37130
# Poissons Ratio (y) = 0.44259 0.05840
# Poissons Ratio (z) = 0.57622 0.06964
#
# Static dielectric constant tensor:
#      x y z
#    x 1.837570 0.000000 0.000000 
#    y 0.000000 1.864650 0.000000 
#    z 0.000000 0.000000 1.901040 
# 
# From -- ./inp_files/28011.got.cif
#   From: 2010.05.17/outbox.cif.g08.bks.cpg/sg24_15_cif.got.tgz:28011.got - 2010.06.04 00:33:39.
