data_PCOD9335795
_publ_section_title
;
Structure prediction by ZEFSAII (Michael W. Deem and Ramdas Pophale) SiO2 
 PCOD9335795
Probable space group: I 21 21 21
;
_chemical_formula_sum "Si O2"
_cell_formula_units_Z 40
_cell_length_a 20.962948
_cell_length_b 5.197748
_cell_length_c 14.037606
_cell_angle_alpha 90.000000
_cell_angle_beta 90.000000
_cell_angle_gamma 90.000000
_cell_volume 1529.539249
_symmetry_space_group_name_H-M "I 21 21 21"
_symmetry_group_IT_number 24
_symmetry_cell_setting 'orthorhombic'
loop_
_space_group_symop_operation_xyz
x,y,z
-x,1/2-y,z
x,-y,1/2-z
1/2-x,y,-z
1/2+x,1/2+y,1/2+z
1/2-x,-y,1/2+z
1/2+x,1/2-y,-z
-x,1/2+y,1/2-z
loop_
_atom_site_type_symbol
_atom_site_label
_atom_site_fract_x
_atom_site_fract_y
_atom_site_fract_z
Si Si1 0.691926 0.768285 0.927688
Si Si2 0.934902 0.582428 0.039830
Si Si3 0.238894 0.246832 0.113841
Si Si4 0.000000 0.750000 0.583689
Si Si5 0.155827 0.500000 0.750000
Si Si6 0.457845 0.000000 0.750000
Si Si7 0.067017 0.000000 0.750000
O O1 0.630800 0.704994 0.992194
O O2 0.683633 0.039933 0.875457
O O3 0.716408 0.539009 0.859545
O O4 0.750000 0.811605 0.000000
O O5 0.923347 0.565267 0.152485
O O6 0.000000 0.750000 0.025455
O O7 0.943645 0.303858 0.991769
O O8 0.298070 0.377737 0.168492
O O9 0.250000 0.206141 0.000000
O O10 0.978798 0.536094 0.659221
O O11 0.110192 0.252850 0.731798
O O12 0.500000 0.750000 0.726914
#
# Coordination Sequence:
#
# PCOD9335795 Si02
#       7
#     8   8   8   4   4   4   4
#     4  10  24  44  73 111 149 197 256 319 392 493
#     4  11  27  46  84 112 167 211 271 337 428 490
#     4  10  24  43  70 107 141 193 251 312 398 473
#     4  12  30  50  74 118 156 224 274 352 404 498
#     4  12  27  50  81 108 159 211 262 354 408 490
#     4  10  22  46  68 118 144 196 256 322 402 504
#     4  12  31  48  77 112 159 211 296 326 412 494
#
# _framework density 26.151668000000001
#
# number of rings (size 3 to 8) (size 9 to 14) (size 15 to 20)
#    0.000    1.200    1.000    1.800   18.200    1.600 
#    0.000    1.000    0.000    0.000    0.000    0.000 
#    0.000    0.000    0.000    0.000    0.000    0.000 
#
# Total GULP energy -111529.332523 kJ/mol
# GULP energy per Si atom -5576.466626 kJ/mol
# Density = 2.609215 g / cm^3
# Si number density = 26.151668 Si / 1000 Ang^3
#
#
#
# Elastic Constant Matrix: (Units=GPa)
#
#
# Indices 1 2 3 4 5 6 
#
# 1 128.1375 7.1949 12.6106 0.0000 0.0000 0.0000
# 2 7.1949 137.6397 -19.0855 0.0000 0.0000 0.0000
# 3 12.6106 -19.0855 113.9703 0.0000 0.0000 0.0000
# 4 0.0000 0.0000 0.0000 21.4700 0.0000 0.0000
# 5 0.0000 0.0000 0.0000 0.0000 6.2608 0.0000
# 6 0.0000 0.0000 0.0000 0.0000 0.0000 54.8832
#
#
#
# Elastic Compliance Matrix: (Units=1/GPa)
#
#
# Indices 1 2 3 4 5 6 
#
# 1 0.007930 -0.000549 -0.000969 0.000000 0.000000 0.000000
# 2 -0.000549 0.007476 0.001313 0.000000 0.000000 0.000000
# 3 -0.000969 0.001313 0.009101 0.000000 0.000000 0.000000
# 4 0.000000 0.000000 0.000000 0.046577 0.000000 0.000000
# 5 0.000000 0.000000 0.000000 0.000000 0.159725 0.000000
# 6 0.000000 0.000000 0.000000 0.000000 0.000000 0.018220
#
#
# Mechanical properties :
#
#
# Convention : Reuss Voigt Hill
#
# Bulk Modulus (GPa) = 41.50009 42.35416 41.92713
# Shear Modulus (GPa) = 19.41950 41.79131 30.60541
#
# Velocity S-wave (km/s) = 2.72797 4.00188 3.42468
# Velocity P-wave (km/s) = 5.08192 6.13059 5.63072
#
# Compressibility (1/GPa) = 0.02409633
#
# Stress axis : x y z
#
# Youngs Moduli (GPa) = 126.09795 133.76027 109.87443
#
# Poissons Ratio (x) = 0.07343 0.10651
# Poissons Ratio (y) = 0.06922 -0.14423
# Poissons Ratio (z) = 0.12224 -0.17559
#
# Static dielectric constant tensor:
#      x y z
#    x 2.087040 0.000000 0.000000 
#    y 0.000000 2.197640 0.000000 
#    z 0.000000 0.000000 1.692720 
# 
# From -- ./inp_files/27750.got.cif
#   From: 2010.05.17/outbox.cif.g08.bks.cpg/sg24_14_cif.got.tgz:27750.got - 2010.06.04 00:33:39.
