data_PCOD9335189
_publ_section_title
;
Structure prediction by ZEFSAII (Michael W. Deem and Ramdas Pophale) SiO2 
 PCOD9335189
Probable space group: I 21 21 21
;
_chemical_formula_sum "Si O2"
_cell_formula_units_Z 36
_cell_length_a 5.053785
_cell_length_b 20.457759
_cell_length_c 17.580446
_cell_angle_alpha 90.000000
_cell_angle_beta 90.000000
_cell_angle_gamma 90.000000
_cell_volume 1817.626763
_symmetry_space_group_name_H-M "I 21 21 21"
_symmetry_group_IT_number 24
_symmetry_cell_setting 'orthorhombic'
loop_
_space_group_symop_operation_xyz
x,y,z
-x,1/2-y,z
x,-y,1/2-z
1/2-x,y,-z
1/2+x,1/2+y,1/2+z
1/2-x,-y,1/2+z
1/2+x,1/2-y,-z
-x,1/2+y,1/2-z
loop_
_atom_site_type_symbol
_atom_site_label
_atom_site_fract_x
_atom_site_fract_y
_atom_site_fract_z
Si Si1 0.750000 0.493271 0.000000
Si Si2 0.753656 0.795921 0.373330
Si Si3 0.243705 0.297879 0.302293
Si Si4 0.750000 0.706574 0.000000
Si Si5 0.250000 0.403815 0.000000
Si Si6 0.438805 0.395111 0.424362
O O1 0.502803 0.447988 0.978170
O O2 0.612552 0.538783 0.065648
O O3 0.500000 0.750000 0.375304
O O4 0.794228 0.817522 0.285963
O O5 0.704369 0.856388 0.428630
O O6 0.000000 0.750000 0.397240
O O7 0.500000 0.250000 0.307112
O O8 0.277790 0.363321 0.354130
O O9 0.000000 0.250000 0.321350
O O10 0.500000 0.750000 0.983467
O O11 0.664098 0.659292 0.066311
O O12 0.250000 0.394744 0.500000
#
# Coordination Sequence:
#
# PCOD9335189 Si02
#       6
#     4   8   8   4   4   8
#     4  11  26  41  60  91 120 171 222 254 282 371
#     4  10  21  42  66 103 123 147 197 267 333 385
#     4  10  24  36  61  93 130 158 197 256 323 372
#     4  11  22  31  52  87 112 155 218 242 302 353
#     4  12  22  42  74  86 122 164 210 258 320 372
#     4  11  24  38  57  82 131 164 211 252 284 356
#
# _framework density 19.806045999999998
#
# number of rings (size 3 to 8) (size 9 to 14) (size 15 to 20)
#    0.000    1.333    2.222    2.667    9.333    0.000 
#    0.000    1.111    4.889    0.000    0.000    0.000 
#    0.000    0.000    0.000    0.000    0.000    0.000 
#
# Total GULP energy -100302.925717 kJ/mol
# GULP energy per Si atom -5572.384762 kJ/mol
# Density = 1.976097 g / cm^3
# Si number density = 19.806046 Si / 1000 Ang^3
#
#
#
# Elastic Constant Matrix: (Units=GPa)
#
#
# Indices 1 2 3 4 5 6 
#
# 1 136.9380 41.5928 14.3717 0.0000 0.0000 0.0000
# 2 41.5928 110.7108 60.0199 0.0000 0.0000 0.0000
# 3 14.3717 60.0199 100.1868 0.0000 0.0000 0.0000
# 4 0.0000 0.0000 0.0000 14.1892 0.0000 0.0000
# 5 0.0000 0.0000 0.0000 0.0000 25.8052 0.0000
# 6 0.0000 0.0000 0.0000 0.0000 0.0000 38.0545
#
#
#
# Elastic Compliance Matrix: (Units=1/GPa)
#
#
# Indices 1 2 3 4 5 6 
#
# 1 0.008311 -0.003667 0.001005 0.000000 0.000000 0.000000
# 2 -0.003667 0.014995 -0.008457 0.000000 0.000000 0.000000
# 3 0.001005 -0.008457 0.014904 0.000000 0.000000 0.000000
# 4 0.000000 0.000000 0.000000 0.070476 0.000000 0.000000
# 5 0.000000 0.000000 0.000000 0.000000 0.038752 0.000000
# 6 0.000000 0.000000 0.000000 0.000000 0.000000 0.026278
#
#
# Mechanical properties :
#
#
# Convention : Reuss Voigt Hill
#
# Bulk Modulus (GPa) = 62.61483 64.42271 63.51877
# Shear Modulus (GPa) = 24.84114 31.06651 27.95383
#
# Velocity S-wave (km/s) = 3.54534 3.96477 3.76091
# Velocity P-wave (km/s) = 6.96002 7.31824 7.14138
#
# Compressibility (1/GPa) = 0.01597066
#
# Stress axis : x y z
#
# Youngs Moduli (GPa) = 120.32362 66.68830 67.09684
#
# Poissons Ratio (x) = 0.24454 -0.06741
# Poissons Ratio (y) = 0.44122 0.56746
# Poissons Ratio (z) = -0.12088 0.56400
#
# Static dielectric constant tensor:
#      x y z
#    x 1.739310 0.000000 0.000000 
#    y 0.000000 1.702790 0.000000 
#    z 0.000000 0.000000 1.766400 
# 
# From -- ./inp_files/28701.got.cif
#   From: 2010.05.17/outbox.cif.g08.bks.cpg/sg24_15_cif.got.tgz:28701.got - 2010.06.04 00:33:39.
