data_PCOD9335559
_publ_section_title
;
Structure prediction by ZEFSAII (Michael W. Deem and Ramdas Pophale) SiO2 
 PCOD9335559
Probable space group: I 21 21 21
;
_chemical_formula_sum "Si O2"
_cell_formula_units_Z 40
_cell_length_a 8.948940
_cell_length_b 7.388210
_cell_length_c 27.469243
_cell_angle_alpha 90.000000
_cell_angle_beta 90.000000
_cell_angle_gamma 90.000000
_cell_volume 1816.174270
_symmetry_space_group_name_H-M "I 21 21 21"
_symmetry_group_IT_number 24
_symmetry_cell_setting 'orthorhombic'
loop_
_space_group_symop_operation_xyz
x,y,z
-x,1/2-y,z
x,-y,1/2-z
1/2-x,y,-z
1/2+x,1/2+y,1/2+z
1/2-x,-y,1/2+z
1/2+x,1/2-y,-z
-x,1/2+y,1/2-z
loop_
_atom_site_type_symbol
_atom_site_label
_atom_site_fract_x
_atom_site_fract_y
_atom_site_fract_z
Si Si1 0.000000 0.250000 0.714692
Si Si2 0.000000 0.250000 0.932218
Si Si3 0.736780 0.000000 0.250000
Si Si4 0.842672 0.521352 0.640211
Si Si5 0.435186 0.058732 0.578791
Si Si6 0.864362 0.864748 0.342642
Si Si7 0.250000 0.168580 0.000000
O O1 0.870658 0.171862 0.748218
O O2 0.925709 0.407599 0.681609
O O3 0.963624 0.426551 0.900545
O O4 0.856115 0.217641 0.965321
O O5 0.822149 0.994758 0.199041
O O6 0.701844 0.415021 0.617172
O O7 0.768207 0.719548 0.650086
O O8 0.500000 0.250000 0.563025
O O9 0.564726 0.949256 0.608253
O O10 0.359568 0.949654 0.534494
O O11 0.000000 0.750000 0.320432
#
# Coordination Sequence:
#
# PCOD9335559 Si02
#       7
#     4   4   4   8   8   8   4
#     4  12  24  41  64  96 146 172 236 281 340 422
#     4  10  22  41  66  94 130 172 232 263 364 414
#     4  12  24  38  64 102 128 182 226 284 340 406
#     4  10  22  42  65  93 133 186 218 280 349 416
#     4  10  22  44  65  95 135 174 228 283 357 415
#     4  10  23  41  67  93 133 176 229 282 348 415
#     4  10  24  42  68 102 128 178 230 292 340 424
#
# _framework density 22.024319999999999
#
# number of rings (size 3 to 8) (size 9 to 14) (size 15 to 20)
#    0.000    1.600    0.000    3.600    7.000    4.000 
#   10.800    0.000    0.000    0.000    0.000    0.000 
#    0.000    0.000    0.000    0.000    0.000    0.000 
#
# Total GULP energy -111667.218902 kJ/mol
# GULP energy per Si atom -5583.360945 kJ/mol
# Density = 2.197419 g / cm^3
# Si number density = 22.024320 Si / 1000 Ang^3
#
#
#
# Elastic Constant Matrix: (Units=GPa)
#
#
# Indices 1 2 3 4 5 6 
#
# 1 104.2157 51.7560 60.7254 0.0000 0.0000 0.0000
# 2 51.7560 62.5053 35.0043 0.0000 0.0000 0.0000
# 3 60.7254 35.0043 111.5793 0.0000 0.0000 0.0000
# 4 0.0000 0.0000 0.0000 17.7180 0.0000 0.0000
# 5 0.0000 0.0000 0.0000 0.0000 29.4171 0.0000
# 6 0.0000 0.0000 0.0000 0.0000 0.0000 42.2326
#
#
#
# Elastic Compliance Matrix: (Units=1/GPa)
#
#
# Indices 1 2 3 4 5 6 
#
# 1 0.019839 -0.012593 -0.006846 0.000000 0.000000 0.000000
# 2 -0.012593 0.027402 -0.001743 0.000000 0.000000 0.000000
# 3 -0.006846 -0.001743 0.013235 0.000000 0.000000 0.000000
# 4 0.000000 0.000000 0.000000 0.056440 0.000000 0.000000
# 5 0.000000 0.000000 0.000000 0.000000 0.033994 0.000000
# 6 0.000000 0.000000 0.000000 0.000000 0.000000 0.023678
#
#
# Mechanical properties :
#
#
# Convention : Reuss Voigt Hill
#
# Bulk Modulus (GPa) = 55.21389 63.69686 59.45537
# Shear Modulus (GPa) = 22.42262 26.59452 24.50857
#
# Velocity S-wave (km/s) = 3.19421 3.47869 3.33948
# Velocity P-wave (km/s) = 6.22317 6.71707 6.47483
#
# Compressibility (1/GPa) = 0.01811139
#
# Stress axis : x y z
#
# Youngs Moduli (GPa) = 50.40656 36.49371 75.55694
#
# Poissons Ratio (x) = 0.45956 0.51729
# Poissons Ratio (y) = 0.63476 0.13169
# Poissons Ratio (z) = 0.34510 0.06361
#
# Static dielectric constant tensor:
#      x y z
#    x 1.871360 0.000000 0.000000 
#    y 0.000000 1.804310 0.000000 
#    z 0.000000 0.000000 1.839890 
# 
# From -- ./inp_files/36794.got.cif
#   From: 2010.05.17/outbox.cif.g08.bks.cpg/sg24_19_cif.got.tgz:36794.got - 2010.06.04 00:33:39.
