data_PCOD9335325
_publ_section_title
;
Structure prediction by ZEFSAII (Michael W. Deem and Ramdas Pophale) SiO2 
 PCOD9335325
Probable space group: I 21 21 21
;
_chemical_formula_sum "Si O2"
_cell_formula_units_Z 32
_cell_length_a 13.135196
_cell_length_b 4.935471
_cell_length_c 22.317498
_cell_angle_alpha 90.000000
_cell_angle_beta 90.000000
_cell_angle_gamma 90.000000
_cell_volume 1446.807217
_symmetry_space_group_name_H-M "I 21 21 21"
_symmetry_group_IT_number 24
_symmetry_cell_setting 'orthorhombic'
loop_
_space_group_symop_operation_xyz
x,y,z
-x,1/2-y,z
x,-y,1/2-z
1/2-x,y,-z
1/2+x,1/2+y,1/2+z
1/2-x,-y,1/2+z
1/2+x,1/2-y,-z
-x,1/2+y,1/2-z
loop_
_atom_site_type_symbol
_atom_site_label
_atom_site_fract_x
_atom_site_fract_y
_atom_site_fract_z
Si Si1 0.000000 0.250000 0.712617
Si Si2 0.000000 0.250000 0.404625
Si Si3 0.692556 0.471699 0.892017
Si Si4 0.862807 0.098840 0.005948
Si Si5 0.164087 0.516333 0.877258
O O1 0.952361 0.500000 0.750000
O O2 0.916217 0.094196 0.673087
O O3 0.915192 0.416759 0.367795
O O4 0.936066 0.055503 0.448908
O O5 0.774557 0.708136 0.889709
O O6 0.749636 0.211057 0.864244
O O7 0.660463 0.378335 0.959479
O O8 0.894563 0.091762 0.936911
O O9 0.750000 0.974125 0.000000
#
# Coordination Sequence:
#
# PCOD9335325 Si02
#       5
#     4   4   8   8   8
#     4  12  27  54  76 104 134 184 258 323 372 424
#     4  12  21  38  56  96 146 196 232 283 326 440
#     4  11  23  39  60  98 143 191 232 283 344 454
#     4  10  22  35  60  92 150 184 238 266 347 441
#     4  11  25  43  66  97 139 189 238 298 369 419
#
# _framework density 22.117667000000001
#
# number of rings (size 3 to 8) (size 9 to 14) (size 15 to 20)
#    0.000    1.000    5.000    3.000   10.500    0.000 
#   13.500    0.000    0.000    0.000    0.000    5.250 
#    0.000    0.000    0.000    0.000    0.000    0.000 
#
# Total GULP energy -89219.057280 kJ/mol
# GULP energy per Si atom -5576.191080 kJ/mol
# Density = 2.206733 g / cm^3
# Si number density = 22.117667 Si / 1000 Ang^3
#
#
#
# Elastic Constant Matrix: (Units=GPa)
#
#
# Indices 1 2 3 4 5 6 
#
# 1 114.4820 61.0572 33.1867 0.0000 0.0000 0.0000
# 2 61.0572 146.6014 27.2912 0.0000 0.0000 0.0000
# 3 33.1867 27.2912 49.8857 0.0000 0.0000 0.0000
# 4 0.0000 0.0000 0.0000 5.6076 0.0000 0.0000
# 5 0.0000 0.0000 0.0000 0.0000 10.1262 0.0000
# 6 0.0000 0.0000 0.0000 0.0000 0.0000 57.1261
#
#
#
# Elastic Compliance Matrix: (Units=1/GPa)
#
#
# Indices 1 2 3 4 5 6 
#
# 1 0.012751 -0.004155 -0.006210 0.000000 0.000000 0.000000
# 2 -0.004155 0.008948 -0.002132 0.000000 0.000000 0.000000
# 3 -0.006210 -0.002132 0.025343 0.000000 0.000000 0.000000
# 4 0.000000 0.000000 0.000000 0.178329 0.000000 0.000000
# 5 0.000000 0.000000 0.000000 0.000000 0.098754 0.000000
# 6 0.000000 0.000000 0.000000 0.000000 0.000000 0.017505
#
#
# Mechanical properties :
#
#
# Convention : Reuss Voigt Hill
#
# Bulk Modulus (GPa) = 45.35044 61.55995 53.45519
# Shear Modulus (GPa) = 13.36999 27.20091 20.28545
#
# Velocity S-wave (km/s) = 2.46131 3.51069 3.03175
# Velocity P-wave (km/s) = 5.35034 6.65783 6.03957
#
# Compressibility (1/GPa) = 0.02205050
#
# Stress axis : x y z
#
# Youngs Moduli (GPa) = 78.42600 111.75270 39.45858
#
# Poissons Ratio (x) = 0.46428 0.24503
# Poissons Ratio (y) = 0.32582 0.08411
# Poissons Ratio (z) = 0.48701 0.23821
#
# Static dielectric constant tensor:
#      x y z
#    x 1.868020 0.000000 0.000000 
#    y 0.000000 1.888080 0.000000 
#    z 0.000000 0.000000 1.885530 
# 
# From -- ./inp_files/35706.got.cif
#   From: 2010.05.17/outbox.cif.g08.bks.cpg/sg24_18_cif.got.tgz:35706.got - 2010.06.04 00:33:39.
