data_PCOD9335854
_publ_section_title
;
Structure prediction by ZEFSAII (Michael W. Deem and Ramdas Pophale) SiO2 
 PCOD9335854
Probable space group: I 21 21 21
;
_chemical_formula_sum "Si O2"
_cell_formula_units_Z 64
_cell_length_a 27.032424
_cell_length_b 13.170576
_cell_length_c 8.461508
_cell_angle_alpha 90.000000
_cell_angle_beta 90.000000
_cell_angle_gamma 90.000000
_cell_volume 3012.572649
_symmetry_space_group_name_H-M "I 21 21 21"
_symmetry_group_IT_number 24
_symmetry_cell_setting 'orthorhombic'
loop_
_space_group_symop_operation_xyz
x,y,z
-x,1/2-y,z
x,-y,1/2-z
1/2-x,y,-z
1/2+x,1/2+y,1/2+z
1/2-x,-y,1/2+z
1/2+x,1/2-y,-z
-x,1/2+y,1/2-z
loop_
_atom_site_type_symbol
_atom_site_label
_atom_site_fract_x
_atom_site_fract_y
_atom_site_fract_z
Si Si1 0.953377 0.487974 0.060714
Si Si2 0.357613 0.498744 0.093357
Si Si3 0.815823 0.186377 0.100777
Si Si4 0.944840 0.295854 0.605242
Si Si5 0.464173 0.346587 0.935499
Si Si6 0.889439 0.304852 0.929703
Si Si7 0.098833 0.639924 0.145325
Si Si8 0.237777 0.390794 0.683287
O O1 0.953865 0.500000 0.250000
O O2 0.003790 0.436619 0.997125
O O3 0.949456 0.596406 0.980731
O O4 0.911742 0.403668 0.016899
O O5 0.391824 0.500000 0.250000
O O6 0.320475 0.586698 0.162034
O O7 0.323552 0.410546 0.016101
O O8 0.387144 0.538286 0.944348
O O9 0.854419 0.174920 0.248465
O O10 0.762943 0.184911 0.190693
O O11 0.834650 0.281116 0.995014
O O12 0.907274 0.313679 0.750596
O O13 0.918118 0.220182 0.484420
O O14 0.000000 0.250000 0.647656
O O15 0.500000 0.250000 0.924835
O O16 0.446712 0.373246 0.761517
O O17 0.417171 0.301762 0.024882
O O18 0.257732 0.500000 0.750000
O O19 0.250000 0.368962 0.500000
#
# Coordination Sequence:
#
# PCOD9335854 Si02
#       8
#     8   8   8   8   8   8   8   8
#     4  11  21  38  59  80 109 159 216 266 323 374
#     4  11  23  35  55  84 121 161 198 241 302 371
#     4  11  21  38  56  82 122 159 202 249 300 380
#     4  12  24  38  57  85 119 161 219 275 325 376
#     4   9  19  37  56  75 104 153 208 257 308 367
#     4  10  23  39  56  81 117 156 205 265 317 370
#     4  11  21  35  53  80 116 156 201 254 310 373
#     4  11  19  35  57  86 120 163 200 237 298 376
#
# _framework density 21.244301
#
# number of rings (size 3 to 8) (size 9 to 14) (size 15 to 20)
#    0.000    1.250    2.500    6.000    0.000    5.000 
#    0.000    3.750    0.000    0.000    0.000    0.000 
#    0.000   38.000    0.250    0.125    0.000    0.625 
#
# Total GULP energy -178472.862649 kJ/mol
# GULP energy per Si atom -5577.276958 kJ/mol
# Density = 2.119595 g / cm^3
# Si number density = 21.244301 Si / 1000 Ang^3
#
#
#
# Elastic Constant Matrix: (Units=GPa)
#
#
# Indices 1 2 3 4 5 6 
#
# 1 64.7427 12.2722 16.0809 0.0000 0.0000 0.0000
# 2 12.2722 75.2273 19.5528 0.0000 0.0000 0.0000
# 3 16.0809 19.5528 113.6411 0.0000 0.0000 0.0000
# 4 0.0000 0.0000 0.0000 29.6066 0.0000 0.0000
# 5 0.0000 0.0000 0.0000 0.0000 29.1409 0.0000
# 6 0.0000 0.0000 0.0000 0.0000 0.0000 18.2520
#
#
#
# Elastic Compliance Matrix: (Units=1/GPa)
#
#
# Indices 1 2 3 4 5 6 
#
# 1 0.016337 -0.002161 -0.001940 0.000000 0.000000 0.000000
# 2 -0.002161 0.014201 -0.002138 0.000000 0.000000 0.000000
# 3 -0.001940 -0.002138 0.009442 0.000000 0.000000 0.000000
# 4 0.000000 0.000000 0.000000 0.033776 0.000000 0.000000
# 5 0.000000 0.000000 0.000000 0.000000 0.034316 0.000000
# 6 0.000000 0.000000 0.000000 0.000000 0.000000 0.054788
#
#
# Mechanical properties :
#
#
# Convention : Reuss Voigt Hill
#
# Bulk Modulus (GPa) = 36.35938 38.82475 37.59207
# Shear Modulus (GPa) = 27.09939 29.11359 28.10649
#
# Velocity S-wave (km/s) = 3.57544 3.70593 3.64127
# Velocity P-wave (km/s) = 5.84783 6.05202 5.95080
#
# Compressibility (1/GPa) = 0.02750322
#
# Stress axis : x y z
#
# Youngs Moduli (GPa) = 61.20986 70.41675 105.91026
#
# Poissons Ratio (x) = 0.15217 0.20547
# Poissons Ratio (y) = 0.13227 0.22640
# Poissons Ratio (z) = 0.11875 0.15053
#
# Static dielectric constant tensor:
#      x y z
#    x 1.907930 0.000000 0.000000 
#    y 0.000000 1.771010 0.000000 
#    z 0.000000 0.000000 1.995700 
# 
# From -- ./inp_files/17015.got.cif
#   From: 2010.05.17/outbox.cif.g08.bks.cpg/sg24_9_cif.got.tgz:17015.got - 2010.06.04 00:33:39.
