data_PCOD9335022
_publ_section_title
;
Structure prediction by ZEFSAII (Michael W. Deem and Ramdas Pophale) SiO2 
 PCOD9335022
Probable space group: I 21 21 21
;
_chemical_formula_sum "Si O2"
_cell_formula_units_Z 36
_cell_length_a 10.590554
_cell_length_b 5.080738
_cell_length_c 32.332107
_cell_angle_alpha 90.000000
_cell_angle_beta 90.000000
_cell_angle_gamma 90.000000
_cell_volume 1739.720522
_symmetry_space_group_name_H-M "I 21 21 21"
_symmetry_group_IT_number 24
_symmetry_cell_setting 'orthorhombic'
loop_
_space_group_symop_operation_xyz
x,y,z
-x,1/2-y,z
x,-y,1/2-z
1/2-x,y,-z
1/2+x,1/2+y,1/2+z
1/2-x,-y,1/2+z
1/2+x,1/2-y,-z
-x,1/2+y,1/2-z
loop_
_atom_site_type_symbol
_atom_site_label
_atom_site_fract_x
_atom_site_fract_y
_atom_site_fract_z
Si Si1 0.886383 0.069559 0.000234
Si Si2 0.500000 0.250000 0.432609
Si Si3 0.882544 0.937788 0.404648
Si Si4 0.774091 0.546640 0.879994
Si Si5 0.409265 0.000278 0.202689
O O1 0.911717 0.994380 0.047551
O O2 0.000000 0.250000 0.986377
O O3 0.750000 0.200768 0.000000
O O4 0.893305 0.848236 0.965483
O O5 0.409854 0.094395 0.401275
O O6 0.773158 0.722656 0.400369
O O7 0.000000 0.750000 0.389084
O O8 0.826164 0.210838 0.386058
O O9 0.800894 0.507042 0.831511
O O10 0.500000 0.250000 0.196678
O O11 0.500000 0.750000 0.197679
O O12 0.361494 0.000000 0.250000
#
# Coordination Sequence:
#
# PCOD9335022 Si02
#       5
#     8   4   8   8   8
#     4  11  24  40  59  87 127 177 226 279 321 381
#     4  12  26  36  68  92 134 168 224 274 334 384
#     4  11  26  43  65  88 132 183 229 268 320 388
#     4  12  24  43  67  98 133 170 220 277 333 397
#     4  10  21  39  68 103 137 166 203 268 346 414
#
# _framework density 20.692978
#
# number of rings (size 3 to 8) (size 9 to 14) (size 15 to 20)
#    0.000    0.889    3.333    3.333    6.222    0.889 
#    0.000    0.000    0.000    2.667    0.000    0.000 
#    0.000    0.000    0.000    0.000    0.000    0.000 
#
# Total GULP energy -100336.554929 kJ/mol
# GULP energy per Si atom -5574.253052 kJ/mol
# Density = 2.064588 g / cm^3
# Si number density = 20.692978 Si / 1000 Ang^3
#
#
#
# Elastic Constant Matrix: (Units=GPa)
#
#
# Indices 1 2 3 4 5 6 
#
# 1 62.5959 11.5219 14.6124 0.0000 0.0000 0.0000
# 2 11.5219 111.2368 32.5851 0.0000 0.0000 0.0000
# 3 14.6124 32.5851 117.1599 0.0000 0.0000 0.0000
# 4 0.0000 0.0000 0.0000 27.7845 0.0000 0.0000
# 5 0.0000 0.0000 0.0000 0.0000 13.7792 0.0000
# 6 0.0000 0.0000 0.0000 0.0000 0.0000 37.6738
#
#
#
# Elastic Compliance Matrix: (Units=1/GPa)
#
#
# Indices 1 2 3 4 5 6 
#
# 1 0.016603 -0.001212 -0.001734 0.000000 0.000000 0.000000
# 2 -0.001212 0.009876 -0.002596 0.000000 0.000000 0.000000
# 3 -0.001734 -0.002596 0.009473 0.000000 0.000000 0.000000
# 4 0.000000 0.000000 0.000000 0.035991 0.000000 0.000000
# 5 0.000000 0.000000 0.000000 0.000000 0.072573 0.000000
# 6 0.000000 0.000000 0.000000 0.000000 0.000000 0.026544
#
#
# Mechanical properties :
#
#
# Convention : Reuss Voigt Hill
#
# Bulk Modulus (GPa) = 40.20892 45.38128 42.79510
# Shear Modulus (GPa) = 26.25599 31.33238 28.79418
#
# Velocity S-wave (km/s) = 3.56594 3.89544 3.73432
# Velocity P-wave (km/s) = 6.03555 6.49699 6.27052
#
# Compressibility (1/GPa) = 0.02487010
#
# Stress axis : x y z
#
# Youngs Moduli (GPa) = 60.22909 101.25882 105.55805
#
# Poissons Ratio (x) = 0.12271 0.18301
# Poissons Ratio (y) = 0.07299 0.27398
# Poissons Ratio (z) = 0.10442 0.26282
#
# Static dielectric constant tensor:
#      x y z
#    x 1.801400 0.000000 0.000000 
#    y 0.000000 1.776470 0.000000 
#    z 0.000000 0.000000 1.716160 
# 
# From -- ./inp_files/38492.got.cif
#   From: 2010.05.17/outbox.cif.g08.bks.cpg/sg24_20_cif.got.tgz:38492.got - 2010.06.04 00:33:39.
