data_PCOD9335933
_publ_section_title
;
Structure prediction by ZEFSAII (Michael W. Deem and Ramdas Pophale) SiO2 
 PCOD9335933
Probable space group: I 21 21 21
;
_chemical_formula_sum "Si O2"
_cell_formula_units_Z 48
_cell_length_a 27.828379
_cell_length_b 15.309108
_cell_length_c 5.282747
_cell_angle_alpha 90.000000
_cell_angle_beta 90.000000
_cell_angle_gamma 90.000000
_cell_volume 2250.596341
_symmetry_space_group_name_H-M "I 21 21 21"
_symmetry_group_IT_number 24
_symmetry_cell_setting 'orthorhombic'
loop_
_space_group_symop_operation_xyz
x,y,z
-x,1/2-y,z
x,-y,1/2-z
1/2-x,y,-z
1/2+x,1/2+y,1/2+z
1/2-x,-y,1/2+z
1/2+x,1/2-y,-z
-x,1/2+y,1/2-z
loop_
_atom_site_type_symbol
_atom_site_label
_atom_site_fract_x
_atom_site_fract_y
_atom_site_fract_z
Si Si1 0.698437 0.592313 0.609201
Si Si2 0.456178 0.799843 0.662313
Si Si3 0.642248 0.751797 0.871982
Si Si4 0.114193 0.875126 0.738165
Si Si5 0.718130 0.102959 0.748253
Si Si6 0.968814 0.551960 0.997343
O O1 0.703567 0.500000 0.750000
O O2 0.750000 0.619058 0.500000
O O3 0.674257 0.669192 0.775009
O O4 0.660768 0.584460 0.382957
O O5 0.500000 0.750000 0.535581
O O6 0.410666 0.743754 0.750927
O O7 0.429012 0.863481 0.464168
O O8 0.479595 0.849428 0.905748
O O9 0.672180 0.836105 0.795403
O O10 0.630173 0.720057 0.157147
O O11 0.088754 0.933256 0.953458
O O12 0.750000 0.118860 0.500000
O O13 0.705594 0.000000 0.750000
O O14 0.750000 0.121982 0.000000
O O15 0.987839 0.500000 0.750000
O O16 0.980679 0.500000 0.250000
#
# Coordination Sequence:
#
# PCOD9335933 Si02
#       6
#     8   8   8   8   8   8
#     4  11  27  38  55  93 140 186 228 274 328 400
#     4  10  23  43  67  97 135 173 225 276 341 403
#     4  10  24  40  67  95 136 177 227 283 338 408
#     4  10  24  39  65  93 130 182 223 278 333 400
#     4  10  23  43  73 101 130 173 224 284 349 413
#     4  11  22  40  67  94 125 172 224 273 322 396
#
# _framework density 21.327680000000001
#
# number of rings (size 3 to 8) (size 9 to 14) (size 15 to 20)
#    0.000    1.667    1.667    0.500   16.333    2.667 
#    0.000    0.833    0.000    1.000    0.000    0.000 
#    0.000    0.000    0.000    0.000    0.000    0.000 
#
# Total GULP energy -133762.139478 kJ/mol
# GULP energy per Si atom -5573.422478 kJ/mol
# Density = 2.127914 g / cm^3
# Si number density = 21.327680 Si / 1000 Ang^3
#
#
#
# Elastic Constant Matrix: (Units=GPa)
#
#
# Indices 1 2 3 4 5 6 
#
# 1 110.1973 47.2306 26.6301 0.0000 0.0000 0.0000
# 2 47.2306 74.3775 30.3789 0.0000 0.0000 0.0000
# 3 26.6301 30.3789 111.3342 0.0000 0.0000 0.0000
# 4 0.0000 0.0000 0.0000 9.0939 0.0000 0.0000
# 5 0.0000 0.0000 0.0000 0.0000 8.0643 0.0000
# 6 0.0000 0.0000 0.0000 0.0000 0.0000 11.8983
#
#
#
# Elastic Compliance Matrix: (Units=1/GPa)
#
#
# Indices 1 2 3 4 5 6 
#
# 1 0.012553 -0.007591 -0.000931 0.000000 0.000000 0.000000
# 2 -0.007591 0.019722 -0.003566 0.000000 0.000000 0.000000
# 3 -0.000931 -0.003566 0.010178 0.000000 0.000000 0.000000
# 4 0.000000 0.000000 0.000000 0.109963 0.000000 0.000000
# 5 0.000000 0.000000 0.000000 0.000000 0.124003 0.000000
# 6 0.000000 0.000000 0.000000 0.000000 0.000000 0.084046
#
#
# Mechanical properties :
#
#
# Convention : Reuss Voigt Hill
#
# Bulk Modulus (GPa) = 54.71467 56.04312 55.37890
# Shear Modulus (GPa) = 12.79645 18.58926 15.69286
#
# Velocity S-wave (km/s) = 2.45213 2.95549 2.71550
# Velocity P-wave (km/s) = 5.80752 6.16286 5.98782
#
# Compressibility (1/GPa) = 0.01827663
#
# Stress axis : x y z
#
# Youngs Moduli (GPa) = 79.66080 50.70563 98.25461
#
# Poissons Ratio (x) = 0.38491 0.09150
# Poissons Ratio (y) = 0.60471 0.35034
# Poissons Ratio (z) = 0.07419 0.18080
#
# Static dielectric constant tensor:
#      x y z
#    x 1.724070 0.000000 0.000000 
#    y 0.000000 1.903050 0.000000 
#    z 0.000000 0.000000 1.926390 
# 
# From -- ./inp_files/7117.got.cif
#   From: 2010.05.17/outbox.cif.g08.bks.cpg/sg24_4_cif.got.tgz:7117.got - 2010.06.04 00:33:39.
