data_PCOD9335206
_publ_section_title
;
Structure prediction by ZEFSAII (Michael W. Deem and Ramdas Pophale) SiO2 
 PCOD9335206
Probable space group: I 21 21 21
;
_chemical_formula_sum "Si O2"
_cell_formula_units_Z 32
_cell_length_a 5.571205
_cell_length_b 10.391122
_cell_length_c 27.759145
_cell_angle_alpha 90.000000
_cell_angle_beta 90.000000
_cell_angle_gamma 90.000000
_cell_volume 1607.006630
_symmetry_space_group_name_H-M "I 21 21 21"
_symmetry_group_IT_number 24
_symmetry_cell_setting 'orthorhombic'
loop_
_space_group_symop_operation_xyz
x,y,z
-x,1/2-y,z
x,-y,1/2-z
1/2-x,y,-z
1/2+x,1/2+y,1/2+z
1/2-x,-y,1/2+z
1/2+x,1/2-y,-z
-x,1/2+y,1/2-z
loop_
_atom_site_type_symbol
_atom_site_label
_atom_site_fract_x
_atom_site_fract_y
_atom_site_fract_z
Si Si1 0.118963 0.107250 0.209522
Si Si2 0.500000 0.750000 0.338533
Si Si3 0.500000 0.250000 0.970668
Si Si4 0.752050 0.827096 0.943963
Si Si5 0.373014 0.572765 0.610418
O O1 0.391943 0.142217 0.196543
O O2 0.000000 0.250000 0.219104
O O3 0.020852 0.052386 0.158981
O O4 0.087455 0.000000 0.250000
O O5 0.306615 0.685207 0.373034
O O6 0.517948 0.373073 0.935246
O O7 0.250000 0.260449 0.000000
O O8 0.500000 0.750000 0.936424
O O9 0.000000 0.750000 0.937410
O O10 0.755288 0.946080 0.907847
O O11 0.750000 0.869927 0.000000
#
# Coordination Sequence:
#
# PCOD9335206 Si02
#       5
#     8   4   4   8   8
#     4  10  23  44  69  95 137 176 232 295 359 420
#     4  10  21  42  68  98 134 172 226 295 352 408
#     4  12  25  38  70 108 138 184 230 281 358 412
#     4  10  24  42  62  93 136 182 223 274 334 409
#     4  11  23  42  66  95 138 172 228 293 337 421
#
# _framework density 19.912799
#
# number of rings (size 3 to 8) (size 9 to 14) (size 15 to 20)
#    0.000    1.500    3.750    1.500    3.500    8.000 
#    0.000    0.000    0.000    0.000    0.000    0.000 
#    0.000    0.000    0.000    0.000    0.000    0.000 
#
# Total GULP energy -89224.693307 kJ/mol
# GULP energy per Si atom -5576.543332 kJ/mol
# Density = 1.986748 g / cm^3
# Si number density = 19.912799 Si / 1000 Ang^3
#
#
#
# Elastic Constant Matrix: (Units=GPa)
#
#
# Indices 1 2 3 4 5 6 
#
# 1 92.3189 25.6389 57.5954 0.0000 0.0000 0.0000
# 2 25.6389 92.1934 79.4301 0.0000 0.0000 0.0000
# 3 57.5954 79.4301 148.7193 0.0000 0.0000 0.0000
# 4 0.0000 0.0000 0.0000 67.6502 0.0000 0.0000
# 5 0.0000 0.0000 0.0000 0.0000 19.0181 0.0000
# 6 0.0000 0.0000 0.0000 0.0000 0.0000 18.9726
#
#
#
# Elastic Compliance Matrix: (Units=1/GPa)
#
#
# Indices 1 2 3 4 5 6 
#
# 1 0.014391 0.001481 -0.006365 0.000000 0.000000 0.000000
# 2 0.001481 0.020245 -0.011386 0.000000 0.000000 0.000000
# 3 -0.006365 -0.011386 0.015270 0.000000 0.000000 0.000000
# 4 0.000000 0.000000 0.000000 0.014782 0.000000 0.000000
# 5 0.000000 0.000000 0.000000 0.000000 0.052581 0.000000
# 6 0.000000 0.000000 0.000000 0.000000 0.000000 0.052708
#
#
# Mechanical properties :
#
#
# Convention : Reuss Voigt Hill
#
# Bulk Modulus (GPa) = 57.57984 73.17339 65.37662
# Shear Modulus (GPa) = 24.00321 32.49932 28.25127
#
# Velocity S-wave (km/s) = 3.47568 4.04429 3.77071
# Velocity P-wave (km/s) = 6.71460 7.65735 7.20142
#
# Compressibility (1/GPa) = 0.01736719
#
# Stress axis : x y z
#
# Youngs Moduli (GPa) = 69.48632 49.39550 65.48699
#
# Poissons Ratio (x) = -0.07316 0.41679
# Poissons Ratio (y) = -0.10292 0.74565
# Poissons Ratio (z) = 0.44225 0.56243
#
# Static dielectric constant tensor:
#      x y z
#    x 1.781290 0.000000 0.000000 
#    y 0.000000 1.723110 0.000000 
#    z 0.000000 0.000000 1.685570 
# 
# From -- ./inp_files/1198.got.cif
#   From: 2010.05.17/outbox.cif.g08.bks.cpg/sg24_1_cif.got.tgz:1198.got - 2010.06.04 00:33:39.
