data_PCOD9335504
_publ_section_title
;
Structure prediction by ZEFSAII (Michael W. Deem and Ramdas Pophale) SiO2 
 PCOD9335504
Probable space group: I 21 21 21
;
_chemical_formula_sum "Si O2"
_cell_formula_units_Z 56
_cell_length_a 20.206622
_cell_length_b 8.991561
_cell_length_c 14.266316
_cell_angle_alpha 90.000000
_cell_angle_beta 90.000000
_cell_angle_gamma 90.000000
_cell_volume 2592.033748
_symmetry_space_group_name_H-M "I 21 21 21"
_symmetry_group_IT_number 24
_symmetry_cell_setting 'orthorhombic'
loop_
_space_group_symop_operation_xyz
x,y,z
-x,1/2-y,z
x,-y,1/2-z
1/2-x,y,-z
1/2+x,1/2+y,1/2+z
1/2-x,-y,1/2+z
1/2+x,1/2-y,-z
-x,1/2+y,1/2-z
loop_
_atom_site_type_symbol
_atom_site_label
_atom_site_fract_x
_atom_site_fract_y
_atom_site_fract_z
Si Si1 0.685812 0.757122 0.618847
Si Si2 0.174211 0.810595 0.590301
Si Si3 0.628273 0.500000 0.750000
Si Si4 0.572993 0.674490 0.920407
Si Si5 0.671294 0.932440 0.972403
Si Si6 0.853813 0.500000 0.750000
Si Si7 0.409854 0.555605 0.353015
Si Si8 0.041407 0.899366 0.878490
O O1 0.763950 0.791577 0.618949
O O2 0.675319 0.668683 0.520393
O O3 0.665159 0.644874 0.702085
O O4 0.658186 0.922397 0.595011
O O5 0.109362 0.723824 0.622100
O O6 0.185453 0.946136 0.660132
O O7 0.585207 0.568052 0.833483
O O8 0.500000 0.750000 0.912893
O O9 0.633693 0.792192 0.926705
O O10 0.572536 0.587013 0.019022
O O11 0.750000 0.914493 0.000000
O O12 0.629793 0.963319 0.067615
O O13 0.903598 0.613912 0.799464
O O14 0.389826 0.500000 0.250000
O O15 0.487850 0.527075 0.361732
O O16 0.000000 0.750000 0.877348
#
# Coordination Sequence:
#
# PCOD9335504 Si02
#       8
#     8   8   4   8   8   4   8   8
#     4  10  22  46  67  97 143 178 232 295 343 417
#     4  10  22  40  65  97 138 179 222 282 350 410
#     4  12  27  46  68 102 133 188 246 294 350 408
#     4  11  26  48  71 100 141 188 237 300 346 418
#     4  11  22  47  75 102 138 187 230 291 358 420
#     4  12  23  34  64 100 135 188 220 276 352 426
#     4  11  20  38  68  99 137 174 224 282 341 424
#     4  11  22  40  62  95 142 174 225 279 348 418
#
# _framework density 21.604655999999999
#
# number of rings (size 3 to 8) (size 9 to 14) (size 15 to 20)
#    0.000    1.143    6.429    2.143    0.000    2.857 
#    5.143    0.000    0.000    0.000    0.000    0.000 
#    0.000    0.000    0.000    0.000    0.000    0.000 
#
# Total GULP energy -156009.537567 kJ/mol
# GULP energy per Si atom -5571.769199 kJ/mol
# Density = 2.155548 g / cm^3
# Si number density = 21.604656 Si / 1000 Ang^3
#
#
#
# Elastic Constant Matrix: (Units=GPa)
#
#
# Indices 1 2 3 4 5 6 
#
# 1 66.1327 23.4895 5.2162 0.0000 0.0000 0.0000
# 2 23.4895 36.5220 20.2503 0.0000 0.0000 0.0000
# 3 5.2162 20.2503 109.6885 0.0000 0.0000 0.0000
# 4 0.0000 0.0000 0.0000 43.1176 0.0000 0.0000
# 5 0.0000 0.0000 0.0000 0.0000 16.8459 0.0000
# 6 0.0000 0.0000 0.0000 0.0000 0.0000 28.8155
#
#
#
# Elastic Compliance Matrix: (Units=1/GPa)
#
#
# Indices 1 2 3 4 5 6 
#
# 1 0.019839 -0.013632 0.001573 0.000000 0.000000 0.000000
# 2 -0.013632 0.039870 -0.006712 0.000000 0.000000 0.000000
# 3 0.001573 -0.006712 0.010281 0.000000 0.000000 0.000000
# 4 0.000000 0.000000 0.000000 0.023192 0.000000 0.000000
# 5 0.000000 0.000000 0.000000 0.000000 0.059362 0.000000
# 6 0.000000 0.000000 0.000000 0.000000 0.000000 0.034704
#
#
# Mechanical properties :
#
#
# Convention : Reuss Voigt Hill
#
# Bulk Modulus (GPa) = 30.81857 34.47279 32.64568
# Shear Modulus (GPa) = 21.22187 28.64828 24.93508
#
# Velocity S-wave (km/s) = 3.13754 3.64541 3.40097
# Velocity P-wave (km/s) = 5.23653 5.80599 5.52860
#
# Compressibility (1/GPa) = 0.03244797
#
# Stress axis : x y z
#
# Youngs Moduli (GPa) = 50.40592 25.08144 97.26560
#
# Poissons Ratio (x) = 0.34191 -0.15302
# Poissons Ratio (y) = 0.68713 0.65289
# Poissons Ratio (z) = -0.07930 0.16836
#
# Static dielectric constant tensor:
#      x y z
#    x 1.826420 0.000000 0.000000 
#    y 0.000000 1.887160 0.000000 
#    z 0.000000 0.000000 1.781600 
# 
# From -- ./inp_files/27607.got.cif
#   From: 2010.05.17/outbox.cif.g08.bks.cpg/sg24_14_cif.got.tgz:27607.got - 2010.06.04 00:33:39.
