data_PCOD9335091
_publ_section_title
;
Structure prediction by ZEFSAII (Michael W. Deem and Ramdas Pophale) SiO2 
 PCOD9335091
Probable space group: I 21 21 21
;
_chemical_formula_sum "Si O2"
_cell_formula_units_Z 32
_cell_length_a 18.739862
_cell_length_b 15.839670
_cell_length_c 5.099056
_cell_angle_alpha 90.000000
_cell_angle_beta 90.000000
_cell_angle_gamma 90.000000
_cell_volume 1513.569262
_symmetry_space_group_name_H-M "I 21 21 21"
_symmetry_group_IT_number 24
_symmetry_cell_setting 'orthorhombic'
loop_
_space_group_symop_operation_xyz
x,y,z
-x,1/2-y,z
x,-y,1/2-z
1/2-x,y,-z
1/2+x,1/2+y,1/2+z
1/2-x,-y,1/2+z
1/2+x,1/2-y,-z
-x,1/2+y,1/2-z
loop_
_atom_site_type_symbol
_atom_site_label
_atom_site_fract_x
_atom_site_fract_y
_atom_site_fract_z
Si Si1 0.471877 0.841032 0.623858
Si Si2 0.456489 0.406125 0.369561
Si Si3 0.293754 0.602927 0.244679
Si Si4 0.831595 0.438157 0.005398
O O1 0.500000 0.750000 0.714715
O O2 0.497931 0.851036 0.327354
O O3 0.389311 0.866639 0.583822
O O4 0.512582 0.900886 0.836530
O O5 0.461590 0.500000 0.250000
O O6 0.375522 0.376569 0.317082
O O7 0.291976 0.500000 0.250000
O O8 0.250000 0.630961 0.500000
O O9 0.250000 0.634736 0.000000
O O10 0.846093 0.500000 0.750000
O O11 0.834763 0.500000 0.250000
O O12 0.750000 0.405340 0.000000
#
# Coordination Sequence:
#
# PCOD9335091 Si02
#       4
#     8   8   8   8
#     4  12  24  39  59  92 131 161 198 263 339 395
#     4  11  22  38  62  87 115 161 213 254 303 380
#     4   9  17  31  52  80 112 145 190 243 283 333
#     4  10  21  40  67  93 120 165 224 276 318 376
#
# _framework density 21.142078999999999
#
# number of rings (size 3 to 8) (size 9 to 14) (size 15 to 20)
#    0.000    1.500    0.000    6.750    0.000    4.000 
#    0.000    3.750    0.000    0.000    0.000    0.000 
#    0.000    0.000    0.000    0.000    0.000    0.000 
#
# Total GULP energy -89113.237679 kJ/mol
# GULP energy per Si atom -5569.577355 kJ/mol
# Density = 2.109396 g / cm^3
# Si number density = 21.142079 Si / 1000 Ang^3
#
#
#
# Elastic Constant Matrix: (Units=GPa)
#
#
# Indices 1 2 3 4 5 6 
#
# 1 195.5399 52.6338 44.5278 0.0000 0.0000 0.0000
# 2 52.6338 64.4474 6.4075 0.0000 0.0000 0.0000
# 3 44.5278 6.4075 132.7870 0.0000 0.0000 0.0000
# 4 0.0000 0.0000 0.0000 11.4025 0.0000 0.0000
# 5 0.0000 0.0000 0.0000 0.0000 16.2413 0.0000
# 6 0.0000 0.0000 0.0000 0.0000 0.0000 -11.5551
#
#
#
# Elastic Compliance Matrix: (Units=1/GPa)
#
#
# Indices 1 2 3 4 5 6 
#
# 1 0.007099 -0.005588 -0.002111 0.000000 0.000000 0.000000
# 2 -0.005588 0.019990 0.000909 0.000000 0.000000 0.000000
# 3 -0.002111 0.000909 0.008195 0.000000 0.000000 0.000000
# 4 0.000000 0.000000 0.000000 0.087700 0.000000 0.000000
# 5 0.000000 0.000000 0.000000 0.000000 0.061571 0.000000
# 6 0.000000 0.000000 0.000000 0.000000 0.000000 -0.086542
#
#
# Mechanical properties :
#
#
# Convention : Reuss Voigt Hill
#
# Bulk Modulus (GPa) = 46.07347 66.65694 56.36521
# Shear Modulus (GPa) = 42.07833 22.49809 32.28821
#
# Velocity S-wave (km/s) = 4.46608 3.26565 3.91218
# Velocity P-wave (km/s) = 6.95946 6.76874 6.86476
#
# Compressibility (1/GPa) = 0.02170446
#
# Stress axis : x y z
#
# Youngs Moduli (GPa) = 140.86980 50.02619 122.02840
#
# Poissons Ratio (x) = 0.27953 0.25758
# Poissons Ratio (y) = 0.78713 -0.11094
# Poissons Ratio (z) = 0.29735 -0.04548
#
# Static dielectric constant tensor:
#      x y z
#    x 10.604500 0.000000 0.000000 
#    y 0.000000 1.815930 0.000000 
#    z 0.000000 0.000000 1.729750 
# 
# From -- ./inp_files/3078.got.cif
#   From: 2010.05.17/outbox.cif.g08.bks.cpg/sg24_2_cif.got.tgz:3078.got - 2010.06.04 00:33:39.
