data_PCOD9335310
_publ_section_title
;
Structure prediction by ZEFSAII (Michael W. Deem and Ramdas Pophale) SiO2 
 PCOD9335310
Probable space group: I 21 21 21
;
_chemical_formula_sum "Si O2"
_cell_formula_units_Z 36
_cell_length_a 15.238335
_cell_length_b 5.295436
_cell_length_c 23.242258
_cell_angle_alpha 90.000000
_cell_angle_beta 90.000000
_cell_angle_gamma 90.000000
_cell_volume 1875.502115
_symmetry_space_group_name_H-M "I 21 21 21"
_symmetry_group_IT_number 24
_symmetry_cell_setting 'orthorhombic'
loop_
_space_group_symop_operation_xyz
x,y,z
-x,1/2-y,z
x,-y,1/2-z
1/2-x,y,-z
1/2+x,1/2+y,1/2+z
1/2-x,-y,1/2+z
1/2+x,1/2-y,-z
-x,1/2+y,1/2-z
loop_
_atom_site_type_symbol
_atom_site_label
_atom_site_fract_x
_atom_site_fract_y
_atom_site_fract_z
Si Si1 0.573912 0.427491 0.992236
Si Si2 0.000000 0.250000 0.392142
Si Si3 0.691572 0.214037 0.442724
Si Si4 0.777111 0.285511 0.093324
Si Si5 0.593361 0.901240 0.687408
O O1 0.500000 0.250000 0.019695
O O2 0.530143 0.532901 0.934431
O O3 0.658981 0.287728 0.963973
O O4 0.602514 0.661127 0.032374
O O5 0.075139 0.354363 0.351796
O O6 0.750000 0.202007 0.500000
O O7 0.732114 0.441858 0.405512
O O8 0.706706 0.942625 0.413498
O O9 0.835408 0.247960 0.150251
O O10 0.500000 0.750000 0.692092
O O11 0.619282 0.000000 0.750000
#
# Coordination Sequence:
#
# PCOD9335310 Si02
#       5
#     8   4   8   8   8
#     4  11  22  33  58  79 112 151 192 234 275 341
#     4  12  20  34  52  78 116 140 196 230 272 320
#     4  10  22  34  53  75 105 149 185 223 277 335
#     4  11  21  38  51  74 111 148 186 226 277 323
#     4  12  23  34  53  78 106 155 196 236 265 320
#
# _framework density 19.194858
#
# number of rings (size 3 to 8) (size 9 to 14) (size 15 to 20)
#    0.000    0.889    5.556    4.667    3.111    0.000 
#    0.000    0.000    0.000    0.000    0.000    0.000 
#    0.000    3.556    0.000    0.000    0.000    0.000 
#
# Total GULP energy -100461.840826 kJ/mol
# GULP energy per Si atom -5581.213379 kJ/mol
# Density = 1.915117 g / cm^3
# Si number density = 19.194858 Si / 1000 Ang^3
#
#
#
# Elastic Constant Matrix: (Units=GPa)
#
#
# Indices 1 2 3 4 5 6 
#
# 1 48.7374 16.1822 19.7546 0.0000 0.0000 0.0000
# 2 16.1822 104.1957 21.0331 0.0000 0.0000 0.0000
# 3 19.7546 21.0331 81.2774 0.0000 0.0000 0.0000
# 4 0.0000 0.0000 0.0000 -130.8341 0.0000 0.0000
# 5 0.0000 0.0000 0.0000 0.0000 28.7939 0.0000
# 6 0.0000 0.0000 0.0000 0.0000 0.0000 39.8263
#
#
#
# Elastic Compliance Matrix: (Units=1/GPa)
#
#
# Indices 1 2 3 4 5 6 
#
# 1 0.023422 -0.002626 -0.005013 0.000000 0.000000 0.000000
# 2 -0.002626 0.010421 -0.002059 0.000000 0.000000 0.000000
# 3 -0.005013 -0.002059 0.014055 0.000000 0.000000 0.000000
# 4 0.000000 0.000000 0.000000 -0.007643 0.000000 0.000000
# 5 0.000000 0.000000 0.000000 0.000000 0.034730 0.000000
# 6 0.000000 0.000000 0.000000 0.000000 0.000000 0.025109
#
#
# Mechanical properties :
#
#
# Convention : Reuss Voigt Hill
#
# Bulk Modulus (GPa) = 35.08462 38.68337 36.88400
# Shear Modulus (GPa) = 38.76323 -0.62675 19.06824
#
# Velocity S-wave (km/s) = 4.49871 -0.57204 3.15525
# Velocity P-wave (km/s) = 6.73070 4.44527 5.70363
#
# Compressibility (1/GPa) = 0.02850252
#
# Stress axis : x y z
#
# Youngs Moduli (GPa) = 42.69509 95.96351 71.15044
#
# Poissons Ratio (x) = 0.25196 0.35670
# Poissons Ratio (y) = 0.11210 0.14646
# Poissons Ratio (z) = 0.21404 0.19754
#
# Static dielectric constant tensor:
#      x y z
#    x 1.818510 0.000000 0.000000 
#    y 0.000000 1.754350 0.000000 
#    z 0.000000 0.000000 1.629170 
# 
# From -- ./inp_files/3456.got.cif
#   From: 2010.05.17/outbox.cif.g08.bks.cpg/sg24_2_cif.got.tgz:3456.got - 2010.06.04 00:33:39.
