data_PCOD9335263
_publ_section_title
;
Structure prediction by ZEFSAII (Michael W. Deem and Ramdas Pophale) SiO2 
 PCOD9335263
Probable space group: I 21 21 21
;
_chemical_formula_sum "Si O2"
_cell_formula_units_Z 48
_cell_length_a 21.009988
_cell_length_b 5.483730
_cell_length_c 17.435389
_cell_angle_alpha 90.000000
_cell_angle_beta 90.000000
_cell_angle_gamma 90.000000
_cell_volume 2008.785242
_symmetry_space_group_name_H-M "I 21 21 21"
_symmetry_group_IT_number 24
_symmetry_cell_setting 'orthorhombic'
loop_
_space_group_symop_operation_xyz
x,y,z
-x,1/2-y,z
x,-y,1/2-z
1/2-x,y,-z
1/2+x,1/2+y,1/2+z
1/2-x,-y,1/2+z
1/2+x,1/2-y,-z
-x,1/2+y,1/2-z
loop_
_atom_site_type_symbol
_atom_site_label
_atom_site_fract_x
_atom_site_fract_y
_atom_site_fract_z
Si Si1 0.760109 0.600436 0.337961
Si Si2 0.500000 0.750000 0.938741
Si Si3 0.562218 0.878043 0.445385
Si Si4 0.000000 0.250000 0.201769
Si Si5 0.863292 0.682630 0.858679
Si Si6 0.207872 0.500000 0.750000
Si Si7 0.396472 0.102937 0.910430
Si Si8 0.540003 0.500000 0.250000
O O1 0.768889 0.500000 0.250000
O O2 0.700633 0.468176 0.380647
O O3 0.824966 0.572295 0.383324
O O4 0.746247 0.885969 0.320560
O O5 0.562587 0.643543 0.899644
O O6 0.475024 0.538186 0.992230
O O7 0.500000 0.750000 0.407776
O O8 0.600991 0.690682 0.500546
O O9 0.606237 0.083699 0.403114
O O10 0.995493 0.500000 0.250000
O O11 0.937666 0.226691 0.147064
O O12 0.838438 0.795499 0.779535
O O13 0.916868 0.501781 0.827422
O O14 0.500000 0.750000 0.242774
#
# Coordination Sequence:
#
# PCOD9335263 Si02
#       8
#     8   4   8   4   8   4   8   4
#     4  10  23  42  71 104 147 199 250 324 390 460
#     4  10  21  46  66 100 155 190 250 324 368 475
#     4  10  24  44  73 103 147 202 246 324 392 465
#     4  12  25  40  74 114 155 192 266 334 384 465
#     4  11  24  47  69 109 148 188 253 317 389 466
#     4  10  21  44  70 100 151 188 248 322 374 469
#     4  11  23  45  69 109 151 198 262 313 395 464
#     4  12  27  46  78 116 153 190 264 328 382 477
#
# _framework density 23.895036000000001
#
# number of rings (size 3 to 8) (size 9 to 14) (size 15 to 20)
#    0.000    1.333    5.000    1.500    2.333    7.333 
#    0.000    5.000    0.000    2.000    0.000    0.000 
#    0.000    0.000    0.000    0.000    0.000    0.000 
#
# Total GULP energy -133769.483980 kJ/mol
# GULP energy per Si atom -5573.728499 kJ/mol
# Density = 2.384065 g / cm^3
# Si number density = 23.895036 Si / 1000 Ang^3
#
#
#
# Elastic Constant Matrix: (Units=GPa)
#
#
# Indices 1 2 3 4 5 6 
#
# 1 240.2061 83.9286 83.7716 0.0000 0.0000 0.0000
# 2 83.9286 108.5632 26.0196 0.0000 0.0000 0.0000
# 3 83.7716 26.0196 83.1831 0.0000 0.0000 0.0000
# 4 0.0000 0.0000 0.0000 82.9697 0.0000 0.0000
# 5 0.0000 0.0000 0.0000 0.0000 54.7437 0.0000
# 6 0.0000 0.0000 0.0000 0.0000 0.0000 39.7644
#
#
#
# Elastic Compliance Matrix: (Units=1/GPa)
#
#
# Indices 1 2 3 4 5 6 
#
# 1 0.008153 -0.004686 -0.006744 0.000000 0.000000 0.000000
# 2 -0.004686 0.012651 0.000762 0.000000 0.000000 0.000000
# 3 -0.006744 0.000762 0.018575 0.000000 0.000000 0.000000
# 4 0.000000 0.000000 0.000000 0.012053 0.000000 0.000000
# 5 0.000000 0.000000 0.000000 0.000000 0.018267 0.000000
# 6 0.000000 0.000000 0.000000 0.000000 0.000000 0.025148
#
#
# Mechanical properties :
#
#
# Convention : Reuss Voigt Hill
#
# Bulk Modulus (GPa) = 55.42560 91.04357 73.23459
# Shear Modulus (GPa) = 40.91709 51.37774 46.14741
#
# Velocity S-wave (km/s) = 4.14257 4.64199 4.39937
# Velocity P-wave (km/s) = 6.79168 8.18016 7.51804
#
# Compressibility (1/GPa) = 0.01804220
#
# Stress axis : x y z
#
# Youngs Moduli (GPa) = 122.66097 79.04258 53.83453
#
# Poissons Ratio (x) = 0.37041 0.36308
# Poissons Ratio (y) = 0.57481 -0.04102
# Poissons Ratio (z) = 0.82727 -0.06023
#
# Static dielectric constant tensor:
#      x y z
#    x 1.545170 0.000000 0.000000 
#    y 0.000000 0.880830 0.000000 
#    z 0.000000 0.000000 1.997280 
# 
# From -- ./inp_files/34108.got.cif
#   From: 2010.05.17/outbox.cif.g08.bks.cpg/sg24_18_cif.got.tgz:34108.got - 2010.06.04 00:33:39.
