data_PCOD9335670
_publ_section_title
;
Structure prediction by ZEFSAII (Michael W. Deem and Ramdas Pophale) SiO2 
 PCOD9335670
Probable space group: I 21 21 21
;
_chemical_formula_sum "Si O2"
_cell_formula_units_Z 44
_cell_length_a 29.580896
_cell_length_b 9.941680
_cell_length_c 7.718554
_cell_angle_alpha 90.000000
_cell_angle_beta 90.000000
_cell_angle_gamma 90.000000
_cell_volume 2269.901707
_symmetry_space_group_name_H-M "I 21 21 21"
_symmetry_group_IT_number 24
_symmetry_cell_setting 'orthorhombic'
loop_
_space_group_symop_operation_xyz
x,y,z
-x,1/2-y,z
x,-y,1/2-z
1/2-x,y,-z
1/2+x,1/2+y,1/2+z
1/2-x,-y,1/2+z
1/2+x,1/2-y,-z
-x,1/2+y,1/2-z
loop_
_atom_site_type_symbol
_atom_site_label
_atom_site_fract_x
_atom_site_fract_y
_atom_site_fract_z
Si Si1 0.619929 0.605323 0.043436
Si Si2 0.191803 0.500000 0.250000
Si Si3 0.013245 0.907617 0.908221
Si Si4 0.381085 0.701466 0.734929
Si Si5 0.537378 0.000000 0.750000
Si Si6 0.250000 0.313602 0.000000
Si Si7 0.159468 0.814612 0.609812
O O1 0.567435 0.581999 0.085862
O O2 0.648297 0.468244 0.057630
O O3 0.640058 0.700151 0.196169
O O4 0.619866 0.666871 0.852302
O O5 0.155945 0.605550 0.171524
O O6 0.223221 0.588263 0.371808
O O7 0.000000 0.750000 0.891068
O O8 0.996515 0.000000 0.750000
O O9 0.992720 0.969103 0.083348
O O10 0.429118 0.627763 0.732134
O O11 0.365664 0.727895 0.538288
O O12 0.212131 0.223550 0.904975
#
# Coordination Sequence:
#
# PCOD9335670 Si02
#       7
#     8   4   8   8   4   4   8
#     4  11  23  43  64  93 130 174 214 268 344 385
#     4   9  22  40  64  94 124 164 210 270 326 393
#     4  12  27  44  67 102 135 182 235 280 339 410
#     4  10  22  43  63  96 130 170 214 269 338 389
#     4  11  26  40  70  98 132 176 230 274 332 401
#     4  10  22  44  64  96 124 166 224 270 338 398
#     4  10  23  43  65  93 131 167 215 277 330 408
#
# _framework density 19.384098999999999
#
# number of rings (size 3 to 8) (size 9 to 14) (size 15 to 20)
#    0.000    1.455    3.636    0.545    7.636    0.727 
#   13.091    0.000    0.000    0.000    0.000    0.000 
#    0.000    0.000    0.000    0.000    0.000    0.000 
#
# Total GULP energy -122719.209150 kJ/mol
# GULP energy per Si atom -5578.145870 kJ/mol
# Density = 1.933998 g / cm^3
# Si number density = 19.384099 Si / 1000 Ang^3
#
#
#
# Elastic Constant Matrix: (Units=GPa)
#
#
# Indices 1 2 3 4 5 6 
#
# 1 136.3754 40.3611 55.6427 0.0000 0.0000 0.0000
# 2 40.3611 91.4879 38.2951 0.0000 0.0000 0.0000
# 3 55.6427 38.2951 107.3273 0.0000 0.0000 0.0000
# 4 0.0000 0.0000 0.0000 30.5010 0.0000 0.0000
# 5 0.0000 0.0000 0.0000 0.0000 26.0453 0.0000
# 6 0.0000 0.0000 0.0000 0.0000 0.0000 50.3051
#
#
#
# Elastic Compliance Matrix: (Units=1/GPa)
#
#
# Indices 1 2 3 4 5 6 
#
# 1 0.009792 -0.002580 -0.004156 0.000000 0.000000 0.000000
# 2 -0.002580 0.013529 -0.003490 0.000000 0.000000 0.000000
# 3 -0.004156 -0.003490 0.012717 0.000000 0.000000 0.000000
# 4 0.000000 0.000000 0.000000 0.032786 0.000000 0.000000
# 5 0.000000 0.000000 0.000000 0.000000 0.038395 0.000000
# 6 0.000000 0.000000 0.000000 0.000000 0.000000 0.019879
#
#
# Mechanical properties :
#
#
# Convention : Reuss Voigt Hill
#
# Bulk Modulus (GPa) = 64.15709 67.08761 65.62235
# Shear Modulus (GPa) = 32.73433 34.76308 33.74871
#
# Velocity S-wave (km/s) = 4.11386 4.23943 4.17712
# Velocity P-wave (km/s) = 7.46557 7.65822 7.56251
#
# Compressibility (1/GPa) = 0.01558674
#
# Stress axis : x y z
#
# Youngs Moduli (GPa) = 102.12416 73.91288 78.63482
#
# Poissons Ratio (x) = 0.19072 0.32680
# Poissons Ratio (y) = 0.26351 0.27441
# Poissons Ratio (z) = 0.42442 0.25793
#
# Static dielectric constant tensor:
#      x y z
#    x 1.663390 0.000000 0.000000 
#    y 0.000000 1.722840 0.000000 
#    z 0.000000 0.000000 1.687300 
# 
# From -- ./inp_files/16764.got.cif
#   From: 2010.05.17/outbox.cif.g08.bks.cpg/sg24_9_cif.got.tgz:16764.got - 2010.06.04 00:33:39.
