data_PCOD9335782
_publ_section_title
;
Structure prediction by ZEFSAII (Michael W. Deem and Ramdas Pophale) SiO2 
 PCOD9335782
Probable space group: I 21 21 21
;
_chemical_formula_sum "Si O2"
_cell_formula_units_Z 44
_cell_length_a 13.000015
_cell_length_b 17.424364
_cell_length_c 8.581159
_cell_angle_alpha 90.000000
_cell_angle_beta 90.000000
_cell_angle_gamma 90.000000
_cell_volume 1943.778336
_symmetry_space_group_name_H-M "I 21 21 21"
_symmetry_group_IT_number 24
_symmetry_cell_setting 'orthorhombic'
loop_
_space_group_symop_operation_xyz
x,y,z
-x,1/2-y,z
x,-y,1/2-z
1/2-x,y,-z
1/2+x,1/2+y,1/2+z
1/2-x,-y,1/2+z
1/2+x,1/2-y,-z
-x,1/2+y,1/2-z
loop_
_atom_site_type_symbol
_atom_site_label
_atom_site_fract_x
_atom_site_fract_y
_atom_site_fract_z
Si Si1 0.500000 0.250000 0.892779
Si Si2 0.473180 0.017556 0.486893
Si Si3 0.688708 0.630865 0.160385
Si Si4 0.597922 0.397584 0.788263
Si Si5 0.320282 0.440302 0.144821
Si Si6 0.662572 0.777524 0.370851
O O1 0.568420 0.308537 0.796561
O O2 0.569684 0.203107 0.012164
O O3 0.402535 0.071031 0.376809
O O4 0.471311 0.066390 0.649301
O O5 0.421331 0.939214 0.548100
O O6 0.579931 0.988809 0.412638
O O7 0.782403 0.592163 0.252839
O O8 0.651555 0.705179 0.256784
O O9 0.750000 0.653033 0.000000
O O10 0.259698 0.500000 0.250000
O O11 0.330516 0.357086 0.224226
O O12 0.250000 0.420800 0.000000
O O13 0.750000 0.758209 0.500000
#
# Coordination Sequence:
#
# PCOD9335782 Si02
#       6
#     4   8   8   8   8   8
#     4  12  22  42  70 104 138 188 242 274 360 420
#     4  10  23  46  69 105 145 178 239 291 362 420
#     4  10  23  47  69 110 142 182 233 292 370 411
#     4  10  22  45  73 103 139 192 226 295 350 434
#     4  11  27  47  70 101 136 192 240 295 350 423
#     4  11  24  44  72  99 141 184 238 290 345 426
#
# _framework density 22.636324999999999
#
# number of rings (size 3 to 8) (size 9 to 14) (size 15 to 20)
#    0.000    1.455    3.636    0.000    5.091    0.727 
#   36.000    0.000    0.000    0.000    0.000    0.000 
#    0.000    0.000    0.000    0.000    0.000    0.000 
#
# Total GULP energy -122668.157023 kJ/mol
# GULP energy per Si atom -5575.825319 kJ/mol
# Density = 2.258480 g / cm^3
# Si number density = 22.636325 Si / 1000 Ang^3
#
#
#
# Elastic Constant Matrix: (Units=GPa)
#
#
# Indices 1 2 3 4 5 6 
#
# 1 65.2909 27.4827 16.2455 0.0000 0.0000 0.0000
# 2 27.4827 162.1333 41.3527 0.0000 0.0000 0.0000
# 3 16.2455 41.3527 50.1139 0.0000 0.0000 0.0000
# 4 0.0000 0.0000 0.0000 25.0865 0.0000 0.0000
# 5 0.0000 0.0000 0.0000 0.0000 14.9360 0.0000
# 6 0.0000 0.0000 0.0000 0.0000 0.0000 13.7187
#
#
#
# Elastic Compliance Matrix: (Units=1/GPa)
#
#
# Indices 1 2 3 4 5 6 
#
# 1 0.017101 -0.001881 -0.003992 0.000000 0.000000 0.000000
# 2 -0.001881 0.008019 -0.006007 0.000000 0.000000 0.000000
# 3 -0.003992 -0.006007 0.026206 0.000000 0.000000 0.000000
# 4 0.000000 0.000000 0.000000 0.039862 0.000000 0.000000
# 5 0.000000 0.000000 0.000000 0.000000 0.066953 0.000000
# 6 0.000000 0.000000 0.000000 0.000000 0.000000 0.072893
#
#
# Mechanical properties :
#
#
# Convention : Reuss Voigt Hill
#
# Bulk Modulus (GPa) = 36.27664 49.74444 43.01054
# Shear Modulus (GPa) = 18.94078 23.57871 21.25975
#
# Velocity S-wave (km/s) = 2.89579 3.23093 3.06794
# Velocity P-wave (km/s) = 5.21933 5.99515 5.62064
#
# Compressibility (1/GPa) = 0.02756595
#
# Stress axis : x y z
#
# Youngs Moduli (GPa) = 58.47645 124.70864 38.15990
#
# Poissons Ratio (x) = 0.23453 0.15233
# Poissons Ratio (y) = 0.10997 0.22923
# Poissons Ratio (z) = 0.23343 0.74915
#
# Static dielectric constant tensor:
#      x y z
#    x 1.960810 0.000000 0.000000 
#    y 0.000000 1.857780 0.000000 
#    z 0.000000 0.000000 1.897020 
# 
# From -- ./inp_files/12651.got.cif
#   From: 2010.05.17/outbox.cif.g08.bks.cpg/sg24_7_cif.got.tgz:12651.got - 2010.06.04 00:33:39.
