data_PCOD9335882
_publ_section_title
;
Structure prediction by ZEFSAII (Michael W. Deem and Ramdas Pophale) SiO2 
 PCOD9335882
Probable space group: I 21 21 21
;
_chemical_formula_sum "Si O2"
_cell_formula_units_Z 32
_cell_length_a 18.724594
_cell_length_b 10.195348
_cell_length_c 7.547848
_cell_angle_alpha 90.000000
_cell_angle_beta 90.000000
_cell_angle_gamma 90.000000
_cell_volume 1440.912503
_symmetry_space_group_name_H-M "I 21 21 21"
_symmetry_group_IT_number 24
_symmetry_cell_setting 'orthorhombic'
loop_
_space_group_symop_operation_xyz
x,y,z
-x,1/2-y,z
x,-y,1/2-z
1/2-x,y,-z
1/2+x,1/2+y,1/2+z
1/2-x,-y,1/2+z
1/2+x,1/2-y,-z
-x,1/2+y,1/2-z
loop_
_atom_site_type_symbol
_atom_site_label
_atom_site_fract_x
_atom_site_fract_y
_atom_site_fract_z
Si Si1 0.673607 0.543445 0.047458
Si Si2 0.081370 0.728540 0.828563
Si Si3 0.939926 0.862649 0.184477
Si Si4 0.833288 0.249114 0.031080
O O1 0.682100 0.500000 0.250000
O O2 0.610219 0.646642 0.057821
O O3 0.661501 0.408118 0.942447
O O4 0.750000 0.605584 0.000000
O O5 0.127489 0.715407 0.653338
O O6 0.000000 0.750000 0.772590
O O7 0.082604 0.618561 0.979210
O O8 0.873075 0.821697 0.307730
O O9 0.000000 0.750000 0.196364
O O10 0.970168 0.000000 0.250000
O O11 0.750000 0.219598 0.000000
#
# Coordination Sequence:
#
# PCOD9335882 Si02
#       4
#     8   8   8   8
#     4   9  20  36  66 104 130 173 225 285 344 398
#     4  10  23  41  66 103 138 179 228 285 348 406
#     4  11  27  46  69 104 136 185 230 286 349 415
#     4  10  23  44  70 101 137 182 226 289 347 414
#
# _framework density 22.208148999999999
#
# number of rings (size 3 to 8) (size 9 to 14) (size 15 to 20)
#    0.000    2.000    0.000    0.750   17.500    1.000 
#   13.500    0.000    0.000    0.000    0.000    0.000 
#    0.000    0.000    0.000    0.000    0.000    0.000 
#
# Total GULP energy -89401.003479 kJ/mol
# GULP energy per Si atom -5587.562717 kJ/mol
# Density = 2.215760 g / cm^3
# Si number density = 22.208149 Si / 1000 Ang^3
#
#
#
# Elastic Constant Matrix: (Units=GPa)
#
#
# Indices 1 2 3 4 5 6 
#
# 1 156.7440 31.5591 49.8704 0.0000 0.0000 0.0000
# 2 31.5591 42.2345 6.0926 0.0000 0.0000 0.0000
# 3 49.8704 6.0926 105.3500 0.0000 0.0000 0.0000
# 4 0.0000 0.0000 0.0000 21.1422 0.0000 0.0000
# 5 0.0000 0.0000 0.0000 0.0000 42.5519 0.0000
# 6 0.0000 0.0000 0.0000 0.0000 0.0000 23.1340
#
#
#
# Elastic Compliance Matrix: (Units=1/GPa)
#
#
# Indices 1 2 3 4 5 6 
#
# 1 0.008810 -0.006032 -0.003822 0.000000 0.000000 0.000000
# 2 -0.006032 0.028006 0.001236 0.000000 0.000000 0.000000
# 3 -0.003822 0.001236 0.011230 0.000000 0.000000 0.000000
# 4 0.000000 0.000000 0.000000 0.047299 0.000000 0.000000
# 5 0.000000 0.000000 0.000000 0.000000 0.023501 0.000000
# 6 0.000000 0.000000 0.000000 0.000000 0.000000 0.043226
#
#
# Mechanical properties :
#
#
# Convention : Reuss Voigt Hill
#
# Bulk Modulus (GPa) = 32.45651 53.26363 42.86007
# Shear Modulus (GPa) = 26.37431 31.81940 29.09685
#
# Velocity S-wave (km/s) = 3.44989 3.78931 3.62358
# Velocity P-wave (km/s) = 5.52407 6.57123 6.07028
#
# Compressibility (1/GPa) = 0.03081046
#
# Stress axis : x y z
#
# Youngs Moduli (GPa) = 113.50387 35.70614 89.04853
#
# Poissons Ratio (x) = 0.21538 0.34032
# Poissons Ratio (y) = 0.68466 -0.11004
# Poissons Ratio (z) = 0.43378 -0.04412
#
# Static dielectric constant tensor:
#      x y z
#    x 1.820320 0.000000 0.000000 
#    y 0.000000 1.885090 0.000000 
#    z 0.000000 0.000000 1.827160 
# 
# From -- ./inp_files/10205.got.cif
#   From: 2010.05.17/outbox.cif.g08.bks.cpg/sg24_6_cif.got.tgz:10205.got - 2010.06.04 00:33:39.
