data_PCOD9335743
_publ_section_title
;
Structure prediction by ZEFSAII (Michael W. Deem and Ramdas Pophale) SiO2 
 PCOD9335743
Probable space group: I 21 21 21
;
_chemical_formula_sum "Si O2"
_cell_formula_units_Z 28
_cell_length_a 25.982012
_cell_length_b 5.589251
_cell_length_c 8.722759
_cell_angle_alpha 90.000000
_cell_angle_beta 90.000000
_cell_angle_gamma 90.000000
_cell_volume 1266.718945
_symmetry_space_group_name_H-M "I 21 21 21"
_symmetry_group_IT_number 24
_symmetry_cell_setting 'orthorhombic'
loop_
_space_group_symop_operation_xyz
x,y,z
-x,1/2-y,z
x,-y,1/2-z
1/2-x,y,-z
1/2+x,1/2+y,1/2+z
1/2-x,-y,1/2+z
1/2+x,1/2-y,-z
-x,1/2+y,1/2-z
loop_
_atom_site_type_symbol
_atom_site_label
_atom_site_fract_x
_atom_site_fract_y
_atom_site_fract_z
Si Si1 0.750000 0.158739 0.500000
Si Si2 0.450647 0.425757 0.926403
Si Si3 0.848045 0.136588 0.911398
Si Si4 0.500000 0.750000 0.155988
Si Si5 0.781077 0.500000 0.750000
O O1 0.748675 0.310973 0.655656
O O2 0.803067 0.014362 0.508277
O O3 0.500000 0.250000 0.943464
O O4 0.447599 0.500000 0.750000
O O5 0.398109 0.314643 0.988773
O O6 0.457042 0.656767 0.037439
O O7 0.818976 0.378060 0.869915
O O8 0.860785 0.000000 0.750000
O O9 0.511686 0.500000 0.250000
#
# Coordination Sequence:
#
# PCOD9335743 Si02
#       5
#     4   8   8   4   4
#     4  10  22  44  70 106 150 180 250 304 380 464
#     4  12  27  48  73 110 158 201 262 331 397 463
#     4  10  24  44  70 109 144 198 255 307 383 470
#     4  12  26  48  78 106 148 206 262 320 388 470
#     4  10  22  44  74 106 146 198 244 312 382 466
#
# _framework density 22.104351000000001
#
# number of rings (size 3 to 8) (size 9 to 14) (size 15 to 20)
#    0.000    1.143    2.857    1.714    0.000   12.571 
#    2.571    0.000    3.143    0.000    0.000    0.000 
#    0.000    0.000    0.000    0.000    0.000    0.000 
#
# Total GULP energy -78178.955947 kJ/mol
# GULP energy per Si atom -5584.211139 kJ/mol
# Density = 2.205404 g / cm^3
# Si number density = 22.104351 Si / 1000 Ang^3
#
#
#
# Elastic Constant Matrix: (Units=GPa)
#
#
# Indices 1 2 3 4 5 6 
#
# 1 169.5764 59.9283 89.2024 0.0000 0.0000 0.0000
# 2 59.9283 109.9058 64.0266 0.0000 0.0000 0.0000
# 3 89.2024 64.0266 141.7726 0.0000 0.0000 0.0000
# 4 0.0000 0.0000 0.0000 10.8897 0.0000 0.0000
# 5 0.0000 0.0000 0.0000 0.0000 32.8184 0.0000
# 6 0.0000 0.0000 0.0000 0.0000 0.0000 -25.1897
#
#
#
# Elastic Compliance Matrix: (Units=1/GPa)
#
#
# Indices 1 2 3 4 5 6 
#
# 1 0.009201 -0.002232 -0.004781 0.000000 0.000000 0.000000
# 2 -0.002232 0.012888 -0.004417 0.000000 0.000000 0.000000
# 3 -0.004781 -0.004417 0.012056 0.000000 0.000000 0.000000
# 4 0.000000 0.000000 0.000000 0.091830 0.000000 0.000000
# 5 0.000000 0.000000 0.000000 0.000000 0.030471 0.000000
# 6 0.000000 0.000000 0.000000 0.000000 0.000000 -0.039699
#
#
# Mechanical properties :
#
#
# Convention : Reuss Voigt Hill
#
# Bulk Modulus (GPa) = 88.59778 94.17437 91.38608
# Shear Modulus (GPa) = 34.87526 17.57685 26.22606
#
# Velocity S-wave (km/s) = 3.97641 2.82295 3.44825
# Velocity P-wave (km/s) = 7.82630 7.30221 7.56880
#
# Compressibility (1/GPa) = 0.01128696
#
# Stress axis : x y z
#
# Youngs Moduli (GPa) = 108.68666 77.58938 82.94313
#
# Poissons Ratio (x) = 0.17314 0.39657
# Poissons Ratio (y) = 0.24254 0.36632
# Poissons Ratio (z) = 0.51966 0.34267
#
# Static dielectric constant tensor:
#      x y z
#    x 1.791420 0.000000 0.000000 
#    y 0.000000 1.957100 0.000000 
#    z 0.000000 0.000000 1.794840 
# 
# From -- ./inp_files/16191.got.cif
#   From: 2010.05.17/outbox.cif.g08.bks.cpg/sg24_9_cif.got.tgz:16191.got - 2010.06.04 00:33:39.
