data_PCOD9335430
_publ_section_title
;
Structure prediction by ZEFSAII (Michael W. Deem and Ramdas Pophale) SiO2 
 PCOD9335430
Probable space group: I 21 21 21
;
_chemical_formula_sum "Si O2"
_cell_formula_units_Z 56
_cell_length_a 15.178383
_cell_length_b 8.364987
_cell_length_c 21.280429
_cell_angle_alpha 90.000000
_cell_angle_beta 90.000000
_cell_angle_gamma 90.000000
_cell_volume 2701.911728
_symmetry_space_group_name_H-M "I 21 21 21"
_symmetry_group_IT_number 24
_symmetry_cell_setting 'orthorhombic'
loop_
_space_group_symop_operation_xyz
x,y,z
-x,1/2-y,z
x,-y,1/2-z
1/2-x,y,-z
1/2+x,1/2+y,1/2+z
1/2-x,-y,1/2+z
1/2+x,1/2-y,-z
-x,1/2+y,1/2-z
loop_
_atom_site_type_symbol
_atom_site_label
_atom_site_fract_x
_atom_site_fract_y
_atom_site_fract_z
Si Si1 0.102790 0.526672 0.385357
Si Si2 0.721909 0.222276 0.662031
Si Si3 0.646079 0.561940 0.486192
Si Si4 0.648966 0.917835 0.476815
Si Si5 0.904148 0.715761 0.276438
Si Si6 0.398040 0.746873 0.096630
Si Si7 0.413546 0.963260 0.881212
O O1 0.194826 0.449533 0.364679
O O2 0.100242 0.575390 0.456859
O O3 0.091766 0.665322 0.335442
O O4 0.015878 0.418999 0.378623
O O5 0.676237 0.243001 0.730090
O O6 0.824009 0.257331 0.651362
O O7 0.662829 0.332956 0.616544
O O8 0.750000 0.549311 0.500000
O O9 0.616541 0.402747 0.448379
O O10 0.600732 0.562285 0.554881
O O11 0.633161 0.735602 0.452276
O O12 0.750000 0.930547 0.500000
O O13 0.621136 0.075728 0.437945
O O14 0.896366 0.550166 0.314170
O O15 0.000000 0.750000 0.245608
O O16 0.500000 0.750000 0.116734
#
# Coordination Sequence:
#
# PCOD9335430 Si02
#       7
#     8   8   8   8   8   8   8
#     4  11  21  36  62  94 125 163 206 256 328 398
#     4  12  23  40  58  88 132 168 209 263 315 373
#     4  11  22  41  66  96 134 171 211 266 330 390
#     4  11  22  41  66  96 134 171 211 266 330 390
#     4  10  22  39  63  97 129 165 209 257 328 401
#     4  12  26  42  65  96 131 176 224 264 317 383
#     4  11  21  36  62  94 125 163 206 256 328 398
#
# _framework density 20.726067
#
# number of rings (size 3 to 8) (size 9 to 14) (size 15 to 20)
#    0.000    0.857    4.286    4.286    0.000    4.000 
#    0.000    0.000    0.000    3.429    0.000    0.000 
#    0.000    0.000    0.000    0.000    0.000    0.000 
#
# Total GULP energy -156077.829342 kJ/mol
# GULP energy per Si atom -5574.208191 kJ/mol
# Density = 2.067889 g / cm^3
# Si number density = 20.726067 Si / 1000 Ang^3
#
#
#
# Elastic Constant Matrix: (Units=GPa)
#
#
# Indices 1 2 3 4 5 6 
#
# 1 157.6006 20.3061 42.4082 0.0000 0.0000 0.0000
# 2 20.3061 90.9044 12.9740 0.0000 0.0000 0.0000
# 3 42.4082 12.9740 82.6125 0.0000 0.0000 0.0000
# 4 0.0000 0.0000 0.0000 21.5918 0.0000 0.0000
# 5 0.0000 0.0000 0.0000 0.0000 26.9911 0.0000
# 6 0.0000 0.0000 0.0000 0.0000 0.0000 18.3704
#
#
#
# Elastic Compliance Matrix: (Units=1/GPa)
#
#
# Indices 1 2 3 4 5 6 
#
# 1 0.007477 -0.001148 -0.003658 0.000000 0.000000 0.000000
# 2 -0.001148 0.011429 -0.001205 0.000000 0.000000 0.000000
# 3 -0.003658 -0.001205 0.014172 0.000000 0.000000 0.000000
# 4 0.000000 0.000000 0.000000 0.046314 0.000000 0.000000
# 5 0.000000 0.000000 0.000000 0.000000 0.037049 0.000000
# 6 0.000000 0.000000 0.000000 0.000000 0.000000 0.054435
#
#
# Mechanical properties :
#
#
# Convention : Reuss Voigt Hill
#
# Bulk Modulus (GPa) = 47.49515 53.61045 50.55280
# Shear Modulus (GPa) = 26.32704 30.41928 28.37316
#
# Velocity S-wave (km/s) = 3.56791 3.83519 3.70396
# Velocity P-wave (km/s) = 6.31971 6.74788 6.53730
#
# Compressibility (1/GPa) = 0.02105478
#
# Stress axis : x y z
#
# Youngs Moduli (GPa) = 133.73537 87.49592 70.56226
#
# Poissons Ratio (x) = 0.10046 0.25813
# Poissons Ratio (y) = 0.15356 0.08506
# Poissons Ratio (z) = 0.48922 0.10547
#
# Static dielectric constant tensor:
#      x y z
#    x 1.750260 0.000000 0.000000 
#    y 0.000000 1.993970 0.000000 
#    z 0.000000 0.000000 1.742260 
# 
# From -- ./inp_files/33743.got.cif
#   From: 2010.05.17/outbox.cif.g08.bks.cpg/sg24_17_cif.got.tgz:33743.got - 2010.06.04 00:33:39.
