data_PCOD9335181
_publ_section_title
;
Structure prediction by ZEFSAII (Michael W. Deem and Ramdas Pophale) SiO2 
 PCOD9335181
Probable space group: I 21 21 21
;
_chemical_formula_sum "Si O2"
_cell_formula_units_Z 64
_cell_length_a 9.109673
_cell_length_b 14.728439
_cell_length_c 23.056673
_cell_angle_alpha 90.000000
_cell_angle_beta 90.000000
_cell_angle_gamma 90.000000
_cell_volume 3093.542939
_symmetry_space_group_name_H-M "I 21 21 21"
_symmetry_group_IT_number 24
_symmetry_cell_setting 'orthorhombic'
loop_
_space_group_symop_operation_xyz
x,y,z
-x,1/2-y,z
x,-y,1/2-z
1/2-x,y,-z
1/2+x,1/2+y,1/2+z
1/2-x,-y,1/2+z
1/2+x,1/2-y,-z
-x,1/2+y,1/2-z
loop_
_atom_site_type_symbol
_atom_site_label
_atom_site_fract_x
_atom_site_fract_y
_atom_site_fract_z
Si Si1 0.754529 0.663273 0.654720
Si Si2 0.920427 0.499492 0.683384
Si Si3 0.310714 0.125888 0.621345
Si Si4 0.730837 0.916865 0.167457
Si Si5 0.015244 0.465603 0.121657
Si Si6 0.842247 0.256001 0.266608
Si Si7 0.847210 0.198800 0.056991
Si Si8 0.167725 0.711644 0.943029
O O1 0.609877 0.597921 0.650515
O O2 0.763963 0.703861 0.718754
O O3 0.733214 0.741369 0.607012
O O4 0.890619 0.594596 0.651049
O O5 0.862769 0.500000 0.750000
O O6 0.087625 0.470922 0.685525
O O7 0.830450 0.426000 0.646430
O O8 0.369928 0.179347 0.677923
O O9 0.263050 0.200949 0.576049
O O10 0.423651 0.051574 0.597131
O O11 0.778352 0.838016 0.211206
O O12 0.687875 0.862894 0.107946
O O13 0.865318 0.986254 0.161817
O O14 0.105572 0.400411 0.079257
O O15 0.000000 0.250000 0.236208
O O16 0.000000 0.250000 0.044546
O O17 0.750000 0.194771 0.000000
O O18 0.000000 0.750000 0.949249
O O19 0.250000 0.675498 0.000000
#
# Coordination Sequence:
#
# PCOD9335181 Si02
#       8
#     8   8   8   8   8   8   8   8
#     4  10  23  43  67  93 131 173 227 266 335 407
#     4  11  22  41  64  97 134 175 214 270 338 402
#     4  10  21  42  64  94 133 174 216 268 336 400
#     4  11  25  41  64  98 137 168 219 279 332 396
#     4  10  22  42  65  97 127 166 227 273 321 396
#     4  11  20  37  68  97 130 176 214 266 339 405
#     4  10  23  46  68  92 128 174 224 282 328 385
#     4  11  25  43  68  94 135 179 223 271 334 402
#
# _framework density 20.688251999999999
#
# number of rings (size 3 to 8) (size 9 to 14) (size 15 to 20)
#    0.000    1.500    3.750    1.125    1.750    3.500 
#    2.250    8.125    0.000    0.000    0.000    0.000 
#    0.000    0.000    0.000    0.000    0.000    0.000 
#
# Total GULP energy -178684.069763 kJ/mol
# GULP energy per Si atom -5583.877180 kJ/mol
# Density = 2.064116 g / cm^3
# Si number density = 20.688252 Si / 1000 Ang^3
#
#
#
# Elastic Constant Matrix: (Units=GPa)
#
#
# Indices 1 2 3 4 5 6 
#
# 1 66.2485 46.9883 15.8653 0.0000 0.0000 0.0000
# 2 46.9883 124.2661 50.1430 0.0000 0.0000 0.0000
# 3 15.8653 50.1430 73.7729 0.0000 0.0000 0.0000
# 4 0.0000 0.0000 0.0000 12.3745 0.0000 0.0000
# 5 0.0000 0.0000 0.0000 0.0000 15.1804 0.0000
# 6 0.0000 0.0000 0.0000 0.0000 0.0000 23.2642
#
#
#
# Elastic Compliance Matrix: (Units=1/GPa)
#
#
# Indices 1 2 3 4 5 6 
#
# 1 0.020703 -0.008311 0.001197 0.000000 0.000000 0.000000
# 2 -0.008311 0.014425 -0.008017 0.000000 0.000000 0.000000
# 3 0.001197 -0.008017 0.018747 0.000000 0.000000 0.000000
# 4 0.000000 0.000000 0.000000 0.080811 0.000000 0.000000
# 5 0.000000 0.000000 0.000000 0.000000 0.065874 0.000000
# 6 0.000000 0.000000 0.000000 0.000000 0.000000 0.042984
#
#
# Mechanical properties :
#
#
# Convention : Reuss Voigt Hill
#
# Bulk Modulus (GPa) = 42.35191 54.47563 48.41377
# Shear Modulus (GPa) = 17.75069 20.24989 19.00029
#
# Velocity S-wave (km/s) = 2.93236 3.13199 3.03381
# Velocity P-wave (km/s) = 5.65516 6.28235 5.97699
#
# Compressibility (1/GPa) = 0.02361168
#
# Stress axis : x y z
#
# Youngs Moduli (GPa) = 48.30207 69.32401 53.34199
#
# Poissons Ratio (x) = 0.57617 -0.06384
# Poissons Ratio (y) = 0.40145 0.42765
# Poissons Ratio (z) = -0.05781 0.55578
#
# Static dielectric constant tensor:
#      x y z
#    x 1.802670 0.000000 0.000000 
#    y 0.000000 1.758380 0.000000 
#    z 0.000000 0.000000 1.735270 
# 
# From -- ./inp_files/35301.got.cif
#   From: 2010.05.17/outbox.cif.g08.bks.cpg/sg24_18_cif.got.tgz:35301.got - 2010.06.04 00:33:39.
