data_PCOD9335665
_publ_section_title
;
Structure prediction by ZEFSAII (Michael W. Deem and Ramdas Pophale) SiO2 
 PCOD9335665
Probable space group: I 21 21 21
;
_chemical_formula_sum "Si O2"
_cell_formula_units_Z 48
_cell_length_a 29.918337
_cell_length_b 9.132362
_cell_length_c 7.147581
_cell_angle_alpha 90.000000
_cell_angle_beta 90.000000
_cell_angle_gamma 90.000000
_cell_volume 1952.898419
_symmetry_space_group_name_H-M "I 21 21 21"
_symmetry_group_IT_number 24
_symmetry_cell_setting 'orthorhombic'
loop_
_space_group_symop_operation_xyz
x,y,z
-x,1/2-y,z
x,-y,1/2-z
1/2-x,y,-z
1/2+x,1/2+y,1/2+z
1/2-x,-y,1/2+z
1/2+x,1/2-y,-z
-x,1/2+y,1/2-z
loop_
_atom_site_type_symbol
_atom_site_label
_atom_site_fract_x
_atom_site_fract_y
_atom_site_fract_z
Si Si1 0.422383 0.547983 0.534806
Si Si2 0.366567 0.261150 0.438457
Si Si3 0.000000 0.250000 0.140818
Si Si4 0.558153 0.500000 0.750000
Si Si5 0.189358 0.845264 0.302869
Si Si6 0.730435 0.168233 0.296021
Si Si7 0.384066 0.142737 0.074368
O O1 0.421724 0.500000 0.750000
O O2 0.400353 0.401077 0.445189
O O3 0.471283 0.631124 0.518981
O O4 0.391949 0.685992 0.484108
O O5 0.347549 0.209959 0.644373
O O6 0.321248 0.291805 0.322546
O O7 0.389190 0.144137 0.297646
O O8 0.029543 0.147392 0.275297
O O9 0.585126 0.451063 0.933226
O O10 0.229434 0.734632 0.325558
O O11 0.164959 0.884548 0.495180
O O12 0.210268 0.000000 0.250000
O O13 0.750000 0.201189 0.500000
O O14 0.730297 0.000000 0.250000
#
# Coordination Sequence:
#
# PCOD9335665 Si02
#       7
#     8   8   4   4   8   8   8
#     4  11  21  41  78 111 146 192 249 309 381 459
#     4  11  25  45  73 112 143 200 257 313 373 453
#     4  10  22  42  78 116 146 198 242 312 386 470
#     4  10  22  44  74 114 142 198 246 298 392 470
#     4  11  25  46  65 102 152 203 252 307 379 436
#     4  10  24  42  68 101 144 192 256 308 363 432
#     4  11  23  42  73 108 146 188 251 305 378 448
#
# _framework density 24.578849999999999
#
# number of rings (size 3 to 8) (size 9 to 14) (size 15 to 20)
#    0.000    1.333    3.333    1.500    7.000    0.667 
#    9.000    0.000    0.000   25.000    0.000    0.000 
#    0.000    0.000    0.000    0.000    0.000    0.000 
#
# Total GULP energy -133700.986681 kJ/mol
# GULP energy per Si atom -5570.874445 kJ/mol
# Density = 2.452291 g / cm^3
# Si number density = 24.578850 Si / 1000 Ang^3
#
#
#
# Elastic Constant Matrix: (Units=GPa)
#
#
# Indices 1 2 3 4 5 6 
#
# 1 83.7650 50.1277 54.5532 0.0000 0.0000 0.0000
# 2 50.1277 129.6179 53.9663 0.0000 0.0000 0.0000
# 3 54.5532 53.9663 114.8781 0.0000 0.0000 0.0000
# 4 0.0000 0.0000 0.0000 38.3007 0.0000 0.0000
# 5 0.0000 0.0000 0.0000 0.0000 -0.0155 0.0000
# 6 0.0000 0.0000 0.0000 0.0000 0.0000 125.1391
#
#
#
# Elastic Compliance Matrix: (Units=1/GPa)
#
#
# Indices 1 2 3 4 5 6 
#
# 1 0.019193 -0.004510 -0.006996 0.000000 -0.000006 0.000000
# 2 -0.004510 0.010651 -0.002862 0.000000 0.000000 0.000000
# 3 -0.006996 -0.002862 0.013371 0.000000 0.000009 0.000000
# 4 0.000000 0.000000 0.000000 0.026109 0.000008 0.000000
# 5 -0.000006 0.000000 0.000009 0.000008-64.706884 -0.000003
# 6 0.000000 0.000000 0.000000 0.000000 -0.000003 0.007991
#
#
# Mechanical properties :
#
#
# Convention : Reuss Voigt Hill
#
# Bulk Modulus (GPa) = 69.05926 71.72837 70.39382
# Shear Modulus (GPa) = -0.07740 43.99246 21.95753
#
# Velocity S-wave (km/s) = -0.17765 4.23525 2.99214
# Velocity P-wave (km/s) = 5.30245 7.29128 6.37490
#
# Compressibility (1/GPa) = 0.01448032
#
# Stress axis : x y z
#
# Youngs Moduli (GPa) = 52.10176 93.89157 74.78680
#
# Poissons Ratio (x) = 0.42345 0.52319
# Poissons Ratio (y) = 0.23498 0.21401
# Poissons Ratio (z) = 0.36449 0.26868
#
# Static dielectric constant tensor:
#      x y z
#    x 2.084750 0.000000 0.000000 
#    y 0.000000 2.000950 0.000000 
#    z 0.000000 0.000000 1.919910 
# 
# From -- ./inp_files/16872.got.cif
#   From: 2010.05.17/outbox.cif.g08.bks.cpg/sg24_9_cif.got.tgz:16872.got - 2010.06.04 00:33:39.
