data_PCOD9335098
_publ_section_title
;
Structure prediction by ZEFSAII (Michael W. Deem and Ramdas Pophale) SiO2 
 PCOD9335098
Probable space group: I 21 21 21
;
_chemical_formula_sum "Si O2"
_cell_formula_units_Z 40
_cell_length_a 4.978638
_cell_length_b 11.623869
_cell_length_c 28.713519
_cell_angle_alpha 90.000000
_cell_angle_beta 90.000000
_cell_angle_gamma 90.000000
_cell_volume 1661.681089
_symmetry_space_group_name_H-M "I 21 21 21"
_symmetry_group_IT_number 24
_symmetry_cell_setting 'orthorhombic'
loop_
_space_group_symop_operation_xyz
x,y,z
-x,1/2-y,z
x,-y,1/2-z
1/2-x,y,-z
1/2+x,1/2+y,1/2+z
1/2-x,-y,1/2+z
1/2+x,1/2-y,-z
-x,1/2+y,1/2-z
loop_
_atom_site_type_symbol
_atom_site_label
_atom_site_fract_x
_atom_site_fract_y
_atom_site_fract_z
Si Si1 0.288403 0.460879 0.850675
Si Si2 0.792726 0.539325 0.802666
Si Si3 0.867775 0.999283 0.552514
Si Si4 0.500000 0.750000 0.765191
Si Si5 0.000000 0.250000 0.534395
Si Si6 0.500000 0.750000 0.305857
Si Si7 0.500000 0.250000 0.033685
O O1 0.575008 0.452310 0.825237
O O2 0.338210 0.486488 0.904692
O O3 0.106862 0.348937 0.840485
O O4 0.072398 0.552220 0.829356
O O5 0.860305 0.500000 0.750000
O O6 0.605408 0.649381 0.798054
O O7 0.750000 0.003280 0.500000
O O8 0.026847 0.877278 0.556751
O O9 0.001254 0.125393 0.559799
O O10 0.754228 0.761644 0.731031
O O11 0.750000 0.252518 0.500000
O O12 0.250000 0.260943 0.000000
#
# Coordination Sequence:
#
# PCOD9335098 Si02
#       7
#     8   8   8   4   4   4   4
#     4  12  25  41  69  98 136 173 232 269 344 405
#     4  12  24  44  63  97 129 175 217 284 328 405
#     4  10  24  45  69 102 139 183 226 288 336 408
#     4  12  24  40  70  91 136 173 220 278 352 392
#     4  10  22  42  68  92 127 180 227 272 344 396
#     4  12  21  40  67  99 128 179 218 273 340 423
#     4  10  21  40  67  96 133 174 223 277 338 391
#
# _framework density 24.072006999999999
#
# number of rings (size 3 to 8) (size 9 to 14) (size 15 to 20)
#    0.000    0.800    4.000    3.000    0.000    8.000 
#    0.000    6.000    0.000    0.000    0.000    0.000 
#    0.000    0.000    0.000    0.000    0.000    0.000 
#
# Total GULP energy -111362.624551 kJ/mol
# GULP energy per Si atom -5568.131228 kJ/mol
# Density = 2.401722 g / cm^3
# Si number density = 24.072007 Si / 1000 Ang^3
#
#
#
# Elastic Constant Matrix: (Units=GPa)
#
#
# Indices 1 2 3 4 5 6 
#
# 1 114.4701 -34.2008 25.9082 0.0000 0.0000 0.0000
# 2 -34.2008 123.2494 -18.9789 0.0000 0.0000 0.0000
# 3 25.9082 -18.9789 106.4252 0.0000 0.0000 0.0000
# 4 0.0000 0.0000 0.0000 -3.7237 0.0000 0.0000
# 5 0.0000 0.0000 0.0000 0.0000 16.0167 0.0000
# 6 0.0000 0.0000 0.0000 0.0000 0.0000 17.6603
#
#
#
# Elastic Compliance Matrix: (Units=1/GPa)
#
#
# Indices 1 2 3 4 5 6 
#
# 1 0.009914 0.002447 -0.001977 0.000000 0.000000 0.000000
# 2 0.002447 0.008947 0.001000 0.000000 0.000000 0.000000
# 3 -0.001977 0.001000 0.010056 0.000000 0.000000 0.000000
# 4 0.000000 0.000000 0.000000 -0.268548 0.000000 0.000000
# 5 0.000000 0.000000 0.000000 0.000000 0.062435 0.000000
# 6 0.000000 0.000000 0.000000 0.000000 0.000000 0.056624
#
#
# Mechanical properties :
#
#
# Convention : Reuss Voigt Hill
#
# Bulk Modulus (GPa) = 31.39182 32.17796 31.78489
# Shear Modulus (GPa) = -44.29005 30.75174 -6.76915
#
# Velocity S-wave (km/s) = -4.29406 3.57808 -1.67873
# Velocity P-wave (km/s) = 3.39354 5.51965 3.07818
#
# Compressibility (1/GPa) = 0.03185544
#
# Stress axis : x y z
#
# Youngs Moduli (GPa) = 100.86298 111.77515 99.44394
#
# Poissons Ratio (x) = -0.27348 0.19663
# Poissons Ratio (y) = -0.24678 -0.09943
# Poissons Ratio (z) = 0.19943 -0.11175
#
# Static dielectric constant tensor:
#      x y z
#    x 1.872340 0.000000 0.000000 
#    y 0.000000 2.237730 0.000000 
#    z 0.000000 0.000000 1.925640 
# 
# From -- ./inp_files/17663.got.cif
#   From: 2010.05.17/outbox.cif.g08.bks.cpg/sg24_9_cif.got.tgz:17663.got - 2010.06.04 00:33:39.
