data_PCOD9335186
_publ_section_title
;
Structure prediction by ZEFSAII (Michael W. Deem and Ramdas Pophale) SiO2 
 PCOD9335186
Probable space group: I 21 21 21
;
_chemical_formula_sum "Si O2"
_cell_formula_units_Z 48
_cell_length_a 17.708002
_cell_length_b 14.980017
_cell_length_c 9.374620
_cell_angle_alpha 90.000000
_cell_angle_beta 90.000000
_cell_angle_gamma 90.000000
_cell_volume 2486.769552
_symmetry_space_group_name_H-M "I 21 21 21"
_symmetry_group_IT_number 24
_symmetry_cell_setting 'orthorhombic'
loop_
_space_group_symop_operation_xyz
x,y,z
-x,1/2-y,z
x,-y,1/2-z
1/2-x,y,-z
1/2+x,1/2+y,1/2+z
1/2-x,-y,1/2+z
1/2+x,1/2-y,-z
-x,1/2+y,1/2-z
loop_
_atom_site_type_symbol
_atom_site_label
_atom_site_fract_x
_atom_site_fract_y
_atom_site_fract_z
Si Si1 0.639378 0.000000 0.750000
Si Si2 0.882003 0.000000 0.750000
Si Si3 0.844074 0.302682 0.717943
Si Si4 0.118290 0.042675 0.911170
Si Si5 0.000000 0.750000 0.947120
Si Si6 0.250000 0.927727 0.000000
Si Si7 0.471288 0.443139 0.503568
Si Si8 0.264578 0.364561 0.158173
O O1 0.692559 0.914572 0.722944
O O2 0.586650 0.018781 0.616223
O O3 0.933137 0.061604 0.652172
O O4 0.828493 0.059042 0.848695
O O5 0.864394 0.355827 0.864819
O O6 0.923942 0.276087 0.642954
O O7 0.787640 0.363868 0.620515
O O8 0.797454 0.213793 0.747303
O O9 0.118628 0.000000 0.750000
O O10 0.040142 0.011739 0.981389
O O11 0.180695 0.997797 0.014170
O O12 0.990014 0.840545 0.038174
O O13 0.250000 0.330887 0.000000
#
# Coordination Sequence:
#
# PCOD9335186 Si02
#       8
#     4   4   8   8   4   4   8   8
#     4  11  28  42  66 101 142 172 214 275 362 388
#     4  11  20  40  70  85 136 176 216 263 322 412
#     4  11  24  40  68 101 126 173 232 277 320 406
#     4  10  21  42  65  90 126 176 227 268 324 387
#     4  12  22  40  72  96 122 174 236 274 322 400
#     4  10  22  42  62  96 128 170 228 272 324 380
#     4  12  22  44  66  98 133 175 225 276 326 408
#     4  11  24  40  63 102 134 175 208 273 344 396
#
# _framework density 19.302149
#
# number of rings (size 3 to 8) (size 9 to 14) (size 15 to 20)
#    0.000    1.000    7.500    0.000    3.500    0.000 
#    4.500    1.667    0.000    0.000    0.000    0.000 
#    0.000    0.000    0.000    0.000    0.000    0.000 
#
# Total GULP energy -133631.106226 kJ/mol
# GULP energy per Si atom -5567.962759 kJ/mol
# Density = 1.925822 g / cm^3
# Si number density = 19.302149 Si / 1000 Ang^3
#
#
#
# Elastic Constant Matrix: (Units=GPa)
#
#
# Indices 1 2 3 4 5 6 
#
# 1 151.3863 52.3016 47.9916 0.0000 0.0000 0.0000
# 2 52.3016 111.1828 17.4836 0.0000 0.0000 0.0000
# 3 47.9916 17.4836 42.4759 0.0000 0.0000 0.0000
# 4 0.0000 0.0000 0.0000 6.2956 0.0000 0.0000
# 5 0.0000 0.0000 0.0000 0.0000 22.1195 0.0000
# 6 0.0000 0.0000 0.0000 0.0000 0.0000 43.1322
#
#
#
# Elastic Compliance Matrix: (Units=1/GPa)
#
#
# Indices 1 2 3 4 5 6 
#
# 1 0.011498 -0.003599 -0.011509 0.000000 0.000000 0.000000
# 2 -0.003599 0.010743 -0.000356 0.000000 0.000000 0.000000
# 3 -0.011509 -0.000356 0.036693 0.000000 0.000000 0.000000
# 4 0.000000 0.000000 0.000000 0.158842 0.000000 0.000000
# 5 0.000000 0.000000 0.000000 0.000000 0.045209 0.000000
# 6 0.000000 0.000000 0.000000 0.000000 0.000000 0.023185
#
#
# Mechanical properties :
#
#
# Convention : Reuss Voigt Hill
#
# Bulk Modulus (GPa) = 35.70688 60.06652 47.88670
# Shear Modulus (GPa) = 15.31714 26.79401 21.05557
#
# Velocity S-wave (km/s) = 2.82005 3.72981 3.30637
# Velocity P-wave (km/s) = 5.39839 7.05233 6.28005
#
# Compressibility (1/GPa) = 0.02800581
#
# Stress axis : x y z
#
# Youngs Moduli (GPa) = 86.97524 93.08352 27.25308
#
# Poissons Ratio (x) = 0.33498 0.31366
# Poissons Ratio (y) = 0.31300 0.00970
# Poissons Ratio (z) = 1.00102 0.03313
#
# Static dielectric constant tensor:
#      x y z
#    x 1.698900 0.000000 0.000000 
#    y 0.000000 1.757420 0.000000 
#    z 0.000000 0.000000 1.395350 
# 
# From -- ./inp_files/14255.got.cif
#   From: 2010.05.17/outbox.cif.g08.bks.cpg/sg24_8_cif.got.tgz:14255.got - 2010.06.04 00:33:39.
