data_PCOD9335724
_publ_section_title
;
Structure prediction by ZEFSAII (Michael W. Deem and Ramdas Pophale) SiO2 
 PCOD9335724
Probable space group: I 21 21 21
;
_chemical_formula_sum "Si O2"
_cell_formula_units_Z 28
_cell_length_a 7.854085
_cell_length_b 8.507408
_cell_length_c 16.730583
_cell_angle_alpha 90.000000
_cell_angle_beta 90.000000
_cell_angle_gamma 90.000000
_cell_volume 1117.902515
_symmetry_space_group_name_H-M "I 21 21 21"
_symmetry_group_IT_number 24
_symmetry_cell_setting 'orthorhombic'
loop_
_space_group_symop_operation_xyz
x,y,z
-x,1/2-y,z
x,-y,1/2-z
1/2-x,y,-z
1/2+x,1/2+y,1/2+z
1/2-x,-y,1/2+z
1/2+x,1/2-y,-z
-x,1/2+y,1/2-z
loop_
_atom_site_type_symbol
_atom_site_label
_atom_site_fract_x
_atom_site_fract_y
_atom_site_fract_z
Si Si1 0.817787 0.661577 0.655506
Si Si2 0.035241 0.418538 0.583473
Si Si3 0.154005 0.659103 0.201708
Si Si4 0.750000 0.162305 0.000000
O O1 0.716217 0.714411 0.732467
O O2 0.726572 0.732835 0.577934
O O3 0.000000 0.750000 0.663846
O O4 0.876298 0.485745 0.634152
O O5 0.193173 0.393478 0.643939
O O6 0.091895 0.548521 0.519837
O O7 0.000000 0.250000 0.546812
O O8 0.105524 0.500000 0.250000
O O9 0.000000 0.750000 0.159200
#
# Coordination Sequence:
#
# PCOD9335724 Si02
#       4
#     8   8   8   4
#     4  10  22  46  73  94 138 193 232 284 351 431
#     4  11  26  45  74 104 140 190 241 288 354 430
#     4  12  26  44  70 108 144 181 238 299 355 409
#     4  10  22  44  66 100 130 180 242 288 344 408
#
# _framework density 25.046907000000001
#
# number of rings (size 3 to 8) (size 9 to 14) (size 15 to 20)
#    0.000    1.143    5.714    0.857    4.000    5.714 
#    0.000    0.000    0.000    0.000    0.000    0.000 
#    0.000    0.000    0.000    0.000    0.000    0.000 
#
# Total GULP energy -78404.178510 kJ/mol
# GULP energy per Si atom -5600.298465 kJ/mol
# Density = 2.498990 g / cm^3
# Si number density = 25.046907 Si / 1000 Ang^3
#
#
#
# Elastic Constant Matrix: (Units=GPa)
#
#
# Indices 1 2 3 4 5 6 
#
# 1 79.8712 62.7608 49.5885 0.0000 0.0000 0.0000
# 2 62.7608 132.6295 33.3449 0.0000 0.0000 0.0000
# 3 49.5885 33.3449 97.8331 0.0000 0.0000 0.0000
# 4 0.0000 0.0000 0.0000 31.9883 0.0000 0.0000
# 5 0.0000 0.0000 0.0000 0.0000 37.6689 0.0000
# 6 0.0000 0.0000 0.0000 0.0000 0.0000 62.8684
#
#
#
# Elastic Compliance Matrix: (Units=1/GPa)
#
#
# Indices 1 2 3 4 5 6 
#
# 1 0.026743 -0.010113 -0.010108 0.000000 0.000000 0.000000
# 2 -0.010113 0.012071 0.001012 0.000000 0.000000 0.000000
# 3 -0.010108 0.001012 0.015000 0.000000 0.000000 0.000000
# 4 0.000000 0.000000 0.000000 0.031261 0.000000 0.000000
# 5 0.000000 0.000000 0.000000 0.000000 0.026547 0.000000
# 6 0.000000 0.000000 0.000000 0.000000 0.000000 0.015906
#
#
# Mechanical properties :
#
#
# Convention : Reuss Voigt Hill
#
# Bulk Modulus (GPa) = 64.95712 66.85801 65.90757
# Shear Modulus (GPa) = 29.22626 37.48108 33.35367
#
# Velocity S-wave (km/s) = 3.41964 3.87258 3.65313
# Velocity P-wave (km/s) = 6.44844 6.83717 6.64565
#
# Compressibility (1/GPa) = 0.01539477
#
# Stress axis : x y z
#
# Youngs Moduli (GPa) = 37.39355 82.84254 66.66667
#
# Poissons Ratio (x) = 0.83782 0.67386
# Poissons Ratio (y) = 0.37818 -0.06746
# Poissons Ratio (z) = 0.37797 -0.08383
#
# Static dielectric constant tensor:
#      x y z
#    x 2.024500 0.000000 0.000000 
#    y 0.000000 2.033300 0.000000 
#    z 0.000000 0.000000 1.954380 
# 
# From -- ./inp_files/8754.got.cif
#   From: 2010.05.17/outbox.cif.g08.bks.cpg/sg24_5_cif.got.tgz:8754.got - 2010.06.04 00:33:39.
