data_PCOD9335085
_publ_section_title
;
Structure prediction by ZEFSAII (Michael W. Deem and Ramdas Pophale) SiO2 
 PCOD9335085
Probable space group: I 21 21 21
;
_chemical_formula_sum "Si O2"
_cell_formula_units_Z 48
_cell_length_a 8.267614
_cell_length_b 18.003109
_cell_length_c 13.769782
_cell_angle_alpha 90.000000
_cell_angle_beta 90.000000
_cell_angle_gamma 90.000000
_cell_volume 2049.532303
_symmetry_space_group_name_H-M "I 21 21 21"
_symmetry_group_IT_number 24
_symmetry_cell_setting 'orthorhombic'
loop_
_space_group_symop_operation_xyz
x,y,z
-x,1/2-y,z
x,-y,1/2-z
1/2-x,y,-z
1/2+x,1/2+y,1/2+z
1/2-x,-y,1/2+z
1/2+x,1/2-y,-z
-x,1/2+y,1/2-z
loop_
_atom_site_type_symbol
_atom_site_label
_atom_site_fract_x
_atom_site_fract_y
_atom_site_fract_z
Si Si1 0.649381 0.297532 0.586360
Si Si2 0.135087 0.185259 0.774115
Si Si3 0.444121 0.432402 0.506839
Si Si4 0.137676 0.551508 0.340401
Si Si5 0.427462 0.171735 0.914205
Si Si6 0.008857 0.570271 0.599286
O O1 0.500000 0.250000 0.626079
O O2 0.750000 0.258170 0.500000
O O3 0.770836 0.315513 0.672855
O O4 0.560337 0.365636 0.532894
O O5 0.263631 0.195593 0.860788
O O6 0.000000 0.250000 0.773592
O O7 0.058439 0.106288 0.803156
O O8 0.250000 0.415399 0.500000
O O9 0.453666 0.491570 0.593823
O O10 0.508449 0.482200 0.417418
O O11 0.185132 0.500000 0.250000
O O12 0.298074 0.579507 0.394140
O O13 0.025844 0.624006 0.332291
O O14 0.500000 0.250000 0.945526
O O15 0.437545 0.117131 0.007876
#
# Coordination Sequence:
#
# PCOD9335085 Si02
#       6
#     8   8   8   8   8   8
#     4  12  27  48  73 101 138 184 240 303 360 427
#     4  12  26  42  67 104 143 186 237 293 354 426
#     4   9  21  43  70  99 135 182 230 283 353 424
#     4  10  21  40  67 100 142 191 235 282 347 425
#     4  11  22  41  69 100 139 186 238 297 357 420
#     4  10  23  42  67 104 145 185 232 290 359 428
#
# _framework density 23.419978
#
# number of rings (size 3 to 8) (size 9 to 14) (size 15 to 20)
#    0.000    1.333    0.000    6.000    0.000    8.000 
#    0.000    5.000    0.000    0.000    0.000    0.000 
#    0.000    0.000    0.000    0.000    0.000    0.000 
#
# Total GULP energy -133979.807293 kJ/mol
# GULP energy per Si atom -5582.491971 kJ/mol
# Density = 2.336667 g / cm^3
# Si number density = 23.419978 Si / 1000 Ang^3
#
#
#
# Elastic Constant Matrix: (Units=GPa)
#
#
# Indices 1 2 3 4 5 6 
#
# 1 115.5594 66.9127 58.2202 0.0000 0.0000 0.0000
# 2 66.9127 128.6685 49.1065 0.0000 0.0000 0.0000
# 3 58.2202 49.1065 124.2891 0.0000 0.0000 0.0000
# 4 0.0000 0.0000 0.0000 11.3675 0.0000 0.0000
# 5 0.0000 0.0000 0.0000 0.0000 45.6500 0.0000
# 6 0.0000 0.0000 0.0000 0.0000 0.0000 34.1645
#
#
#
# Elastic Compliance Matrix: (Units=1/GPa)
#
#
# Indices 1 2 3 4 5 6 
#
# 1 0.014156 -0.005689 -0.004383 0.000000 0.000000 0.000000
# 2 -0.005689 0.011438 -0.001854 0.000000 0.000000 0.000000
# 3 -0.004383 -0.001854 0.010832 0.000000 0.000000 0.000000
# 4 0.000000 0.000000 0.000000 0.087970 0.000000 0.000000
# 5 0.000000 0.000000 0.000000 0.000000 0.021906 0.000000
# 6 0.000000 0.000000 0.000000 0.000000 0.000000 0.029270
#
#
# Mechanical properties :
#
#
# Convention : Reuss Voigt Hill
#
# Bulk Modulus (GPa) = 79.53783 79.66617 79.60200
# Shear Modulus (GPa) = 24.55607 31.18824 27.87216
#
# Velocity S-wave (km/s) = 3.24158 3.65320 3.45353
# Velocity P-wave (km/s) = 6.93150 7.20310 7.06861
#
# Compressibility (1/GPa) = 0.01257263
#
# Stress axis : x y z
#
# Youngs Moduli (GPa) = 70.64185 87.42788 92.32141
#
# Poissons Ratio (x) = 0.49735 0.40468
# Poissons Ratio (y) = 0.40186 0.17120
# Poissons Ratio (z) = 0.30965 0.16213
#
# Static dielectric constant tensor:
#      x y z
#    x 1.928950 0.000000 0.000000 
#    y 0.000000 1.898870 0.000000 
#    z 0.000000 0.000000 1.968040 
# 
# From -- ./inp_files/24801.got.cif
#   From: 2010.05.17/outbox.cif.g08.bks.cpg/sg24_13_cif.got.tgz:24801.got - 2010.06.04 00:33:39.
