data_PCOD9335728
_publ_section_title
;
Structure prediction by ZEFSAII (Michael W. Deem and Ramdas Pophale) SiO2 
 PCOD9335728
Probable space group: I 21 21 21
;
_chemical_formula_sum "Si O2"
_cell_formula_units_Z 56
_cell_length_a 31.516780
_cell_length_b 14.054824
_cell_length_c 5.572214
_cell_angle_alpha 90.000000
_cell_angle_beta 90.000000
_cell_angle_gamma 90.000000
_cell_volume 2468.283493
_symmetry_space_group_name_H-M "I 21 21 21"
_symmetry_group_IT_number 24
_symmetry_cell_setting 'orthorhombic'
loop_
_space_group_symop_operation_xyz
x,y,z
-x,1/2-y,z
x,-y,1/2-z
1/2-x,y,-z
1/2+x,1/2+y,1/2+z
1/2-x,-y,1/2+z
1/2+x,1/2-y,-z
-x,1/2+y,1/2-z
loop_
_atom_site_type_symbol
_atom_site_label
_atom_site_fract_x
_atom_site_fract_y
_atom_site_fract_z
Si Si1 0.179695 0.386916 0.218393
Si Si2 0.702583 0.720319 0.380958
Si Si3 0.909528 0.104129 0.379454
Si Si4 0.040333 0.500000 0.750000
Si Si5 0.381020 0.113381 0.213844
Si Si6 0.750000 0.194669 0.500000
Si Si7 0.422593 0.113960 0.717330
Si Si8 0.009890 0.348847 0.103615
O O1 0.176061 0.500000 0.250000
O O2 0.137524 0.355106 0.362313
O O3 0.227008 0.369377 0.310479
O O4 0.181663 0.317835 0.986526
O O5 0.750000 0.701637 0.500000
O O6 0.666771 0.640717 0.369410
O O7 0.713887 0.740779 0.107346
O O8 0.944988 0.160544 0.234606
O O9 0.909252 0.000000 0.250000
O O10 0.928466 0.079245 0.637194
O O11 0.012292 0.557885 0.561454
O O12 0.398026 0.148621 0.476401
O O13 0.383819 0.000000 0.250000
O O14 0.407871 0.148600 0.983007
O O15 0.472698 0.134802 0.703203
O O16 0.416529 0.000000 0.750000
O O17 0.000000 0.250000 0.972320
#
# Coordination Sequence:
#
# PCOD9335728 Si02
#       8
#     8   8   8   4   8   4   8   8
#     4  10  23  41  65  94 133 180 232 287 357 420
#     4  10  24  44  65 100 141 179 229 302 354 431
#     4   9  21  41  60  89 131 175 227 288 350 415
#     4  10  22  44  66  90 142 184 230 302 346 422
#     4  10  24  45  74 105 140 188 234 286 367 429
#     4  10  24  38  66  94 128 176 230 288 360 412
#     4  10  23  44  70 101 141 187 235 295 351 424
#     4  11  25  40  64 100 137 185 242 284 362 418
#
# _framework density 22.687830999999999
#
# number of rings (size 3 to 8) (size 9 to 14) (size 15 to 20)
#    0.000    2.000    0.000    1.286   14.000    4.000 
#    1.286    0.000    0.000    0.000    0.000    0.000 
#    0.000    0.000    0.000    0.000    0.000    0.000 
#
# Total GULP energy -155884.812524 kJ/mol
# GULP energy per Si atom -5567.314733 kJ/mol
# Density = 2.263619 g / cm^3
# Si number density = 22.687831 Si / 1000 Ang^3
#
#
#
# Elastic Constant Matrix: (Units=GPa)
#
#
# Indices 1 2 3 4 5 6 
#
# 1 112.9098 13.6752 26.4930 0.0000 0.0000 0.0000
# 2 13.6752 34.4433 22.5028 -0.0001 0.0001 0.0000
# 3 26.4930 22.5028 80.4500 -0.0002 0.0001 -0.0006
# 4 0.0000 -0.0001 -0.0002 6.6539 -0.0001 -0.0002
# 5 0.0000 0.0001 0.0001 -0.0001 32.9385 0.0000
# 6 0.0000 0.0000 -0.0006 -0.0002 0.0000 41.1400
#
#
#
# Elastic Compliance Matrix: (Units=1/GPa)
#
#
# Indices 1 2 3 4 5 6 
#
# 1 0.009728 -0.002165 -0.002598 0.000000 0.000000 0.000000
# 2 -0.002165 0.036007 -0.009359 0.000000 0.000000 0.000000
# 3 -0.002598 -0.009359 0.015903 0.000000 0.000000 0.000000
# 4 0.000000 0.000000 0.000000 0.150287 0.000000 0.000001
# 5 0.000000 0.000000 0.000000 0.000000 0.030360 0.000000
# 6 0.000000 0.000000 0.000000 0.000001 0.000000 0.024307
#
#
# Mechanical properties :
#
#
# Convention : Reuss Voigt Hill
#
# Bulk Modulus (GPa) = 29.94433 39.23835 34.59134
# Shear Modulus (GPa) = 16.34155 27.15527 21.74841
#
# Velocity S-wave (km/s) = 2.68671 3.46339 3.09948
# Velocity P-wave (km/s) = 4.78034 5.77286 5.29988
#
# Compressibility (1/GPa) = 0.03339530
#
# Stress axis : x y z
#
# Youngs Moduli (GPa) = 102.79101 27.77227 62.87979
#
# Poissons Ratio (x) = 0.06013 0.16337
# Poissons Ratio (y) = 0.22256 0.58847
# Poissons Ratio (z) = 0.26706 0.25991
#
# Static dielectric constant tensor:
#      x y z
#    x 1.855080 0.000000 0.000000 
#    y 0.000000 1.671590 0.000000 
#    z 0.000000 0.000000 1.877780 
# 
# From -- ./inp_files/7776.got.cif
#   From: 2010.05.17/outbox.cif.g08.bks.cpg/sg24_4_cif.got.tgz:7776.got - 2010.06.04 00:33:39.
