data_PCOD9335259
_publ_section_title
;
Structure prediction by ZEFSAII (Michael W. Deem and Ramdas Pophale) SiO2 
 PCOD9335259
Probable space group: I 21 21 21
;
_chemical_formula_sum "Si O2"
_cell_formula_units_Z 60
_cell_length_a 20.740005
_cell_length_b 5.270363
_cell_length_c 24.948908
_cell_angle_alpha 90.000000
_cell_angle_beta 90.000000
_cell_angle_gamma 90.000000
_cell_volume 2727.099143
_symmetry_space_group_name_H-M "I 21 21 21"
_symmetry_group_IT_number 24
_symmetry_cell_setting 'orthorhombic'
loop_
_space_group_symop_operation_xyz
x,y,z
-x,1/2-y,z
x,-y,1/2-z
1/2-x,y,-z
1/2+x,1/2+y,1/2+z
1/2-x,-y,1/2+z
1/2+x,1/2-y,-z
-x,1/2+y,1/2-z
loop_
_atom_site_type_symbol
_atom_site_label
_atom_site_fract_x
_atom_site_fract_y
_atom_site_fract_z
Si Si1 0.382128 0.793493 0.486964
Si Si2 0.279253 0.528559 0.069757
Si Si3 0.041648 0.003062 0.612967
Si Si4 0.723794 0.674144 0.655857
Si Si5 0.157782 0.187946 0.664348
Si Si6 0.842029 0.323973 0.419256
Si Si7 0.459366 0.506832 0.565711
Si Si8 0.762519 0.000000 0.750000
O O1 0.318215 0.632145 0.473528
O O2 0.436783 0.599482 0.507171
O O3 0.408495 0.933110 0.434684
O O4 0.371365 0.988657 0.535767
O O5 0.232690 0.353739 0.105114
O O6 0.331614 0.638548 0.111548
O O7 0.228337 0.749394 0.057086
O O8 0.085596 0.087597 0.663453
O O9 0.000000 0.250000 0.598459
O O10 0.000000 0.750000 0.622813
O O11 0.793659 0.545339 0.659537
O O12 0.672536 0.465196 0.636986
O O13 0.718391 0.830289 0.710596
O O14 0.189134 0.338267 0.713280
O O15 0.891546 0.091762 0.409789
O O16 0.500000 0.250000 0.564891
O O17 0.500000 0.750000 0.588088
#
# Coordination Sequence:
#
# PCOD9335259 Si02
#       8
#     8   8   8   8   8   8   8   4
#     4  12  26  43  64 100 144 204 253 299 355 427
#     4  10  23  41  63  96 140 184 239 304 372 426
#     4  12  28  44  70  97 143 202 266 300 343 426
#     4  10  21  44  66 101 133 184 227 308 383 453
#     4  10  22  44  69 100 132 186 238 314 378 435
#     4  11  26  42  64 100 147 193 250 306 366 441
#     4  12  27  44  63  93 142 207 255 293 339 421
#     4  10  22  42  82  98 138 182 236 310 414 452
#
# _framework density 22.0014
#
# number of rings (size 3 to 8) (size 9 to 14) (size 15 to 20)
#    0.000    1.067    2.667    2.400    7.467    3.200 
#    2.400    0.000    2.933    0.000    0.000    0.000 
#    0.000    0.000  512.267    0.000    0.000    0.000 
#
# Total GULP energy -167621.232642 kJ/mol
# GULP energy per Si atom -5587.374421 kJ/mol
# Density = 2.195132 g / cm^3
# Si number density = 22.001400 Si / 1000 Ang^3
#
#
#
# Elastic Constant Matrix: (Units=GPa)
#
#
# Indices 1 2 3 4 5 6 
#
# 1 106.9878 55.1908 36.3783 0.0000 0.0000 0.0000
# 2 55.1908 126.7692 38.9425 0.0000 0.0000 0.0000
# 3 36.3783 38.9425 71.9483 0.0000 0.0000 0.0000
# 4 0.0000 0.0000 0.0000 29.2647 0.0000 0.0000
# 5 0.0000 0.0000 0.0000 0.0000 -0.5081 0.0000
# 6 0.0000 0.0000 0.0000 0.0000 0.0000 -11.1738
#
#
#
# Elastic Compliance Matrix: (Units=1/GPa)
#
#
# Indices 1 2 3 4 5 6 
#
# 1 0.013043 -0.004381 -0.004223 0.000000 0.000000 0.000000
# 2 -0.004381 0.010933 -0.003702 0.000000 0.000000 0.000000
# 3 -0.004223 -0.003702 0.018038 0.000000 0.000000 0.000000
# 4 0.000000 0.000000 0.000000 0.034171 0.000000 0.000000
# 5 0.000000 0.000000 0.000000 0.000000 -1.968218 0.000000
# 6 0.000000 0.000000 0.000000 0.000000 0.000000 -0.089495
#
#
# Mechanical properties :
#
#
# Convention : Reuss Voigt Hill
#
# Bulk Modulus (GPa) = 57.47001 62.96985 60.21993
# Shear Modulus (GPa) = -2.56264 15.19614 6.31675
#
# Velocity S-wave (km/s) = -1.08041 2.63095 1.69626
# Velocity P-wave (km/s) = 4.96199 6.15728 5.59167
#
# Compressibility (1/GPa) = 0.01740038
#
# Stress axis : x y z
#
# Youngs Moduli (GPa) = 76.66985 91.46565 55.43749
#
# Poissons Ratio (x) = 0.40071 0.23414
# Poissons Ratio (y) = 0.33589 0.20526
# Poissons Ratio (z) = 0.32381 0.33865
#
# Static dielectric constant tensor:
#      x y z
#    x 1.850040 0.000000 0.000000 
#    y 0.000000 4.616090 0.000000 
#    z 0.000000 0.000000 2.074250 
# 
# From -- ./inp_files/37539.got.cif
#   From: 2010.05.17/outbox.cif.g08.bks.cpg/sg24_19_cif.got.tgz:37539.got - 2010.06.04 00:33:39.
