data_PCOD9335695
_publ_section_title
;
Structure prediction by ZEFSAII (Michael W. Deem and Ramdas Pophale) SiO2 
 PCOD9335695
Probable space group: I 21 21 21
;
_chemical_formula_sum "Si O2"
_cell_formula_units_Z 48
_cell_length_a 5.386266
_cell_length_b 26.082124
_cell_length_c 14.045599
_cell_angle_alpha 90.000000
_cell_angle_beta 90.000000
_cell_angle_gamma 90.000000
_cell_volume 1973.199595
_symmetry_space_group_name_H-M "I 21 21 21"
_symmetry_group_IT_number 24
_symmetry_cell_setting 'orthorhombic'
loop_
_space_group_symop_operation_xyz
x,y,z
-x,1/2-y,z
x,-y,1/2-z
1/2-x,y,-z
1/2+x,1/2+y,1/2+z
1/2-x,-y,1/2+z
1/2+x,1/2-y,-z
-x,1/2+y,1/2-z
loop_
_atom_site_type_symbol
_atom_site_label
_atom_site_fract_x
_atom_site_fract_y
_atom_site_fract_z
Si Si1 0.152224 0.889524 0.640310
Si Si2 0.500000 0.750000 0.065742
Si Si3 0.459521 0.639521 0.148388
Si Si4 0.892416 0.945469 0.149347
Si Si5 0.250754 0.771718 0.389953
Si Si6 0.250000 0.076882 0.500000
Si Si7 0.845474 0.052807 0.125770
O O1 0.228616 0.832526 0.610442
O O2 0.380053 0.924934 0.602852
O O3 0.097551 0.882301 0.755883
O O4 0.884319 0.909594 0.603391
O O5 0.478386 0.699523 0.131717
O O6 0.250000 0.752848 0.000000
O O7 0.187569 0.613972 0.144476
O O8 0.562214 0.613492 0.053431
O O9 0.888836 0.950360 0.261190
O O10 0.136651 0.953598 0.087700
O O11 0.744281 0.994641 0.106856
O O12 0.500000 0.750000 0.344538
O O13 0.250000 0.752886 0.500000
O O14 0.000000 0.750000 0.344561
#
# Coordination Sequence:
#
# PCOD9335695 Si02
#       7
#     8   4   8   8   8   4   8
#     4  11  23  43  68 102 130 175 220 288 336 410
#     4  12  26  44  64  96 142 186 230 292 326 388
#     4  11  25  42  64  98 136 182 235 275 340 400
#     4  10  23  40  67  92 131 181 223 279 333 408
#     4  10  22  43  69  96 130 172 216 274 346 416
#     4  12  20  42  64  92 138 178 232 266 344 400
#     4  10  23  42  67  96 133 169 228 276 339 393
#
# _framework density 24.325973999999999
#
# number of rings (size 3 to 8) (size 9 to 14) (size 15 to 20)
#    0.000    1.333    2.500    2.500    3.500    1.333 
#    3.000    0.000    0.000    0.000    0.000    0.000 
#    0.000    0.000    0.000    0.000    0.000    0.000 
#
# Total GULP energy -133616.227927 kJ/mol
# GULP energy per Si atom -5567.342830 kJ/mol
# Density = 2.427061 g / cm^3
# Si number density = 24.325974 Si / 1000 Ang^3
#
#
#
# Elastic Constant Matrix: (Units=GPa)
#
#
# Indices 1 2 3 4 5 6 
#
# 1 166.4316 51.2353 20.1469 0.0001 0.0000 0.0000
# 2 51.2353 145.3900 -16.0006 0.0002 0.0000 0.0000
# 3 20.1469 -16.0006 97.8276 0.0001 0.0000 0.0000
# 4 0.0001 0.0002 0.0001 1733.2740 0.0000 0.0001
# 5 0.0000 0.0000 0.0000 0.0000 18.2793 0.0000
# 6 0.0000 0.0000 0.0000 0.0001 0.0000 19.2428
#
#
#
# Elastic Compliance Matrix: (Units=1/GPa)
#
#
# Indices 1 2 3 4 5 6 
#
# 1 0.007069 -0.002700 -0.001898 0.000000 0.000000 0.000000
# 2 -0.002700 0.008035 0.001870 0.000000 0.000000 0.000000
# 3 -0.001898 0.001870 0.010919 0.000000 0.000000 0.000000
# 4 0.000000 0.000000 0.000000 0.000577 0.000000 0.000000
# 5 0.000000 0.000000 0.000000 0.000000 0.054707 0.000000
# 6 0.000000 0.000000 0.000000 0.000000 0.000000 0.051967
#
#
# Mechanical properties :
#
#
# Convention : Reuss Voigt Hill
#
# Bulk Modulus (GPa) = 48.61683 57.82361 53.22022
# Shear Modulus (GPa) = 34.34407 377.77706 206.06057
#
# Velocity S-wave (km/s) = 3.76151 12.47537 9.21368
# Velocity P-wave (km/s) = 6.23652 15.20971 11.62388
#
# Compressibility (1/GPa) = 0.02056901
#
# Stress axis : x y z
#
# Youngs Moduli (GPa) = 141.45516 124.44942 91.58554
#
# Poissons Ratio (x) = 0.33602 0.17378
# Poissons Ratio (y) = 0.38194 -0.17129
# Poissons Ratio (z) = 0.26841 -0.23276
#
# Static dielectric constant tensor:
#      x y z
#    x 0.053500 0.000000 0.000000 
#    y 0.000000 2.165290 0.000000 
#    z 0.000000 0.000000 1.968480 
# 
# From -- ./inp_files/23950.got.cif
#   From: 2010.05.17/outbox.cif.g08.bks.cpg/sg24_12_cif.got.tgz:23950.got - 2010.06.04 00:33:39.
