data_PCOD9335230
_publ_section_title
;
Structure prediction by ZEFSAII (Michael W. Deem and Ramdas Pophale) SiO2 
 PCOD9335230
Probable space group: I 21 21 21
;
_chemical_formula_sum "Si O2"
_cell_formula_units_Z 64
_cell_length_a 11.044727
_cell_length_b 9.571015
_cell_length_c 29.338127
_cell_angle_alpha 90.000000
_cell_angle_beta 90.000000
_cell_angle_gamma 90.000000
_cell_volume 3101.311337
_symmetry_space_group_name_H-M "I 21 21 21"
_symmetry_group_IT_number 24
_symmetry_cell_setting 'orthorhombic'
loop_
_space_group_symop_operation_xyz
x,y,z
-x,1/2-y,z
x,-y,1/2-z
1/2-x,y,-z
1/2+x,1/2+y,1/2+z
1/2-x,-y,1/2+z
1/2+x,1/2-y,-z
-x,1/2+y,1/2-z
loop_
_atom_site_type_symbol
_atom_site_label
_atom_site_fract_x
_atom_site_fract_y
_atom_site_fract_z
Si Si1 0.861931 0.533582 0.135983
Si Si2 0.313598 0.704397 0.152713
Si Si3 0.718063 0.432212 0.054165
Si Si4 0.129147 0.479592 0.130834
Si Si5 0.516309 0.108441 0.431412
Si Si6 0.290535 0.380574 0.050845
Si Si7 0.617954 0.829701 0.252678
Si Si8 0.132195 0.230380 0.199260
O O1 0.774282 0.665954 0.141562
O O2 0.829580 0.461318 0.087720
O O3 0.847555 0.424193 0.178174
O O4 0.004281 0.562801 0.132501
O O5 0.228766 0.569300 0.156923
O O6 0.409588 0.661551 0.113454
O O7 0.373081 0.726807 0.201203
O O8 0.614342 0.538213 0.070608
O O9 0.675339 0.275149 0.066130
O O10 0.750000 0.447582 0.000000
O O11 0.184377 0.445188 0.081647
O O12 0.114633 0.334044 0.156578
O O13 0.500000 0.250000 0.460145
O O14 0.600538 0.988071 0.450159
O O15 0.250000 0.361008 0.000000
O O16 0.500000 0.750000 0.273934
O O17 0.746302 0.783346 0.275398
O O18 0.604482 0.000000 0.250000
O O19 0.000000 0.250000 0.224335
#
# Coordination Sequence:
#
# PCOD9335230 Si02
#       8
#     8   8   8   8   8   8   8   8
#     4  11  23  41  70  99 131 176 228 271 346 408
#     4  11  24  45  68  95 137 179 222 274 343 408
#     4  11  24  41  64  98 132 179 226 279 332 403
#     4  10  21  43  66  97 131 177 217 281 337 409
#     4  11  23  43  63  91 134 176 221 273 336 396
#     4  10  23  41  65  95 130 172 226 278 335 395
#     4  12  28  47  71 104 139 178 229 285 343 419
#     4  10  23  46  71 100 138 178 227 288 347 406
#
# _framework density 20.636431999999999
#
# number of rings (size 3 to 8) (size 9 to 14) (size 15 to 20)
#    0.000    1.250    3.750    1.125    3.500    1.500 
#    0.000    0.000    0.000    0.000    0.000    0.000 
#    0.000    0.000    0.000    0.000    0.000    0.000 
#
# Total GULP energy -178362.386305 kJ/mol
# GULP energy per Si atom -5573.824572 kJ/mol
# Density = 2.058946 g / cm^3
# Si number density = 20.636432 Si / 1000 Ang^3
#
#
#
# Elastic Constant Matrix: (Units=GPa)
#
#
# Indices 1 2 3 4 5 6 
#
# 1 142.2886 35.2011 20.1843 0.0000 0.0000 0.0000
# 2 35.2011 66.5263 2.5035 0.0000 0.0000 0.0000
# 3 20.1843 2.5035 35.1273 0.0000 0.0000 0.0000
# 4 0.0000 0.0000 0.0000 25.1966 0.0000 0.0000
# 5 0.0000 0.0000 0.0000 0.0000 -5.0302 0.0000
# 6 0.0000 0.0000 0.0000 0.0000 0.0000 41.6206
#
#
#
# Elastic Compliance Matrix: (Units=1/GPa)
#
#
# Indices 1 2 3 4 5 6 
#
# 1 0.008810 -0.004483 -0.004743 0.000000 0.000000 0.000000
# 2 -0.004483 0.017353 0.001339 0.000000 0.000000 0.000000
# 3 -0.004743 0.001339 0.031098 0.000000 0.000000 0.000000
# 4 0.000000 0.000000 0.000000 0.039688 0.000000 0.000000
# 5 0.000000 0.000000 0.000000 0.000000 -0.198800 0.000000
# 6 0.000000 0.000000 0.000000 0.000000 0.000000 0.024027
#
#
# Mechanical properties :
#
#
# Convention : Reuss Voigt Hill
#
# Bulk Modulus (GPa) = 24.10348 39.96888 32.03618
# Shear Modulus (GPa) = -103.68651 24.76095 -39.46278
#
# Velocity S-wave (km/s) = -7.09602 3.46767 -4.37771
# Velocity P-wave (km/s) = 7.44530 5.95341 3.16144
#
# Compressibility (1/GPa) = 0.04148778
#
# Stress axis : x y z
#
# Youngs Moduli (GPa) = 113.50978 57.62566 32.15685
#
# Poissons Ratio (x) = 0.25834 0.15251
# Poissons Ratio (y) = 0.50887 -0.04306
# Poissons Ratio (z) = 0.53834 -0.07717
#
# Static dielectric constant tensor:
#      x y z
#    x 1.795690 0.000000 0.000000 
#    y 0.000000 1.775930 0.000000 
#    z 0.000000 0.000000 1.583940 
# 
# From -- ./inp_files/38635.got.cif
#   From: 2010.05.17/outbox.cif.g08.bks.cpg/sg24_20_cif.got.tgz:38635.got - 2010.06.04 00:33:39.
