data_PCOD9335471
_publ_section_title
;
Structure prediction by ZEFSAII (Michael W. Deem and Ramdas Pophale) SiO2 
 PCOD9335471
Probable space group: I 21 21 21
;
_chemical_formula_sum "Si O2"
_cell_formula_units_Z 28
_cell_length_a 5.316774
_cell_length_b 16.633642
_cell_length_c 14.210662
_cell_angle_alpha 90.000000
_cell_angle_beta 90.000000
_cell_angle_gamma 90.000000
_cell_volume 1256.752796
_symmetry_space_group_name_H-M "I 21 21 21"
_symmetry_group_IT_number 24
_symmetry_cell_setting 'orthorhombic'
loop_
_space_group_symop_operation_xyz
x,y,z
-x,1/2-y,z
x,-y,1/2-z
1/2-x,y,-z
1/2+x,1/2+y,1/2+z
1/2-x,-y,1/2+z
1/2+x,1/2-y,-z
-x,1/2+y,1/2-z
loop_
_atom_site_type_symbol
_atom_site_label
_atom_site_fract_x
_atom_site_fract_y
_atom_site_fract_z
Si Si1 0.004452 0.337670 0.711445
Si Si2 0.996236 0.335995 0.414963
Si Si3 0.503222 0.989418 0.546940
Si Si4 0.743244 0.000000 0.750000
O O1 0.249985 0.333027 0.645278
O O2 0.071277 0.422743 0.759149
O O3 0.000000 0.250000 0.762653
O O4 0.742926 0.342989 0.654740
O O5 0.000000 0.250000 0.465883
O O6 0.998329 0.415205 0.477570
O O7 0.750000 0.952384 0.500000
O O8 0.561842 0.992726 0.658468
O O9 0.250000 0.955623 0.500000
#
# Coordination Sequence:
#
# PCOD9335471 Si02
#       4
#     8   8   8   4
#     4   9  18  33  56  85 115 156 204 240 297 370
#     4   9  18  33  52  80 120 156 188 237 298 373
#     4  11  23  36  55  87 119 158 209 245 297 376
#     4  10  22  40  62  86 130 172 196 262 318 348
#
# _framework density 22.279639
#
# number of rings (size 3 to 8) (size 9 to 14) (size 15 to 20)
#    0.000    2.286    0.000    3.429    0.000   11.429 
#    0.000    1.429    0.000    0.000    0.000   22.000 
#    0.000    0.000    0.000    0.000    0.000    0.000 
#
# Total GULP energy -77982.321864 kJ/mol
# GULP energy per Si atom -5570.165847 kJ/mol
# Density = 2.222893 g / cm^3
# Si number density = 22.279639 Si / 1000 Ang^3
#
#
#
# Elastic Constant Matrix: (Units=GPa)
#
#
# Indices 1 2 3 4 5 6 
#
# 1 197.3944 11.7110 56.4084 0.0000 0.0000 0.0000
# 2 11.7110 108.9022 -1.7704 0.0000 0.0000 0.0000
# 3 56.4084 -1.7704 100.3887 0.0000 0.0000 0.0000
# 4 0.0000 0.0000 0.0000 21.7630 0.0000 0.0000
# 5 0.0000 0.0000 0.0000 0.0000 39.1835 0.0000
# 6 0.0000 0.0000 0.0000 0.0000 0.0000 19.0986
#
#
#
# Elastic Compliance Matrix: (Units=1/GPa)
#
#
# Indices 1 2 3 4 5 6 
#
# 1 0.006090 -0.000711 -0.003434 0.000000 0.000000 0.000000
# 2 -0.000711 0.009268 0.000563 0.000000 0.000000 0.000000
# 3 -0.003434 0.000563 0.011901 0.000000 0.000000 0.000000
# 4 0.000000 0.000000 0.000000 0.045950 0.000000 0.000000
# 5 0.000000 0.000000 0.000000 0.000000 0.025521 0.000000
# 6 0.000000 0.000000 0.000000 0.000000 0.000000 0.052360
#
#
# Mechanical properties :
#
#
# Convention : Reuss Voigt Hill
#
# Bulk Modulus (GPa) = 49.76539 59.93146 54.84843
# Shear Modulus (GPa) = 30.31199 38.69812 34.50506
#
# Velocity S-wave (km/s) = 3.69253 4.17217 3.93966
# Velocity P-wave (km/s) = 6.36906 7.08289 6.73544
#
# Compressibility (1/GPa) = 0.02009429
#
# Stress axis : x y z
#
# Youngs Moduli (GPa) = 164.21574 107.89667 84.02723
#
# Poissons Ratio (x) = 0.07668 0.28857
# Poissons Ratio (y) = 0.11670 -0.04729
# Poissons Ratio (z) = 0.56396 -0.06072
#
# Static dielectric constant tensor:
#      x y z
#    x 1.883010 0.000000 0.000000 
#    y 0.000000 1.936750 0.000000 
#    z 0.000000 0.000000 1.847660 
# 
# From -- ./inp_files/3011.got.cif
#   From: 2010.05.17/outbox.cif.g08.bks.cpg/sg24_2_cif.got.tgz:3011.got - 2010.06.04 00:33:39.
