data_PCOD9335335
_publ_section_title
;
Structure prediction by ZEFSAII (Michael W. Deem and Ramdas Pophale) SiO2 
 PCOD9335335
Probable space group: I 21 21 21
;
_chemical_formula_sum "Si O2"
_cell_formula_units_Z 36
_cell_length_a 5.861672
_cell_length_b 20.492912
_cell_length_c 13.921112
_cell_angle_alpha 90.000000
_cell_angle_beta 90.000000
_cell_angle_gamma 90.000000
_cell_volume 1672.241957
_symmetry_space_group_name_H-M "I 21 21 21"
_symmetry_group_IT_number 24
_symmetry_cell_setting 'orthorhombic'
loop_
_space_group_symop_operation_xyz
x,y,z
-x,1/2-y,z
x,-y,1/2-z
1/2-x,y,-z
1/2+x,1/2+y,1/2+z
1/2-x,-y,1/2+z
1/2+x,1/2-y,-z
-x,1/2+y,1/2-z
loop_
_atom_site_type_symbol
_atom_site_label
_atom_site_fract_x
_atom_site_fract_y
_atom_site_fract_z
Si Si1 0.442320 0.500000 0.750000
Si Si2 0.553951 0.177103 0.630335
Si Si3 0.250000 0.083693 0.500000
Si Si4 0.803093 0.376689 0.190379
Si Si5 0.070539 0.412012 0.655755
Si Si6 0.750000 0.710271 0.500000
O O1 0.583678 0.448674 0.813717
O O2 0.279034 0.457471 0.683567
O O3 0.500000 0.250000 0.602531
O O4 0.400843 0.128773 0.568423
O O5 0.471139 0.165281 0.740279
O O6 0.814392 0.154685 0.618241
O O7 0.420744 0.051645 0.424529
O O8 0.576039 0.391734 0.252033
O O9 0.760219 0.336526 0.093973
O O10 0.500000 0.750000 0.497443
#
# Coordination Sequence:
#
# PCOD9335335 Si02
#       6
#     4   8   4   8   8   4
#     4  10  22  46  72  96 142 186 240 300 370 442
#     4  10  22  37  64  96 137 180 222 283 353 427
#     4  10  22  36  61 102 135 176 226 274 362 422
#     4  10  24  45  70 105 135 194 239 304 374 430
#     4  10  22  42  66  96 142 177 234 290 353 434
#     4  12  30  50  81 114 155 196 262 318 382 456
#
# _framework density 21.527985000000001
#
# number of rings (size 3 to 8) (size 9 to 14) (size 15 to 20)
#    0.000    1.778    0.000    2.000   12.444    1.778 
#    0.000   26.667    0.000    0.000    0.000    0.000 
#    0.000    0.000    0.000    0.000    0.000    0.000 
#
# Total GULP energy -100429.701661 kJ/mol
# GULP energy per Si atom -5579.427870 kJ/mol
# Density = 2.147899 g / cm^3
# Si number density = 21.527985 Si / 1000 Ang^3
#
#
#
# Elastic Constant Matrix: (Units=GPa)
#
#
# Indices 1 2 3 4 5 6 
#
# 1 133.6784 55.3072 52.7609 0.0000 0.0000 0.0000
# 2 55.3072 88.2320 29.5760 0.0000 0.0000 0.0000
# 3 52.7609 29.5760 141.5390 0.0000 0.0000 0.0000
# 4 0.0000 0.0000 0.0000 13.5509 0.0000 0.0000
# 5 0.0000 0.0000 0.0000 0.0000 36.1038 0.0000
# 6 0.0000 0.0000 0.0000 0.0000 0.0000 26.1328
#
#
#
# Elastic Compliance Matrix: (Units=1/GPa)
#
#
# Indices 1 2 3 4 5 6 
#
# 1 0.011097 -0.005989 -0.002885 0.000000 0.000000 0.000000
# 2 -0.005989 0.015420 -0.000990 0.000000 0.000000 0.000000
# 3 -0.002885 -0.000990 0.008347 0.000000 0.000000 0.000000
# 4 0.000000 0.000000 0.000000 0.073796 0.000000 0.000000
# 5 0.000000 0.000000 0.000000 0.000000 0.027698 0.000000
# 6 0.000000 0.000000 0.000000 0.000000 0.000000 0.038266
#
#
# Mechanical properties :
#
#
# Convention : Reuss Voigt Hill
#
# Bulk Modulus (GPa) = 66.06454 70.97084 68.51769
# Shear Modulus (GPa) = 25.07557 30.21119 27.64338
#
# Velocity S-wave (km/s) = 3.41660 3.75019 3.58728
# Velocity P-wave (km/s) = 6.80578 7.19654 7.00389
#
# Compressibility (1/GPa) = 0.01513671
#
# Stress axis : x y z
#
# Youngs Moduli (GPa) = 90.11234 64.85244 119.79661
#
# Poissons Ratio (x) = 0.38840 0.34564
# Poissons Ratio (y) = 0.53969 0.11855
# Poissons Ratio (z) = 0.25999 0.06418
#
# Static dielectric constant tensor:
#      x y z
#    x 1.838040 0.000000 0.000000 
#    y 0.000000 1.818360 0.000000 
#    z 0.000000 0.000000 1.814310 
# 
# From -- ./inp_files/3372.got.cif
#   From: 2010.05.17/outbox.cif.g08.bks.cpg/sg24_2_cif.got.tgz:3372.got - 2010.06.04 00:33:39.
