data_PCOD9335045
_publ_section_title
;
Structure prediction by ZEFSAII (Michael W. Deem and Ramdas Pophale) SiO2 
 PCOD9335045
Probable space group: I 21 21 21
;
_chemical_formula_sum "Si O2"
_cell_formula_units_Z 64
_cell_length_a 18.806388
_cell_length_b 18.416375
_cell_length_c 8.568725
_cell_angle_alpha 90.000000
_cell_angle_beta 90.000000
_cell_angle_gamma 90.000000
_cell_volume 2967.739291
_symmetry_space_group_name_H-M "I 21 21 21"
_symmetry_group_IT_number 24
_symmetry_cell_setting 'orthorhombic'
loop_
_space_group_symop_operation_xyz
x,y,z
-x,1/2-y,z
x,-y,1/2-z
1/2-x,y,-z
1/2+x,1/2+y,1/2+z
1/2-x,-y,1/2+z
1/2+x,1/2-y,-z
-x,1/2+y,1/2-z
loop_
_atom_site_type_symbol
_atom_site_label
_atom_site_fract_x
_atom_site_fract_y
_atom_site_fract_z
Si Si1 0.152963 0.378328 0.136959
Si Si2 0.996720 0.579200 0.409582
Si Si3 0.858508 0.575048 0.196753
Si Si4 0.564885 0.453384 0.395342
Si Si5 0.323632 0.235817 0.695794
Si Si6 0.545772 0.320299 0.193613
Si Si7 0.308060 0.583683 0.280907
Si Si8 0.341147 0.731542 0.147680
O O1 0.148114 0.292858 0.177409
O O2 0.221542 0.408333 0.232531
O O3 0.074912 0.411494 0.160536
O O4 0.171779 0.394107 0.957207
O O5 0.935635 0.576908 0.280266
O O6 0.988749 0.506155 0.512588
O O7 0.974689 0.644136 0.528417
O O8 0.822514 0.500000 0.250000
O O9 0.825188 0.651597 0.238638
O O10 0.873117 0.568662 0.013345
O O11 0.593454 0.500000 0.250000
O O12 0.531428 0.382149 0.321239
O O13 0.362860 0.248563 0.529282
O O14 0.242351 0.255930 0.666804
O O15 0.500000 0.250000 0.222217
O O16 0.623056 0.286347 0.228424
O O17 0.327174 0.500000 0.250000
O O18 0.347802 0.645070 0.178922
#
# Coordination Sequence:
#
# PCOD9335045 Si02
#       8
#     8   8   8   8   8   8   8   8
#     4  10  23  41  63  95 128 180 219 277 341 396
#     4  10  23  38  63  92 135 169 216 273 340 400
#     4  10  21  40  63  92 128 167 213 274 332 396
#     4   9  20  41  60  88 126 167 209 271 323 390
#     4  10  22  41  66  89 131 171 223 278 328 404
#     4  11  22  37  62  94 127 172 220 264 330 400
#     4  10  23  42  66  94 132 172 229 275 331 409
#     4  10  22  42  65  92 128 173 219 275 331 394
#
# _framework density 21.565235999999999
#
# number of rings (size 3 to 8) (size 9 to 14) (size 15 to 20)
#    0.000    2.000    1.250    0.750    3.500    9.000 
#    0.000    1.875    0.000    0.000    0.000    0.000 
#    0.000    0.000    0.000    0.000    0.000    0.000 
#
# Total GULP energy -178554.524294 kJ/mol
# GULP energy per Si atom -5579.828884 kJ/mol
# Density = 2.151615 g / cm^3
# Si number density = 21.565236 Si / 1000 Ang^3
#
#
#
# Elastic Constant Matrix: (Units=GPa)
#
#
# Indices 1 2 3 4 5 6 
#
# 1 33.3032 13.3500 0.6452 0.0000 0.0000 0.0000
# 2 13.3500 192.7792 40.5759 0.0000 0.0000 0.0000
# 3 0.6452 40.5759 64.3308 0.0000 0.0000 0.0000
# 4 0.0000 0.0000 0.0000 19.2127 0.0000 0.0000
# 5 0.0000 0.0000 0.0000 0.0000 9.1761 0.0000
# 6 0.0000 0.0000 0.0000 0.0000 0.0000 3.8943
#
#
#
# Elastic Compliance Matrix: (Units=1/GPa)
#
#
# Indices 1 2 3 4 5 6 
#
# 1 0.030965 -0.002397 0.001201 0.000000 0.000000 0.000000
# 2 -0.002397 0.006167 -0.003866 0.000000 0.000000 0.000000
# 3 0.001201 -0.003866 0.017971 0.000000 0.000000 0.000000
# 4 0.000000 0.000000 0.000000 0.052049 0.000000 0.000000
# 5 0.000000 0.000000 0.000000 0.000000 0.108978 0.000000
# 6 0.000000 0.000000 0.000000 0.000000 0.000000 0.256783
#
#
# Mechanical properties :
#
#
# Convention : Reuss Voigt Hill
#
# Bulk Modulus (GPa) = 22.23224 44.39504 33.31364
# Shear Modulus (GPa) = 10.03958 22.17944 16.10951
#
# Velocity S-wave (km/s) = 2.15999 3.21047 2.73612
# Velocity P-wave (km/s) = 4.06847 5.86293 5.04610
#
# Compressibility (1/GPa) = 0.04497973
#
# Stress axis : x y z
#
# Youngs Moduli (GPa) = 32.29469 162.15525 55.64572
#
# Poissons Ratio (x) = 0.38872 -0.06685
# Poissons Ratio (y) = 0.07742 0.21511
# Poissons Ratio (z) = -0.03880 0.62684
#
# Static dielectric constant tensor:
#      x y z
#    x 1.985600 0.000000 0.000000 
#    y 0.000000 1.845020 0.000000 
#    z 0.000000 0.000000 1.833450 
# 
# From -- ./inp_files/15413.got.cif
#   From: 2010.05.17/outbox.cif.g08.bks.cpg/sg24_8_cif.got.tgz:15413.got - 2010.06.04 00:33:39.
