data_PCOD9335359
_publ_section_title
;
Structure prediction by ZEFSAII (Michael W. Deem and Ramdas Pophale) SiO2 
 PCOD9335359
Probable space group: I 21 21 21
;
_chemical_formula_sum "Si O2"
_cell_formula_units_Z 56
_cell_length_a 15.593222
_cell_length_b 15.593235
_cell_length_c 10.942705
_cell_angle_alpha 90.000000
_cell_angle_beta 90.000000
_cell_angle_gamma 90.000000
_cell_volume 2660.705317
_symmetry_space_group_name_H-M "I 21 21 21"
_symmetry_group_IT_number 24
_symmetry_cell_setting 'orthorhombic'
loop_
_space_group_symop_operation_xyz
x,y,z
-x,1/2-y,z
x,-y,1/2-z
1/2-x,y,-z
1/2+x,1/2+y,1/2+z
1/2-x,-y,1/2+z
1/2+x,1/2-y,-z
-x,1/2+y,1/2-z
loop_
_atom_site_type_symbol
_atom_site_label
_atom_site_fract_x
_atom_site_fract_y
_atom_site_fract_z
Si Si1 0.953116 0.954535 0.626113
Si Si2 0.873809 0.196049 0.753147
Si Si3 0.295465 0.703116 0.876113
Si Si4 0.627605 0.386172 0.616878
Si Si5 0.671759 0.578241 0.625000
Si Si6 0.946049 0.123809 0.496853
Si Si7 0.363828 0.122395 0.133122
O O1 0.908880 0.862412 0.636693
O O2 0.055121 0.940290 0.637693
O O3 0.922066 0.000000 0.750000
O O4 0.933816 0.021879 0.519842
O O5 0.771879 0.183817 0.730158
O O6 0.920523 0.170523 0.625000
O O7 0.886522 0.294709 0.787988
O O8 0.309710 0.805121 0.887693
O O9 0.250000 0.672066 0.000000
O O10 0.387588 0.658880 0.886693
O O11 0.661500 0.480176 0.580025
O O12 0.610969 0.400560 0.761506
O O13 0.544709 0.363478 0.537988
O O14 0.769824 0.588500 0.669975
O O15 0.650560 0.639031 0.511506
#
# Coordination Sequence:
#
# PCOD9335359 Si02
#       7
#     8   8   8   8   8   8   8
#     4  10  22  37  65  91 133 171 229 279 326 395
#     4  10  22  42  67  97 134 179 228 283 336 400
#     4  10  22  37  65  91 133 171 229 279 326 395
#     4  11  21  41  65 100 136 172 219 277 346 411
#     4  10  24  38  67  96 141 172 212 274 348 416
#     4  10  22  42  67  97 134 179 228 283 336 400
#     4  11  21  41  65 100 136 172 219 277 346 411
#
# _framework density 21.047051
#
# number of rings (size 3 to 8) (size 9 to 14) (size 15 to 20)
#    0.000    1.714    2.857    0.857    4.000    8.000 
#    0.000    2.857   44.000    0.000    0.000    0.000 
#    0.000    0.000    0.000    0.000    0.000    0.000 
#
# Total GULP energy -156143.005593 kJ/mol
# GULP energy per Si atom -5576.535914 kJ/mol
# Density = 2.099915 g / cm^3
# Si number density = 21.047051 Si / 1000 Ang^3
#
#
#
# Elastic Constant Matrix: (Units=GPa)
#
#
# Indices 1 2 3 4 5 6 
#
# 1 82.5828 53.8913 25.5533 0.0000 0.0000 0.0000
# 2 53.8913 82.5828 25.5532 0.0000 0.0000 0.0000
# 3 25.5533 25.5532 59.7903 0.0000 0.0000 0.0000
# 4 0.0000 0.0000 0.0000 28.3192 0.0000 0.0000
# 5 0.0000 0.0000 0.0000 0.0000 28.3192 0.0000
# 6 0.0000 0.0000 0.0000 0.0000 0.0000 33.1615
#
#
#
# Elastic Compliance Matrix: (Units=1/GPa)
#
#
# Indices 1 2 3 4 5 6 
#
# 1 0.021789 -0.013065 -0.003728 0.000000 0.000000 0.000000
# 2 -0.013065 0.021789 -0.003728 0.000000 0.000000 0.000000
# 3 -0.003728 -0.003728 0.019912 0.000000 0.000000 0.000000
# 4 0.000000 0.000000 0.000000 0.035312 0.000000 0.000000
# 5 0.000000 0.000000 0.000000 0.000000 0.035312 0.000000
# 6 0.000000 0.000000 0.000000 0.000000 0.000000 0.030155
#
#
# Mechanical properties :
#
#
# Convention : Reuss Voigt Hill
#
# Bulk Modulus (GPa) = 44.55158 48.32794 46.43976
# Shear Modulus (GPa) = 23.49701 25.95719 24.72710
#
# Velocity S-wave (km/s) = 3.34489 3.51564 3.43132
# Velocity P-wave (km/s) = 6.01093 6.28421 6.14909
#
# Compressibility (1/GPa) = 0.02244589
#
# Stress axis : x y z
#
# Youngs Moduli (GPa) = 45.89562 45.89567 50.22121
#
# Poissons Ratio (x) = 0.59963 0.18724
# Poissons Ratio (y) = 0.59963 0.18724
# Poissons Ratio (z) = 0.17111 0.17111
#
# Static dielectric constant tensor:
#      x y z
#    x 1.797020 0.000000 0.000000 
#    y 0.000000 1.797020 0.000000 
#    z 0.000000 0.000000 1.789350 
# 
# From -- ./inp_files/20832.got.cif
#   From: 2010.05.17/outbox.cif.g08.bks.cpg/sg24_11_cif.got.tgz:20832.got - 2010.06.04 00:33:39.
