data_PCOD9335902
_publ_section_title
;
Structure prediction by ZEFSAII (Michael W. Deem and Ramdas Pophale) SiO2 
 PCOD9335902
Probable space group: I 21 21 21
;
_chemical_formula_sum "Si O2"
_cell_formula_units_Z 48
_cell_length_a 5.260958
_cell_length_b 12.775724
_cell_length_c 29.931233
_cell_angle_alpha 90.000000
_cell_angle_beta 90.000000
_cell_angle_gamma 90.000000
_cell_volume 2011.754416
_symmetry_space_group_name_H-M "I 21 21 21"
_symmetry_group_IT_number 24
_symmetry_cell_setting 'orthorhombic'
loop_
_space_group_symop_operation_xyz
x,y,z
-x,1/2-y,z
x,-y,1/2-z
1/2-x,y,-z
1/2+x,1/2+y,1/2+z
1/2-x,-y,1/2+z
1/2+x,1/2-y,-z
-x,1/2+y,1/2-z
loop_
_atom_site_type_symbol
_atom_site_label
_atom_site_fract_x
_atom_site_fract_y
_atom_site_fract_z
Si Si1 0.238839 0.896544 0.451378
Si Si2 0.074346 0.546344 0.206261
Si Si3 0.763701 0.314104 0.763767
Si Si4 0.761137 0.424150 0.853172
Si Si5 0.898415 0.865688 0.864600
Si Si6 0.741596 0.039649 0.452851
O O1 0.250000 0.837033 0.500000
O O2 0.477823 0.975348 0.453457
O O3 0.972976 0.958069 0.451331
O O4 0.254260 0.858694 0.399487
O O5 0.211514 0.500000 0.250000
O O6 0.224504 0.630669 0.178788
O O7 0.825864 0.598552 0.228404
O O8 0.008168 0.459900 0.168700
O O9 0.500000 0.250000 0.771497
O O10 0.863310 0.360885 0.810828
O O11 0.000000 0.250000 0.746226
O O12 0.907281 0.534960 0.860741
O O13 0.743278 0.889925 0.909581
O O14 0.000000 0.750000 0.869290
O O15 0.750000 0.098757 0.500000
#
# Coordination Sequence:
#
# PCOD9335902 Si02
#       6
#     8   8   8   8   8   8
#     4   9  17  34  64  93 123 165 209 259 321 384
#     4  10  24  42  64  92 129 172 218 270 322 381
#     4  11  28  45  69  96 126 173 223 274 333 385
#     4  10  23  42  65  95 130 170 215 273 322 391
#     4  11  24  40  64  95 134 178 217 269 324 384
#     4   9  18  36  59  88 126 168 215 257 308 380
#
# _framework density 23.859770999999999
#
# number of rings (size 3 to 8) (size 9 to 14) (size 15 to 20)
#    0.000    2.000    1.667    0.000    9.333    0.667 
#    0.000    6.667    0.000    1.000    0.000    0.000 
#    0.000    0.000    0.000    0.000    0.000    0.000 
#
# Total GULP energy -133877.853623 kJ/mol
# GULP energy per Si atom -5578.243901 kJ/mol
# Density = 2.380547 g / cm^3
# Si number density = 23.859771 Si / 1000 Ang^3
#
#
#
# Elastic Constant Matrix: (Units=GPa)
#
#
# Indices 1 2 3 4 5 6 
#
# 1 110.7110 12.0335 13.8282 0.0000 0.0000 0.0000
# 2 12.0335 17.3010 -8.1175 0.0000 0.0000 0.0000
# 3 13.8282 -8.1175 214.4345 0.0000 0.0000 0.0000
# 4 0.0000 0.0000 0.0000 11.9445 0.0000 0.0000
# 5 0.0000 0.0000 0.0000 0.0000 30.0995 0.0000
# 6 0.0000 0.0000 0.0000 0.0000 0.0000 -2.6241
#
#
#
# Elastic Compliance Matrix: (Units=1/GPa)
#
#
# Indices 1 2 3 4 5 6 
#
# 1 0.009946 -0.007349 -0.000920 0.000000 0.000000 0.000000
# 2 -0.007349 0.064276 0.002907 0.000000 0.000000 0.000000
# 3 -0.000920 0.002907 0.004833 0.000000 0.000000 0.000000
# 4 0.000000 0.000000 0.000000 0.083720 0.000000 0.000000
# 5 0.000000 0.000000 0.000000 0.000000 0.033223 0.000000
# 6 0.000000 0.000000 0.000000 0.000000 0.000000 -0.381081
#
#
# Mechanical properties :
#
#
# Convention : Reuss Voigt Hill
#
# Bulk Modulus (GPa) = 14.63459 41.99278 28.31368
# Shear Modulus (GPa) = -32.98557 29.53080 -1.72738
#
# Velocity S-wave (km/s) = -3.72220 3.52189 -0.85179
# Velocity P-wave (km/s) = 3.51086 5.84605 3.30531
#
# Compressibility (1/GPa) = 0.06833125
#
# Stress axis : x y z
#
# Youngs Moduli (GPa) = 100.54061 15.55786 206.92012
#
# Poissons Ratio (x) = 0.11434 0.19029
# Poissons Ratio (y) = 0.73892 -0.60155
# Poissons Ratio (z) = 0.09246 -0.04523
#
# Static dielectric constant tensor:
#      x y z
#    x 1.922150 0.000000 0.000000 
#    y 0.000000 1.948850 0.000000 
#    z 0.000000 0.000000 2.016570 
# 
# From -- ./inp_files/7109.got.cif
#   From: 2010.05.17/outbox.cif.g08.bks.cpg/sg24_4_cif.got.tgz:7109.got - 2010.06.04 00:33:39.
