data_PCOD9335847
_publ_section_title
;
Structure prediction by ZEFSAII (Michael W. Deem and Ramdas Pophale) SiO2 
 PCOD9335847
Probable space group: I 21 21 21
;
_chemical_formula_sum "Si O2"
_cell_formula_units_Z 44
_cell_length_a 5.485743
_cell_length_b 14.336142
_cell_length_c 30.755588
_cell_angle_alpha 90.000000
_cell_angle_beta 90.000000
_cell_angle_gamma 90.000000
_cell_volume 2418.754477
_symmetry_space_group_name_H-M "I 21 21 21"
_symmetry_group_IT_number 24
_symmetry_cell_setting 'orthorhombic'
loop_
_space_group_symop_operation_xyz
x,y,z
-x,1/2-y,z
x,-y,1/2-z
1/2-x,y,-z
1/2+x,1/2+y,1/2+z
1/2-x,-y,1/2+z
1/2+x,1/2-y,-z
-x,1/2+y,1/2-z
loop_
_atom_site_type_symbol
_atom_site_label
_atom_site_fract_x
_atom_site_fract_y
_atom_site_fract_z
Si Si1 0.974712 0.491076 0.868154
Si Si2 0.000000 0.750000 0.472543
Si Si3 0.779487 0.385430 0.788369
Si Si4 0.000000 0.750000 0.331101
Si Si5 0.608211 0.000000 0.750000
Si Si6 0.530938 0.911300 0.598840
Si Si7 0.969414 0.861230 0.798942
O O1 0.960396 0.426103 0.824353
O O2 0.721671 0.468350 0.893494
O O3 0.216250 0.468192 0.896092
O O4 0.988081 0.592336 0.845816
O O5 0.750000 0.745486 0.500000
O O6 0.984803 0.844116 0.443204
O O7 0.720953 0.279795 0.800723
O O8 0.538199 0.448464 0.788372
O O9 0.839553 0.391236 0.737939
O O10 0.042347 0.663937 0.362384
O O11 0.742160 0.914695 0.775753
O O12 0.000000 0.750000 0.801719
#
# Coordination Sequence:
#
# PCOD9335847 Si02
#       7
#     8   4   8   4   4   8   8
#     4  11  21  39  53  74 119 158 207 245 308 360
#     4  11  22  42  70 106 132 146 188 234 292 404
#     4  11  21  33  49  70 102 158 207 281 300 341
#     4   9  20  32  50  74 106 148 208 236 294 350
#     4  12  20  40  44  70 110 142 218 292 338 344
#     4  10  23  38  60  85 119 162 179 235 307 370
#     4  12  24  33  54  75 107 161 229 278 321 340
#
# _framework density 18.191179000000002
#
# number of rings (size 3 to 8) (size 9 to 14) (size 15 to 20)
#    0.000    1.091    3.636    4.364    2.545    5.091 
#    0.000    0.000    0.000    0.000    0.000    0.000 
#    0.000   14.545    0.000    0.000    0.000    0.000 
#
# Total GULP energy -122470.739337 kJ/mol
# GULP energy per Si atom -5566.851788 kJ/mol
# Density = 1.814978 g / cm^3
# Si number density = 18.191179 Si / 1000 Ang^3
#
#
#
# Elastic Constant Matrix: (Units=GPa)
#
#
# Indices 1 2 3 4 5 6 
#
# 1 130.6559 47.4759 51.8447 0.0000 0.0000 0.0000
# 2 47.4759 90.3129 40.1195 0.0000 0.0000 0.0000
# 3 51.8447 40.1195 88.5398 0.0000 0.0000 0.0000
# 4 0.0000 0.0000 0.0000 31.2684 0.0000 0.0000
# 5 0.0000 0.0000 0.0000 0.0000 32.5669 0.0000
# 6 0.0000 0.0000 0.0000 0.0000 0.0000 13.2597
#
#
#
# Elastic Compliance Matrix: (Units=1/GPa)
#
#
# Indices 1 2 3 4 5 6 
#
# 1 0.010831 -0.003601 -0.004711 0.000000 0.000000 0.000000
# 2 -0.003601 0.015061 -0.004716 0.000000 0.000000 0.000000
# 3 -0.004711 -0.004716 0.016189 0.000000 0.000000 0.000000
# 4 0.000000 0.000000 0.000000 0.031981 0.000000 0.000000
# 5 0.000000 0.000000 0.000000 0.000000 0.030706 0.000000
# 6 0.000000 0.000000 0.000000 0.000000 0.000000 0.075416
#
#
# Mechanical properties :
#
#
# Convention : Reuss Voigt Hill
#
# Bulk Modulus (GPa) = 62.39650 65.37655 63.88652
# Shear Modulus (GPa) = 23.63151 26.75689 25.19420
#
# Velocity S-wave (km/s) = 3.60816 3.83935 3.72555
# Velocity P-wave (km/s) = 7.19259 7.46129 7.32817
#
# Compressibility (1/GPa) = 0.01602654
#
# Stress axis : x y z
#
# Youngs Moduli (GPa) = 92.32369 66.39858 61.76908
#
# Poissons Ratio (x) = 0.23913 0.29096
# Poissons Ratio (y) = 0.33249 0.29127
# Poissons Ratio (z) = 0.43489 0.31310
#
# Static dielectric constant tensor:
#      x y z
#    x 1.791110 0.000000 0.000000 
#    y 0.000000 1.594990 0.000000 
#    z 0.000000 0.000000 1.646420 
# 
# From -- ./inp_files/37870.got.cif
#   From: 2010.05.17/outbox.cif.g08.bks.cpg/sg24_19_cif.got.tgz:37870.got - 2010.06.04 00:33:39.
