data_PCOD9335141
_publ_section_title
;
Structure prediction by ZEFSAII (Michael W. Deem and Ramdas Pophale) SiO2 
 PCOD9335141
Probable space group: I 21 21 21
;
_chemical_formula_sum "Si O2"
_cell_formula_units_Z 44
_cell_length_a 24.347576
_cell_length_b 9.736463
_cell_length_c 8.748246
_cell_angle_alpha 90.000000
_cell_angle_beta 90.000000
_cell_angle_gamma 90.000000
_cell_volume 2073.852836
_symmetry_space_group_name_H-M "I 21 21 21"
_symmetry_group_IT_number 24
_symmetry_cell_setting 'orthorhombic'
loop_
_space_group_symop_operation_xyz
x,y,z
-x,1/2-y,z
x,-y,1/2-z
1/2-x,y,-z
1/2+x,1/2+y,1/2+z
1/2-x,-y,1/2+z
1/2+x,1/2-y,-z
-x,1/2+y,1/2-z
loop_
_atom_site_type_symbol
_atom_site_label
_atom_site_fract_x
_atom_site_fract_y
_atom_site_fract_z
Si Si1 0.581463 0.232277 0.012236
Si Si2 0.521374 0.941758 0.013761
Si Si3 0.500000 0.250000 0.763556
Si Si4 0.083924 0.191020 0.647503
Si Si5 0.688504 0.631116 0.943906
Si Si6 0.193468 0.804190 0.406827
O O1 0.583804 0.314816 0.170009
O O2 0.546165 0.092604 0.025930
O O3 0.549946 0.302292 0.869697
O O4 0.644541 0.210632 0.969561
O O5 0.559913 0.841178 0.111124
O O6 0.460297 0.914284 0.077038
O O7 0.520863 0.871336 0.846333
O O8 0.141879 0.178416 0.562177
O O9 0.681074 0.466005 0.934895
O O10 0.689267 0.701403 0.777122
O O11 0.750000 0.654482 0.000000
O O12 0.250000 0.775927 0.500000
#
# Coordination Sequence:
#
# PCOD9335141 Si02
#       6
#     8   8   4   8   8   8
#     4  12  23  39  66  93 128 171 217 264 323 392
#     4  10  23  43  60  88 134 169 218 267 322 383
#     4  10  22  38  60  94 122 172 212 266 320 382
#     4  10  22  41  62  93 131 173 213 266 327 382
#     4  10  21  41  66  92 131 167 210 273 322 379
#     4  10  22  40  65  97 126 166 217 266 324 384
#
# _framework density 21.216548
#
# number of rings (size 3 to 8) (size 9 to 14) (size 15 to 20)
#    0.000    1.818    0.000    5.455    2.545    2.182 
#    3.273    0.909    0.000    2.182    0.000    0.000 
#    0.000    0.000    0.000    0.000    0.000    0.000 
#
# Total GULP energy -122866.751659 kJ/mol
# GULP energy per Si atom -5584.852348 kJ/mol
# Density = 2.116826 g / cm^3
# Si number density = 21.216548 Si / 1000 Ang^3
#
#
#
# Elastic Constant Matrix: (Units=GPa)
#
#
# Indices 1 2 3 4 5 6 
#
# 1 158.9433 30.4727 65.9336 0.0000 0.0000 0.0000
# 2 30.4727 46.4533 19.9829 0.0000 0.0000 0.0000
# 3 65.9336 19.9829 165.4020 0.0000 0.0000 0.0000
# 4 0.0000 0.0000 0.0000 21.2304 0.0000 0.0000
# 5 0.0000 0.0000 0.0000 0.0000 35.4921 0.0000
# 6 0.0000 0.0000 0.0000 0.0000 0.0000 19.7150
#
#
#
# Elastic Compliance Matrix: (Units=1/GPa)
#
#
# Indices 1 2 3 4 5 6 
#
# 1 0.008254 -0.004218 -0.002781 0.000000 0.000000 0.000000
# 2 -0.004218 0.024863 -0.001322 0.000000 0.000000 0.000000
# 3 -0.002781 -0.001322 0.007314 0.000000 0.000000 0.000000
# 4 0.000000 0.000000 0.000000 0.047102 0.000000 0.000000
# 5 0.000000 0.000000 0.000000 0.000000 0.028175 0.000000
# 6 0.000000 0.000000 0.000000 0.000000 0.000000 0.050723
#
#
# Mechanical properties :
#
#
# Convention : Reuss Voigt Hill
#
# Bulk Modulus (GPa) = 42.03700 67.06412 54.55056
# Shear Modulus (GPa) = 26.17765 32.24813 29.21289
#
# Velocity S-wave (km/s) = 3.51640 3.90289 3.71467
# Velocity P-wave (km/s) = 6.02853 7.21027 6.64572
#
# Compressibility (1/GPa) = 0.02378857
#
# Stress axis : x y z
#
# Youngs Moduli (GPa) = 121.15789 40.22054 136.72375
#
# Poissons Ratio (x) = 0.16966 0.38016
# Poissons Ratio (y) = 0.51107 0.18079
# Poissons Ratio (z) = 0.33688 0.05318
#
# Static dielectric constant tensor:
#      x y z
#    x 1.752860 0.000000 0.000000 
#    y 0.000000 1.797840 0.000000 
#    z 0.000000 0.000000 1.852740 
# 
# From -- ./inp_files/15785.got.cif
#   From: 2010.05.17/outbox.cif.g08.bks.cpg/sg24_8_cif.got.tgz:15785.got - 2010.06.04 00:33:39.
