data_PCOD9335009
_publ_section_title
;
Structure prediction by ZEFSAII (Michael W. Deem and Ramdas Pophale) SiO2 
 PCOD9335009
Probable space group: I 21 21 21
;
_chemical_formula_sum "Si O2"
_cell_formula_units_Z 60
_cell_length_a 8.389857
_cell_length_b 20.275369
_cell_length_c 16.955433
_cell_angle_alpha 90.000000
_cell_angle_beta 90.000000
_cell_angle_gamma 90.000000
_cell_volume 2884.245412
_symmetry_space_group_name_H-M "I 21 21 21"
_symmetry_group_IT_number 24
_symmetry_cell_setting 'orthorhombic'
loop_
_space_group_symop_operation_xyz
x,y,z
-x,1/2-y,z
x,-y,1/2-z
1/2-x,y,-z
1/2+x,1/2+y,1/2+z
1/2-x,-y,1/2+z
1/2+x,1/2-y,-z
-x,1/2+y,1/2-z
loop_
_atom_site_type_symbol
_atom_site_label
_atom_site_fract_x
_atom_site_fract_y
_atom_site_fract_z
Si Si1 0.564663 0.939872 0.651299
Si Si2 0.098320 0.318698 0.702626
Si Si3 0.493441 0.084777 0.681598
Si Si4 0.129850 0.308464 0.425410
Si Si5 0.290569 0.933611 0.410153
Si Si6 0.116714 0.052006 0.678785
Si Si7 0.750000 0.888132 0.500000
Si Si8 0.463940 0.674073 0.375870
O O1 0.561597 0.896563 0.731664
O O2 0.379832 0.938869 0.628755
O O3 0.670118 0.923552 0.575135
O O4 0.588689 0.016814 0.668586
O O5 0.249535 0.302455 0.648638
O O6 0.131366 0.334011 0.794517
O O7 0.000000 0.250000 0.700884
O O8 0.997067 0.383735 0.674436
O O9 0.527186 0.129515 0.605605
O O10 0.301837 0.074702 0.688752
O O11 0.250000 0.315883 0.500000
O O12 0.000000 0.250000 0.437574
O O13 0.250000 0.920035 0.500000
O O14 0.386100 0.874356 0.370324
O O15 0.384051 0.002618 0.396676
O O16 0.078075 0.000000 0.750000
O O17 0.617689 0.845642 0.456916
O O18 0.500000 0.750000 0.380928
#
# Coordination Sequence:
#
# PCOD9335009 Si02
#       8
#     8   8   8   8   8   8   4   8
#     4  10  21  39  65  96 138 177 231 288 359 432
#     4  11  24  46  72 101 137 186 243 301 368 442
#     4  10  21  43  68 100 136 183 230 294 369 436
#     4  12  28  48  72 103 141 188 243 311 367 436
#     4  11  21  40  66  99 138 183 229 286 358 431
#     4  11  20  41  73 102 134 184 237 298 355 434
#     4  12  24  36  60  90 138 178 226 296 338 424
#     4  11  25  41  62  96 135 184 235 285 355 434
#
# _framework density 20.802667
#
# number of rings (size 3 to 8) (size 9 to 14) (size 15 to 20)
#    0.000    1.067    5.333    2.000    1.867    4.267 
#    2.400    2.667    0.000    0.000    0.000    0.000 
#    0.000    0.000    0.000    0.000    0.000    0.000 
#
# Total GULP energy -167106.661782 kJ/mol
# GULP energy per Si atom -5570.222059 kJ/mol
# Density = 2.075532 g / cm^3
# Si number density = 20.802667 Si / 1000 Ang^3
#
#
#
# Elastic Constant Matrix: (Units=GPa)
#
#
# Indices 1 2 3 4 5 6 
#
# 1 60.2540 35.1847 21.1652 0.0000 0.0000 0.0000
# 2 35.1847 104.9352 22.8407 0.0000 0.0000 0.0000
# 3 21.1652 22.8407 114.0213 0.0000 0.0000 0.0000
# 4 0.0000 0.0000 0.0000 88.2387 0.0000 0.0000
# 5 0.0000 0.0000 0.0000 0.0000 25.4628 0.0000
# 6 0.0000 0.0000 0.0000 0.0000 0.0000 28.8611
#
#
#
# Elastic Compliance Matrix: (Units=1/GPa)
#
#
# Indices 1 2 3 4 5 6 
#
# 1 0.021375 -0.006591 -0.002647 0.000000 0.000000 0.000000
# 2 -0.006591 0.011996 -0.001180 0.000000 0.000000 0.000000
# 3 -0.002647 -0.001180 0.009498 0.000000 0.000000 0.000000
# 4 0.000000 0.000000 0.000000 0.011333 0.000000 0.000000
# 5 0.000000 0.000000 0.000000 0.000000 0.039273 0.000000
# 6 0.000000 0.000000 0.000000 0.000000 0.000000 0.034649
#
#
# Mechanical properties :
#
#
# Convention : Reuss Voigt Hill
#
# Bulk Modulus (GPa) = 45.38539 48.62129 47.00334
# Shear Modulus (GPa) = 31.98887 41.84717 36.91802
#
# Velocity S-wave (km/s) = 3.92564 4.48998 4.21726
# Velocity P-wave (km/s) = 6.51245 7.09248 6.80865
#
# Compressibility (1/GPa) = 0.02203352
#
# Stress axis : x y z
#
# Youngs Moduli (GPa) = 46.78369 83.35877 105.28479
#
# Poissons Ratio (x) = 0.54940 0.27874
# Poissons Ratio (y) = 0.30834 0.12420
# Poissons Ratio (z) = 0.12386 0.09834
#
# Static dielectric constant tensor:
#      x y z
#    x 1.769610 0.000000 0.000000 
#    y 0.000000 1.808160 0.000000 
#    z 0.000000 0.000000 1.775200 
# 
# From -- ./inp_files/29712.got.cif
#   From: 2010.05.17/outbox.cif.g08.bks.cpg/sg24_15_cif.got.tgz:29712.got - 2010.06.04 00:33:39.
