data_PCOD9335066
_publ_section_title
;
Structure prediction by ZEFSAII (Michael W. Deem and Ramdas Pophale) SiO2 
 PCOD9335066
Probable space group: I 21 21 21
;
_chemical_formula_sum "Si O2"
_cell_formula_units_Z 48
_cell_length_a 8.783865
_cell_length_b 9.342553
_cell_length_c 30.211770
_cell_angle_alpha 90.000000
_cell_angle_beta 90.000000
_cell_angle_gamma 90.000000
_cell_volume 2479.290364
_symmetry_space_group_name_H-M "I 21 21 21"
_symmetry_group_IT_number 24
_symmetry_cell_setting 'orthorhombic'
loop_
_space_group_symop_operation_xyz
x,y,z
-x,1/2-y,z
x,-y,1/2-z
1/2-x,y,-z
1/2+x,1/2+y,1/2+z
1/2-x,-y,1/2+z
1/2+x,1/2-y,-z
-x,1/2+y,1/2-z
loop_
_atom_site_type_symbol
_atom_site_label
_atom_site_fract_x
_atom_site_fract_y
_atom_site_fract_z
Si Si1 0.500000 0.750000 0.197211
Si Si2 0.745745 0.629470 0.948606
Si Si3 0.166840 0.000000 0.750000
Si Si4 0.656717 0.880687 0.117631
Si Si5 0.348837 0.148152 0.828078
Si Si6 0.491367 0.593298 0.882292
Si Si7 0.404385 0.118125 0.099444
O O1 0.560731 0.614899 0.224634
O O2 0.633717 0.799279 0.163881
O O3 0.827954 0.755866 0.919968
O O4 0.576272 0.612373 0.928982
O O5 0.817343 0.475022 0.937283
O O6 0.750000 0.662902 0.000000
O O7 0.271284 0.096103 0.782684
O O8 0.819173 0.956513 0.114317
O O9 0.522954 0.997123 0.116624
O O10 0.500000 0.250000 0.823616
O O11 0.208369 0.181838 0.862384
O O12 0.414359 0.009551 0.852050
O O13 0.500000 0.750000 0.861472
O O14 0.500000 0.250000 0.081078
#
# Coordination Sequence:
#
# PCOD9335066 Si02
#       7
#     4   8   4   8   8   8   8
#     4  12  24  44  62 100 136 174 230 292 354 406
#     4  10  21  40  64  97 134 168 225 281 333 409
#     4  12  26  40  66  96 132 172 230 294 350 416
#     4  11  20  41  66  90 129 177 220 279 340 409
#     4  11  24  43  62  92 129 170 223 273 342 420
#     4   9  20  37  63  90 122 172 214 271 334 398
#     4  11  22  40  65  92 127 182 218 269 346 408
#
# _framework density 19.360378999999998
#
# number of rings (size 3 to 8) (size 9 to 14) (size 15 to 20)
#    0.000    1.333    3.333    3.000    1.167    7.333 
#    0.000    5.833    0.000    0.000    0.000    0.000 
#    0.000    0.000    0.000    0.000    0.000    0.000 
#
# Total GULP energy -133673.438511 kJ/mol
# GULP energy per Si atom -5569.726605 kJ/mol
# Density = 1.931631 g / cm^3
# Si number density = 19.360379 Si / 1000 Ang^3
#
#
#
# Elastic Constant Matrix: (Units=GPa)
#
#
# Indices 1 2 3 4 5 6 
#
# 1 123.2991 29.8377 44.2008 0.0000 0.0000 0.0000
# 2 29.8377 92.1084 44.5068 0.0000 0.0000 0.0000
# 3 44.2008 44.5068 125.8992 0.0000 0.0000 0.0000
# 4 0.0000 0.0000 0.0000 1373.1164 -0.0001 0.0000
# 5 0.0000 0.0000 0.0000 -0.0001 -46.3873 0.0000
# 6 0.0000 0.0000 0.0000 0.0000 0.0000 51.0713
#
#
#
# Elastic Compliance Matrix: (Units=1/GPa)
#
#
# Indices 1 2 3 4 5 6 
#
# 1 0.009511 -0.001770 -0.002714 0.000000 0.000000 0.000000
# 2 -0.001770 0.013423 -0.004124 0.000000 0.000000 0.000000
# 3 -0.002714 -0.004124 0.010353 0.000000 0.000000 0.000000
# 4 0.000000 0.000000 0.000000 0.000728 0.000000 0.000000
# 5 0.000000 0.000000 0.000000 0.000000 -0.021558 0.000000
# 6 0.000000 0.000000 0.000000 0.000000 0.000000 0.019580
#
#
# Mechanical properties :
#
#
# Convention : Reuss Voigt Hill
#
# Bulk Modulus (GPa) = 62.21602 64.26638 63.24120
# Shear Modulus (GPa) = 91.55715 290.41084 190.98399
#
# Velocity S-wave (km/s) = 6.88430 12.26084 9.94289
# Velocity P-wave (km/s) = 9.76714 15.28740 12.82774
#
# Compressibility (1/GPa) = 0.01607303
#
# Stress axis : x y z
#
# Youngs Moduli (GPa) = 105.13638 74.50065 96.58735
#
# Poissons Ratio (x) = 0.13186 0.26210
# Poissons Ratio (y) = 0.18609 0.39830
# Poissons Ratio (z) = 0.28530 0.30722
#
# Static dielectric constant tensor:
#      x y z
#    x 1.767770 0.000000 0.000000 
#    y 0.000000 1.691600 0.000000 
#    z 0.000000 0.000000 1.661680 
# 
# From -- ./inp_files/38314.got.cif
#   From: 2010.05.17/outbox.cif.g08.bks.cpg/sg24_20_cif.got.tgz:38314.got - 2010.06.04 00:33:39.
