data_PCOD9335852
_publ_section_title
;
Structure prediction by ZEFSAII (Michael W. Deem and Ramdas Pophale) SiO2 
 PCOD9335852
Probable space group: I 21 21 21
;
_chemical_formula_sum "Si O2"
_cell_formula_units_Z 56
_cell_length_a 14.760499
_cell_length_b 14.101798
_cell_length_c 12.818683
_cell_angle_alpha 90.000000
_cell_angle_beta 90.000000
_cell_angle_gamma 90.000000
_cell_volume 2668.203422
_symmetry_space_group_name_H-M "I 21 21 21"
_symmetry_group_IT_number 24
_symmetry_cell_setting 'orthorhombic'
loop_
_space_group_symop_operation_xyz
x,y,z
-x,1/2-y,z
x,-y,1/2-z
1/2-x,y,-z
1/2+x,1/2+y,1/2+z
1/2-x,-y,1/2+z
1/2+x,1/2-y,-z
-x,1/2+y,1/2-z
loop_
_atom_site_type_symbol
_atom_site_label
_atom_site_fract_x
_atom_site_fract_y
_atom_site_fract_z
Si Si1 0.027255 0.509979 0.956069
Si Si2 0.064142 0.590206 0.327585
Si Si3 0.843801 0.821060 0.936240
Si Si4 0.723438 0.239286 0.884160
Si Si5 0.351966 0.891177 0.999119
Si Si6 0.633096 0.387637 0.743194
Si Si7 0.650916 0.907858 0.290725
O O1 0.079553 0.608937 0.979625
O O2 0.068275 0.457661 0.854065
O O3 0.922345 0.535921 0.952150
O O4 0.045812 0.448828 0.057299
O O5 0.085692 0.500000 0.250000
O O6 0.138749 0.671475 0.347642
O O7 0.967588 0.629230 0.287985
O O8 0.857821 0.709563 0.944116
O O9 0.852159 0.847162 0.814509
O O10 0.750000 0.841868 0.000000
O O11 0.707274 0.327286 0.806273
O O12 0.803513 0.163275 0.869585
O O13 0.750000 0.275888 0.000000
O O14 0.250000 0.928260 0.000000
O O15 0.371507 0.866002 0.878935
O O16 0.651330 0.500000 0.750000
O O17 0.705850 0.000000 0.250000
#
# Coordination Sequence:
#
# PCOD9335852 Si02
#       7
#     8   8   8   8   8   8   8
#     4  11  22  41  70 101 150 188 235 310 371 446
#     4  11  23  40  69 108 144 186 236 301 374 442
#     4  10  23  38  69 109 145 191 240 301 364 449
#     4  12  24  40  70 106 144 194 232 301 375 445
#     4  11  23  44  73 104 142 196 260 304 373 447
#     4  11  25  46  67 100 142 187 253 307 365 443
#     4  10  23  41  67 106 151 181 239 295 372 448
#
# _framework density 20.987905000000001
#
# number of rings (size 3 to 8) (size 9 to 14) (size 15 to 20)
#    0.000    1.143    4.286    3.000    8.000    1.714 
#    0.000    2.143   15.714    0.000    0.000    0.000 
#    0.000    0.000    0.000    0.000    0.000    0.000 
#
# Total GULP energy -155971.163815 kJ/mol
# GULP energy per Si atom -5570.398708 kJ/mol
# Density = 2.094014 g / cm^3
# Si number density = 20.987905 Si / 1000 Ang^3
#
#
#
# Elastic Constant Matrix: (Units=GPa)
#
#
# Indices 1 2 3 4 5 6 
#
# 1 79.7776 51.5069 36.2050 0.0000 0.0000 0.0000
# 2 51.5069 105.1333 30.3843 0.0000 0.0000 0.0000
# 3 36.2050 30.3843 104.2004 0.0000 0.0000 0.0000
# 4 0.0000 0.0000 0.0000 36.1597 0.0000 0.0000
# 5 0.0000 0.0000 0.0000 0.0000 83.8619 0.0000
# 6 0.0000 0.0000 0.0000 0.0000 0.0000 31.3078
#
#
#
# Elastic Compliance Matrix: (Units=1/GPa)
#
#
# Indices 1 2 3 4 5 6 
#
# 1 0.020088 -0.008545 -0.004488 0.000000 0.000000 0.000000
# 2 -0.008545 0.014022 -0.001120 0.000000 0.000000 0.000000
# 3 -0.004488 -0.001120 0.011483 0.000000 0.000000 0.000000
# 4 0.000000 0.000000 0.000000 0.027655 0.000000 0.000000
# 5 0.000000 0.000000 0.000000 0.000000 0.011924 0.000000
# 6 0.000000 0.000000 0.000000 0.000000 0.000000 0.031941
#
#
# Mechanical properties :
#
#
# Convention : Reuss Voigt Hill
#
# Bulk Modulus (GPa) = 57.84488 58.36708 58.10598
# Shear Modulus (GPa) = 33.07298 41.66689 37.36994
#
# Velocity S-wave (km/s) = 3.97396 4.46048 4.22423
# Velocity P-wave (km/s) = 6.97691 7.37551 7.17898
#
# Compressibility (1/GPa) = 0.01728761
#
# Stress axis : x y z
#
# Youngs Moduli (GPa) = 49.78005 71.31902 87.08615
#
# Poissons Ratio (x) = 0.60939 0.39087
# Poissons Ratio (y) = 0.42535 0.09751
# Poissons Ratio (z) = 0.22343 0.07986
#
# Static dielectric constant tensor:
#      x y z
#    x 1.872890 0.000000 0.000000 
#    y 0.000000 1.588420 0.000000 
#    z 0.000000 0.000000 1.579840 
# 
# From -- ./inp_files/20834.got.cif
#   From: 2010.05.17/outbox.cif.g08.bks.cpg/sg24_11_cif.got.tgz:20834.got - 2010.06.04 00:33:39.
