data_PCOD9335479
_publ_section_title
;
Structure prediction by ZEFSAII (Michael W. Deem and Ramdas Pophale) SiO2 
 PCOD9335479
Probable space group: I 21 21 21
;
_chemical_formula_sum "Si O2"
_cell_formula_units_Z 48
_cell_length_a 13.955301
_cell_length_b 26.980946
_cell_length_c 6.181447
_cell_angle_alpha 90.000000
_cell_angle_beta 90.000000
_cell_angle_gamma 90.000000
_cell_volume 2327.483071
_symmetry_space_group_name_H-M "I 21 21 21"
_symmetry_group_IT_number 24
_symmetry_cell_setting 'orthorhombic'
loop_
_space_group_symop_operation_xyz
x,y,z
-x,1/2-y,z
x,-y,1/2-z
1/2-x,y,-z
1/2+x,1/2+y,1/2+z
1/2-x,-y,1/2+z
1/2+x,1/2-y,-z
-x,1/2+y,1/2-z
loop_
_atom_site_type_symbol
_atom_site_label
_atom_site_fract_x
_atom_site_fract_y
_atom_site_fract_z
Si Si1 0.520286 0.946781 0.146121
Si Si2 0.500000 0.750000 0.064438
Si Si3 0.345587 0.792540 0.374144
Si Si4 0.483948 0.162180 0.765417
Si Si5 0.143673 0.595799 0.502696
Si Si6 0.346624 0.112630 0.421078
Si Si7 0.094187 0.500000 0.250000
O O1 0.601613 0.912799 0.255620
O O2 0.419656 0.922224 0.204254
O O3 0.526485 0.000000 0.250000
O O4 0.533827 0.962364 0.898646
O O5 0.406088 0.757299 0.214381
O O6 0.517075 0.796975 0.909099
O O7 0.250000 0.774803 0.500000
O O8 0.422777 0.810774 0.549745
O O9 0.318990 0.839982 0.224523
O O10 0.568972 0.130580 0.873569
O O11 0.409529 0.129589 0.626327
O O12 0.250000 0.617228 0.500000
O O13 0.149923 0.540487 0.394643
O O14 0.250000 0.087569 0.500000
#
# Coordination Sequence:
#
# PCOD9335479 Si02
#       7
#     8   4   8   8   8   8   4
#     4  10  22  41  61  95 136 172 220 279 333 393
#     4  10  26  42  72  96 132 172 222 286 346 414
#     4  11  22  43  72  96 125 174 221 275 343 411
#     4  11  22  45  66  96 135 171 221 286 333 407
#     4  11  24  40  69  95 132 184 227 275 339 403
#     4  11  21  39  68  95 123 176 223 267 333 405
#     4  10  22  40  62  94 138 178 226 282 326 396
#
# _framework density 20.623137
#
# number of rings (size 3 to 8) (size 9 to 14) (size 15 to 20)
#    0.000    1.333    5.000    0.500    3.500    0.000 
#    1.500    5.000    3.667    0.000    0.000    0.000 
#    0.000    0.000    0.000    0.000    0.000    0.000 
#
# Total GULP energy -133847.220681 kJ/mol
# GULP energy per Si atom -5576.967528 kJ/mol
# Density = 2.057620 g / cm^3
# Si number density = 20.623137 Si / 1000 Ang^3
#
#
#
# Elastic Constant Matrix: (Units=GPa)
#
#
# Indices 1 2 3 4 5 6 
#
# 1 146.9048 52.5723 45.5751 -0.0147 0.0024 -0.0080
# 2 52.5723 51.9653 35.2096 0.0181 -0.0009 0.0043
# 3 45.5751 35.2096 91.4636 0.0553 -0.0016 0.0322
# 4 -0.0147 0.0181 0.0553 -12.2897 -0.0069 0.0063
# 5 0.0024 -0.0009 -0.0016 -0.0069 31.4848 -0.0122
# 6 -0.0080 0.0043 0.0322 0.0063 -0.0122 4.4257
#
#
#
# Elastic Compliance Matrix: (Units=1/GPa)
#
#
# Indices 1 2 3 4 5 6 
#
# 1 0.010840 -0.009885 -0.001596 -0.000035 -0.000001 0.000041
# 2 -0.009885 0.035048 -0.008567 0.000025 0.000001 0.000010
# 3 -0.001596 -0.008567 0.015026 0.000057 0.000001 -0.000104
# 4 -0.000035 0.000025 0.000057 -0.081369 -0.000018 0.000116
# 5 -0.000001 0.000001 0.000001 -0.000018 0.031761 0.000087
# 6 0.000041 0.000010 -0.000104 0.000116 0.000087 0.225952
#
#
# Mechanical properties :
#
#
# Convention : Reuss Voigt Hill
#
# Bulk Modulus (GPa) = 48.03225 61.89419 54.96322
# Shear Modulus (GPa) = 17.58741 15.18928 16.38834
#
# Velocity S-wave (km/s) = 2.92344 2.71683 2.82203
# Velocity P-wave (km/s) = 5.89376 6.31813 6.10963
#
# Compressibility (1/GPa) = 0.02081935
#
# Stress axis : x y z
#
# Youngs Moduli (GPa) = 92.25279 28.53189 66.54967
#
# Poissons Ratio (x) = 0.28204 0.10621
# Poissons Ratio (y) = 0.91192 0.57011
# Poissons Ratio (z) = 0.14724 0.24442
#
# Static dielectric constant tensor:
#      x y z
#    x 1.714710 0.000000 0.000010 
#    y 0.000000 1.760450 0.000000 
#    z 0.000010 0.000000 1.848990 
# 
# From -- ./inp_files/3935.got.cif
#   From: 2010.05.17/outbox.cif.g08.bks.cpg/sg24_2_cif.got.tgz:3935.got - 2010.06.04 00:33:39.
