data_PCOD9335367
_publ_section_title
;
Structure prediction by ZEFSAII (Michael W. Deem and Ramdas Pophale) SiO2 
 PCOD9335367
Probable space group: I 21 21 21
;
_chemical_formula_sum "Si O2"
_cell_formula_units_Z 48
_cell_length_a 33.330155
_cell_length_b 8.725595
_cell_length_c 7.806634
_cell_angle_alpha 90.000000
_cell_angle_beta 90.000000
_cell_angle_gamma 90.000000
_cell_volume 2270.367720
_symmetry_space_group_name_H-M "I 21 21 21"
_symmetry_group_IT_number 24
_symmetry_cell_setting 'orthorhombic'
loop_
_space_group_symop_operation_xyz
x,y,z
-x,1/2-y,z
x,-y,1/2-z
1/2-x,y,-z
1/2+x,1/2+y,1/2+z
1/2-x,-y,1/2+z
1/2+x,1/2-y,-z
-x,1/2+y,1/2-z
loop_
_atom_site_type_symbol
_atom_site_label
_atom_site_fract_x
_atom_site_fract_y
_atom_site_fract_z
Si Si1 0.958799 0.823688 0.294825
Si Si2 0.458370 0.321768 0.207947
Si Si3 0.708054 0.179278 0.305875
Si Si4 0.876278 0.323125 0.795528
Si Si5 0.622643 0.322724 0.800485
Si Si6 0.710063 0.682784 0.802841
O O1 0.958790 0.804676 0.501213
O O2 0.917181 0.754361 0.225129
O O3 0.000000 0.750000 0.228536
O O4 0.959528 0.000000 0.250000
O O5 0.500000 0.250000 0.273426
O O6 0.457095 0.500000 0.250000
O O7 0.417944 0.242556 0.278316
O O8 0.664261 0.235093 0.249837
O O9 0.709881 0.251681 0.500544
O O10 0.748569 0.252205 0.225141
O O11 0.710288 0.000000 0.250000
O O12 0.871304 0.500000 0.750000
O O13 0.880503 0.312074 0.997583
O O14 0.622143 0.500000 0.750000
O O15 0.666582 0.258251 0.757540
O O16 0.710415 0.500000 0.750000
#
# Coordination Sequence:
#
# PCOD9335367 Si02
#       6
#     8   8   8   8   8   8
#     4  10  22  38  58  84 116 153 195 243 299 363
#     4  10  22  39  58  86 119 155 201 253 311 373
#     4  11  25  43  66  97 130 166 212 270 325 379
#     4  11  22  38  63  91 123 165 210 257 312 382
#     4  10  22  38  60  88 119 157 204 252 303 365
#     4  10  23  44  67  92 126 172 216 259 319 392
#
# _framework density 21.141949
#
# number of rings (size 3 to 8) (size 9 to 14) (size 15 to 20)
#    0.000    1.667    0.000    4.000    0.000   12.667 
#    0.000    0.000    0.000    0.000    0.000    0.000 
#    0.000    0.000    0.000    0.000    0.000    0.000 
#
# Total GULP energy -133728.310284 kJ/mol
# GULP energy per Si atom -5572.012928 kJ/mol
# Density = 2.109383 g / cm^3
# Si number density = 21.141949 Si / 1000 Ang^3
#
#
#
# Elastic Constant Matrix: (Units=GPa)
#
#
# Indices 1 2 3 4 5 6 
#
# 1 264.4736 103.0405 26.9064 0.0000 0.0000 0.0000
# 2 103.0405 140.7075 11.1804 0.0000 0.0000 0.0000
# 3 26.9064 11.1804 58.5689 0.0000 0.0000 0.0000
# 4 0.0000 0.0000 0.0000 26.1254 0.0000 0.0000
# 5 0.0000 0.0000 0.0000 0.0000 37.5029 0.0000
# 6 0.0000 0.0000 0.0000 0.0000 0.0000 54.0980
#
#
#
# Elastic Compliance Matrix: (Units=1/GPa)
#
#
# Indices 1 2 3 4 5 6 
#
# 1 0.005466 -0.003862 -0.001774 0.000000 0.000000 0.000000
# 2 -0.003862 0.009945 -0.000124 0.000000 0.000000 0.000000
# 3 -0.001774 -0.000124 0.017913 0.000000 0.000000 0.000000
# 4 0.000000 0.000000 0.000000 0.038277 0.000000 0.000000
# 5 0.000000 0.000000 0.000000 0.000000 0.026665 0.000000
# 6 0.000000 0.000000 0.000000 0.000000 0.000000 0.018485
#
#
# Mechanical properties :
#
#
# Convention : Reuss Voigt Hill
#
# Bulk Modulus (GPa) = 45.86438 82.88941 64.37690
# Shear Modulus (GPa) = 36.88994 45.05345 40.97169
#
# Velocity S-wave (km/s) = 4.18169 4.62128 4.40697
# Velocity P-wave (km/s) = 6.71238 8.23202 7.51074
#
# Compressibility (1/GPa) = 0.02180341
#
# Stress axis : x y z
#
# Youngs Moduli (GPa) = 182.94196 100.55361 55.82676
#
# Poissons Ratio (x) = 0.38833 0.09903
# Poissons Ratio (y) = 0.70652 0.00694
# Poissons Ratio (z) = 0.32453 0.01249
#
# Static dielectric constant tensor:
#      x y z
#    x 1.829470 0.000000 0.000000 
#    y 0.000000 1.721430 0.000000 
#    z 0.000000 0.000000 0.742620 
# 
# From -- ./inp_files/16842.got.cif
#   From: 2010.05.17/outbox.cif.g08.bks.cpg/sg24_9_cif.got.tgz:16842.got - 2010.06.04 00:33:39.
