data_PCOD9335063
_publ_section_title
;
Structure prediction by ZEFSAII (Michael W. Deem and Ramdas Pophale) SiO2 
 PCOD9335063
Probable space group: I 21 21 21
;
_chemical_formula_sum "Si O2"
_cell_formula_units_Z 40
_cell_length_a 25.351267
_cell_length_b 9.413274
_cell_length_c 8.288518
_cell_angle_alpha 90.000000
_cell_angle_beta 90.000000
_cell_angle_gamma 90.000000
_cell_volume 1977.958861
_symmetry_space_group_name_H-M "I 21 21 21"
_symmetry_group_IT_number 24
_symmetry_cell_setting 'orthorhombic'
loop_
_space_group_symop_operation_xyz
x,y,z
-x,1/2-y,z
x,-y,1/2-z
1/2-x,y,-z
1/2+x,1/2+y,1/2+z
1/2-x,-y,1/2+z
1/2+x,1/2-y,-z
-x,1/2+y,1/2-z
loop_
_atom_site_type_symbol
_atom_site_label
_atom_site_fract_x
_atom_site_fract_y
_atom_site_fract_z
Si Si1 0.555062 0.675586 0.923924
Si Si2 0.913537 0.642706 0.432758
Si Si3 0.233335 0.344072 0.685538
Si Si4 0.374889 0.827562 0.232993
Si Si5 0.707618 0.370932 0.862085
O O1 0.500000 0.750000 0.958931
O O2 0.571074 0.713871 0.738419
O O3 0.553154 0.503158 0.936162
O O4 0.596788 0.711507 0.064629
O O5 0.910431 0.715866 0.609392
O O6 0.851978 0.603429 0.411950
O O7 0.221610 0.500000 0.750000
O O8 0.250000 0.344591 0.500000
O O9 0.182551 0.245453 0.725137
O O10 0.283974 0.278397 0.775615
O O11 0.370434 0.000000 0.250000
O O12 0.722881 0.500000 0.750000
O O13 0.750000 0.372330 0.000000
#
# Coordination Sequence:
#
# PCOD9335063 Si02
#       5
#     8   8   8   8   8
#     4  10  21  40  64  95 127 164 219 292 337 376
#     4  10  21  40  67  95 130 165 228 269 327 405
#     4  12  26  40  59  93 144 181 216 267 338 406
#     4  10  22  43  68  97 127 171 229 279 323 403
#     4  12  22  37  70 102 132 176 221 270 328 403
#
# _framework density 20.222867000000001
#
# number of rings (size 3 to 8) (size 9 to 14) (size 15 to 20)
#    0.000    1.200    4.000    3.000    5.600    0.800 
#    0.000    7.000    4.400    0.000    0.000    0.000 
#    0.000    0.000    0.000    0.000    0.000    0.000 
#
# Total GULP energy -111535.217376 kJ/mol
# GULP energy per Si atom -5576.760869 kJ/mol
# Density = 2.017684 g / cm^3
# Si number density = 20.222867 Si / 1000 Ang^3
#
#
#
# Elastic Constant Matrix: (Units=GPa)
#
#
# Indices 1 2 3 4 5 6 
#
# 1 92.8553 47.6395 29.4734 0.0000 0.0000 0.0000
# 2 47.6395 60.7159 19.8834 0.0000 0.0000 0.0000
# 3 29.4734 19.8834 117.7726 0.0000 0.0000 0.0000
# 4 0.0000 0.0000 0.0000 11.6265 0.0000 0.0000
# 5 0.0000 0.0000 0.0000 0.0000 30.8220 0.0000
# 6 0.0000 0.0000 0.0000 0.0000 0.0000 31.2226
#
#
#
# Elastic Compliance Matrix: (Units=1/GPa)
#
#
# Indices 1 2 3 4 5 6 
#
# 1 0.018606 -0.013839 -0.002320 0.000000 0.000000 0.000000
# 2 -0.013839 0.027727 -0.001218 0.000000 0.000000 0.000000
# 3 -0.002320 -0.001218 0.009277 0.000000 0.000000 0.000000
# 4 0.000000 0.000000 0.000000 0.086011 0.000000 0.000000
# 5 0.000000 0.000000 0.000000 0.000000 0.032444 0.000000
# 6 0.000000 0.000000 0.000000 0.000000 0.000000 0.032028
#
#
# Mechanical properties :
#
#
# Convention : Reuss Voigt Hill
#
# Bulk Modulus (GPa) = 47.94550 51.70404 49.82477
# Shear Modulus (GPa) = 20.17762 26.35738 23.26750
#
# Velocity S-wave (km/s) = 3.16216 3.61410 3.39566
# Velocity P-wave (km/s) = 6.09035 6.56036 6.32972
#
# Compressibility (1/GPa) = 0.02085701
#
# Stress axis : x y z
#
# Youngs Moduli (GPa) = 53.74637 36.06534 107.79221
#
# Poissons Ratio (x) = 0.49911 0.25006
# Poissons Ratio (y) = 0.74380 0.13128
# Poissons Ratio (z) = 0.12468 0.04392
#
# Static dielectric constant tensor:
#      x y z
#    x 1.672390 0.000000 0.000000 
#    y 0.000000 1.702860 0.000000 
#    z 0.000000 0.000000 1.856070 
# 
# From -- ./inp_files/9227.got.cif
#   From: 2010.05.17/outbox.cif.g08.bks.cpg/sg24_5_cif.got.tgz:9227.got - 2010.06.04 00:33:39.
