data_PCOD9335701
_publ_section_title
;
Structure prediction by ZEFSAII (Michael W. Deem and Ramdas Pophale) SiO2 
 PCOD9335701
Probable space group: I 21 21 21
;
_chemical_formula_sum "Si O2"
_cell_formula_units_Z 56
_cell_length_a 13.796985
_cell_length_b 14.445447
_cell_length_c 12.063721
_cell_angle_alpha 90.000000
_cell_angle_beta 90.000000
_cell_angle_gamma 90.000000
_cell_volume 2404.343213
_symmetry_space_group_name_H-M "I 21 21 21"
_symmetry_group_IT_number 24
_symmetry_cell_setting 'orthorhombic'
loop_
_space_group_symop_operation_xyz
x,y,z
-x,1/2-y,z
x,-y,1/2-z
1/2-x,y,-z
1/2+x,1/2+y,1/2+z
1/2-x,-y,1/2+z
1/2+x,1/2-y,-z
-x,1/2+y,1/2-z
loop_
_atom_site_type_symbol
_atom_site_label
_atom_site_fract_x
_atom_site_fract_y
_atom_site_fract_z
Si Si1 0.260223 0.440978 0.639247
Si Si2 0.905869 0.685679 0.742912
Si Si3 0.060606 0.156781 0.225983
Si Si4 0.036769 0.551967 0.866540
Si Si5 0.715712 0.267136 0.626096
Si Si6 0.429363 0.430032 0.936420
Si Si7 0.638704 0.727649 0.500550
O O1 0.250792 0.500000 0.750000
O O2 0.147605 0.412065 0.612106
O O3 0.314555 0.341657 0.639006
O O4 0.327946 0.515357 0.575089
O O5 0.806958 0.724554 0.791861
O O6 0.884753 0.672345 0.612082
O O7 0.000000 0.750000 0.739086
O O8 0.944836 0.613854 0.834701
O O9 0.134860 0.160149 0.328972
O O10 0.000000 0.250000 0.243818
O O11 0.983168 0.081873 0.181417
O O12 0.121290 0.171241 0.112742
O O13 0.048138 0.500000 0.750000
O O14 0.014467 0.489514 0.972334
O O15 0.750000 0.282346 0.500000
O O16 0.416292 0.326240 0.985610
O O17 0.750000 0.755162 0.500000
#
# Coordination Sequence:
#
# PCOD9335701 Si02
#       7
#     8   8   8   8   8   8   8
#     4  11  23  41  69 110 150 187 235 306 375 427
#     4  12  24  41  68 107 148 196 239 297 370 446
#     4  10  22  43  70 107 142 189 247 304 357 434
#     4  11  22  39  67 104 148 182 228 303 374 429
#     4  12  26  46  69 102 149 200 245 294 366 450
#     4  11  23  40  69 110 145 185 248 309 366 423
#     4  11  20  38  72 108 145 189 250 303 358 428
#
# _framework density 23.291183
#
# number of rings (size 3 to 8) (size 9 to 14) (size 15 to 20)
#    0.000    0.857    2.857    6.857    2.000    0.571 
#    2.571    0.000    3.143    0.000    0.000    0.000 
#    0.000    0.000    0.000    0.000    0.000    0.000 
#
# Total GULP energy -155925.370224 kJ/mol
# GULP energy per Si atom -5568.763222 kJ/mol
# Density = 2.323817 g / cm^3
# Si number density = 23.291183 Si / 1000 Ang^3
#
#
#
# Elastic Constant Matrix: (Units=GPa)
#
#
# Indices 1 2 3 4 5 6 
#
# 1 87.1971 31.9630 51.6931 0.0000 0.0000 0.0000
# 2 31.9630 66.9511 33.3365 0.0000 0.0000 0.0000
# 3 51.6931 33.3365 137.0567 0.0000 0.0000 0.0000
# 4 0.0000 0.0000 0.0000 30.8026 0.0000 0.0000
# 5 0.0000 0.0000 0.0000 0.0000 -9.8599 0.0000
# 6 0.0000 0.0000 0.0000 0.0000 0.0000 7.0635
#
#
#
# Elastic Compliance Matrix: (Units=1/GPa)
#
#
# Indices 1 2 3 4 5 6 
#
# 1 0.016310 -0.005375 -0.004844 0.000000 0.000000 0.000000
# 2 -0.005375 0.018765 -0.002537 0.000000 0.000000 0.000000
# 3 -0.004844 -0.002537 0.009741 0.000000 0.000000 0.000000
# 4 0.000000 0.000000 0.000000 0.032465 0.000000 0.000000
# 5 0.000000 0.000000 0.000000 0.000000 -0.101421 0.000000
# 6 0.000000 0.000000 0.000000 0.000000 0.000000 0.141572
#
#
# Mechanical properties :
#
#
# Convention : Reuss Voigt Hill
#
# Bulk Modulus (GPa) = 51.80306 58.35446 55.07876
# Shear Modulus (GPa) = 33.47190 17.21540 25.34365
#
# Velocity S-wave (km/s) = 3.79503 2.72166 3.30225
# Velocity P-wave (km/s) = 6.44149 5.91484 6.18377
#
# Compressibility (1/GPa) = 0.01930388
#
# Stress axis : x y z
#
# Youngs Moduli (GPa) = 61.31101 53.28933 102.66364
#
# Poissons Ratio (x) = 0.28640 0.49735
# Poissons Ratio (y) = 0.32952 0.26049
# Poissons Ratio (z) = 0.29702 0.13521
#
# Static dielectric constant tensor:
#      x y z
#    x 1.923300 0.000000 0.000000 
#    y 0.000000 1.895370 0.000000 
#    z 0.000000 0.000000 1.935780 
# 
# From -- ./inp_files/20830.got.cif
#   From: 2010.05.17/outbox.cif.g08.bks.cpg/sg24_11_cif.got.tgz:20830.got - 2010.06.04 00:33:39.
