data_PCOD9335680
_publ_section_title
;
Structure prediction by ZEFSAII (Michael W. Deem and Ramdas Pophale) SiO2 
 PCOD9335680
Probable space group: I 21 21 21
;
_chemical_formula_sum "Si O2"
_cell_formula_units_Z 32
_cell_length_a 5.889636
_cell_length_b 12.260479
_cell_length_c 19.581822
_cell_angle_alpha 90.000000
_cell_angle_beta 90.000000
_cell_angle_gamma 90.000000
_cell_volume 1413.998638
_symmetry_space_group_name_H-M "I 21 21 21"
_symmetry_group_IT_number 24
_symmetry_cell_setting 'orthorhombic'
loop_
_space_group_symop_operation_xyz
x,y,z
-x,1/2-y,z
x,-y,1/2-z
1/2-x,y,-z
1/2+x,1/2+y,1/2+z
1/2-x,-y,1/2+z
1/2+x,1/2-y,-z
-x,1/2+y,1/2-z
loop_
_atom_site_type_symbol
_atom_site_label
_atom_site_fract_x
_atom_site_fract_y
_atom_site_fract_z
Si Si1 0.250000 0.909107 0.000000
Si Si2 0.481737 0.554450 0.394528
Si Si3 0.250000 0.311447 0.000000
Si Si4 0.742990 0.096490 0.710504
Si Si5 0.500000 0.250000 0.185336
Si Si6 0.000000 0.750000 0.103483
O O1 0.359979 0.828145 0.945661
O O2 0.093265 0.987691 0.955282
O O3 0.268133 0.613126 0.431801
O O4 0.428964 0.472505 0.332480
O O5 0.614634 0.657366 0.362041
O O6 0.500000 0.250000 0.997574
O O7 0.835602 0.181285 0.766058
O O8 0.626829 0.167450 0.653124
O O9 0.608813 0.000000 0.750000
#
# Coordination Sequence:
#
# PCOD9335680 Si02
#       6
#     4   8   4   8   4   4
#     4  12  25  41  72 104 142 192 245 307 378 440
#     4  11  23  43  69 102 137 186 240 301 367 444
#     4  12  25  45  72 112 148 194 239 311 380 434
#     4  10  23  42  63  93 132 182 239 290 364 434
#     4  10  22  43  66  93 140 186 230 312 352 442
#     4  12  24  43  64  99 138 190 242 310 364 444
#
# _framework density 22.630856999999999
#
# number of rings (size 3 to 8) (size 9 to 14) (size 15 to 20)
#    0.000    1.000    1.250    5.250    0.000    2.000 
#    9.000    0.000    0.000    0.000    0.000    0.000 
#    0.000    0.000    0.000    0.000    0.000    0.000 
#
# Total GULP energy -89257.351119 kJ/mol
# GULP energy per Si atom -5578.584445 kJ/mol
# Density = 2.257935 g / cm^3
# Si number density = 22.630857 Si / 1000 Ang^3
#
#
#
# Elastic Constant Matrix: (Units=GPa)
#
#
# Indices 1 2 3 4 5 6 
#
# 1 56.8942 62.0098 39.9039 0.0000 0.0000 0.0000
# 2 62.0098 202.0944 92.8292 0.0000 0.0000 0.0000
# 3 39.9039 92.8292 152.1331 0.0000 0.0000 0.0000
# 4 0.0000 0.0000 0.0000 77.9808 0.0000 0.0000
# 5 0.0000 0.0000 0.0000 0.0000 -114.2603 0.0000
# 6 0.0000 0.0000 0.0000 0.0000 0.0000 31.7784
#
#
#
# Elastic Compliance Matrix: (Units=1/GPa)
#
#
# Indices 1 2 3 4 5 6 
#
# 1 0.027266 -0.007060 -0.002844 0.000000 0.000000 0.000000
# 2 -0.007060 0.008703 -0.003459 0.000000 0.000000 0.000000
# 3 -0.002844 -0.003459 0.009430 0.000000 0.000000 0.000000
# 4 0.000000 0.000000 0.000000 0.012824 0.000000 0.000000
# 5 0.000000 0.000000 0.000000 0.000000 -0.008752 0.000000
# 6 0.000000 0.000000 0.000000 0.000000 0.000000 0.031468
#
#
# Mechanical properties :
#
#
# Convention : Reuss Voigt Hill
#
# Bulk Modulus (GPa) = 53.55179 88.95640 71.25410
# Shear Modulus (GPa) = 43.90302 13.52505 28.71404
#
# Velocity S-wave (km/s) = 4.40928 2.44731 3.56589
# Velocity P-wave (km/s) = 7.04534 6.88322 6.96475
#
# Compressibility (1/GPa) = 0.01867351
#
# Stress axis : x y z
#
# Youngs Moduli (GPa) = 36.67615 114.90166 106.04900
#
# Poissons Ratio (x) = 0.81118 0.30159
# Poissons Ratio (y) = 0.25893 0.36680
# Poissons Ratio (z) = 0.10430 0.39741
#
# Static dielectric constant tensor:
#      x y z
#    x 1.930770 0.000000 0.000000 
#    y 0.000000 1.943150 0.000000 
#    z 0.000000 0.000000 2.229790 
# 
# From -- ./inp_files/2075.got.cif
#   From: 2010.05.17/outbox.cif.g08.bks.cpg/sg24_2_cif.got.tgz:2075.got - 2010.06.04 00:33:39.
