data_PCOD9335383
_publ_section_title
;
Structure prediction by ZEFSAII (Michael W. Deem and Ramdas Pophale) SiO2 
 PCOD9335383
Probable space group: I 21 21 21
;
_chemical_formula_sum "Si O2"
_cell_formula_units_Z 36
_cell_length_a 5.521307
_cell_length_b 15.111941
_cell_length_c 20.744338
_cell_angle_alpha 90.000000
_cell_angle_beta 90.000000
_cell_angle_gamma 90.000000
_cell_volume 1730.859138
_symmetry_space_group_name_H-M "I 21 21 21"
_symmetry_group_IT_number 24
_symmetry_cell_setting 'orthorhombic'
loop_
_space_group_symop_operation_xyz
x,y,z
-x,1/2-y,z
x,-y,1/2-z
1/2-x,y,-z
1/2+x,1/2+y,1/2+z
1/2-x,-y,1/2+z
1/2+x,1/2-y,-z
-x,1/2+y,1/2-z
loop_
_atom_site_type_symbol
_atom_site_label
_atom_site_fract_x
_atom_site_fract_y
_atom_site_fract_z
Si Si1 0.594796 0.151652 0.158116
Si Si2 0.007356 0.453449 0.321604
Si Si3 0.008899 0.144074 0.696296
Si Si4 0.222986 0.074886 0.071230
Si Si5 0.500000 0.750000 0.610879
O O1 0.500000 0.250000 0.141583
O O2 0.502768 0.124375 0.227135
O O3 0.484342 0.086401 0.105900
O O4 0.871200 0.180495 0.159141
O O5 0.012580 0.500000 0.250000
O O6 0.771219 0.390572 0.324336
O O7 0.948246 0.519299 0.380995
O O8 0.265783 0.403811 0.329944
O O9 0.000000 0.250000 0.687836
O O10 0.125447 0.176273 0.066278
O O11 0.250000 0.037073 0.000000
#
# Coordination Sequence:
#
# PCOD9335383 Si02
#       5
#     8   8   8   8   4
#     4   9  20  37  60  93 127 175 217 264 318 398
#     4  12  24  43  67 101 140 173 223 284 335 391
#     4  11  24  42  71  98 132 176 227 282 342 395
#     4  11  25  40  62  96 139 182 220 267 334 407
#     4  10  22  38  62  90 138 182 218 254 324 418
#
# _framework density 20.798919000000001
#
# number of rings (size 3 to 8) (size 9 to 14) (size 15 to 20)
#    0.000    1.333    2.222    2.667   14.000    0.000 
#    0.000    0.000    0.000    2.667    0.000    0.000 
#    0.000    0.000    0.000    0.000    0.000    0.000 
#
# Total GULP energy -100208.118315 kJ/mol
# GULP energy per Si atom -5567.117684 kJ/mol
# Density = 2.075158 g / cm^3
# Si number density = 20.798919 Si / 1000 Ang^3
#
#
#
# Elastic Constant Matrix: (Units=GPa)
#
#
# Indices 1 2 3 4 5 6 
#
# 1 107.8365 69.8898 15.7809 0.0000 0.0000 0.0000
# 2 69.8898 93.7573 55.3009 0.0000 0.0000 0.0000
# 3 15.7809 55.3009 95.5068 0.0000 0.0000 0.0000
# 4 0.0000 0.0000 0.0000 21.9360 0.0000 0.0000
# 5 0.0000 0.0000 0.0000 0.0000 13.9742 0.0000
# 6 0.0000 0.0000 0.0000 0.0000 0.0000 24.6044
#
#
#
# Elastic Compliance Matrix: (Units=1/GPa)
#
#
# Indices 1 2 3 4 5 6 
#
# 1 0.022004 -0.021654 0.008902 0.000000 0.000000 0.000000
# 2 -0.021654 0.037506 -0.018139 0.000000 0.000000 0.000000
# 3 0.008902 -0.018139 0.019503 0.000000 0.000000 0.000000
# 4 0.000000 0.000000 0.000000 0.045587 0.000000 0.000000
# 5 0.000000 0.000000 0.000000 0.000000 0.071560 0.000000
# 6 0.000000 0.000000 0.000000 0.000000 0.000000 0.040643
#
#
# Mechanical properties :
#
#
# Convention : Reuss Voigt Hill
#
# Bulk Modulus (GPa) = 58.03172 64.33819 61.18496
# Shear Modulus (GPa) = 16.42959 22.51153 19.47056
#
# Velocity S-wave (km/s) = 2.81361 3.29346 3.06295
# Velocity P-wave (km/s) = 6.20621 6.74264 6.47998
#
# Compressibility (1/GPa) = 0.01723195
#
# Stress axis : x y z
#
# Youngs Moduli (GPa) = 45.44539 26.66231 51.27532
#
# Poissons Ratio (x) = 0.57733 -0.45646
# Poissons Ratio (y) = 0.98406 0.93009
# Poissons Ratio (z) = -0.40456 0.48363
#
# Static dielectric constant tensor:
#      x y z
#    x 2.356830 0.000000 0.000000 
#    y 0.000000 1.791040 0.000000 
#    z 0.000000 0.000000 1.736840 
# 
# From -- ./inp_files/3334.got.cif
#   From: 2010.05.17/outbox.cif.g08.bks.cpg/sg24_2_cif.got.tgz:3334.got - 2010.06.04 00:33:39.
