data_PCOD9335411
_publ_section_title
;
Structure prediction by ZEFSAII (Michael W. Deem and Ramdas Pophale) SiO2 
 PCOD9335411
Probable space group: I 21 21 21
;
_chemical_formula_sum "Si O2"
_cell_formula_units_Z 48
_cell_length_a 13.626871
_cell_length_b 9.556498
_cell_length_c 16.773974
_cell_angle_alpha 90.000000
_cell_angle_beta 90.000000
_cell_angle_gamma 90.000000
_cell_volume 2184.393540
_symmetry_space_group_name_H-M "I 21 21 21"
_symmetry_group_IT_number 24
_symmetry_cell_setting 'orthorhombic'
loop_
_space_group_symop_operation_xyz
x,y,z
-x,1/2-y,z
x,-y,1/2-z
1/2-x,y,-z
1/2+x,1/2+y,1/2+z
1/2-x,-y,1/2+z
1/2+x,1/2-y,-z
-x,1/2+y,1/2-z
loop_
_atom_site_type_symbol
_atom_site_label
_atom_site_fract_x
_atom_site_fract_y
_atom_site_fract_z
Si Si1 0.000000 0.250000 0.676021
Si Si2 0.804080 0.498625 0.926332
Si Si3 0.000000 0.250000 0.026578
Si Si4 0.279812 0.209742 0.293296
Si Si5 0.190798 0.748856 0.376577
Si Si6 0.813872 0.923509 0.079898
Si Si7 0.528137 0.039262 0.462459
O O1 0.100791 0.216697 0.724208
O O2 0.047321 0.368362 0.616467
O O3 0.774016 0.567690 0.843702
O O4 0.776458 0.336574 0.919698
O O5 0.750000 0.567650 0.000000
O O6 0.912946 0.531552 0.950749
O O7 0.087833 0.198367 0.085099
O O8 0.951920 0.126918 0.973212
O O9 0.213424 0.221237 0.215480
O O10 0.233302 0.324229 0.353951
O O11 0.191694 0.582716 0.389040
O O12 0.750000 0.916813 0.000000
O O13 0.922355 0.896162 0.041841
#
# Coordination Sequence:
#
# PCOD9335411 Si02
#       7
#     4   8   4   8   8   8   8
#     4  10  22  42  64  94 124 166 218 260 322 380
#     4  11  22  42  66  94 125 168 216 265 315 380
#     4  10  22  42  64  94 124 166 218 260 322 380
#     4  11  24  43  63  95 132 168 208 268 328 384
#     4  11  24  43  63  95 132 168 208 268 328 384
#     4  11  22  42  66  94 125 168 216 265 315 380
#     4  10  22  38  68  94 122 162 220 268 308 382
#
# _framework density 21.974063000000001
#
# number of rings (size 3 to 8) (size 9 to 14) (size 15 to 20)
#    0.000    1.333    3.333    2.000    4.667    0.000 
#    6.000    3.333    0.000    0.000    0.000    0.000 
#    0.000    0.000    0.000    0.000    0.000    0.000 
#
# Total GULP energy -133607.719305 kJ/mol
# GULP energy per Si atom -5566.988304 kJ/mol
# Density = 2.192405 g / cm^3
# Si number density = 21.974063 Si / 1000 Ang^3
#
#
#
# Elastic Constant Matrix: (Units=GPa)
#
#
# Indices 1 2 3 4 5 6 
#
# 1 65.8575 24.0706 28.8363 0.0000 0.0000 0.0000
# 2 24.0706 78.4041 20.2406 0.0000 0.0000 0.0000
# 3 28.8363 20.2406 100.6145 0.0000 0.0000 0.0000
# 4 0.0000 0.0000 0.0000 24.8519 0.0000 0.0000
# 5 0.0000 0.0000 0.0000 0.0000 15.3969 0.0000
# 6 0.0000 0.0000 0.0000 0.0000 0.0000 24.8889
#
#
#
# Elastic Compliance Matrix: (Units=1/GPa)
#
#
# Indices 1 2 3 4 5 6 
#
# 1 0.018831 -0.004628 -0.004466 0.000000 0.000000 0.000000
# 2 -0.004628 0.014591 -0.001609 0.000000 0.000000 0.000000
# 3 -0.004466 -0.001609 0.011543 0.000000 0.000000 0.000000
# 4 0.000000 0.000000 0.000000 0.040238 0.000000 0.000000
# 5 0.000000 0.000000 0.000000 0.000000 0.064948 0.000000
# 6 0.000000 0.000000 0.000000 0.000000 0.000000 0.040179
#
#
# Mechanical properties :
#
#
# Convention : Reuss Voigt Hill
#
# Bulk Modulus (GPa) = 42.44781 43.46346 42.95564
# Shear Modulus (GPa) = 22.76982 24.47610 23.62296
#
# Velocity S-wave (km/s) = 3.22252 3.34108 3.28233
# Velocity P-wave (km/s) = 5.76241 5.89119 5.82716
#
# Compressibility (1/GPa) = 0.02355834
#
# Stress axis : x y z
#
# Youngs Moduli (GPa) = 53.10261 68.53677 86.63622
#
# Poissons Ratio (x) = 0.31722 0.38692
# Poissons Ratio (y) = 0.24578 0.13937
# Poissons Ratio (z) = 0.23716 0.11025
#
# Static dielectric constant tensor:
#      x y z
#    x 1.444280 0.000000 0.000000 
#    y 0.000000 1.994340 0.000000 
#    z 0.000000 0.000000 0.791970 
# 
# From -- ./inp_files/30765.got.cif
#   From: 2010.05.17/outbox.cif.g08.bks.cpg/sg24_16_cif.got.tgz:30765.got - 2010.06.04 00:33:39.
