data_PCOD9335154
_publ_section_title
;
Structure prediction by ZEFSAII (Michael W. Deem and Ramdas Pophale) SiO2 
 PCOD9335154
Probable space group: I 21 21 21
;
_chemical_formula_sum "Si O2"
_cell_formula_units_Z 64
_cell_length_a 14.950948
_cell_length_b 14.855184
_cell_length_c 12.081622
_cell_angle_alpha 90.000000
_cell_angle_beta 90.000000
_cell_angle_gamma 90.000000
_cell_volume 2683.317174
_symmetry_space_group_name_H-M "I 21 21 21"
_symmetry_group_IT_number 24
_symmetry_cell_setting 'orthorhombic'
loop_
_space_group_symop_operation_xyz
x,y,z
-x,1/2-y,z
x,-y,1/2-z
1/2-x,y,-z
1/2+x,1/2+y,1/2+z
1/2-x,-y,1/2+z
1/2+x,1/2-y,-z
-x,1/2+y,1/2-z
loop_
_atom_site_type_symbol
_atom_site_label
_atom_site_fract_x
_atom_site_fract_y
_atom_site_fract_z
Si Si1 0.990038 0.967946 0.626625
Si Si2 0.623234 0.211517 0.105898
Si Si3 0.455436 0.347441 0.697655
Si Si4 0.676406 0.230513 0.866069
Si Si5 0.650099 0.896057 0.025022
Si Si6 0.347985 0.053955 0.481930
Si Si7 0.142730 0.902300 0.227375
Si Si8 0.897191 0.724505 0.844281
O O1 0.910107 0.035306 0.593549
O O2 0.073678 0.983792 0.544327
O O3 0.016990 0.000000 0.750000
O O4 0.945960 0.870048 0.617567
O O5 0.727435 0.185280 0.119175
O O6 0.606913 0.274137 0.211774
O O7 0.625811 0.249777 0.981622
O O8 0.500000 0.250000 0.673638
O O9 0.383130 0.333748 0.792106
O O10 0.406184 0.380024 0.587493
O O11 0.536823 0.402545 0.750570
O O12 0.686078 0.323282 0.797604
O O13 0.658029 0.804581 0.097468
O O14 0.750000 0.928520 0.000000
O O15 0.250000 0.012126 0.500000
O O16 0.358242 0.109886 0.595568
O O17 0.360672 0.130257 0.388977
O O18 0.183020 0.000000 0.250000
O O19 0.000000 0.750000 0.875392
#
# Coordination Sequence:
#
# PCOD9335154 Si02
#       8
#     8   8   8   8   8   8   8   8
#     4  12  26  49  70 118 162 203 265 333 406 483
#     4  11  25  46  73 108 153 203 257 316 410 489
#     4  10  21  41  69 103 147 196 254 313 381 463
#     4  10  24  46  72 108 154 203 257 317 397 496
#     4  12  23  39  71 110 154 203 260 326 390 462
#     4  12  26  48  79 109 150 203 265 330 396 475
#     4  11  24  47  72 108 151 192 258 327 391 457
#     4  12  21  43  72 107 147 204 266 322 394 478
#
# _framework density 23.851075999999999
#
# number of rings (size 3 to 8) (size 9 to 14) (size 15 to 20)
#    0.000    0.750    3.750    3.750    3.500    2.000 
#    4.500    0.000    0.000    0.000    0.000    0.000 
#    0.000    0.000    0.000    0.000    0.000    0.000 
#
# Total GULP energy -179061.622227 kJ/mol
# GULP energy per Si atom -5595.675695 kJ/mol
# Density = 2.379679 g / cm^3
# Si number density = 23.851076 Si / 1000 Ang^3
#
#
#
# Elastic Constant Matrix: (Units=GPa)
#
#
# Indices 1 2 3 4 5 6 
#
# 1 135.2956 32.0490 19.8074 0.0000 0.0000 0.0000
# 2 32.0490 71.5777 34.0175 0.0000 0.0000 0.0000
# 3 19.8074 34.0175 147.2321 0.0000 0.0000 0.0000
# 4 0.0000 0.0000 0.0000 27.7171 0.0000 0.0000
# 5 0.0000 0.0000 0.0000 0.0000 31.4323 0.0000
# 6 0.0000 0.0000 0.0000 0.0000 0.0000 12.1275
#
#
#
# Elastic Compliance Matrix: (Units=1/GPa)
#
#
# Indices 1 2 3 4 5 6 
#
# 1 0.008279 -0.003570 -0.000289 0.000000 0.000000 0.000000
# 2 -0.003570 0.017233 -0.003501 0.000000 0.000000 0.000000
# 3 -0.000289 -0.003501 0.007640 0.000000 0.000000 0.000000
# 4 0.000000 0.000000 0.000000 0.036079 0.000000 0.000000
# 5 0.000000 0.000000 0.000000 0.000000 0.031814 0.000000
# 6 0.000000 0.000000 0.000000 0.000000 0.000000 0.082457
#
#
# Mechanical properties :
#
#
# Convention : Reuss Voigt Hill
#
# Bulk Modulus (GPa) = 54.25355 58.42812 56.34084
# Shear Modulus (GPa) = 24.46584 32.13749 28.30167
#
# Velocity S-wave (km/s) = 3.20625 3.67471 3.44844
# Velocity P-wave (km/s) = 6.04176 6.52341 6.28720
#
# Compressibility (1/GPa) = 0.01843197
#
# Stress axis : x y z
#
# Youngs Moduli (GPa) = 120.78591 58.02750 130.89200
#
# Poissons Ratio (x) = 0.20714 0.03784
# Poissons Ratio (y) = 0.43116 0.45831
# Poissons Ratio (z) = 0.03491 0.20318
#
# Static dielectric constant tensor:
#      x y z
#    x 1.951790 0.000000 0.000000 
#    y 0.000000 1.922190 0.000000 
#    z 0.000000 0.000000 1.942940 
# 
# From -- ./inp_files/21076.got.cif
#   From: 2010.05.17/outbox.cif.g08.bks.cpg/sg24_11_cif.got.tgz:21076.got - 2010.06.04 00:33:39.
