data_PCOD9335071
_publ_section_title
;
Structure prediction by ZEFSAII (Michael W. Deem and Ramdas Pophale) SiO2 
 PCOD9335071
Probable space group: I 21 21 21
;
_chemical_formula_sum "Si O2"
_cell_formula_units_Z 32
_cell_length_a 27.022579
_cell_length_b 5.139610
_cell_length_c 11.619360
_cell_angle_alpha 90.000000
_cell_angle_beta 90.000000
_cell_angle_gamma 90.000000
_cell_volume 1613.760824
_symmetry_space_group_name_H-M "I 21 21 21"
_symmetry_group_IT_number 24
_symmetry_cell_setting 'orthorhombic'
loop_
_space_group_symop_operation_xyz
x,y,z
-x,1/2-y,z
x,-y,1/2-z
1/2-x,y,-z
1/2+x,1/2+y,1/2+z
1/2-x,-y,1/2+z
1/2+x,1/2-y,-z
-x,1/2+y,1/2-z
loop_
_atom_site_type_symbol
_atom_site_label
_atom_site_fract_x
_atom_site_fract_y
_atom_site_fract_z
Si Si1 0.324011 0.031923 0.118996
Si Si2 0.142658 0.521197 0.018287
Si Si3 0.762875 0.879395 0.371689
Si Si4 0.467719 0.501498 0.888437
O O1 0.348200 0.298433 0.075654
O O2 0.264817 0.100612 0.121653
O O3 0.339466 0.000000 0.250000
O O4 0.340290 0.796793 0.036418
O O5 0.178364 0.418095 0.121454
O O6 0.086201 0.520890 0.056537
O O7 0.750000 0.994227 0.500000
O O8 0.745260 0.000000 0.250000
O O9 0.500000 0.250000 0.920524
O O10 0.461510 0.500000 0.750000
O O11 0.500000 0.750000 0.920568
#
# Coordination Sequence:
#
# PCOD9335071 Si02
#       4
#     8   8   8   8
#     4  11  23  40  60  87 125 167 204 247 304 366
#     4  11  23  40  63  90 121 162 207 253 305 370
#     4  10  22  38  59  89 126 165 206 248 299 366
#     4  10  21  40  65  92 121 154 198 258 321 372
#
# _framework density 19.829457999999999
#
# number of rings (size 3 to 8) (size 9 to 14) (size 15 to 20)
#    0.000    1.500    0.000    6.000    0.000   15.000 
#    0.000    8.750    0.000   15.000    0.000    0.000 
#    0.000    0.000    0.000    0.000    0.000    0.000 
#
# Total GULP energy -89139.139356 kJ/mol
# GULP energy per Si atom -5571.196210 kJ/mol
# Density = 1.978433 g / cm^3
# Si number density = 19.829458 Si / 1000 Ang^3
#
#
#
# Elastic Constant Matrix: (Units=GPa)
#
#
# Indices 1 2 3 4 5 6 
#
# 1 171.5866 80.8466 44.2290 0.0000 0.0000 0.0000
# 2 80.8466 154.0741 40.7536 0.0000 0.0000 0.0000
# 3 44.2290 40.7536 108.0029 0.0000 0.0000 0.0000
# 4 0.0000 0.0000 0.0000 -14.7347 0.0000 0.0000
# 5 0.0000 0.0000 0.0000 0.0000 17.2318 0.0000
# 6 0.0000 0.0000 0.0000 0.0000 0.0000 21.1098
#
#
#
# Elastic Compliance Matrix: (Units=1/GPa)
#
#
# Indices 1 2 3 4 5 6 
#
# 1 0.008078 -0.003737 -0.001898 0.000000 0.000000 0.000000
# 2 -0.003737 0.008938 -0.001843 0.000000 0.000000 0.000000
# 3 -0.001898 -0.001843 0.010732 0.000000 0.000000 0.000000
# 4 0.000000 0.000000 0.000000 -0.067867 0.000000 0.000000
# 5 0.000000 0.000000 0.000000 0.000000 0.058032 0.000000
# 6 0.000000 0.000000 0.000000 0.000000 0.000000 0.047371
#
#
# Mechanical properties :
#
#
# Convention : Reuss Voigt Hill
#
# Bulk Modulus (GPa) = 78.16569 85.03576 81.60073
# Shear Modulus (GPa) = 59.16935 22.57701 40.87318
#
# Velocity S-wave (km/s) = 5.46845 3.37791 4.54501
# Velocity P-wave (km/s) = 8.90934 7.62826 8.29358
#
# Compressibility (1/GPa) = 0.01279334
#
# Stress axis : x y z
#
# Youngs Moduli (GPa) = 123.79657 111.87629 93.18296
#
# Poissons Ratio (x) = 0.41803 0.17686
# Poissons Ratio (y) = 0.46257 0.17170
# Poissons Ratio (z) = 0.23497 0.20615
#
# Static dielectric constant tensor:
#      x y z
#    x 1.766150 0.000000 0.000000 
#    y 0.000000 1.721810 0.000000 
#    z 0.000000 0.000000 1.739520 
# 
# From -- ./inp_files/2413.got.cif
#   From: 2010.05.17/outbox.cif.g08.bks.cpg/sg24_2_cif.got.tgz:2413.got - 2010.06.04 00:33:39.
