data_PCOD9335765
_publ_section_title
;
Structure prediction by ZEFSAII (Michael W. Deem and Ramdas Pophale) SiO2 
 PCOD9335765
Probable space group: I 21 21 21
;
_chemical_formula_sum "Si O2"
_cell_formula_units_Z 40
_cell_length_a 4.987580
_cell_length_b 28.530756
_cell_length_c 12.351522
_cell_angle_alpha 90.000000
_cell_angle_beta 90.000000
_cell_angle_gamma 90.000000
_cell_volume 1757.614516
_symmetry_space_group_name_H-M "I 21 21 21"
_symmetry_group_IT_number 24
_symmetry_cell_setting 'orthorhombic'
loop_
_space_group_symop_operation_xyz
x,y,z
-x,1/2-y,z
x,-y,1/2-z
1/2-x,y,-z
1/2+x,1/2+y,1/2+z
1/2-x,-y,1/2+z
1/2+x,1/2-y,-z
-x,1/2+y,1/2-z
loop_
_atom_site_type_symbol
_atom_site_label
_atom_site_fract_x
_atom_site_fract_y
_atom_site_fract_z
Si Si1 0.250000 0.715849 0.000000
Si Si2 0.977664 0.552992 0.211820
Si Si3 0.829097 0.798199 0.757045
Si Si4 0.466877 0.398623 0.208618
Si Si5 0.000000 0.750000 0.420091
Si Si6 0.750000 0.484315 0.500000
Si Si7 0.250000 0.554301 0.500000
O O1 0.500000 0.750000 0.004973
O O2 0.266931 0.692209 0.881002
O O3 0.041009 0.500000 0.250000
O O4 0.755055 0.576648 0.288827
O O5 0.255686 0.580615 0.203578
O O6 0.816702 0.547994 0.101114
O O7 0.996236 0.843498 0.723107
O O8 0.603820 0.789622 0.664730
O O9 0.000000 0.750000 0.757132
O O10 0.303435 0.412500 0.101488
O O11 0.250000 0.761795 0.500000
O O12 0.498294 0.518861 0.493849
#
# Coordination Sequence:
#
# PCOD9335765 Si02
#       7
#     4   8   8   8   4   4   4
#     4  10  22  44  74  98 138 190 244 298 368 424
#     4  12  24  46  66 102 137 180 232 297 351 429
#     4  11  27  49  75 109 149 199 246 313 369 434
#     4  12  27  42  73 106 142 186 243 288 365 437
#     4  12  26  46  72 106 152 198 244 304 370 434
#     4  12  24  42  75  93 144 183 228 295 368 412
#     4  12  22  42  67 105 132 193 230 281 360 446
#
# _framework density 22.758116999999999
#
# number of rings (size 3 to 8) (size 9 to 14) (size 15 to 20)
#    0.000    0.400    6.000    1.800    4.200    1.600 
#    1.800    1.000    0.000    0.000    0.000    0.000 
#    0.000    0.000    0.000    0.000    0.000    0.000 
#
# Total GULP energy -111709.778605 kJ/mol
# GULP energy per Si atom -5585.488930 kJ/mol
# Density = 2.270632 g / cm^3
# Si number density = 22.758117 Si / 1000 Ang^3
#
#
#
# Elastic Constant Matrix: (Units=GPa)
#
#
# Indices 1 2 3 4 5 6 
#
# 1 138.4538 38.3572 9.5900 0.0000 0.0000 0.0000
# 2 38.3572 116.5263 0.4681 0.0000 0.0000 0.0000
# 3 9.5900 0.4681 115.3189 0.0000 -0.0001 0.0000
# 4 0.0000 0.0000 0.0000 8.3472 0.0000 0.0000
# 5 0.0000 0.0000 -0.0001 0.0000 54.3620 0.0000
# 6 0.0000 0.0000 0.0000 0.0000 0.0000 21.0997
#
#
#
# Elastic Compliance Matrix: (Units=1/GPa)
#
#
# Indices 1 2 3 4 5 6 
#
# 1 0.007996 -0.002630 -0.000654 0.000000 0.000000 0.000000
# 2 -0.002630 0.009447 0.000180 0.000000 0.000000 0.000000
# 3 -0.000654 0.000180 0.008725 0.000000 0.000000 0.000000
# 4 0.000000 0.000000 0.000000 0.119801 0.000000 0.000000
# 5 0.000000 0.000000 0.000000 0.000000 0.018395 0.000000
# 6 0.000000 0.000000 0.000000 0.000000 0.000000 0.047394
#
#
# Mechanical properties :
#
#
# Convention : Reuss Voigt Hill
#
# Bulk Modulus (GPa) = 50.09716 51.90331 51.00024
# Shear Modulus (GPa) = 22.25985 38.22068 30.24026
#
# Velocity S-wave (km/s) = 3.13086 4.10253 3.64918
# Velocity P-wave (km/s) = 5.92709 6.73031 6.34143
#
# Compressibility (1/GPa) = 0.01996121
#
# Stress axis : x y z
#
# Youngs Moduli (GPa) = 125.05557 105.85807 114.60939
#
# Poissons Ratio (x) = 0.27836 0.07499
# Poissons Ratio (y) = 0.32884 -0.02067
# Poissons Ratio (z) = 0.08183 -0.01909
#
# Static dielectric constant tensor:
#      x y z
#    x 1.834960 0.000000 0.000000 
#    y 0.000000 1.726000 0.000000 
#    z 0.000000 0.000000 1.960970 
# 
# From -- ./inp_files/17662.got.cif
#   From: 2010.05.17/outbox.cif.g08.bks.cpg/sg24_9_cif.got.tgz:17662.got - 2010.06.04 00:33:39.
