data_PCOD9335731
_publ_section_title
;
Structure prediction by ZEFSAII (Michael W. Deem and Ramdas Pophale) SiO2 
 PCOD9335731
Probable space group: I 21 21 21
;
_chemical_formula_sum "Si O2"
_cell_formula_units_Z 60
_cell_length_a 13.479043
_cell_length_b 9.205390
_cell_length_c 23.712854
_cell_angle_alpha 90.000000
_cell_angle_beta 90.000000
_cell_angle_gamma 90.000000
_cell_volume 2942.287311
_symmetry_space_group_name_H-M "I 21 21 21"
_symmetry_group_IT_number 24
_symmetry_cell_setting 'orthorhombic'
loop_
_space_group_symop_operation_xyz
x,y,z
-x,1/2-y,z
x,-y,1/2-z
1/2-x,y,-z
1/2+x,1/2+y,1/2+z
1/2-x,-y,1/2+z
1/2+x,1/2-y,-z
-x,1/2+y,1/2-z
loop_
_atom_site_type_symbol
_atom_site_label
_atom_site_fract_x
_atom_site_fract_y
_atom_site_fract_z
Si Si1 0.674291 0.178410 0.245569
Si Si2 0.855519 0.715630 0.871137
Si Si3 0.039099 0.471429 0.584099
Si Si4 0.000000 0.250000 0.838655
Si Si5 0.599799 0.846149 0.895499
Si Si6 0.998267 0.921640 0.457513
Si Si7 0.605149 0.834768 0.766072
Si Si8 0.805767 0.593638 0.056932
O O1 0.644505 0.247712 0.305616
O O2 0.597723 0.249546 0.201293
O O3 0.792012 0.209552 0.234761
O O4 0.663175 0.000000 0.250000
O O5 0.864012 0.873332 0.902318
O O6 0.765742 0.611229 0.889876
O O7 0.948680 0.626577 0.894072
O O8 0.025668 0.615496 0.620829
O O9 0.025562 0.510599 0.518732
O O10 0.500000 0.750000 0.891956
O O11 0.638648 0.835679 0.832038
O O12 0.654946 0.759281 0.944891
O O13 0.579030 0.009394 0.913649
O O14 0.000000 0.750000 0.460190
O O15 0.104235 0.983544 0.437489
O O16 0.500000 0.750000 0.758874
O O17 0.583102 0.000000 0.750000
O O18 0.750000 0.556290 0.000000
#
# Coordination Sequence:
#
# PCOD9335731 Si02
#       8
#     8   8   8   4   8   8   8   8
#     4  11  23  42  66  98 137 180 227 286 348 411
#     4  11  22  39  67  96 126 176 232 272 327 417
#     4  11  23  40  65  96 137 180 221 274 345 418
#     4  12  24  42  64 102 150 178 218 284 358 418
#     4   9  20  38  62  89 118 166 221 273 326 397
#     4  11  23  40  62  95 137 173 214 286 352 403
#     4  10  22  44  67  90 126 171 228 283 338 405
#     4  11  20  38  65  94 124 166 227 274 323 411
#
# _framework density 20.392299000000001
#
# number of rings (size 3 to 8) (size 9 to 14) (size 15 to 20)
#    0.000    1.333    4.667    1.600    3.733    0.533 
#    2.400    6.000    0.000    0.000    0.000    0.000 
#    0.000    0.000    0.000    0.000    0.000    0.000 
#
# Total GULP energy -167127.665092 kJ/mol
# GULP energy per Si atom -5570.922170 kJ/mol
# Density = 2.034589 g / cm^3
# Si number density = 20.392299 Si / 1000 Ang^3
#
#
#
# Elastic Constant Matrix: (Units=GPa)
#
#
# Indices 1 2 3 4 5 6 
#
# 1 89.9513 26.7579 25.8029 0.0000 0.0000 0.0000
# 2 26.7579 76.6376 14.1376 0.0000 0.0000 0.0000
# 3 25.8029 14.1376 59.4490 0.0000 0.0000 0.0000
# 4 0.0000 0.0000 0.0000 19.1276 0.0000 0.0000
# 5 0.0000 0.0000 0.0000 0.0000 21.4862 0.0000
# 6 0.0000 0.0000 0.0000 0.0000 0.0000 24.5536
#
#
#
# Elastic Compliance Matrix: (Units=1/GPa)
#
#
# Indices 1 2 3 4 5 6 
#
# 1 0.013708 -0.003858 -0.005032 0.000000 0.000000 0.000000
# 2 -0.003858 0.014733 -0.001829 0.000000 0.000000 0.000000
# 3 -0.005032 -0.001829 0.019440 0.000000 0.000000 0.000000
# 4 0.000000 0.000000 0.000000 0.052280 0.000000 0.000000
# 5 0.000000 0.000000 0.000000 0.000000 0.046542 0.000000
# 6 0.000000 0.000000 0.000000 0.000000 0.000000 0.040727
#
#
# Mechanical properties :
#
#
# Convention : Reuss Voigt Hill
#
# Bulk Modulus (GPa) = 37.81782 39.93718 38.87750
# Shear Modulus (GPa) = 22.96908 23.65610 23.31259
#
# Velocity S-wave (km/s) = 3.35977 3.40965 3.38480
# Velocity P-wave (km/s) = 5.79967 5.92688 5.86362
#
# Compressibility (1/GPa) = 0.02644256
#
# Stress axis : x y z
#
# Youngs Moduli (GPa) = 72.94843 67.87560 51.43928
#
# Poissons Ratio (x) = 0.26186 0.25886
# Poissons Ratio (y) = 0.28143 0.09409
# Poissons Ratio (z) = 0.36711 0.12416
#
# Static dielectric constant tensor:
#      x y z
#    x 1.861040 0.000000 0.000000 
#    y 0.000000 1.676400 0.000000 
#    z 0.000000 0.000000 1.719890 
# 
# From -- ./inp_files/35832.got.cif
#   From: 2010.05.17/outbox.cif.g08.bks.cpg/sg24_18_cif.got.tgz:35832.got - 2010.06.04 00:33:39.
