data_PCOD9335256
_publ_section_title
;
Structure prediction by ZEFSAII (Michael W. Deem and Ramdas Pophale) SiO2 
 PCOD9335256
Probable space group: I 21 21 21
;
_chemical_formula_sum "Si O2"
_cell_formula_units_Z 40
_cell_length_a 21.384568
_cell_length_b 8.116361
_cell_length_c 8.932076
_cell_angle_alpha 90.000000
_cell_angle_beta 90.000000
_cell_angle_gamma 90.000000
_cell_volume 1550.294643
_symmetry_space_group_name_H-M "I 21 21 21"
_symmetry_group_IT_number 24
_symmetry_cell_setting 'orthorhombic'
loop_
_space_group_symop_operation_xyz
x,y,z
-x,1/2-y,z
x,-y,1/2-z
1/2-x,y,-z
1/2+x,1/2+y,1/2+z
1/2-x,-y,1/2+z
1/2+x,1/2-y,-z
-x,1/2+y,1/2-z
loop_
_atom_site_type_symbol
_atom_site_label
_atom_site_fract_x
_atom_site_fract_y
_atom_site_fract_z
Si Si1 0.066424 0.374010 0.533126
Si Si2 0.399876 0.730922 0.340229
Si Si3 0.539445 0.421875 0.896346
Si Si4 0.303036 0.353436 0.628958
Si Si5 0.227570 0.852925 0.665562
O O1 0.077558 0.556797 0.599619
O O2 0.069702 0.252891 0.676456
O O3 0.127778 0.336273 0.436168
O O4 0.004874 0.423290 0.441231
O O5 0.418368 0.867770 0.462606
O O6 0.325098 0.714105 0.335110
O O7 0.500000 0.250000 0.866891
O O8 0.572006 0.500000 0.750000
O O9 0.302626 0.500000 0.750000
O O10 0.250000 0.375818 0.500000
O O11 0.283222 0.196174 0.725741
O O12 0.250000 0.888638 0.500000
O O13 0.192944 0.000000 0.750000
#
# Coordination Sequence:
#
# PCOD9335256 Si02
#       5
#     8   8   8   8   8
#     4  10  21  43  77 108 141 193 261 310 370 453
#     4  10  22  46  71 107 149 197 249 313 379 454
#     4  10  23  47  73 107 148 196 256 318 378 453
#     4  12  22  39  74 108 145 191 246 311 371 451
#     4  12  27  46  67 105 152 193 243 304 386 458
#
# _framework density 25.801549000000001
#
# number of rings (size 3 to 8) (size 9 to 14) (size 15 to 20)
#    0.000    1.200    2.000    4.200    0.000    2.400 
#   14.400    2.000    0.000    0.000    0.000    0.000 
#    0.000    0.000    0.000    0.000    0.000    0.000 
#
# Total GULP energy -111898.404553 kJ/mol
# GULP energy per Si atom -5594.920228 kJ/mol
# Density = 2.574282 g / cm^3
# Si number density = 25.801549 Si / 1000 Ang^3
#
#
#
# Elastic Constant Matrix: (Units=GPa)
#
#
# Indices 1 2 3 4 5 6 
#
# 1 115.1543 3.3179 75.7900 0.0000 0.0000 0.0000
# 2 3.3179 78.9147 55.1584 0.0000 0.0000 0.0000
# 3 75.7900 55.1584 211.9251 0.0000 0.0000 0.0000
# 4 0.0000 0.0000 0.0000 53.6539 0.0000 0.0000
# 5 0.0000 0.0000 0.0000 0.0000 22.7741 0.0000
# 6 0.0000 0.0000 0.0000 0.0000 0.0000 20.5507
#
#
#
# Elastic Compliance Matrix: (Units=1/GPa)
#
#
# Indices 1 2 3 4 5 6 
#
# 1 0.011922 0.003030 -0.005052 0.000000 0.000000 0.000000
# 2 0.003030 0.016260 -0.005316 0.000000 0.000000 0.000000
# 3 -0.005052 -0.005316 0.007909 0.000000 0.000000 0.000000
# 4 0.000000 0.000000 0.000000 0.018638 0.000000 0.000000
# 5 0.000000 0.000000 0.000000 0.000000 0.043910 0.000000
# 6 0.000000 0.000000 0.000000 0.000000 0.000000 0.048660
#
#
# Mechanical properties :
#
#
# Convention : Reuss Voigt Hill
#
# Bulk Modulus (GPa) = 46.69586 74.94743 60.82164
# Shear Modulus (GPa) = 29.56610 37.51092 33.53851
#
# Velocity S-wave (km/s) = 3.38879 3.81704 3.60927
# Velocity P-wave (km/s) = 5.78353 6.96686 6.40259
#
# Compressibility (1/GPa) = 0.02141518
#
# Stress axis : x y z
#
# Youngs Moduli (GPa) = 83.87945 61.50074 126.43855
#
# Poissons Ratio (x) = -0.18635 0.63880
# Poissons Ratio (y) = -0.25416 0.67210
# Poissons Ratio (z) = 0.42378 0.32692
#
# Static dielectric constant tensor:
#      x y z
#    x 2.018250 0.000000 0.000000 
#    y 0.000000 2.300290 0.000000 
#    z 0.000000 0.000000 1.969090 
# 
# From -- ./inp_files/9274.got.cif
#   From: 2010.05.17/outbox.cif.g08.bks.cpg/sg24_5_cif.got.tgz:9274.got - 2010.06.04 00:33:39.
