data_PCOD9335750
_publ_section_title
;
Structure prediction by ZEFSAII (Michael W. Deem and Ramdas Pophale) SiO2 
 PCOD9335750
Probable space group: I 21 21 21
;
_chemical_formula_sum "Si O2"
_cell_formula_units_Z 40
_cell_length_a 11.066754
_cell_length_b 10.034600
_cell_length_c 15.280178
_cell_angle_alpha 90.000000
_cell_angle_beta 90.000000
_cell_angle_gamma 90.000000
_cell_volume 1696.870638
_symmetry_space_group_name_H-M "I 21 21 21"
_symmetry_group_IT_number 24
_symmetry_cell_setting 'orthorhombic'
loop_
_space_group_symop_operation_xyz
x,y,z
-x,1/2-y,z
x,-y,1/2-z
1/2-x,y,-z
1/2+x,1/2+y,1/2+z
1/2-x,-y,1/2+z
1/2+x,1/2-y,-z
-x,1/2+y,1/2-z
loop_
_atom_site_type_symbol
_atom_site_label
_atom_site_fract_x
_atom_site_fract_y
_atom_site_fract_z
Si Si1 0.704292 0.692093 0.163977
Si Si2 0.538337 0.392921 0.595820
Si Si3 0.556075 0.459339 0.081164
Si Si4 0.710750 0.966517 0.846973
Si Si5 0.825514 0.788148 0.636097
O O1 0.832100 0.621721 0.141245
O O2 0.601840 0.590633 0.132525
O O3 0.691088 0.728565 0.265929
O O4 0.715355 0.838593 0.117934
O O5 0.500000 0.250000 0.556618
O O6 0.534669 0.496357 0.517483
O O7 0.427865 0.423608 0.660021
O O8 0.442628 0.385226 0.126128
O O9 0.656237 0.343975 0.080900
O O10 0.721763 0.109070 0.892781
O O11 0.757155 0.000000 0.750000
#
# Coordination Sequence:
#
# PCOD9335750 Si02
#       5
#     8   8   8   8   8
#     4  10  22  44  71  96 136 184 243 283 355 448
#     4  10  23  45  71 101 134 189 241 296 356 444
#     4  11  24  43  67 103 145 181 234 296 374 431
#     4   9  21  43  73  99 131 181 241 291 356 436
#     4  10  24  43  67 104 138 183 227 304 363 432
#
# _framework density 23.572804999999999
#
# number of rings (size 3 to 8) (size 9 to 14) (size 15 to 20)
#    0.000    2.000    0.000    1.200    2.800   12.000 
#   14.400    2.000    0.000    0.000    0.000    0.000 
#    0.000    0.000    0.000    0.000    0.000    0.000 
#
# Total GULP energy -111646.999313 kJ/mol
# GULP energy per Si atom -5582.349966 kJ/mol
# Density = 2.351915 g / cm^3
# Si number density = 23.572805 Si / 1000 Ang^3
#
#
#
# Elastic Constant Matrix: (Units=GPa)
#
#
# Indices 1 2 3 4 5 6 
#
# 1 71.5934 31.1352 37.7530 0.0000 0.0000 0.0000
# 2 31.1352 142.2746 42.4781 0.0000 0.0000 0.0000
# 3 37.7530 42.4781 75.6682 0.0000 0.0000 0.0000
# 4 0.0000 0.0000 0.0000 26.9769 0.0000 0.0000
# 5 0.0000 0.0000 0.0000 0.0000 22.8995 0.0000
# 6 0.0000 0.0000 0.0000 0.0000 0.0000 32.2601
#
#
#
# Elastic Compliance Matrix: (Units=1/GPa)
#
#
# Indices 1 2 3 4 5 6 
#
# 1 0.019259 -0.001617 -0.008701 0.000000 0.000000 0.000000
# 2 -0.001617 0.008580 -0.004010 0.000000 0.000000 0.000000
# 3 -0.008701 -0.004010 0.019808 0.000000 0.000000 0.000000
# 4 0.000000 0.000000 0.000000 0.037069 0.000000 0.000000
# 5 0.000000 0.000000 0.000000 0.000000 0.043669 0.000000
# 6 0.000000 0.000000 0.000000 0.000000 0.000000 0.030998
#
#
# Mechanical properties :
#
#
# Convention : Reuss Voigt Hill
#
# Bulk Modulus (GPa) = 52.65627 56.91874 54.78751
# Shear Modulus (GPa) = 25.72428 28.30531 27.01479
#
# Velocity S-wave (km/s) = 3.30702 3.46896 3.38896
# Velocity P-wave (km/s) = 6.08014 6.34376 6.21335
#
# Compressibility (1/GPa) = 0.01899109
#
# Stress axis : x y z
#
# Youngs Moduli (GPa) = 51.92286 116.55513 50.48487
#
# Poissons Ratio (x) = 0.18844 0.43929
# Poissons Ratio (y) = 0.08395 0.20243
# Poissons Ratio (z) = 0.45180 0.46735
#
# Static dielectric constant tensor:
#      x y z
#    x 1.954950 0.000000 0.000000 
#    y 0.000000 1.954030 0.000000 
#    z 0.000000 0.000000 1.888410 
# 
# From -- ./inp_files/30047.got.cif
#   From: 2010.05.17/outbox.cif.g08.bks.cpg/sg24_16_cif.got.tgz:30047.got - 2010.06.04 00:33:39.
