data_PCOD9335052
_publ_section_title
;
Structure prediction by ZEFSAII (Michael W. Deem and Ramdas Pophale) SiO2 
 PCOD9335052
Probable space group: I 21 21 21
;
_chemical_formula_sum "Si O2"
_cell_formula_units_Z 64
_cell_length_a 11.168613
_cell_length_b 14.519799
_cell_length_c 18.926962
_cell_angle_alpha 90.000000
_cell_angle_beta 90.000000
_cell_angle_gamma 90.000000
_cell_volume 3069.310020
_symmetry_space_group_name_H-M "I 21 21 21"
_symmetry_group_IT_number 24
_symmetry_cell_setting 'orthorhombic'
loop_
_space_group_symop_operation_xyz
x,y,z
-x,1/2-y,z
x,-y,1/2-z
1/2-x,y,-z
1/2+x,1/2+y,1/2+z
1/2-x,-y,1/2+z
1/2+x,1/2-y,-z
-x,1/2+y,1/2-z
loop_
_atom_site_type_symbol
_atom_site_label
_atom_site_fract_x
_atom_site_fract_y
_atom_site_fract_z
Si Si1 0.392720 0.645081 0.905600
Si Si2 0.991198 0.007071 0.861582
Si Si3 0.241460 0.962075 0.413523
Si Si4 0.658632 0.343635 0.564315
Si Si5 0.369951 0.527456 0.510271
Si Si6 0.982367 0.355561 0.117825
Si Si7 0.346446 0.392331 0.748363
Si Si8 0.576132 0.845092 0.245770
O O1 0.516488 0.652586 0.949170
O O2 0.324266 0.741659 0.905380
O O3 0.329480 0.559339 0.941789
O O4 0.417870 0.623949 0.824221
O O5 0.968135 0.913138 0.817574
O O6 0.127725 0.029764 0.880836
O O7 0.946200 0.093400 0.815570
O O8 0.923838 0.000764 0.935710
O O9 0.250000 0.950269 0.500000
O O10 0.156436 0.885249 0.378441
O O11 0.183490 0.061744 0.395605
O O12 0.750000 0.348663 0.500000
O O13 0.250000 0.586485 0.500000
O O14 0.466889 0.580493 0.555841
O O15 0.065282 0.372197 0.186661
O O16 0.000000 0.250000 0.098542
O O17 0.310712 0.500000 0.750000
O O18 0.221413 0.335922 0.744081
O O19 0.500000 0.750000 0.245273
#
# Coordination Sequence:
#
# PCOD9335052 Si02
#       8
#     8   8   8   8   8   8   8   8
#     4  11  23  40  69 105 135 183 229 283 360 413
#     4  11  24  47  73 101 142 187 230 289 356 423
#     4  11  22  48  72 100 147 174 231 295 354 425
#     4  10  21  40  64 101 141 171 221 284 348 420
#     4  12  22  44  72 101 136 185 234 291 354 411
#     4  12  28  45  69 106 137 189 239 293 353 411
#     4  12  23  49  72  97 149 181 236 296 343 425
#     4  11  27  49  70 107 140 189 237 288 354 425
#
# _framework density 20.851590999999999
#
# number of rings (size 3 to 8) (size 9 to 14) (size 15 to 20)
#    0.000    0.750    5.000    2.625    5.250    1.000 
#   11.250    0.000    0.000    0.000    0.000    0.000 
#    0.000    0.000    0.000    0.000    0.000    0.000 
#
# Total GULP energy -178558.696039 kJ/mol
# GULP energy per Si atom -5579.959251 kJ/mol
# Density = 2.080413 g / cm^3
# Si number density = 20.851591 Si / 1000 Ang^3
#
#
#
# Elastic Constant Matrix: (Units=GPa)
#
#
# Indices 1 2 3 4 5 6 
#
# 1 134.3298 19.6048 31.4531 0.0000 0.0000 0.0000
# 2 19.6048 119.6540 35.1077 0.0000 0.0000 0.0000
# 3 31.4531 35.1077 118.4533 0.0000 0.0000 0.0000
# 4 0.0000 0.0000 0.0000 9.8729 0.0000 0.0000
# 5 0.0000 0.0000 0.0000 0.0000 24.8451 0.0000
# 6 0.0000 0.0000 0.0000 0.0000 0.0000 -61.6630
#
#
#
# Elastic Compliance Matrix: (Units=1/GPa)
#
#
# Indices 1 2 3 4 5 6 
#
# 1 0.007999 -0.000753 -0.001901 0.000000 0.000000 0.000000
# 2 -0.000753 0.009224 -0.002534 0.000000 0.000000 0.000000
# 3 -0.001901 -0.002534 0.009698 0.000000 0.000000 0.000000
# 4 0.000000 0.000000 0.000000 0.101287 0.000000 0.000000
# 5 0.000000 0.000000 0.000000 0.000000 0.040249 0.000000
# 6 0.000000 0.000000 0.000000 0.000000 0.000000 -0.016217
#
#
# Mechanical properties :
#
#
# Convention : Reuss Voigt Hill
#
# Bulk Modulus (GPa) = 60.43798 60.52980 60.48389
# Shear Modulus (GPa) = 29.73855 13.69578 21.71717
#
# Velocity S-wave (km/s) = 3.78060 2.56563 3.23075
# Velocity P-wave (km/s) = 6.93578 6.15374 6.55643
#
# Compressibility (1/GPa) = 0.01654589
#
# Stress axis : x y z
#
# Youngs Moduli (GPa) = 125.01022 108.40934 103.11465
#
# Poissons Ratio (x) = 0.08162 0.19601
# Poissons Ratio (y) = 0.09412 0.26129
# Poissons Ratio (z) = 0.23764 0.27471
#
# Static dielectric constant tensor:
#      x y z
#    x 1.656400 0.000000 0.000000 
#    y 0.000000 1.836440 0.000000 
#    z 0.000000 0.000000 1.746660 
# 
# From -- ./inp_files/30364.got.cif
#   From: 2010.05.17/outbox.cif.g08.bks.cpg/sg24_16_cif.got.tgz:30364.got - 2010.06.04 00:33:39.
