data_PCOD9335612
_publ_section_title
;
Structure prediction by ZEFSAII (Michael W. Deem and Ramdas Pophale) SiO2 
 PCOD9335612
Probable space group: I 21 21 21
;
_chemical_formula_sum "Si O2"
_cell_formula_units_Z 64
_cell_length_a 16.095450
_cell_length_b 15.552382
_cell_length_c 11.648698
_cell_angle_alpha 90.000000
_cell_angle_beta 90.000000
_cell_angle_gamma 90.000000
_cell_volume 2915.932217
_symmetry_space_group_name_H-M "I 21 21 21"
_symmetry_group_IT_number 24
_symmetry_cell_setting 'orthorhombic'
loop_
_space_group_symop_operation_xyz
x,y,z
-x,1/2-y,z
x,-y,1/2-z
1/2-x,y,-z
1/2+x,1/2+y,1/2+z
1/2-x,-y,1/2+z
1/2+x,1/2-y,-z
-x,1/2+y,1/2-z
loop_
_atom_site_type_symbol
_atom_site_label
_atom_site_fract_x
_atom_site_fract_y
_atom_site_fract_z
Si Si1 0.025233 0.159451 0.401152
Si Si2 0.387844 0.944394 0.088558
Si Si3 0.388908 0.217130 0.833298
Si Si4 0.286821 0.348464 0.373576
Si Si5 0.530434 0.152485 0.278763
Si Si6 0.785009 0.668338 0.756985
Si Si7 0.376570 0.597404 0.773224
Si Si8 0.426092 0.857611 0.423132
O O1 0.093747 0.108737 0.472768
O O2 0.061045 0.178673 0.274900
O O3 0.000000 0.250000 0.455992
O O4 0.935540 0.117200 0.382350
O O5 0.465696 0.914010 0.165698
O O6 0.308957 0.913225 0.163523
O O7 0.393596 0.044702 0.064380
O O8 0.298242 0.174179 0.817179
O O9 0.388257 0.320754 0.812960
O O10 0.423773 0.188959 0.955475
O O11 0.250000 0.362920 0.500000
O O12 0.380598 0.366544 0.334245
O O13 0.277434 0.247511 0.344599
O O14 0.221075 0.399150 0.296438
O O15 0.500000 0.250000 0.303414
O O16 0.514984 0.142632 0.141735
O O17 0.860693 0.683146 0.667838
O O18 0.401205 0.500000 0.750000
#
# Coordination Sequence:
#
# PCOD9335612 Si02
#       8
#     8   8   8   8   8   8   8   8
#     4  10  23  43  67  99 133 185 246 289 365 421
#     4  11  23  39  68 102 139 175 237 308 346 428
#     4  10  24  45  70  94 142 192 232 294 365 437
#     4  11  23  42  71 103 135 180 236 295 362 418
#     4  11  21  41  71 100 139 184 236 286 357 435
#     4  10  22  42  65  98 138 180 230 287 358 433
#     4  10  24  45  68  99 141 181 240 295 352 439
#     4  11  24  44  64 102 143 187 233 287 363 435
#
# _framework density 21.948384000000001
#
# number of rings (size 3 to 8) (size 9 to 14) (size 15 to 20)
#    0.000    1.500    2.500    3.000    7.000    2.500 
#    6.750    2.500    0.000    0.000    0.000    0.000 
#    0.000    0.000    0.000    0.000    0.000    0.000 
#
# Total GULP energy -178554.369912 kJ/mol
# GULP energy per Si atom -5579.824060 kJ/mol
# Density = 2.189843 g / cm^3
# Si number density = 21.948384 Si / 1000 Ang^3
#
#
#
# Elastic Constant Matrix: (Units=GPa)
#
#
# Indices 1 2 3 4 5 6 
#
# 1 117.1661 22.9448 38.9986 0.0000 0.0000 0.0000
# 2 22.9448 108.9420 45.4556 0.0000 0.0000 0.0000
# 3 38.9986 45.4556 152.2023 0.0000 0.0000 0.0000
# 4 0.0000 0.0000 0.0000 4.4533 0.0000 0.0000
# 5 0.0000 0.0000 0.0000 0.0000 27.3928 0.0000
# 6 0.0000 0.0000 0.0000 0.0000 0.0000 13.2956
#
#
#
# Elastic Compliance Matrix: (Units=1/GPa)
#
#
# Indices 1 2 3 4 5 6 
#
# 1 0.009449 -0.001119 -0.002087 0.000000 0.000000 0.000000
# 2 -0.001119 0.010618 -0.002884 0.000000 0.000000 0.000000
# 3 -0.002087 -0.002884 0.007966 0.000000 0.000000 0.000000
# 4 0.000000 0.000000 0.000000 0.224551 0.000000 0.000000
# 5 0.000000 0.000000 0.000000 0.000000 0.036506 0.000000
# 6 0.000000 0.000000 0.000000 0.000000 0.000000 0.075213
#
#
# Mechanical properties :
#
#
# Convention : Reuss Voigt Hill
#
# Bulk Modulus (GPa) = 63.08171 65.90093 64.49132
# Shear Modulus (GPa) = 13.09695 27.08913 20.09304
#
# Velocity S-wave (km/s) = 2.44543 3.51696 3.02895
# Velocity P-wave (km/s) = 6.06439 6.82514 6.45598
#
# Compressibility (1/GPa) = 0.01585245
#
# Stress axis : x y z
#
# Youngs Moduli (GPa) = 105.83517 94.17564 125.52847
#
# Poissons Ratio (x) = 0.10542 0.26194
# Poissons Ratio (y) = 0.11847 0.36208
# Poissons Ratio (z) = 0.22085 0.27164
#
# Static dielectric constant tensor:
#      x y z
#    x 1.861940 0.000000 0.000000 
#    y 0.000000 1.893040 0.000000 
#    z 0.000000 0.000000 1.849930 
# 
# From -- ./inp_files/21711.got.cif
#   From: 2010.05.17/outbox.cif.g08.bks.cpg/sg24_11_cif.got.tgz:21711.got - 2010.06.04 00:33:39.
