data_PCOD9335775
_publ_section_title
;
Structure prediction by ZEFSAII (Michael W. Deem and Ramdas Pophale) SiO2 
 PCOD9335775
Probable space group: I 21 21 21
;
_chemical_formula_sum "Si O2"
_cell_formula_units_Z 36
_cell_length_a 11.093191
_cell_length_b 18.589649
_cell_length_c 7.447767
_cell_angle_alpha 90.000000
_cell_angle_beta 90.000000
_cell_angle_gamma 90.000000
_cell_volume 1535.867540
_symmetry_space_group_name_H-M "I 21 21 21"
_symmetry_group_IT_number 24
_symmetry_cell_setting 'orthorhombic'
loop_
_space_group_symop_operation_xyz
x,y,z
-x,1/2-y,z
x,-y,1/2-z
1/2-x,y,-z
1/2+x,1/2+y,1/2+z
1/2-x,-y,1/2+z
1/2+x,1/2-y,-z
-x,1/2+y,1/2-z
loop_
_atom_site_type_symbol
_atom_site_label
_atom_site_fract_x
_atom_site_fract_y
_atom_site_fract_z
Si Si1 0.750000 0.482636 0.000000
Si Si2 0.900441 0.198110 0.621822
Si Si3 0.035119 0.069528 0.683003
Si Si4 0.153682 0.289240 0.219806
Si Si5 0.421859 0.138808 0.933426
O O1 0.849158 0.534943 0.911660
O O2 0.667846 0.427249 0.877657
O O3 0.869178 0.232223 0.428963
O O4 0.791697 0.186032 0.760316
O O5 0.000000 0.250000 0.704489
O O6 0.956729 0.122069 0.565869
O O7 0.962750 0.000000 0.750000
O O8 0.065936 0.116888 0.857921
O O9 0.138479 0.215353 0.110517
O O10 0.055489 0.347058 0.149602
#
# Coordination Sequence:
#
# PCOD9335775 Si02
#       5
#     4   8   8   8   8
#     4  10  24  44  72 108 150 196 248 296 384 446
#     4  11  24  44  71 102 151 197 246 299 368 445
#     4  10  25  45  69 106 145 195 241 299 369 439
#     4  10  24  43  71 110 144 192 244 308 373 424
#     4  10  22  45  70 108 143 180 245 309 360 437
#
# _framework density 23.439520999999999
#
# number of rings (size 3 to 8) (size 9 to 14) (size 15 to 20)
#    0.000    1.778    2.222    0.000    9.333    8.000 
#    0.000   12.222    0.000    0.000    0.000    0.000 
#    0.000    0.000    0.000    0.000    0.000    0.000 
#
# Total GULP energy -100303.538870 kJ/mol
# GULP energy per Si atom -5572.418826 kJ/mol
# Density = 2.338617 g / cm^3
# Si number density = 23.439521 Si / 1000 Ang^3
#
#
#
# Elastic Constant Matrix: (Units=GPa)
#
#
# Indices 1 2 3 4 5 6 
#
# 1 184.1425 73.9734 37.5046 0.0004 0.0000 0.0001
# 2 73.9734 162.1796 50.6597 -0.0007 0.0000 0.0000
# 3 37.5046 50.6597 86.4035 -0.0009 -0.0002 -0.0005
# 4 0.0004 -0.0007 -0.0009 45.3203 0.0000 -0.0005
# 5 0.0000 0.0000 -0.0002 0.0000 19.1463 -0.0001
# 6 0.0001 0.0000 -0.0005 -0.0005 -0.0001 37.8960
#
#
#
# Elastic Compliance Matrix: (Units=1/GPa)
#
#
# Indices 1 2 3 4 5 6 
#
# 1 0.006781 -0.002661 -0.001383 0.000000 0.000000 0.000000
# 2 -0.002661 0.008593 -0.003883 0.000000 0.000000 0.000000
# 3 -0.001383 -0.003883 0.014451 0.000000 0.000000 0.000000
# 4 0.000000 0.000000 0.000000 0.022065 0.000000 0.000000
# 5 0.000000 0.000000 0.000000 0.000000 0.052229 0.000000
# 6 0.000000 0.000000 0.000000 0.000000 0.000000 0.026388
#
#
# Mechanical properties :
#
#
# Convention : Reuss Voigt Hill
#
# Bulk Modulus (GPa) = 71.58157 84.11122 77.84640
# Shear Modulus (GPa) = 33.10854 38.51172 35.81013
#
# Velocity S-wave (km/s) = 3.76241 4.05782 3.91291
# Velocity P-wave (km/s) = 7.03416 7.61031 7.32790
#
# Compressibility (1/GPa) = 0.01397008
#
# Stress axis : x y z
#
# Youngs Moduli (GPa) = 147.46466 116.37868 69.20082
#
# Poissons Ratio (x) = 0.30968 0.09573
# Poissons Ratio (y) = 0.39240 0.26870
# Poissons Ratio (z) = 0.20399 0.45189
#
# Static dielectric constant tensor:
#      x y z
#    x 2.072230 0.000000 0.000000 
#    y 0.000000 1.896830 0.000000 
#    z 0.000000 0.000000 2.011810 
# 
# From -- ./inp_files/10952.got.cif
#   From: 2010.05.17/outbox.cif.g08.bks.cpg/sg24_6_cif.got.tgz:10952.got - 2010.06.04 00:33:39.
