data_PCOD9335716
_publ_section_title
;
Structure prediction by ZEFSAII (Michael W. Deem and Ramdas Pophale) SiO2 
 PCOD9335716
Probable space group: I 21 21 21
;
_chemical_formula_sum "Si O2"
_cell_formula_units_Z 32
_cell_length_a 8.772831
_cell_length_b 9.402730
_cell_length_c 14.149982
_cell_angle_alpha 90.000000
_cell_angle_beta 90.000000
_cell_angle_gamma 90.000000
_cell_volume 1167.211657
_symmetry_space_group_name_H-M "I 21 21 21"
_symmetry_group_IT_number 24
_symmetry_cell_setting 'orthorhombic'
loop_
_space_group_symop_operation_xyz
x,y,z
-x,1/2-y,z
x,-y,1/2-z
1/2-x,y,-z
1/2+x,1/2+y,1/2+z
1/2-x,-y,1/2+z
1/2+x,1/2-y,-z
-x,1/2+y,1/2-z
loop_
_atom_site_type_symbol
_atom_site_label
_atom_site_fract_x
_atom_site_fract_y
_atom_site_fract_z
Si Si1 0.647610 0.961376 0.355753
Si Si2 0.163630 0.187512 0.205667
Si Si3 0.179498 0.743949 0.098534
Si Si4 0.074992 0.905451 0.475284
O O1 0.730610 0.806979 0.346870
O O2 0.522425 0.970656 0.438893
O O3 0.590565 0.000000 0.250000
O O4 0.771860 0.080102 0.383171
O O5 0.242492 0.176243 0.307871
O O6 0.000000 0.250000 0.235547
O O7 0.100531 0.063251 0.136893
O O8 0.000000 0.750000 0.081073
O O9 0.250000 0.794595 0.000000
O O10 0.250000 0.897882 0.500000
O O11 0.000000 0.750000 0.469304
#
# Coordination Sequence:
#
# PCOD9335716 Si02
#       4
#     8   8   8   8
#     4  10  22  43  73 113 148 204 254 318 382 463
#     4   9  20  38  69 108 148 187 251 320 380 452
#     4  10  23  45  71  99 148 202 257 311 384 453
#     4  11  21  38  73 109 153 187 251 319 381 449
#
# _framework density 27.415763999999999
#
# number of rings (size 3 to 8) (size 9 to 14) (size 15 to 20)
#    0.000    2.000    2.500    0.000    7.000    0.000 
#    9.000    1.250   16.500    0.000    0.000    0.000 
#    0.000    0.000    0.000    0.000    0.000    0.000 
#
# Total GULP energy -89264.862646 kJ/mol
# GULP energy per Si atom -5579.053915 kJ/mol
# Density = 2.735336 g / cm^3
# Si number density = 27.415764 Si / 1000 Ang^3
#
#
#
# Elastic Constant Matrix: (Units=GPa)
#
#
# Indices 1 2 3 4 5 6 
#
# 1 166.2011 43.1172 86.9821 0.0000 0.0000 0.0000
# 2 43.1172 122.8751 51.4747 0.0000 0.0000 0.0000
# 3 86.9821 51.4747 305.9816 0.0000 0.0000 0.0000
# 4 0.0000 0.0000 0.0000 12.2665 0.0000 0.0000
# 5 0.0000 0.0000 0.0000 0.0000 21.1052 0.0000
# 6 0.0000 0.0000 0.0000 0.0000 0.0000 26.5581
#
#
#
# Elastic Compliance Matrix: (Units=1/GPa)
#
#
# Indices 1 2 3 4 5 6 
#
# 1 0.007442 -0.001856 -0.001803 0.000000 0.000000 0.000000
# 2 -0.001856 0.009218 -0.001023 0.000000 0.000000 0.000000
# 3 -0.001803 -0.001023 0.003953 0.000000 0.000000 0.000000
# 4 0.000000 0.000000 0.000000 0.081523 0.000000 0.000000
# 5 0.000000 0.000000 0.000000 0.000000 0.047382 0.000000
# 6 0.000000 0.000000 0.000000 0.000000 0.000000 0.037653
#
#
# Mechanical properties :
#
#
# Convention : Reuss Voigt Hill
#
# Bulk Modulus (GPa) = 88.90263 106.46732 97.68497
# Shear Modulus (GPa) = 24.96439 39.55155 32.25797
#
# Velocity S-wave (km/s) = 3.02086 3.80235 3.43391
# Velocity P-wave (km/s) = 6.68322 7.62862 7.17152
#
# Compressibility (1/GPa) = 0.01124826
#
# Stress axis : x y z
#
# Youngs Moduli (GPa) = 134.37077 108.48062 252.97648
#
# Poissons Ratio (x) = 0.20134 0.45621
# Poissons Ratio (y) = 0.24939 0.25883
# Poissons Ratio (z) = 0.24232 0.11099
#
# Static dielectric constant tensor:
#      x y z
#    x 2.141200 0.000000 0.000000 
#    y 0.000000 2.390120 0.000000 
#    z 0.000000 0.000000 2.396330 
# 
# From -- ./inp_files/24356.got.cif
#   From: 2010.05.17/outbox.cif.g08.bks.cpg/sg24_13_cif.got.tgz:24356.got - 2010.06.04 00:33:39.
