data_PCOD9335805
_publ_section_title
;
Structure prediction by ZEFSAII (Michael W. Deem and Ramdas Pophale) SiO2 
 PCOD9335805
Probable space group: I 21 21 21
;
_chemical_formula_sum "Si O2"
_cell_formula_units_Z 48
_cell_length_a 8.982689
_cell_length_b 13.780723
_cell_length_c 15.285513
_cell_angle_alpha 90.000000
_cell_angle_beta 90.000000
_cell_angle_gamma 90.000000
_cell_volume 1892.162302
_symmetry_space_group_name_H-M "I 21 21 21"
_symmetry_group_IT_number 24
_symmetry_cell_setting 'orthorhombic'
loop_
_space_group_symop_operation_xyz
x,y,z
-x,1/2-y,z
x,-y,1/2-z
1/2-x,y,-z
1/2+x,1/2+y,1/2+z
1/2-x,-y,1/2+z
1/2+x,1/2-y,-z
-x,1/2+y,1/2-z
loop_
_atom_site_type_symbol
_atom_site_label
_atom_site_fract_x
_atom_site_fract_y
_atom_site_fract_z
Si Si1 0.845494 0.802838 0.081114
Si Si2 0.499008 0.524600 0.149393
Si Si3 0.750000 0.185346 0.000000
Si Si4 0.689755 0.677664 0.213289
Si Si5 0.095282 0.173459 0.918645
Si Si6 0.345555 0.483890 0.885794
Si Si7 0.096225 0.000000 0.250000
O O1 0.759592 0.774160 0.170786
O O2 0.879125 0.916269 0.064285
O O3 0.000000 0.750000 0.086616
O O4 0.750000 0.766629 0.000000
O O5 0.537353 0.500000 0.250000
O O6 0.561137 0.634213 0.149091
O O7 0.576826 0.445266 0.085728
O O8 0.322502 0.508241 0.144552
O O9 0.590049 0.201542 0.061795
O O10 0.835012 0.117320 0.067228
O O11 0.643497 0.689335 0.315059
O O12 0.811643 0.591357 0.215281
O O13 0.250000 0.189734 0.000000
O O14 0.481727 0.466809 0.822725
#
# Coordination Sequence:
#
# PCOD9335805 Si02
#       7
#     8   8   4   8   8   8   4
#     4  12  29  48  71 110 145 192 249 299 366 439
#     4  10  22  46  74 102 138 185 242 297 360 440
#     4  12  28  44  68 112 152 192 240 310 362 436
#     4  11  26  48  74 108 145 191 244 305 367 439
#     4  11  24  45  73 108 141 192 249 290 370 443
#     4  12  26  46  73 105 146 190 245 304 362 430
#     4  12  24  48  74 106 144 192 240 304 370 420
#
# _framework density 25.367801
#
# number of rings (size 3 to 8) (size 9 to 14) (size 15 to 20)
#    0.000    0.667    7.500    0.000    9.333    1.333 
#    1.500    0.000    0.000    0.000    0.000    0.000 
#    0.000    0.000    0.000    0.000    0.000    0.000 
#
# Total GULP energy -133795.890536 kJ/mol
# GULP energy per Si atom -5574.828772 kJ/mol
# Density = 2.531006 g / cm^3
# Si number density = 25.367801 Si / 1000 Ang^3
#
#
#
# Elastic Constant Matrix: (Units=GPa)
#
#
# Indices 1 2 3 4 5 6 
#
# 1 126.4080 55.1464 65.2674 0.0000 0.0000 0.0000
# 2 55.1464 143.9707 43.9036 0.0000 0.0000 0.0000
# 3 65.2674 43.9036 92.9652 0.0000 0.0000 0.0000
# 4 0.0000 0.0000 0.0000 48.2668 0.0000 0.0000
# 5 0.0000 0.0000 0.0000 0.0000 23.8459 0.0000
# 6 0.0000 0.0000 0.0000 0.0000 0.0000 21.6121
#
#
#
# Elastic Compliance Matrix: (Units=1/GPa)
#
#
# Indices 1 2 3 4 5 6 
#
# 1 0.013195 -0.002604 -0.008034 0.000000 0.000000 0.000000
# 2 -0.002604 0.008628 -0.002246 0.000000 0.000000 0.000000
# 3 -0.008034 -0.002246 0.017458 0.000000 0.000000 0.000000
# 4 0.000000 0.000000 0.000000 0.020718 0.000000 0.000000
# 5 0.000000 0.000000 0.000000 0.000000 0.041936 0.000000
# 6 0.000000 0.000000 0.000000 0.000000 0.000000 0.046270
#
#
# Mechanical properties :
#
#
# Convention : Reuss Voigt Hill
#
# Bulk Modulus (GPa) = 74.00746 76.88651 75.44699
# Shear Modulus (GPa) = 28.01445 32.01340 30.01393
#
# Velocity S-wave (km/s) = 3.32675 3.55628 3.44343
# Velocity P-wave (km/s) = 6.63276 6.87294 6.75392
#
# Compressibility (1/GPa) = 0.01351215
#
# Stress axis : x y z
#
# Youngs Moduli (GPa) = 75.78560 115.89538 57.28065
#
# Poissons Ratio (x) = 0.30183 0.46019
# Poissons Ratio (y) = 0.19737 0.12868
# Poissons Ratio (z) = 0.60885 0.26036
#
# Static dielectric constant tensor:
#      x y z
#    x 2.216060 0.000000 0.000000 
#    y 0.000000 1.980230 0.000000 
#    z 0.000000 0.000000 2.009140 
# 
# From -- ./inp_files/24842.got.cif
#   From: 2010.05.17/outbox.cif.g08.bks.cpg/sg24_13_cif.got.tgz:24842.got - 2010.06.04 00:33:39.
