data_PCOD9335072
_publ_section_title
;
Structure prediction by ZEFSAII (Michael W. Deem and Ramdas Pophale) SiO2 
 PCOD9335072
Probable space group: I 21 21 21
;
_chemical_formula_sum "Si O2"
_cell_formula_units_Z 60
_cell_length_a 24.936433
_cell_length_b 9.509823
_cell_length_c 11.913230
_cell_angle_alpha 90.000000
_cell_angle_beta 90.000000
_cell_angle_gamma 90.000000
_cell_volume 2825.116039
_symmetry_space_group_name_H-M "I 21 21 21"
_symmetry_group_IT_number 24
_symmetry_cell_setting 'orthorhombic'
loop_
_space_group_symop_operation_xyz
x,y,z
-x,1/2-y,z
x,-y,1/2-z
1/2-x,y,-z
1/2+x,1/2+y,1/2+z
1/2-x,-y,1/2+z
1/2+x,1/2-y,-z
-x,1/2+y,1/2-z
loop_
_atom_site_type_symbol
_atom_site_label
_atom_site_fract_x
_atom_site_fract_y
_atom_site_fract_z
Si Si1 0.673251 0.153795 0.730435
Si Si2 0.290998 0.075362 0.646101
Si Si3 0.173550 0.006189 0.909258
Si Si4 0.912096 0.299068 0.631627
Si Si5 0.911472 0.056561 0.455103
Si Si6 0.380586 0.759906 0.542413
Si Si7 0.000000 0.750000 0.682406
Si Si8 0.475766 0.967788 0.506144
O O1 0.713996 0.260923 0.672331
O O2 0.622703 0.119280 0.648639
O O3 0.653151 0.231328 0.843763
O O4 0.697532 0.000000 0.750000
O O5 0.234835 0.995676 0.629317
O O6 0.324527 0.062133 0.533766
O O7 0.319192 0.000000 0.750000
O O8 0.139223 0.894753 0.838000
O O9 0.149401 0.157549 0.941416
O O10 0.902936 0.159628 0.559812
O O11 0.948617 0.264141 0.737949
O O12 0.944029 0.402668 0.547330
O O13 0.974299 0.031490 0.426017
O O14 0.893004 0.900238 0.488303
O O15 0.434148 0.856071 0.561295
O O16 0.999718 0.616241 0.600780
#
# Coordination Sequence:
#
# PCOD9335072 Si02
#       8
#     8   8   8   8   8   8   4   8
#     4  10  22  40  69  93 128 172 208 268 337 387
#     4  11  21  42  70  90 126 162 214 269 329 384
#     4  10  23  40  66  98 122 163 216 270 317 389
#     4  11  23  37  62  94 125 172 215 258 323 385
#     4  11  20  40  61  93 132 163 212 264 320 389
#     4  10  21  40  65  92 129 168 213 265 322 383
#     4  12  22  38  66  86 134 178 214 262 322 376
#     4  11  22  39  60  92 133 173 215 261 317 385
#
# _framework density 21.238064999999999
#
# number of rings (size 3 to 8) (size 9 to 14) (size 15 to 20)
#    0.000    1.333    5.333    0.400    0.000    2.133 
#    0.000    9.333    0.000    0.000    0.000    0.000 
#    0.000    0.000    0.000    0.000    0.000    0.000 
#
# Total GULP energy -167370.304126 kJ/mol
# GULP energy per Si atom -5579.010138 kJ/mol
# Density = 2.118973 g / cm^3
# Si number density = 21.238065 Si / 1000 Ang^3
#
#
#
# Elastic Constant Matrix: (Units=GPa)
#
#
# Indices 1 2 3 4 5 6 
#
# 1 51.4377 13.0534 -8.4423 0.0000 0.0000 0.0000
# 2 13.0534 106.8304 1.2349 0.0000 0.0000 0.0000
# 3 -8.4423 1.2349 51.1268 0.0000 0.0000 0.0000
# 4 0.0000 0.0000 0.0000 38.4477 0.0000 0.0000
# 5 0.0000 0.0000 0.0000 0.0000 -2.3226 0.0000
# 6 0.0000 0.0000 0.0000 0.0000 0.0000 23.6154
#
#
#
# Elastic Compliance Matrix: (Units=1/GPa)
#
#
# Indices 1 2 3 4 5 6 
#
# 1 0.020662 -0.002565 0.003474 0.000000 0.000000 0.000000
# 2 -0.002565 0.009682 -0.000657 0.000000 0.000000 0.000000
# 3 0.003474 -0.000657 0.020149 0.000000 0.000000 0.000000
# 4 0.000000 0.000000 0.000000 0.026009 0.000000 0.000000
# 5 0.000000 0.000000 0.000000 0.000000 -0.430550 0.000000
# 6 0.000000 0.000000 0.000000 0.000000 0.000000 0.042345
#
#
# Mechanical properties :
#
#
# Convention : Reuss Voigt Hill
#
# Bulk Modulus (GPa) = 19.60955 24.56520 22.08738
# Shear Modulus (GPa) = -16.93721 25.51802 4.29040
#
# Velocity S-wave (km/s) = -2.82706 3.47006 1.42286
# Velocity P-wave (km/s) = 1.18451 5.25802 3.62241
#
# Compressibility (1/GPa) = 0.05099555
#
# Stress axis : x y z
#
# Youngs Moduli (GPa) = 48.39803 103.28849 49.63094
#
# Poissons Ratio (x) = 0.26491 -0.17241
# Poissons Ratio (y) = 0.12413 0.03263
# Poissons Ratio (z) = -0.16812 0.06790
#
# Static dielectric constant tensor:
#      x y z
#    x 1.834610 0.000000 0.000000 
#    y 0.000000 1.788790 0.000000 
#    z 0.000000 0.000000 1.814470 
# 
# From -- ./inp_files/22963.got.cif
#   From: 2010.05.17/outbox.cif.g08.bks.cpg/sg24_12_cif.got.tgz:22963.got - 2010.06.04 00:33:39.
