data_PCOD9335997
_publ_section_title
;
Structure prediction by ZEFSAII (Michael W. Deem and Ramdas Pophale) SiO2 
 PCOD9335997
Probable space group: I 21 21 21
;
_chemical_formula_sum "Si O2"
_cell_formula_units_Z 56
_cell_length_a 13.824283
_cell_length_b 14.464426
_cell_length_c 13.914296
_cell_angle_alpha 90.000000
_cell_angle_beta 90.000000
_cell_angle_gamma 90.000000
_cell_volume 2782.307059
_symmetry_space_group_name_H-M "I 21 21 21"
_symmetry_group_IT_number 24
_symmetry_cell_setting 'orthorhombic'
loop_
_space_group_symop_operation_xyz
x,y,z
-x,1/2-y,z
x,-y,1/2-z
1/2-x,y,-z
1/2+x,1/2+y,1/2+z
1/2-x,-y,1/2+z
1/2+x,1/2-y,-z
-x,1/2+y,1/2-z
loop_
_atom_site_type_symbol
_atom_site_label
_atom_site_fract_x
_atom_site_fract_y
_atom_site_fract_z
Si Si1 0.250000 0.664247 0.500000
Si Si2 0.174834 0.162396 0.720543
Si Si3 0.178971 0.000000 0.250000
Si Si4 0.095608 0.804636 0.570012
Si Si5 0.957822 0.472923 0.069216
Si Si6 0.285258 0.331802 0.403911
Si Si7 0.323580 0.515259 0.637170
Si Si8 0.006055 0.855262 0.936280
O O1 0.159656 0.732033 0.510677
O O2 0.258797 0.596266 0.591408
O O3 0.148429 0.166831 0.832333
O O4 0.216842 0.259966 0.683308
O O5 0.079623 0.145348 0.654251
O O6 0.252585 0.081528 0.711092
O O7 0.112047 0.969785 0.339044
O O8 0.070399 0.892784 0.505268
O O9 0.000000 0.750000 0.599570
O O10 0.067676 0.462299 0.105522
O O11 0.956856 0.570631 0.012835
O O12 0.250000 0.278399 0.500000
O O13 0.211532 0.416487 0.401233
O O14 0.394332 0.372713 0.407090
O O15 0.316313 0.500000 0.750000
O O16 0.000000 0.750000 0.974859
#
# Coordination Sequence:
#
# PCOD9335997 Si02
#       8
#     4   8   4   8   8   8   8   8
#     4  12  24  46  70 106 140 192 236 294 368 424
#     4  11  26  45  68 108 136 188 242 287 362 428
#     4  12  28  46  68 100 146 194 238 286 358 440
#     4  12  25  45  71  99 145 189 236 294 349 433
#     4  12  25  45  69 102 142 189 238 293 355 427
#     4  11  22  43  71 106 139 175 235 301 366 417
#     4  12  24  44  70 103 140 182 242 298 361 428
#     4  10  23  44  73 104 139 179 231 303 356 419
#
# _framework density 20.127181
#
# number of rings (size 3 to 8) (size 9 to 14) (size 15 to 20)
#    0.000    0.571    4.286    3.857    4.000    1.143 
#    1.286    0.714    0.000    0.000    0.000    0.000 
#    0.000    0.000    0.000    0.000    0.000    0.000 
#
# Total GULP energy -156500.281680 kJ/mol
# GULP energy per Si atom -5589.295774 kJ/mol
# Density = 2.008137 g / cm^3
# Si number density = 20.127181 Si / 1000 Ang^3
#
#
#
# Elastic Constant Matrix: (Units=GPa)
#
#
# Indices 1 2 3 4 5 6 
#
# 1 84.6162 44.0394 11.1622 0.0000 0.0000 0.0000
# 2 44.0394 100.7898 42.9393 0.0000 0.0000 0.0000
# 3 11.1622 42.9393 109.2702 0.0000 0.0000 0.0000
# 4 0.0000 0.0000 0.0000 -76.5637 0.0000 0.0000
# 5 0.0000 0.0000 0.0000 0.0000 34.7978 0.0000
# 6 0.0000 0.0000 0.0000 0.0000 0.0000 106.3307
#
#
#
# Elastic Compliance Matrix: (Units=1/GPa)
#
#
# Indices 1 2 3 4 5 6 
#
# 1 0.015447 -0.007299 0.001290 0.000000 0.000000 0.000000
# 2 -0.007299 0.015366 -0.005293 0.000000 0.000000 0.000000
# 3 0.001290 -0.005293 0.011100 0.000000 0.000000 0.000000
# 4 0.000000 0.000000 0.000000 -0.013061 0.000000 0.000000
# 5 0.000000 0.000000 0.000000 0.000000 0.028737 0.000000
# 6 0.000000 0.000000 0.000000 0.000000 0.000000 0.009405
#
#
# Mechanical properties :
#
#
# Convention : Reuss Voigt Hill
#
# Bulk Modulus (GPa) = 51.78803 54.55091 53.16947
# Shear Modulus (GPa) = 52.06591 26.01530 39.04060
#
# Velocity S-wave (km/s) = 5.09162 3.59910 4.40898
# Velocity P-wave (km/s) = 7.76868 6.66583 7.23829
#
# Compressibility (1/GPa) = 0.01930948
#
# Stress axis : x y z
#
# Youngs Moduli (GPa) = 64.73857 65.08003 90.09336
#
# Poissons Ratio (x) = 0.47502 -0.11625
# Poissons Ratio (y) = 0.47253 0.47682
# Poissons Ratio (z) = -0.08354 0.34444
#
# Static dielectric constant tensor:
#      x y z
#    x 1.990010 0.000000 0.000000 
#    y 0.000000 1.696690 0.000000 
#    z 0.000000 0.000000 1.686620 
# 
# From -- ./inp_files/20908.got.cif
#   From: 2010.05.17/outbox.cif.g08.bks.cpg/sg24_11_cif.got.tgz:20908.got - 2010.06.04 00:33:39.
