data_PCOD9335133
_publ_section_title
;
Structure prediction by ZEFSAII (Michael W. Deem and Ramdas Pophale) SiO2 
 PCOD9335133
Probable space group: I 21 21 21
;
_chemical_formula_sum "Si O2"
_cell_formula_units_Z 48
_cell_length_a 8.936955
_cell_length_b 13.144303
_cell_length_c 20.038364
_cell_angle_alpha 90.000000
_cell_angle_beta 90.000000
_cell_angle_gamma 90.000000
_cell_volume 2353.907509
_symmetry_space_group_name_H-M "I 21 21 21"
_symmetry_group_IT_number 24
_symmetry_cell_setting 'orthorhombic'
loop_
_space_group_symop_operation_xyz
x,y,z
-x,1/2-y,z
x,-y,1/2-z
1/2-x,y,-z
1/2+x,1/2+y,1/2+z
1/2-x,-y,1/2+z
1/2+x,1/2-y,-z
-x,1/2+y,1/2-z
loop_
_atom_site_type_symbol
_atom_site_label
_atom_site_fract_x
_atom_site_fract_y
_atom_site_fract_z
Si Si1 0.778845 0.500000 0.250000
Si Si2 0.160501 0.799468 0.700422
Si Si3 0.067323 0.543621 0.989809
Si Si4 0.608048 0.654988 0.451379
Si Si5 0.791895 0.221821 0.321206
Si Si6 0.000000 0.250000 0.590838
Si Si7 0.023939 0.078007 0.361897
O O1 0.674865 0.403469 0.241347
O O2 0.887825 0.497307 0.313784
O O3 0.173484 0.821249 0.622260
O O4 0.279036 0.731513 0.741189
O O5 0.000000 0.750000 0.709169
O O6 0.996811 0.446053 0.951974
O O7 0.013923 0.648760 0.954882
O O8 0.250000 0.541224 0.000000
O O9 0.991245 0.543044 0.062824
O O10 0.500000 0.750000 0.470064
O O11 0.750000 0.643857 0.500000
O O12 0.639129 0.238875 0.359941
O O13 0.887188 0.316236 0.350546
O O14 0.859963 0.112488 0.338403
#
# Coordination Sequence:
#
# PCOD9335133 Si02
#       7
#     4   8   8   8   8   4   8
#     4  10  22  42  66  96 134 176 220 280 338 408
#     4  10  22  41  67  97 129 175 230 278 336 398
#     4  12  26  42  68 103 141 179 226 279 353 416
#     4  11  26  48  68  95 132 185 236 287 328 402
#     4  10  21  41  65  97 138 171 218 274 343 414
#     4  12  24  38  68 106 140 174 206 290 346 428
#     4  10  22  42  63  98 133 176 221 268 346 416
#
# _framework density 20.391625000000001
#
# number of rings (size 3 to 8) (size 9 to 14) (size 15 to 20)
#    0.000    1.333    2.500    2.500    7.000    0.000 
#   15.000    0.000    0.000    0.000    0.000    0.000 
#    0.000    0.000    0.000    0.000    0.000    0.000 
#
# Total GULP energy -133805.441474 kJ/mol
# GULP energy per Si atom -5575.226728 kJ/mol
# Density = 2.034521 g / cm^3
# Si number density = 20.391625 Si / 1000 Ang^3
#
#
#
# Elastic Constant Matrix: (Units=GPa)
#
#
# Indices 1 2 3 4 5 6 
#
# 1 91.5919 31.8237 36.4429 0.0000 0.0000 0.0000
# 2 31.8237 93.8233 24.3554 0.0000 0.0000 0.0000
# 3 36.4429 24.3554 131.7430 0.0000 0.0000 0.0000
# 4 0.0000 0.0000 0.0000 32.9192 0.0000 0.0000
# 5 0.0000 0.0000 0.0000 0.0000 24.3167 0.0000
# 6 0.0000 0.0000 0.0000 0.0000 0.0000 25.6436
#
#
#
# Elastic Compliance Matrix: (Units=1/GPa)
#
#
# Indices 1 2 3 4 5 6 
#
# 1 0.013429 -0.003772 -0.003018 0.000000 0.000000 0.000000
# 2 -0.003772 0.012255 -0.001222 0.000000 0.000000 0.000000
# 3 -0.003018 -0.001222 0.008651 0.000000 0.000000 0.000000
# 4 0.000000 0.000000 0.000000 0.030377 0.000000 0.000000
# 5 0.000000 0.000000 0.000000 0.000000 0.041124 0.000000
# 6 0.000000 0.000000 0.000000 0.000000 0.000000 0.038996
#
#
# Mechanical properties :
#
#
# Convention : Reuss Voigt Hill
#
# Bulk Modulus (GPa) = 54.60793 55.82248 55.21520
# Shear Modulus (GPa) = 29.94734 31.54497 30.74616
#
# Velocity S-wave (km/s) = 3.83640 3.93740 3.88723
# Velocity P-wave (km/s) = 6.81628 6.93581 6.87631
#
# Compressibility (1/GPa) = 0.01831236
#
# Stress axis : x y z
#
# Youngs Moduli (GPa) = 74.46520 81.59986 115.59095
#
# Poissons Ratio (x) = 0.30777 0.34880
# Poissons Ratio (y) = 0.28086 0.14128
# Poissons Ratio (z) = 0.22470 0.09973
#
# Static dielectric constant tensor:
#      x y z
#    x 1.734460 0.000000 0.000000 
#    y 0.000000 1.710150 0.000000 
#    z 0.000000 0.000000 1.749630 
# 
# From -- ./inp_files/29531.got.cif
#   From: 2010.05.17/outbox.cif.g08.bks.cpg/sg24_15_cif.got.tgz:29531.got - 2010.06.04 00:33:39.
