data_PCOD9335687
_publ_section_title
;
Structure prediction by ZEFSAII (Michael W. Deem and Ramdas Pophale) SiO2 
 PCOD9335687
Probable space group: I 21 21 21
;
_chemical_formula_sum "Si O2"
_cell_formula_units_Z 32
_cell_length_a 14.695956
_cell_length_b 10.152755
_cell_length_c 9.524386
_cell_angle_alpha 90.000000
_cell_angle_beta 90.000000
_cell_angle_gamma 90.000000
_cell_volume 1421.080687
_symmetry_space_group_name_H-M "I 21 21 21"
_symmetry_group_IT_number 24
_symmetry_cell_setting 'orthorhombic'
loop_
_space_group_symop_operation_xyz
x,y,z
-x,1/2-y,z
x,-y,1/2-z
1/2-x,y,-z
1/2+x,1/2+y,1/2+z
1/2-x,-y,1/2+z
1/2+x,1/2-y,-z
-x,1/2+y,1/2-z
loop_
_atom_site_type_symbol
_atom_site_label
_atom_site_fract_x
_atom_site_fract_y
_atom_site_fract_z
Si Si1 0.396882 0.236072 0.634185
Si Si2 0.155021 0.185298 0.081509
Si Si3 0.142750 0.512521 0.472136
Si Si4 0.049007 0.028381 0.590078
O O1 0.500000 0.250000 0.686659
O O2 0.339655 0.160213 0.751570
O O3 0.362309 0.384851 0.626578
O O4 0.407776 0.157887 0.486220
O O5 0.123298 0.336839 0.067483
O O6 0.250000 0.169593 0.000000
O O7 0.084519 0.088520 0.008338
O O8 0.250000 0.517236 0.500000
O O9 0.061350 0.472395 0.579788
O O10 0.076110 0.000000 0.750000
#
# Coordination Sequence:
#
# PCOD9335687 Si02
#       4
#     8   8   8   8
#     4  10  22  43  68  94 129 174 218 270 332 391
#     4  11  24  41  66  96 128 171 220 271 328 392
#     4  10  23  41  67  98 130 168 218 272 326 386
#     4  11  25  43  65  96 134 175 219 271 329 393
#
# _framework density 22.518075
#
# number of rings (size 3 to 8) (size 9 to 14) (size 15 to 20)
#    0.000    1.500    0.000    3.750    0.000   19.000 
#    0.000    0.000    0.000    0.000    0.000    0.000 
#    0.000    0.000    0.000    0.000    0.000    0.000 
#
# Total GULP energy -89182.532227 kJ/mol
# GULP energy per Si atom -5573.908264 kJ/mol
# Density = 2.246682 g / cm^3
# Si number density = 22.518075 Si / 1000 Ang^3
#
#
#
# Elastic Constant Matrix: (Units=GPa)
#
#
# Indices 1 2 3 4 5 6 
#
# 1 62.6552 28.3384 8.8529 0.0000 0.0000 0.0000
# 2 28.3384 145.4460 7.0607 0.0000 0.0000 0.0000
# 3 8.8529 7.0607 77.2707 0.0000 0.0000 0.0000
# 4 0.0000 0.0000 0.0000 25.1840 0.0000 0.0000
# 5 0.0000 0.0000 0.0000 0.0000 1.0937 0.0000
# 6 0.0000 0.0000 0.0000 0.0000 0.0000 17.9448
#
#
#
# Elastic Compliance Matrix: (Units=1/GPa)
#
#
# Indices 1 2 3 4 5 6 
#
# 1 0.017728 -0.003370 -0.001723 0.000000 0.000000 0.000000
# 2 -0.003370 0.007547 -0.000303 0.000000 0.000000 0.000000
# 3 -0.001723 -0.000303 0.013167 0.000000 0.000000 0.000000
# 4 0.000000 0.000000 0.000000 0.039708 0.000000 0.000000
# 5 0.000000 0.000000 0.000000 0.000000 0.914333 0.000000
# 6 0.000000 0.000000 0.000000 0.000000 0.000000 0.055726
#
#
# Mechanical properties :
#
#
# Convention : Reuss Voigt Hill
#
# Bulk Modulus (GPa) = 36.16948 41.54177 38.85562
# Shear Modulus (GPa) = 4.68069 24.91918 14.79994
#
# Velocity S-wave (km/s) = 1.44331 3.33021 2.56646
# Velocity P-wave (km/s) = 4.34452 5.76848 5.10638
#
# Compressibility (1/GPa) = 0.02764762
#
# Stress axis : x y z
#
# Youngs Moduli (GPa) = 56.40707 132.50595 75.94942
#
# Poissons Ratio (x) = 0.44661 0.13087
# Poissons Ratio (y) = 0.19012 0.02305
# Poissons Ratio (z) = 0.09720 0.04021
#
# Static dielectric constant tensor:
#      x y z
#    x 1.764900 0.000000 0.000000 
#    y 0.000000 1.892780 0.000000 
#    z 0.000000 0.000000 1.899050 
# 
# From -- ./inp_files/10267.got.cif
#   From: 2010.05.17/outbox.cif.g08.bks.cpg/sg24_6_cif.got.tgz:10267.got - 2010.06.04 00:33:39.
