data_PCOD9335667
_publ_section_title
;
Structure prediction by ZEFSAII (Michael W. Deem and Ramdas Pophale) SiO2 
 PCOD9335667
Probable space group: I 21 21 21
;
_chemical_formula_sum "Si O2"
_cell_formula_units_Z 44
_cell_length_a 9.428652
_cell_length_b 9.068805
_cell_length_c 24.720457
_cell_angle_alpha 90.000000
_cell_angle_beta 90.000000
_cell_angle_gamma 90.000000
_cell_volume 2113.762387
_symmetry_space_group_name_H-M "I 21 21 21"
_symmetry_group_IT_number 24
_symmetry_cell_setting 'orthorhombic'
loop_
_space_group_symop_operation_xyz
x,y,z
-x,1/2-y,z
x,-y,1/2-z
1/2-x,y,-z
1/2+x,1/2+y,1/2+z
1/2-x,-y,1/2+z
1/2+x,1/2-y,-z
-x,1/2+y,1/2-z
loop_
_atom_site_type_symbol
_atom_site_label
_atom_site_fract_x
_atom_site_fract_y
_atom_site_fract_z
Si Si1 0.500000 0.750000 0.606161
Si Si2 0.847536 0.325898 0.266517
Si Si3 0.087010 0.545381 0.489473
Si Si4 0.864145 0.657040 0.856849
Si Si5 0.212695 0.178158 0.838610
Si Si6 0.500000 0.750000 0.036269
Si Si7 0.000000 0.750000 0.578535
O O1 0.452512 0.617806 0.566945
O O2 0.374116 0.817404 0.641279
O O3 0.861165 0.500000 0.250000
O O4 0.778853 0.299005 0.325332
O O5 0.729260 0.271993 0.223019
O O6 0.000000 0.250000 0.261883
O O7 0.250000 0.586424 0.500000
O O8 0.064400 0.374263 0.498283
O O9 0.989307 0.616479 0.536614
O O10 0.863366 0.481044 0.845175
O O11 0.000000 0.750000 0.834940
O O12 0.880409 0.690678 0.920907
O O13 0.129383 0.277960 0.881162
#
# Coordination Sequence:
#
# PCOD9335667 Si02
#       7
#     4   8   8   8   8   4   4
#     4  11  24  40  68  95 133 170 224 270 343 372
#     4  10  22  43  65  97 134 170 219 272 335 409
#     4  11  23  40  62  94 126 170 222 272 323 399
#     4   9  21  43  63  93 134 172 216 271 340 399
#     4  11  21  41  67  94 130 172 221 277 333 400
#     4  10  22  43  60  91 135 170 223 266 340 394
#     4  11  20  39  64  88 122 164 219 280 315 386
#
# _framework density 20.815963
#
# number of rings (size 3 to 8) (size 9 to 14) (size 15 to 20)
#    0.545    1.091    4.545    0.000    1.273    1.455 
#   13.091    0.000    0.000    0.000    0.000    0.000 
#    0.000    0.000    0.000    0.000    0.000    0.000 
#
# Total GULP energy -122502.591596 kJ/mol
# GULP energy per Si atom -5568.299618 kJ/mol
# Density = 2.076858 g / cm^3
# Si number density = 20.815963 Si / 1000 Ang^3
#
#
#
# Elastic Constant Matrix: (Units=GPa)
#
#
# Indices 1 2 3 4 5 6 
#
# 1 71.6966 21.3952 13.5953 0.0000 0.0000 0.0000
# 2 21.3952 58.1819 20.2058 0.0000 0.0000 0.0000
# 3 13.5953 20.2058 60.9164 0.0000 0.0000 0.0000
# 4 0.0000 0.0000 0.0000 8.8841 0.0000 0.0000
# 5 0.0000 0.0000 0.0000 0.0000 -27.2084 0.0000
# 6 0.0000 0.0000 0.0000 0.0000 0.0000 35.6671
#
#
#
# Elastic Compliance Matrix: (Units=1/GPa)
#
#
# Indices 1 2 3 4 5 6 
#
# 1 0.015842 -0.005196 -0.001812 0.000000 0.000000 0.000000
# 2 -0.005196 0.021130 -0.005849 0.000000 0.000000 0.000000
# 3 -0.001812 -0.005849 0.018760 0.000000 0.000000 0.000000
# 4 0.000000 0.000000 0.000000 0.112561 0.000000 0.000000
# 5 0.000000 0.000000 0.000000 0.000000 -0.036753 0.000000
# 6 0.000000 0.000000 0.000000 0.000000 0.000000 0.028037
#
#
# Mechanical properties :
#
#
# Convention : Reuss Voigt Hill
#
# Bulk Modulus (GPa) = 33.31387 33.46526 33.38956
# Shear Modulus (GPa) = 25.60212 12.50847 19.05530
#
# Velocity S-wave (km/s) = 3.51084 2.45400 3.02887
# Velocity P-wave (km/s) = 5.69854 4.91336 5.32046
#
# Compressibility (1/GPa) = 0.03001753
#
# Stress axis : x y z
#
# Youngs Moduli (GPa) = 63.12378 47.32716 53.30378
#
# Poissons Ratio (x) = 0.24592 0.09659
# Poissons Ratio (y) = 0.32801 0.31177
# Poissons Ratio (z) = 0.11438 0.27681
#
# Static dielectric constant tensor:
#      x y z
#    x 1.763700 0.000000 0.000000 
#    y 0.000000 1.837950 0.000000 
#    z 0.000000 0.000000 1.758830 
# 
# From -- ./inp_files/9689.got.cif
#   From: 2010.05.17/outbox.cif.g08.bks.cpg/sg24_5_cif.got.tgz:9689.got - 2010.06.04 00:33:39.
