data_PCOD9335498
_publ_section_title
;
Structure prediction by ZEFSAII (Michael W. Deem and Ramdas Pophale) SiO2 
 PCOD9335498
Probable space group: I 21 21 21
;
_chemical_formula_sum "Si O2"
_cell_formula_units_Z 48
_cell_length_a 12.477183
_cell_length_b 30.712908
_cell_length_c 6.488728
_cell_angle_alpha 90.000000
_cell_angle_beta 90.000000
_cell_angle_gamma 90.000000
_cell_volume 2486.549179
_symmetry_space_group_name_H-M "I 21 21 21"
_symmetry_group_IT_number 24
_symmetry_cell_setting 'orthorhombic'
loop_
_space_group_symop_operation_xyz
x,y,z
-x,1/2-y,z
x,-y,1/2-z
1/2-x,y,-z
1/2+x,1/2+y,1/2+z
1/2-x,-y,1/2+z
1/2+x,1/2-y,-z
-x,1/2+y,1/2-z
loop_
_atom_site_type_symbol
_atom_site_label
_atom_site_fract_x
_atom_site_fract_y
_atom_site_fract_z
Si Si1 0.144868 0.599839 0.611861
Si Si2 0.500000 0.750000 0.924774
Si Si3 0.250000 0.552266 0.000000
Si Si4 0.964937 0.046695 0.259398
Si Si5 0.140566 0.198472 0.112935
Si Si6 0.994924 0.675052 0.771416
Si Si7 0.136696 0.882237 0.083630
O O1 0.250000 0.617413 0.500000
O O2 0.078696 0.568767 0.453587
O O3 0.076585 0.639343 0.693758
O O4 0.193757 0.575597 0.807886
O O5 0.595435 0.731342 0.784092
O O6 0.460951 0.711082 0.072159
O O7 0.141505 0.534393 0.106447
O O8 0.045310 0.082228 0.360891
O O9 0.023125 0.000000 0.250000
O O10 0.151435 0.150979 0.223134
O O11 0.250000 0.210906 0.000000
O O12 0.054575 0.196198 0.930840
O O13 0.906107 0.648565 0.900369
O O14 0.250000 0.900481 0.000000
#
# Coordination Sequence:
#
# PCOD9335498 Si02
#       7
#     8   4   4   8   8   8   8
#     4  10  22  40  66  93 130 179 217 267 339 399
#     4  10  26  38  66  96 128 160 216 282 318 396
#     4  10  22  40  64  96 130 180 224 270 328 406
#     4  11  24  40  65 100 136 172 224 280 338 398
#     4  11  22  43  69  92 124 175 220 264 337 400
#     4  11  21  44  64  91 131 170 219 269 330 399
#     4  11  22  41  70  95 125 180 225 273 332 403
#
# _framework density 19.303861999999999
#
# number of rings (size 3 to 8) (size 9 to 14) (size 15 to 20)
#    0.000    1.333    5.000    0.500    3.500    0.000 
#    0.000   10.833    0.000    0.000    0.000    0.000 
#    0.000    0.000    0.000    0.000    0.000    0.000 
#
# Total GULP energy -133732.722426 kJ/mol
# GULP energy per Si atom -5572.196768 kJ/mol
# Density = 1.925993 g / cm^3
# Si number density = 19.303862 Si / 1000 Ang^3
#
#
#
# Elastic Constant Matrix: (Units=GPa)
#
#
# Indices 1 2 3 4 5 6 
#
# 1 78.1785 35.5454 34.8954 0.0007 -0.0003 -0.0019
# 2 35.5454 76.8526 26.3114 -0.0033 0.0014 -0.0013
# 3 34.8954 26.3114 103.5935 -0.0196 -0.0034 -0.0037
# 4 0.0007 -0.0033 -0.0196 24.0507 0.0080 -0.0104
# 5 -0.0003 0.0014 -0.0034 0.0080 29.7234 -0.0008
# 6 -0.0019 -0.0013 -0.0037 -0.0104 -0.0008 3.2167
#
#
#
# Elastic Compliance Matrix: (Units=1/GPa)
#
#
# Indices 1 2 3 4 5 6 
#
# 1 0.017769 -0.006757 -0.004269 -0.000005 0.000000 0.000003
# 2 -0.006757 0.016820 -0.001996 0.000001 -0.000001 0.000000
# 3 -0.004269 -0.001996 0.011598 0.000009 0.000001 0.000010
# 4 -0.000005 0.000001 0.000009 0.041579 -0.000011 0.000135
# 5 0.000000 -0.000001 0.000001 -0.000011 0.033644 0.000009
# 6 0.000003 0.000000 0.000010 0.000135 0.000009 0.310878
#
#
# Mechanical properties :
#
#
# Convention : Reuss Voigt Hill
#
# Bulk Modulus (GPa) = 49.64469 50.23656 49.94063
# Shear Modulus (GPa) = 10.75161 22.18965 16.47063
#
# Velocity S-wave (km/s) = 2.36257 3.39409 2.92418
# Velocity P-wave (km/s) = 5.76330 6.43742 6.10967
#
# Compressibility (1/GPa) = 0.02014314
#
# Stress axis : x y z
#
# Youngs Moduli (GPa) = 56.27789 59.45157 86.21998
#
# Poissons Ratio (x) = 0.40170 0.36810
# Poissons Ratio (y) = 0.38025 0.17211
# Poissons Ratio (z) = 0.24027 0.11868
#
# Static dielectric constant tensor:
#      x y z
#    x 1.621870 0.000010 -0.000010 
#    y 0.000010 1.675660 0.000000 
#    z -0.000010 0.000000 1.727980 
# 
# From -- ./inp_files/3778.got.cif
#   From: 2010.05.17/outbox.cif.g08.bks.cpg/sg24_2_cif.got.tgz:3778.got - 2010.06.04 00:33:39.
