data_PCOD9335751
_publ_section_title
;
Structure prediction by ZEFSAII (Michael W. Deem and Ramdas Pophale) SiO2 
 PCOD9335751
Probable space group: I 21 21 21
;
_chemical_formula_sum "Si O2"
_cell_formula_units_Z 64
_cell_length_a 14.873485
_cell_length_b 16.742448
_cell_length_c 11.205991
_cell_angle_alpha 90.000000
_cell_angle_beta 90.000000
_cell_angle_gamma 90.000000
_cell_volume 2790.499621
_symmetry_space_group_name_H-M "I 21 21 21"
_symmetry_group_IT_number 24
_symmetry_cell_setting 'orthorhombic'
loop_
_space_group_symop_operation_xyz
x,y,z
-x,1/2-y,z
x,-y,1/2-z
1/2-x,y,-z
1/2+x,1/2+y,1/2+z
1/2-x,-y,1/2+z
1/2+x,1/2-y,-z
-x,1/2+y,1/2-z
loop_
_atom_site_type_symbol
_atom_site_label
_atom_site_fract_x
_atom_site_fract_y
_atom_site_fract_z
Si Si1 0.139328 0.652398 0.264068
Si Si2 0.011809 0.845759 0.065332
Si Si3 0.480244 0.509378 0.114073
Si Si4 0.899062 0.782830 0.532514
Si Si5 0.879722 0.608421 0.520871
Si Si6 0.291381 0.804988 0.873006
Si Si7 0.797851 0.070144 0.873081
Si Si8 0.767738 0.421491 0.190520
O O1 0.055985 0.633803 0.175460
O O2 0.111101 0.683409 0.396948
O O3 0.187604 0.725826 0.199294
O O4 0.215935 0.585224 0.282160
O O5 0.000000 0.750000 0.035547
O O6 0.114575 0.850765 0.106806
O O7 0.997721 0.908392 0.957050
O O8 0.515392 0.500000 0.250000
O O9 0.525063 0.434426 0.042264
O O10 0.372793 0.498379 0.127220
O O11 0.852118 0.698261 0.557649
O O12 0.857583 0.848347 0.620238
O O13 0.000000 0.750000 0.547699
O O14 0.851438 0.611554 0.383907
O O15 0.811155 0.556520 0.598952
O O16 0.232145 0.862373 0.791351
O O17 0.250000 0.786647 0.000000
O O18 0.750000 0.063309 0.000000
O O19 0.802165 0.500000 0.250000
#
# Coordination Sequence:
#
# PCOD9335751 Si02
#       8
#     8   8   8   8   8   8   8   8
#     4  10  22  44  72 102 141 193 252 307 359 451
#     4  10  25  48  74 104 141 199 251 304 376 448
#     4  12  27  47  67 104 147 186 249 308 382 449
#     4  11  19  40  69 103 143 179 243 301 374 434
#     4  11  24  41  66  99 140 187 229 300 360 442
#     4  11  23  39  68 103 141 184 243 300 363 446
#     4  10  24  42  71 108 142 193 250 313 371 439
#     4  11  24  38  61  96 139 185 225 284 369 434
#
# _framework density 22.934963
#
# number of rings (size 3 to 8) (size 9 to 14) (size 15 to 20)
#    0.000    1.250    2.500    3.000    8.750    3.000 
#    2.250    3.750    0.000    0.000    0.000    0.000 
#    0.000    0.000    0.000    0.000    0.000    0.000 
#
# Total GULP energy -178524.508637 kJ/mol
# GULP energy per Si atom -5578.890895 kJ/mol
# Density = 2.288276 g / cm^3
# Si number density = 22.934963 Si / 1000 Ang^3
#
#
#
# Elastic Constant Matrix: (Units=GPa)
#
#
# Indices 1 2 3 4 5 6 
#
# 1 96.8024 17.6030 25.7096 0.0000 0.0000 0.0000
# 2 17.6030 87.0481 34.7780 0.0000 0.0000 0.0000
# 3 25.7096 34.7780 69.1548 0.0000 0.0000 0.0000
# 4 0.0000 0.0000 0.0000 25.5561 0.0000 0.0000
# 5 0.0000 0.0000 0.0000 0.0000 8.3646 0.0000
# 6 0.0000 0.0000 0.0000 0.0000 0.0000 -0.2614
#
#
#
# Elastic Compliance Matrix: (Units=1/GPa)
#
#
# Indices 1 2 3 4 5 6 
#
# 1 0.011503 -0.000773 -0.003888 0.000000 0.000000 0.000000
# 2 -0.000773 0.014428 -0.006969 0.000000 0.000000 0.000000
# 3 -0.003888 -0.006969 0.019410 0.000000 0.000000 0.000000
# 4 0.000000 0.000000 0.000000 0.039130 0.000000 0.000000
# 5 0.000000 0.000000 0.000000 0.000000 0.119552 0.000000
# 6 0.000000 0.000000 0.000000 0.000000 0.000000 -3.825815
#
#
# Mechanical properties :
#
#
# Convention : Reuss Voigt Hill
#
# Bulk Modulus (GPa) = 45.28360 45.46515 45.37438
# Shear Modulus (GPa) = -1.39230 18.39284 8.50027
#
# Velocity S-wave (km/s) = -0.77999 2.83496 1.92725
# Velocity P-wave (km/s) = 4.35615 5.53015 4.97788
#
# Compressibility (1/GPa) = 0.02208305
#
# Stress axis : x y z
#
# Youngs Moduli (GPa) = 86.93031 69.30784 51.51905
#
# Poissons Ratio (x) = 0.05357 0.20030
# Poissons Ratio (y) = 0.06719 0.35902
# Poissons Ratio (z) = 0.33798 0.48299
#
# Static dielectric constant tensor:
#      x y z
#    x 2.317970 0.000000 0.000000 
#    y 0.000000 2.021270 0.000000 
#    z 0.000000 0.000000 2.098650 
# 
# From -- ./inp_files/21062.got.cif
#   From: 2010.05.17/outbox.cif.g08.bks.cpg/sg24_11_cif.got.tgz:21062.got - 2010.06.04 00:33:39.
