data_PCOD9335650
_publ_section_title
;
Structure prediction by ZEFSAII (Michael W. Deem and Ramdas Pophale) SiO2 
 PCOD9335650
Probable space group: I 21 21 21
;
_chemical_formula_sum "Si O2"
_cell_formula_units_Z 60
_cell_length_a 11.374577
_cell_length_b 26.082665
_cell_length_c 9.116977
_cell_angle_alpha 90.000000
_cell_angle_beta 90.000000
_cell_angle_gamma 90.000000
_cell_volume 2704.818185
_symmetry_space_group_name_H-M "I 21 21 21"
_symmetry_group_IT_number 24
_symmetry_cell_setting 'orthorhombic'
loop_
_space_group_symop_operation_xyz
x,y,z
-x,1/2-y,z
x,-y,1/2-z
1/2-x,y,-z
1/2+x,1/2+y,1/2+z
1/2-x,-y,1/2+z
1/2+x,1/2-y,-z
-x,1/2+y,1/2-z
loop_
_atom_site_type_symbol
_atom_site_label
_atom_site_fract_x
_atom_site_fract_y
_atom_site_fract_z
Si Si1 0.558511 0.694800 0.735756
Si Si2 0.516187 0.810576 0.060237
Si Si3 0.922424 0.979684 0.404057
Si Si4 0.720403 0.649177 0.170764
Si Si5 0.713041 0.853866 0.238671
Si Si6 0.750000 0.059441 0.500000
Si Si7 0.803786 0.452333 0.158193
Si Si8 0.407635 0.636588 0.540543
O O1 0.500000 0.750000 0.709751
O O2 0.698445 0.694907 0.764727
O O3 0.531208 0.656977 0.599976
O O4 0.505729 0.673120 0.890618
O O5 0.500000 0.750000 0.061994
O O6 0.417522 0.837599 0.162451
O O7 0.646493 0.821000 0.116763
O O8 0.880398 0.923177 0.440042
O O9 0.061261 0.969271 0.378150
O O10 0.875620 0.000000 0.250000
O O11 0.866069 0.022843 0.508766
O O12 0.768868 0.598322 0.250683
O O13 0.750000 0.643383 0.000000
O O14 0.747689 0.904198 0.144140
O O15 0.618036 0.855839 0.371063
O O16 0.822611 0.836469 0.338729
O O17 0.752904 0.500000 0.250000
O O18 0.750000 0.446085 0.000000
#
# Coordination Sequence:
#
# PCOD9335650 Si02
#       8
#     8   8   8   8   8   4   8   8
#     4  10  22  42  71  99 132 182 221 276 342 404
#     4  10  24  42  68 104 134 171 229 283 329 399
#     4  11  24  42  66  92 136 173 221 276 335 404
#     4  10  22  43  69  96 134 177 224 272 336 406
#     4  11  25  40  67  98 134 175 222 280 332 406
#     4  12  24  44  70  98 130 186 220 278 340 396
#     4  11  25  44  66  95 129 177 224 277 332 401
#     4  11  23  43  63  98 136 172 224 274 342 401
#
# _framework density 22.182637
#
# number of rings (size 3 to 8) (size 9 to 14) (size 15 to 20)
#    0.000    1.333    2.667    2.000    3.733    2.667 
#    1.200    0.000    0.000    0.000    0.000    0.000 
#    0.000    0.000    0.000    0.000    0.000    0.000 
#
# Total GULP energy -167114.236887 kJ/mol
# GULP energy per Si atom -5570.474563 kJ/mol
# Density = 2.213215 g / cm^3
# Si number density = 22.182637 Si / 1000 Ang^3
#
#
#
# Elastic Constant Matrix: (Units=GPa)
#
#
# Indices 1 2 3 4 5 6 
#
# 1 72.9140 29.1277 47.4867 0.0003 -0.0001 0.0000
# 2 29.1277 84.3562 18.6222 0.0002 0.0000 0.0000
# 3 47.4867 18.6222 64.4597 -0.0019 0.0007 0.0002
# 4 0.0003 0.0002 -0.0019 38.8961 0.0000 0.0000
# 5 -0.0001 0.0000 0.0007 0.0000 10.4092 0.0001
# 6 0.0000 0.0000 0.0002 0.0000 0.0001 28.1311
#
#
#
# Elastic Compliance Matrix: (Units=1/GPa)
#
#
# Indices 1 2 3 4 5 6 
#
# 1 0.028633 -0.005587 -0.019480 -0.000001 0.000002 0.000000
# 2 -0.005587 0.013752 0.000143 0.000000 0.000000 0.000000
# 3 -0.019480 0.000143 0.029823 0.000002 -0.000002 0.000000
# 4 -0.000001 0.000000 0.000002 0.025710 0.000000 0.000000
# 5 0.000002 0.000000 -0.000002 0.000000 0.096068 0.000000
# 6 0.000000 0.000000 0.000000 0.000000 0.000000 0.035548
#
#
# Mechanical properties :
#
#
# Convention : Reuss Voigt Hill
#
# Bulk Modulus (GPa) = 44.72140 45.80036 45.26088
# Shear Modulus (GPa) = 17.43166 23.92018 20.67592
#
# Velocity S-wave (km/s) = 2.80630 3.28735 3.05631
# Velocity P-wave (km/s) = 5.54118 5.92458 5.73609
#
# Compressibility (1/GPa) = 0.02236066
#
# Stress axis : x y z
#
# Youngs Moduli (GPa) = 34.92474 72.71663 33.53139
#
# Poissons Ratio (x) = 0.40623 0.65318
# Poissons Ratio (y) = 0.19511 -0.00478
# Poissons Ratio (z) = 0.68032 -0.01037
#
# Static dielectric constant tensor:
#      x y z
#    x 1.926770 0.000000 0.000000 
#    y 0.000000 1.851430 0.000000 
#    z 0.000000 0.000000 1.794110 
# 
# From -- ./inp_files/11547.got.cif
#   From: 2010.05.17/outbox.cif.g08.bks.cpg/sg24_6_cif.got.tgz:11547.got - 2010.06.04 00:33:39.
