data_PCOD9335332
_publ_section_title
;
Structure prediction by ZEFSAII (Michael W. Deem and Ramdas Pophale) SiO2 
 PCOD9335332
Probable space group: I 21 21 21
;
_chemical_formula_sum "Si O2"
_cell_formula_units_Z 64
_cell_length_a 16.658432
_cell_length_b 9.132800
_cell_length_c 22.438560
_cell_angle_alpha 90.000000
_cell_angle_beta 90.000000
_cell_angle_gamma 90.000000
_cell_volume 3413.760508
_symmetry_space_group_name_H-M "I 21 21 21"
_symmetry_group_IT_number 24
_symmetry_cell_setting 'orthorhombic'
loop_
_space_group_symop_operation_xyz
x,y,z
-x,1/2-y,z
x,-y,1/2-z
1/2-x,y,-z
1/2+x,1/2+y,1/2+z
1/2-x,-y,1/2+z
1/2+x,1/2-y,-z
-x,1/2+y,1/2-z
loop_
_atom_site_type_symbol
_atom_site_label
_atom_site_fract_x
_atom_site_fract_y
_atom_site_fract_z
Si Si1 0.592564 0.282969 0.271440
Si Si2 0.367116 0.464701 0.354773
Si Si3 0.550333 0.499218 0.120018
Si Si4 0.919049 0.581302 0.015322
Si Si5 0.321975 0.785469 0.348580
Si Si6 0.158673 0.628287 0.979579
Si Si7 0.194126 0.827254 0.444134
Si Si8 0.942983 0.879073 0.471169
O O1 0.500000 0.250000 0.250569
O O2 0.628463 0.132904 0.296399
O O3 0.582865 0.394808 0.326943
O O4 0.652470 0.327930 0.218680
O O5 0.457881 0.519342 0.364742
O O6 0.315013 0.610396 0.352187
O O7 0.343666 0.355846 0.408443
O O8 0.601421 0.351859 0.117145
O O9 0.557074 0.566512 0.054313
O O10 0.844685 0.478323 0.032777
O O11 0.993482 0.503896 0.050198
O O12 0.890236 0.749039 0.016666
O O13 0.246489 0.847857 0.384735
O O14 0.250000 0.626969 0.000000
O O15 0.115644 0.472268 0.987540
O O16 0.250000 0.776129 0.500000
O O17 0.121236 0.712873 0.432390
O O18 0.000000 0.750000 0.496951
#
# Coordination Sequence:
#
# PCOD9335332 Si02
#       8
#     8   8   8   8   8   8   8   8
#     4  10  22  39  54  84 120 162 214 242 288 376
#     4  11  22  35  56  81 118 164 203 243 292 367
#     4  11  21  35  57  81 114 162 204 242 288 364
#     4  11  22  37  57  79 117 161 198 247 305 366
#     4  12  23  35  57  78 119 158 202 257 302 337
#     4  12  23  35  56  87 121 162 196 246 310 367
#     4  11  22  37  52  83 114 153 204 258 306 358
#     4  10  22  36  57  81 113 155 205 248 294 366
#
# _framework density 18.747653
#
# number of rings (size 3 to 8) (size 9 to 14) (size 15 to 20)
#    0.000    1.000    3.750    4.500    1.750    2.000 
#    0.000    0.000    0.000    0.000    0.000    0.000 
#    0.000   82.000    0.000    0.125    0.000    0.000 
#
# Total GULP energy -178290.965167 kJ/mol
# GULP energy per Si atom -5571.592661 kJ/mol
# Density = 1.870498 g / cm^3
# Si number density = 18.747653 Si / 1000 Ang^3
#
#
#
# Elastic Constant Matrix: (Units=GPa)
#
#
# Indices 1 2 3 4 5 6 
#
# 1 84.9155 29.6403 35.2767 0.0000 0.0000 0.0000
# 2 29.6403 81.6599 10.7233 0.0000 0.0000 0.0000
# 3 35.2767 10.7233 60.6576 0.0000 0.0000 0.0000
# 4 0.0000 0.0000 0.0000 22.2342 0.0000 0.0000
# 5 0.0000 0.0000 0.0000 0.0000 27.6272 0.0000
# 6 0.0000 0.0000 0.0000 0.0000 0.0000 30.6960
#
#
#
# Elastic Compliance Matrix: (Units=1/GPa)
#
#
# Indices 1 2 3 4 5 6 
#
# 1 0.017381 -0.005100 -0.009207 0.000000 0.000000 0.000000
# 2 -0.005100 0.014033 0.000485 0.000000 0.000000 0.000000
# 3 -0.009207 0.000485 0.021755 0.000000 0.000000 0.000000
# 4 0.000000 0.000000 0.000000 0.044976 0.000000 0.000000
# 5 0.000000 0.000000 0.000000 0.000000 0.036196 0.000000
# 6 0.000000 0.000000 0.000000 0.000000 0.000000 0.032578
#
#
# Mechanical properties :
#
#
# Convention : Reuss Voigt Hill
#
# Bulk Modulus (GPa) = 39.17584 42.05704 40.61644
# Shear Modulus (GPa) = 24.62190 26.21766 25.41978
#
# Velocity S-wave (km/s) = 3.62792 3.74364 3.68624
# Velocity P-wave (km/s) = 6.20410 6.41626 6.31107
#
# Compressibility (1/GPa) = 0.02552594
#
# Stress axis : x y z
#
# Youngs Moduli (GPa) = 57.53257 71.25878 45.96707
#
# Poissons Ratio (x) = 0.36342 0.42322
# Poissons Ratio (y) = 0.29341 -0.02230
# Poissons Ratio (z) = 0.52970 -0.03457
#
# Static dielectric constant tensor:
#      x y z
#    x 1.661610 0.000000 0.000000 
#    y 0.000000 1.738290 0.000000 
#    z 0.000000 0.000000 1.658240 
# 
# From -- ./inp_files/35851.got.cif
#   From: 2010.05.17/outbox.cif.g08.bks.cpg/sg24_18_cif.got.tgz:35851.got - 2010.06.04 00:33:39.
