data_PCOD9335247
_publ_section_title
;
Structure prediction by ZEFSAII (Michael W. Deem and Ramdas Pophale) SiO2 
 PCOD9335247
Probable space group: I 21 21 21
;
_chemical_formula_sum "Si O2"
_cell_formula_units_Z 32
_cell_length_a 10.734600
_cell_length_b 7.322310
_cell_length_c 17.787783
_cell_angle_alpha 90.000000
_cell_angle_beta 90.000000
_cell_angle_gamma 90.000000
_cell_volume 1398.156545
_symmetry_space_group_name_H-M "I 21 21 21"
_symmetry_group_IT_number 24
_symmetry_cell_setting 'orthorhombic'
loop_
_space_group_symop_operation_xyz
x,y,z
-x,1/2-y,z
x,-y,1/2-z
1/2-x,y,-z
1/2+x,1/2+y,1/2+z
1/2-x,-y,1/2+z
1/2+x,1/2-y,-z
-x,1/2+y,1/2-z
loop_
_atom_site_type_symbol
_atom_site_label
_atom_site_fract_x
_atom_site_fract_y
_atom_site_fract_z
Si Si1 0.125215 0.863447 0.979232
Si Si2 0.363781 0.680028 0.704235
Si Si3 0.606915 0.400022 0.174549
Si Si4 0.872570 0.258087 0.039981
O O1 0.000000 0.750000 0.987183
O O2 0.120727 0.962987 0.897004
O O3 0.250000 0.750888 0.000000
O O4 0.137607 0.022466 0.042887
O O5 0.500000 0.750000 0.733733
O O6 0.330033 0.500000 0.750000
O O7 0.242729 0.811952 0.696399
O O8 0.389281 0.647654 0.615989
O O9 0.500000 0.250000 0.160334
O O10 0.564743 0.500000 0.250000
O O11 0.000000 0.250000 0.994928
O O12 0.750000 0.192508 0.000000
#
# Coordination Sequence:
#
# PCOD9335247 Si02
#       4
#     8   8   8   8
#     4  11  24  47  71 109 148 190 246 303 364 451
#     4  11  24  46  74 107 144 196 245 303 367 435
#     4  12  25  48  73 107 148 194 251 306 369 437
#     4  10  21  43  71 103 143 189 235 295 366 438
#
# _framework density 22.887280000000001
#
# number of rings (size 3 to 8) (size 9 to 14) (size 15 to 20)
#    0.000    1.000    5.000    3.000    0.000    1.000 
#   13.500    0.000    0.000    0.000    0.000    0.000 
#    0.000    0.000    0.000    0.000    0.000    0.000 
#
# Total GULP energy -89082.814304 kJ/mol
# GULP energy per Si atom -5567.675894 kJ/mol
# Density = 2.283519 g / cm^3
# Si number density = 22.887280 Si / 1000 Ang^3
#
#
#
# Elastic Constant Matrix: (Units=GPa)
#
#
# Indices 1 2 3 4 5 6 
#
# 1 199.3843 44.1801 38.5044 0.0000 0.0000 0.0000
# 2 44.1801 70.3714 57.8371 0.0000 0.0000 0.0000
# 3 38.5044 57.8371 146.3813 0.0000 0.0000 0.0000
# 4 0.0000 0.0000 0.0000 40.2846 0.0000 0.0000
# 5 0.0000 0.0000 0.0000 0.0000 27.6413 0.0000
# 6 0.0000 0.0000 0.0000 0.0000 0.0000 47.9629
#
#
#
# Elastic Compliance Matrix: (Units=1/GPa)
#
#
# Indices 1 2 3 4 5 6 
#
# 1 0.005828 -0.003552 -0.000129 0.000000 0.000000 0.000000
# 2 -0.003552 0.023209 -0.008236 0.000000 0.000000 0.000000
# 3 -0.000129 -0.008236 0.010120 0.000000 0.000000 0.000000
# 4 0.000000 0.000000 0.000000 0.024823 0.000000 0.000000
# 5 0.000000 0.000000 0.000000 0.000000 0.036178 0.000000
# 6 0.000000 0.000000 0.000000 0.000000 0.000000 0.020849
#
#
# Mechanical properties :
#
#
# Convention : Reuss Voigt Hill
#
# Bulk Modulus (GPa) = 65.26789 77.46447 71.36618
# Shear Modulus (GPa) = 33.34456 41.55212 37.44834
#
# Velocity S-wave (km/s) = 3.82108 4.26550 4.04939
# Velocity P-wave (km/s) = 6.93156 7.62751 7.28785
#
# Compressibility (1/GPa) = 0.01532147
#
# Stress axis : x y z
#
# Youngs Moduli (GPa) = 171.59872 43.08582 98.81801
#
# Poissons Ratio (x) = 0.15305 0.01278
# Poissons Ratio (y) = 0.60957 0.81386
# Poissons Ratio (z) = 0.02219 0.35485
#
# Static dielectric constant tensor:
#      x y z
#    x 2.042930 0.000000 0.000000 
#    y 0.000000 1.918350 0.000000 
#    z 0.000000 0.000000 1.892830 
# 
# From -- ./inp_files/30014.got.cif
#   From: 2010.05.17/outbox.cif.g08.bks.cpg/sg24_16_cif.got.tgz:30014.got - 2010.06.04 00:33:39.
