data_PCOD9335957
_publ_section_title
;
Structure prediction by ZEFSAII (Michael W. Deem and Ramdas Pophale) SiO2 
 PCOD9335957
Probable space group: I 21 21 21
;
_chemical_formula_sum "Si O2"
_cell_formula_units_Z 64
_cell_length_a 13.309440
_cell_length_b 18.551701
_cell_length_c 11.708301
_cell_angle_alpha 90.000000
_cell_angle_beta 90.000000
_cell_angle_gamma 90.000000
_cell_volume 2890.928814
_symmetry_space_group_name_H-M "I 21 21 21"
_symmetry_group_IT_number 24
_symmetry_cell_setting 'orthorhombic'
loop_
_space_group_symop_operation_xyz
x,y,z
-x,1/2-y,z
x,-y,1/2-z
1/2-x,y,-z
1/2+x,1/2+y,1/2+z
1/2-x,-y,1/2+z
1/2+x,1/2-y,-z
-x,1/2+y,1/2-z
loop_
_atom_site_type_symbol
_atom_site_label
_atom_site_fract_x
_atom_site_fract_y
_atom_site_fract_z
Si Si1 0.191354 0.667422 0.254008
Si Si2 0.991456 0.835874 0.093328
Si Si3 0.467846 0.551806 0.093403
Si Si4 0.936292 0.822521 0.467191
Si Si5 0.901625 0.561615 0.466981
Si Si6 0.282249 0.818884 0.868441
Si Si7 0.883292 0.089452 0.819425
Si Si8 0.709353 0.427697 0.188774
O O1 0.088979 0.645890 0.190261
O O2 0.157564 0.684900 0.382829
O O3 0.222674 0.739435 0.186277
O O4 0.278759 0.608252 0.258241
O O5 0.000000 0.750000 0.071383
O O6 0.104832 0.851129 0.133001
O O7 0.951481 0.878373 0.983612
O O8 0.469520 0.580550 0.223405
O O9 0.387962 0.485622 0.109483
O O10 0.556634 0.512003 0.023020
O O11 0.904012 0.846257 0.593302
O O12 0.000000 0.750000 0.464163
O O13 0.007995 0.888180 0.426304
O O14 0.816905 0.553640 0.371278
O O15 0.854401 0.598500 0.580227
O O16 0.217488 0.869390 0.787332
O O17 0.250000 0.817575 0.000000
O O18 0.672010 0.500000 0.250000
#
# Coordination Sequence:
#
# PCOD9335957 Si02
#       8
#     8   8   8   8   8   8   8   8
#     4  11  24  47  68 101 140 182 244 292 363 442
#     4  10  23  43  74  99 137 186 233 298 368 432
#     4  10  23  47  66  98 145 175 248 287 364 427
#     4  11  23  43  70  94 139 180 240 293 360 433
#     4  10  24  42  66 101 133 193 230 294 364 437
#     4  11  26  42  74 108 139 186 236 312 372 438
#     4  10  25  42  68 100 136 190 231 302 356 431
#     4  11  24  39  68 100 144 180 235 289 373 443
#
# _framework density 22.138213
#
# number of rings (size 3 to 8) (size 9 to 14) (size 15 to 20)
#    0.000    1.500    0.000    3.750   12.250    0.500 
#   15.750    0.000    0.000    0.000    0.000    0.000 
#    0.000    0.000    0.000    0.000    0.000    0.000 
#
# Total GULP energy -178653.441812 kJ/mol
# GULP energy per Si atom -5582.920057 kJ/mol
# Density = 2.208783 g / cm^3
# Si number density = 22.138213 Si / 1000 Ang^3
#
#
#
# Elastic Constant Matrix: (Units=GPa)
#
#
# Indices 1 2 3 4 5 6 
#
# 1 72.9722 27.0831 24.0610 0.0000 0.0000 0.0000
# 2 27.0831 41.8455 47.8041 0.0000 0.0000 0.0000
# 3 24.0610 47.8041 132.8941 0.0000 0.0000 0.0000
# 4 0.0000 0.0000 0.0000 27.6991 0.0000 0.0000
# 5 0.0000 0.0000 0.0000 0.0000 28.7825 0.0000
# 6 0.0000 0.0000 0.0000 0.0000 0.0000 27.9967
#
#
#
# Elastic Compliance Matrix: (Units=1/GPa)
#
#
# Indices 1 2 3 4 5 6 
#
# 1 0.018235 -0.013633 0.001602 0.000000 0.000000 0.000000
# 2 -0.013633 0.050760 -0.015791 0.000000 0.000000 0.000000
# 3 0.001602 -0.015791 0.012915 0.000000 0.000000 0.000000
# 4 0.000000 0.000000 0.000000 0.036102 0.000000 0.000000
# 5 0.000000 0.000000 0.000000 0.000000 0.034743 0.000000
# 6 0.000000 0.000000 0.000000 0.000000 0.000000 0.035719
#
#
# Mechanical properties :
#
#
# Convention : Reuss Voigt Hill
#
# Bulk Modulus (GPa) = 38.06940 49.51203 43.79071
# Shear Modulus (GPa) = 19.77274 26.81322 23.29298
#
# Velocity S-wave (km/s) = 2.99180 3.48397 3.24722
# Velocity P-wave (km/s) = 5.40075 6.21269 5.82090
#
# Compressibility (1/GPa) = 0.02626782
#
# Stress axis : x y z
#
# Youngs Moduli (GPa) = 54.83907 19.70038 77.42941
#
# Poissons Ratio (x) = 0.26857 -0.12407
# Poissons Ratio (y) = 0.74760 1.22270
# Poissons Ratio (z) = -0.08787 0.31109
#
# Static dielectric constant tensor:
#      x y z
#    x 1.889410 0.000000 0.000000 
#    y 0.000000 1.811490 0.000000 
#    z 0.000000 0.000000 1.823940 
# 
# From -- ./inp_files/21063.got.cif
#   From: 2010.05.17/outbox.cif.g08.bks.cpg/sg24_11_cif.got.tgz:21063.got - 2010.06.04 00:33:39.
