data_PCOD9335637
_publ_section_title
;
Structure prediction by ZEFSAII (Michael W. Deem and Ramdas Pophale) SiO2 
 PCOD9335637
Probable space group: I 21 21 21
;
_chemical_formula_sum "Si O2"
_cell_formula_units_Z 36
_cell_length_a 7.297467
_cell_length_b 19.843332
_cell_length_c 9.333885
_cell_angle_alpha 90.000000
_cell_angle_beta 90.000000
_cell_angle_gamma 90.000000
_cell_volume 1351.603115
_symmetry_space_group_name_H-M "I 21 21 21"
_symmetry_group_IT_number 24
_symmetry_cell_setting 'orthorhombic'
loop_
_space_group_symop_operation_xyz
x,y,z
-x,1/2-y,z
x,-y,1/2-z
1/2-x,y,-z
1/2+x,1/2+y,1/2+z
1/2-x,-y,1/2+z
1/2+x,1/2-y,-z
-x,1/2+y,1/2-z
loop_
_atom_site_type_symbol
_atom_site_label
_atom_site_fract_x
_atom_site_fract_y
_atom_site_fract_z
Si Si1 0.500000 0.250000 0.963053
Si Si2 0.250000 0.527337 0.500000
Si Si3 0.468663 0.828195 0.002753
Si Si4 0.571260 0.137978 0.787988
Si Si5 0.993059 0.000000 0.750000
Si Si6 0.632774 0.355919 0.195411
O O1 0.567688 0.310196 0.065258
O O2 0.638260 0.208217 0.858406
O O3 0.143640 0.577093 0.386559
O O4 0.124959 0.484909 0.607928
O O5 0.500000 0.750000 0.965524
O O6 0.496935 0.835200 0.171693
O O7 0.250000 0.845829 0.000000
O O8 0.586792 0.867088 0.883676
O O9 0.350933 0.148820 0.793418
O O10 0.103211 0.063895 0.806797
#
# Coordination Sequence:
#
# PCOD9335637 Si02
#       6
#     4   4   8   8   4   8
#     4  12  22  42  82 112 148 196 264 326 384 464
#     4  12  30  50  72 114 150 208 258 328 396 464
#     4  10  22  42  69 106 145 191 244 308 378 450
#     4  11  26  46  76 111 151 201 259 327 395 469
#     4  12  30  50  72 106 152 208 262 326 392 470
#     4  11  26  49  74 107 151 206 260 319 397 471
#
# _framework density 26.635034999999998
#
# number of rings (size 3 to 8) (size 9 to 14) (size 15 to 20)
#    0.000    0.889    4.444    0.667    6.222    2.667 
#    8.000    0.000    0.000    0.000    0.000    0.000 
#    0.000    0.000    0.000    0.000    0.000    0.000 
#
# Total GULP energy -100567.121428 kJ/mol
# GULP energy per Si atom -5587.062302 kJ/mol
# Density = 2.657441 g / cm^3
# Si number density = 26.635035 Si / 1000 Ang^3
#
#
#
# Elastic Constant Matrix: (Units=GPa)
#
#
# Indices 1 2 3 4 5 6 
#
# 1 90.9298 25.3382 38.4250 0.0002 0.0000 0.0001
# 2 25.3382 116.7912 36.9094 0.0001 0.0000 0.0001
# 3 38.4250 36.9094 231.7121 0.0006 -0.0002 0.0001
# 4 0.0002 0.0001 0.0006 27.9826 0.0001 0.0002
# 5 0.0000 0.0000 -0.0002 0.0001 25.3853 0.0001
# 6 0.0001 0.0001 0.0001 0.0002 0.0001 25.9299
#
#
#
# Elastic Compliance Matrix: (Units=1/GPa)
#
#
# Indices 1 2 3 4 5 6 
#
# 1 0.012311 -0.002133 -0.001702 0.000000 0.000000 0.000000
# 2 -0.002133 0.009386 -0.001141 0.000000 0.000000 0.000000
# 3 -0.001702 -0.001141 0.004780 0.000000 0.000000 0.000000
# 4 0.000000 0.000000 0.000000 0.035737 0.000000 0.000000
# 5 0.000000 0.000000 0.000000 0.000000 0.039393 0.000000
# 6 0.000000 0.000000 0.000000 0.000000 0.000000 0.038565
#
#
# Mechanical properties :
#
#
# Convention : Reuss Voigt Hill
#
# Bulk Modulus (GPa) = 60.51764 71.19759 65.85762
# Shear Modulus (GPa) = 32.12712 38.44361 35.28537
#
# Velocity S-wave (km/s) = 3.47680 3.80326 3.64369
# Velocity P-wave (km/s) = 6.23602 6.78787 6.51779
#
# Compressibility (1/GPa) = 0.01652411
#
# Stress axis : x y z
#
# Youngs Moduli (GPa) = 81.22803 106.54434 209.21792
#
# Poissons Ratio (x) = 0.22727 0.35604
# Poissons Ratio (y) = 0.17327 0.23879
# Poissons Ratio (z) = 0.13823 0.12160
#
# Static dielectric constant tensor:
#      x y z
#    x 2.188120 0.000000 0.000000 
#    y 0.000000 2.127580 0.000000 
#    z 0.000000 0.000000 2.204610 
# 
# From -- ./inp_files/9123.got.cif
#   From: 2010.05.17/outbox.cif.g08.bks.cpg/sg24_5_cif.got.tgz:9123.got - 2010.06.04 00:33:39.
