data_PCOD9335813
_publ_section_title
;
Structure prediction by ZEFSAII (Michael W. Deem and Ramdas Pophale) SiO2 
 PCOD9335813
Probable space group: I 21 21 21
;
_chemical_formula_sum "Si O2"
_cell_formula_units_Z 32
_cell_length_a 11.551293
_cell_length_b 7.372248
_cell_length_c 15.665542
_cell_angle_alpha 90.000000
_cell_angle_beta 90.000000
_cell_angle_gamma 90.000000
_cell_volume 1334.061840
_symmetry_space_group_name_H-M "I 21 21 21"
_symmetry_group_IT_number 24
_symmetry_cell_setting 'orthorhombic'
loop_
_space_group_symop_operation_xyz
x,y,z
-x,1/2-y,z
x,-y,1/2-z
1/2-x,y,-z
1/2+x,1/2+y,1/2+z
1/2-x,-y,1/2+z
1/2+x,1/2-y,-z
-x,1/2+y,1/2-z
loop_
_atom_site_type_symbol
_atom_site_label
_atom_site_fract_x
_atom_site_fract_y
_atom_site_fract_z
Si Si1 0.784751 0.817105 0.640867
Si Si2 0.750000 0.128192 0.500000
Si Si3 0.662103 0.411875 0.397837
Si Si4 0.500000 0.250000 0.262945
Si Si5 0.124102 0.800604 0.214723
O O1 0.806702 0.623726 0.592453
O O2 0.895967 0.822088 0.703456
O O3 0.673778 0.808545 0.703774
O O4 0.766259 0.982776 0.577070
O O5 0.648717 0.278516 0.478534
O O6 0.560136 0.390063 0.329263
O O7 0.772528 0.320597 0.351499
O O8 0.000000 0.750000 0.179193
O O9 0.106877 0.000000 0.250000
#
# Coordination Sequence:
#
# PCOD9335813 Si02
#       5
#     8   4   8   4   8
#     4  10  24  44  67 103 140 176 239 301 347 425
#     4  12  26  42  64 102 142 188 210 286 384 410
#     4  10  24  44  67 103 140 176 239 301 347 425
#     4  10  22  46  82  98 130 198 258 298 350 436
#     4   9  20  40  67  92 127 178 230 281 327 413
#
# _framework density 23.986892999999998
#
# number of rings (size 3 to 8) (size 9 to 14) (size 15 to 20)
#    0.000    2.000    0.000    3.000   10.500    2.000 
#    4.500    0.000    0.000    0.000    0.000    0.000 
#    0.000    0.000    0.000    0.000    0.000    0.000 
#
# Total GULP energy -89214.143582 kJ/mol
# GULP energy per Si atom -5575.883974 kJ/mol
# Density = 2.393230 g / cm^3
# Si number density = 23.986893 Si / 1000 Ang^3
#
#
#
# Elastic Constant Matrix: (Units=GPa)
#
#
# Indices 1 2 3 4 5 6 
#
# 1 109.2767 16.6423 10.4599 0.0000 0.0000 0.0000
# 2 16.6423 202.5069 50.3681 0.0000 0.0000 0.0000
# 3 10.4599 50.3681 66.1894 0.0000 0.0000 0.0000
# 4 0.0000 0.0000 0.0000 51.5453 0.0000 0.0000
# 5 0.0000 0.0000 0.0000 0.0000 25.2050 0.0000
# 6 0.0000 0.0000 0.0000 0.0000 0.0000 31.5530
#
#
#
# Elastic Compliance Matrix: (Units=1/GPa)
#
#
# Indices 1 2 3 4 5 6 
#
# 1 0.009331 -0.000493 -0.001099 0.000000 0.000000 0.000000
# 2 -0.000493 0.006117 -0.004577 0.000000 0.000000 0.000000
# 3 -0.001099 -0.004577 0.018765 0.000000 0.000000 0.000000
# 4 0.000000 0.000000 0.000000 0.019400 0.000000 0.000000
# 5 0.000000 0.000000 0.000000 0.000000 0.039675 0.000000
# 6 0.000000 0.000000 0.000000 0.000000 0.000000 0.031693
#
#
# Mechanical properties :
#
#
# Convention : Reuss Voigt Hill
#
# Bulk Modulus (GPa) = 45.71595 59.21263 52.46429
# Shear Modulus (GPa) = 34.57546 41.69420 38.13483
#
# Velocity S-wave (km/s) = 3.80074 4.17370 3.99158
# Velocity P-wave (km/s) = 6.19362 6.92571 6.56987
#
# Compressibility (1/GPa) = 0.02187420
#
# Stress axis : x y z
#
# Youngs Moduli (GPa) = 107.16458 163.47788 53.29152
#
# Poissons Ratio (x) = 0.08068 0.05857
# Poissons Ratio (y) = 0.05289 0.24391
# Poissons Ratio (z) = 0.11779 0.74822
#
# Static dielectric constant tensor:
#      x y z
#    x 1.639350 0.000000 0.000000 
#    y 0.000000 1.974230 0.000000 
#    z 0.000000 0.000000 1.878990 
# 
# From -- ./inp_files/30027.got.cif
#   From: 2010.05.17/outbox.cif.g08.bks.cpg/sg24_16_cif.got.tgz:30027.got - 2010.06.04 00:33:39.
