data_PCOD9335688
_publ_section_title
;
Structure prediction by ZEFSAII (Michael W. Deem and Ramdas Pophale) SiO2 
 PCOD9335688
Probable space group: I 21 21 21
;
_chemical_formula_sum "Si O2"
_cell_formula_units_Z 40
_cell_length_a 14.362428
_cell_length_b 6.188317
_cell_length_c 20.897428
_cell_angle_alpha 90.000000
_cell_angle_beta 90.000000
_cell_angle_gamma 90.000000
_cell_volume 1857.347881
_symmetry_space_group_name_H-M "I 21 21 21"
_symmetry_group_IT_number 24
_symmetry_cell_setting 'orthorhombic'
loop_
_space_group_symop_operation_xyz
x,y,z
-x,1/2-y,z
x,-y,1/2-z
1/2-x,y,-z
1/2+x,1/2+y,1/2+z
1/2-x,-y,1/2+z
1/2+x,1/2-y,-z
-x,1/2+y,1/2-z
loop_
_atom_site_type_symbol
_atom_site_label
_atom_site_fract_x
_atom_site_fract_y
_atom_site_fract_z
Si Si1 0.890077 0.295487 0.852139
Si Si2 0.240581 0.103539 0.319055
Si Si3 0.208872 0.500000 0.750000
Si Si4 0.153961 0.556574 0.521234
Si Si5 0.087973 0.123049 0.091141
Si Si6 0.000000 0.250000 0.494902
O O1 0.844594 0.532712 0.841948
O O2 0.853962 0.161982 0.791042
O O3 0.842926 0.204041 0.916425
O O4 0.000000 0.250000 0.858174
O O5 0.235374 0.358567 0.303035
O O6 0.223831 0.000000 0.250000
O O7 0.165752 0.986505 0.364437
O O8 0.250000 0.449149 0.500000
O O9 0.127125 0.706441 0.460742
O O10 0.076665 0.377503 0.534255
O O11 0.000000 0.250000 0.123257
O O12 0.047901 0.926531 0.049700
#
# Coordination Sequence:
#
# PCOD9335688 Si02
#       6
#     8   8   4   8   8   4
#     4  11  24  42  66  97 136 181 230 286 346 417
#     4  10  23  44  64  95 133 177 228 280 342 417
#     4  10  26  38  68  98 138 182 232 278 350 418
#     4  11  23  43  68  97 138 182 229 291 353 416
#     4  10  22  43  68  95 134 177 230 290 349 416
#     4  10  24  38  64 104 130 172 232 290 348 404
#
# _framework density 21.536086000000001
#
# number of rings (size 3 to 8) (size 9 to 14) (size 15 to 20)
#    0.000    1.600    2.000    1.800    7.000    5.600 
#    1.800    0.000    0.000    0.000    0.000    0.000 
#    0.000    0.000    0.000    0.000    0.000    0.000 
#
# Total GULP energy -111592.388166 kJ/mol
# GULP energy per Si atom -5579.619408 kJ/mol
# Density = 2.148707 g / cm^3
# Si number density = 21.536086 Si / 1000 Ang^3
#
#
#
# Elastic Constant Matrix: (Units=GPa)
#
#
# Indices 1 2 3 4 5 6 
#
# 1 93.1005 35.5302 33.2865 0.0000 0.0000 0.0000
# 2 35.5302 94.5583 12.1690 0.0000 0.0000 0.0000
# 3 33.2865 12.1690 76.3085 0.0000 0.0000 0.0000
# 4 0.0000 0.0000 0.0000 35.2947 0.0000 0.0000
# 5 0.0000 0.0000 0.0000 0.0000 33.3488 0.0000
# 6 0.0000 0.0000 0.0000 0.0000 0.0000 33.5002
#
#
#
# Elastic Compliance Matrix: (Units=1/GPa)
#
#
# Indices 1 2 3 4 5 6 
#
# 1 0.014552 -0.004748 -0.005590 0.000000 0.000000 0.000000
# 2 -0.004748 0.012347 0.000102 0.000000 0.000000 0.000000
# 3 -0.005590 0.000102 0.015527 0.000000 0.000000 0.000000
# 4 0.000000 0.000000 0.000000 0.028333 0.000000 0.000000
# 5 0.000000 0.000000 0.000000 0.000000 0.029986 0.000000
# 6 0.000000 0.000000 0.000000 0.000000 0.000000 0.029851
#
#
# Mechanical properties :
#
#
# Convention : Reuss Voigt Hill
#
# Bulk Modulus (GPa) = 45.55294 47.32652 46.43973
# Shear Modulus (GPa) = 31.56851 32.62752 32.09802
#
# Velocity S-wave (km/s) = 3.83279 3.89654 3.86480
# Velocity P-wave (km/s) = 6.38630 6.50132 6.44407
#
# Compressibility (1/GPa) = 0.02195248
#
# Stress axis : x y z
#
# Youngs Moduli (GPa) = 68.71886 80.99438 64.40392
#
# Poissons Ratio (x) = 0.38460 0.36005
# Poissons Ratio (y) = 0.32631 -0.00660
# Poissons Ratio (z) = 0.38417 -0.00829
#
# Static dielectric constant tensor:
#      x y z
#    x 1.837930 0.000000 0.000000 
#    y 0.000000 1.840730 0.000000 
#    z 0.000000 0.000000 1.740370 
# 
# From -- ./inp_files/35754.got.cif
#   From: 2010.05.17/outbox.cif.g08.bks.cpg/sg24_18_cif.got.tgz:35754.got - 2010.06.04 00:33:39.
