data_PCOD9335117
_publ_section_title
;
Structure prediction by ZEFSAII (Michael W. Deem and Ramdas Pophale) SiO2 
 PCOD9335117
Probable space group: I 21 21 21
;
_chemical_formula_sum "Si O2"
_cell_formula_units_Z 40
_cell_length_a 11.136045
_cell_length_b 12.813055
_cell_length_c 11.206525
_cell_angle_alpha 90.000000
_cell_angle_beta 90.000000
_cell_angle_gamma 90.000000
_cell_volume 1599.022710
_symmetry_space_group_name_H-M "I 21 21 21"
_symmetry_group_IT_number 24
_symmetry_cell_setting 'orthorhombic'
loop_
_space_group_symop_operation_xyz
x,y,z
-x,1/2-y,z
x,-y,1/2-z
1/2-x,y,-z
1/2+x,1/2+y,1/2+z
1/2-x,-y,1/2+z
1/2+x,1/2-y,-z
-x,1/2+y,1/2-z
loop_
_atom_site_type_symbol
_atom_site_label
_atom_site_fract_x
_atom_site_fract_y
_atom_site_fract_z
Si Si1 0.014361 0.624819 0.460753
Si Si2 0.633548 0.865679 0.051602
Si Si3 0.516013 0.500000 0.750000
Si Si4 0.629316 0.193894 0.180795
Si Si5 0.880813 0.369810 0.456272
Si Si6 0.750000 0.655012 0.500000
O O1 0.059488 0.565043 0.345546
O O2 0.874238 0.595470 0.478399
O O3 0.000000 0.750000 0.441160
O O4 0.095749 0.612464 0.577095
O O5 0.661563 0.845682 0.190009
O O6 0.750000 0.922051 0.000000
O O7 0.497454 0.905042 0.033461
O O8 0.625698 0.755863 0.976217
O O9 0.592120 0.413998 0.675824
O O10 0.500000 0.250000 0.200224
O O11 0.720633 0.273151 0.116011
O O12 0.750000 0.403591 0.500000
#
# Coordination Sequence:
#
# PCOD9335117 Si02
#       6
#     8   8   4   8   8   4
#     4   9  22  38  64  94 131 184 219 293 338 422
#     4  10  21  40  75 103 133 190 233 292 357 425
#     4  12  26  40  64 104 142 180 244 282 364 426
#     4   9  17  37  61  95 128 176 230 274 349 417
#     4  10  24  42  65 104 141 183 229 294 355 418
#     4   8  18  32  62  92 124 174 218 276 352 398
#
# _framework density 25.015280000000001
#
# number of rings (size 3 to 8) (size 9 to 14) (size 15 to 20)
#    0.000    2.800    2.000    0.000    9.800    1.600 
#    0.000    0.000   13.200    0.000    0.000    0.000 
#    0.000    0.000    0.000    0.000    0.000    0.000 
#
# Total GULP energy -111668.343698 kJ/mol
# GULP energy per Si atom -5583.417185 kJ/mol
# Density = 2.495834 g / cm^3
# Si number density = 25.015280 Si / 1000 Ang^3
#
#
#
# Elastic Constant Matrix: (Units=GPa)
#
#
# Indices 1 2 3 4 5 6 
#
# 1 150.5747 33.1841 53.5947 0.0000 0.0000 0.0000
# 2 33.1841 85.1199 43.2821 0.0000 0.0000 0.0000
# 3 53.5947 43.2821 211.0572 0.0000 0.0000 0.0000
# 4 0.0000 0.0000 0.0000 40.7984 0.0000 0.0000
# 5 0.0000 0.0000 0.0000 0.0000 37.3981 0.0000
# 6 0.0000 0.0000 0.0000 0.0000 0.0000 44.7121
#
#
#
# Elastic Compliance Matrix: (Units=1/GPa)
#
#
# Indices 1 2 3 4 5 6 
#
# 1 0.007663 -0.002230 -0.001488 0.000000 0.000000 0.000000
# 2 -0.002230 0.013765 -0.002256 0.000000 0.000000 0.000000
# 3 -0.001488 -0.002256 0.005579 0.000000 0.000000 0.000000
# 4 0.000000 0.000000 0.000000 0.024511 0.000000 0.000000
# 5 0.000000 0.000000 0.000000 0.000000 0.026739 0.000000
# 6 0.000000 0.000000 0.000000 0.000000 0.000000 0.022365
#
#
# Mechanical properties :
#
#
# Convention : Reuss Voigt Hill
#
# Bulk Modulus (GPa) = 66.41965 78.54150 72.48057
# Shear Modulus (GPa) = 42.52030 45.69443 44.10736
#
# Velocity S-wave (km/s) = 4.12730 4.27858 4.20362
# Velocity P-wave (km/s) = 7.02297 7.47489 7.25245
#
# Compressibility (1/GPa) = 0.01505579
#
# Stress axis : x y z
#
# Youngs Moduli (GPa) = 130.50504 72.64780 179.25195
#
# Poissons Ratio (x) = 0.16204 0.26680
# Poissons Ratio (y) = 0.29108 0.40447
# Poissons Ratio (z) = 0.19424 0.16393
#
# Static dielectric constant tensor:
#      x y z
#    x 2.010650 0.000000 0.000000 
#    y 0.000000 2.176640 0.000000 
#    z 0.000000 0.000000 1.953710 
# 
# From -- ./inp_files/19489.got.cif
#   From: 2010.05.17/outbox.cif.g08.bks.cpg/sg24_10_cif.got.tgz:19489.got - 2010.06.04 00:33:39.
