data_PCOD9335199
_publ_section_title
;
Structure prediction by ZEFSAII (Michael W. Deem and Ramdas Pophale) SiO2 
 PCOD9335199
Probable space group: I 21 21 21
;
_chemical_formula_sum "Si O2"
_cell_formula_units_Z 40
_cell_length_a 8.374033
_cell_length_b 14.913745
_cell_length_c 14.600258
_cell_angle_alpha 90.000000
_cell_angle_beta 90.000000
_cell_angle_gamma 90.000000
_cell_volume 1823.399836
_symmetry_space_group_name_H-M "I 21 21 21"
_symmetry_group_IT_number 24
_symmetry_cell_setting 'orthorhombic'
loop_
_space_group_symop_operation_xyz
x,y,z
-x,1/2-y,z
x,-y,1/2-z
1/2-x,y,-z
1/2+x,1/2+y,1/2+z
1/2-x,-y,1/2+z
1/2+x,1/2-y,-z
-x,1/2+y,1/2-z
loop_
_atom_site_type_symbol
_atom_site_label
_atom_site_fract_x
_atom_site_fract_y
_atom_site_fract_z
Si Si1 0.317546 0.777421 0.249961
Si Si2 0.315122 0.929856 0.097479
Si Si3 0.383582 0.111674 0.884831
Si Si4 0.215573 0.398896 0.218260
Si Si5 0.415267 0.438890 0.052341
O O1 0.500000 0.750000 0.259805
O O2 0.306252 0.857772 0.177228
O O3 0.229439 0.811825 0.342735
O O4 0.233854 0.685693 0.215801
O O5 0.208439 0.017282 0.120665
O O6 0.490777 0.971931 0.082602
O O7 0.250000 0.894894 0.000000
O O8 0.539602 0.107521 0.822445
O O9 0.460190 0.115006 0.987164
O O10 0.239113 0.500000 0.250000
O O11 0.350218 0.386566 0.139893
O O12 0.250000 0.460797 0.000000
#
# Coordination Sequence:
#
# PCOD9335199 Si02
#       5
#     8   8   8   8   8
#     4  12  24  39  63  97 132 172 216 261 317 384
#     4  10  21  42  67  95 132 171 211 261 321 383
#     4  10  22  42  67  95 128 168 214 267 324 379
#     4  11  22  40  66  96 131 169 214 265 320 382
#     4   9  20  41  68  95 126 168 213 266 324 378
#
# _framework density 21.937044
#
# number of rings (size 3 to 8) (size 9 to 14) (size 15 to 20)
#    0.000    1.600    0.000    4.800    0.000    0.000 
#    0.000   37.000    0.000    0.000    0.000    0.000 
#    0.000    0.000    0.000    0.000    0.000    0.000 
#
# Total GULP energy -111710.839372 kJ/mol
# GULP energy per Si atom -5585.541969 kJ/mol
# Density = 2.188711 g / cm^3
# Si number density = 21.937044 Si / 1000 Ang^3
#
#
#
# Elastic Constant Matrix: (Units=GPa)
#
#
# Indices 1 2 3 4 5 6 
#
# 1 95.7128 38.7379 41.6109 0.0000 0.0000 0.0000
# 2 38.7379 110.3268 39.0285 0.0000 0.0000 0.0000
# 3 41.6109 39.0285 52.3382 0.0000 0.0000 0.0000
# 4 0.0000 0.0000 0.0000 12.4613 0.0000 0.0000
# 5 0.0000 0.0000 0.0000 0.0000 9.0966 0.0000
# 6 0.0000 0.0000 0.0000 0.0000 0.0000 28.6870
#
#
#
# Elastic Compliance Matrix: (Units=1/GPa)
#
#
# Indices 1 2 3 4 5 6 
#
# 1 0.016155 -0.001533 -0.011701 0.000000 0.000000 0.000000
# 2 -0.001533 0.012457 -0.008070 0.000000 0.000000 0.000000
# 3 -0.011701 -0.008070 0.034427 0.000000 0.000000 0.000000
# 4 0.000000 0.000000 0.000000 0.080248 0.000000 0.000000
# 5 0.000000 0.000000 0.000000 0.000000 0.109931 0.000000
# 6 0.000000 0.000000 0.000000 0.000000 0.000000 0.034859
#
#
# Mechanical properties :
#
#
# Convention : Reuss Voigt Hill
#
# Bulk Modulus (GPa) = 48.94537 55.23696 52.09116
# Shear Modulus (GPa) = 14.81494 19.31569 17.06532
#
# Velocity S-wave (km/s) = 2.60155 2.97055 2.79215
# Velocity P-wave (km/s) = 5.60216 6.08276 5.84740
#
# Compressibility (1/GPa) = 0.02043094
#
# Stress axis : x y z
#
# Youngs Moduli (GPa) = 61.89888 80.27448 29.04681
#
# Poissons Ratio (x) = 0.12308 0.33987
# Poissons Ratio (y) = 0.09491 0.23442
# Poissons Ratio (z) = 0.72427 0.64784
#
# Static dielectric constant tensor:
#      x y z
#    x 1.817950 0.000000 0.000000 
#    y 0.000000 1.805510 0.000000 
#    z 0.000000 0.000000 1.874830 
# 
# From -- ./inp_files/24544.got.cif
#   From: 2010.05.17/outbox.cif.g08.bks.cpg/sg24_13_cif.got.tgz:24544.got - 2010.06.04 00:33:39.
