data_PCOD9335553
_publ_section_title
;
Structure prediction by ZEFSAII (Michael W. Deem and Ramdas Pophale) SiO2 
 PCOD9335553
Probable space group: I 21 21 21
;
_chemical_formula_sum "Si O2"
_cell_formula_units_Z 32
_cell_length_a 14.779669
_cell_length_b 5.509538
_cell_length_c 18.195652
_cell_angle_alpha 90.000000
_cell_angle_beta 90.000000
_cell_angle_gamma 90.000000
_cell_volume 1481.656439
_symmetry_space_group_name_H-M "I 21 21 21"
_symmetry_group_IT_number 24
_symmetry_cell_setting 'orthorhombic'
loop_
_space_group_symop_operation_xyz
x,y,z
-x,1/2-y,z
x,-y,1/2-z
1/2-x,y,-z
1/2+x,1/2+y,1/2+z
1/2-x,-y,1/2+z
1/2+x,1/2-y,-z
-x,1/2+y,1/2-z
loop_
_atom_site_type_symbol
_atom_site_label
_atom_site_fract_x
_atom_site_fract_y
_atom_site_fract_z
Si Si1 0.738381 0.508052 0.163147
Si Si2 0.048420 0.000289 0.339782
Si Si3 0.655538 0.238668 0.459645
Si Si4 0.402574 0.762882 0.429610
O O1 0.730134 0.500000 0.250000
O O2 0.844333 0.506000 0.143525
O O3 0.683894 0.732069 0.126488
O O4 0.683575 0.291393 0.123742
O O5 0.000000 0.250000 0.364530
O O6 0.042580 0.000000 0.250000
O O7 0.000000 0.750000 0.364416
O O8 0.750000 0.257745 0.500000
O O9 0.599858 0.484222 0.474328
O O10 0.610765 0.982690 0.474307
O O11 0.500000 0.750000 0.391288
#
# Coordination Sequence:
#
# PCOD9335553 Si02
#       4
#     8   8   8   8
#     4   9  22  39  64  94 128 166 204 256 316 369
#     4   9  18  32  53  81 118 156 197 245 296 353
#     4  10  22  41  64  84 126 165 207 255 303 363
#     4  10  22  41  65  92 125 166 207 258 309 375
#
# _framework density 21.597449999999998
#
# number of rings (size 3 to 8) (size 9 to 14) (size 15 to 20)
#    1.500    1.000    0.000    1.500    3.500    1.000 
#    4.500    3.750    0.000    0.000    0.000    0.000 
#    0.000    0.000    0.000    0.000    0.000    0.000 
#
# Total GULP energy -89090.680445 kJ/mol
# GULP energy per Si atom -5568.167528 kJ/mol
# Density = 2.154829 g / cm^3
# Si number density = 21.597450 Si / 1000 Ang^3
#
#
#
# Elastic Constant Matrix: (Units=GPa)
#
#
# Indices 1 2 3 4 5 6 
#
# 1 130.1770 67.0830 3.8376 0.0000 0.0000 0.0000
# 2 67.0830 201.8140 8.0603 0.0000 0.0000 0.0000
# 3 3.8376 8.0603 45.2369 0.0000 0.0000 0.0000
# 4 0.0000 0.0000 0.0000 11.6304 0.0000 0.0000
# 5 0.0000 0.0000 0.0000 0.0000 79.2499 0.0000
# 6 0.0000 0.0000 0.0000 0.0000 0.0000 54.9876
#
#
#
# Elastic Compliance Matrix: (Units=1/GPa)
#
#
# Indices 1 2 3 4 5 6 
#
# 1 0.009272 -0.003073 -0.000239 0.000000 0.000000 0.000000
# 2 -0.003073 0.006009 -0.000810 0.000000 0.000000 0.000000
# 3 -0.000239 -0.000810 0.022270 0.000000 0.000000 0.000000
# 4 0.000000 0.000000 0.000000 0.085982 0.000000 0.000000
# 5 0.000000 0.000000 0.000000 0.000000 0.012618 0.000000
# 6 0.000000 0.000000 0.000000 0.000000 0.000000 0.018186
#
#
# Mechanical properties :
#
#
# Convention : Reuss Voigt Hill
#
# Bulk Modulus (GPa) = 34.12023 59.46552 46.79288
# Shear Modulus (GPa) = 29.01074 49.05671 39.03373
#
# Velocity S-wave (km/s) = 3.66901 4.77110 4.25588
# Velocity P-wave (km/s) = 5.81218 7.61214 6.77222
#
# Compressibility (1/GPa) = 0.02930812
#
# Stress axis : x y z
#
# Youngs Moduli (GPa) = 107.84872 166.42473 44.90252
#
# Poissons Ratio (x) = 0.51135 0.01074
# Poissons Ratio (y) = 0.33137 0.03637
# Poissons Ratio (z) = 0.02579 0.13480
#
# Static dielectric constant tensor:
#      x y z
#    x 1.749140 0.000000 0.000000 
#    y 0.000000 1.796640 0.000000 
#    z 0.000000 0.000000 1.785000 
# 
# From -- ./inp_files/2415.got.cif
#   From: 2010.05.17/outbox.cif.g08.bks.cpg/sg24_2_cif.got.tgz:2415.got - 2010.06.04 00:33:39.
