data_PCOD9335615
_publ_section_title
;
Structure prediction by ZEFSAII (Michael W. Deem and Ramdas Pophale) SiO2 
 PCOD9335615
Probable space group: I 21 21 21
;
_chemical_formula_sum "Si O2"
_cell_formula_units_Z 40
_cell_length_a 21.369557
_cell_length_b 9.750076
_cell_length_c 7.561634
_cell_angle_alpha 90.000000
_cell_angle_beta 90.000000
_cell_angle_gamma 90.000000
_cell_volume 1575.502776
_symmetry_space_group_name_H-M "I 21 21 21"
_symmetry_group_IT_number 24
_symmetry_cell_setting 'orthorhombic'
loop_
_space_group_symop_operation_xyz
x,y,z
-x,1/2-y,z
x,-y,1/2-z
1/2-x,y,-z
1/2+x,1/2+y,1/2+z
1/2-x,-y,1/2+z
1/2+x,1/2-y,-z
-x,1/2+y,1/2-z
loop_
_atom_site_type_symbol
_atom_site_label
_atom_site_fract_x
_atom_site_fract_y
_atom_site_fract_z
Si Si1 0.860781 0.708199 0.159769
Si Si2 0.085391 0.000000 0.750000
Si Si3 0.000000 0.250000 0.791301
Si Si4 0.178792 0.530294 0.955562
Si Si5 0.561209 0.887885 0.625571
Si Si6 0.179132 0.069231 0.016138
O O1 0.924644 0.760145 0.246762
O O2 0.862667 0.558872 0.078307
O O3 0.817703 0.684107 0.333676
O O4 0.833393 0.813572 0.018702
O O5 0.038766 0.128482 0.690488
O O6 0.137340 0.899225 0.652583
O O7 0.035377 0.343953 0.937459
O O8 0.167569 0.500000 0.750000
O O9 0.250000 0.493465 0.000000
O O10 0.128585 0.450594 0.073487
O O11 0.528029 0.000000 0.750000
O O12 0.250000 0.019791 0.000000
#
# Coordination Sequence:
#
# PCOD9335615 Si02
#       6
#     8   4   4   8   8   8
#     4  10  22  42  66 102 145 190 248 315 390 466
#     4  12  28  48  78 112 156 214 262 330 396 480
#     4  12  28  48  72 114 152 202 266 316 396 490
#     4  11  24  41  69 108 147 193 249 315 400 478
#     4  10  24  46  72 100 142 195 253 318 391 471
#     4  11  24  44  73 110 149 197 261 326 406 469
#
# _framework density 25.388721
#
# number of rings (size 3 to 8) (size 9 to 14) (size 15 to 20)
#    0.000    1.200    2.000    3.600    4.200    5.600 
#    0.000    0.000    0.000    0.000    0.000    0.000 
#    0.000    0.000    0.000    0.000    0.000    0.000 
#
# Total GULP energy -111437.358809 kJ/mol
# GULP energy per Si atom -5571.867940 kJ/mol
# Density = 2.533094 g / cm^3
# Si number density = 25.388721 Si / 1000 Ang^3
#
#
#
# Elastic Constant Matrix: (Units=GPa)
#
#
# Indices 1 2 3 4 5 6 
#
# 1 86.3681 32.2652 35.6153 0.0000 0.0000 0.0000
# 2 32.2652 114.0429 36.9337 0.0000 0.0000 0.0000
# 3 35.6153 36.9337 125.2733 0.0000 0.0000 0.0000
# 4 0.0000 0.0000 0.0000 -615.4598 0.0000 0.0000
# 5 0.0000 0.0000 0.0000 0.0000 18.3775 0.0000
# 6 0.0000 0.0000 0.0000 0.0000 0.0000 27.6100
#
#
#
# Elastic Compliance Matrix: (Units=1/GPa)
#
#
# Indices 1 2 3 4 5 6 
#
# 1 0.013957 -0.002945 -0.003100 0.000000 0.000000 0.000000
# 2 -0.002945 0.010316 -0.002204 0.000000 0.000000 0.000000
# 3 -0.003100 -0.002204 0.009514 0.000000 0.000000 0.000000
# 4 0.000000 0.000000 0.000000 -0.001625 0.000000 0.000000
# 5 0.000000 0.000000 0.000000 0.000000 0.054414 0.000000
# 6 0.000000 0.000000 0.000000 0.000000 0.000000 0.036219
#
#
# Mechanical properties :
#
#
# Convention : Reuss Voigt Hill
#
# Bulk Modulus (GPa) = 57.84112 59.47917 58.66015
# Shear Modulus (GPa) = 34.46986 -99.16979 -32.34997
#
# Velocity S-wave (km/s) = 3.68867 -6.25663 -3.57345
# Velocity P-wave (km/s) = 6.40105 5.35869 2.47567
#
# Compressibility (1/GPa) = 0.01728874
#
# Stress axis : x y z
#
# Youngs Moduli (GPa) = 71.65036 96.94067 105.11251
#
# Poissons Ratio (x) = 0.28547 0.32582
# Poissons Ratio (y) = 0.21099 0.23168
# Poissons Ratio (z) = 0.22209 0.21367
#
# Static dielectric constant tensor:
#      x y z
#    x 2.781160 0.000000 0.000000 
#    y 0.000000 2.084880 0.000000 
#    z 0.000000 0.000000 2.367770 
# 
# From -- ./inp_files/15646.got.cif
#   From: 2010.05.17/outbox.cif.g08.bks.cpg/sg24_8_cif.got.tgz:15646.got - 2010.06.04 00:33:39.
