data_PCOD9335440
_publ_section_title
;
Structure prediction by ZEFSAII (Michael W. Deem and Ramdas Pophale) SiO2 
 PCOD9335440
Probable space group: I 21 21 21
;
_chemical_formula_sum "Si O2"
_cell_formula_units_Z 64
_cell_length_a 8.730154
_cell_length_b 19.925245
_cell_length_c 17.589036
_cell_angle_alpha 90.000000
_cell_angle_beta 90.000000
_cell_angle_gamma 90.000000
_cell_volume 3059.620856
_symmetry_space_group_name_H-M "I 21 21 21"
_symmetry_group_IT_number 24
_symmetry_cell_setting 'orthorhombic'
loop_
_space_group_symop_operation_xyz
x,y,z
-x,1/2-y,z
x,-y,1/2-z
1/2-x,y,-z
1/2+x,1/2+y,1/2+z
1/2-x,-y,1/2+z
1/2+x,1/2-y,-z
-x,1/2+y,1/2-z
loop_
_atom_site_type_symbol
_atom_site_label
_atom_site_fract_x
_atom_site_fract_y
_atom_site_fract_z
Si Si1 0.264820 0.881285 0.590885
Si Si2 0.180828 0.267220 0.083169
Si Si3 0.247747 0.607109 0.309578
Si Si4 0.322987 0.765795 0.079218
Si Si5 0.406612 0.692633 0.809612
Si Si6 0.183431 0.887227 0.138452
Si Si7 0.588183 0.423299 0.226386
Si Si8 0.492587 0.018389 0.838623
O O1 0.250000 0.887238 0.500000
O O2 0.250246 0.803114 0.612477
O O3 0.136591 0.919111 0.638520
O O4 0.417831 0.914558 0.625323
O O5 0.228166 0.331341 0.132141
O O6 0.000000 0.250000 0.077278
O O7 0.250000 0.278348 0.000000
O O8 0.140176 0.630141 0.240548
O O9 0.416828 0.604730 0.274642
O O10 0.173983 0.537499 0.341095
O O11 0.500000 0.750000 0.082811
O O12 0.234054 0.726485 0.146867
O O13 0.300297 0.846435 0.085997
O O14 0.250000 0.743101 0.000000
O O15 0.500000 0.750000 0.763354
O O16 0.538414 0.663309 0.863017
O O17 0.280808 0.891675 0.218195
O O18 0.102593 0.958250 0.120989
O O19 0.580648 0.500000 0.250000
O O20 0.461703 0.000000 0.750000
#
# Coordination Sequence:
#
# PCOD9335440 Si02
#       8
#     8   8   8   8   8   8   8   8
#     4  11  24  43  68  92 132 177 227 273 341 412
#     4  11  26  44  67  98 135 180 229 287 347 410
#     4  12  25  38  69  98 135 173 227 285 344 403
#     4  11  24  45  70 103 140 175 225 289 346 412
#     4  10  22  39  66 100 127 174 224 269 340 408
#     4  11  22  42  69  96 137 181 223 273 341 414
#     4  12  25  43  63 100 135 173 224 288 338 403
#     4  12  21  43  67  95 133 179 221 274 337 409
#
# _framework density 20.917622999999999
#
# number of rings (size 3 to 8) (size 9 to 14) (size 15 to 20)
#    0.000    0.750    5.000    2.625    7.000    0.500 
#    0.000    0.000    0.000    0.750    0.000    0.000 
#    0.000    0.000    0.000    0.000    0.000    0.000 
#
# Total GULP energy -178283.813604 kJ/mol
# GULP energy per Si atom -5571.369175 kJ/mol
# Density = 2.087001 g / cm^3
# Si number density = 20.917623 Si / 1000 Ang^3
#
#
#
# Elastic Constant Matrix: (Units=GPa)
#
#
# Indices 1 2 3 4 5 6 
#
# 1 122.3116 37.6328 29.2497 0.0000 0.0000 0.0000
# 2 37.6328 108.4237 29.5335 0.0000 0.0000 0.0000
# 3 29.2497 29.5335 64.5386 0.0000 0.0000 0.0000
# 4 0.0000 0.0000 0.0000 -18.8004 0.0000 0.0000
# 5 0.0000 0.0000 0.0000 0.0000 10.3178 0.0000
# 6 0.0000 0.0000 0.0000 0.0000 0.0000 28.6617
#
#
#
# Elastic Compliance Matrix: (Units=1/GPa)
#
#
# Indices 1 2 3 4 5 6 
#
# 1 0.009722 -0.002484 -0.003269 0.000000 0.000000 0.000000
# 2 -0.002484 0.011171 -0.003986 0.000000 0.000000 0.000000
# 3 -0.003269 -0.003986 0.018801 0.000000 0.000000 0.000000
# 4 0.000000 0.000000 0.000000 -0.053190 0.000000 0.000000
# 5 0.000000 0.000000 0.000000 0.000000 0.096920 0.000000
# 6 0.000000 0.000000 0.000000 0.000000 0.000000 0.034890
#
#
# Mechanical properties :
#
#
# Convention : Reuss Voigt Hill
#
# Bulk Modulus (GPa) = 49.46987 54.23401 51.85194
# Shear Modulus (GPa) = 34.59495 17.29302 25.94398
#
# Velocity S-wave (km/s) = 4.07119 2.87839 3.52560
# Velocity P-wave (km/s) = 6.76761 6.08528 6.43549
#
# Compressibility (1/GPa) = 0.02021432
#
# Stress axis : x y z
#
# Youngs Moduli (GPa) = 102.86024 89.51749 53.19002
#
# Poissons Ratio (x) = 0.22234 0.17390
# Poissons Ratio (y) = 0.25549 0.21203
# Poissons Ratio (z) = 0.33630 0.35684
#
# Static dielectric constant tensor:
#      x y z
#    x 1.842980 0.000000 0.000000 
#    y 0.000000 1.813720 0.000000 
#    z 0.000000 0.000000 1.750950 
# 
# From -- ./inp_files/29831.got.cif
#   From: 2010.05.17/outbox.cif.g08.bks.cpg/sg24_15_cif.got.tgz:29831.got - 2010.06.04 00:33:39.
