data_PCOD9335706
_publ_section_title
;
Structure prediction by ZEFSAII (Michael W. Deem and Ramdas Pophale) SiO2 
 PCOD9335706
Probable space group: I 21 21 21
;
_chemical_formula_sum "Si O2"
_cell_formula_units_Z 56
_cell_length_a 15.082808
_cell_length_b 12.588597
_cell_length_c 13.603196
_cell_angle_alpha 90.000000
_cell_angle_beta 90.000000
_cell_angle_gamma 90.000000
_cell_volume 2582.857754
_symmetry_space_group_name_H-M "I 21 21 21"
_symmetry_group_IT_number 24
_symmetry_cell_setting 'orthorhombic'
loop_
_space_group_symop_operation_xyz
x,y,z
-x,1/2-y,z
x,-y,1/2-z
1/2-x,y,-z
1/2+x,1/2+y,1/2+z
1/2-x,-y,1/2+z
1/2+x,1/2-y,-z
-x,1/2+y,1/2-z
loop_
_atom_site_type_symbol
_atom_site_label
_atom_site_fract_x
_atom_site_fract_y
_atom_site_fract_z
Si Si1 0.821087 0.718577 0.077280
Si Si2 0.455590 0.526638 0.634569
Si Si3 0.750000 0.310337 0.000000
Si Si4 0.286321 0.582550 0.839650
Si Si5 0.419617 0.674521 0.483267
Si Si6 0.000000 0.250000 0.543046
Si Si7 0.918256 0.040748 0.638153
Si Si8 0.839851 0.487451 0.132488
O O1 0.808383 0.793143 0.172703
O O2 0.798744 0.597443 0.096732
O O3 0.750000 0.762064 0.000000
O O4 0.916982 0.725658 0.027782
O O5 0.462789 0.500000 0.750000
O O6 0.373017 0.454196 0.598302
O O7 0.426207 0.643177 0.598993
O O8 0.556623 0.513690 0.599425
O O9 0.671968 0.233532 0.037896
O O10 0.790674 0.387381 0.084020
O O11 0.288920 0.500000 0.750000
O O12 0.185688 0.569997 0.873415
O O13 0.500000 0.750000 0.456909
O O14 0.432900 0.563520 0.427811
O O15 0.025192 0.355069 0.607046
O O16 0.933834 0.000000 0.750000
O O17 0.837264 0.500000 0.250000
#
# Coordination Sequence:
#
# PCOD9335706 Si02
#       8
#     8   8   4   8   8   4   8   8
#     4  12  23  42  70 101 138 192 245 296 377 440
#     4  10  22  44  72 104 141 178 242 312 375 439
#     4  12  26  48  70 108 156 198 244 312 374 452
#     4  10  22  43  71 105 138 175 243 314 367 437
#     4  12  25  44  73 103 144 194 242 303 375 440
#     4  12  26  46  76 102 148 200 242 322 368 442
#     4  11  26  46  72 107 144 196 255 300 373 440
#     4  11  25  44  69 106 149 196 246 302 380 451
#
# _framework density 21.681411000000001
#
# number of rings (size 3 to 8) (size 9 to 14) (size 15 to 20)
#    0.000    0.857    3.571    3.429    1.000    4.571 
#    0.000    1.429    0.000    0.000    0.000    0.000 
#    0.000    0.000    0.000    0.000    0.000    0.000 
#
# Total GULP energy -156146.860729 kJ/mol
# GULP energy per Si atom -5576.673597 kJ/mol
# Density = 2.163206 g / cm^3
# Si number density = 21.681411 Si / 1000 Ang^3
#
#
#
# Elastic Constant Matrix: (Units=GPa)
#
#
# Indices 1 2 3 4 5 6 
#
# 1 138.0484 63.2422 35.3698 0.0000 0.0000 0.0000
# 2 63.2422 178.3920 58.2212 0.0000 0.0000 0.0000
# 3 35.3698 58.2212 95.9877 0.0000 0.0000 0.0000
# 4 0.0000 0.0000 0.0000 25.0217 0.0000 0.0000
# 5 0.0000 0.0000 0.0000 0.0000 20.8682 0.0000
# 6 0.0000 0.0000 0.0000 0.0000 0.0000 115.4198
#
#
#
# Elastic Compliance Matrix: (Units=1/GPa)
#
#
# Indices 1 2 3 4 5 6 
#
# 1 0.008864 -0.002589 -0.001696 0.000000 0.000000 0.000000
# 2 -0.002589 0.007745 -0.003744 0.000000 0.000000 0.000000
# 3 -0.001696 -0.003744 0.013314 0.000000 0.000000 0.000000
# 4 0.000000 0.000000 0.000000 0.039965 0.000000 0.000000
# 5 0.000000 0.000000 0.000000 0.000000 0.047920 0.000000
# 6 0.000000 0.000000 0.000000 0.000000 0.000000 0.008664
#
#
# Mechanical properties :
#
#
# Convention : Reuss Voigt Hill
#
# Bulk Modulus (GPa) = 72.12051 80.67718 76.39885
# Shear Modulus (GPa) = 33.97830 49.30159 41.63995
#
# Velocity S-wave (km/s) = 3.96304 4.77373 4.38715
# Velocity P-wave (km/s) = 7.36728 8.22652 7.80873
#
# Compressibility (1/GPa) = 0.01386568
#
# Stress axis : x y z
#
# Youngs Moduli (GPa) = 112.81007 129.10933 75.10983
#
# Poissons Ratio (x) = 0.33427 0.12739
# Poissons Ratio (y) = 0.29207 0.28121
# Poissons Ratio (z) = 0.19133 0.48338
#
# Static dielectric constant tensor:
#      x y z
#    x 1.783630 0.000000 0.000000 
#    y 0.000000 1.817350 0.000000 
#    z 0.000000 0.000000 1.984110 
# 
# From -- ./inp_files/26559.got.cif
#   From: 2010.05.17/outbox.cif.g08.bks.cpg/sg24_14_cif.got.tgz:26559.got - 2010.06.04 00:33:39.
