data_PCOD9335590
_publ_section_title
;
Structure prediction by ZEFSAII (Michael W. Deem and Ramdas Pophale) SiO2 
 PCOD9335590
Probable space group: I 21 21 21
;
_chemical_formula_sum "Si O2"
_cell_formula_units_Z 52
_cell_length_a 16.197230
_cell_length_b 19.789120
_cell_length_c 8.011120
_cell_angle_alpha 90.000000
_cell_angle_beta 90.000000
_cell_angle_gamma 90.000000
_cell_volume 2567.795707
_symmetry_space_group_name_H-M "I 21 21 21"
_symmetry_group_IT_number 24
_symmetry_cell_setting 'orthorhombic'
loop_
_space_group_symop_operation_xyz
x,y,z
-x,1/2-y,z
x,-y,1/2-z
1/2-x,y,-z
1/2+x,1/2+y,1/2+z
1/2-x,-y,1/2+z
1/2+x,1/2-y,-z
-x,1/2+y,1/2-z
loop_
_atom_site_type_symbol
_atom_site_label
_atom_site_fract_x
_atom_site_fract_y
_atom_site_fract_z
Si Si1 0.074042 0.368891 0.764449
Si Si2 0.755121 0.074747 0.698410
Si Si3 0.577843 0.911730 0.629612
Si Si4 0.021480 0.023446 0.549200
Si Si5 0.572717 0.357966 0.664865
Si Si6 0.500000 0.250000 0.458656
Si Si7 0.164383 0.945422 0.404208
O O1 0.171829 0.374809 0.741530
O O2 0.038487 0.307319 0.658762
O O3 0.028448 0.436739 0.693419
O O4 0.064929 0.368232 0.962384
O O5 0.750000 0.075702 0.500000
O O6 0.669705 0.086748 0.796665
O O7 0.783518 0.000000 0.750000
O O8 0.516897 0.877956 0.761572
O O9 0.546815 0.986984 0.570918
O O10 0.077003 0.085326 0.478114
O O11 0.093192 0.965985 0.538608
O O12 0.567117 0.285639 0.579481
O O13 0.636975 0.376614 0.809651
O O14 0.250000 0.942204 0.500000
O O15 0.166029 0.000000 0.250000
#
# Coordination Sequence:
#
# PCOD9335590 Si02
#       7
#     8   8   8   8   8   4   8
#     4  11  22  35  57  86 116 157 202 241 290 356
#     4  12  22  34  57  93 129 153 182 238 305 365
#     4  11  20  34  60  93 120 146 189 247 306 362
#     4   9  18  35  57  88 124 157 188 235 306 366
#     4   9  19  36  60  82 114 160 198 233 291 360
#     4  10  22  42  58  74 112 166 214 244 284 352
#     4   9  18  32  57  92 123 151 193 251 308 356
#
# _framework density 20.250831999999999
#
# number of rings (size 3 to 8) (size 9 to 14) (size 15 to 20)
#    0.000    1.846    0.000    7.846    0.000    3.077 
#    0.000    0.000    0.000   39.692    0.000    7.538 
#    0.000    0.000    0.000    0.000    0.000    0.000 
#
# Total GULP energy -144848.795635 kJ/mol
# GULP energy per Si atom -5571.107524 kJ/mol
# Density = 2.020474 g / cm^3
# Si number density = 20.250832 Si / 1000 Ang^3
#
#
#
# Elastic Constant Matrix: (Units=GPa)
#
#
# Indices 1 2 3 4 5 6 
#
# 1 134.6418 28.9381 32.0721 0.0000 0.0000 0.0000
# 2 28.9381 92.5671 32.8854 0.0000 0.0000 0.0000
# 3 32.0721 32.8854 72.4194 0.0000 0.0000 0.0000
# 4 0.0000 0.0000 0.0000 26.8432 0.0000 0.0000
# 5 0.0000 0.0000 0.0000 0.0000 53.1164 0.0000
# 6 0.0000 0.0000 0.0000 0.0000 0.0000 -11.3567
#
#
#
# Elastic Compliance Matrix: (Units=1/GPa)
#
#
# Indices 1 2 3 4 5 6 
#
# 1 0.008491 -0.001572 -0.003046 0.000000 0.000000 0.000000
# 2 -0.001572 0.013172 -0.005285 0.000000 0.000000 0.000000
# 3 -0.003046 -0.005285 0.017558 0.000000 0.000000 0.000000
# 4 0.000000 0.000000 0.000000 0.037253 0.000000 0.000000
# 5 0.000000 0.000000 0.000000 0.000000 0.018827 0.000000
# 6 0.000000 0.000000 0.000000 0.000000 0.000000 -0.088054
#
#
# Mechanical properties :
#
#
# Convention : Reuss Voigt Hill
#
# Bulk Modulus (GPa) = 51.51168 54.15772 52.83470
# Shear Modulus (GPa) = 149.14293 27.43608 88.28951
#
# Velocity S-wave (km/s) = 8.59114 3.68477 6.61004
# Velocity P-wave (km/s) = 11.13114 6.70111 9.18714
#
# Compressibility (1/GPa) = 0.01941307
#
# Stress axis : x y z
#
# Youngs Moduli (GPa) = 117.77665 75.91839 56.95554
#
# Poissons Ratio (x) = 0.11935 0.17351
# Poissons Ratio (y) = 0.18515 0.30102
# Poissons Ratio (z) = 0.35879 0.40124
#
# Static dielectric constant tensor:
#      x y z
#    x 1.726380 0.000000 0.000000 
#    y 0.000000 1.768280 0.000000 
#    z 0.000000 0.000000 2.143340 
# 
# From -- ./inp_files/13081.got.cif
#   From: 2010.05.17/outbox.cif.g08.bks.cpg/sg24_7_cif.got.tgz:13081.got - 2010.06.04 00:33:39.
