data_PCOD9335048
_publ_section_title
;
Structure prediction by ZEFSAII (Michael W. Deem and Ramdas Pophale) SiO2 
 PCOD9335048
Probable space group: I 21 21 21
;
_chemical_formula_sum "Si O2"
_cell_formula_units_Z 28
_cell_length_a 13.498385
_cell_length_b 9.201871
_cell_length_c 8.336008
_cell_angle_alpha 90.000000
_cell_angle_beta 90.000000
_cell_angle_gamma 90.000000
_cell_volume 1035.418867
_symmetry_space_group_name_H-M "I 21 21 21"
_symmetry_group_IT_number 24
_symmetry_cell_setting 'orthorhombic'
loop_
_space_group_symop_operation_xyz
x,y,z
-x,1/2-y,z
x,-y,1/2-z
1/2-x,y,-z
1/2+x,1/2+y,1/2+z
1/2-x,-y,1/2+z
1/2+x,1/2-y,-z
-x,1/2+y,1/2-z
loop_
_atom_site_type_symbol
_atom_site_label
_atom_site_fract_x
_atom_site_fract_y
_atom_site_fract_z
Si Si1 0.337888 0.665714 0.375293
Si Si2 0.000000 0.250000 0.269868
Si Si3 0.356048 0.243989 0.465995
Si Si4 0.945131 0.436663 0.976449
O O1 0.250000 0.627454 0.500000
O O2 0.359832 0.839200 0.395980
O O3 0.444901 0.601819 0.418446
O O4 0.330395 0.651488 0.182801
O O5 0.909816 0.188084 0.378357
O O6 0.950593 0.371495 0.156829
O O7 0.250000 0.176101 0.500000
O O8 0.426228 0.104614 0.440226
#
# Coordination Sequence:
#
# PCOD9335048 Si02
#       4
#     8   4   8   8
#     4  10  21  40  63  94 133 169 211 272 333 390
#     4  10  22  40  60  96 134 164 214 278 324 382
#     4  12  23  40  69  98 124 171 223 266 327 399
#     4  10  22  39  62  94 133 169 213 275 327 385
#
# _framework density 27.042195
#
# number of rings (size 3 to 8) (size 9 to 14) (size 15 to 20)
#    0.000    1.714    0.000    7.714    0.000    2.286 
#    0.000    1.429    0.000   17.143    0.000    0.000 
#    0.000    0.000    0.000    0.000    0.000    0.000 
#
# Total GULP energy -78261.634333 kJ/mol
# GULP energy per Si atom -5590.116738 kJ/mol
# Density = 2.698065 g / cm^3
# Si number density = 27.042195 Si / 1000 Ang^3
#
#
#
# Elastic Constant Matrix: (Units=GPa)
#
#
# Indices 1 2 3 4 5 6 
#
# 1 135.8806 -13.1758 50.1040 0.0000 0.0000 0.0000
# 2 -13.1758 59.7394 12.1182 0.0000 0.0000 0.0000
# 3 50.1040 12.1182 175.4477 0.0000 0.0000 0.0000
# 4 0.0000 0.0000 0.0000 45.4784 0.0000 0.0000
# 5 0.0000 0.0000 0.0000 0.0000 36.7040 0.0000
# 6 0.0000 0.0000 0.0000 0.0000 0.0000 40.8405
#
#
#
# Elastic Compliance Matrix: (Units=1/GPa)
#
#
# Indices 1 2 3 4 5 6 
#
# 1 0.008556 0.002417 -0.002610 0.000000 0.000000 0.000000
# 2 0.002417 0.017660 -0.001910 0.000000 0.000000 0.000000
# 3 -0.002610 -0.001910 0.006577 0.000000 0.000000 0.000000
# 4 0.000000 0.000000 0.000000 0.021988 0.000000 0.000000
# 5 0.000000 0.000000 0.000000 0.000000 0.027245 0.000000
# 6 0.000000 0.000000 0.000000 0.000000 0.000000 0.024485
#
#
# Mechanical properties :
#
#
# Convention : Reuss Voigt Hill
#
# Bulk Modulus (GPa) = 34.98231 52.12893 43.55562
# Shear Modulus (GPa) = 41.58069 46.07265 43.82667
#
# Velocity S-wave (km/s) = 3.92551 4.13211 4.03013
# Velocity P-wave (km/s) = 5.78882 6.48725 6.14796
#
# Compressibility (1/GPa) = 0.02858587
#
# Stress axis : x y z
#
# Youngs Moduli (GPa) = 116.87309 56.62577 152.04278
#
# Poissons Ratio (x) = -0.13685 0.39689
# Poissons Ratio (y) = -0.28244 0.29039
# Poissons Ratio (z) = 0.30509 0.10815
#
# Static dielectric constant tensor:
#      x y z
#    x 2.031490 0.000000 0.000000 
#    y 0.000000 2.241740 0.000000 
#    z 0.000000 0.000000 2.316920 
# 
# From -- ./inp_files/11858.got.cif
#   From: 2010.05.17/outbox.cif.g08.bks.cpg/sg24_6_cif.got.tgz:11858.got - 2010.06.04 00:33:39.
