data_PCOD9335562
_publ_section_title
;
Structure prediction by ZEFSAII (Michael W. Deem and Ramdas Pophale) SiO2 
 PCOD9335562
Probable space group: I 21 21 21
;
_chemical_formula_sum "Si O2"
_cell_formula_units_Z 52
_cell_length_a 7.914594
_cell_length_b 18.463063
_cell_length_c 17.610795
_cell_angle_alpha 90.000000
_cell_angle_beta 90.000000
_cell_angle_gamma 90.000000
_cell_volume 2573.424046
_symmetry_space_group_name_H-M "I 21 21 21"
_symmetry_group_IT_number 24
_symmetry_cell_setting 'orthorhombic'
loop_
_space_group_symop_operation_xyz
x,y,z
-x,1/2-y,z
x,-y,1/2-z
1/2-x,y,-z
1/2+x,1/2+y,1/2+z
1/2-x,-y,1/2+z
1/2+x,1/2-y,-z
-x,1/2+y,1/2-z
loop_
_atom_site_type_symbol
_atom_site_label
_atom_site_fract_x
_atom_site_fract_y
_atom_site_fract_z
Si Si1 0.750000 0.028785 0.500000
Si Si2 0.500000 0.250000 0.626381
Si Si3 0.504942 0.966956 0.328857
Si Si4 0.494925 0.897918 0.097640
Si Si5 0.429192 0.169690 0.244950
Si Si6 0.955498 0.382058 0.271879
Si Si7 0.095330 0.522820 0.356541
Si Si8 0.750000 0.300764 0.500000
O O1 0.668504 0.083666 0.441205
O O2 0.881383 0.982443 0.448282
O O3 0.458213 0.317326 0.681345
O O4 0.656069 0.260721 0.568581
O O5 0.471343 0.882432 0.325844
O O6 0.706977 0.978005 0.331370
O O7 0.438888 0.000000 0.250000
O O8 0.422258 0.020532 0.389574
O O9 0.517913 0.860585 0.178705
O O10 0.385776 0.850197 0.042411
O O11 0.500000 0.250000 0.233265
O O12 0.233033 0.151257 0.262968
O O13 0.990881 0.453684 0.323870
O O14 0.018694 0.408113 0.188627
#
# Coordination Sequence:
#
# PCOD9335562 Si02
#       8
#     4   4   8   8   8   8   8   4
#     4  10  22  41  68  94 127 168 226 290 344 395
#     4  12  28  42  58  96 140 184 210 272 336 422
#     4   9  19  38  63  83 117 165 221 276 323 384
#     4  10  23  40  60  89 124 178 216 271 325 404
#     4  11  25  39  60  92 134 175 225 281 337 404
#     4  11  24  40  63  92 135 179 228 275 331 415
#     4  10  22  41  66  96 124 175 231 285 334 401
#     4  12  26  39  56  92 141 180 216 266 336 411
#
# _framework density 20.206543
#
# number of rings (size 3 to 8) (size 9 to 14) (size 15 to 20)
#    0.000    1.538    3.077    0.923    9.692    4.923 
#    0.000    0.000    0.000    0.000    8.000    1.077 
#    0.000    0.000    0.000    0.000    0.000    0.000 
#
# Total GULP energy -144772.357223 kJ/mol
# GULP energy per Si atom -5568.167586 kJ/mol
# Density = 2.016055 g / cm^3
# Si number density = 20.206543 Si / 1000 Ang^3
#
#
#
# Elastic Constant Matrix: (Units=GPa)
#
#
# Indices 1 2 3 4 5 6 
#
# 1 69.7737 38.6656 23.6768 0.0000 0.0000 0.0000
# 2 38.6656 157.6738 49.9461 0.0000 0.0000 0.0000
# 3 23.6768 49.9461 54.2155 0.0000 0.0000 0.0000
# 4 0.0000 0.0000 0.0000 607.3765 0.0000 0.0000
# 5 0.0000 0.0000 0.0000 0.0000 28.3657 0.0000
# 6 0.0000 0.0000 0.0000 0.0000 0.0000 12.2780
#
#
#
# Elastic Compliance Matrix: (Units=1/GPa)
#
#
# Indices 1 2 3 4 5 6 
#
# 1 0.017578 -0.002653 -0.005232 0.000000 0.000000 0.000000
# 2 -0.002653 0.009356 -0.007461 0.000000 0.000000 0.000000
# 3 -0.005232 -0.007461 0.027603 0.000000 0.000000 0.000000
# 4 0.000000 0.000000 0.000000 0.001646 0.000000 0.000000
# 5 0.000000 0.000000 0.000000 0.000000 0.035254 0.000000
# 6 0.000000 0.000000 0.000000 0.000000 0.000000 0.081447
#
#
# Mechanical properties :
#
#
# Convention : Reuss Voigt Hill
#
# Bulk Modulus (GPa) = 41.93788 56.24889 49.09339
# Shear Modulus (GPa) = 23.63791 140.89567 82.26679
#
# Velocity S-wave (km/s) = 3.42397 8.35937 6.38759
# Velocity P-wave (km/s) = 6.03581 11.00316 8.87414
#
# Compressibility (1/GPa) = 0.02384479
#
# Stress axis : x y z
#
# Youngs Moduli (GPa) = 56.88999 106.88180 36.22774
#
# Poissons Ratio (x) = 0.28356 0.18956
# Poissons Ratio (y) = 0.15093 0.27028
# Poissons Ratio (z) = 0.29767 0.79741
#
# Static dielectric constant tensor:
#      x y z
#    x 1.265760 0.000000 0.000000 
#    y 0.000000 1.774740 0.000000 
#    z 0.000000 0.000000 1.812190 
# 
# From -- ./inp_files/29661.got.cif
#   From: 2010.05.17/outbox.cif.g08.bks.cpg/sg24_15_cif.got.tgz:29661.got - 2010.06.04 00:33:39.
