data_PCOD9335589
_publ_section_title
;
Structure prediction by ZEFSAII (Michael W. Deem and Ramdas Pophale) SiO2 
 PCOD9335589
Probable space group: I 21 21 21
;
_chemical_formula_sum "Si O2"
_cell_formula_units_Z 36
_cell_length_a 24.207757
_cell_length_b 5.062496
_cell_length_c 14.866766
_cell_angle_alpha 90.000000
_cell_angle_beta 90.000000
_cell_angle_gamma 90.000000
_cell_volume 1821.947045
_symmetry_space_group_name_H-M "I 21 21 21"
_symmetry_group_IT_number 24
_symmetry_cell_setting 'orthorhombic'
loop_
_space_group_symop_operation_xyz
x,y,z
-x,1/2-y,z
x,-y,1/2-z
1/2-x,y,-z
1/2+x,1/2+y,1/2+z
1/2-x,-y,1/2+z
1/2+x,1/2-y,-z
-x,1/2+y,1/2-z
loop_
_atom_site_type_symbol
_atom_site_label
_atom_site_fract_x
_atom_site_fract_y
_atom_site_fract_z
Si Si1 0.816290 0.000000 0.750000
Si Si2 0.332417 0.837431 0.091097
Si Si3 0.861763 0.166734 0.021703
Si Si4 0.729810 0.623772 0.656504
Si Si5 0.459969 0.503160 0.650327
O O1 0.848524 0.212988 0.688913
O O2 0.774875 0.158079 0.815068
O O3 0.268534 0.918323 0.104015
O O4 0.338631 0.595436 0.024004
O O5 0.364643 0.092783 0.051185
O O6 0.818889 0.271273 0.095891
O O7 0.916756 0.069749 0.072334
O O8 0.708851 0.500000 0.750000
O O9 0.500000 0.750000 0.655556
O O10 0.432180 0.500000 0.750000
O O11 0.500000 0.250000 0.636028
#
# Coordination Sequence:
#
# PCOD9335589 Si02
#       5
#     4   8   8   8   8
#     4  10  22  42  54  84 136 176 200 254 314 368
#     4  11  24  39  58  91 130 170 210 264 302 380
#     4  12  25  37  65  93 122 169 222 259 311 368
#     4  10  24  37  58  87 138 171 209 246 306 376
#     4  10  23  45  65  89 127 166 210 266 321 375
#
# _framework density 19.759081999999999
#
# number of rings (size 3 to 8) (size 9 to 14) (size 15 to 20)
#    0.000    1.333    2.222    2.000   10.889    2.667 
#    0.000    0.000    0.000    0.000    0.000    4.667 
#    3.333    0.000    0.000    0.000    0.000    0.000 
#
# Total GULP energy -100461.320411 kJ/mol
# GULP energy per Si atom -5581.184467 kJ/mol
# Density = 1.971411 g / cm^3
# Si number density = 19.759082 Si / 1000 Ang^3
#
#
#
# Elastic Constant Matrix: (Units=GPa)
#
#
# Indices 1 2 3 4 5 6 
#
# 1 51.2608 34.2395 51.0091 0.0000 0.0000 0.0000
# 2 34.2395 154.8127 55.6044 0.0000 0.0000 0.0000
# 3 51.0091 55.6044 97.6491 0.0000 0.0000 0.0000
# 4 0.0000 0.0000 0.0000 53.7246 0.0000 0.0000
# 5 0.0000 0.0000 0.0000 0.0000 -13.8887 0.0000
# 6 0.0000 0.0000 0.0000 0.0000 0.0000 20.7930
#
#
#
# Elastic Compliance Matrix: (Units=1/GPa)
#
#
# Indices 1 2 3 4 5 6 
#
# 1 0.040990 -0.001729 -0.020428 0.000000 0.000000 0.000000
# 2 -0.001729 0.008193 -0.003762 0.000000 0.000000 0.000000
# 3 -0.020428 -0.003762 0.023054 0.000000 0.000000 0.000000
# 4 0.000000 0.000000 0.000000 0.018613 0.000000 0.000000
# 5 0.000000 0.000000 0.000000 0.000000 -0.072001 0.000000
# 6 0.000000 0.000000 0.000000 0.000000 0.000000 0.048093
#
#
# Mechanical properties :
#
#
# Convention : Reuss Voigt Hill
#
# Bulk Modulus (GPa) = 49.02022 65.04764 57.03393
# Shear Modulus (GPa) = 39.81493 22.98373 31.39933
#
# Velocity S-wave (km/s) = 4.49377 3.41427 3.99069
# Velocity P-wave (km/s) = 7.19639 6.96669 7.08247
#
# Compressibility (1/GPa) = 0.02039975
#
# Stress axis : x y z
#
# Youngs Moduli (GPa) = 24.39602 122.05410 43.37616
#
# Poissons Ratio (x) = 0.21098 0.88608
# Poissons Ratio (y) = 0.04217 0.16320
# Poissons Ratio (z) = 0.49836 0.45922
#
# Static dielectric constant tensor:
#      x y z
#    x 1.631080 0.000000 0.000000 
#    y 0.000000 1.764440 0.000000 
#    z 0.000000 0.000000 1.824980 
# 
# From -- ./inp_files/6265.got.cif
#   From: 2010.05.17/outbox.cif.g08.bks.cpg/sg24_4_cif.got.tgz:6265.got - 2010.06.04 00:33:39.
