data_PCOD9335510
_publ_section_title
;
Structure prediction by ZEFSAII (Michael W. Deem and Ramdas Pophale) SiO2 
 PCOD9335510
Probable space group: I 21 21 21
;
_chemical_formula_sum "Si O2"
_cell_formula_units_Z 32
_cell_length_a 8.198894
_cell_length_b 5.443140
_cell_length_c 35.233205
_cell_angle_alpha 90.000000
_cell_angle_beta 90.000000
_cell_angle_gamma 90.000000
_cell_volume 1572.377885
_symmetry_space_group_name_H-M "I 21 21 21"
_symmetry_group_IT_number 24
_symmetry_cell_setting 'orthorhombic'
loop_
_space_group_symop_operation_xyz
x,y,z
-x,1/2-y,z
x,-y,1/2-z
1/2-x,y,-z
1/2+x,1/2+y,1/2+z
1/2-x,-y,1/2+z
1/2+x,1/2-y,-z
-x,1/2+y,1/2-z
loop_
_atom_site_type_symbol
_atom_site_label
_atom_site_fract_x
_atom_site_fract_y
_atom_site_fract_z
Si Si1 0.395566 0.503930 0.148418
Si Si2 0.000000 0.750000 0.472237
Si Si3 0.250000 0.108977 0.500000
Si Si4 0.097940 0.498514 0.204521
Si Si5 0.174433 0.386962 0.424432
O O1 0.500000 0.750000 0.155063
O O2 0.268125 0.482080 0.182817
O O3 0.287977 0.566058 0.111141
O O4 0.500000 0.250000 0.144491
O O5 0.133613 0.645053 0.443915
O O6 0.914890 0.547416 0.497373
O O7 0.253175 0.246903 0.460016
O O8 0.120255 0.500000 0.250000
O O9 0.000000 0.750000 0.194388
O O10 0.000000 0.250000 0.194461
O O11 0.000000 0.250000 0.415487
#
# Coordination Sequence:
#
# PCOD9335510 Si02
#       5
#     8   4   4   8   8
#     4  12  28  43  66 104 141 179 218 281 340 388
#     4  10  22  40  66  86 118 170 218 292 330 406
#     4  10  22  42  62  92 116 166 226 282 344 382
#     4  10  22  44  76 104 134 181 226 266 324 405
#     4  10  24  43  64  90 126 177 228 277 336 406
#
# _framework density 20.351341999999999
#
# number of rings (size 3 to 8) (size 9 to 14) (size 15 to 20)
#    0.000    1.500    0.000    3.000    8.750    6.000 
#    2.250    0.000    0.000    0.000    0.000    0.000 
#    0.000    0.000    0.000    0.000    0.000    0.000 
#
# Total GULP energy -89342.439748 kJ/mol
# GULP energy per Si atom -5583.902484 kJ/mol
# Density = 2.030502 g / cm^3
# Si number density = 20.351342 Si / 1000 Ang^3
#
#
#
# Elastic Constant Matrix: (Units=GPa)
#
#
# Indices 1 2 3 4 5 6 
#
# 1 127.4856 77.2846 71.5990 0.0000 0.0000 0.0000
# 2 77.2846 153.3099 55.4726 0.0000 0.0000 0.0000
# 3 71.5990 55.4726 66.1818 0.0000 0.0000 0.0000
# 4 0.0000 0.0000 0.0000 21.8370 0.0000 0.0000
# 5 0.0000 0.0000 0.0000 0.0000 46.3620 0.0000
# 6 0.0000 0.0000 0.0000 0.0000 0.0000 -587.0667
#
#
#
# Elastic Compliance Matrix: (Units=1/GPa)
#
#
# Indices 1 2 3 4 5 6 
#
# 1 0.021172 -0.003423 -0.020035 0.000000 0.000000 0.000000
# 2 -0.003423 0.009916 -0.004608 0.000000 0.000000 0.000000
# 3 -0.020035 -0.004608 0.040647 0.000000 0.000000 0.000000
# 4 0.000000 0.000000 0.000000 0.045794 0.000000 0.000000
# 5 0.000000 0.000000 0.000000 0.000000 0.021569 0.000000
# 6 0.000000 0.000000 0.000000 0.000000 0.000000 -0.001703
#
#
# Mechanical properties :
#
#
# Convention : Reuss Voigt Hill
#
# Bulk Modulus (GPa) = 64.09404 83.96551 74.02977
# Shear Modulus (GPa) = 25.16018 -94.26546 -34.55264
#
# Velocity S-wave (km/s) = 3.51991 -6.81319 -4.12491
# Velocity P-wave (km/s) = 6.93410 4.53269 3.71056
#
# Compressibility (1/GPa) = 0.01560207
#
# Stress axis : x y z
#
# Youngs Moduli (GPa) = 47.23316 100.85066 24.60209
#
# Poissons Ratio (x) = 0.34525 0.49291
# Poissons Ratio (y) = 0.16170 0.11336
# Poissons Ratio (z) = 0.94632 0.46467
#
# Static dielectric constant tensor:
#      x y z
#    x 1.777860 0.000000 0.000000 
#    y 0.000000 1.778850 0.000000 
#    z 0.000000 0.000000 2.087870 
# 
# From -- ./inp_files/1171.got.cif
#   From: 2010.05.17/outbox.cif.g08.bks.cpg/sg24_1_cif.got.tgz:1171.got - 2010.06.04 00:33:39.
