data_PCOD9335711
_publ_section_title
;
Structure prediction by ZEFSAII (Michael W. Deem and Ramdas Pophale) SiO2 
 PCOD9335711
Probable space group: I 21 21 21
;
_chemical_formula_sum "Si O2"
_cell_formula_units_Z 32
_cell_length_a 5.139232
_cell_length_b 13.551500
_cell_length_c 20.024712
_cell_angle_alpha 90.000000
_cell_angle_beta 90.000000
_cell_angle_gamma 90.000000
_cell_volume 1394.607099
_symmetry_space_group_name_H-M "I 21 21 21"
_symmetry_group_IT_number 24
_symmetry_cell_setting 'orthorhombic'
loop_
_space_group_symop_operation_xyz
x,y,z
-x,1/2-y,z
x,-y,1/2-z
1/2-x,y,-z
1/2+x,1/2+y,1/2+z
1/2-x,-y,1/2+z
1/2+x,1/2-y,-z
-x,1/2+y,1/2-z
loop_
_atom_site_type_symbol
_atom_site_label
_atom_site_fract_x
_atom_site_fract_y
_atom_site_fract_z
Si Si1 0.839377 0.566821 0.927427
Si Si2 0.858444 0.141825 0.355402
Si Si3 0.405976 0.636691 0.431974
Si Si4 0.252316 0.680117 0.708895
O O1 0.597480 0.576096 0.878321
O O2 0.101114 0.621509 0.900406
O O3 0.888879 0.450525 0.933344
O O4 0.750000 0.606197 0.000000
O O5 0.777826 0.124208 0.278810
O O6 0.000000 0.250000 0.360302
O O7 0.500000 0.750000 0.432033
O O8 0.250000 0.623603 0.500000
O O9 0.266386 0.622542 0.360563
O O10 0.500000 0.750000 0.702934
O O11 0.000000 0.750000 0.715246
#
# Coordination Sequence:
#
# PCOD9335711 Si02
#       4
#     8   8   8   8
#     4  12  26  45  70 103 137 179 235 278 333 414
#     4  11  24  47  72  99 140 180 223 286 342 396
#     4  11  24  45  72 102 140 182 223 282 342 400
#     4  10  22  43  72 103 135 178 229 275 337 413
#
# _framework density 22.945529000000001
#
# number of rings (size 3 to 8) (size 9 to 14) (size 15 to 20)
#    0.000    1.000    0.000    7.500    0.000    9.000 
#    0.000   12.500    0.000    0.000    0.000    0.000 
#    0.000    0.000    0.000    0.000    0.000    0.000 
#
# Total GULP energy -89468.425191 kJ/mol
# GULP energy per Si atom -5591.776574 kJ/mol
# Density = 2.289330 g / cm^3
# Si number density = 22.945529 Si / 1000 Ang^3
#
#
#
# Elastic Constant Matrix: (Units=GPa)
#
#
# Indices 1 2 3 4 5 6 
#
# 1 179.3067 54.4345 94.2083 0.0000 0.0000 0.0000
# 2 54.4345 91.5478 77.8143 0.0000 0.0000 0.0000
# 3 94.2083 77.8143 203.3096 0.0000 0.0000 0.0000
# 4 0.0000 0.0000 0.0000 -179.2736 0.0000 0.0000
# 5 0.0000 0.0000 0.0000 0.0000 54.0051 0.0000
# 6 0.0000 0.0000 0.0000 0.0000 0.0000 43.3854
#
#
#
# Elastic Compliance Matrix: (Units=1/GPa)
#
#
# Indices 1 2 3 4 5 6 
#
# 1 0.007681 -0.002285 -0.002685 0.000000 0.000000 0.000000
# 2 -0.002285 0.016870 -0.005398 0.000000 0.000000 0.000000
# 3 -0.002685 -0.005398 0.008229 0.000000 0.000000 0.000000
# 4 0.000000 0.000000 0.000000 -0.005578 0.000000 0.000000
# 5 0.000000 0.000000 0.000000 0.000000 0.018517 0.000000
# 6 0.000000 0.000000 0.000000 0.000000 0.000000 0.023049
#
#
# Mechanical properties :
#
#
# Convention : Reuss Voigt Hill
#
# Bulk Modulus (GPa) = 83.02673 103.00871 93.01772
# Shear Modulus (GPa) = 53.46513 0.13719 26.80116
#
# Velocity S-wave (km/s) = 4.83234 0.24478 3.42136
# Velocity P-wave (km/s) = 8.20964 6.71342 7.49894
#
# Compressibility (1/GPa) = 0.01204431
#
# Stress axis : x y z
#
# Youngs Moduli (GPa) = 130.18516 59.27567 121.52802
#
# Poissons Ratio (x) = 0.13547 0.32625
# Poissons Ratio (y) = 0.29754 0.65599
# Poissons Ratio (z) = 0.34950 0.31996
#
# Static dielectric constant tensor:
#      x y z
#    x 1.817250 0.000000 0.000000 
#    y 0.000000 1.809660 0.000000 
#    z 0.000000 0.000000 1.886290 
# 
# From -- ./inp_files/28502.got.cif
#   From: 2010.05.17/outbox.cif.g08.bks.cpg/sg24_15_cif.got.tgz:28502.got - 2010.06.04 00:33:39.
