data_PCOD9335027
_publ_section_title
;
Structure prediction by ZEFSAII (Michael W. Deem and Ramdas Pophale) SiO2 
 PCOD9335027
Probable space group: I 21 21 21
;
_chemical_formula_sum "Si O2"
_cell_formula_units_Z 40
_cell_length_a 15.050262
_cell_length_b 7.175534
_cell_length_c 18.094742
_cell_angle_alpha 90.000000
_cell_angle_beta 90.000000
_cell_angle_gamma 90.000000
_cell_volume 1954.117536
_symmetry_space_group_name_H-M "I 21 21 21"
_symmetry_group_IT_number 24
_symmetry_cell_setting 'orthorhombic'
loop_
_space_group_symop_operation_xyz
x,y,z
-x,1/2-y,z
x,-y,1/2-z
1/2-x,y,-z
1/2+x,1/2+y,1/2+z
1/2-x,-y,1/2+z
1/2+x,1/2-y,-z
-x,1/2+y,1/2-z
loop_
_atom_site_type_symbol
_atom_site_label
_atom_site_fract_x
_atom_site_fract_y
_atom_site_fract_z
Si Si1 0.250000 0.207317 0.500000
Si Si2 0.858231 0.000000 0.250000
Si Si3 0.756884 0.041459 0.893153
Si Si4 0.157123 0.081690 0.101102
Si Si5 0.400832 0.314017 0.203611
Si Si6 0.000000 0.750000 0.325052
Si Si7 0.229677 0.000000 0.750000
O O1 0.279669 0.358063 0.439025
O O2 0.179132 0.070047 0.461264
O O3 0.795778 0.028416 0.320292
O O4 0.924095 0.835647 0.273322
O O5 0.693602 0.211169 0.922115
O O6 0.847021 0.143201 0.870487
O O7 0.210766 0.022461 0.176146
O O8 0.054171 0.104832 0.124059
O O9 0.500000 0.250000 0.189434
O O10 0.407016 0.500000 0.250000
O O11 0.337957 0.173032 0.248714
#
# Coordination Sequence:
#
# PCOD9335027 Si02
#       7
#     4   4   8   8   8   4   4
#     4  12  24  42  74  92 138 196 216 264 364 426
#     4  10  21  39  70 106 140 170 230 297 339 402
#     4  10  23  41  67 100 135 179 229 277 337 414
#     4  10  23  41  69 102 136 182 227 280 346 412
#     4  11  20  36  64  99 131 164 224 284 326 387
#     4  10  22  38  70 108 140 170 232 300 334 398
#     4  10  21  39  70 100 132 172 232 279 341 402
#
# _framework density 20.469595999999999
#
# number of rings (size 3 to 8) (size 9 to 14) (size 15 to 20)
#    0.000    1.600    2.000    2.400    8.400    0.000 
#    0.000    0.000   52.800    0.000    0.000    0.000 
#    0.000    0.000    0.000    0.000    0.000    0.000 
#
# Total GULP energy -111581.961149 kJ/mol
# GULP energy per Si atom -5579.098057 kJ/mol
# Density = 2.042301 g / cm^3
# Si number density = 20.469596 Si / 1000 Ang^3
#
#
#
# Elastic Constant Matrix: (Units=GPa)
#
#
# Indices 1 2 3 4 5 6 
#
# 1 129.1802 46.6031 36.0538 0.0000 0.0000 0.0000
# 2 46.6031 134.3639 47.1915 0.0000 0.0000 0.0000
# 3 36.0538 47.1915 74.5371 0.0000 0.0000 0.0000
# 4 0.0000 0.0000 0.0000 46.5924 0.0000 0.0000
# 5 0.0000 0.0000 0.0000 0.0000 -30.4698 0.0000
# 6 0.0000 0.0000 0.0000 0.0000 0.0000 43.9158
#
#
#
# Elastic Compliance Matrix: (Units=1/GPa)
#
#
# Indices 1 2 3 4 5 6 
#
# 1 0.009405 -0.002140 -0.003194 0.000000 0.000000 0.000000
# 2 -0.002140 0.010058 -0.005333 0.000000 0.000000 0.000000
# 3 -0.003194 -0.005333 0.018337 0.000000 0.000000 0.000000
# 4 0.000000 0.000000 0.000000 0.021463 0.000000 0.000000
# 5 0.000000 0.000000 0.000000 0.000000 -0.032819 0.000000
# 6 0.000000 0.000000 0.000000 0.000000 0.000000 0.022771
#
#
# Mechanical properties :
#
#
# Convention : Reuss Voigt Hill
#
# Bulk Modulus (GPa) = 60.73103 66.41980 63.57542
# Shear Modulus (GPa) = 65.75814 25.88987 45.82401
#
# Velocity S-wave (km/s) = 5.67402 3.56026 4.73656
# Velocity P-wave (km/s) = 8.52404 7.02987 7.81276
#
# Compressibility (1/GPa) = 0.01646605
#
# Stress axis : x y z
#
# Youngs Moduli (GPa) = 106.33042 99.42638 54.53344
#
# Poissons Ratio (x) = 0.21278 0.17419
# Poissons Ratio (y) = 0.22756 0.29081
# Poissons Ratio (z) = 0.33963 0.53020
#
# Static dielectric constant tensor:
#      x y z
#    x 1.704250 0.000000 0.000000 
#    y 0.000000 1.803110 0.000000 
#    z 0.000000 0.000000 1.791000 
# 
# From -- ./inp_files/33634.got.cif
#   From: 2010.05.17/outbox.cif.g08.bks.cpg/sg24_17_cif.got.tgz:33634.got - 2010.06.04 00:33:39.
