data_PCOD9335570
_publ_section_title
;
Structure prediction by ZEFSAII (Michael W. Deem and Ramdas Pophale) SiO2 
 PCOD9335570
Probable space group: I 21 21 21
;
_chemical_formula_sum "Si O2"
_cell_formula_units_Z 56
_cell_length_a 16.360866
_cell_length_b 19.478682
_cell_length_c 8.220731
_cell_angle_alpha 90.000000
_cell_angle_beta 90.000000
_cell_angle_gamma 90.000000
_cell_volume 2619.849193
_symmetry_space_group_name_H-M "I 21 21 21"
_symmetry_group_IT_number 24
_symmetry_cell_setting 'orthorhombic'
loop_
_space_group_symop_operation_xyz
x,y,z
-x,1/2-y,z
x,-y,1/2-z
1/2-x,y,-z
1/2+x,1/2+y,1/2+z
1/2-x,-y,1/2+z
1/2+x,1/2-y,-z
-x,1/2+y,1/2-z
loop_
_atom_site_type_symbol
_atom_site_label
_atom_site_fract_x
_atom_site_fract_y
_atom_site_fract_z
Si Si1 0.656942 0.876357 0.968227
Si Si2 0.159014 0.781276 0.932882
Si Si3 0.058367 0.186584 0.263704
Si Si4 0.426555 0.421808 0.816802
Si Si5 0.022301 0.510572 0.937982
Si Si6 0.840068 0.513998 0.559556
Si Si7 0.839844 0.678829 0.553460
O O1 0.644742 0.880427 0.772095
O O2 0.750000 0.899392 0.000000
O O3 0.645370 0.800463 0.039790
O O4 0.584302 0.925992 0.031386
O O5 0.145491 0.801180 0.743400
O O6 0.250000 0.793833 0.000000
O O7 0.106898 0.821278 0.068150
O O8 0.000000 0.250000 0.297345
O O9 0.006783 0.119242 0.228577
O O10 0.103811 0.204592 0.094590
O O11 0.427247 0.500000 0.750000
O O12 0.431589 0.440547 0.004158
O O13 0.010177 0.500000 0.750000
O O14 0.928244 0.513734 0.006056
O O15 0.837970 0.500000 0.750000
O O16 0.750000 0.489030 0.500000
O O17 0.842992 0.596207 0.538213
O O18 0.750000 0.702230 0.500000
#
# Coordination Sequence:
#
# PCOD9335570 Si02
#       7
#     8   8   8   8   8   8   8
#     4  10  23  44  68 100 132 181 237 283 354 419
#     4  11  24  45  72  99 141 184 236 299 352 429
#     4  12  24  44  70 104 139 188 242 290 366 431
#     4  10  22  43  67  94 141 179 225 299 350 417
#     4  10  22  41  67  97 139 178 230 287 352 421
#     4  10  23  43  63  98 138 180 234 282 352 430
#     4  11  24  45  68 101 140 186 236 292 359 432
#
# _framework density 21.375275999999999
#
# number of rings (size 3 to 8) (size 9 to 14) (size 15 to 20)
#    0.000    1.429    4.286    0.000    0.000   10.286 
#    0.000    0.000    0.000    0.857    0.000    0.000 
#    0.000    0.000    0.000    0.000    0.000    0.000 
#
# Total GULP energy -155945.221066 kJ/mol
# GULP energy per Si atom -5569.472181 kJ/mol
# Density = 2.132663 g / cm^3
# Si number density = 21.375276 Si / 1000 Ang^3
#
#
#
# Elastic Constant Matrix: (Units=GPa)
#
#
# Indices 1 2 3 4 5 6 
#
# 1 123.3941 20.8999 44.7622 0.0000 0.0000 0.0000
# 2 20.8999 53.7719 5.4622 0.0000 0.0000 0.0000
# 3 44.7622 5.4622 129.5866 0.0000 0.0000 0.0000
# 4 0.0000 0.0000 0.0000 30.4312 0.0000 0.0000
# 5 0.0000 0.0000 0.0000 0.0000 32.2369 0.0000
# 6 0.0000 0.0000 0.0000 0.0000 0.0000 11.6061
#
#
#
# Elastic Compliance Matrix: (Units=1/GPa)
#
#
# Indices 1 2 3 4 5 6 
#
# 1 0.009883 -0.003510 -0.003266 0.000000 0.000000 0.000000
# 2 -0.003510 0.019923 0.000373 0.000000 0.000000 0.000000
# 3 -0.003266 0.000373 0.008829 0.000000 0.000000 0.000000
# 4 0.000000 0.000000 0.000000 0.032861 0.000000 0.000000
# 5 0.000000 0.000000 0.000000 0.000000 0.031020 0.000000
# 6 0.000000 0.000000 0.000000 0.000000 0.000000 0.086162
#
#
# Mechanical properties :
#
#
# Convention : Reuss Voigt Hill
#
# Bulk Modulus (GPa) = 38.71509 49.88903 44.30206
# Shear Modulus (GPa) = 23.79871 30.56340 27.18106
#
# Velocity S-wave (km/s) = 3.34035 3.78544 3.56984
# Velocity P-wave (km/s) = 5.74706 6.51892 6.14512
#
# Compressibility (1/GPa) = 0.02582972
#
# Stress axis : x y z
#
# Youngs Moduli (GPa) = 101.18045 50.19238 113.25926
#
# Poissons Ratio (x) = 0.17616 0.36990
# Poissons Ratio (y) = 0.35511 -0.04219
# Poissons Ratio (z) = 0.33046 -0.01870
#
# Static dielectric constant tensor:
#      x y z
#    x 1.838570 0.000000 0.000000 
#    y 0.000000 1.848360 0.000000 
#    z 0.000000 0.000000 1.950210 
# 
# From -- ./inp_files/13175.got.cif
#   From: 2010.05.17/outbox.cif.g08.bks.cpg/sg24_7_cif.got.tgz:13175.got - 2010.06.04 00:33:39.
