data_PCOD9335204
_publ_section_title
;
Structure prediction by ZEFSAII (Michael W. Deem and Ramdas Pophale) SiO2 
 PCOD9335204
Probable space group: I 21 21 21
;
_chemical_formula_sum "Si O2"
_cell_formula_units_Z 56
_cell_length_a 16.247831
_cell_length_b 19.212454
_cell_length_c 8.370984
_cell_angle_alpha 90.000000
_cell_angle_beta 90.000000
_cell_angle_gamma 90.000000
_cell_volume 2613.092273
_symmetry_space_group_name_H-M "I 21 21 21"
_symmetry_group_IT_number 24
_symmetry_cell_setting 'orthorhombic'
loop_
_space_group_symop_operation_xyz
x,y,z
-x,1/2-y,z
x,-y,1/2-z
1/2-x,y,-z
1/2+x,1/2+y,1/2+z
1/2-x,-y,1/2+z
1/2+x,1/2-y,-z
-x,1/2+y,1/2-z
loop_
_atom_site_type_symbol
_atom_site_label
_atom_site_fract_x
_atom_site_fract_y
_atom_site_fract_z
Si Si1 0.657213 0.879751 0.972789
Si Si2 0.097710 0.763581 0.878660
Si Si3 0.065368 0.188285 0.292119
Si Si4 0.433970 0.419332 0.804960
Si Si5 0.021710 0.505252 0.937400
Si Si6 0.839039 0.515381 0.563317
Si Si7 0.842029 0.682629 0.534000
O O1 0.639576 0.878436 0.781460
O O2 0.750000 0.904261 0.000000
O O3 0.641664 0.807438 0.062917
O O4 0.586212 0.932693 0.030932
O O5 0.128756 0.790993 0.707754
O O6 0.000000 0.750000 0.857768
O O7 0.109895 0.813552 0.035064
O O8 0.000000 0.250000 0.314283
O O9 0.014631 0.119006 0.256324
O O10 0.110607 0.204714 0.126666
O O11 0.431120 0.500000 0.750000
O O12 0.441149 0.432693 0.992867
O O13 0.013855 0.500000 0.750000
O O14 0.927299 0.512978 0.999730
O O15 0.836649 0.500000 0.750000
O O16 0.750000 0.490260 0.500000
O O17 0.843782 0.598492 0.537575
O O18 0.750000 0.706269 0.500000
#
# Coordination Sequence:
#
# PCOD9335204 Si02
#       7
#     8   8   8   8   8   8   8
#     4  11  25  45  67 104 138 182 242 290 356 433
#     4  11  25  44  74  98 139 187 244 295 363 428
#     4  11  22  43  70 101 137 192 244 289 365 431
#     4  10  21  42  68  96 138 182 235 294 353 424
#     4  10  23  41  73  98 143 185 236 286 363 423
#     4  10  23  44  64 101 141 179 239 292 358 432
#     4  11  26  44  65 104 142 183 234 298 365 439
#
# _framework density 21.430548000000002
#
# number of rings (size 3 to 8) (size 9 to 14) (size 15 to 20)
#    0.000    1.429    4.286    0.429    6.000    4.571 
#    5.143    0.000    0.000    0.857    0.000    0.000 
#    0.000    0.000    0.000    0.000    0.000    0.000 
#
# Total GULP energy -156046.173778 kJ/mol
# GULP energy per Si atom -5573.077635 kJ/mol
# Density = 2.138177 g / cm^3
# Si number density = 21.430548 Si / 1000 Ang^3
#
#
#
# Elastic Constant Matrix: (Units=GPa)
#
#
# Indices 1 2 3 4 5 6 
#
# 1 132.3657 24.8838 63.2283 0.0000 0.0000 0.0000
# 2 24.8838 47.3369 22.1142 0.0000 0.0000 0.0000
# 3 63.2283 22.1142 168.6910 0.0000 0.0000 0.0000
# 4 0.0000 0.0000 0.0000 26.9764 0.0000 0.0000
# 5 0.0000 0.0000 0.0000 0.0000 7.9193 0.0000
# 6 0.0000 0.0000 0.0000 0.0000 0.0000 23.4162
#
#
#
# Elastic Compliance Matrix: (Units=1/GPa)
#
#
# Indices 1 2 3 4 5 6 
#
# 1 0.009759 -0.003644 -0.003180 0.000000 0.000000 0.000000
# 2 -0.003644 0.023864 -0.001762 0.000000 0.000000 0.000000
# 3 -0.003180 -0.001762 0.007351 0.000000 0.000000 0.000000
# 4 0.000000 0.000000 0.000000 0.037069 0.000000 0.000000
# 5 0.000000 0.000000 0.000000 0.000000 0.126273 0.000000
# 6 0.000000 0.000000 0.000000 0.000000 0.000000 0.042705
#
#
# Mechanical properties :
#
#
# Convention : Reuss Voigt Hill
#
# Bulk Modulus (GPa) = 42.01610 63.20511 52.61061
# Shear Modulus (GPa) = 18.37357 27.54022 22.95690
#
# Velocity S-wave (km/s) = 2.93124 3.58871 3.27651
# Velocity P-wave (km/s) = 5.57714 6.83585 6.23832
#
# Compressibility (1/GPa) = 0.02380040
#
# Stress axis : x y z
#
# Youngs Moduli (GPa) = 102.46936 41.90355 136.03605
#
# Poissons Ratio (x) = 0.15271 0.43261
# Poissons Ratio (y) = 0.37344 0.23976
# Poissons Ratio (z) = 0.32586 0.07385
#
# Static dielectric constant tensor:
#      x y z
#    x 1.800040 0.000000 0.000000 
#    y 0.000000 1.808100 0.000000 
#    z 0.000000 0.000000 1.987350 
# 
# From -- ./inp_files/13176.got.cif
#   From: 2010.05.17/outbox.cif.g08.bks.cpg/sg24_7_cif.got.tgz:13176.got - 2010.06.04 00:33:39.
