data_PCOD9335494
_publ_section_title
;
Structure prediction by ZEFSAII (Michael W. Deem and Ramdas Pophale) SiO2 
 PCOD9335494
Probable space group: I 21 21 21
;
_chemical_formula_sum "Si O2"
_cell_formula_units_Z 36
_cell_length_a 5.103065
_cell_length_b 25.763172
_cell_length_c 11.526788
_cell_angle_alpha 90.000000
_cell_angle_beta 90.000000
_cell_angle_gamma 90.000000
_cell_volume 1515.439974
_symmetry_space_group_name_H-M "I 21 21 21"
_symmetry_group_IT_number 24
_symmetry_cell_setting 'orthorhombic'
loop_
_space_group_symop_operation_xyz
x,y,z
-x,1/2-y,z
x,-y,1/2-z
1/2-x,y,-z
1/2+x,1/2+y,1/2+z
1/2-x,-y,1/2+z
1/2+x,1/2-y,-z
-x,1/2+y,1/2-z
loop_
_atom_site_type_symbol
_atom_site_label
_atom_site_fract_x
_atom_site_fract_y
_atom_site_fract_z
Si Si1 0.006612 0.039302 0.575004
Si Si2 0.500577 0.688429 0.919397
Si Si3 0.250000 0.720018 0.500000
Si Si4 0.470487 0.423841 0.163478
Si Si5 0.028739 0.139508 0.167143
O O1 0.250000 0.056963 0.500000
O O2 0.997371 0.066277 0.699226
O O3 0.750000 0.048370 0.500000
O O4 0.031163 0.977775 0.601200
O O5 0.500000 0.750000 0.887941
O O6 0.512990 0.655631 0.801782
O O7 0.250000 0.677706 0.000000
O O8 0.750000 0.679480 0.000000
O O9 0.500000 0.750000 0.443885
O O10 0.405122 0.686224 0.594447
O O11 0.172015 0.407444 0.142401
O O12 0.679665 0.378953 0.134401
#
# Coordination Sequence:
#
# PCOD9335494 Si02
#       5
#     8   8   4   8   8
#     4  11  24  44  69  93 140 182 219 288 347 421
#     4  10  22  40  64  93 127 171 215 274 348 407
#     4  12  28  48  70 102 144 194 236 290 362 410
#     4  11  26  42  65 105 128 177 237 273 348 407
#     4  12  25  43  70  99 138 176 234 292 332 427
#
# _framework density 23.755478
#
# number of rings (size 3 to 8) (size 9 to 14) (size 15 to 20)
#    0.000    0.889    0.000    6.000    4.667   11.556 
#    0.000    0.000    0.000    0.000    0.000    0.000 
#    0.000    0.000    0.000    0.000    0.000    0.000 
#
# Total GULP energy -100959.362493 kJ/mol
# GULP energy per Si atom -5608.853472 kJ/mol
# Density = 2.370141 g / cm^3
# Si number density = 23.755478 Si / 1000 Ang^3
#
#
#
# Elastic Constant Matrix: (Units=GPa)
#
#
# Indices 1 2 3 4 5 6 
#
# 1 162.1574 15.3820 27.2240 0.0000 0.0000 0.0000
# 2 15.3820 78.4631 13.1418 0.0000 0.0000 0.0000
# 3 27.2240 13.1418 96.3642 0.0000 0.0000 0.0000
# 4 0.0000 0.0000 0.0000 31.0499 0.0000 0.0000
# 5 0.0000 0.0000 0.0000 0.0000 34.6425 0.0000
# 6 0.0000 0.0000 0.0000 0.0000 0.0000 54.4387
#
#
#
# Elastic Compliance Matrix: (Units=1/GPa)
#
#
# Indices 1 2 3 4 5 6 
#
# 1 0.006549 -0.000997 -0.001714 0.000000 0.000000 0.000000
# 2 -0.000997 0.013194 -0.001518 0.000000 0.000000 0.000000
# 3 -0.001714 -0.001518 0.011069 0.000000 0.000000 0.000000
# 4 0.000000 0.000000 0.000000 0.032206 0.000000 0.000000
# 5 0.000000 0.000000 0.000000 0.000000 0.028866 0.000000
# 6 0.000000 0.000000 0.000000 0.000000 0.000000 0.018369
#
#
# Mechanical properties :
#
#
# Convention : Reuss Voigt Hill
#
# Bulk Modulus (GPa) = 44.73373 49.83116 47.28245
# Shear Modulus (GPa) = 39.63117 42.77535 41.20326
#
# Velocity S-wave (km/s) = 4.08891 4.24801 4.16922
# Velocity P-wave (km/s) = 6.41592 6.71439 6.56685
#
# Compressibility (1/GPa) = 0.02235450
#
# Stress axis : x y z
#
# Youngs Moduli (GPa) = 152.69025 75.78932 90.34572
#
# Poissons Ratio (x) = 0.07555 0.15488
# Poissons Ratio (y) = 0.15220 0.13713
# Poissons Ratio (z) = 0.26176 0.11503
#
# Static dielectric constant tensor:
#      x y z
#    x 1.827730 0.000000 0.000000 
#    y 0.000000 1.956700 0.000000 
#    z 0.000000 0.000000 1.825210 
# 
# From -- ./inp_files/17542.got.cif
#   From: 2010.05.17/outbox.cif.g08.bks.cpg/sg24_9_cif.got.tgz:17542.got - 2010.06.04 00:33:39.
