data_PCOD9335787
_publ_section_title
;
Structure prediction by ZEFSAII (Michael W. Deem and Ramdas Pophale) SiO2 
 PCOD9335787
Probable space group: I 21 21 21
;
_chemical_formula_sum "Si O2"
_cell_formula_units_Z 56
_cell_length_a 22.198171
_cell_length_b 22.792764
_cell_length_c 5.162629
_cell_angle_alpha 90.000000
_cell_angle_beta 90.000000
_cell_angle_gamma 90.000000
_cell_volume 2612.071755
_symmetry_space_group_name_H-M "I 21 21 21"
_symmetry_group_IT_number 24
_symmetry_cell_setting 'orthorhombic'
loop_
_space_group_symop_operation_xyz
x,y,z
-x,1/2-y,z
x,-y,1/2-z
1/2-x,y,-z
1/2+x,1/2+y,1/2+z
1/2-x,-y,1/2+z
1/2+x,1/2-y,-z
-x,1/2+y,1/2-z
loop_
_atom_site_type_symbol
_atom_site_label
_atom_site_fract_x
_atom_site_fract_y
_atom_site_fract_z
Si Si1 0.390421 0.036117 0.487387
Si Si2 0.815607 0.723354 0.953204
Si Si3 0.606351 0.830750 0.247442
Si Si4 0.694428 0.599983 0.324240
Si Si5 0.972885 0.186366 0.252023
Si Si6 0.900724 0.643967 0.280929
Si Si7 0.292300 0.569043 0.250222
O O1 0.322780 0.054061 0.397704
O O2 0.414900 0.101035 0.539753
O O3 0.394312 0.000000 0.750000
O O4 0.417800 0.000000 0.250000
O O5 0.856153 0.771772 0.817199
O O6 0.798151 0.664847 0.792699
O O7 0.750000 0.751118 0.000000
O O8 0.857149 0.696603 0.184672
O O9 0.575713 0.818848 0.524219
O O10 0.651719 0.886130 0.252990
O O11 0.557657 0.837913 0.014496
O O12 0.750000 0.583459 0.500000
O O13 0.637541 0.607689 0.513316
O O14 0.000000 0.250000 0.323696
O O15 0.033442 0.159449 0.126992
O O16 0.311239 0.500000 0.250000
O O17 0.250000 0.578695 0.500000
O O18 0.250000 0.578622 0.000000
#
# Coordination Sequence:
#
# PCOD9335787 Si02
#       7
#     8   8   8   8   8   8   8
#     4  11  24  45  67  95 128 173 230 285 338 404
#     4  11  23  39  67 102 139 173 223 291 350 415
#     4  12  26  43  71 108 139 184 238 276 347 432
#     4  11  23  42  68  96 135 177 228 290 357 403
#     4  12  26  45  69  98 141 189 227 281 340 421
#     4  11  24  45  66  94 136 184 229 280 349 408
#     4  10  22  45  76 107 148 185 226 293 364 425
#
# _framework density 21.438918999999999
#
# number of rings (size 3 to 8) (size 9 to 14) (size 15 to 20)
#    0.000    0.857    4.286    2.571    4.000    0.571 
#    2.571    2.143    0.000    0.000    0.000    0.000 
#    0.000    0.000    0.000    0.000    0.000    0.000 
#
# Total GULP energy -156278.240167 kJ/mol
# GULP energy per Si atom -5581.365720 kJ/mol
# Density = 2.139012 g / cm^3
# Si number density = 21.438919 Si / 1000 Ang^3
#
#
#
# Elastic Constant Matrix: (Units=GPa)
#
#
# Indices 1 2 3 4 5 6 
#
# 1 101.8046 28.0861 27.2479 0.0000 0.0000 0.0000
# 2 28.0861 62.1790 14.9210 0.0000 0.0000 0.0000
# 3 27.2479 14.9210 112.1486 0.0000 0.0000 0.0000
# 4 0.0000 0.0000 0.0000 -69.2076 0.0000 0.0000
# 5 0.0000 0.0000 0.0000 0.0000 36.1392 0.0000
# 6 0.0000 0.0000 0.0000 0.0000 0.0000 -18.2293
#
#
#
# Elastic Compliance Matrix: (Units=1/GPa)
#
#
# Indices 1 2 3 4 5 6 
#
# 1 0.011731 -0.004767 -0.002216 0.000000 0.000000 0.000000
# 2 -0.004767 0.018550 -0.001310 0.000000 0.000000 0.000000
# 3 -0.002216 -0.001310 0.009629 0.000000 0.000000 0.000000
# 4 0.000000 0.000000 0.000000 -0.014449 0.000000 0.000000
# 5 0.000000 0.000000 0.000000 0.000000 0.027671 0.000000
# 6 0.000000 0.000000 0.000000 0.000000 0.000000 -0.054857
#
#
# Mechanical properties :
#
#
# Convention : Reuss Voigt Hill
#
# Bulk Modulus (GPa) = 42.87270 46.29359 44.58314
# Shear Modulus (GPa) = 220.88527 3.46560 112.17544
#
# Velocity S-wave (km/s) = 10.16138 1.27280 7.24133
# Velocity P-wave (km/s) = 12.55837 4.87854 9.52661
#
# Compressibility (1/GPa) = 0.02332487
#
# Stress axis : x y z
#
# Youngs Moduli (GPa) = 85.24428 53.90771 103.84867
#
# Poissons Ratio (x) = 0.25698 0.23012
# Poissons Ratio (y) = 0.40637 0.13602
# Poissons Ratio (z) = 0.18890 0.07061
#
# Static dielectric constant tensor:
#      x y z
#    x 1.821990 0.000000 0.000000 
#    y 0.000000 1.884000 0.000000 
#    z 0.000000 0.000000 1.853420 
# 
# From -- ./inp_files/6507.got.cif
#   From: 2010.05.17/outbox.cif.g08.bks.cpg/sg24_4_cif.got.tgz:6507.got - 2010.06.04 00:33:39.
