data_PCOD9335484
_publ_section_title
;
Structure prediction by ZEFSAII (Michael W. Deem and Ramdas Pophale) SiO2 
 PCOD9335484
Probable space group: I 21 21 21
;
_chemical_formula_sum "Si O2"
_cell_formula_units_Z 32
_cell_length_a 14.424812
_cell_length_b 12.112030
_cell_length_c 8.071491
_cell_angle_alpha 90.000000
_cell_angle_beta 90.000000
_cell_angle_gamma 90.000000
_cell_volume 1410.200507
_symmetry_space_group_name_H-M "I 21 21 21"
_symmetry_group_IT_number 24
_symmetry_cell_setting 'orthorhombic'
loop_
_space_group_symop_operation_xyz
x,y,z
-x,1/2-y,z
x,-y,1/2-z
1/2-x,y,-z
1/2+x,1/2+y,1/2+z
1/2-x,-y,1/2+z
1/2+x,1/2-y,-z
-x,1/2+y,1/2-z
loop_
_atom_site_type_symbol
_atom_site_label
_atom_site_fract_x
_atom_site_fract_y
_atom_site_fract_z
Si Si1 0.142381 0.338896 0.870661
Si Si2 0.107658 0.719896 0.260805
Si Si3 0.898959 0.310661 0.567463
Si Si4 0.298355 0.500000 0.750000
Si Si5 0.516925 0.500000 0.250000
O O1 0.149342 0.254059 0.718259
O O2 0.223230 0.428025 0.848919
O O3 0.048293 0.410393 0.843121
O O4 0.141921 0.280597 0.049195
O O5 0.132516 0.596847 0.189660
O O6 0.000000 0.750000 0.278128
O O7 0.144897 0.797770 0.113848
O O8 0.920786 0.434219 0.620483
O O9 0.000000 0.250000 0.555851
#
# Coordination Sequence:
#
# PCOD9335484 Si02
#       5
#     8   8   8   4   4
#     4  10  22  40  62  98 139 180 234 295 354 418
#     4  11  24  38  61 100 135 178 233 289 350 422
#     4   9  20  37  58  97 135 180 234 288 346 436
#     4  11  26  40  70 101 140 186 234 295 352 412
#     4   9  18  38  66  91 140 188 234 289 368 412
#
# _framework density 22.691807000000001
#
# number of rings (size 3 to 8) (size 9 to 14) (size 15 to 20)
#    0.000    2.000    0.000    3.000   17.500    0.000 
#    0.000    0.000    0.000    1.500   13.000    0.000 
#    0.000    0.000    0.000    0.000    0.000    0.000 
#
# Total GULP energy -89144.884682 kJ/mol
# GULP energy per Si atom -5571.555293 kJ/mol
# Density = 2.264016 g / cm^3
# Si number density = 22.691807 Si / 1000 Ang^3
#
#
#
# Elastic Constant Matrix: (Units=GPa)
#
#
# Indices 1 2 3 4 5 6 
#
# 1 84.5488 51.8710 61.4125 0.0000 0.0000 0.0000
# 2 51.8710 80.3937 52.6768 0.0000 0.0000 0.0000
# 3 61.4125 52.6768 206.1686 0.0000 0.0000 0.0000
# 4 0.0000 0.0000 0.0000 34.7910 0.0000 0.0000
# 5 0.0000 0.0000 0.0000 0.0000 19.6071 0.0000
# 6 0.0000 0.0000 0.0000 0.0000 0.0000 51.4229
#
#
#
# Elastic Compliance Matrix: (Units=1/GPa)
#
#
# Indices 1 2 3 4 5 6 
#
# 1 0.021414 -0.011575 -0.003421 0.000000 0.000000 0.000000
# 2 -0.011575 0.021196 -0.001968 0.000000 0.000000 0.000000
# 3 -0.003421 -0.001968 0.006372 0.000000 0.000000 0.000000
# 4 0.000000 0.000000 0.000000 0.028743 0.000000 0.000000
# 5 0.000000 0.000000 0.000000 0.000000 0.051002 0.000000
# 6 0.000000 0.000000 0.000000 0.000000 0.000000 0.019447
#
#
# Mechanical properties :
#
#
# Convention : Reuss Voigt Hill
#
# Bulk Modulus (GPa) = 66.42452 78.11461 72.26956
# Shear Modulus (GPa) = 26.72090 34.84093 30.78091
#
# Velocity S-wave (km/s) = 3.43528 3.92267 3.68703
# Velocity P-wave (km/s) = 6.71348 7.41723 7.07411
#
# Compressibility (1/GPa) = 0.01505468
#
# Stress axis : x y z
#
# Youngs Moduli (GPa) = 46.69943 47.17807 156.92890
#
# Poissons Ratio (x) = 0.54607 0.53689
# Poissons Ratio (y) = 0.54053 0.30883
# Poissons Ratio (z) = 0.15977 0.09284
#
# Static dielectric constant tensor:
#      x y z
#    x 2.119880 0.000000 0.000000 
#    y 0.000000 1.869540 0.000000 
#    z 0.000000 0.000000 1.980920 
# 
# From -- ./inp_files/11946.got.cif
#   From: 2010.05.17/outbox.cif.g08.bks.cpg/sg24_6_cif.got.tgz:11946.got - 2010.06.04 00:33:39.
