data_PCOD9335689
_publ_section_title
;
Structure prediction by ZEFSAII (Michael W. Deem and Ramdas Pophale) SiO2 
 PCOD9335689
Probable space group: I 21 21 21
;
_chemical_formula_sum "Si O2"
_cell_formula_units_Z 56
_cell_length_a 9.136369
_cell_length_b 15.101590
_cell_length_c 19.676141
_cell_angle_alpha 90.000000
_cell_angle_beta 90.000000
_cell_angle_gamma 90.000000
_cell_volume 2714.789950
_symmetry_space_group_name_H-M "I 21 21 21"
_symmetry_group_IT_number 24
_symmetry_cell_setting 'orthorhombic'
loop_
_space_group_symop_operation_xyz
x,y,z
-x,1/2-y,z
x,-y,1/2-z
1/2-x,y,-z
1/2+x,1/2+y,1/2+z
1/2-x,-y,1/2+z
1/2+x,1/2-y,-z
-x,1/2+y,1/2-z
loop_
_atom_site_type_symbol
_atom_site_label
_atom_site_fract_x
_atom_site_fract_y
_atom_site_fract_z
Si Si1 0.168025 0.430449 0.072469
Si Si2 0.175717 0.751812 0.358155
Si Si3 0.359733 0.952958 0.178393
Si Si4 0.182109 0.934576 0.426985
Si Si5 0.750000 0.171574 0.500000
Si Si6 0.331812 0.416154 0.369715
Si Si7 0.260054 0.232071 0.699118
Si Si8 0.000000 0.250000 0.401157
O O1 0.222967 0.339665 0.107120
O O2 0.204266 0.512309 0.121991
O O3 0.993065 0.431733 0.065336
O O4 0.250000 0.439228 0.000000
O O5 0.229483 0.838413 0.398056
O O6 0.214035 0.760465 0.279121
O O7 0.000000 0.750000 0.362188
O O8 0.526068 0.967625 0.155282
O O9 0.352427 0.846723 0.185338
O O10 0.330849 0.000000 0.250000
O O11 0.245587 0.992782 0.124722
O O12 0.250000 0.951125 0.500000
O O13 0.649948 0.118355 0.446869
O O14 0.629660 0.218311 0.548311
O O15 0.288104 0.329286 0.326837
O O16 0.401334 0.198943 0.655307
#
# Coordination Sequence:
#
# PCOD9335689 Si02
#       8
#     8   8   8   8   4   8   8   4
#     4  11  24  45  71 103 138 181 233 285 343 416
#     4  10  22  43  69 100 140 179 230 285 350 416
#     4  12  27  46  70 104 141 183 233 289 349 418
#     4  11  25  46  73 102 138 182 234 295 351 413
#     4  10  24  44  66 102 136 176 234 280 350 412
#     4  11  26  45  66 100 142 179 232 283 348 416
#     4  11  24  44  68 101 140 186 225 283 349 418
#     4  10  24  40  74  96 136 184 230 282 344 424
#
# _framework density 20.627749000000001
#
# number of rings (size 3 to 8) (size 9 to 14) (size 15 to 20)
#    0.000    1.143    2.857    1.714   10.000    0.000 
#    1.286    2.143    0.000    0.000    0.000    0.000 
#    0.000    0.000    0.000    0.000    0.000    0.000 
#
# Total GULP energy -156132.365977 kJ/mol
# GULP energy per Si atom -5576.155928 kJ/mol
# Density = 2.058080 g / cm^3
# Si number density = 20.627749 Si / 1000 Ang^3
#
#
#
# Elastic Constant Matrix: (Units=GPa)
#
#
# Indices 1 2 3 4 5 6 
#
# 1 83.0741 26.1192 43.8628 0.0000 0.0000 0.0000
# 2 26.1192 123.2445 47.1098 0.0000 0.0000 0.0000
# 3 43.8628 47.1098 146.6975 0.0000 0.0000 0.0000
# 4 0.0000 0.0000 0.0000 17.5905 0.0000 0.0000
# 5 0.0000 0.0000 0.0000 0.0000 22.7254 0.0000
# 6 0.0000 0.0000 0.0000 0.0000 0.0000 27.6551
#
#
#
# Elastic Compliance Matrix: (Units=1/GPa)
#
#
# Indices 1 2 3 4 5 6 
#
# 1 0.014573 -0.001622 -0.003836 0.000000 0.000000 0.000000
# 2 -0.001622 0.009430 -0.002543 0.000000 0.000000 0.000000
# 3 -0.003836 -0.002543 0.008781 0.000000 0.000000 0.000000
# 4 0.000000 0.000000 0.000000 0.056849 0.000000 0.000000
# 5 0.000000 0.000000 0.000000 0.000000 0.044004 0.000000
# 6 0.000000 0.000000 0.000000 0.000000 0.000000 0.036160
#
#
# Mechanical properties :
#
#
# Convention : Reuss Voigt Hill
#
# Bulk Modulus (GPa) = 59.59476 65.24442 62.41959
# Shear Modulus (GPa) = 26.12433 29.32250 27.72341
#
# Velocity S-wave (km/s) = 3.56260 3.77438 3.67002
# Velocity P-wave (km/s) = 6.77319 7.11988 6.94870
#
# Compressibility (1/GPa) = 0.01678000
#
# Stress axis : x y z
#
# Youngs Moduli (GPa) = 68.61977 106.04610 113.88736
#
# Poissons Ratio (x) = 0.17201 0.43693
# Poissons Ratio (y) = 0.11130 0.28965
# Poissons Ratio (z) = 0.26326 0.26971
#
# Static dielectric constant tensor:
#      x y z
#    x 1.749100 0.000000 0.000000 
#    y 0.000000 1.776440 0.000000 
#    z 0.000000 0.000000 1.714890 
# 
# From -- ./inp_files/32853.got.cif
#   From: 2010.05.17/outbox.cif.g08.bks.cpg/sg24_17_cif.got.tgz:32853.got - 2010.06.04 00:33:39.
