data_PCOD9335116
_publ_section_title
;
Structure prediction by ZEFSAII (Michael W. Deem and Ramdas Pophale) SiO2 
 PCOD9335116
Probable space group: I 21 21 21
;
_chemical_formula_sum "Si O2"
_cell_formula_units_Z 40
_cell_length_a 4.987411
_cell_length_b 12.359004
_cell_length_c 28.854061
_cell_angle_alpha 90.000000
_cell_angle_beta 90.000000
_cell_angle_gamma 90.000000
_cell_volume 1778.547945
_symmetry_space_group_name_H-M "I 21 21 21"
_symmetry_group_IT_number 24
_symmetry_cell_setting 'orthorhombic'
loop_
_space_group_symop_operation_xyz
x,y,z
-x,1/2-y,z
x,-y,1/2-z
1/2-x,y,-z
1/2+x,1/2+y,1/2+z
1/2-x,-y,1/2+z
1/2+x,1/2-y,-z
-x,1/2+y,1/2-z
loop_
_atom_site_type_symbol
_atom_site_label
_atom_site_fract_x
_atom_site_fract_y
_atom_site_fract_z
Si Si1 0.800847 0.470902 0.852596
Si Si2 0.294559 0.542057 0.801024
Si Si3 0.069512 0.991076 0.546670
Si Si4 0.500000 0.750000 0.756806
Si Si5 0.250000 0.328722 0.500000
Si Si6 0.500000 0.750000 0.312473
Si Si7 0.000000 0.250000 0.967799
O O1 0.515415 0.469040 0.826931
O O2 0.766073 0.502744 0.905969
O O3 0.021664 0.550289 0.829653
O O4 0.941158 0.354443 0.843823
O O5 0.216751 0.500000 0.750000
O O6 0.459610 0.649204 0.790257
O O7 0.250000 0.996523 0.500000
O O8 0.946635 0.869598 0.553131
O O9 0.855446 0.087441 0.539424
O O10 0.751821 0.752596 0.722640
O O11 0.500000 0.250000 0.512295
O O12 0.250000 0.229015 0.000000
#
# Coordination Sequence:
#
# PCOD9335116 Si02
#       7
#     8   8   8   4   4   4   4
#     4  12  26  42  73 106 140 182 241 287 359 431
#     4  12  24  46  66  99 138 184 231 295 345 423
#     4  11  26  49  74 109 148 192 245 308 370 432
#     4  12  24  42  71  93 144 183 230 285 366 408
#     4  12  26  50  76  96 142 204 248 294 360 428
#     4  12  21  42  72 105 136 187 224 284 360 445
#     4  10  21  40  73 102 144 182 226 303 368 419
#
# _framework density 22.490255999999999
#
# number of rings (size 3 to 8) (size 9 to 14) (size 15 to 20)
#    0.000    0.400    6.000    2.400    2.800    0.000 
#    5.400    2.000    0.000    0.000    0.000    0.000 
#    0.000    0.000    0.000    0.000    0.000    0.000 
#
# Total GULP energy -111623.083310 kJ/mol
# GULP energy per Si atom -5581.154166 kJ/mol
# Density = 2.243907 g / cm^3
# Si number density = 22.490256 Si / 1000 Ang^3
#
#
#
# Elastic Constant Matrix: (Units=GPa)
#
#
# Indices 1 2 3 4 5 6 
#
# 1 135.4098 14.5923 42.7103 0.0000 0.0000 0.0000
# 2 14.5923 116.4861 15.7867 0.0000 0.0000 0.0000
# 3 42.7103 15.7867 131.6089 0.0000 0.0000 0.0000
# 4 0.0000 0.0000 0.0000 -3.1313 0.0000 0.0000
# 5 0.0000 0.0000 0.0000 0.0000 21.2409 0.0000
# 6 0.0000 0.0000 0.0000 0.0000 0.0000 -84.3355
#
#
#
# Elastic Compliance Matrix: (Units=1/GPa)
#
#
# Indices 1 2 3 4 5 6 
#
# 1 0.008280 -0.000684 -0.002605 0.000000 0.000000 0.000000
# 2 -0.000684 0.008783 -0.000831 0.000000 0.000000 0.000000
# 3 -0.002605 -0.000831 0.008543 0.000000 0.000000 0.000000
# 4 0.000000 0.000000 0.000000 -0.319360 0.000000 0.000000
# 5 0.000000 0.000000 0.000000 0.000000 0.047079 0.000000
# 6 0.000000 0.000000 0.000000 0.000000 0.000000 -0.011857
#
#
# Mechanical properties :
#
#
# Convention : Reuss Voigt Hill
#
# Bulk Modulus (GPa) = 57.58624 58.85372 58.21998
# Shear Modulus (GPa) = -20.44983 7.44918 -6.50032
#
# Velocity S-wave (km/s) = -3.01869 1.82191 -1.70193
# Velocity P-wave (km/s) = 3.67567 5.53635 4.69903
#
# Compressibility (1/GPa) = 0.01736526
#
# Stress axis : x y z
#
# Youngs Moduli (GPa) = 120.76678 113.85477 117.04887
#
# Poissons Ratio (x) = 0.07790 0.30493
# Poissons Ratio (y) = 0.08263 0.09733
# Poissons Ratio (z) = 0.31461 0.09467
#
# Static dielectric constant tensor:
#      x y z
#    x 1.806830 0.000000 0.000000 
#    y 0.000000 1.940680 0.000000 
#    z 0.000000 0.000000 1.874160 
# 
# From -- ./inp_files/36370.got.cif
#   From: 2010.05.17/outbox.cif.g08.bks.cpg/sg24_19_cif.got.tgz:36370.got - 2010.06.04 00:33:39.
