data_PCOD9335128
_publ_section_title
;
Structure prediction by ZEFSAII (Michael W. Deem and Ramdas Pophale) SiO2 
 PCOD9335128
Probable space group: I 21 21 21
;
_chemical_formula_sum "Si O2"
_cell_formula_units_Z 60
_cell_length_a 5.459674
_cell_length_b 26.858026
_cell_length_c 17.541942
_cell_angle_alpha 90.000000
_cell_angle_beta 90.000000
_cell_angle_gamma 90.000000
_cell_volume 2572.281369
_symmetry_space_group_name_H-M "I 21 21 21"
_symmetry_group_IT_number 24
_symmetry_cell_setting 'orthorhombic'
loop_
_space_group_symop_operation_xyz
x,y,z
-x,1/2-y,z
x,-y,1/2-z
1/2-x,y,-z
1/2+x,1/2+y,1/2+z
1/2-x,-y,1/2+z
1/2+x,1/2-y,-z
-x,1/2+y,1/2-z
loop_
_atom_site_type_symbol
_atom_site_label
_atom_site_fract_x
_atom_site_fract_y
_atom_site_fract_z
Si Si1 0.881948 0.803166 0.075597
Si Si2 0.824641 0.946524 0.911611
Si Si3 0.457867 0.883293 0.701460
Si Si4 0.000000 0.250000 0.876688
Si Si5 0.793507 0.208288 0.265246
Si Si6 0.323422 0.895307 0.861816
Si Si7 0.866162 0.648228 0.578114
Si Si8 0.780017 0.058689 0.907612
O O1 0.694803 0.797012 0.147782
O O2 0.000000 0.750000 0.055668
O O3 0.090802 0.841741 0.104911
O O4 0.750000 0.822962 0.000000
O O5 0.574167 0.927513 0.872137
O O6 0.075500 0.916067 0.899355
O O7 0.872761 0.003876 0.888124
O O8 0.750000 0.946393 0.000000
O O9 0.655232 0.848980 0.743800
O O10 0.279015 0.896074 0.770737
O O11 0.332730 0.845089 0.643478
O O12 0.551281 0.927521 0.647161
O O13 0.812883 0.229791 0.812789
O O14 0.974346 0.297417 0.931198
O O15 0.000000 0.250000 0.281218
O O16 0.750000 0.630456 0.500000
O O17 0.042942 0.605171 0.606705
O O18 0.750000 0.059703 0.000000
#
# Coordination Sequence:
#
# PCOD9335128 Si02
#       8
#     8   8   8   4   8   8   8   8
#     4  10  24  43  70 109 146 191 242 302 367 445
#     4  11  27  50  78 108 147 200 250 308 377 449
#     4  11  24  44  70 101 145 190 243 308 373 443
#     4  12  24  38  70  98 140 196 242 306 370 444
#     4  10  21  41  63  97 140 191 237 290 369 440
#     4  11  27  50  76 110 151 196 249 308 377 447
#     4  12  26  42  70 101 142 193 247 308 368 447
#     4  11  25  46  72 102 142 192 248 307 377 447
#
# _framework density 23.325599
#
# number of rings (size 3 to 8) (size 9 to 14) (size 15 to 20)
#    0.000    1.067    4.000    0.800    4.667    4.267 
#    0.000    0.000    0.000    0.000    0.000    0.000 
#    0.000    0.000    0.000    0.000    0.000    0.000 
#
# Total GULP energy -167235.487848 kJ/mol
# GULP energy per Si atom -5574.516262 kJ/mol
# Density = 2.327251 g / cm^3
# Si number density = 23.325599 Si / 1000 Ang^3
#
#
#
# Elastic Constant Matrix: (Units=GPa)
#
#
# Indices 1 2 3 4 5 6 
#
# 1 71.3159 38.4727 17.6666 0.0000 0.0000 0.0000
# 2 38.4727 143.3290 9.5172 0.0000 0.0000 0.0000
# 3 17.6666 9.5172 96.0970 0.0000 0.0000 0.0000
# 4 0.0000 0.0000 0.0000 34.1099 0.0000 0.0000
# 5 0.0000 0.0000 0.0000 0.0000 31.8539 0.0000
# 6 0.0000 0.0000 0.0000 0.0000 0.0000 24.0437
#
#
#
# Elastic Compliance Matrix: (Units=1/GPa)
#
#
# Indices 1 2 3 4 5 6 
#
# 1 0.017066 -0.004401 -0.002701 0.000000 0.000000 0.000000
# 2 -0.004401 0.008158 0.000001 0.000000 0.000000 0.000000
# 3 -0.002701 0.000001 0.010903 0.000000 0.000000 0.000000
# 4 0.000000 0.000000 0.000000 0.029317 0.000000 0.000000
# 5 0.000000 0.000000 0.000000 0.000000 0.031393 0.000000
# 6 0.000000 0.000000 0.000000 0.000000 0.000000 0.041591
#
#
# Mechanical properties :
#
#
# Convention : Reuss Voigt Hill
#
# Bulk Modulus (GPa) = 45.61361 49.11722 47.36541
# Shear Modulus (GPa) = 31.26186 34.34053 32.80119
#
# Velocity S-wave (km/s) = 3.66490 3.84112 3.75404
# Velocity P-wave (km/s) = 6.12424 6.38555 6.25626
#
# Compressibility (1/GPa) = 0.02192328
#
# Stress axis : x y z
#
# Youngs Moduli (GPa) = 58.59677 122.57419 91.72056
#
# Poissons Ratio (x) = 0.53951 0.24778
# Poissons Ratio (y) = 0.25791 -0.00011
# Poissons Ratio (z) = 0.15830 -0.00015
#
# Static dielectric constant tensor:
#      x y z
#    x 1.549610 0.000000 0.000000 
#    y 0.000000 2.312520 0.000000 
#    z 0.000000 0.000000 1.916930 
# 
# From -- ./inp_files/28923.got.cif
#   From: 2010.05.17/outbox.cif.g08.bks.cpg/sg24_15_cif.got.tgz:28923.got - 2010.06.04 00:33:39.
