data_PCOD9335937
_publ_section_title
;
Structure prediction by ZEFSAII (Michael W. Deem and Ramdas Pophale) SiO2 
 PCOD9335937
Probable space group: I 21 21 21
;
_chemical_formula_sum "Si O2"
_cell_formula_units_Z 48
_cell_length_a 7.902208
_cell_length_b 8.913063
_cell_length_c 30.003506
_cell_angle_alpha 90.000000
_cell_angle_beta 90.000000
_cell_angle_gamma 90.000000
_cell_volume 2113.233270
_symmetry_space_group_name_H-M "I 21 21 21"
_symmetry_group_IT_number 24
_symmetry_cell_setting 'orthorhombic'
loop_
_space_group_symop_operation_xyz
x,y,z
-x,1/2-y,z
x,-y,1/2-z
1/2-x,y,-z
1/2+x,1/2+y,1/2+z
1/2-x,-y,1/2+z
1/2+x,1/2-y,-z
-x,1/2+y,1/2-z
loop_
_atom_site_type_symbol
_atom_site_label
_atom_site_fract_x
_atom_site_fract_y
_atom_site_fract_z
Si Si1 0.271282 0.594189 0.387862
Si Si2 0.721525 0.583202 0.795513
Si Si3 0.830548 0.560047 0.612737
Si Si4 0.811695 0.071106 0.296818
Si Si5 0.134764 0.864265 0.964626
Si Si6 0.578289 0.914368 0.527379
O O1 0.469331 0.569120 0.398224
O O2 0.252203 0.774492 0.388631
O O3 0.241659 0.524915 0.339428
O O4 0.143241 0.527583 0.424453
O O5 0.775134 0.500000 0.750000
O O6 0.800239 0.504756 0.838491
O O7 0.516761 0.572661 0.797553
O O8 0.758024 0.759986 0.797542
O O9 0.765652 0.448836 0.574370
O O10 0.758146 0.000000 0.250000
O O11 0.000000 0.750000 0.944456
O O12 0.250000 0.775196 0.000000
O O13 0.043019 0.984093 0.996939
O O14 0.500000 0.750000 0.532703
O O15 0.750000 0.892989 0.500000
#
# Coordination Sequence:
#
# PCOD9335937 Si02
#       6
#     8   8   8   8   8   8
#     4  11  25  42  68  99 132 182 225 282 335 408
#     4  10  23  43  70 101 135 178 222 280 346 409
#     4  11  25  45  65  98 137 175 230 278 341 405
#     4  10  23  43  68 102 136 172 228 280 337 413
#     4  12  28  46  67  98 137 183 230 288 346 413
#     4  12  24  44  70 100 136 181 231 282 344 409
#
# _framework density 22.714010999999999
#
# number of rings (size 3 to 8) (size 9 to 14) (size 15 to 20)
#    0.000    1.000    1.667    4.000    7.000    2.000 
#    0.000    0.000    0.000    0.000    0.000    0.000 
#    0.000    0.000    0.000    0.000    0.000    0.000 
#
# Total GULP energy -134342.152379 kJ/mol
# GULP energy per Si atom -5597.589682 kJ/mol
# Density = 2.266231 g / cm^3
# Si number density = 22.714011 Si / 1000 Ang^3
#
#
#
# Elastic Constant Matrix: (Units=GPa)
#
#
# Indices 1 2 3 4 5 6 
#
# 1 34.0352 6.7022 21.8337 0.0000 0.0000 0.0000
# 2 6.7022 102.9168 55.1726 0.0000 0.0000 0.0000
# 3 21.8337 55.1726 189.6475 0.0000 0.0000 0.0000
# 4 0.0000 0.0000 0.0000 43.1249 0.0000 0.0000
# 5 0.0000 0.0000 0.0000 0.0000 38.9031 0.0000
# 6 0.0000 0.0000 0.0000 0.0000 0.0000 22.7315
#
#
#
# Elastic Compliance Matrix: (Units=1/GPa)
#
#
# Indices 1 2 3 4 5 6 
#
# 1 0.031726 -0.000128 -0.003615 0.000000 0.000000 0.000000
# 2 -0.000128 0.011513 -0.003335 0.000000 0.000000 0.000000
# 3 -0.003615 -0.003335 0.006659 0.000000 0.000000 0.000000
# 4 0.000000 0.000000 0.000000 0.023188 0.000000 0.000000
# 5 0.000000 0.000000 0.000000 0.000000 0.025705 0.000000
# 6 0.000000 0.000000 0.000000 0.000000 0.000000 0.043992
#
#
# Mechanical properties :
#
#
# Convention : Reuss Voigt Hill
#
# Bulk Modulus (GPa) = 27.97829 54.89074 41.43452
# Shear Modulus (GPa) = 29.61172 37.14464 33.37818
#
# Velocity S-wave (km/s) = 3.61456 4.04829 3.83756
# Velocity P-wave (km/s) = 5.45568 6.78749 6.15770
#
# Compressibility (1/GPa) = 0.03574200
#
# Stress axis : x y z
#
# Youngs Moduli (GPa) = 31.52015 86.86195 150.16721
#
# Poissons Ratio (x) = 0.01111 0.54290
# Poissons Ratio (y) = 0.00403 0.50073
# Poissons Ratio (z) = 0.11395 0.28964
#
# Static dielectric constant tensor:
#      x y z
#    x 1.907680 0.000000 0.000000 
#    y 0.000000 1.822080 0.000000 
#    z 0.000000 0.000000 1.803920 
# 
# From -- ./inp_files/9740.got.cif
#   From: 2010.05.17/outbox.cif.g08.bks.cpg/sg24_5_cif.got.tgz:9740.got - 2010.06.04 00:33:39.
