data_PCOD9335081
_publ_section_title
;
Structure prediction by ZEFSAII (Michael W. Deem and Ramdas Pophale) SiO2 
 PCOD9335081
Probable space group: I 21 21 21
;
_chemical_formula_sum "Si O2"
_cell_formula_units_Z 24
_cell_length_a 6.100255
_cell_length_b 6.854697
_cell_length_c 20.674779
_cell_angle_alpha 90.000000
_cell_angle_beta 90.000000
_cell_angle_gamma 90.000000
_cell_volume 864.524147
_symmetry_space_group_name_H-M "I 21 21 21"
_symmetry_group_IT_number 24
_symmetry_cell_setting 'orthorhombic'
loop_
_space_group_symop_operation_xyz
x,y,z
-x,1/2-y,z
x,-y,1/2-z
1/2-x,y,-z
1/2+x,1/2+y,1/2+z
1/2-x,-y,1/2+z
1/2+x,1/2-y,-z
-x,1/2+y,1/2-z
loop_
_atom_site_type_symbol
_atom_site_label
_atom_site_fract_x
_atom_site_fract_y
_atom_site_fract_z
Si Si1 0.750000 0.911649 0.500000
Si Si2 0.757655 0.586355 0.833791
Si Si3 0.000000 0.750000 0.386276
Si Si4 0.500000 0.250000 0.446592
Si Si5 0.500000 0.750000 0.276766
O O1 0.698572 0.790689 0.564056
O O2 0.549780 0.058712 0.487168
O O3 0.556456 0.441061 0.844602
O O4 0.799542 0.706672 0.898259
O O5 0.790322 0.724576 0.771411
O O6 0.964098 0.437803 0.821249
#
# Coordination Sequence:
#
# PCOD9335081 Si02
#       5
#     4   8   4   4   4
#     4  12  24  40  64  98 136 176 224 270 326 402
#     4  10  21  40  66  93 127 169 218 274 331 386
#     4  12  24  41  66 100 138 177 218 272 334 398
#     4  11  22  40  64  92 130 178 220 271 330 392
#     4   9  20  43  66  88 122 169 222 273 324 384
#
# _framework density 27.760935
#
# number of rings (size 3 to 8) (size 9 to 14) (size 15 to 20)
#    0.000    1.333    0.000    6.000    0.000    0.000 
#    0.000   26.667    0.000    0.000    0.000    0.000 
#    0.000    0.000    0.000    0.000    0.000    0.000 
#
# Total GULP energy -67102.917325 kJ/mol
# GULP energy per Si atom -5591.909777 kJ/mol
# Density = 2.769775 g / cm^3
# Si number density = 27.760935 Si / 1000 Ang^3
#
#
#
# Elastic Constant Matrix: (Units=GPa)
#
#
# Indices 1 2 3 4 5 6 
#
# 1 72.8400 36.7165 40.8669 0.0000 0.0000 0.0000
# 2 36.7165 88.1075 18.9994 0.0000 0.0000 0.0000
# 3 40.8669 18.9994 102.5593 0.0000 0.0000 0.0000
# 4 0.0000 0.0000 0.0000 43.8011 0.0000 0.0000
# 5 0.0000 0.0000 0.0000 0.0000 44.7812 0.0000
# 6 0.0000 0.0000 0.0000 0.0000 0.0000 75.5187
#
#
#
# Elastic Compliance Matrix: (Units=1/GPa)
#
#
# Indices 1 2 3 4 5 6 
#
# 1 0.021499 -0.007408 -0.007195 0.000000 0.000000 0.000000
# 2 -0.007408 0.014375 0.000289 0.000000 0.000000 0.000000
# 3 -0.007195 0.000289 0.012564 0.000000 0.000000 0.000000
# 4 0.000000 0.000000 0.000000 0.022830 0.000000 0.000000
# 5 0.000000 0.000000 0.000000 0.000000 0.022331 0.000000
# 6 0.000000 0.000000 0.000000 0.000000 0.000000 0.013242
#
#
# Mechanical properties :
#
#
# Convention : Reuss Voigt Hill
#
# Bulk Modulus (GPa) = 50.47804 50.74138 50.60971
# Shear Modulus (GPa) = 35.19363 43.94845 39.57104
#
# Velocity S-wave (km/s) = 3.56440 3.98314 3.77957
# Velocity P-wave (km/s) = 5.92980 6.28264 6.10876
#
# Compressibility (1/GPa) = 0.01981059
#
# Stress axis : x y z
#
# Youngs Moduli (GPa) = 46.51309 69.56757 79.59402
#
# Poissons Ratio (x) = 0.51535 0.57264
# Poissons Ratio (y) = 0.34456 -0.02299
# Poissons Ratio (z) = 0.33464 -0.02010
#
# Static dielectric constant tensor:
#      x y z
#    x 2.183690 0.000000 0.000000 
#    y 0.000000 2.108440 0.000000 
#    z 0.000000 0.000000 2.090810 
# 
# From -- ./inp_files/880.got.cif
#   From: 2010.05.17/outbox.cif.g08.bks.cpg/sg24_1_cif.got.tgz:880.got - 2010.06.04 00:33:39.
