data_PCOD9335909
_publ_section_title
;
Structure prediction by ZEFSAII (Michael W. Deem and Ramdas Pophale) SiO2 
 PCOD9335909
Probable space group: I 21 21 21
;
_chemical_formula_sum "Si O2"
_cell_formula_units_Z 28
_cell_length_a 9.489775
_cell_length_b 19.711256
_cell_length_c 7.369475
_cell_angle_alpha 90.000000
_cell_angle_beta 90.000000
_cell_angle_gamma 90.000000
_cell_volume 1378.499979
_symmetry_space_group_name_H-M "I 21 21 21"
_symmetry_group_IT_number 24
_symmetry_cell_setting 'orthorhombic'
loop_
_space_group_symop_operation_xyz
x,y,z
-x,1/2-y,z
x,-y,1/2-z
1/2-x,y,-z
1/2+x,1/2+y,1/2+z
1/2-x,-y,1/2+z
1/2+x,1/2-y,-z
-x,1/2+y,1/2-z
loop_
_atom_site_type_symbol
_atom_site_label
_atom_site_fract_x
_atom_site_fract_y
_atom_site_fract_z
Si Si1 0.925542 0.680186 0.715021
Si Si2 0.385345 0.852392 0.700867
Si Si3 0.056236 0.000000 0.250000
Si Si4 0.583572 0.897547 0.993681
O O1 0.760052 0.680809 0.762458
O O2 0.929234 0.671109 0.497849
O O3 0.000000 0.750000 0.765179
O O4 0.007010 0.620480 0.819198
O O5 0.357120 0.933906 0.693076
O O6 0.511041 0.847458 0.845206
O O7 0.960357 0.028857 0.413755
O O8 0.750000 0.890278 0.000000
#
# Coordination Sequence:
#
# PCOD9335909 Si02
#       4
#     8   8   4   8
#     4  11  24  40  67 100 135 186 225 275 334 408
#     4   9  23  45  66 101 135 180 225 284 334 399
#     4   8  22  44  64 102 126 172 224 280 338 392
#     4  10  23  42  67 101 135 179 218 289 337 400
#
# _framework density 20.311933
#
# number of rings (size 3 to 8) (size 9 to 14) (size 15 to 20)
#    1.714    0.571    0.000    0.857    0.000   17.143 
#    0.000    0.000    0.000    0.000    0.000    0.000 
#    0.000    0.000    0.000    0.000    0.000    0.000 
#
# Total GULP energy -78005.871802 kJ/mol
# GULP energy per Si atom -5571.847986 kJ/mol
# Density = 2.026570 g / cm^3
# Si number density = 20.311933 Si / 1000 Ang^3
#
#
#
# Elastic Constant Matrix: (Units=GPa)
#
#
# Indices 1 2 3 4 5 6 
#
# 1 135.1307 42.9358 50.3932 -0.0002 0.0002 0.0002
# 2 42.9358 84.9352 21.0352 -0.0001 0.0000 0.0002
# 3 50.3932 21.0352 65.7480 0.0006 0.0004 0.0002
# 4 -0.0002 -0.0001 0.0006 32.6563 -0.0002 0.0002
# 5 0.0002 0.0000 0.0004 -0.0002 19.9668 0.0000
# 6 0.0002 0.0002 0.0002 0.0002 0.0000 53.1135
#
#
#
# Elastic Compliance Matrix: (Units=1/GPa)
#
#
# Indices 1 2 3 4 5 6 
#
# 1 0.011453 -0.003927 -0.007522 0.000000 0.000000 0.000000
# 2 -0.003927 0.014133 -0.001512 0.000000 0.000000 0.000000
# 3 -0.007522 -0.001512 0.021459 0.000000 0.000000 0.000000
# 4 0.000000 0.000000 0.000000 0.030622 0.000000 0.000000
# 5 0.000000 0.000000 0.000000 0.000000 0.050083 0.000000
# 6 0.000000 0.000000 0.000000 0.000000 0.000000 0.018828
#
#
# Mechanical properties :
#
#
# Convention : Reuss Voigt Hill
#
# Bulk Modulus (GPa) = 47.34100 57.17136 52.25618
# Shear Modulus (GPa) = 27.84890 32.57728 30.21309
#
# Velocity S-wave (km/s) = 3.70680 4.00915 3.86094
# Velocity P-wave (km/s) = 6.45586 7.04549 6.75711
#
# Compressibility (1/GPa) = 0.02112334
#
# Stress axis : x y z
#
# Youngs Moduli (GPa) = 87.31320 70.75557 46.60126
#
# Poissons Ratio (x) = 0.27784 0.35053
# Poissons Ratio (y) = 0.34286 0.07046
# Poissons Ratio (z) = 0.65677 0.10698
#
# Static dielectric constant tensor:
#      x y z
#    x 1.680460 0.000000 0.000000 
#    y 0.000000 1.768730 0.000000 
#    z 0.000000 0.000000 1.731410 
# 
# From -- ./inp_files/8769.got.cif
#   From: 2010.05.17/outbox.cif.g08.bks.cpg/sg24_5_cif.got.tgz:8769.got - 2010.06.04 00:33:39.
