data_PCOD9335319
_publ_section_title
;
Structure prediction by ZEFSAII (Michael W. Deem and Ramdas Pophale) SiO2 
 PCOD9335319
Probable space group: I 21 21 21
;
_chemical_formula_sum "Si O2"
_cell_formula_units_Z 28
_cell_length_a 10.471219
_cell_length_b 15.193823
_cell_length_c 7.313002
_cell_angle_alpha 90.000000
_cell_angle_beta 90.000000
_cell_angle_gamma 90.000000
_cell_volume 1163.482881
_symmetry_space_group_name_H-M "I 21 21 21"
_symmetry_group_IT_number 24
_symmetry_cell_setting 'orthorhombic'
loop_
_space_group_symop_operation_xyz
x,y,z
-x,1/2-y,z
x,-y,1/2-z
1/2-x,y,-z
1/2+x,1/2+y,1/2+z
1/2-x,-y,1/2+z
1/2+x,1/2-y,-z
-x,1/2+y,1/2-z
loop_
_atom_site_type_symbol
_atom_site_label
_atom_site_fract_x
_atom_site_fract_y
_atom_site_fract_z
Si Si1 0.000000 0.250000 0.668772
Si Si2 0.445163 0.000000 0.750000
Si Si3 0.250000 0.627477 0.500000
Si Si4 0.853580 0.857802 0.118854
Si Si5 0.965184 0.577331 0.607970
O O1 0.104472 0.285083 0.525694
O O2 0.947158 0.328225 0.796234
O O3 0.531019 0.923500 0.841415
O O4 0.389288 0.947245 0.577475
O O5 0.201654 0.673890 0.313282
O O6 0.118119 0.580273 0.560551
O O7 0.750000 0.910331 0.000000
O O8 0.940392 0.500000 0.750000
#
# Coordination Sequence:
#
# PCOD9335319 Si02
#       5
#     4   4   4   8   8
#     4  12  24  38  64  92 138 164 216 264 330 376
#     4  10  22  34  66  88 130 160 204 268 346 376
#     4  10  22  34  66  88 130 160 204 268 346 376
#     4  11  22  38  58  98 126 167 203 266 321 395
#     4  11  22  38  58  98 126 167 203 266 321 395
#
# _framework density 24.065674999999999
#
# number of rings (size 3 to 8) (size 9 to 14) (size 15 to 20)
#    0.000    1.143    5.714    0.000   16.000    4.571 
#    0.000    0.000    0.000    0.000    7.429    0.000 
#    0.000    0.000    0.000    0.000    0.000    0.000 
#
# Total GULP energy -78057.604505 kJ/mol
# GULP energy per Si atom -5575.543179 kJ/mol
# Density = 2.401090 g / cm^3
# Si number density = 24.065675 Si / 1000 Ang^3
#
#
#
# Elastic Constant Matrix: (Units=GPa)
#
#
# Indices 1 2 3 4 5 6 
#
# 1 35.1028 7.7957 20.0538 0.0000 0.0000 0.0000
# 2 7.7957 143.6604 95.4717 0.0000 0.0000 0.0000
# 3 20.0538 95.4717 243.1756 0.0000 0.0000 0.0000
# 4 0.0000 0.0000 0.0000 55.4240 0.0000 0.0000
# 5 0.0000 0.0000 0.0000 0.0000 34.0577 0.0000
# 6 0.0000 0.0000 0.0000 0.0000 0.0000 14.7721
#
#
#
# Elastic Compliance Matrix: (Units=1/GPa)
#
#
# Indices 1 2 3 4 5 6 
#
# 1 0.029896 0.000022 -0.002474 0.000000 0.000000 0.000000
# 2 0.000022 0.009418 -0.003699 0.000000 0.000000 0.000000
# 3 -0.002474 -0.003699 0.005769 0.000000 0.000000 0.000000
# 4 0.000000 0.000000 0.000000 0.018043 0.000000 0.000000
# 5 0.000000 0.000000 0.000000 0.000000 0.029362 0.000000
# 6 0.000000 0.000000 0.000000 0.000000 0.000000 0.067695
#
#
# Mechanical properties :
#
#
# Convention : Reuss Voigt Hill
#
# Bulk Modulus (GPa) = 30.50647 74.28679 52.39663
# Shear Modulus (GPa) = 27.26093 40.75860 34.00976
#
# Velocity S-wave (km/s) = 3.36932 4.11985 3.76334
# Velocity P-wave (km/s) = 5.27639 7.31890 6.37991
#
# Compressibility (1/GPa) = 0.03277993
#
# Stress axis : x y z
#
# Youngs Moduli (GPa) = 33.44902 106.17767 173.34988
#
# Poissons Ratio (x) = -0.00232 0.42887
# Poissons Ratio (y) = -0.00073 0.64129
# Poissons Ratio (z) = 0.08275 0.39280
#
# Static dielectric constant tensor:
#      x y z
#    x 2.060840 0.000000 0.000000 
#    y 0.000000 1.957200 0.000000 
#    z 0.000000 0.000000 1.961740 
# 
# From -- ./inp_files/10172.got.cif
#   From: 2010.05.17/outbox.cif.g08.bks.cpg/sg24_6_cif.got.tgz:10172.got - 2010.06.04 00:33:39.
