data_PCOD9335294
_publ_section_title
;
Structure prediction by ZEFSAII (Michael W. Deem and Ramdas Pophale) SiO2 
 PCOD9335294
Probable space group: I 21 21 21
;
_chemical_formula_sum "Si O2"
_cell_formula_units_Z 36
_cell_length_a 5.263765
_cell_length_b 21.050682
_cell_length_c 14.610573
_cell_angle_alpha 90.000000
_cell_angle_beta 90.000000
_cell_angle_gamma 90.000000
_cell_volume 1618.936860
_symmetry_space_group_name_H-M "I 21 21 21"
_symmetry_group_IT_number 24
_symmetry_cell_setting 'orthorhombic'
loop_
_space_group_symop_operation_xyz
x,y,z
-x,1/2-y,z
x,-y,1/2-z
1/2-x,y,-z
1/2+x,1/2+y,1/2+z
1/2-x,-y,1/2+z
1/2+x,1/2-y,-z
-x,1/2+y,1/2-z
loop_
_atom_site_type_symbol
_atom_site_label
_atom_site_fract_x
_atom_site_fract_y
_atom_site_fract_z
Si Si1 0.250000 0.570115 0.000000
Si Si2 0.000000 0.750000 0.273134
Si Si3 0.750000 0.655757 0.000000
Si Si4 0.500000 0.750000 0.149867
Si Si5 0.589974 0.024899 0.148618
Si Si6 0.142497 0.647880 0.411616
Si Si7 0.750000 0.553836 0.500000
O O1 0.500022 0.612885 0.984775
O O2 0.245912 0.523253 0.087346
O O3 0.256338 0.735376 0.215149
O O4 0.983155 0.689876 0.341367
O O5 0.639993 0.699631 0.082293
O O6 0.673822 0.099057 0.144036
O O7 0.572748 0.000000 0.250000
O O8 0.332016 0.018016 0.090678
O O9 0.250000 0.687001 0.500000
O O10 0.972744 0.598656 0.467191
#
# Coordination Sequence:
#
# PCOD9335294 Si02
#       7
#     4   4   4   4   8   8   4
#     4  12  25  48  75 117 141 212 250 302 402 470
#     4  12  29  45  80 112 146 198 276 305 389 460
#     4  12  28  50  80  98 161 197 248 320 390 436
#     4  12  29  53  72 114 146 196 264 329 365 466
#     4  11  25  44  71 108 157 190 252 317 385 464
#     4  10  25  45  70 104 151 196 248 322 383 462
#     4  10  21  48  65 101 150 199 248 308 384 466
#
# _framework density 22.236815
#
# number of rings (size 3 to 8) (size 9 to 14) (size 15 to 20)
#    0.000    0.889    3.333    3.333   14.000    0.889 
#    0.000    0.000    0.000    0.000    0.000    0.000 
#    0.000    0.000    0.000    0.000    0.000    0.000 
#
# Total GULP energy -100200.973439 kJ/mol
# GULP energy per Si atom -5566.720747 kJ/mol
# Density = 2.218620 g / cm^3
# Si number density = 22.236815 Si / 1000 Ang^3
#
#
#
# Elastic Constant Matrix: (Units=GPa)
#
#
# Indices 1 2 3 4 5 6 
#
# 1 128.0771 34.3041 39.6067 0.0000 0.0000 0.0000
# 2 34.3041 85.0183 54.5444 0.0000 0.0000 0.0000
# 3 39.6067 54.5444 179.4220 0.0000 0.0000 0.0000
# 4 0.0000 0.0000 0.0000 -16.0654 0.0000 0.0000
# 5 0.0000 0.0000 0.0000 0.0000 30.9561 0.0000
# 6 0.0000 0.0000 0.0000 0.0000 0.0000 27.6584
#
#
#
# Elastic Compliance Matrix: (Units=1/GPa)
#
#
# Indices 1 2 3 4 5 6 
#
# 1 0.008921 -0.002902 -0.001087 0.000000 0.000000 0.000000
# 2 -0.002902 0.015556 -0.004088 0.000000 0.000000 0.000000
# 3 -0.001087 -0.004088 0.007056 0.000000 0.000000 0.000000
# 4 0.000000 0.000000 0.000000 -0.062245 0.000000 0.000000
# 5 0.000000 0.000000 0.000000 0.000000 0.032304 0.000000
# 6 0.000000 0.000000 0.000000 0.000000 0.000000 0.036155
#
#
# Mechanical properties :
#
#
# Convention : Reuss Voigt Hill
#
# Bulk Modulus (GPa) = 65.02665 72.15865 68.59265
# Shear Modulus (GPa) = 84.70395 26.11396 55.40896
#
# Velocity S-wave (km/s) = 6.17855 3.43061 4.99718
# Velocity P-wave (km/s) = 8.95576 6.94353 8.01306
#
# Compressibility (1/GPa) = 0.01537831
#
# Stress axis : x y z
#
# Youngs Moduli (GPa) = 112.09135 64.28315 141.71736
#
# Poissons Ratio (x) = 0.18657 0.15405
# Poissons Ratio (y) = 0.32532 0.57940
# Poissons Ratio (z) = 0.12185 0.26282
#
# Static dielectric constant tensor:
#      x y z
#    x 2.012530 0.000000 0.000000 
#    y 0.000000 1.917920 0.000000 
#    z 0.000000 0.000000 1.885440 
# 
# From -- ./inp_files/3482.got.cif
#   From: 2010.05.17/outbox.cif.g08.bks.cpg/sg24_2_cif.got.tgz:3482.got - 2010.06.04 00:33:39.
