data_PCOD9335068
_publ_section_title
;
Structure prediction by ZEFSAII (Michael W. Deem and Ramdas Pophale) SiO2 
 PCOD9335068
Probable space group: I 21 21 21
;
_chemical_formula_sum "Si O2"
_cell_formula_units_Z 48
_cell_length_a 25.993239
_cell_length_b 13.878414
_cell_length_c 5.477229
_cell_angle_alpha 90.000000
_cell_angle_beta 90.000000
_cell_angle_gamma 90.000000
_cell_volume 1975.882603
_symmetry_space_group_name_H-M "I 21 21 21"
_symmetry_group_IT_number 24
_symmetry_cell_setting 'orthorhombic'
loop_
_space_group_symop_operation_xyz
x,y,z
-x,1/2-y,z
x,-y,1/2-z
1/2-x,y,-z
1/2+x,1/2+y,1/2+z
1/2-x,-y,1/2+z
1/2+x,1/2-y,-z
-x,1/2+y,1/2-z
loop_
_atom_site_type_symbol
_atom_site_label
_atom_site_fract_x
_atom_site_fract_y
_atom_site_fract_z
Si Si1 0.387764 0.901696 0.391639
Si Si2 0.713027 0.598146 0.687204
Si Si3 0.093943 0.560322 0.501497
Si Si4 0.793705 0.894303 0.322835
Si Si5 0.157362 0.756484 0.987444
Si Si6 0.943879 0.253506 0.178193
O O1 0.340259 0.931091 0.560476
O O2 0.434641 0.854006 0.537326
O O3 0.401735 0.000000 0.250000
O O4 0.363029 0.807316 0.256676
O O5 0.741738 0.500000 0.750000
O O6 0.750000 0.651149 0.500000
O O7 0.695448 0.662385 0.908320
O O8 0.086236 0.500000 0.750000
O O9 0.153794 0.592337 0.479083
O O10 0.061592 0.658953 0.491794
O O11 0.083771 0.500000 0.250000
O O12 0.750000 0.852260 0.500000
O O13 0.811486 0.838506 0.074893
O O14 0.775768 0.000000 0.250000
O O15 0.104139 0.747446 0.138581
O O16 0.000000 0.250000 0.295825
#
# Coordination Sequence:
#
# PCOD9335068 Si02
#       6
#     8   8   8   8   8   8
#     4  11  23  43  69  98 137 183 221 287 351 413
#     4  11  22  38  61  96 134 177 230 273 328 412
#     4  10  23  44  71  99 142 184 230 292 357 416
#     4  10  21  40  65 102 138 182 232 282 338 411
#     4  10  23  43  65  92 140 176 226 285 350 412
#     4  10  25  44  67 101 133 176 236 294 356 429
#
# _framework density 24.292940999999999
#
# number of rings (size 3 to 8) (size 9 to 14) (size 15 to 20)
#    0.000    1.667    1.667    1.500    7.000    1.333 
#    9.000    0.000    0.000    0.000    0.000    0.000 
#    0.000    0.000    0.000    0.000    0.000    0.000 
#
# Total GULP energy -133985.596653 kJ/mol
# GULP energy per Si atom -5582.733194 kJ/mol
# Density = 2.423765 g / cm^3
# Si number density = 24.292941 Si / 1000 Ang^3
#
#
#
# Elastic Constant Matrix: (Units=GPa)
#
#
# Indices 1 2 3 4 5 6 
#
# 1 105.2272 18.8195 11.8519 0.0000 0.0000 0.0000
# 2 18.8195 151.1278 29.7886 0.0000 0.0000 0.0000
# 3 11.8519 29.7886 77.7461 0.0000 0.0000 0.0000
# 4 0.0000 0.0000 0.0000 40.7897 0.0000 0.0000
# 5 0.0000 0.0000 0.0000 0.0000 16.3349 0.0000
# 6 0.0000 0.0000 0.0000 0.0000 0.0000 17.9541
#
#
#
# Elastic Compliance Matrix: (Units=1/GPa)
#
#
# Indices 1 2 3 4 5 6 
#
# 1 0.009808 -0.001002 -0.001111 0.000000 0.000000 0.000000
# 2 -0.001002 0.007260 -0.002629 0.000000 0.000000 0.000000
# 3 -0.001111 -0.002629 0.014039 0.000000 0.000000 0.000000
# 4 0.000000 0.000000 0.000000 0.024516 0.000000 0.000000
# 5 0.000000 0.000000 0.000000 0.000000 0.061219 0.000000
# 6 0.000000 0.000000 0.000000 0.000000 0.000000 0.055698
#
#
# Mechanical properties :
#
#
# Convention : Reuss Voigt Hill
#
# Bulk Modulus (GPa) = 46.24903 50.55790 48.40346
# Shear Modulus (GPa) = 26.42279 33.25848 29.84063
#
# Velocity S-wave (km/s) = 3.30157 3.70409 3.50861
# Velocity P-wave (km/s) = 5.79769 6.25705 6.03174
#
# Compressibility (1/GPa) = 0.02162208
#
# Stress axis : x y z
#
# Youngs Moduli (GPa) = 101.96124 137.74297 71.23007
#
# Poissons Ratio (x) = 0.13806 0.07914
# Poissons Ratio (y) = 0.10220 0.18725
# Poissons Ratio (z) = 0.11329 0.36211
#
# Static dielectric constant tensor:
#      x y z
#    x 1.846460 0.000000 0.000000 
#    y 0.000000 1.997330 0.000000 
#    z 0.000000 0.000000 2.036340 
# 
# From -- ./inp_files/7088.got.cif
#   From: 2010.05.17/outbox.cif.g08.bks.cpg/sg24_4_cif.got.tgz:7088.got - 2010.06.04 00:33:39.
