data_PCOD9335831
_publ_section_title
;
Structure prediction by ZEFSAII (Michael W. Deem and Ramdas Pophale) SiO2 
 PCOD9335831
Probable space group: I 21 21 21
;
_chemical_formula_sum "Si O2"
_cell_formula_units_Z 28
_cell_length_a 6.485823
_cell_length_b 10.104378
_cell_length_c 18.140973
_cell_angle_alpha 90.000000
_cell_angle_beta 90.000000
_cell_angle_gamma 90.000000
_cell_volume 1188.872425
_symmetry_space_group_name_H-M "I 21 21 21"
_symmetry_group_IT_number 24
_symmetry_cell_setting 'orthorhombic'
loop_
_space_group_symop_operation_xyz
x,y,z
-x,1/2-y,z
x,-y,1/2-z
1/2-x,y,-z
1/2+x,1/2+y,1/2+z
1/2-x,-y,1/2+z
1/2+x,1/2-y,-z
-x,1/2+y,1/2-z
loop_
_atom_site_type_symbol
_atom_site_label
_atom_site_fract_x
_atom_site_fract_y
_atom_site_fract_z
Si Si1 0.750000 0.528480 0.000000
Si Si2 0.249234 0.000000 0.750000
Si Si3 0.858987 0.078365 0.923814
Si Si4 0.500000 0.250000 0.201051
Si Si5 0.521855 0.892722 0.871921
O O1 0.606308 0.613377 0.947332
O O2 0.906015 0.446485 0.948268
O O3 0.400659 0.993581 0.819704
O O4 0.106839 0.868836 0.745710
O O5 0.844617 0.179229 0.856395
O O6 0.745853 0.946257 0.893927
O O7 0.750000 0.120494 0.000000
O O8 0.500000 0.750000 0.835316
#
# Coordination Sequence:
#
# PCOD9335831 Si02
#       5
#     4   4   8   4   8
#     4  10  22  50  72 118 138 200 244 322 376 452
#     4  12  30  48  76 108 156 206 258 304 390 454
#     4  10  25  46  78 110 146 193 255 322 380 447
#     4  12  28  50  74 108 154 202 256 312 382 460
#     4  11  27  45  76 109 152 197 251 310 382 452
#
# _framework density 23.551728000000001
#
# number of rings (size 3 to 8) (size 9 to 14) (size 15 to 20)
#    0.000    1.143    2.857    0.000   16.000    0.000 
#    0.000    0.000    0.000    0.000    0.000    0.000 
#    0.000    0.000    0.000    0.000    0.000    0.000 
#
# Total GULP energy -78244.693515 kJ/mol
# GULP energy per Si atom -5588.906680 kJ/mol
# Density = 2.349812 g / cm^3
# Si number density = 23.551728 Si / 1000 Ang^3
#
#
#
# Elastic Constant Matrix: (Units=GPa)
#
#
# Indices 1 2 3 4 5 6 
#
# 1 111.9550 56.5069 32.2680 0.0000 0.0000 0.0000
# 2 56.5069 97.7068 8.0865 0.0000 0.0000 0.0000
# 3 32.2680 8.0865 66.9008 0.0000 0.0000 0.0000
# 4 0.0000 0.0000 0.0000 40.5759 0.0000 0.0000
# 5 0.0000 0.0000 0.0000 0.0000 37.8583 0.0000
# 6 0.0000 0.0000 0.0000 0.0000 0.0000 25.3150
#
#
#
# Elastic Compliance Matrix: (Units=1/GPa)
#
#
# Indices 1 2 3 4 5 6 
#
# 1 0.014753 -0.008024 -0.006146 0.000000 0.000000 0.000000
# 2 -0.008024 0.014702 0.002093 0.000000 0.000000 0.000000
# 3 -0.006146 0.002093 0.017659 0.000000 0.000000 0.000000
# 4 0.000000 0.000000 0.000000 0.024645 0.000000 0.000000
# 5 0.000000 0.000000 0.000000 0.000000 0.026414 0.000000
# 6 0.000000 0.000000 0.000000 0.000000 0.000000 0.039502
#
#
# Mechanical properties :
#
#
# Convention : Reuss Voigt Hill
#
# Bulk Modulus (GPa) = 43.55298 52.25394 47.90346
# Shear Modulus (GPa) = 29.50150 32.72993 31.11571
#
# Velocity S-wave (km/s) = 3.54308 3.73192 3.63873
# Velocity P-wave (km/s) = 5.93890 6.38785 6.16746
#
# Compressibility (1/GPa) = 0.02296054
#
# Stress axis : x y z
#
# Youngs Moduli (GPa) = 67.78110 68.01883 56.62857
#
# Poissons Ratio (x) = 0.54576 0.34804
# Poissons Ratio (y) = 0.54385 -0.11852
# Poissons Ratio (z) = 0.41659 -0.14236
#
# Static dielectric constant tensor:
#      x y z
#    x 1.870530 0.000000 0.000000 
#    y 0.000000 1.986070 0.000000 
#    z 0.000000 0.000000 1.902490 
# 
# From -- ./inp_files/31881.got.cif
#   From: 2010.05.17/outbox.cif.g08.bks.cpg/sg24_16_cif.got.tgz:31881.got - 2010.06.04 00:33:39.
