data_PCOD9335679
_publ_section_title
;
Structure prediction by ZEFSAII (Michael W. Deem and Ramdas Pophale) SiO2 
 PCOD9335679
Probable space group: I 21 21 21
;
_chemical_formula_sum "Si O2"
_cell_formula_units_Z 28
_cell_length_a 5.342709
_cell_length_b 15.227650
_cell_length_c 14.199353
_cell_angle_alpha 90.000000
_cell_angle_beta 90.000000
_cell_angle_gamma 90.000000
_cell_volume 1155.215380
_symmetry_space_group_name_H-M "I 21 21 21"
_symmetry_group_IT_number 24
_symmetry_cell_setting 'orthorhombic'
loop_
_space_group_symop_operation_xyz
x,y,z
-x,1/2-y,z
x,-y,1/2-z
1/2-x,y,-z
1/2+x,1/2+y,1/2+z
1/2-x,-y,1/2+z
1/2+x,1/2-y,-z
-x,1/2+y,1/2-z
loop_
_atom_site_type_symbol
_atom_site_label
_atom_site_fract_x
_atom_site_fract_y
_atom_site_fract_z
Si Si1 0.950446 0.064228 0.893316
Si Si2 0.500000 0.250000 0.177299
Si Si3 0.442004 0.993504 0.894804
Si Si4 0.249632 0.798697 0.136480
O O1 0.898966 0.167690 0.882305
O O2 0.222846 0.049774 0.847667
O O3 0.721263 0.005978 0.854087
O O4 0.002678 0.031839 0.000223
O O5 0.293916 0.214868 0.251704
O O6 0.316042 0.897826 0.892057
O O7 0.500000 0.750000 0.097622
O O8 0.000000 0.750000 0.109002
#
# Coordination Sequence:
#
# PCOD9335679 Si02
#       4
#     8   4   8   8
#     4  10  23  41  69  97 139 176 239 279 354 413
#     4  10  26  42  66 106 140 184 222 302 356 432
#     4  10  22  43  66 101 130 185 228 292 338 426
#     4  10  23  43  66  97 140 178 228 284 358 419
#
# _framework density 24.237905999999999
#
# number of rings (size 3 to 8) (size 9 to 14) (size 15 to 20)
#    0.857    1.143    0.000    1.714    4.000    5.714 
#    0.000   11.429    0.000    0.000    0.000    0.000 
#    0.000    0.000    0.000    0.000    0.000    0.000 
#
# Total GULP energy -77948.338100 kJ/mol
# GULP energy per Si atom -5567.738436 kJ/mol
# Density = 2.418274 g / cm^3
# Si number density = 24.237906 Si / 1000 Ang^3
#
#
#
# Elastic Constant Matrix: (Units=GPa)
#
#
# Indices 1 2 3 4 5 6 
#
# 1 246.2912 67.8513 27.6637 0.0000 0.0000 0.0000
# 2 67.8513 211.9438 71.6511 0.0000 0.0000 0.0000
# 3 27.6637 71.6511 118.3722 0.0000 0.0000 0.0000
# 4 0.0000 0.0000 0.0000 48.5547 0.0000 0.0000
# 5 0.0000 0.0000 0.0000 0.0000 9.1135 0.0000
# 6 0.0000 0.0000 0.0000 0.0000 0.0000 121.6652
#
#
#
# Elastic Compliance Matrix: (Units=1/GPa)
#
#
# Indices 1 2 3 4 5 6 
#
# 1 0.004458 -0.001351 -0.000224 0.000000 0.000000 0.000000
# 2 -0.001351 0.006342 -0.003523 0.000000 0.000000 0.000000
# 3 -0.000224 -0.003523 0.010633 0.000000 0.000000 0.000000
# 4 0.000000 0.000000 0.000000 0.020595 0.000000 0.000000
# 5 0.000000 0.000000 0.000000 0.000000 0.109727 0.000000
# 6 0.000000 0.000000 0.000000 0.000000 0.000000 0.008219
#
#
# Mechanical properties :
#
#
# Convention : Reuss Voigt Hill
#
# Bulk Modulus (GPa) = 88.99956 101.21548 95.10752
# Shear Modulus (GPa) = 28.74955 63.16274 45.95615
#
# Velocity S-wave (km/s) = 3.44777 5.11039 4.35908
# Velocity P-wave (km/s) = 7.25592 8.75621 8.04113
#
# Compressibility (1/GPa) = 0.01123601
#
# Stress axis : x y z
#
# Youngs Moduli (GPa) = 224.33220 157.68248 94.04996
#
# Poissons Ratio (x) = 0.21310 0.02104
# Poissons Ratio (y) = 0.30317 0.33133
# Poissons Ratio (z) = 0.05019 0.55550
#
# Static dielectric constant tensor:
#      x y z
#    x 2.024800 0.000000 0.000000 
#    y 0.000000 1.943630 0.000000 
#    z 0.000000 0.000000 0.658120 
# 
# From -- ./inp_files/31847.got.cif
#   From: 2010.05.17/outbox.cif.g08.bks.cpg/sg24_16_cif.got.tgz:31847.got - 2010.06.04 00:33:39.
