data_PCOD9335268
_publ_section_title
;
Structure prediction by ZEFSAII (Michael W. Deem and Ramdas Pophale) SiO2 
 PCOD9335268
Probable space group: I 21 21 21
;
_chemical_formula_sum "Si O2"
_cell_formula_units_Z 56
_cell_length_a 32.230454
_cell_length_b 14.766392
_cell_length_c 5.507489
_cell_angle_alpha 90.000000
_cell_angle_beta 90.000000
_cell_angle_gamma 90.000000
_cell_volume 2621.165571
_symmetry_space_group_name_H-M "I 21 21 21"
_symmetry_group_IT_number 24
_symmetry_cell_setting 'orthorhombic'
loop_
_space_group_symop_operation_xyz
x,y,z
-x,1/2-y,z
x,-y,1/2-z
1/2-x,y,-z
1/2+x,1/2+y,1/2+z
1/2-x,-y,1/2+z
1/2+x,1/2-y,-z
-x,1/2+y,1/2-z
loop_
_atom_site_type_symbol
_atom_site_label
_atom_site_fract_x
_atom_site_fract_y
_atom_site_fract_z
Si Si1 0.496426 0.393459 0.692997
Si Si2 0.298109 0.260948 0.965559
Si Si3 0.952549 0.833064 0.681369
Si Si4 0.642081 0.746160 0.904689
Si Si5 0.362535 0.396932 0.217503
Si Si6 0.922464 0.333470 0.061140
Si Si7 0.651601 0.599335 0.300113
O O1 0.491218 0.500000 0.750000
O O2 0.476303 0.362584 0.432422
O O3 0.544590 0.368227 0.742737
O O4 0.476493 0.346200 0.928630
O O5 0.310912 0.251871 0.686496
O O6 0.250000 0.276569 0.000000
O O7 0.327826 0.340832 0.068743
O O8 0.314837 0.166517 0.078507
O O9 0.910639 0.891347 0.639500
O O10 0.941197 0.725762 0.662969
O O11 0.609148 0.735008 0.691958
O O12 0.633728 0.839120 0.037527
O O13 0.638463 0.656966 0.066028
O O14 0.349924 0.500000 0.250000
O O15 0.890644 0.408093 0.958691
O O16 0.667964 0.500000 0.250000
#
# Coordination Sequence:
#
# PCOD9335268 Si02
#       7
#     8   8   8   8   8   8   8
#     4  12  29  44  68 104 139 187 250 306 355 428
#     4  10  23  46  67 104 141 178 234 292 361 432
#     4  12  25  47  66  98 142 191 240 299 369 427
#     4  10  21  44  71  94 142 183 229 289 363 421
#     4  11  23  42  68  98 133 185 235 285 358 433
#     4  11  25  42  68  96 136 188 237 293 362 429
#     4  10  23  42  70 104 137 186 239 287 359 435
#
# _framework density 21.364540000000002
#
# number of rings (size 3 to 8) (size 9 to 14) (size 15 to 20)
#    0.000    1.143    4.286    2.571    4.000    6.857 
#    5.143    0.000    0.000    0.000    0.000    0.000 
#    0.000    0.000    0.000    0.000    0.000    0.000 
#
# Total GULP energy -156116.312379 kJ/mol
# GULP energy per Si atom -5575.582585 kJ/mol
# Density = 2.131591 g / cm^3
# Si number density = 21.364540 Si / 1000 Ang^3
#
#
#
# Elastic Constant Matrix: (Units=GPa)
#
#
# Indices 1 2 3 4 5 6 
#
# 1 122.4395 9.9522 20.4493 0.0001 0.0000 0.0000
# 2 9.9522 124.1018 4.3495 0.0001 0.0001 0.0000
# 3 20.4493 4.3495 69.2460 0.0009 -0.0003 0.0003
# 4 0.0001 0.0001 0.0009 -16.6529 0.0002 -0.0003
# 5 0.0000 0.0001 -0.0003 0.0002 27.7648 0.0000
# 6 0.0000 0.0000 0.0003 -0.0003 0.0000 25.2200
#
#
#
# Elastic Compliance Matrix: (Units=1/GPa)
#
#
# Indices 1 2 3 4 5 6 
#
# 1 0.008636 -0.000605 -0.002512 0.000000 0.000000 0.000000
# 2 -0.000605 0.008118 -0.000331 0.000000 0.000000 0.000000
# 3 -0.002512 -0.000331 0.015204 0.000001 0.000000 0.000000
# 4 0.000000 0.000000 0.000001 -0.060050 0.000000 -0.000001
# 5 0.000000 0.000000 0.000000 0.000000 0.036017 0.000000
# 6 0.000000 0.000000 0.000000 -0.000001 0.000000 0.039651
#
#
# Mechanical properties :
#
#
# Convention : Reuss Voigt Hill
#
# Bulk Modulus (GPa) = 39.90183 42.80994 41.35588
# Shear Modulus (GPa) = 79.58407 26.00214 52.79310
#
# Velocity S-wave (km/s) = 6.10994 3.49244 4.97637
# Velocity P-wave (km/s) = 8.27601 6.02861 7.24005
#
# Compressibility (1/GPa) = 0.02506151
#
# Stress axis : x y z
#
# Youngs Moduli (GPa) = 115.79384 123.18311 65.77211
#
# Poissons Ratio (x) = 0.07446 0.16524
# Poissons Ratio (y) = 0.07000 0.02180
# Poissons Ratio (z) = 0.29092 0.04082
#
# Static dielectric constant tensor:
#      x y z
#    x 1.848070 0.000000 0.000000 
#    y 0.000000 1.773960 0.000000 
#    z 0.000000 0.000000 1.869350 
# 
# From -- ./inp_files/7739.got.cif
#   From: 2010.05.17/outbox.cif.g08.bks.cpg/sg24_4_cif.got.tgz:7739.got - 2010.06.04 00:33:39.
