data_PCOD9335185
_publ_section_title
;
Structure prediction by ZEFSAII (Michael W. Deem and Ramdas Pophale) SiO2 
 PCOD9335185
Probable space group: I 21 21 21
;
_chemical_formula_sum "Si O2"
_cell_formula_units_Z 40
_cell_length_a 9.707692
_cell_length_b 7.943465
_cell_length_c 22.105145
_cell_angle_alpha 90.000000
_cell_angle_beta 90.000000
_cell_angle_gamma 90.000000
_cell_volume 1704.587672
_symmetry_space_group_name_H-M "I 21 21 21"
_symmetry_group_IT_number 24
_symmetry_cell_setting 'orthorhombic'
loop_
_space_group_symop_operation_xyz
x,y,z
-x,1/2-y,z
x,-y,1/2-z
1/2-x,y,-z
1/2+x,1/2+y,1/2+z
1/2-x,-y,1/2+z
1/2+x,1/2-y,-z
-x,1/2+y,1/2-z
loop_
_atom_site_type_symbol
_atom_site_label
_atom_site_fract_x
_atom_site_fract_y
_atom_site_fract_z
Si Si1 0.680500 0.381290 0.057545
Si Si2 0.861583 0.167596 0.820854
Si Si3 0.582960 0.922707 0.082728
Si Si4 0.152848 0.805768 0.231230
Si Si5 0.159315 0.775627 0.086488
O O1 0.684891 0.272512 0.118885
O O2 0.521301 0.444678 0.050711
O O3 0.775558 0.547780 0.065535
O O4 0.750000 0.292053 0.000000
O O5 0.750025 0.186857 0.770116
O O6 0.000000 0.250000 0.796706
O O7 0.902489 0.989767 0.848803
O O8 0.500000 0.750000 0.081279
O O9 0.738552 0.873209 0.065183
O O10 0.165999 0.783303 0.159409
O O11 0.000000 0.750000 0.248115
O O12 0.178460 0.000000 0.250000
O O13 0.000000 0.750000 0.067976
#
# Coordination Sequence:
#
# PCOD9335185 Si02
#       5
#     8   8   8   8   8
#     4  10  21  42  65  90 126 166 218 279 330 393
#     4  10  22  41  64  93 131 170 218 273 334 395
#     4   9  21  41  64  91 129 168 214 271 328 395
#     4  11  24  41  63  95 136 174 221 275 336 405
#     4  10  22  39  62  92 130 173 222 268 329 398
#
# _framework density 23.466083000000001
#
# number of rings (size 3 to 8) (size 9 to 14) (size 15 to 20)
#    0.000    2.000    2.000    0.000    5.600    4.800 
#    0.000   13.000    0.000    0.000    0.000    0.000 
#    0.000    0.000    0.000    0.000    0.000    0.000 
#
# Total GULP energy -111819.246745 kJ/mol
# GULP energy per Si atom -5590.962337 kJ/mol
# Density = 2.341267 g / cm^3
# Si number density = 23.466083 Si / 1000 Ang^3
#
#
#
# Elastic Constant Matrix: (Units=GPa)
#
#
# Indices 1 2 3 4 5 6 
#
# 1 177.4335 16.0714 63.0405 0.0000 0.0000 0.0000
# 2 16.0714 63.1894 14.0719 0.0000 0.0000 0.0000
# 3 63.0405 14.0719 114.2984 0.0000 0.0000 0.0000
# 4 0.0000 0.0000 0.0000 -0.0332 0.0000 0.0000
# 5 0.0000 0.0000 0.0000 0.0000 28.3136 0.0000
# 6 0.0000 0.0000 0.0000 0.0000 0.0000 19.7040
#
#
#
# Elastic Compliance Matrix: (Units=1/GPa)
#
#
# Indices 1 2 3 4 5 6 
#
# 1 0.007065 -0.000955 -0.003779 0.000000 0.000000 0.000000
# 2 -0.000955 0.016401 -0.001492 0.000000 0.000000 0.000000
# 3 -0.003779 -0.001492 0.011017 0.000000 0.000000 0.000000
# 4 0.000000 0.000000 0.000000-30.127470 0.000000 0.000000
# 5 0.000000 0.000000 0.000000 0.000000 0.035319 0.000000
# 6 0.000000 0.000000 0.000000 0.000000 0.000000 0.050751
#
#
# Mechanical properties :
#
#
# Convention : Reuss Voigt Hill
#
# Bulk Modulus (GPa) = 45.39362 60.14320 52.76841
# Shear Modulus (GPa) = -0.16674 27.04604 13.43965
#
# Velocity S-wave (km/s) = -0.26685 3.39862 2.39577
# Velocity P-wave (km/s) = 4.39220 6.40986 5.49444
#
# Compressibility (1/GPa) = 0.02202953
#
# Stress axis : x y z
#
# Youngs Moduli (GPa) = 141.54032 60.97285 90.76808
#
# Poissons Ratio (x) = 0.05825 0.34302
# Poissons Ratio (y) = 0.13522 0.13545
# Poissons Ratio (z) = 0.53490 0.09099
#
# Static dielectric constant tensor:
#      x y z
#    x 1.941660 0.000000 0.000000 
#    y 0.000000 1.952380 0.000000 
#    z 0.000000 0.000000 1.863470 
# 
# From -- ./inp_files/9234.got.cif
#   From: 2010.05.17/outbox.cif.g08.bks.cpg/sg24_5_cif.got.tgz:9234.got - 2010.06.04 00:33:39.
