data_PCOD9335095
_publ_section_title
;
Structure prediction by ZEFSAII (Michael W. Deem and Ramdas Pophale) SiO2 
 PCOD9335095
Probable space group: I 21 21 21
;
_chemical_formula_sum "Si O2"
_cell_formula_units_Z 40
_cell_length_a 28.284112
_cell_length_b 12.364896
_cell_length_c 5.132762
_cell_angle_alpha 90.000000
_cell_angle_beta 90.000000
_cell_angle_gamma 90.000000
_cell_volume 1795.081385
_symmetry_space_group_name_H-M "I 21 21 21"
_symmetry_group_IT_number 24
_symmetry_cell_setting 'orthorhombic'
loop_
_space_group_symop_operation_xyz
x,y,z
-x,1/2-y,z
x,-y,1/2-z
1/2-x,y,-z
1/2+x,1/2+y,1/2+z
1/2-x,-y,1/2+z
1/2+x,1/2-y,-z
-x,1/2+y,1/2-z
loop_
_atom_site_type_symbol
_atom_site_label
_atom_site_fract_x
_atom_site_fract_y
_atom_site_fract_z
Si Si1 0.650936 0.810216 0.624983
Si Si2 0.944303 0.435714 0.006171
Si Si3 0.330203 0.931117 0.510909
Si Si4 0.778858 0.000000 0.250000
Si Si5 0.000000 0.250000 0.790075
Si Si6 0.089151 0.625050 0.859071
O O1 0.677702 0.695034 0.585228
O O2 0.689334 0.904593 0.635201
O O3 0.618881 0.819326 0.370091
O O4 0.617490 0.840312 0.876581
O O5 0.963057 0.500000 0.250000
O O6 0.887722 0.432182 0.018196
O O7 0.957125 0.500000 0.750000
O O8 0.967484 0.321216 0.976022
O O9 0.310927 0.000000 0.750000
O O10 0.317449 0.000000 0.250000
O O11 0.750000 0.041916 0.500000
O O12 0.963195 0.176429 0.629575
O O13 0.086876 0.500000 0.750000
#
# Coordination Sequence:
#
# PCOD9335095 Si02
#       6
#     8   8   8   4   4   8
#     4  12  24  47  73 103 148 184 240 307 385 449
#     4  10  23  39  55  84 125 173 237 297 329 396
#     4  10  21  40  67  95 132 184 236 279 349 426
#     4  12  26  48  82 116 144 182 238 314 398 484
#     4  12  26  40  62  92 136 196 248 290 360 408
#     4  12  25  43  64  99 142 199 243 308 366 431
#
# _framework density 22.283111999999999
#
# number of rings (size 3 to 8) (size 9 to 14) (size 15 to 20)
#    0.000    0.800    4.000    3.000    5.600    4.800 
#    0.000    0.000    0.000    2.400    0.000    0.000 
#    0.000    0.000    0.000    0.000    0.000    0.000 
#
# Total GULP energy -111576.585572 kJ/mol
# GULP energy per Si atom -5578.829279 kJ/mol
# Density = 2.223240 g / cm^3
# Si number density = 22.283112 Si / 1000 Ang^3
#
#
#
# Elastic Constant Matrix: (Units=GPa)
#
#
# Indices 1 2 3 4 5 6 
#
# 1 43.3625 -0.0653 6.0637 -0.0003 -0.0001 0.0000
# 2 -0.0653 138.4280 4.6739 -0.0005 -0.0004 0.0000
# 3 6.0637 4.6739 120.7905 0.0014 0.0010 -0.0002
# 4 -0.0003 -0.0005 0.0014 30.2528 0.0007 -0.0002
# 5 -0.0001 -0.0004 0.0010 0.0007 0.3581 -0.0001
# 6 0.0000 0.0000 -0.0002 -0.0002 -0.0001 -15.4971
#
#
#
# Elastic Compliance Matrix: (Units=1/GPa)
#
#
# Indices 1 2 3 4 5 6 
#
# 1 0.023225 0.000050 -0.001168 0.000000 0.000012 0.000000
# 2 0.000050 0.007234 -0.000282 0.000000 0.000008 0.000000
# 3 -0.001168 -0.000282 0.008348 0.000000 -0.000024 0.000000
# 4 0.000000 0.000000 0.000000 0.033055 -0.000064 0.000000
# 5 0.000012 0.000008 -0.000024 -0.000064 2.792254 -0.000022
# 6 0.000000 0.000000 0.000000 0.000000 -0.000022 -0.064528
#
#
# Mechanical properties :
#
#
# Convention : Reuss Voigt Hill
#
# Bulk Modulus (GPa) = 27.77246 35.99174 31.88210
# Shear Modulus (GPa) = 1.77658 22.48336 12.12997
#
# Velocity S-wave (km/s) = 0.89387 3.17990 2.33568
# Velocity P-wave (km/s) = 3.68183 5.44697 4.64894
#
# Compressibility (1/GPa) = 0.03600689
#
# Stress axis : x y z
#
# Youngs Moduli (GPa) = 43.05748 138.24505 119.78415
#
# Poissons Ratio (x) = -0.00697 0.13989
# Poissons Ratio (y) = -0.00217 0.03383
# Poissons Ratio (z) = 0.05028 0.03904
#
# Static dielectric constant tensor:
#      x y z
#    x 1.839430 0.000000 0.000000 
#    y 0.000000 2.004290 0.000000 
#    z 0.000000 0.000000 1.788180 
# 
# From -- ./inp_files/7641.got.cif
#   From: 2010.05.17/outbox.cif.g08.bks.cpg/sg24_4_cif.got.tgz:7641.got - 2010.06.04 00:33:39.
