data_PCOD9335742
_publ_section_title
;
Structure prediction by ZEFSAII (Michael W. Deem and Ramdas Pophale) SiO2 
 PCOD9335742
Probable space group: I 21 21 21
;
_chemical_formula_sum "Si O2"
_cell_formula_units_Z 36
_cell_length_a 14.262531
_cell_length_b 5.193760
_cell_length_c 19.896594
_cell_angle_alpha 90.000000
_cell_angle_beta 90.000000
_cell_angle_gamma 90.000000
_cell_volume 1473.863340
_symmetry_space_group_name_H-M "I 21 21 21"
_symmetry_group_IT_number 24
_symmetry_cell_setting 'orthorhombic'
loop_
_space_group_symop_operation_xyz
x,y,z
-x,1/2-y,z
x,-y,1/2-z
1/2-x,y,-z
1/2+x,1/2+y,1/2+z
1/2-x,-y,1/2+z
1/2+x,1/2-y,-z
-x,1/2+y,1/2-z
loop_
_atom_site_type_symbol
_atom_site_label
_atom_site_fract_x
_atom_site_fract_y
_atom_site_fract_z
Si Si1 0.750000 0.186103 0.000000
Si Si2 0.350169 0.072819 0.327258
Si Si3 0.000000 0.750000 0.005228
Si Si4 0.650223 0.574106 0.897912
Si Si5 0.093023 0.441243 0.900324
Si Si6 0.500000 0.750000 0.790425
O O1 0.820697 0.351595 0.047904
O O2 0.687416 0.038578 0.054028
O O3 0.398597 0.829052 0.362901
O O4 0.342094 0.000000 0.250000
O O5 0.247852 0.111605 0.360158
O O6 0.402284 0.337033 0.344263
O O7 0.986170 0.985995 0.954849
O O8 0.908315 0.754396 0.051476
O O9 0.575498 0.592305 0.836186
O O10 0.457201 0.500000 0.750000
#
# Coordination Sequence:
#
# PCOD9335742 Si02
#       6
#     4   8   4   8   8   4
#     4  10  22  44  70 104 136 180 234 284 344 402
#     4  11  24  45  68  98 134 184 230 271 330 412
#     4  11  22  42  70 106 136 171 224 288 354 395
#     4  10  23  42  71 100 138 178 225 286 341 404
#     4  11  24  41  69  98 135 176 225 284 337 400
#     4  11  26  44  64 100 142 185 226 274 346 417
#
# _framework density 24.425602999999999
#
# number of rings (size 3 to 8) (size 9 to 14) (size 15 to 20)
#    0.000    1.333    0.000    5.333    0.000   13.333 
#    0.000    2.222    0.000    0.000    0.000    0.000 
#    0.000    0.000    0.000    0.000    0.000    0.000 
#
# Total GULP energy -100293.126849 kJ/mol
# GULP energy per Si atom -5571.840381 kJ/mol
# Density = 2.437001 g / cm^3
# Si number density = 24.425603 Si / 1000 Ang^3
#
#
#
# Elastic Constant Matrix: (Units=GPa)
#
#
# Indices 1 2 3 4 5 6 
#
# 1 89.1734 31.5206 49.0909 0.0000 0.0000 0.0000
# 2 31.5206 115.8948 58.9387 0.0000 0.0000 0.0000
# 3 49.0909 58.9387 175.0305 0.0000 0.0000 0.0000
# 4 0.0000 0.0000 0.0000 39.8443 0.0000 0.0000
# 5 0.0000 0.0000 0.0000 0.0000 32.7343 0.0000
# 6 0.0000 0.0000 0.0000 0.0000 0.0000 35.6380
#
#
#
# Elastic Compliance Matrix: (Units=1/GPa)
#
#
# Indices 1 2 3 4 5 6 
#
# 1 0.013686 -0.002136 -0.003119 0.000000 0.000000 0.000000
# 2 -0.002136 0.010745 -0.003019 0.000000 0.000000 0.000000
# 3 -0.003119 -0.003019 0.007605 0.000000 0.000000 0.000000
# 4 0.000000 0.000000 0.000000 0.025098 0.000000 0.000000
# 5 0.000000 0.000000 0.000000 0.000000 0.030549 0.000000
# 6 0.000000 0.000000 0.000000 0.000000 0.000000 0.028060
#
#
# Mechanical properties :
#
#
# Convention : Reuss Voigt Hill
#
# Bulk Modulus (GPa) = 64.56969 73.24434 68.90702
# Shear Modulus (GPa) = 36.37585 37.67988 37.02787
#
# Velocity S-wave (km/s) = 3.86327 3.93191 3.89774
# Velocity P-wave (km/s) = 6.81120 7.11793 6.96625
#
# Compressibility (1/GPa) = 0.01548714
#
# Stress axis : x y z
#
# Youngs Moduli (GPa) = 73.06542 93.06826 131.49599
#
# Poissons Ratio (x) = 0.19879 0.41018
# Poissons Ratio (y) = 0.15607 0.39699
# Poissons Ratio (z) = 0.22792 0.28098
#
# Static dielectric constant tensor:
#      x y z
#    x 2.002300 0.000000 0.000000 
#    y 0.000000 2.063250 0.000000 
#    z 0.000000 0.000000 1.911610 
# 
# From -- ./inp_files/33592.got.cif
#   From: 2010.05.17/outbox.cif.g08.bks.cpg/sg24_17_cif.got.tgz:33592.got - 2010.06.04 00:33:39.
