data_PCOD9335624
_publ_section_title
;
Structure prediction by ZEFSAII (Michael W. Deem and Ramdas Pophale) SiO2 
 PCOD9335624
Probable space group: I 21 21 21
;
_chemical_formula_sum "Si O2"
_cell_formula_units_Z 64
_cell_length_a 11.800247
_cell_length_b 14.510310
_cell_length_c 17.237633
_cell_angle_alpha 90.000000
_cell_angle_beta 90.000000
_cell_angle_gamma 90.000000
_cell_volume 2951.517883
_symmetry_space_group_name_H-M "I 21 21 21"
_symmetry_group_IT_number 24
_symmetry_cell_setting 'orthorhombic'
loop_
_space_group_symop_operation_xyz
x,y,z
-x,1/2-y,z
x,-y,1/2-z
1/2-x,y,-z
1/2+x,1/2+y,1/2+z
1/2-x,-y,1/2+z
1/2+x,1/2-y,-z
-x,1/2+y,1/2-z
loop_
_atom_site_type_symbol
_atom_site_label
_atom_site_fract_x
_atom_site_fract_y
_atom_site_fract_z
Si Si1 0.878709 0.705991 0.881908
Si Si2 0.903279 0.953602 0.099997
Si Si3 0.362121 0.963340 0.834242
Si Si4 0.299287 0.543162 0.332262
Si Si5 0.132595 0.752601 0.108011
Si Si6 0.795490 0.603145 0.579000
Si Si7 0.867025 0.749340 0.699915
Si Si8 0.995899 0.474634 0.569692
O O1 0.763859 0.740326 0.922400
O O2 0.860128 0.725346 0.790916
O O3 0.906352 0.601305 0.902031
O O4 0.000000 0.750000 0.902602
O O5 0.866593 0.854154 0.134857
O O6 0.008680 0.990852 0.148848
O O7 0.798809 0.021838 0.106870
O O8 0.945662 0.945702 0.011016
O O9 0.364735 0.851505 0.845821
O O10 0.326401 0.000000 0.750000
O O11 0.286043 0.018067 0.896636
O O12 0.266905 0.500000 0.250000
O O13 0.320856 0.650070 0.318782
O O14 0.411034 0.492181 0.364494
O O15 0.000000 0.750000 0.075166
O O16 0.750000 0.646530 0.500000
O O17 0.803046 0.673419 0.649641
O O18 0.921043 0.565730 0.561264
O O19 0.000000 0.750000 0.679911
#
# Coordination Sequence:
#
# PCOD9335624 Si02
#       8
#     8   8   8   8   8   8   8   8
#     4  11  23  41  70 109 140 184 246 299 375 439
#     4  11  25  46  68 103 148 194 238 301 378 447
#     4  11  23  42  70  99 137 191 242 296 362 441
#     4  12  25  46  74 105 146 191 241 307 372 449
#     4  10  22  42  66  98 143 191 240 300 365 451
#     4  12  25  45  68 101 139 181 244 292 357 433
#     4  11  24  45  71 105 141 188 245 307 359 438
#     4  12  25  43  71 102 144 189 239 307 370 438
#
# _framework density 21.683757
#
# number of rings (size 3 to 8) (size 9 to 14) (size 15 to 20)
#    0.000    0.750    3.750    4.500    0.000    3.500 
#    0.000    3.125    0.000    0.000    0.000    0.000 
#    0.000    0.000    0.000    0.000    0.000    0.000 
#
# Total GULP energy -178456.296657 kJ/mol
# GULP energy per Si atom -5576.759271 kJ/mol
# Density = 2.163440 g / cm^3
# Si number density = 21.683757 Si / 1000 Ang^3
#
#
#
# Elastic Constant Matrix: (Units=GPa)
#
#
# Indices 1 2 3 4 5 6 
#
# 1 155.8790 42.1999 25.3898 0.0000 0.0000 0.0000
# 2 42.1999 115.2878 37.0545 0.0000 0.0000 0.0000
# 3 25.3898 37.0545 95.5759 0.0000 0.0000 0.0000
# 4 0.0000 0.0000 0.0000 -227.2845 0.0000 0.0000
# 5 0.0000 0.0000 0.0000 0.0000 -93.5737 0.0000
# 6 0.0000 0.0000 0.0000 0.0000 0.0000 -15.2116
#
#
#
# Elastic Compliance Matrix: (Units=1/GPa)
#
#
# Indices 1 2 3 4 5 6 
#
# 1 0.007207 -0.002311 -0.001019 0.000000 0.000000 0.000000
# 2 -0.002311 0.010649 -0.003515 0.000000 0.000000 0.000000
# 3 -0.001019 -0.003515 0.012096 0.000000 0.000000 0.000000
# 4 0.000000 0.000000 0.000000 -0.004400 0.000000 0.000000
# 5 0.000000 0.000000 0.000000 0.000000 -0.010687 0.000000
# 6 0.000000 0.000000 0.000000 0.000000 0.000000 -0.065739
#
#
# Mechanical properties :
#
#
# Convention : Reuss Voigt Hill
#
# Bulk Modulus (GPa) = 61.48538 64.00345 62.74441
# Shear Modulus (GPa) = -157.41152 -49.74072 -103.57612
#
# Velocity S-wave (km/s) = -8.52947 -4.79468 -6.91884
# Velocity P-wave (km/s) = 8.28163 1.03494 5.90154
#
# Compressibility (1/GPa) = 0.01626403
#
# Stress axis : x y z
#
# Youngs Moduli (GPa) = 138.76051 93.90181 82.67031
#
# Poissons Ratio (x) = 0.21696 0.08421
# Poissons Ratio (y) = 0.32061 0.29058
# Poissons Ratio (z) = 0.14135 0.33006
#
# Static dielectric constant tensor:
#      x y z
#    x 1.985350 0.000000 0.000000 
#    y 0.000000 1.830870 0.000000 
#    z 0.000000 0.000000 1.854430 
# 
# From -- ./inp_files/30361.got.cif
#   From: 2010.05.17/outbox.cif.g08.bks.cpg/sg24_16_cif.got.tgz:30361.got - 2010.06.04 00:33:39.
