data_PCOD9335905
_publ_section_title
;
Structure prediction by ZEFSAII (Michael W. Deem and Ramdas Pophale) SiO2 
 PCOD9335905
Probable space group: I 21 21 21
;
_chemical_formula_sum "Si O2"
_cell_formula_units_Z 56
_cell_length_a 9.665738
_cell_length_b 14.307895
_cell_length_c 20.917122
_cell_angle_alpha 90.000000
_cell_angle_beta 90.000000
_cell_angle_gamma 90.000000
_cell_volume 2892.761926
_symmetry_space_group_name_H-M "I 21 21 21"
_symmetry_group_IT_number 24
_symmetry_cell_setting 'orthorhombic'
loop_
_space_group_symop_operation_xyz
x,y,z
-x,1/2-y,z
x,-y,1/2-z
1/2-x,y,-z
1/2+x,1/2+y,1/2+z
1/2-x,-y,1/2+z
1/2+x,1/2-y,-z
-x,1/2+y,1/2-z
loop_
_atom_site_type_symbol
_atom_site_label
_atom_site_fract_x
_atom_site_fract_y
_atom_site_fract_z
Si Si1 0.767301 0.873279 0.403733
Si Si2 0.568656 0.025069 0.675123
Si Si3 0.762791 0.431389 0.360569
Si Si4 0.548175 0.500000 0.250000
Si Si5 0.475022 0.351912 0.012226
Si Si6 0.875805 0.820024 0.714135
Si Si7 0.250000 0.025197 0.000000
Si Si8 0.349029 0.272208 0.681402
O O1 0.881254 0.830699 0.450287
O O2 0.632949 0.907264 0.442976
O O3 0.706539 0.804943 0.351112
O O4 0.844434 0.953288 0.365692
O O5 0.404931 0.019512 0.662581
O O6 0.616960 0.127481 0.650574
O O7 0.592916 0.000000 0.750000
O O8 0.644624 0.459477 0.308176
O O9 0.738516 0.465547 0.433730
O O10 0.796102 0.319576 0.356174
O O11 0.446651 0.421113 0.221344
O O12 0.500000 0.250000 0.042012
O O13 0.613187 0.409204 0.998339
O O14 0.767727 0.797960 0.768852
O O15 0.000000 0.750000 0.719049
O O16 0.500000 0.250000 0.711903
#
# Coordination Sequence:
#
# PCOD9335905 Si02
#       8
#     8   8   8   4   8   8   4   8
#     4  11  23  42  66  97 131 176 222 278 350 407
#     4  11  20  42  72  99 131 174 227 280 345 413
#     4  11  24  43  68 101 136 180 228 287 347 410
#     4  12  24  40  68 100 142 172 220 294 356 404
#     4  11  25  45  66  94 135 176 229 283 338 424
#     4  12  23  39  64 101 135 172 215 277 350 408
#     4  12  24  46  70  94 136 182 228 282 352 420
#     4  10  23  42  66  94 136 172 228 276 328 413
#
# _framework density 19.358661999999999
#
# number of rings (size 3 to 8) (size 9 to 14) (size 15 to 20)
#    0.000    0.857    5.000    3.000    0.000    1.714 
#    0.000    1.429    9.429    0.000    0.000    0.000 
#    0.000    0.000    0.000    0.000    0.000    0.000 
#
# Total GULP energy -156103.745045 kJ/mol
# GULP energy per Si atom -5575.133752 kJ/mol
# Density = 1.931460 g / cm^3
# Si number density = 19.358662 Si / 1000 Ang^3
#
#
#
# Elastic Constant Matrix: (Units=GPa)
#
#
# Indices 1 2 3 4 5 6 
#
# 1 103.7747 27.9294 28.9436 0.0000 0.0000 0.0000
# 2 27.9294 52.5495 21.1953 0.0000 0.0000 -0.0002
# 3 28.9436 21.1953 82.1173 0.0000 0.0000 -0.0002
# 4 0.0000 0.0000 0.0000 5.2258 0.0000 -0.0003
# 5 0.0000 0.0000 0.0000 0.0000 27.6364 0.0000
# 6 0.0000 -0.0002 -0.0002 -0.0003 0.0000-2623.7243
#
#
#
# Elastic Compliance Matrix: (Units=1/GPa)
#
#
# Indices 1 2 3 4 5 6 
#
# 1 0.011809 -0.005132 -0.002838 0.000000 0.000000 0.000000
# 2 -0.005132 0.023471 -0.004249 0.000000 0.000000 0.000000
# 3 -0.002838 -0.004249 0.014275 0.000000 0.000000 0.000000
# 4 0.000000 0.000000 0.000000 0.191360 0.000000 0.000000
# 5 0.000000 0.000000 0.000000 0.000000 0.036184 0.000000
# 6 0.000000 0.000000 0.000000 0.000000 0.000000 -0.000381
#
#
# Mechanical properties :
#
#
# Convention : Reuss Voigt Hill
#
# Bulk Modulus (GPa) = 39.81351 43.84201 41.82776
# Shear Modulus (GPa) = 16.15368 -507.48088 -245.66360
#
# Velocity S-wave (km/s) = 2.89180 -16.20851 -11.27726
# Velocity P-wave (km/s) = 5.63568 18.09948 12.16204
#
# Compressibility (1/GPa) = 0.02511710
#
# Stress axis : x y z
#
# Youngs Moduli (GPa) = 84.68240 42.60569 70.05409
#
# Poissons Ratio (x) = 0.21864 0.19879
# Poissons Ratio (y) = 0.43456 0.29768
# Poissons Ratio (z) = 0.24030 0.18105
#
# Static dielectric constant tensor:
#      x y z
#    x 1.758360 0.000000 0.000000 
#    y 0.000000 1.704050 0.000000 
#    z 0.000000 0.000000 1.880670 
# 
# From -- ./inp_files/32863.got.cif
#   From: 2010.05.17/outbox.cif.g08.bks.cpg/sg24_17_cif.got.tgz:32863.got - 2010.06.04 00:33:39.
