data_PCOD9335382
_publ_section_title
;
Structure prediction by ZEFSAII (Michael W. Deem and Ramdas Pophale) SiO2 
 PCOD9335382
Probable space group: I 21 21 21
;
_chemical_formula_sum "Si O2"
_cell_formula_units_Z 44
_cell_length_a 21.501016
_cell_length_b 12.366615
_cell_length_c 8.553809
_cell_angle_alpha 90.000000
_cell_angle_beta 90.000000
_cell_angle_gamma 90.000000
_cell_volume 2274.413222
_symmetry_space_group_name_H-M "I 21 21 21"
_symmetry_group_IT_number 24
_symmetry_cell_setting 'orthorhombic'
loop_
_space_group_symop_operation_xyz
x,y,z
-x,1/2-y,z
x,-y,1/2-z
1/2-x,y,-z
1/2+x,1/2+y,1/2+z
1/2-x,-y,1/2+z
1/2+x,1/2-y,-z
-x,1/2+y,1/2-z
loop_
_atom_site_type_symbol
_atom_site_label
_atom_site_fract_x
_atom_site_fract_y
_atom_site_fract_z
Si Si1 0.000000 0.750000 0.999315
Si Si2 0.788295 0.839949 0.765850
Si Si3 0.426257 0.626304 0.264208
Si Si4 0.000000 0.750000 0.488463
Si Si5 0.250000 0.492250 0.000000
Si Si6 0.416472 0.126461 0.748926
Si Si7 0.268649 0.118785 0.813925
O O1 0.049694 0.818996 0.099900
O O2 0.042355 0.675057 0.889722
O O3 0.857659 0.829099 0.701284
O O4 0.762337 0.719480 0.777652
O O5 0.744351 0.907629 0.644632
O O6 0.795110 0.917728 0.918804
O O7 0.420607 0.500000 0.250000
O O8 0.470554 0.658748 0.404406
O O9 0.947344 0.693921 0.387300
O O10 0.342198 0.130630 0.775374
O O11 0.433538 0.000000 0.750000
O O12 0.249437 0.000000 0.750000
O O13 0.250000 0.126714 0.000000
#
# Coordination Sequence:
#
# PCOD9335382 Si02
#       7
#     4   8   8   4   4   8   8
#     4  10  24  40  62  90 118 164 200 252 296 360
#     4  11  23  40  63  95 127 159 208 250 319 368
#     4  11  22  40  63  90 123 156 205 250 305 364
#     4  10  22  38  62  86 120 164 198 254 296 356
#     4  10  22  40  62  94 128 158 194 260 312 380
#     4  10  22  42  61  87 122 158 206 248 298 360
#     4  11  25  41  63  91 127 167 207 254 307 374
#
# _framework density 19.345649000000002
#
# number of rings (size 3 to 8) (size 9 to 14) (size 15 to 20)
#    0.000    1.455    2.727    2.182    3.818    1.455 
#    0.000    4.545    0.000    0.000    0.000    0.000 
#    0.000    0.000    0.000    0.000    0.000    0.000 
#
# Total GULP energy -122469.347186 kJ/mol
# GULP energy per Si atom -5566.788508 kJ/mol
# Density = 1.930162 g / cm^3
# Si number density = 19.345649 Si / 1000 Ang^3
#
#
#
# Elastic Constant Matrix: (Units=GPa)
#
#
# Indices 1 2 3 4 5 6 
#
# 1 55.3283 64.7387 28.5059 0.0000 0.0000 0.0000
# 2 64.7387 153.8348 34.9562 0.0000 0.0000 0.0000
# 3 28.5059 34.9562 75.0443 0.0000 0.0000 0.0000
# 4 0.0000 0.0000 0.0000 29.4672 0.0000 0.0000
# 5 0.0000 0.0000 0.0000 0.0000 0.8251 0.0000
# 6 0.0000 0.0000 0.0000 0.0000 0.0000 40.9741
#
#
#
# Elastic Compliance Matrix: (Units=1/GPa)
#
#
# Indices 1 2 3 4 5 6 
#
# 1 0.039607 -0.014818 -0.008143 0.000000 0.000000 0.000000
# 2 -0.014818 0.012814 -0.000340 0.000000 0.000000 0.000000
# 3 -0.008143 -0.000340 0.016577 0.000000 0.000000 0.000000
# 4 0.000000 0.000000 0.000000 0.033936 0.000000 0.000000
# 5 0.000000 0.000000 0.000000 0.000000 1.211910 0.000000
# 6 0.000000 0.000000 0.000000 0.000000 0.000000 0.024406
#
#
# Mechanical properties :
#
#
# Convention : Reuss Voigt Hill
#
# Bulk Modulus (GPa) = 44.64973 60.06767 52.35870
# Shear Modulus (GPa) = 3.58856 24.65373 14.12114
#
# Velocity S-wave (km/s) = 1.36345 3.57372 2.70467
# Velocity P-wave (km/s) = 5.06051 6.93871 6.07266
#
# Compressibility (1/GPa) = 0.02239655
#
# Stress axis : x y z
#
# Youngs Moduli (GPa) = 25.24804 78.04266 60.32480
#
# Poissons Ratio (x) = 1.15641 0.49121
# Poissons Ratio (y) = 0.37412 0.02052
# Poissons Ratio (z) = 0.20559 0.02654
#
# Static dielectric constant tensor:
#      x y z
#    x 1.664150 0.000000 0.000000 
#    y 0.000000 1.643520 0.000000 
#    z 0.000000 0.000000 1.696220 
# 
# From -- ./inp_files/15799.got.cif
#   From: 2010.05.17/outbox.cif.g08.bks.cpg/sg24_8_cif.got.tgz:15799.got - 2010.06.04 00:33:39.
